1ya4_ligand
                    3D
 Schrodinger Suite 2020-3.
 58 60  0  0  1  0            999 V2000
   -1.5910   38.1990   37.8080 C   0  0  0  0  0  0
   -1.1130   39.6060   37.4220 C   0  0  0  0  0  0
    3.7350   43.7100   43.0990 O   0  0  0  0  0  0
    4.8010   44.6710   42.7510 C   0  0  0  0  0  0
    5.5470   45.1600   43.9930 C   0  0  0  0  0  0
    2.8570   43.1010   42.1950 C   0  0  0  0  0  0
    2.8480   43.3170   40.7510 C   0  0  0  0  0  0
    1.8950   42.6700   39.9440 C   0  0  0  0  0  0
    0.9180   41.5510   41.9310 C   0  0  0  0  0  0
    1.8780   42.1980   42.7790 C   0  0  0  0  0  0
    0.8970   41.7690   40.5050 C   0  0  0  0  0  0
   -0.2010   41.1000   39.5440 C   0  0  0  0  0  0
   -1.5900   41.5210   40.0130 C   0  0  0  0  0  0
   -2.5490   40.5390   40.4890 C   0  0  0  0  0  0
   -3.8390   40.9610   40.9300 C   0  0  0  0  0  0
   -4.1870   42.3410   40.9090 C   0  0  0  0  0  0
   -3.2510   43.3170   40.4440 C   0  0  0  0  0  0
   -1.9840   42.9180   40.0070 C   0  0  0  0  0  0
    3.2090   39.8190   36.2130 C   0  0  0  0  0  0
    4.0430   39.0660   37.0890 C   0  0  0  0  0  0
    3.5750   38.6820   38.3720 C   0  0  0  0  0  0
    2.2720   39.0500   38.7790 C   0  0  0  0  0  0
    1.4230   39.8090   37.9050 C   0  0  0  0  0  0
    1.9060   40.1900   36.6170 C   0  0  0  0  0  0
   -0.0040   40.2130   38.3510 C   0  0  0  0  0  0
    7.0640   45.2840   43.7180 N   0  3  0  0  0  0
    7.7110   44.0090   43.3150 C   0  0  0  0  0  0
    7.3830   46.3560   42.7110 C   0  0  0  0  0  0
   -2.3634   37.8668   37.0988 H   0  0  0  0  0  0
   -2.0112   38.2205   38.8243 H   0  0  0  0  0  0
   -0.7408   37.5017   37.7774 H   0  0  0  0  0  0
   -0.6928   39.5845   36.4057 H   0  0  0  0  0  0
   -1.9632   40.3033   37.4525 H   0  0  0  0  0  0
    5.5256   44.1875   42.0793 H   0  0  0  0  0  0
    4.3585   45.5427   42.2467 H   0  0  0  0  0  0
    5.1609   46.1470   44.2877 H   0  0  0  0  0  0
    5.3957   44.4463   44.8163 H   0  0  0  0  0  0
    3.5825   43.9821   40.2968 H   0  0  0  0  0  0
    1.9033   42.8477   38.8686 H   0  0  0  0  0  0
    0.1856   40.8773   42.3758 H   0  0  0  0  0  0
    1.8734   42.0139   43.8533 H   0  0  0  0  0  0
   -2.2838   39.4820   40.5093 H   0  0  0  0  0  0
   -4.5600   40.2242   41.2840 H   0  0  0  0  0  0
   -5.1734   42.6559   41.2496 H   0  0  0  0  0  0
   -3.5251   44.3719   40.4302 H   0  0  0  0  0  0
   -1.2786   43.6707   39.6550 H   0  0  0  0  0  0
    3.5765   40.1098   35.2289 H   0  0  0  0  0  0
    5.0467   38.7833   36.7715 H   0  0  0  0  0  0
    4.2161   38.1067   39.0399 H   0  0  0  0  0  0
    1.9094   38.7552   39.7637 H   0  0  0  0  0  0
    1.2704   40.7668   35.9451 H   0  0  0  0  0  0
    7.5290   45.5600   44.6759 H   0  0  0  0  0  0
    7.4752   43.2287   44.0536 H   0  0  0  0  0  0
    8.8008   44.1503   43.2661 H   0  0  0  0  0  0
    7.3361   43.7039   42.3269 H   0  0  0  0  0  0
    6.9020   47.2979   43.0134 H   0  0  0  0  0  0
    7.0077   46.0536   41.7222 H   0  0  0  0  0  0
    8.4724   46.5000   42.6614 H   0  0  0  0  0  0
  1  2  1  0  0  0
  1 29  1  0  0  0
  1 30  1  0  0  0
  1 31  1  0  0  0
  2 25  1  0  0  0
  2 32  1  0  0  0
  2 33  1  0  0  0
  3  4  1  0  0  0
  3  6  1  0  0  0
  4  5  1  0  0  0
  4 34  1  0  0  0
  4 35  1  0  0  0
  5 26  1  0  0  0
  5 36  1  0  0  0
  5 37  1  0  0  0
  6  7  2  0  0  0
  6 10  1  0  0  0
  7  8  1  0  0  0
  7 38  1  0  0  0
  8 11  2  0  0  0
  8 39  1  0  0  0
  9 10  2  0  0  0
  9 11  1  0  0  0
  9 40  1  0  0  0
 10 41  1  0  0  0
 11 12  1  0  0  0
 12 13  1  0  0  0
 12 25  2  0  0  0
 13 14  2  0  0  0
 13 18  1  0  0  0
 14 15  1  0  0  0
 14 42  1  0  0  0
 15 16  2  0  0  0
 15 43  1  0  0  0
 16 17  1  0  0  0
 16 44  1  0  0  0
 17 18  2  0  0  0
 17 45  1  0  0  0
 18 46  1  0  0  0
 19 20  2  0  0  0
 19 24  1  0  0  0
 19 47  1  0  0  0
 20 21  1  0  0  0
 20 48  1  0  0  0
 21 22  2  0  0  0
 21 49  1  0  0  0
 22 23  1  0  0  0
 22 50  1  0  0  0
 23 24  2  0  0  0
 23 25  1  0  0  0
 24 51  1  0  0  0
 26 27  1  0  0  0
 26 28  1  0  0  0
 26 52  1  0  0  0
 27 53  1  0  0  0
 27 54  1  0  0  0
 27 55  1  0  0  0
 28 56  1  0  0  0
 28 57  1  0  0  0
 28 58  1  0  0  0
M  CHG  1  26   1
M  END
> <s_m_source_file>
../1ya4_ligand.sdf

> <i_m_source_file_index>
1

> <s_epik_input>
W2NIXTFbY0hdW2NIXVtjSF1bY0hdYzFDKC9bQ0gyXVtDSDNdKT1DKGMyW2NIXVtjSF1bY0hdW2NIXVtjSF0yKVxjKFtjSF1bY0hdMylbY0hdW2NIXWMzT1tDSDJdW0NIMl1bTkgrXShbQ0gzXSlbQ0gzXQ==

> <s_epik_cmdline>
J2VwaWtfYXBwJywgJy1pbWFlJywgJ2xpZ2FuZF9wcm8ubWFlJywgJy1vbWFlJywgJ2xpZ2FuZF9wcmVwLm1hZScsICctbXMnLCAnMScsICctcGgnLCAnNycsICctcGh0JywgJzAuNScsICctbnQn

> <r_epik_Ionization_Penalty>
  0.0248

> <r_epik_Ionization_Penalty_Charging>
  0.0248

> <r_epik_Ionization_Penalty_Neutral>
  0.0000

> <r_epik_State_Penalty>
  0.0202

> <r_epik_Charging_Adjusted_Penalty>
0.0449633694247609

> <i_epik_Tot_Q>
1

> <i_epik_Tot_abs_Q>
1

$$$$
