1ybg_ligand
                    3D
 Schrodinger Suite 2020-3.
 69 73  0  0  1  0            999 V2000
  -74.9720   -8.6990   95.4140 C   0  0  0  0  0  0
  -73.9750   -9.4040   96.0590 C   0  0  0  0  0  0
  -74.2520  -10.7380   96.5560 C   0  0  0  0  0  0
  -75.5710  -11.3110   96.3580 C   0  0  0  0  0  0
  -76.5670  -10.5470   95.6800 C   0  0  0  0  0  0
  -76.2840   -9.2890   95.2240 C   0  0  0  0  0  0
  -73.2530  -11.5180   97.2510 C   0  0  0  0  0  0
  -75.8570  -12.6380   96.8530 C   0  0  0  0  0  0
  -74.8850  -13.3540   97.5120 C   0  0  0  0  0  0
  -73.5560  -12.7840   97.7170 C   0  0  0  0  0  0
  -74.6780   -7.0160   94.7740 S   0  0  0  0  0  0
  -75.8380   -6.6310   93.9930 O   0  0  0  0  0  0
  -73.3510   -7.2580   93.7840 N   0  5  0  0  0  0
  -74.6970   -8.8090   90.6420 C   0  0  0  0  0  0
  -74.6460   -8.0700   91.8030 C   0  0  0  0  0  0
  -73.4640   -8.0220   92.5670 C   0  0  0  0  0  0
  -72.3200   -8.7500   92.1480 C   0  0  0  0  0  0
  -72.3600   -9.5100   90.9590 C   0  0  0  0  0  0
  -73.5560   -9.5160   90.2010 C   0  0  0  0  0  0
  -71.0850   -8.6830   93.0120 C   0  0  0  0  0  0
  -72.5530  -10.2770   87.3520 S   0  0  0  0  0  0
  -68.3790   -4.7880   87.7950 C   0  0  0  0  0  0
  -69.7290   -4.8460   87.5510 C   0  0  0  0  0  0
  -70.4090   -6.1220   87.5130 C   0  0  0  0  0  0
  -69.6430   -7.3390   87.7370 C   0  0  0  0  0  0
  -68.2250   -7.2390   87.9940 C   0  0  0  0  0  0
  -67.6160   -6.0050   88.0220 C   0  0  0  0  0  0
  -71.8250   -6.2200   87.2530 C   0  0  0  0  0  0
  -70.3260   -8.6240   87.6910 C   0  0  0  0  0  0
  -71.6940   -8.6750   87.4380 C   0  0  0  0  0  0
  -72.4550   -7.4510   87.2130 C   0  0  0  0  0  0
  -70.0900   -7.6480   92.7540 N   0  0  0  0  0  0
  -70.9280   -9.4880   93.9210 O   0  0  0  0  0  0
  -73.3350  -10.1140   88.7640 O   0  0  0  0  0  0
  -73.4960  -10.2210   86.2640 O   0  0  0  0  0  0
  -71.5790  -11.3680   87.5320 O   0  0  0  0  0  0
  -74.2720   -6.2000   95.9100 O   0  0  0  0  0  0
  -69.6180   -7.3230   91.3810 C   0  0  0  0  0  0
  -68.9760   -7.7930   93.7550 C   0  0  2  0  0  0
  -68.4100   -6.3580   94.1280 C   0  0  0  0  0  0
  -68.9890   -5.3080   93.8450 O   0  0  0  0  0  0
  -67.1740   -6.3040   94.8180 O   0  5  0  0  0  0
  -66.8070   -9.3170   94.4230 C   0  0  0  0  0  0
  -67.1600   -9.8570   95.4750 O   0  0  0  0  0  0
  -65.4390   -9.1100   94.1640 O   0  5  0  0  0  0
  -67.8660   -8.8840   93.3210 C   0  0  0  0  0  0
  -72.9880   -8.9615   96.1935 H   0  0  0  0  0  0
  -77.5600  -10.9686   95.5244 H   0  0  0  0  0  0
  -77.0576   -8.7196   94.7088 H   0  0  0  0  0  0
  -72.2561  -11.1062   97.4085 H   0  0  0  0  0  0
  -76.8454  -13.0727   96.7038 H   0  0  0  0  0  0
  -75.1081  -14.3540   97.8839 H   0  0  0  0  0  0
  -72.7958  -13.3621   98.2423 H   0  0  0  0  0  0
  -75.6192   -8.8485   90.0623 H   0  0  0  0  0  0
  -75.5265   -7.5185   92.1328 H   0  0  0  0  0  0
  -71.4899  -10.0793   90.6319 H   0  0  0  0  0  0
  -67.8751   -3.8218   87.8187 H   0  0  0  0  0  0
  -70.2906   -3.9266   87.3853 H   0  0  0  0  0  0
  -67.6373   -8.1408   88.1657 H   0  0  0  0  0  0
  -66.5457   -5.9389   88.2173 H   0  0  0  0  0  0
  -72.4055   -5.3127   87.0860 H   0  0  0  0  0  0
  -69.7668   -9.5452   87.8545 H   0  0  0  0  0  0
  -73.5249   -7.5066   87.0124 H   0  0  0  0  0  0
  -70.4831   -7.2328   90.7077 H   0  0  0  0  0  0
  -68.9557   -8.1244   91.0217 H   0  0  0  0  0  0
  -69.0662   -6.3716   91.3986 H   0  0  0  0  0  0
  -69.4526   -8.2077   94.6555 H   0  0  0  0  0  0
  -68.3666   -9.8136   93.0123 H   0  0  0  0  0  0
  -67.2736   -8.4905   92.4818 H   0  0  0  0  0  0
  1  2  2  0  0  0
  1  6  1  0  0  0
  1 11  1  0  0  0
  2  3  1  0  0  0
  2 47  1  0  0  0
  3  4  2  0  0  0
  3  7  1  0  0  0
  4  5  1  0  0  0
  4  8  1  0  0  0
  5  6  2  0  0  0
  5 48  1  0  0  0
  6 49  1  0  0  0
  7 10  2  0  0  0
  7 50  1  0  0  0
  8  9  2  0  0  0
  8 51  1  0  0  0
  9 10  1  0  0  0
  9 52  1  0  0  0
 10 53  1  0  0  0
 11 12  2  0  0  0
 11 13  1  0  0  0
 11 37  2  0  0  0
 13 16  1  0  0  0
 14 15  2  0  0  0
 14 19  1  0  0  0
 14 54  1  0  0  0
 15 16  1  0  0  0
 15 55  1  0  0  0
 16 17  2  0  0  0
 17 18  1  0  0  0
 17 20  1  0  0  0
 18 19  2  0  0  0
 18 56  1  0  0  0
 19 34  1  0  0  0
 20 32  1  0  0  0
 20 33  2  0  0  0
 21 30  1  0  0  0
 21 34  1  0  0  0
 21 35  2  0  0  0
 21 36  2  0  0  0
 22 23  2  0  0  0
 22 27  1  0  0  0
 22 57  1  0  0  0
 23 24  1  0  0  0
 23 58  1  0  0  0
 24 25  2  0  0  0
 24 28  1  0  0  0
 25 26  1  0  0  0
 25 29  1  0  0  0
 26 27  2  0  0  0
 26 59  1  0  0  0
 27 60  1  0  0  0
 28 31  2  0  0  0
 28 61  1  0  0  0
 29 30  2  0  0  0
 29 62  1  0  0  0
 30 31  1  0  0  0
 31 63  1  0  0  0
 32 38  1  0  0  0
 32 39  1  0  0  0
 38 64  1  0  0  0
 38 65  1  0  0  0
 38 66  1  0  0  0
 39 40  1  0  0  0
 39 46  1  0  0  0
 39 67  1  0  0  0
 40 41  2  0  0  0
 40 42  1  0  0  0
 43 44  2  0  0  0
 43 45  1  0  0  0
 43 46  1  0  0  0
 46 68  1  0  0  0
 46 69  1  0  0  0
M  CHG  3  13  -1  42  -1  45  -1
M  END
> <s_m_source_file>
../1ybg_ligand.sdf

> <i_m_source_file_index>
1

> <s_epik_input>
W2NIXTFbY0hdW2NIXVtjSF1jKGMxMilbY0hdW2NIXWMoW2NIXTIpUyg9TykoPU8pW05IXWMzW2NIXVtjSF1jKFtjSF1jM0MoPU8pTihbQ0gzXSlbQ0BIXShDKD1PKVtPSF0pW0NIMl1DKD1PKVtPSF0pT1MoPU8pKD1PKWMoW2NIXVtjSF00KVtjSF1jKGM0NSlbY0hdW2NIXVtjSF1bY0hdNQ==

> <s_epik_cmdline>
J2VwaWtfYXBwJywgJy1pbWFlJywgJ2xpZ2FuZF9wcm8ubWFlJywgJy1vbWFlJywgJ2xpZ2FuZF9wcmVwLm1hZScsICctbXMnLCAnMScsICctcGgnLCAnNycsICctcGh0JywgJzAuNScsICctbnQn

> <r_epik_Ionization_Penalty>
  0.2416

> <r_epik_Ionization_Penalty_Charging>
  0.2416

> <r_epik_Ionization_Penalty_Neutral>
  0.0000

> <r_epik_State_Penalty>
  0.2308

> <r_epik_Charging_Adjusted_Penalty>
0.472327029861002

> <i_epik_Tot_Q>
-3

> <i_epik_Tot_abs_Q>
3

$$$$
