1ybo_ligand
                    3D
 Schrodinger Suite 2020-3.
 97 98  0  0  1  0            999 V2000
   44.5230   12.7260   34.9950 N   0  3  0  0  0  0
   43.2330   13.4550   35.2380 C   0  0  2  0  0  0
   43.1480   14.7340   34.3690 C   0  0  0  0  0  0
   42.1260   14.9070   33.7000 O   0  0  0  0  0  0
   42.8840   13.7240   36.7580 C   0  0  2  0  0  0
   43.4590   12.7840   37.6760 O   0  0  0  0  0  0
   41.3740   13.7250   37.0040 C   0  0  0  0  0  0
   44.1010   15.6680   34.3250 N   0  0  0  0  0  0
   45.3200   15.7840   35.1410 C   0  0  2  0  0  0
   45.1250   16.8670   36.2210 C   0  0  0  0  0  0
   45.9310   17.7460   36.4720 O   0  0  0  0  0  0
   46.5060   16.0500   34.2010 C   0  0  0  0  0  0
   47.7320   15.2110   34.5310 C   0  0  0  0  0  0
   47.6710   13.9800   34.5890 O   0  0  0  0  0  0
   48.8640   15.8830   34.7360 N   0  0  0  0  0  0
   43.9830   16.8190   36.8810 N   0  0  0  0  0  0
   43.5670   17.6650   37.9900 C   0  0  2  0  0  0
   44.2070   17.2500   39.3070 C   0  0  0  0  0  0
   44.3200   16.0630   39.6120 O   0  0  0  0  0  0
   42.0620   17.4920   38.1830 C   0  0  0  0  0  0
   41.2500   18.0530   37.0470 C   0  0  0  0  0  0
   39.9670   17.2770   36.8430 C   0  0  0  0  0  0
   39.8780   16.6840   35.7400 O   0  5  0  0  0  0
   39.0870   17.2370   37.7370 O   0  0  0  0  0  0
   44.6050   18.2590   40.0770 N   0  0  0  0  0  0
   45.1280   18.0600   41.4220 C   0  0  2  0  0  0
   44.0000   18.3570   42.4110 C   0  0  0  0  0  0
   43.1630   19.2460   42.2110 O   0  0  0  0  0  0
   46.4210   18.8660   41.5510 C   0  0  0  0  0  0
   47.5860   18.2130   40.8600 C   0  0  0  0  0  0
   47.6820   18.2300   39.4720 C   0  0  0  0  0  0
   48.5640   17.5550   41.5950 C   0  0  0  0  0  0
   48.7240   17.6340   38.8080 C   0  0  0  0  0  0
   49.6280   16.9270   40.9420 C   0  0  0  0  0  0
   49.6980   16.9870   39.5460 C   0  0  0  0  0  0
   43.9800   17.5620   43.4740 N   0  0  0  0  0  0
   43.0520   17.7020   44.5910 C   0  0  2  0  0  0
   43.7730   18.3420   45.7750 C   0  0  0  0  0  0
   44.5980   17.6570   46.3720 O   0  0  0  0  0  0
   42.4820   16.3310   44.9770 C   0  0  0  0  0  0
   41.5630   16.2440   46.1780 C   0  0  0  0  0  0
   40.8300   17.3550   46.6210 C   0  0  0  0  0  0
   41.3880   15.0290   46.8430 C   0  0  0  0  0  0
   39.9760   17.2690   47.7030 C   0  0  0  0  0  0
   40.5010   14.9230   47.9460 C   0  0  0  0  0  0
   39.8100   16.0650   48.3620 C   0  0  0  0  0  0
   38.9430   16.0700   49.4320 O   0  0  0  0  0  0
   43.4690   19.6010   46.0840 N   0  0  0  0  0  0
   43.9970   20.3200   47.2390 C   0  0  2  0  0  0
   43.1060   20.1160   48.4580 C   0  0  0  0  0  0
   41.8760   19.9830   48.3710 O   0  5  0  0  0  0
   44.1220   21.8370   46.9680 C   0  0  0  0  0  0
   43.6630   20.0810   49.5570 O   0  0  0  0  0  0
   44.6697   12.5911   33.9132 H   0  0  0  0  0  0
   44.4862   11.7422   35.4856 H   0  0  0  0  0  0
   45.3581   13.3108   35.4082 H   0  0  0  0  0  0
   42.4815   12.7360   34.8798 H   0  0  0  0  0  0
   43.3481   14.6806   37.0399 H   0  0  0  0  0  0
   44.5458   12.6144   37.6808 H   0  0  0  0  0  0
   40.8911   14.4360   36.3175 H   0  0  0  0  0  0
   41.1720   14.0239   38.0432 H   0  0  0  0  0  0
   40.9732   12.7158   36.8282 H   0  0  0  0  0  0
   43.8822   16.4205   33.5531 H   0  0  0  0  0  0
   45.4961   14.8319   35.6630 H   0  0  0  0  0  0
   46.2131   15.8178   33.1664 H   0  0  0  0  0  0
   46.7989   17.1080   34.2705 H   0  0  0  0  0  0
   48.8706   16.9812   34.6740 H   0  0  0  0  0  0
   49.7920   15.3396   34.9673 H   0  0  0  0  0  0
   43.3109   16.0327   36.5069 H   0  0  0  0  0  0
   43.8846   18.6793   37.7064 H   0  0  0  0  0  0
   41.8235   16.4213   38.2646 H   0  0  0  0  0  0
   41.7484   18.0086   39.1021 H   0  0  0  0  0  0
   40.9918   19.1002   37.2630 H   0  0  0  0  0  0
   41.8367   18.0043   36.1178 H   0  0  0  0  0  0
   44.5273   19.2747   39.6618 H   0  0  0  0  0  0
   45.4156   17.0140   41.6044 H   0  0  0  0  0  0
   46.2792   19.8607   41.1032 H   0  0  0  0  0  0
   46.6799   18.9762   42.6144 H   0  0  0  0  0  0
   46.9057   18.7321   38.8947 H   0  0  0  0  0  0
   48.5014   17.5285   42.6829 H   0  0  0  0  0  0
   48.7830   17.6698   37.7202 H   0  0  0  0  0  0
   50.3921   16.3983   41.5119 H   0  0  0  0  0  0
   50.5350   16.5154   39.0311 H   0  0  0  0  0  0
   44.7276   16.7551   43.4779 H   0  0  0  0  0  0
   42.2384   18.3588   44.2494 H   0  0  0  0  0  0
   41.8902   15.9312   44.1404 H   0  0  0  0  0  0
   43.3081   15.6412   45.2043 H   0  0  0  0  0  0
   40.9367   18.3065   46.1001 H   0  0  0  0  0  0
   41.9400   14.1499   46.5106 H   0  0  0  0  0  0
   39.4318   18.1520   48.0380 H   0  0  0  0  0  0
   40.3614   13.9710   48.4581 H   0  0  0  0  0  0
   38.4252   16.9980   49.7160 H   0  0  0  0  0  0
   42.7688   20.1005   45.3982 H   0  0  0  0  0  0
   44.9863   19.8659   47.3973 H   0  0  0  0  0  0
   44.7633   22.0009   46.0894 H   0  0  0  0  0  0
   44.5675   22.3305   47.8444 H   0  0  0  0  0  0
   43.1241   22.2588   46.7774 H   0  0  0  0  0  0
  1  2  1  0  0  0
  1 54  1  0  0  0
  1 55  1  0  0  0
  1 56  1  0  0  0
  2  3  1  0  0  0
  2  5  1  0  0  0
  2 57  1  0  0  0
  3  4  2  0  0  0
  3  8  1  0  0  0
  5  6  1  0  0  0
  5  7  1  0  0  0
  5 58  1  0  0  0
  6 59  1  0  0  0
  7 60  1  0  0  0
  7 61  1  0  0  0
  7 62  1  0  0  0
  8  9  1  0  0  0
  8 63  1  0  0  0
  9 10  1  0  0  0
  9 12  1  0  0  0
  9 64  1  0  0  0
 10 11  2  0  0  0
 10 16  1  0  0  0
 12 13  1  0  0  0
 12 65  1  0  0  0
 12 66  1  0  0  0
 13 14  2  0  0  0
 13 15  1  0  0  0
 15 67  1  0  0  0
 15 68  1  0  0  0
 16 17  1  0  0  0
 16 69  1  0  0  0
 17 18  1  0  0  0
 17 20  1  0  0  0
 17 70  1  0  0  0
 18 19  2  0  0  0
 18 25  1  0  0  0
 20 21  1  0  0  0
 20 71  1  0  0  0
 20 72  1  0  0  0
 21 22  1  0  0  0
 21 73  1  0  0  0
 21 74  1  0  0  0
 22 23  1  0  0  0
 22 24  2  0  0  0
 25 26  1  0  0  0
 25 75  1  0  0  0
 26 27  1  0  0  0
 26 29  1  0  0  0
 26 76  1  0  0  0
 27 28  2  0  0  0
 27 36  1  0  0  0
 29 30  1  0  0  0
 29 77  1  0  0  0
 29 78  1  0  0  0
 30 31  2  0  0  0
 30 32  1  0  0  0
 31 33  1  0  0  0
 31 79  1  0  0  0
 32 34  2  0  0  0
 32 80  1  0  0  0
 33 35  2  0  0  0
 33 81  1  0  0  0
 34 35  1  0  0  0
 34 82  1  0  0  0
 35 83  1  0  0  0
 36 37  1  0  0  0
 36 84  1  0  0  0
 37 38  1  0  0  0
 37 40  1  0  0  0
 37 85  1  0  0  0
 38 39  2  0  0  0
 38 48  1  0  0  0
 40 41  1  0  0  0
 40 86  1  0  0  0
 40 87  1  0  0  0
 41 42  2  0  0  0
 41 43  1  0  0  0
 42 44  1  0  0  0
 42 88  1  0  0  0
 43 45  2  0  0  0
 43 89  1  0  0  0
 44 46  2  0  0  0
 44 90  1  0  0  0
 45 46  1  0  0  0
 45 91  1  0  0  0
 46 47  1  0  0  0
 47 92  1  0  0  0
 48 49  1  0  0  0
 48 93  1  0  0  0
 49 50  1  0  0  0
 49 52  1  0  0  0
 49 94  1  0  0  0
 50 51  1  0  0  0
 50 53  2  0  0  0
 52 95  1  0  0  0
 52 96  1  0  0  0
 52 97  1  0  0  0
M  CHG  3   1   1  23  -1  51  -1
M  END
> <s_m_source_file>
../1ybo_ligand.sdf

> <i_m_source_file_index>
1

> <s_epik_input>
W09IXVtDQEhdKFtDSDNdKVtDQEhdKFtOSDMrXSlDKD1PKVtOSF1bQ0BASF0oW0NIMl1DKD1PKVtOSDJdKUMoPU8pW05IXVtDQEBIXShbQ0gyXVtDSDJdQyg9TylbT0hdKUMoPU8pW05IXVtDQEBIXShbQ0gyXWMxW2NIXVtjSF1bY0hdW2NIXVtjSF0xKUMoPU8pW05IXVtDQEhdKEMoPU8pW05IXVtDQEBIXShbQ0gzXSlDKD1PKVtPSF0pW0NIMl1jMltjSF1bY0hdYyhbT0hdKVtjSF1bY0hdMg==

> <s_epik_cmdline>
J2VwaWtfYXBwJywgJy1pbWFlJywgJ2xpZ2FuZF9wcm8ubWFlJywgJy1vbWFlJywgJ2xpZ2FuZF9wcmVwLm1hZScsICctbXMnLCAnMScsICctcGgnLCAnNycsICctcGh0JywgJzAuNScsICctbnQn

> <r_lp_tautomer_probability>
0.999999999997365

> <r_epik_Ionization_Penalty>
  0.0882

> <r_epik_Ionization_Penalty_Charging>
  0.0874

> <r_epik_Ionization_Penalty_Neutral>
  0.0008

> <r_epik_State_Penalty>
  0.0761

> <r_epik_Charging_Adjusted_Penalty>
0.163431085552744

> <i_epik_Tot_Q>
-1

> <i_epik_Tot_abs_Q>
3

$$$$
