1yci_ligand
                    3D
 Schrodinger Suite 2020-3.
 26 26  0  0  1  0            999 V2000
   19.9640   26.2530   33.0160 C   0  0  0  0  0  0
   21.0920   26.3910   33.8350 C   0  0  0  0  0  0
   22.1630   25.5290   33.6870 C   0  0  0  0  0  0
   22.1180   24.5170   32.7170 C   0  0  0  0  0  0
   21.0040   24.3790   31.9090 C   0  0  0  0  0  0
   19.9200   25.2540   32.0610 C   0  0  0  0  0  0
   18.6770   25.0850   31.1830 C   0  0  0  0  0  0
   18.7960   25.8620   29.8710 C   0  0  2  0  0  0
   17.5210   25.6550   29.0560 C   0  0  0  0  0  0
   17.5440   25.0490   27.9890 O   0  0  0  0  0  0
   16.4440   26.1010   29.4740 O   0  5  0  0  0  0
   19.9690   25.3670   29.1360 N   0  0  0  0  0  0
   21.0750   26.0940   28.9940 C   0  0  0  0  0  0
   21.1840   27.2410   29.4270 O   0  0  0  0  0  0
   22.2630   25.4980   28.2380 C   0  0  0  0  0  0
   22.1420   24.4000   27.6740 O   0  5  0  0  0  0
   23.3320   26.0870   28.1950 O   0  0  0  0  0  0
   19.1204   26.9335   33.1316 H   0  0  0  0  0  0
   21.1255   27.1777   34.5887 H   0  0  0  0  0  0
   23.0413   25.6359   34.3235 H   0  0  0  0  0  0
   22.9626   23.8380   32.5997 H   0  0  0  0  0  0
   20.9693   23.5917   31.1560 H   0  0  0  0  0  0
   18.5404   24.0205   30.9419 H   0  0  0  0  0  0
   17.7932   25.4548   31.7235 H   0  0  0  0  0  0
   18.9565   26.9364   30.0439 H   0  0  0  0  0  0
   19.9509   24.3654   28.6815 H   0  0  0  0  0  0
  1  2  2  0  0  0
  1  6  1  0  0  0
  1 18  1  0  0  0
  2  3  1  0  0  0
  2 19  1  0  0  0
  3  4  2  0  0  0
  3 20  1  0  0  0
  4  5  1  0  0  0
  4 21  1  0  0  0
  5  6  2  0  0  0
  5 22  1  0  0  0
  6  7  1  0  0  0
  7  8  1  0  0  0
  7 23  1  0  0  0
  7 24  1  0  0  0
  8  9  1  0  0  0
  8 12  1  0  0  0
  8 25  1  0  0  0
  9 10  2  0  0  0
  9 11  1  0  0  0
 12 13  1  0  0  0
 12 26  1  0  0  0
 13 14  2  0  0  0
 13 15  1  0  0  0
 15 16  1  0  0  0
 15 17  2  0  0  0
M  CHG  2  11  -1  16  -1
M  END
> <s_m_source_file>
../1yci_ligand.sdf

> <i_m_source_file_index>
1

> <s_epik_input>
W2NIXTFbY0hdW2NIXVtjSF1bY0hdYzFbQ0gyXVtDQEhdKEMoPU8pW09IXSlbTkhdQyg9TylDKD1PKVtPSF0=

> <s_epik_cmdline>
J2VwaWtfYXBwJywgJy1pbWFlJywgJ2xpZ2FuZF9wcm8ubWFlJywgJy1vbWFlJywgJ2xpZ2FuZF9wcmVwLm1hZScsICctbXMnLCAnMScsICctcGgnLCAnNycsICctcGh0JywgJzAuNScsICctbnQn

> <r_lp_tautomer_probability>
1

> <r_epik_Ionization_Penalty>
  0.0005

> <r_epik_Ionization_Penalty_Charging>
  0.0005

> <r_epik_Ionization_Penalty_Neutral>
  0.0000

> <r_epik_State_Penalty>
 -0.0000

> <r_epik_Charging_Adjusted_Penalty>
0.000465002771404821

> <i_epik_Tot_Q>
-2

> <i_epik_Tot_abs_Q>
2

$$$$
