1ydb_ligand
                    3D
 Schrodinger Suite 2020-3.
 19 19  0  0  1  0            999 V2000
   -5.0120    2.2110   16.1310 C   0  0  0  0  0  0
   -4.4160    4.0180   14.9440 C   0  0  0  0  0  0
   -5.1680    5.7640   13.6410 C   0  0  0  0  0  0
   -4.6670    6.9100   12.7870 C   0  0  0  0  0  0
   -5.0980   -0.4120   16.2950 N   0  0  0  0  0  0
   -3.3660    3.4000   15.3680 N   0  0  0  0  0  0
   -3.7160    2.3010   16.0840 N   0  0  0  0  0  0
   -4.1580    5.0620   14.1790 N   0  0  0  0  0  0
   -5.4430    0.9180   18.4030 O   0  0  0  0  0  0
   -7.2490    0.9930   16.8390 O   0  0  0  0  0  0
   -6.3740    5.5610   13.7610 O   0  0  0  0  0  0
   -5.7750    0.8600   16.9770 S   0  0  0  0  0  0
   -5.9310    3.4180   15.3460 S   0  0  0  0  0  0
   -3.5673    6.9271   12.8049 H   0  0  0  0  0  0
   -5.0550    7.8598   13.1837 H   0  0  0  0  0  0
   -5.0149    6.7755   11.7522 H   0  0  0  0  0  0
   -5.5017   -1.3294   16.7482 H   0  0  0  0  0  0
   -4.0095   -0.3750   16.4494 H   0  0  0  0  0  0
   -3.1164    5.3561   13.9828 H   0  0  0  0  0  0
  1 13  1  0  0  0
  1 12  1  0  0  0
  1  7  2  0  0  0
  2  6  2  0  0  0
  2  8  1  0  0  0
  2 13  1  0  0  0
  3  8  1  0  0  0
  3 11  2  0  0  0
  3  4  1  0  0  0
  4 14  1  0  0  0
  4 15  1  0  0  0
  4 16  1  0  0  0
  5 12  1  0  0  0
  5 17  1  0  0  0
  5 18  1  0  0  0
  6  7  1  0  0  0
  8 19  1  0  0  0
  9 12  2  0  0  0
 10 12  2  0  0  0
M  END
> <s_m_source_file>
../1ydb_ligand.sdf

> <i_m_source_file_index>
1

> <s_epik_input>
W05IMl1TKD1PKSg9TyljMW5uYyhzMSlbTkhdQyg9TylbQ0gzXQ==

> <s_epik_cmdline>
J2VwaWtfYXBwJywgJy1pbWFlJywgJ2xpZ2FuZF9wcm8ubWFlJywgJy1vbWFlJywgJ2xpZ2FuZF9wcmVwLm1hZScsICctbXMnLCAnMScsICctcGgnLCAnNycsICctcGh0JywgJzAuNScsICctbnQn

> <r_lp_tautomer_probability>
1

> <r_epik_Ionization_Penalty>
  0.1815

> <r_epik_Ionization_Penalty_Charging>
  0.0000

> <r_epik_Ionization_Penalty_Neutral>
  0.1815

> <r_epik_State_Penalty>
  0.2588

> <r_epik_Charging_Adjusted_Penalty>
0.258790884211184

> <i_epik_Tot_Q>
0

> <i_epik_Tot_abs_Q>
0

$$$$
