1ydk_ligand
                    3D
 Schrodinger Suite 2020-3.
 54 53  0  0  1  0            999 V2000
   25.8140   24.1410   13.1200 N   0  3  0  0  0  0
   26.6160   25.2300   12.5920 C   0  0  2  0  0  0
   27.1920   24.8350   11.2590 C   0  0  0  0  0  0
   27.5250   25.7060   10.4230 O   0  5  0  0  0  0
   27.3500   23.6320   10.9700 O   0  0  0  0  0  0
   27.7430   25.5880   13.5610 C   0  0  0  0  0  0
   28.3650   26.9360   13.1990 C   0  0  0  0  0  0
   29.4220   27.3370   14.2080 C   0  0  0  0  0  0
   29.4730   26.7140   15.4620 O   0  0  0  0  0  0
   30.2640   28.3060   13.8560 N   0  0  0  0  0  0
   31.2080   28.8780   14.8040 C   0  0  2  0  0  0
   30.8970   30.3270   15.0190 C   0  0  0  0  0  0
   30.6400   31.1440   13.9020 O   0  0  0  0  0  0
   32.6350   28.8050   14.2580 C   0  0  0  0  0  0
   33.1360   27.1560   13.7270 S   0  0  0  0  0  0
   33.8320   26.7590   15.3520 C   0  0  0  0  0  0
   35.1720   26.0400   15.2400 C   0  0  0  0  0  0
   35.0020   24.5240   15.2500 C   0  0  0  0  0  0
   36.0700   23.8270   16.0930 C   0  0  0  0  0  0
   37.4510   23.8420   15.4450 C   0  0  0  0  0  0
   38.5440   23.7660   16.5110 C   0  0  0  0  0  0
   30.9010   30.7590   16.2810 N   0  0  0  0  0  0
   30.4070   32.0700   16.6610 C   0  0  0  0  0  0
   29.1180   32.0270   17.4520 C   0  0  0  0  0  0
   28.6510   33.0890   17.9240 O   0  0  0  0  0  0
   28.4980   30.9540   17.6520 O   0  5  0  0  0  0
   25.0102   23.8994   12.4090 H   0  0  0  0  0  0
   25.3741   24.4426   14.0820 H   0  0  0  0  0  0
   26.4501   23.2560   13.2690 H   0  0  0  0  0  0
   25.9331   26.0834   12.4677 H   0  0  0  0  0  0
   27.3424   25.6465   14.5838 H   0  0  0  0  0  0
   28.5241   24.8147   13.5168 H   0  0  0  0  0  0
   28.8337   26.8687   12.2061 H   0  0  0  0  0  0
   27.5822   27.7087   13.1833 H   0  0  0  0  0  0
   30.2343   28.6736   12.8197 H   0  0  0  0  0  0
   31.0836   28.2963   15.7293 H   0  0  0  0  0  0
   32.7281   29.4684   13.3856 H   0  0  0  0  0  0
   33.3427   29.1231   15.0377 H   0  0  0  0  0  0
   33.9872   27.6874   15.9211 H   0  0  0  0  0  0
   33.1365   26.1055   15.8991 H   0  0  0  0  0  0
   35.6644   26.3267   14.2991 H   0  0  0  0  0  0
   35.8116   26.3220   16.0893 H   0  0  0  0  0  0
   34.0171   24.2682   15.6679 H   0  0  0  0  0  0
   35.0749   24.1400   14.2218 H   0  0  0  0  0  0
   36.1546   24.3307   17.0672 H   0  0  0  0  0  0
   35.7867   22.7754   16.2473 H   0  0  0  0  0  0
   37.5490   22.9784   14.7708 H   0  0  0  0  0  0
   37.5764   24.7717   14.8706 H   0  0  0  0  0  0
   39.5310   23.7780   16.0256 H   0  0  0  0  0  0
   38.4300   22.8360   17.0873 H   0  0  0  0  0  0
   38.4574   24.6293   17.1871 H   0  0  0  0  0  0
   31.2991   30.0778   17.0475 H   0  0  0  0  0  0
   31.1575   32.5781   17.2844 H   0  0  0  0  0  0
   30.2170   32.6666   15.7566 H   0  0  0  0  0  0
  1  2  1  0  0  0
  1 27  1  0  0  0
  1 28  1  0  0  0
  1 29  1  0  0  0
  2  3  1  0  0  0
  2  6  1  0  0  0
  2 30  1  0  0  0
  3  4  1  0  0  0
  3  5  2  0  0  0
  6  7  1  0  0  0
  6 31  1  0  0  0
  6 32  1  0  0  0
  7  8  1  0  0  0
  7 33  1  0  0  0
  7 34  1  0  0  0
  8  9  2  0  0  0
  8 10  1  0  0  0
 10 11  1  0  0  0
 10 35  1  0  0  0
 11 12  1  0  0  0
 11 14  1  0  0  0
 11 36  1  0  0  0
 12 13  2  0  0  0
 12 22  1  0  0  0
 14 15  1  0  0  0
 14 37  1  0  0  0
 14 38  1  0  0  0
 15 16  1  0  0  0
 16 17  1  0  0  0
 16 39  1  0  0  0
 16 40  1  0  0  0
 17 18  1  0  0  0
 17 41  1  0  0  0
 17 42  1  0  0  0
 18 19  1  0  0  0
 18 43  1  0  0  0
 18 44  1  0  0  0
 19 20  1  0  0  0
 19 45  1  0  0  0
 19 46  1  0  0  0
 20 21  1  0  0  0
 20 47  1  0  0  0
 20 48  1  0  0  0
 21 49  1  0  0  0
 21 50  1  0  0  0
 21 51  1  0  0  0
 22 23  1  0  0  0
 22 52  1  0  0  0
 23 24  1  0  0  0
 23 53  1  0  0  0
 23 54  1  0  0  0
 24 25  2  0  0  0
 24 26  1  0  0  0
M  CHG  3   1   1   4  -1  26  -1
M  END
> <s_m_source_file>
../1ydk_ligand.sdf

> <i_m_source_file_index>
1

> <s_epik_input>
W09IXUMoPU8pW0NAQEhdKFtOSDMrXSlbQ0gyXVtDSDJdQyg9TylbTkhdW0NASF0oQyg9TylbTkhdW0NIMl1DKD1PKVtPSF0pW0NIMl1TW0NIMl1bQ0gyXVtDSDJdW0NIMl1bQ0gyXVtDSDNd

> <s_epik_cmdline>
J2VwaWtfYXBwJywgJy1pbWFlJywgJ2xpZ2FuZF9wcm8ubWFlJywgJy1vbWFlJywgJ2xpZ2FuZF9wcmVwLm1hZScsICctbXMnLCAnMScsICctcGgnLCAnNycsICctcGh0JywgJzAuNScsICctbnQn

> <r_lp_tautomer_probability>
1

> <r_epik_Ionization_Penalty>
  0.0025

> <r_epik_Ionization_Penalty_Charging>
  0.0025

> <r_epik_Ionization_Penalty_Neutral>
  0.0000

> <r_epik_State_Penalty>
 -0.0000

> <r_epik_Charging_Adjusted_Penalty>
0.00254311866569949

> <i_epik_Tot_Q>
-1

> <i_epik_Tot_abs_Q>
3

$$$$
