1yds_ligand
                    3D
 Schrodinger Suite 2020-3.
 34 35  0  0  1  0            999 V2000
    6.9860   10.1780    2.9890 C   0  0  0  0  0  0
    7.1340   10.1760    1.5900 C   0  0  0  0  0  0
    6.0160   10.0210    0.7520 C   0  0  0  0  0  0
    4.7310    9.8660    1.2740 C   0  0  0  0  0  0
    4.5640    9.8650    2.6710 C   0  0  0  0  0  0
    3.2910    9.7100    3.2190 C   0  0  0  0  0  0
    3.1280    9.7070    4.5750 N   0  0  0  0  0  0
    4.1840    9.8510    5.3990 C   0  0  0  0  0  0
    5.4830   10.0090    4.9180 C   0  0  0  0  0  0
    5.6870   10.0190    3.5340 C   0  0  0  0  0  0
    8.4470   10.3740    3.9930 S   0  0  0  0  0  0
    8.1500   11.4220    4.9350 O   0  0  0  0  0  0
    9.5850   10.4810    3.1000 O   0  0  0  0  0  0
    8.4810    9.0070    4.8510 N   0  0  3  0  0  0
    9.0040    7.7420    4.3380 C   0  0  0  0  0  0
    9.9790    7.9390    3.1780 C   0  0  0  0  0  0
   11.1750    7.0990    3.3810 N   0  3  0  0  0  0
   12.3100    7.9960    3.6460 C   0  0  0  0  0  0
    8.1248   10.2958    1.1517 H   0  0  0  0  0  0
    6.1558   10.0219   -0.3290 H   0  0  0  0  0  0
    3.8731    9.7480    0.6120 H   0  0  0  0  0  0
    2.4267    9.5913    2.5655 H   0  0  0  0  0  0
    4.0175    9.8438    6.4762 H   0  0  0  0  0  0
    6.3214   10.1223    5.6053 H   0  0  0  0  0  0
    7.9343    9.0296    5.8053 H   0  0  0  0  0  0
    9.5367    7.2126    5.1417 H   0  0  0  0  0  0
    8.1712    7.1198    3.9783 H   0  0  0  0  0  0
    9.4898    7.6529    2.2352 H   0  0  0  0  0  0
   10.2812    8.9955    3.1284 H   0  0  0  0  0  0
   11.0102    6.4269    4.2361 H   0  0  0  0  0  0
   11.3617    6.5021    2.4761 H   0  0  0  0  0  0
   13.2205    7.3989    3.8024 H   0  0  0  0  0  0
   12.1034    8.5924    4.5469 H   0  0  0  0  0  0
   12.4549    8.6676    2.7869 H   0  0  0  0  0  0
  1 11  1  0  0  0
  1 10  2  0  0  0
  1  2  1  0  0  0
  2  3  2  0  0  0
  2 19  1  0  0  0
  3  4  1  0  0  0
  3 20  1  0  0  0
  4  5  2  0  0  0
  4 21  1  0  0  0
  5 10  1  0  0  0
  5  6  1  0  0  0
  6  7  2  0  0  0
  6 22  1  0  0  0
  7  8  1  0  0  0
  8  9  2  0  0  0
  8 23  1  0  0  0
  9 10  1  0  0  0
  9 24  1  0  0  0
 11 14  1  0  0  0
 11 13  2  0  0  0
 11 12  2  0  0  0
 14 15  1  0  0  0
 14 25  1  0  0  0
 15 16  1  0  0  0
 15 26  1  0  0  0
 15 27  1  0  0  0
 16 17  1  0  0  0
 16 28  1  0  0  0
 16 29  1  0  0  0
 17 18  1  0  0  0
 17 30  1  0  0  0
 17 31  1  0  0  0
 18 32  1  0  0  0
 18 33  1  0  0  0
 18 34  1  0  0  0
M  CHG  1  17   1
M  END
> <s_m_source_file>
../1yds_ligand.sdf

> <i_m_source_file_index>
1

> <s_epik_input>
W2NIXTFuW2NIXVtjSF1jKGMxMiljKFtjSF1bY0hdW2NIXTIpUyg9TykoPU8pW05IXVtDSDJdW0NIMl1bTkgyK11bQ0gzXQ==

> <s_epik_cmdline>
J2VwaWtfYXBwJywgJy1pbWFlJywgJ2xpZ2FuZF9wcm8ubWFlJywgJy1vbWFlJywgJ2xpZ2FuZF9wcmVwLm1hZScsICctbXMnLCAnMScsICctcGgnLCAnNycsICctcGh0JywgJzAuNScsICctbnQn

> <r_lp_tautomer_probability>
1

> <r_epik_Ionization_Penalty>
  0.0040

> <r_epik_Ionization_Penalty_Charging>
  0.0022

> <r_epik_Ionization_Penalty_Neutral>
  0.0018

> <r_epik_State_Penalty>
 -0.0000

> <r_epik_Charging_Adjusted_Penalty>
0.00217685577158877

> <i_epik_Tot_Q>
1

> <i_epik_Tot_abs_Q>
1

$$$$
