1yej_ligand
                    3D
 Schrodinger Suite 2020-3.
 48 48  0  0  1  0            999 V2000
   11.7240   37.6520   61.5920 C   0  0  0  0  0  0
   11.5950   38.9440   61.0990 C   0  0  0  0  0  0
   10.3830   39.5810   61.2410 C   0  0  0  0  0  0
    9.3230   38.9240   61.8670 C   0  0  0  0  0  0
    9.4940   37.6010   62.3560 C   0  0  0  0  0  0
   10.7220   36.9360   62.2210 C   0  0  0  0  0  0
   14.2130   37.5270   62.3610 P   0  0  1  0  0  0
   12.9460   37.0450   61.4460 O   0  0  0  0  0  0
   14.4460   38.9260   62.1110 O   0  0  0  0  0  0
   13.9650   37.0920   63.7470 O   0  5  0  0  0  0
   15.5100   36.5790   61.7560 C   0  0  0  0  0  0
   16.0650   37.0440   60.4760 C   0  0  0  0  0  0
   17.2700   36.1540   60.2140 C   0  0  0  0  0  0
   17.6240   36.0770   58.7520 C   0  0  0  0  0  0
   17.3290   34.9030   58.0520 N   0  0  0  0  0  0
   18.1670   37.0950   58.2460 O   0  0  0  0  0  0
   17.5900   34.6900   56.7120 C   0  0  0  0  0  0
   16.5890   33.7390   56.0350 C   0  0  0  0  0  0
   17.2310   32.9210   54.8670 C   0  0  0  0  0  0
   17.0470   31.3850   54.9810 C   0  0  0  0  0  0
   16.7600   30.6380   53.6670 C   0  0  0  0  0  0
   15.7740   29.4520   53.7680 C   0  0  0  0  0  0
   15.6460   28.8790   54.7890 O   0  0  0  0  0  0
   15.0990   29.0450   52.8370 O   0  5  0  0  0  0
    8.0130   39.6060   62.0260 N   0  3  0  0  0  0
    7.8500   40.7940   61.7110 O   0  5  0  0  0  0
    7.0620   38.9830   62.4940 O   0  0  0  0  0  0
   12.4333   39.4416   60.6114 H   0  0  0  0  0  0
   10.2517   40.5958   60.8655 H   0  0  0  0  0  0
    8.6597   37.0958   62.8427 H   0  0  0  0  0  0
   10.8762   35.9213   62.5879 H   0  0  0  0  0  0
   16.3367   36.5831   62.4816 H   0  0  0  0  0  0
   15.1664   35.5461   61.5975 H   0  0  0  0  0  0
   15.3059   36.9378   59.6870 H   0  0  0  0  0  0
   16.3560   38.1011   60.5649 H   0  0  0  0  0  0
   18.1429   36.5507   60.7531 H   0  0  0  0  0  0
   17.0553   35.1336   60.5644 H   0  0  0  0  0  0
   16.8530   34.1134   58.6519 H   0  0  0  0  0  0
   17.5490   35.6484   56.1736 H   0  0  0  0  0  0
   18.5912   34.2485   56.5991 H   0  0  0  0  0  0
   16.2042   33.0233   56.7764 H   0  0  0  0  0  0
   15.7534   34.3214   55.6195 H   0  0  0  0  0  0
   16.7782   33.2276   53.9125 H   0  0  0  0  0  0
   18.3138   33.1122   54.8373 H   0  0  0  0  0  0
   17.9627   30.9356   55.3927 H   0  0  0  0  0  0
   16.1995   31.1656   55.6470 H   0  0  0  0  0  0
   16.3267   31.3360   52.9355 H   0  0  0  0  0  0
   17.6979   30.2243   53.2680 H   0  0  0  0  0  0
  1  8  1  0  0  0
  1  6  2  0  0  0
  1  2  1  0  0  0
  2  3  2  0  0  0
  2 28  1  0  0  0
  3  4  1  0  0  0
  3 29  1  0  0  0
  4 25  1  0  0  0
  4  5  2  0  0  0
  5  6  1  0  0  0
  5 30  1  0  0  0
  6 31  1  0  0  0
  7  8  1  0  0  0
  7  9  2  0  0  0
  7 10  1  0  0  0
  7 11  1  0  0  0
 11 12  1  0  0  0
 11 32  1  0  0  0
 11 33  1  0  0  0
 12 13  1  0  0  0
 12 34  1  0  0  0
 12 35  1  0  0  0
 13 14  1  0  0  0
 13 36  1  0  0  0
 13 37  1  0  0  0
 14 16  2  0  0  0
 14 15  1  0  0  0
 15 17  1  0  0  0
 15 38  1  0  0  0
 17 18  1  0  0  0
 17 39  1  0  0  0
 17 40  1  0  0  0
 18 19  1  0  0  0
 18 41  1  0  0  0
 18 42  1  0  0  0
 19 20  1  0  0  0
 19 43  1  0  0  0
 19 44  1  0  0  0
 20 21  1  0  0  0
 20 45  1  0  0  0
 20 46  1  0  0  0
 21 22  1  0  0  0
 21 47  1  0  0  0
 21 48  1  0  0  0
 22 24  1  0  0  0
 22 23  2  0  0  0
 25 27  2  0  0  0
 25 26  1  0  0  0
M  CHG  4  10  -1  24  -1  25   1  26  -1
M  END
> <s_m_source_file>
../1yej_ligand.sdf

> <i_m_source_file_index>
1

> <s_epik_input>
W2NIXTFbY0hdYyhbTitdKFtPLV0pPU8pW2NIXVtjSF1jMU9bUEBAXSg9TykoW09IXSlbQ0gyXVtDSDJdW0NIMl1DKD1PKVtOSF1bQ0gyXVtDSDJdW0NIMl1bQ0gyXVtDSDJdQyg9TylbT0hd

> <s_epik_cmdline>
J2VwaWtfYXBwJywgJy1pbWFlJywgJ2xpZ2FuZF9wcm8ubWFlJywgJy1vbWFlJywgJ2xpZ2FuZF9wcmVwLm1hZScsICctbXMnLCAnMScsICctcGgnLCAnNycsICctcGh0JywgJzAuNScsICctbnQn

> <r_lp_tautomer_probability>
1

> <r_epik_Ionization_Penalty>
  0.0046

> <r_epik_Ionization_Penalty_Charging>
  0.0046

> <r_epik_Ionization_Penalty_Neutral>
  0.0000

> <r_epik_State_Penalty>
 -0.0000

> <r_epik_Charging_Adjusted_Penalty>
0.00458767932604069

> <i_epik_Tot_Q>
-2

> <i_epik_Tot_abs_Q>
4

$$$$
