1yfz_ligand
                    3D
 Schrodinger Suite 2020-3.
 34 36  0  0  1  0            999 V2000
   42.2720   35.8040   66.6010 P   0  0  0  0  0  0
   41.0280   36.6050   66.4070 O   0  0  0  0  0  0
   43.3340   36.6840   67.1810 O   0  5  0  0  0  0
   42.0260   34.5820   67.5020 O   0  5  0  0  0  0
   42.8330   35.1990   65.2090 O   0  0  0  0  0  0
   42.8680   36.1300   64.0900 C   0  0  0  0  0  0
   43.3950   35.5960   62.7700 C   0  0  1  0  0  0
   43.8470   36.8230   62.0610 O   0  0  0  0  0  0
   44.6330   34.6540   62.7660 C   0  0  1  0  0  0
   44.3640   33.3810   62.1790 O   0  0  0  0  0  0
   45.7210   35.3900   62.0070 C   0  0  1  0  0  0
   46.5460   34.5480   61.2290 O   0  0  0  0  0  0
   44.8940   36.3870   61.2120 C   0  0  2  0  0  0
   45.7140   37.5800   60.7710 N   0  0  0  0  0  0
   46.0520   37.9690   59.4990 C   0  0  0  0  0  0
   46.7730   39.0490   59.4640 N   0  0  0  0  0  0
   46.9440   39.4260   60.7630 C   0  0  0  0  0  0
   47.6490   40.5440   61.3390 C   0  0  0  0  0  0
   48.2740   41.4230   60.7380 O   0  0  0  0  0  0
   47.5880   40.5840   62.7740 N   0  0  0  0  0  0
   46.9020   39.6250   63.5300 C   0  0  0  0  0  0
   46.2400   38.5750   62.9670 N   0  0  0  0  0  0
   46.2940   38.5340   61.6150 C   0  0  0  0  0  0
   41.8497   36.4892   63.8799 H   0  0  0  0  0  0
   43.5130   36.9842   64.3437 H   0  0  0  0  0  0
   42.5678   35.0135   62.3383 H   0  0  0  0  0  0
   44.9480   34.3495   63.7750 H   0  0  0  0  0  0
   43.5972   32.7247   62.6163 H   0  0  0  0  0  0
   46.5315   35.8220   62.6123 H   0  0  0  0  0  0
   47.1806   33.7947   61.7187 H   0  0  0  0  0  0
   44.4497   35.9190   60.3212 H   0  0  0  0  0  0
   45.7455   37.4250   58.6056 H   0  0  0  0  0  0
   48.0933   41.3918   63.3237 H   0  0  0  0  0  0
   46.8974   39.7226   64.6156 H   0  0  0  0  0  0
  1  2  2  0  0  0
  1  3  1  0  0  0
  1  4  1  0  0  0
  1  5  1  0  0  0
  5  6  1  0  0  0
  6  7  1  0  0  0
  6 24  1  0  0  0
  6 25  1  0  0  0
  7  8  1  0  0  0
  7  9  1  0  0  0
  7 26  1  0  0  0
  8 13  1  0  0  0
  9 10  1  0  0  0
  9 11  1  0  0  0
  9 27  1  0  0  0
 10 28  1  0  0  0
 11 12  1  0  0  0
 11 13  1  0  0  0
 11 29  1  0  0  0
 12 30  1  0  0  0
 13 14  1  0  0  0
 13 31  1  0  0  0
 14 15  1  0  0  0
 14 23  1  0  0  0
 15 16  2  0  0  0
 15 32  1  0  0  0
 16 17  1  0  0  0
 17 18  1  0  0  0
 17 23  2  0  0  0
 18 19  2  0  0  0
 18 20  1  0  0  0
 20 21  1  0  0  0
 20 33  1  0  0  0
 21 22  2  0  0  0
 21 34  1  0  0  0
 22 23  1  0  0  0
M  CHG  2   3  -1   4  -1
M  END
> <s_m_source_file>
../1yfz_ligand.sdf

> <i_m_source_file_index>
1

> <s_epik_input>
Tz1QKFtPSF0pKFtPSF0pT1tDSDJdW0NASF0xT1tDQEhdKFtDQEhdKFtPSF0pW0NAQEhdMVtPSF0pbihbY0hdbjIpYyhjMjMpbltjSF1bbkhdYzM9Tw==

> <s_epik_cmdline>
J2VwaWtfYXBwJywgJy1pbWFlJywgJ2xpZ2FuZF9wcm8ubWFlJywgJy1vbWFlJywgJ2xpZ2FuZF9wcmVwLm1hZScsICctbXMnLCAnMScsICctcGgnLCAnNycsICctcGh0JywgJzAuNScsICctbnQn

> <r_lp_tautomer_probability>
1

> <r_epik_Ionization_Penalty>
  0.1134

> <r_epik_Ionization_Penalty_Charging>
  0.1134

> <r_epik_Ionization_Penalty_Neutral>
  0.0000

> <r_epik_State_Penalty>
 -0.0000

> <r_epik_Charging_Adjusted_Penalty>
0.113364628518097

> <i_epik_Tot_Q>
-2

> <i_epik_Tot_abs_Q>
2

> <s_epik_Chemistry_Notes>
This compound contains an acetal/aminal-like group ( X-CH(R)-Y where X, Y are N, S, or O) that may be acid/base labile, releasing an aldehyde.

$$$$
