1yhm_ligand
                    3D
 Schrodinger Suite 2020-3.
 25 24  0  0  1  0            999 V2000
   47.0230   51.2700  203.1580 C   0  0  0  0  0  0
   45.9150   51.7140  204.1540 C   0  0  0  0  0  0
   47.8500   49.9690  203.4470 C   0  0  0  0  0  0
   48.5620   49.5930  204.6830 C   0  0  1  0  0  0
   50.8780   48.8260  203.2870 O   0  0  0  0  0  0
   49.7640   48.3130  204.1400 P   0  0  0  0  0  0
   49.0010   47.2870  203.2250 O   0  5  0  0  0  0
   50.2800   47.5420  205.3730 O   0  5  0  0  0  0
   49.4940   50.8860  205.5950 P   0  0  0  0  0  0
   50.3460   51.2240  204.4480 O   0  0  0  0  0  0
   50.1900   50.3130  206.7770 O   0  5  0  0  0  0
   48.4420   52.1010  205.5440 O   0  0  0  0  0  0
   47.7810   49.0060  205.5000 O   0  0  0  0  0  0
   45.0170   52.7030  203.5480 N   0  3  0  0  0  0
   46.5765   51.0911  202.1688 H   0  0  0  0  0  0
   47.7837   52.0607  203.0794 H   0  0  0  0  0  0
   45.3197   50.8390  204.4540 H   0  0  0  0  0  0
   46.3803   52.1634  205.0437 H   0  0  0  0  0  0
   47.1984   49.0892  203.3407 H   0  0  0  0  0  0
   48.6825   49.8972  202.7316 H   0  0  0  0  0  0
   48.0082   52.4129  204.5825 H   0  0  0  0  0  0
   47.1293   48.1921  205.1496 H   0  0  0  0  0  0
   44.2472   52.9948  204.2775 H   0  0  0  0  0  0
   44.5349   52.2657  202.6612 H   0  0  0  0  0  0
   45.5956   53.5901  203.2508 H   0  0  0  0  0  0
  1  2  1  0  0  0
  1  3  1  0  0  0
  1 15  1  0  0  0
  1 16  1  0  0  0
  2 14  1  0  0  0
  2 17  1  0  0  0
  2 18  1  0  0  0
  3  4  1  0  0  0
  3 19  1  0  0  0
  3 20  1  0  0  0
  4  6  1  0  0  0
  4  9  1  0  0  0
  4 13  1  0  0  0
  5  6  2  0  0  0
  6  7  1  0  0  0
  6  8  1  0  0  0
  9 10  2  0  0  0
  9 11  1  0  0  0
  9 12  1  0  0  0
 12 21  1  0  0  0
 13 22  1  0  0  0
 14 23  1  0  0  0
 14 24  1  0  0  0
 14 25  1  0  0  0
M  CHG  4   7  -1   8  -1  11  -1  14   1
M  END
> <s_m_source_file>
../1yhm_ligand.sdf

> <i_m_source_file_index>
1

> <s_epik_input>
W05IMytdW0NIMl1bQ0gyXVtDSDJdQyhbT0hdKShQKD1PKShbT0hdKVtPSF0pUCg9TykoW09IXSlbT0hd

> <s_epik_cmdline>
J2VwaWtfYXBwJywgJy1pbWFlJywgJ2xpZ2FuZF9wcm8ubWFlJywgJy1vbWFlJywgJ2xpZ2FuZF9wcmVwLm1hZScsICctbXMnLCAnMScsICctcGgnLCAnNycsICctcGh0JywgJzAuNScsICctbnQn

> <r_epik_Ionization_Penalty>
  0.2096

> <r_epik_Ionization_Penalty_Charging>
  0.2095

> <r_epik_Ionization_Penalty_Neutral>
  0.0000

> <r_epik_State_Penalty>
  0.1991

> <r_epik_Charging_Adjusted_Penalty>
0.408596024677577

> <i_epik_Tot_Q>
-2

> <i_epik_Tot_abs_Q>
4

$$$$
