1yhs_ligand
                    3D
 Schrodinger Suite 2020-3.
 62 69  0  0  1  0            999 V2000
  -17.1900   35.0480    1.5810 C   0  0  0  0  0  0
  -16.2100   33.9720    1.4150 C   0  0  0  0  0  0
  -15.8490   33.4570    0.0910 C   0  0  0  0  0  0
  -16.4820   34.0080   -1.1110 C   0  0  0  0  0  0
  -17.4740   35.0930   -0.9550 C   0  0  0  0  0  0
  -18.2290   35.7970   -1.9440 N   0  0  0  0  0  0
  -18.9440   36.7940   -1.2360 C   0  0  0  0  0  0
  -19.8090   37.8480   -1.7900 C   0  0  0  0  0  0
  -20.0550   38.1300   -3.1300 N   0  0  0  0  0  0
  -20.9280   39.2780   -3.1940 C   0  0  0  0  0  0
  -21.5190   39.9870   -4.3630 C   0  0  0  0  0  0
  -22.4160   41.1410   -4.1280 C   0  0  0  0  0  0
  -22.7190   41.5830   -2.7470 C   0  0  0  0  0  0
  -22.1230   40.8720   -1.5800 C   0  0  0  0  0  0
  -21.2300   39.7230   -1.8260 C   0  0  0  0  0  0
  -20.5160   38.7810   -0.9270 C   0  0  0  0  0  0
  -20.3280   38.6580    0.5320 C   0  0  0  0  0  0
  -20.8350   39.4820    1.6050 C   0  0  0  0  0  0
  -20.2620   39.0860    2.7680 N   0  0  0  0  0  0
  -19.4500   37.8590    2.6070 C   0  0  0  0  0  0
  -19.4710   37.6630    1.1090 C   0  0  0  0  0  0
  -18.7700   36.7070    0.2050 C   0  0  0  0  0  0
  -17.8100   35.6060    0.3860 C   0  0  0  0  0  0
  -18.3010   35.4770   -3.4590 C   0  0  2  0  0  0
  -16.9360   35.8110   -4.2280 C   0  0  1  0  0  0
  -17.1120   37.0040   -5.2070 C   0  0  1  0  0  0
  -17.9710   38.0830   -4.5450 C   0  0  0  0  0  0
  -19.3950   37.5300   -4.2450 C   0  0  1  0  0  0
  -19.4280   36.1510   -4.0800 O   0  0  0  0  0  0
  -21.6510   40.3890    1.4550 O   0  0  0  0  0  0
  -15.8810   37.6390   -5.7070 N   0  3  0  0  0  0
  -15.3380   36.6840   -6.6890 C   0  0  0  0  0  0
  -15.9350   36.1960   -3.2830 O   0  0  0  0  0  0
  -14.6700   35.5240   -3.4470 C   0  0  0  0  0  0
  -18.6330   33.9860   -3.7300 C   0  0  0  0  0  0
  -17.4486   35.4213    2.5719 H   0  0  0  0  0  0
  -15.7371   33.5434    2.2986 H   0  0  0  0  0  0
  -15.1083   32.6626   -0.0000 H   0  0  0  0  0  0
  -16.2266   33.6256   -2.0993 H   0  0  0  0  0  0
  -21.2940   39.6604   -5.3783 H   0  0  0  0  0  0
  -22.8555   41.6678   -4.9750 H   0  0  0  0  0  0
  -23.3815   42.4329   -2.5831 H   0  0  0  0  0  0
  -22.3430   41.1952   -0.5625 H   0  0  0  0  0  0
  -20.3435   39.5661    3.7543 H   0  0  0  0  0  0
  -18.4394   38.0333    3.0048 H   0  0  0  0  0  0
  -19.9227   37.0317    3.1567 H   0  0  0  0  0  0
  -16.5509   34.9239   -4.7521 H   0  0  0  0  0  0
  -17.5524   36.5853   -6.1239 H   0  0  0  0  0  0
  -17.5015   38.3977   -3.6013 H   0  0  0  0  0  0
  -18.0561   38.9484   -5.2186 H   0  0  0  0  0  0
  -20.0417   37.7299   -5.1120 H   0  0  0  0  0  0
  -16.1292   38.6048   -6.1713 H   0  0  0  0  0  0
  -15.1865   37.8024   -4.8697 H   0  0  0  0  0  0
  -14.4071   37.0860   -7.1153 H   0  0  0  0  0  0
  -16.0721   36.5278   -7.4932 H   0  0  0  0  0  0
  -15.1295   35.7253   -6.1915 H   0  0  0  0  0  0
  -13.9641   35.8796   -2.6820 H   0  0  0  0  0  0
  -14.2667   35.7407   -4.4472 H   0  0  0  0  0  0
  -14.8142   34.4391   -3.3369 H   0  0  0  0  0  0
  -17.8428   33.3510   -3.3030 H   0  0  0  0  0  0
  -18.6944   33.8154   -4.8150 H   0  0  0  0  0  0
  -19.5972   33.7345   -3.2641 H   0  0  0  0  0  0
  1  2  2  0  0  0
  1 23  1  0  0  0
  1 36  1  0  0  0
  2  3  1  0  0  0
  2 37  1  0  0  0
  3  4  2  0  0  0
  3 38  1  0  0  0
  4  5  1  0  0  0
  4 39  1  0  0  0
  5  6  1  0  0  0
  5 23  2  0  0  0
  6  7  1  0  0  0
  6 24  1  0  0  0
  7  8  1  0  0  0
  7 22  2  0  0  0
  8  9  1  0  0  0
  8 16  2  0  0  0
  9 10  1  0  0  0
  9 28  1  0  0  0
 10 11  1  0  0  0
 10 15  2  0  0  0
 11 12  2  0  0  0
 11 40  1  0  0  0
 12 13  1  0  0  0
 12 41  1  0  0  0
 13 14  2  0  0  0
 13 42  1  0  0  0
 14 15  1  0  0  0
 14 43  1  0  0  0
 15 16  1  0  0  0
 16 17  1  0  0  0
 17 18  1  0  0  0
 17 21  2  0  0  0
 18 19  1  0  0  0
 18 30  2  0  0  0
 19 20  1  0  0  0
 19 44  1  0  0  0
 20 21  1  0  0  0
 20 45  1  0  0  0
 20 46  1  0  0  0
 21 22  1  0  0  0
 22 23  1  0  0  0
 24 25  1  0  0  0
 24 29  1  0  0  0
 24 35  1  0  0  0
 25 26  1  0  0  0
 25 33  1  0  0  0
 25 47  1  0  0  0
 26 27  1  0  0  0
 26 31  1  0  0  0
 26 48  1  0  0  0
 27 28  1  0  0  0
 27 49  1  0  0  0
 27 50  1  0  0  0
 28 29  1  0  0  0
 28 51  1  0  0  0
 31 32  1  0  0  0
 31 52  1  0  0  0
 31 53  1  0  0  0
 32 54  1  0  0  0
 32 55  1  0  0  0
 32 56  1  0  0  0
 33 34  1  0  0  0
 34 57  1  0  0  0
 34 58  1  0  0  0
 34 59  1  0  0  0
 35 60  1  0  0  0
 35 61  1  0  0  0
 35 62  1  0  0  0
M  CHG  1  31   1
M  END
> <s_m_source_file>
../1yhs_ligand.sdf

> <i_m_source_file_index>
1

> <s_epik_input>
W2NIXTFbY0hdW2NIXVtjSF1jKGMxbjJbQ0BdMzRbQ0gzXSljNWMyYzZuKFtDQEhdKE80KVtDSDJdW0NAQEhdKFtOSDIrXVtDSDNdKVtDQEhdM09bQ0gzXSljN2MoW2NIXVtjSF1bY0hdW2NIXTcpYzZjOGM1W0NIMl1bTkhdQzg9Tw==

> <s_epik_cmdline>
J2VwaWtfYXBwJywgJy1pbWFlJywgJ2xpZ2FuZF9wcm8ubWFlJywgJy1vbWFlJywgJ2xpZ2FuZF9wcmVwLm1hZScsICctbXMnLCAnMScsICctcGgnLCAnNycsICctcGh0JywgJzAuNScsICctbnQn

> <r_epik_Ionization_Penalty>
  0.0560

> <r_epik_Ionization_Penalty_Charging>
  0.0560

> <r_epik_Ionization_Penalty_Neutral>
  0.0000

> <r_epik_State_Penalty>
  0.0482

> <r_epik_Charging_Adjusted_Penalty>
0.104192696511962

> <i_epik_Tot_Q>
1

> <i_epik_Tot_abs_Q>
1

> <s_epik_Chemistry_Notes>
This compound contains an acetal/aminal-like group ( X-CH(R)-Y where X, Y are N, S, or O) that may be acid/base labile, releasing an aldehyde.

$$$$
