1yid_ligand
                    3D
 Schrodinger Suite 2020-3.
 43 45  0  0  1  0            999 V2000
   66.8050  -15.6970    1.5090 P   0  0  0  0  0  0
   66.2150  -14.7100    2.6450 O   0  5  0  0  0  0
   66.3690  -17.2300    1.9140 O   0  5  0  0  0  0
   66.5840  -15.3470    0.1130 O   0  0  0  0  0  0
   69.8560  -14.8130    1.3460 P   0  0  2  0  0  0
   69.5730  -13.5620    0.5700 O   0  0  0  0  0  0
   70.7840  -15.7150    0.5220 O   0  5  0  0  0  0
   68.4340  -15.8260    1.8640 O   0  0  0  0  0  0
   70.2980  -13.4380    3.9020 P   0  0  1  0  0  0
   70.0180  -12.1560    3.2240 O   0  0  0  0  0  0
   69.2190  -13.9360    4.8040 O   0  5  0  0  0  0
   70.7480  -14.4820    2.7110 O   0  0  0  0  0  0
   71.5980  -13.1150    4.8080 O   0  0  0  0  0  0
   72.1110  -14.1630    5.6420 C   0  0  0  0  0  0
   73.5930  -14.2340    5.8240 C   0  0  1  0  0  0
   74.2510  -15.1460    4.8760 O   0  0  0  0  0  0
   74.4690  -12.9740    5.7400 C   0  0  1  0  0  0
   75.5890  -13.1340    6.6340 O   0  0  0  0  0  0
   74.8460  -12.9530    4.2700 C   0  0  1  0  0  0
   75.9750  -12.1770    3.9200 O   0  0  0  0  0  0
   75.0780  -14.4000    3.9580 C   0  0  2  0  0  0
   74.8860  -14.8310    2.5330 N   0  0  0  0  0  0
   73.7680  -15.2780    1.8910 C   0  0  0  0  0  0
   73.9420  -15.5880    0.6210 N   0  0  0  0  0  0
   75.2810  -15.3130    0.3840 C   0  0  0  0  0  0
   76.0980  -15.4370   -0.7830 C   0  0  0  0  0  0
   75.6330  -15.8620   -1.9750 N   0  0  0  0  0  0
   77.4380  -15.0850   -0.6820 N   0  0  0  0  0  0
   77.9070  -14.6460    0.5070 C   0  0  0  0  0  0
   77.2350  -14.4940    1.6810 N   0  0  0  0  0  0
   75.9050  -14.8490    1.5540 C   0  0  0  0  0  0
   71.6972  -14.0604    6.6560 H   0  0  0  0  0  0
   71.8213  -15.1387    5.2248 H   0  0  0  0  0  0
   73.5485  -14.5926    6.8630 H   0  0  0  0  0  0
   74.0441  -12.0168    6.0766 H   0  0  0  0  0  0
   75.4251  -13.1621    7.7214 H   0  0  0  0  0  0
   74.0991  -12.4277    3.6567 H   0  0  0  0  0  0
   75.9677  -11.0895    4.0855 H   0  0  0  0  0  0
   76.1410  -14.6294    4.1237 H   0  0  0  0  0  0
   72.8036  -15.3718    2.3903 H   0  0  0  0  0  0
   74.5761  -16.1471   -2.0831 H   0  0  0  0  0  0
   76.3105  -15.9237   -2.8394 H   0  0  0  0  0  0
   78.9634  -14.3781    0.5288 H   0  0  0  0  0  0
  1  2  1  0  0  0
  1  3  1  0  0  0
  1  4  2  0  0  0
  1  8  1  0  0  0
  5  6  2  0  0  0
  5  7  1  0  0  0
  5  8  1  0  0  0
  5 12  1  0  0  0
  9 10  2  0  0  0
  9 11  1  0  0  0
  9 12  1  0  0  0
  9 13  1  0  0  0
 13 14  1  0  0  0
 14 15  1  0  0  0
 14 32  1  0  0  0
 14 33  1  0  0  0
 15 16  1  0  0  0
 15 17  1  0  0  0
 15 34  1  0  0  0
 16 21  1  0  0  0
 17 18  1  0  0  0
 17 19  1  0  0  0
 17 35  1  0  0  0
 18 36  1  0  0  0
 19 20  1  0  0  0
 19 21  1  0  0  0
 19 37  1  0  0  0
 20 38  1  0  0  0
 21 22  1  0  0  0
 21 39  1  0  0  0
 22 23  1  0  0  0
 22 31  1  0  0  0
 23 24  2  0  0  0
 23 40  1  0  0  0
 24 25  1  0  0  0
 25 26  2  0  0  0
 25 31  1  0  0  0
 26 27  1  0  0  0
 26 28  1  0  0  0
 27 41  1  0  0  0
 27 42  1  0  0  0
 28 29  2  0  0  0
 29 30  1  0  0  0
 29 43  1  0  0  0
 30 31  2  0  0  0
M  CHG  4   2  -1   3  -1   7  -1  11  -1
M  END
> <s_m_source_file>
../1yid_ligand.sdf

> <i_m_source_file_index>
1

> <s_epik_input>
W09IXVAoPU8pKFtPSF0pT1tQQF0oPU8pKFtPSF0pT1tQQEBdKD1PKShbT0hdKU9bQ0gyXVtDQEhdMU9bQ0BIXShbQ0BIXShbT0hdKVtDQEBIXTFbT0hdKW4oW2NIXW4yKWMoYzIzKW5bY0hdbmMzW05IMl0=

> <s_epik_cmdline>
J2VwaWtfYXBwJywgJy1pbWFlJywgJ2xpZ2FuZF9wcm8ubWFlJywgJy1vbWFlJywgJ2xpZ2FuZF9wcmVwLm1hZScsICctbXMnLCAnMScsICctcGgnLCAnNycsICctcGh0JywgJzAuNScsICctbnQn

> <r_lp_tautomer_probability>
0.999997216410988

> <r_epik_Ionization_Penalty>
  0.0818

> <r_epik_Ionization_Penalty_Charging>
  0.0813

> <r_epik_Ionization_Penalty_Neutral>
  0.0004

> <r_epik_State_Penalty>
  0.0708

> <r_epik_Charging_Adjusted_Penalty>
0.152157994418768

> <i_epik_Tot_Q>
-4

> <i_epik_Tot_abs_Q>
4

> <s_epik_Chemistry_Notes>
This compound contains an acetal/aminal-like group ( X-CH(R)-Y where X, Y are N, S, or O) that may be acid/base labile, releasing an aldehyde.

$$$$
