1yk7_ligand
                    3D
 Schrodinger Suite 2020-3.
 55 56  0  0  1  0            999 V2000
   75.6310 -127.7220   35.3020 C   0  0  0  0  0  0
   75.9270 -128.3570   33.9360 C   0  0  0  0  0  0
   77.1090 -129.3030   34.0550 C   0  0  0  0  0  0
   74.7220 -129.1260   33.4770 C   0  0  0  0  0  0
   73.6750 -128.1510   32.9370 C   0  0  2  0  0  0
   72.4840 -128.9390   32.4950 N   0  0  0  0  0  0
   71.6040 -128.4930   31.5260 C   0  0  0  0  0  0
   71.3750 -127.2920   31.3780 O   0  0  0  0  0  0
   70.9930 -129.3780   30.7590 O   0  0  0  0  0  0
   69.7650 -128.9060   30.2370 C   0  0  0  0  0  0
   68.8570 -130.0860   29.9870 C   0  0  0  0  0  0
   69.3980 -131.3090   29.5860 C   0  0  0  0  0  0
   68.5670 -132.3930   29.3610 C   0  0  0  0  0  0
   67.1880 -132.2660   29.5350 C   0  0  0  0  0  0
   66.6480 -131.0530   29.9310 C   0  0  0  0  0  0
   67.4830 -129.9590   30.1590 C   0  0  0  0  0  0
   74.3020 -127.3170   31.7650 C   0  0  0  0  0  0
   74.8350 -127.8910   30.8150 O   0  0  0  0  0  0
   74.2050 -125.9480   31.7990 N   0  0  0  0  0  0
   75.3250 -125.0290   31.4400 C   0  0  2  0  0  0
   75.0190 -124.2750   30.1680 C   0  0  0  0  0  0
   76.3710 -124.1160   29.4460 C   0  0  0  0  0  0
   77.3860 -124.7710   30.3020 N   0  0  0  0  0  0
   76.6720 -125.7010   31.2170 C   0  0  0  0  0  0
   78.3670 -125.4100   29.5000 C   0  0  0  0  0  0
   78.9030 -124.7210   28.4870 N   0  3  0  0  0  0
   76.5115 -127.1573   35.6424 H   0  0  0  0  0  0
   75.3979 -128.5122   36.0309 H   0  0  0  0  0  0
   74.7715 -127.0415   35.2115 H   0  0  0  0  0  0
   76.1573 -127.5772   33.1952 H   0  0  0  0  0  0
   77.9942 -128.7432   34.3912 H   0  0  0  0  0  0
   77.3138 -129.7589   33.0751 H   0  0  0  0  0  0
   76.8751 -130.0920   34.7849 H   0  0  0  0  0  0
   75.0157 -129.8278   32.6825 H   0  0  0  0  0  0
   74.3003 -129.6868   34.3242 H   0  0  0  0  0  0
   73.3208 -127.4697   33.7246 H   0  0  0  0  0  0
   72.2761 -129.9208   32.9453 H   0  0  0  0  0  0
   69.2973 -128.2226   30.9610 H   0  0  0  0  0  0
   69.9490 -128.3708   29.2937 H   0  0  0  0  0  0
   70.4747 -131.4103   29.4501 H   0  0  0  0  0  0
   68.9903 -133.3473   29.0474 H   0  0  0  0  0  0
   66.5356 -133.1214   29.3593 H   0  0  0  0  0  0
   65.5708 -130.9536   30.0644 H   0  0  0  0  0  0
   67.0586 -129.0050   30.4719 H   0  0  0  0  0  0
   73.2345 -125.5360   32.1125 H   0  0  0  0  0  0
   75.3865 -124.3775   32.3242 H   0  0  0  0  0  0
   74.3060 -124.8530   29.5617 H   0  0  0  0  0  0
   74.5802 -123.2977   30.4176 H   0  0  0  0  0  0
   76.3187 -124.5992   28.4592 H   0  0  0  0  0  0
   76.5954 -123.0466   29.3192 H   0  0  0  0  0  0
   77.1892 -125.8146   32.1812 H   0  0  0  0  0  0
   76.5171 -126.6918   30.7651 H   0  0  0  0  0  0
   78.6890 -126.4439   29.6931 H   0  0  0  0  0  0
   78.5810 -123.6871   28.2938 H   0  0  0  0  0  0
   79.6659 -125.1882   27.8469 H   0  0  0  0  0  0
  1  2  1  0  0  0
  1 27  1  0  0  0
  1 28  1  0  0  0
  1 29  1  0  0  0
  2  3  1  0  0  0
  2  4  1  0  0  0
  2 30  1  0  0  0
  3 31  1  0  0  0
  3 32  1  0  0  0
  3 33  1  0  0  0
  4  5  1  0  0  0
  4 34  1  0  0  0
  4 35  1  0  0  0
  5  6  1  0  0  0
  5 17  1  0  0  0
  5 36  1  0  0  0
  6  7  1  0  0  0
  6 37  1  0  0  0
  7  8  2  0  0  0
  7  9  1  0  0  0
  9 10  1  0  0  0
 10 11  1  0  0  0
 10 38  1  0  0  0
 10 39  1  0  0  0
 11 12  2  0  0  0
 11 16  1  0  0  0
 12 13  1  0  0  0
 12 40  1  0  0  0
 13 14  2  0  0  0
 13 41  1  0  0  0
 14 15  1  0  0  0
 14 42  1  0  0  0
 15 16  2  0  0  0
 15 43  1  0  0  0
 16 44  1  0  0  0
 17 18  2  0  0  0
 17 19  1  0  0  0
 19 20  1  0  0  0
 19 45  1  0  0  0
 20 21  1  0  0  0
 20 24  1  0  0  0
 20 46  1  0  0  0
 21 22  1  0  0  0
 21 47  1  0  0  0
 21 48  1  0  0  0
 22 23  1  0  0  0
 22 49  1  0  0  0
 22 50  1  0  0  0
 23 24  1  0  0  0
 23 25  1  0  0  0
 24 51  1  0  0  0
 24 52  1  0  0  0
 25 26  2  0  0  0
 25 53  1  0  0  0
 26 54  1  0  0  0
 26 55  1  0  0  0
M  CHG  1  26   1
M  END
> <s_m_source_file>
../1yk7_ligand.sdf

> <i_m_source_file_index>
1

> <s_epik_input>
W0hdL049W0NIXVxOKFtDSDJdMSlbQ0gyXVtDSDJdW0NASF0xW05IXUMoPU8pW0NASF0oW0NIMl1bQ0hdKFtDSDNdKVtDSDNdKVtOSF1DKD1PKU9bQ0gyXWMyW2NIXVtjSF1bY0hdW2NIXVtjSF0y

> <s_epik_cmdline>
J2VwaWtfYXBwJywgJy1pbWFlJywgJ2xpZ2FuZF9wcm8ubWFlJywgJy1vbWFlJywgJ2xpZ2FuZF9wcmVwLm1hZScsICctbXMnLCAnMScsICctcGgnLCAnNycsICctcGh0JywgJzAuNScsICctbnQn

> <r_lp_tautomer_probability>
1

> <r_epik_Ionization_Penalty>
  0.0000

> <r_epik_Ionization_Penalty_Charging>
  0.0000

> <r_epik_Ionization_Penalty_Neutral>
  0.0000

> <r_epik_State_Penalty>
 -0.0000

> <r_epik_Charging_Adjusted_Penalty>
3.04359617663289e-05

> <i_epik_Tot_Q>
1

> <i_epik_Tot_abs_Q>
1

> <s_epik_Chemistry_Notes>
This compound has an ester and may undergo hydrolysis at high or low pH. This compound has an imine and may undergo hydrolysis.

$$$$
