1ylv_ligand
                    3D
 Schrodinger Suite 2020-3.
 16 15  0  0  1  0            999 V2000
   19.5400   24.7080   16.4340 C   0  0  0  0  0  0
   19.2830   25.0150   17.9040 C   0  0  0  0  0  0
   19.9970   25.8310   15.5370 C   0  0  0  0  0  0
   21.4120   25.6440   15.0290 C   0  0  0  0  0  0
   21.8220   26.6900   14.0160 C   0  0  0  0  0  0
   21.0180   27.6000   13.7180 O   0  0  0  0  0  0
   22.9520   26.6400   13.4820 O   0  5  0  0  0  0
   20.3261   23.9430   16.3512 H   0  0  0  0  0  0
   18.6150   24.3349   15.9701 H   0  0  0  0  0  0
   18.9585   24.0986   18.4186 H   0  0  0  0  0  0
   18.4969   25.7800   17.9868 H   0  0  0  0  0  0
   20.2081   25.3880   18.3678 H   0  0  0  0  0  0
   19.3334   25.8945   14.6620 H   0  0  0  0  0  0
   19.9639   26.7802   16.0919 H   0  0  0  0  0  0
   22.1153   25.7036   15.8727 H   0  0  0  0  0  0
   21.5012   24.6597   14.5462 H   0  0  0  0  0  0
  1  2  1  0  0  0
  1  3  1  0  0  0
  1  8  1  0  0  0
  1  9  1  0  0  0
  2 10  1  0  0  0
  2 11  1  0  0  0
  2 12  1  0  0  0
  3  4  1  0  0  0
  3 13  1  0  0  0
  3 14  1  0  0  0
  4  5  1  0  0  0
  4 15  1  0  0  0
  4 16  1  0  0  0
  5  6  2  0  0  0
  5  7  1  0  0  0
M  CHG  1   7  -1
M  END
> <s_m_source_file>
../1ylv_ligand.sdf

> <i_m_source_file_index>
1

> <s_epik_input>
W0NIM11bQ0gyXVtDSDJdW0NIMl1DKD1PKVtPSF0=

> <s_epik_cmdline>
J2VwaWtfYXBwJywgJy1pbWFlJywgJ2xpZ2FuZF9wcm8ubWFlJywgJy1vbWFlJywgJ2xpZ2FuZF9wcmVwLm1hZScsICctbXMnLCAnMScsICctcGgnLCAnNycsICctcGh0JywgJzAuNScsICctbnQn

> <r_lp_tautomer_probability>
1

> <r_epik_Ionization_Penalty>
  0.0048

> <r_epik_Ionization_Penalty_Charging>
  0.0048

> <r_epik_Ionization_Penalty_Neutral>
  0.0000

> <r_epik_State_Penalty>
 -0.0000

> <r_epik_Charging_Adjusted_Penalty>
0.00480083982382227

> <i_epik_Tot_Q>
-1

> <i_epik_Tot_abs_Q>
1

$$$$
