1yly_ligand
                    3D
 Schrodinger Suite 2020-3.
 36 36  0  0  1  0            999 V2000
   16.8210   55.1110   32.4270 B   0  0  0  0  0  0
   16.5430   56.2380   33.3500 O   0  0  0  0  0  0
   15.9550   53.9500   32.7970 O   0  0  0  0  0  0
   18.3950   54.7180   32.4200 C   0  0  0  0  0  0
   18.9010   54.4750   33.7960 N   0  0  0  0  0  0
   20.1880   54.4390   34.1330 C   0  0  0  0  0  0
   21.0180   54.5350   33.2730 O   0  0  0  0  0  0
   20.4050   54.1700   35.6050 C   0  0  0  0  0  0
   20.1290   53.0250   36.1580 N   0  0  0  0  0  0
   19.5800   52.0430   35.3490 O   0  0  0  0  0  0
   19.5380   50.7300   36.0220 C   0  0  0  0  0  0
   21.1790   55.1760   36.3730 C   0  0  0  0  0  0
   21.8820   56.1810   35.7580 C   0  0  0  0  0  0
   22.6110   57.1710   36.9540 S   0  0  0  0  0  0
   21.9330   56.1610   38.1610 C   0  0  0  0  0  0
   22.1460   56.3590   39.4820 N   0  0  0  0  0  0
   21.1910   55.1760   37.7290 N   0  0  0  0  0  0
   20.9970   50.2750   36.1200 C   0  0  0  0  0  0
   18.8490   49.7900   35.0530 C   0  0  0  0  0  0
   18.7700   50.8660   37.3150 C   0  0  0  0  0  0
   19.3350   50.3030   38.2900 O   0  0  0  0  0  0
   17.8370   51.7300   37.4140 O   0  5  0  0  0  0
   15.5164   56.6171   33.4616 H   0  0  0  0  0  0
   14.8626   54.0710   32.8422 H   0  0  0  0  0  0
   18.5417   53.8025   31.8281 H   0  0  0  0  0  0
   18.9760   55.5393   31.9751 H   0  0  0  0  0  0
   18.1928   54.3088   34.6211 H   0  0  0  0  0  0
   21.9641   56.3270   34.6810 H   0  0  0  0  0  0
   22.7752   57.1963   39.8182 H   0  0  0  0  0  0
   21.6901   55.6827   40.2201 H   0  0  0  0  0  0
   21.4322   50.2192   35.1113 H   0  0  0  0  0  0
   21.0407   49.2831   36.5936 H   0  0  0  0  0  0
   21.5660   50.9959   36.7255 H   0  0  0  0  0  0
   19.4396   49.7198   34.1276 H   0  0  0  0  0  0
   17.8456   50.1753   34.8192 H   0  0  0  0  0  0
   18.7618   48.7927   35.5089 H   0  0  0  0  0  0
  1  2  1  0  0  0
  1  3  1  0  0  0
  1  4  1  0  0  0
  2 23  1  0  0  0
  3 24  1  0  0  0
  4  5  1  0  0  0
  4 25  1  0  0  0
  4 26  1  0  0  0
  5  6  1  0  0  0
  5 27  1  0  0  0
  6  7  2  0  0  0
  6  8  1  0  0  0
  8  9  2  0  0  0
  8 12  1  0  0  0
  9 10  1  0  0  0
 10 11  1  0  0  0
 11 18  1  0  0  0
 11 19  1  0  0  0
 11 20  1  0  0  0
 12 13  2  0  0  0
 12 17  1  0  0  0
 13 14  1  0  0  0
 13 28  1  0  0  0
 14 15  1  0  0  0
 15 16  1  0  0  0
 15 17  2  0  0  0
 16 29  1  0  0  0
 16 30  1  0  0  0
 18 31  1  0  0  0
 18 32  1  0  0  0
 18 33  1  0  0  0
 19 34  1  0  0  0
 19 35  1  0  0  0
 19 36  1  0  0  0
 20 21  2  0  0  0
 20 22  1  0  0  0
M  CHG  1  22  -1
M  END
> <s_m_source_file>
../1yly_ligand.sdf

> <i_m_source_file_index>
1

> <s_epik_input>
W09IXUIoW09IXSlbQ0gyXVtOSF1DKD1PKS9DKD1OXE9DKFtDSDNdKShbQ0gzXSlDKD1PKVtPSF0pYzFbY0hdc2MobjEpW05IMl0=

> <s_epik_cmdline>
J2VwaWtfYXBwJywgJy1pbWFlJywgJ2xpZ2FuZF9wcm8ubWFlJywgJy1vbWFlJywgJ2xpZ2FuZF9wcmVwLm1hZScsICctbXMnLCAnMScsICctcGgnLCAnNycsICctcGh0JywgJzAuNScsICctbnQn

> <r_lp_tautomer_probability>
1

> <r_epik_Ionization_Penalty>
  0.0019

> <r_epik_Ionization_Penalty_Charging>
  0.0001

> <r_epik_Ionization_Penalty_Neutral>
  0.0018

> <r_epik_State_Penalty>
 -0.0000

> <r_epik_Charging_Adjusted_Penalty>
0.000112559665214304

> <i_epik_Tot_Q>
-1

> <i_epik_Tot_abs_Q>
1

> <s_epik_Chemistry_Notes>
This compound has an imine and may undergo hydrolysis. This compound contains a Lewis acid (boronic acid) which adds nucleophiles to form tetrahedral complexes, lowering the experimental pKa

$$$$
