1ym2_ligand
                    3D
 Schrodinger Suite 2020-3.
108108  0  0  1  0            999 V2000
   23.3810    4.6810   15.7700 S   0  0  0  0  0  0
   24.9600    4.9150   16.6860 C   0  0  0  0  0  0
   25.9910    5.6220   15.7640 C   0  0  0  0  0  0
   27.4150    5.7000   16.4220 C   0  0  2  0  0  0
   27.4780    6.7790   17.4180 N   0  0  0  0  0  0
   27.1310    6.5280   18.7030 C   0  0  0  0  0  0
   26.7800    5.4270   19.1080 O   0  0  0  0  0  0
   27.1790    7.6970   19.6760 C   0  0  1  0  0  0
   26.1790    7.5510   20.7080 N   0  0  0  0  0  0
   24.8680    7.5610   20.3920 C   0  0  0  0  0  0
   24.4390    7.6980   19.2550 O   0  0  0  0  0  0
   23.9100    7.3900   21.5400 C   0  0  0  0  0  0
   28.5190    7.8050   20.4420 C   0  0  0  0  0  0
   29.6410    8.4160   19.5930 C   0  0  0  0  0  0
   30.8310    8.5620   20.5910 C   0  0  0  0  0  0
   29.2140    9.8830   19.3130 C   0  0  0  0  0  0
   28.4670    6.0320   15.3950 C   0  0  0  0  0  0
   28.1550    6.4810   14.2980 O   0  0  0  0  0  0
   29.7390    5.7980   15.7800 N   0  0  0  0  0  0
   30.8370    6.1230   14.8720 C   0  0  2  0  0  0
   31.5010    4.8840   14.2640 C   0  0  1  0  0  0
   32.0670    4.0320   15.3030 O   0  0  0  0  0  0
   30.5200    4.0810   13.3830 C   0  0  1  0  0  0
   31.3840    3.2000   12.4470 C   0  0  1  0  0  0
   30.5870    1.8890   12.2590 C   0  0  0  0  0  0
   29.5210    1.9490   13.3300 C   0  0  0  0  0  0
   29.5830    3.1620   14.2030 C   0  0  0  0  0  0
   28.6740    1.0780   13.4670 O   0  0  0  0  0  0
   31.4580    3.8830   11.0780 C   0  0  0  0  0  0
   30.5380    4.6030   10.7350 O   0  0  0  0  0  0
   32.5290    3.6720   10.3140 N   0  0  0  0  0  0
   32.5760    4.2890    9.0380 C   0  0  1  0  0  0
   34.0340    4.2140    8.4340 C   0  0  0  0  0  0
   33.9960    5.0520    7.1090 C   0  0  0  0  0  0
   34.5460    2.7390    8.2180 C   0  0  0  0  0  0
   31.5210    3.6820    8.1300 C   0  0  0  0  0  0
   31.2080    2.5080    8.2890 O   0  0  0  0  0  0
   30.9800    4.4940    7.1950 N   0  0  0  0  0  0
   29.9500    3.9520    6.3190 C   0  0  0  0  0  0
   28.5190    4.2160    6.8630 C   0  0  0  0  0  0
   27.9710    5.5210    6.2560 C   0  0  0  0  0  0
   26.5400    5.7640    6.7730 C   0  0  0  0  0  0
   31.8860    6.9520   15.6390 C   0  0  0  0  0  0
   31.2720    8.3250   16.0210 C   0  0  0  0  0  0
   32.2650    9.0920   16.9130 C   0  0  0  0  0  0
   31.0390    9.1470   14.7310 C   0  0  0  0  0  0
   22.7190    6.3320   16.0460 C   0  0  0  0  0  0
   24.7787    5.5340   17.5770 H   0  0  0  0  0  0
   25.3538    3.9352   16.9942 H   0  0  0  0  0  0
   26.0799    5.0657   14.8192 H   0  0  0  0  0  0
   25.6532    6.6478   15.5551 H   0  0  0  0  0  0
   27.6369    4.7429   16.9167 H   0  0  0  0  0  0
   27.8059    7.7854   17.1186 H   0  0  0  0  0  0
   26.9636    8.5875   19.0673 H   0  0  0  0  0  0
   26.4853    7.4309   21.7576 H   0  0  0  0  0  0
   24.4761    7.2821   22.4770 H   0  0  0  0  0  0
   23.2978    6.4910   21.3758 H   0  0  0  0  0  0
   23.2560    8.2720   21.6062 H   0  0  0  0  0  0
   28.3840    8.4415   21.3290 H   0  0  0  0  0  0
   28.8435    6.8021   20.7564 H   0  0  0  0  0  0
   29.8495    7.8341   18.6831 H   0  0  0  0  0  0
   31.2114    7.5646   20.8564 H   0  0  0  0  0  0
   30.4862    9.0767   21.4999 H   0  0  0  0  0  0
   31.6345    9.1476   20.1204 H   0  0  0  0  0  0
   28.3684    9.8908   18.6095 H   0  0  0  0  0  0
   30.0598   10.4340   18.8758 H   0  0  0  0  0  0
   28.9115   10.3630   20.2554 H   0  0  0  0  0  0
   29.9526    5.3660   16.7688 H   0  0  0  0  0  0
   30.3653    6.6867   14.0536 H   0  0  0  0  0  0
   32.3567    5.2139   13.6565 H   0  0  0  0  0  0
   32.7887    4.4470   16.0220 H   0  0  0  0  0  0
   29.8758    4.7884   12.8402 H   0  0  0  0  0  0
   32.3973    3.0385   12.8435 H   0  0  0  0  0  0
   30.1559    1.8639   11.2473 H   0  0  0  0  0  0
   31.2594    1.0287   12.3925 H   0  0  0  0  0  0
   30.0309    2.9673   15.1886 H   0  0  0  0  0  0
   28.6085    3.6551   14.3341 H   0  0  0  0  0  0
   33.3633    3.0385   10.6497 H   0  0  0  0  0  0
   32.2896    5.3340    9.2278 H   0  0  0  0  0  0
   34.7701    4.6344    9.1350 H   0  0  0  0  0  0
   33.6316    6.0667    7.3272 H   0  0  0  0  0  0
   33.3214    4.5673    6.3879 H   0  0  0  0  0  0
   35.0083    5.1097    6.6825 H   0  0  0  0  0  0
   34.5488    2.2072    9.1809 H   0  0  0  0  0  0
   35.5667    2.7615    7.8085 H   0  0  0  0  0  0
   33.8798    2.2191    7.5139 H   0  0  0  0  0  0
   31.2995    5.5409    7.0862 H   0  0  0  0  0  0
   30.0299    4.4192    5.3263 H   0  0  0  0  0  0
   30.0843    2.8644    6.2242 H   0  0  0  0  0  0
   27.8614    3.3787    6.5864 H   0  0  0  0  0  0
   28.5544    4.3080    7.9586 H   0  0  0  0  0  0
   28.6160    6.3618    6.5510 H   0  0  0  0  0  0
   27.9563    5.4374    5.1593 H   0  0  0  0  0  0
   26.1471    6.6959    6.3403 H   0  0  0  0  0  0
   26.5556    5.8470    7.8698 H   0  0  0  0  0  0
   25.8958    4.9226    6.4780 H   0  0  0  0  0  0
   32.1829    6.4139   16.5513 H   0  0  0  0  0  0
   32.7686    7.1071   15.0011 H   0  0  0  0  0  0
   30.3242    8.1760   16.5590 H   0  0  0  0  0  0
   32.4436    8.5222   17.8368 H   0  0  0  0  0  0
   31.8459   10.0773   17.1651 H   0  0  0  0  0  0
   33.2149    9.2245   16.3744 H   0  0  0  0  0  0
   30.3308    8.6141   14.0796 H   0  0  0  0  0  0
   31.9948    9.2792   14.2028 H   0  0  0  0  0  0
   30.6258   10.1321   14.9936 H   0  0  0  0  0  0
   21.7347    6.4179   15.5625 H   0  0  0  0  0  0
   23.4044    7.0782   15.6176 H   0  0  0  0  0  0
   22.6134    6.5088   17.1266 H   0  0  0  0  0  0
  1  2  1  0  0  0
  1 47  1  0  0  0
  2  3  1  0  0  0
  2 48  1  0  0  0
  2 49  1  0  0  0
  3  4  1  0  0  0
  3 50  1  0  0  0
  3 51  1  0  0  0
  4  5  1  0  0  0
  4 17  1  0  0  0
  4 52  1  0  0  0
  5  6  1  0  0  0
  5 53  1  0  0  0
  6  7  2  0  0  0
  6  8  1  0  0  0
  8  9  1  0  0  0
  8 13  1  0  0  0
  8 54  1  0  0  0
  9 10  1  0  0  0
  9 55  1  0  0  0
 10 11  2  0  0  0
 10 12  1  0  0  0
 12 56  1  0  0  0
 12 57  1  0  0  0
 12 58  1  0  0  0
 13 14  1  0  0  0
 13 59  1  0  0  0
 13 60  1  0  0  0
 14 15  1  0  0  0
 14 16  1  0  0  0
 14 61  1  0  0  0
 15 62  1  0  0  0
 15 63  1  0  0  0
 15 64  1  0  0  0
 16 65  1  0  0  0
 16 66  1  0  0  0
 16 67  1  0  0  0
 17 18  2  0  0  0
 17 19  1  0  0  0
 19 20  1  0  0  0
 19 68  1  0  0  0
 20 21  1  0  0  0
 20 43  1  0  0  0
 20 69  1  0  0  0
 21 22  1  0  0  0
 21 23  1  0  0  0
 21 70  1  0  0  0
 22 71  1  0  0  0
 23 24  1  0  0  0
 23 27  1  0  0  0
 23 72  1  0  0  0
 24 25  1  0  0  0
 24 29  1  0  0  0
 24 73  1  0  0  0
 25 26  1  0  0  0
 25 74  1  0  0  0
 25 75  1  0  0  0
 26 27  1  0  0  0
 26 28  2  0  0  0
 27 76  1  0  0  0
 27 77  1  0  0  0
 29 30  2  0  0  0
 29 31  1  0  0  0
 31 32  1  0  0  0
 31 78  1  0  0  0
 32 33  1  0  0  0
 32 36  1  0  0  0
 32 79  1  0  0  0
 33 34  1  0  0  0
 33 35  1  0  0  0
 33 80  1  0  0  0
 34 81  1  0  0  0
 34 82  1  0  0  0
 34 83  1  0  0  0
 35 84  1  0  0  0
 35 85  1  0  0  0
 35 86  1  0  0  0
 36 37  2  0  0  0
 36 38  1  0  0  0
 38 39  1  0  0  0
 38 87  1  0  0  0
 39 40  1  0  0  0
 39 88  1  0  0  0
 39 89  1  0  0  0
 40 41  1  0  0  0
 40 90  1  0  0  0
 40 91  1  0  0  0
 41 42  1  0  0  0
 41 92  1  0  0  0
 41 93  1  0  0  0
 42 94  1  0  0  0
 42 95  1  0  0  0
 42 96  1  0  0  0
 43 44  1  0  0  0
 43 97  1  0  0  0
 43 98  1  0  0  0
 44 45  1  0  0  0
 44 46  1  0  0  0
 44 99  1  0  0  0
 45100  1  0  0  0
 45101  1  0  0  0
 45102  1  0  0  0
 46103  1  0  0  0
 46104  1  0  0  0
 46105  1  0  0  0
 47106  1  0  0  0
 47107  1  0  0  0
 47108  1  0  0  0
M  END
> <s_m_source_file>
../1ym2_ligand.sdf

> <i_m_source_file_index>
1

> <s_epik_input>
Tz1DKFtDSDNdKVtOSF1bQ0BASF0oW0NIMl1bQ0hdKFtDSDNdKVtDSDNdKUMoPU8pW05IXVtDQEBIXShbQ0gyXVtDSDJdU1tDSDNdKUMoPU8pW05IXVtDQEBIXShbQ0gyXVtDSF0oW0NIM10pW0NIM10pW0NAQEhdKFtPSF0pW0NASF0xW0NAQEhdKFtDSDJdQyg9TylbQ0gyXTEpQyg9TylbTkhdW0NAQEhdKFtDSF0oW0NIM10pW0NIM10pQyg9TylbTkhdW0NIMl1bQ0gyXVtDSDJdW0NIM10=

> <s_epik_cmdline>
J2VwaWtfYXBwJywgJy1pbWFlJywgJ2xpZ2FuZF9wcm8ubWFlJywgJy1vbWFlJywgJ2xpZ2FuZF9wcmVwLm1hZScsICctbXMnLCAnMScsICctcGgnLCAnNycsICctcGh0JywgJzAuNScsICctbnQn

> <r_lp_tautomer_probability>
1

> <r_epik_Ionization_Penalty>
  0.0000

> <r_epik_Ionization_Penalty_Charging>
  0.0000

> <r_epik_Ionization_Penalty_Neutral>
  0.0000

> <r_epik_State_Penalty>
 -0.0000

> <r_epik_Charging_Adjusted_Penalty>
0

> <i_epik_Tot_Q>
0

> <i_epik_Tot_abs_Q>
0

$$$$
