1ym4_ligand
                    3D
 Schrodinger Suite 2020-3.
 94 94  0  0  1  0            999 V2000
   29.6060    5.9860    9.6350 N   0  0  0  0  0  0
   30.8690    5.2750    9.5090 C   0  0  2  0  0  0
   31.0950    4.6900    8.0950 C   0  0  1  0  0  0
   30.0880    3.7350    7.7430 O   0  0  0  0  0  0
   31.1390    5.7590    7.0240 C   0  0  1  0  0  0
   31.6750    5.0190    5.7560 C   0  0  1  0  0  0
   30.8200    5.4830    4.5820 C   0  0  0  0  0  0
   29.4500    5.8410    5.1840 C   0  0  0  0  0  0
   29.6890    6.1850    6.6820 C   0  0  0  0  0  0
   33.1460    5.2880    5.5360 C   0  0  0  0  0  0
   33.6080    6.3910    5.7780 O   0  0  0  0  0  0
   33.8920    4.2760    5.0780 N   0  0  0  0  0  0
   35.3010    4.5490    4.7890 C   0  0  1  0  0  0
   36.0640    3.2390    4.6360 C   0  0  0  0  0  0
   35.3840    5.3470    3.5120 C   0  0  0  0  0  0
   34.4110    5.9390    3.0530 O   0  0  0  0  0  0
   36.5680    5.3600    2.9060 O   0  5  0  0  0  0
   30.9510    4.1700   10.5950 C   0  0  0  0  0  0
   30.9280    4.8450   11.9800 C   0  0  0  0  0  0
   32.2860    5.5390   12.2340 C   0  0  0  0  0  0
   30.6670    3.8000   13.0910 C   0  0  0  0  0  0
   29.6310    7.3240    9.5400 C   0  0  0  0  0  0
   30.6230    7.9460    9.2110 O   0  0  0  0  0  0
   28.3660    8.0300    9.8640 C   0  0  1  0  0  0
   28.2800    8.0240   11.3100 N   0  0  0  0  0  0
   27.0800    7.9270   11.8590 C   0  0  0  0  0  0
   26.0420    7.9220   11.2030 O   0  0  0  0  0  0
   27.0250    7.8310   13.3520 C   0  0  1  0  0  0
   25.7800    8.4780   13.7920 N   0  0  0  0  0  0
   25.8880    9.4510   14.7140 C   0  0  0  0  0  0
   26.8800    9.5850   15.3980 O   0  0  0  0  0  0
   24.7510   10.3960   14.8910 C   0  0  1  0  0  0
   23.7960   10.2990   13.7810 N   0  3  0  0  0  0
   24.0610   10.2280   16.2640 C   0  0  0  0  0  0
   23.8780   11.6360   16.9010 C   0  0  0  0  0  0
   22.4280   11.9150   17.2990 C   0  0  0  0  0  0
   21.5990   11.0280   17.4280 O   0  0  0  0  0  0
   22.1170   13.2050   17.5090 O   0  5  0  0  0  0
   27.1550    6.3510   13.7810 C   0  0  0  0  0  0
   27.3540    6.2060   15.3270 C   0  0  0  0  0  0
   25.9300    5.5500   13.3400 C   0  0  0  0  0  0
   28.3530    9.5150    9.3320 C   0  0  0  0  0  0
   26.9420   10.1210    9.3510 C   0  0  0  0  0  0
   26.1120    9.7680    8.5270 O   0  0  0  0  0  0
   26.6630   11.0380   10.3100 N   0  0  0  0  0  0
   28.6740    5.4262    9.8022 H   0  0  0  0  0  0
   31.6289    6.0540    9.6697 H   0  0  0  0  0  0
   32.0433    4.1325    8.1022 H   0  0  0  0  0  0
   29.8963    2.8715    8.3969 H   0  0  0  0  0  0
   31.7355    6.6201    7.3596 H   0  0  0  0  0  0
   31.6156    3.9246    5.8496 H   0  0  0  0  0  0
   31.2907    6.3573    4.1086 H   0  0  0  0  0  0
   30.7345    4.6695    3.8465 H   0  0  0  0  0  0
   29.0287    6.7047    4.6488 H   0  0  0  0  0  0
   28.7704    4.9817    5.0857 H   0  0  0  0  0  0
   28.9844    5.6346    7.3227 H   0  0  0  0  0  0
   29.5739    7.2653    6.8541 H   0  0  0  0  0  0
   33.4829    3.2677    4.9169 H   0  0  0  0  0  0
   35.7152    5.1266    5.6285 H   0  0  0  0  0  0
   35.9976    2.6646    5.5718 H   0  0  0  0  0  0
   37.1193    3.4534    4.4114 H   0  0  0  0  0  0
   35.6259    2.6533    3.8144 H   0  0  0  0  0  0
   30.0913    3.4914   10.4932 H   0  0  0  0  0  0
   31.8840    3.6011   10.4695 H   0  0  0  0  0  0
   30.1170    5.5880   11.9945 H   0  0  0  0  0  0
   32.4715    6.2818   11.4442 H   0  0  0  0  0  0
   33.0890    4.7873   12.2263 H   0  0  0  0  0  0
   32.2636    6.0416   13.2122 H   0  0  0  0  0  0
   29.7008    3.3062   12.9103 H   0  0  0  0  0  0
   30.6446    4.3026   14.0692 H   0  0  0  0  0  0
   31.4701    3.0483   13.0833 H   0  0  0  0  0  0
   27.5212    7.4700    9.4365 H   0  0  0  0  0  0
   29.1952    8.0987   11.9157 H   0  0  0  0  0  0
   27.8382    8.3964   13.8307 H   0  0  0  0  0  0
   24.8157    8.1602   13.3688 H   0  0  0  0  0  0
   25.1759   11.4081   14.8191 H   0  0  0  0  0  0
   24.3289   10.4240   12.8269 H   0  0  0  0  0  0
   23.0352   11.0870   13.8820 H   0  0  0  0  0  0
   23.3081    9.3133   13.8022 H   0  0  0  0  0  0
   23.0807    9.7486   16.1255 H   0  0  0  0  0  0
   24.6874    9.6003   16.9148 H   0  0  0  0  0  0
   24.4982   11.7123   17.8063 H   0  0  0  0  0  0
   24.1855   12.4075   16.1798 H   0  0  0  0  0  0
   28.0370    5.9436   13.2652 H   0  0  0  0  0  0
   28.2364    6.7840   15.6389 H   0  0  0  0  0  0
   27.5021    5.1457   15.5798 H   0  0  0  0  0  0
   26.4633    6.5864   15.8486 H   0  0  0  0  0  0
   25.7948    5.6553   12.2534 H   0  0  0  0  0  0
   25.0375    5.9295   13.8590 H   0  0  0  0  0  0
   26.0763    4.4889   13.5902 H   0  0  0  0  0  0
   29.0024   10.1371    9.9655 H   0  0  0  0  0  0
   28.7220    9.5366    8.2959 H   0  0  0  0  0  0
   27.4379   11.3297   11.0341 H   0  0  0  0  0  0
   25.6617   11.4902   10.3639 H   0  0  0  0  0  0
  1  2  1  0  0  0
  1 22  1  0  0  0
  1 46  1  0  0  0
  2  3  1  0  0  0
  2 18  1  0  0  0
  2 47  1  0  0  0
  3  4  1  0  0  0
  3  5  1  0  0  0
  3 48  1  0  0  0
  4 49  1  0  0  0
  5  6  1  0  0  0
  5  9  1  0  0  0
  5 50  1  0  0  0
  6  7  1  0  0  0
  6 10  1  0  0  0
  6 51  1  0  0  0
  7  8  1  0  0  0
  7 52  1  0  0  0
  7 53  1  0  0  0
  8  9  1  0  0  0
  8 54  1  0  0  0
  8 55  1  0  0  0
  9 56  1  0  0  0
  9 57  1  0  0  0
 10 11  2  0  0  0
 10 12  1  0  0  0
 12 13  1  0  0  0
 12 58  1  0  0  0
 13 14  1  0  0  0
 13 15  1  0  0  0
 13 59  1  0  0  0
 14 60  1  0  0  0
 14 61  1  0  0  0
 14 62  1  0  0  0
 15 16  2  0  0  0
 15 17  1  0  0  0
 18 19  1  0  0  0
 18 63  1  0  0  0
 18 64  1  0  0  0
 19 20  1  0  0  0
 19 21  1  0  0  0
 19 65  1  0  0  0
 20 66  1  0  0  0
 20 67  1  0  0  0
 20 68  1  0  0  0
 21 69  1  0  0  0
 21 70  1  0  0  0
 21 71  1  0  0  0
 22 23  2  0  0  0
 22 24  1  0  0  0
 24 25  1  0  0  0
 24 42  1  0  0  0
 24 72  1  0  0  0
 25 26  1  0  0  0
 25 73  1  0  0  0
 26 27  2  0  0  0
 26 28  1  0  0  0
 28 29  1  0  0  0
 28 39  1  0  0  0
 28 74  1  0  0  0
 29 30  1  0  0  0
 29 75  1  0  0  0
 30 31  2  0  0  0
 30 32  1  0  0  0
 32 33  1  0  0  0
 32 34  1  0  0  0
 32 76  1  0  0  0
 33 77  1  0  0  0
 33 78  1  0  0  0
 33 79  1  0  0  0
 34 35  1  0  0  0
 34 80  1  0  0  0
 34 81  1  0  0  0
 35 36  1  0  0  0
 35 82  1  0  0  0
 35 83  1  0  0  0
 36 37  2  0  0  0
 36 38  1  0  0  0
 39 40  1  0  0  0
 39 41  1  0  0  0
 39 84  1  0  0  0
 40 85  1  0  0  0
 40 86  1  0  0  0
 40 87  1  0  0  0
 41 88  1  0  0  0
 41 89  1  0  0  0
 41 90  1  0  0  0
 42 43  1  0  0  0
 42 91  1  0  0  0
 42 92  1  0  0  0
 43 44  2  0  0  0
 43 45  1  0  0  0
 45 93  1  0  0  0
 45 94  1  0  0  0
M  CHG  3  17  -1  33   1  38  -1
M  END
> <s_m_source_file>
../1ym4_ligand.sdf

> <i_m_source_file_index>
1

> <s_epik_input>
Tz1DKFtPSF0pW0NASF0oW0NIM10pW05IXUMoPU8pW0NASF0oW0NIMl1bQ0gyXVtDSDJdMSlbQ0BASF0xW0NASF0oW09IXSlbQ0BIXShbQ0gyXVtDSF0oW0NIM10pW0NIM10pW05IXUMoPU8pW0NASF0oW0NIMl1DKD1PKVtOSDJdKVtOSF1DKD1PKVtDQEhdKFtDSF0oW0NIM10pW0NIM10pW05IXUMoPU8pW0NAQEhdKFtOSDMrXSlbQ0gyXVtDSDJdQyg9TylbT0hd

> <s_epik_cmdline>
J2VwaWtfYXBwJywgJy1pbWFlJywgJ2xpZ2FuZF9wcm8ubWFlJywgJy1vbWFlJywgJ2xpZ2FuZF9wcmVwLm1hZScsICctbXMnLCAnMScsICctcGgnLCAnNycsICctcGh0JywgJzAuNScsICctbnQn

> <r_epik_Ionization_Penalty>
  0.0745

> <r_epik_Ionization_Penalty_Charging>
  0.0745

> <r_epik_Ionization_Penalty_Neutral>
  0.0000

> <r_epik_State_Penalty>
  0.0644

> <r_epik_Charging_Adjusted_Penalty>
0.138948866959306

> <i_epik_Tot_Q>
-1

> <i_epik_Tot_abs_Q>
3

$$$$
