1yms_ligand
                    3D
 Schrodinger Suite 2020-3.
 36 37  0  0  1  0            999 V2000
   24.2730   51.5600   11.2940 C   0  0  0  0  0  0
   24.6560   51.9490   12.6010 C   0  0  0  0  0  0
   24.2020   53.3080   12.6650 O   0  0  0  0  0  0
   25.0850   54.3030   13.0100 C   0  0  0  0  0  0
   25.6710   55.0610   11.9830 C   0  0  0  0  0  0
   25.2130   54.8820   10.5180 C   0  0  0  0  0  0
   26.0290   54.5840    9.6460 O   0  0  0  0  0  0
   23.8930   55.0760   10.2540 N   0  0  0  0  0  0
   23.2930   54.9650    8.9450 C   0  0  0  0  0  0
   21.7420   55.2600    8.9420 B   0  0  0  0  0  0
   21.4180   56.3080    9.8600 O   0  0  0  0  0  0
   21.0190   54.0620    9.3020 O   0  0  0  0  0  0
   26.6250   56.1010   12.3780 C   0  0  0  0  0  0
   26.9310   56.3440   13.7960 C   0  0  0  0  0  0
   27.8540   57.3550   14.1550 C   0  0  0  0  0  0
   28.4930   58.1310   13.2250 C   0  0  0  0  0  0
   28.2420   57.9390   11.8320 C   0  0  0  0  0  0
   27.3290   56.9500   11.4190 C   0  0  0  0  0  0
   26.2820   55.5400   14.7620 C   0  0  0  0  0  0
   25.3930   54.5480   14.4140 C   0  0  0  0  0  0
   24.5720   50.5159   11.1198 H   0  0  0  0  0  0
   24.7677   52.2108   10.5580 H   0  0  0  0  0  0
   23.1818   51.6513   11.1893 H   0  0  0  0  0  0
   24.1613   51.2982   13.3370 H   0  0  0  0  0  0
   25.7472   51.8577   12.7058 H   0  0  0  0  0  0
   23.2712   55.3340   11.1240 H   0  0  0  0  0  0
   23.7683   55.6841    8.2616 H   0  0  0  0  0  0
   23.4368   53.9443    8.5611 H   0  0  0  0  0  0
   21.8757   57.3015    9.7443 H   0  0  0  0  0  0
   21.1418   53.1455    8.7062 H   0  0  0  0  0  0
   28.0642   57.5223   15.2114 H   0  0  0  0  0  0
   29.1960   58.8983   13.5491 H   0  0  0  0  0  0
   28.7545   58.5547   11.0928 H   0  0  0  0  0  0
   27.1419   56.8136   10.3539 H   0  0  0  0  0  0
   26.4928   55.7116   15.8176 H   0  0  0  0  0  0
   24.9190   53.9453   15.1887 H   0  0  0  0  0  0
  1  2  1  0  0  0
  1 21  1  0  0  0
  1 22  1  0  0  0
  1 23  1  0  0  0
  2  3  1  0  0  0
  2 24  1  0  0  0
  2 25  1  0  0  0
  3  4  1  0  0  0
  4  5  2  0  0  0
  4 20  1  0  0  0
  5  6  1  0  0  0
  5 13  1  0  0  0
  6  7  2  0  0  0
  6  8  1  0  0  0
  8  9  1  0  0  0
  8 26  1  0  0  0
  9 10  1  0  0  0
  9 27  1  0  0  0
  9 28  1  0  0  0
 10 11  1  0  0  0
 10 12  1  0  0  0
 11 29  1  0  0  0
 12 30  1  0  0  0
 13 14  2  0  0  0
 13 18  1  0  0  0
 14 15  1  0  0  0
 14 19  1  0  0  0
 15 16  2  0  0  0
 15 31  1  0  0  0
 16 17  1  0  0  0
 16 32  1  0  0  0
 17 18  2  0  0  0
 17 33  1  0  0  0
 18 34  1  0  0  0
 19 20  2  0  0  0
 19 35  1  0  0  0
 20 36  1  0  0  0
M  END
> <s_m_source_file>
../1yms_ligand.sdf

> <i_m_source_file_index>
1

> <s_epik_input>
W09IXUIoW09IXSlbQ0gyXVtOSF1DKD1PKWMxYyhPW0NIMl1bQ0gzXSlbY0hdW2NIXWMoYzEyKVtjSF1bY0hdW2NIXVtjSF0y

> <s_epik_cmdline>
J2VwaWtfYXBwJywgJy1pbWFlJywgJ2xpZ2FuZF9wcm8ubWFlJywgJy1vbWFlJywgJ2xpZ2FuZF9wcmVwLm1hZScsICctbXMnLCAnMScsICctcGgnLCAnNycsICctcGh0JywgJzAuNScsICctbnQn

> <r_lp_tautomer_probability>
1

> <r_epik_Ionization_Penalty>
  0.0000

> <r_epik_Ionization_Penalty_Charging>
  0.0000

> <r_epik_Ionization_Penalty_Neutral>
  0.0000

> <r_epik_State_Penalty>
 -0.0000

> <r_epik_Charging_Adjusted_Penalty>
0

> <i_epik_Tot_Q>
0

> <i_epik_Tot_abs_Q>
0

> <s_epik_Chemistry_Notes>
This compound contains a Lewis acid (boronic acid) which adds nucleophiles to form tetrahedral complexes, lowering the experimental pKa

$$$$
