1ymx_ligand
                    3D
 Schrodinger Suite 2020-3.
 41 42  0  0  1  0            999 V2000
   -8.7680   55.5470   37.6260 C   0  0  0  0  0  0
   -8.4310   56.2250   36.6850 O   0  0  0  0  0  0
   -8.1880   53.2340   36.5780 N   0  0  0  0  0  0
   -9.4210   53.1610   37.3380 C   0  0  2  0  0  0
  -10.5520   51.9220   36.6180 S   0  0  0  0  0  0
   -9.3570   50.5340   36.4610 C   0  0  0  0  0  0
   -8.0640   50.8610   36.0050 C   0  0  0  0  0  0
   -7.5200   52.1520   36.0850 C   0  0  0  0  0  0
   -7.3590   49.6600   35.4700 C   0  0  0  0  0  0
   -6.1120   52.5590   35.7360 C   0  0  0  0  0  0
   -5.3620   52.5550   36.7260 O   0  0  0  0  0  0
   -5.9670   52.8830   34.5290 O   0  5  0  0  0  0
  -10.0080   54.6040   37.3970 C   0  0  1  0  0  0
  -10.8840   54.6420   38.5550 O   0  0  0  0  0  0
  -11.3920   55.9210   38.9500 C   0  0  0  0  0  0
  -10.6720   54.9890   36.1330 N   0  0  0  0  0  0
  -11.9870   54.7640   35.8290 C   0  0  0  0  0  0
  -12.7650   54.1960   36.6150 O   0  0  0  0  0  0
  -12.4790   55.2350   34.4370 C   0  0  0  0  0  0
  -13.6150   56.2830   34.5180 C   0  0  0  0  0  0
  -14.5880   56.4960   35.9390 S   0  0  0  0  0  0
  -15.5060   57.7320   35.2280 C   0  0  0  0  0  0
  -15.1120   57.9940   33.9620 C   0  0  0  0  0  0
  -14.0220   57.1720   33.5220 C   0  0  0  0  0  0
   -8.2160   55.6105   38.5754 H   0  0  0  0  0  0
   -9.0716   52.9614   38.3618 H   0  0  0  0  0  0
   -9.2162   50.0585   37.4429 H   0  0  0  0  0  0
   -9.7471   49.7932   35.7475 H   0  0  0  0  0  0
   -8.0254   48.7869   35.5294 H   0  0  0  0  0  0
   -6.4533   49.4712   36.0650 H   0  0  0  0  0  0
   -7.0785   49.8365   34.4211 H   0  0  0  0  0  0
  -12.0362   55.8026   39.8338 H   0  0  0  0  0  0
  -11.9770   56.3538   38.1251 H   0  0  0  0  0  0
  -10.5531   56.5891   39.1946 H   0  0  0  0  0  0
  -10.0999   55.5002   35.3447 H   0  0  0  0  0  0
  -11.6425   55.6917   33.8877 H   0  0  0  0  0  0
  -12.8611   54.3721   33.8718 H   0  0  0  0  0  0
  -16.3187   58.2541   35.7330 H   0  0  0  0  0  0
  -15.5772   58.7557   33.3363 H   0  0  0  0  0  0
  -13.5681   57.2339   32.5330 H   0  0  0  0  0  0
   -7.7304   54.2113   36.3648 H   0  0  0  0  0  0
  1  2  2  0  0  0
  1 13  1  0  0  0
  1 25  1  0  0  0
  3  4  1  0  0  0
  3  8  1  0  0  0
  3 41  1  0  0  0
  4  5  1  0  0  0
  4 13  1  0  0  0
  4 26  1  0  0  0
  5  6  1  0  0  0
  6  7  1  0  0  0
  6 27  1  0  0  0
  6 28  1  0  0  0
  7  8  2  0  0  0
  7  9  1  0  0  0
  8 10  1  0  0  0
  9 29  1  0  0  0
  9 30  1  0  0  0
  9 31  1  0  0  0
 10 11  2  0  0  0
 10 12  1  0  0  0
 13 14  1  0  0  0
 13 16  1  0  0  0
 14 15  1  0  0  0
 15 32  1  0  0  0
 15 33  1  0  0  0
 15 34  1  0  0  0
 16 17  1  0  0  0
 16 35  1  0  0  0
 17 18  2  0  0  0
 17 19  1  0  0  0
 19 20  1  0  0  0
 19 36  1  0  0  0
 19 37  1  0  0  0
 20 21  1  0  0  0
 20 24  2  0  0  0
 21 22  1  0  0  0
 22 23  2  0  0  0
 22 38  1  0  0  0
 23 24  1  0  0  0
 23 39  1  0  0  0
 24 40  1  0  0  0
M  CHG  1  12  -1
M  END
> <s_m_source_file>
../1ymx_ligand.sdf

> <i_m_source_file_index>
1

> <s_epik_input>
UzFbQ0gyXUMoW0NIM10pPUMoQyg9TylbT0hdKVtOSF1bQ0BIXTFbQ0BdKFtDSF09TykoT1tDSDNdKVtOSF1DKD1PKVtDSDJdYzJzW2NIXVtjSF1bY0hdMg==

> <s_epik_cmdline>
J2VwaWtfYXBwJywgJy1pbWFlJywgJ2xpZ2FuZF9wcm8ubWFlJywgJy1vbWFlJywgJ2xpZ2FuZF9wcmVwLm1hZScsICctbXMnLCAnMScsICctcGgnLCAnNycsICctcGh0JywgJzAuNScsICctbnQn

> <r_epik_Ionization_Penalty>
  0.1604

> <r_epik_Ionization_Penalty_Charging>
  0.1604

> <r_epik_Ionization_Penalty_Neutral>
  0.0000

> <r_epik_State_Penalty>
  0.1497

> <r_epik_Charging_Adjusted_Penalty>
0.310082066708482

> <i_epik_Tot_Q>
-1

> <i_epik_Tot_abs_Q>
1

> <s_epik_Chemistry_Notes>
This compound has an imine and may undergo hydrolysis. This compound contains an acetal/aminal-like group ( X-CH(R)-Y where X, Y are N, S, or O) that may be acid/base labile, releasing an aldehyde.

$$$$
