1ynd_ligand
                    3D
 Schrodinger Suite 2020-3.
170174  0  0  1  0            999 V2000
   60.2030   49.1890   58.2510 O   0  0  0  0  0  0
   59.6520   48.9720   57.1610 C   0  0  0  0  0  0
   59.1570   50.1440   56.2550 C   0  0  1  0  0  0
   60.3470   50.8240   55.5700 C   0  0  0  0  0  0
   61.3150   51.5050   56.4900 C   0  0  0  0  0  0
   58.2120   49.6490   55.1530 C   0  0  0  0  0  0
   59.4860   47.7070   56.7620 N   0  0  0  0  0  0
   58.8040   47.2670   55.5280 C   0  0  1  0  0  0
   57.4300   46.9390   55.8330 O   0  0  0  0  0  0
   58.7500   48.4010   54.4820 C   0  0  1  0  0  0
   57.8040   48.0050   53.3260 C   0  0  0  0  0  0
   59.4600   45.9680   54.9560 C   0  0  1  0  0  0
   60.9320   46.2150   54.6180 C   0  0  0  0  0  0
   59.2940   44.7920   55.9650 C   0  0  1  0  0  0
   60.0360   45.0250   57.1780 O   0  0  0  0  0  0
   57.7840   44.6060   56.3180 C   0  0  1  0  0  0
   57.6190   43.4390   57.3350 C   0  0  0  0  0  0
   57.1920   45.9620   56.8100 C   0  0  2  0  0  0
   55.7210   45.7850   57.1450 C   0  0  0  0  0  0
   55.1830   47.0080   57.8950 C   0  0  2  0  0  0
   55.4680   46.8190   59.2870 O   0  0  0  0  0  0
   53.6580   47.1190   57.6910 C   0  0  1  0  0  0
   52.9520   45.8760   58.2200 C   0  0  0  0  0  0
   53.1220   48.3700   58.3910 C   0  0  0  0  0  0
   53.5040   49.6680   57.6810 C   0  0  0  0  0  0
   52.7510   49.7780   56.3270 C   0  0  0  0  0  0
   53.3550   49.9780   55.1550 C   0  0  0  0  0  0
   52.5980   50.0590   54.0200 C   0  0  0  0  0  0
   53.1460   50.2550   52.8110 C   0  0  0  0  0  0
   54.6390   50.4100   52.5360 C   0  0  0  0  0  0
   52.3520   50.3550   51.5230 C   0  0  1  0  0  0
   51.0530   49.7430   51.8120 O   0  0  0  0  0  0
   52.2420   51.8330   51.0540 C   0  0  0  0  0  0
   51.2930   52.0140   49.8710 C   0  0  0  0  0  0
   50.4510   53.0560   49.8020 C   0  0  0  0  0  0
   49.6210   53.1770   48.7510 C   0  0  0  0  0  0
   48.7590   54.2100   48.6400 C   0  0  0  0  0  0
   47.7870   54.3570   47.4400 C   0  0  2  0  0  0
   48.0280   55.5600   46.6810 O   0  0  0  0  0  0
   46.3420   54.3950   47.9370 C   0  0  2  0  0  0
   46.1200   53.1980   48.8990 C   0  0  0  0  0  0
   45.3770   54.3530   46.6820 C   0  0  1  0  0  0
   45.6540   53.2080   45.8550 O   0  0  0  0  0  0
   43.8540   54.4430   47.0690 C   0  0  1  0  0  0
   43.0610   54.7700   45.7990 C   0  0  0  0  0  0
   41.5600   54.9510   46.0710 C   0  0  0  0  0  0
   40.8020   55.1370   44.7720 C   0  0  0  0  0  0
   39.4160   54.5390   44.5610 C   0  0  0  0  0  0
   41.2400   55.7530   43.7950 O   0  0  0  0  0  0
   43.2890   53.1530   47.7300 C   0  0  0  0  0  0
   42.6020   53.2180   48.7620 O   0  0  0  0  0  0
   43.5810   51.9730   47.1640 N   0  0  0  0  0  0
   43.1720   50.7040   47.7780 C   0  0  1  0  0  0
   42.5650   49.7610   46.7190 C   0  0  0  0  0  0
   41.3310   50.4380   46.0910 C   0  0  0  0  0  0
   42.1700   48.4350   47.3550 C   0  0  0  0  0  0
   44.4950   50.1620   48.3260 C   0  0  0  0  0  0
   45.4120   49.8390   47.5910 O   0  0  0  0  0  0
   44.5370   50.1170   49.6430 N   0  0  0  0  0  0
   45.7280   49.8730   50.4350 C   0  0  1  0  0  0
   45.5600   50.8180   51.6320 C   0  0  0  0  0  0
   46.6050   50.6710   52.7010 C   0  0  0  0  0  0
   46.3830   49.8570   53.8150 C   0  0  0  0  0  0
   47.3300   49.7160   54.8020 C   0  0  0  0  0  0
   47.0580   48.8990   55.8700 O   0  0  0  0  0  0
   48.5250   50.4010   54.7030 C   0  0  0  0  0  0
   48.7520   51.2170   53.6210 C   0  0  0  0  0  0
   47.8100   51.3590   52.6200 C   0  0  0  0  0  0
   45.7840   48.4050   50.8730 C   0  0  0  0  0  0
   44.7760   47.8610   51.3050 O   0  0  0  0  0  0
   46.9490   47.7490   50.7360 N   0  0  0  0  0  0
   48.1210   48.3740   50.3430 N   0  3  0  0  0  0
   47.1050   46.3570   51.2070 C   0  0  0  0  0  0
   48.1410   46.3070   52.3240 C   0  0  0  0  0  0
   49.4200   47.0560   51.9730 C   0  0  0  0  0  0
   49.1490   48.4630   51.3910 C   0  0  1  0  0  0
   50.4250   49.0440   50.8620 C   0  0  0  0  0  0
   50.7990   48.8490   49.7250 O   0  0  0  0  0  0
   58.6200   50.8602   56.8943 H   0  0  0  0  0  0
   60.9249   50.0743   55.0097 H   0  0  0  0  0  0
   59.9796   51.5960   54.8779 H   0  0  0  0  0  0
   62.1255   51.9574   55.8997 H   0  0  0  0  0  0
   61.7376   50.7678   57.1885 H   0  0  0  0  0  0
   60.7922   52.2895   57.0568 H   0  0  0  0  0  0
   57.2302   49.4145   55.5900 H   0  0  0  0  0  0
   58.0959   50.4329   54.3901 H   0  0  0  0  0  0
   59.9139   46.9624   57.4493 H   0  0  0  0  0  0
   59.7572   48.5996   54.0869 H   0  0  0  0  0  0
   57.7705   48.8173   52.5850 H   0  0  0  0  0  0
   56.7934   47.8291   53.7231 H   0  0  0  0  0  0
   58.1747   47.0868   52.8470 H   0  0  0  0  0  0
   58.9671   45.6874   54.0135 H   0  0  0  0  0  0
   61.0096   47.0495   53.9055 H   0  0  0  0  0  0
   61.3622   45.3079   54.1685 H   0  0  0  0  0  0
   61.4822   46.4652   55.5371 H   0  0  0  0  0  0
   59.7437   43.8784   55.5489 H   0  0  0  0  0  0
   61.1241   45.1807   57.1358 H   0  0  0  0  0  0
   57.2046   44.3175   55.4286 H   0  0  0  0  0  0
   58.0597   42.5224   56.9159 H   0  0  0  0  0  0
   56.5497   43.2742   57.5336 H   0  0  0  0  0  0
   58.1310   43.6959   58.2741 H   0  0  0  0  0  0
   57.6898   46.3938   57.6907 H   0  0  0  0  0  0
   55.1461   45.6576   56.2159 H   0  0  0  0  0  0
   55.5939   44.8956   57.7797 H   0  0  0  0  0  0
   55.6838   47.9362   57.5825 H   0  0  0  0  0  0
   56.5095   46.7183   59.6265 H   0  0  0  0  0  0
   53.4454   47.1964   56.6145 H   0  0  0  0  0  0
   53.3462   44.9851   57.7092 H   0  0  0  0  0  0
   51.8717   45.9594   58.0305 H   0  0  0  0  0  0
   53.1287   45.7865   59.3020 H   0  0  0  0  0  0
   52.0237   48.3249   58.4322 H   0  0  0  0  0  0
   53.5255   48.4195   59.4131 H   0  0  0  0  0  0
   53.2340   50.5257   58.3147 H   0  0  0  0  0  0
   54.5878   49.6778   57.4929 H   0  0  0  0  0  0
   51.6562   49.6809   56.3720 H   0  0  0  0  0  0
   54.4497   50.0757   55.1100 H   0  0  0  0  0  0
   51.5072   49.9581   54.1196 H   0  0  0  0  0  0
   55.1958   50.3345   53.4817 H   0  0  0  0  0  0
   54.8273   51.3918   52.0770 H   0  0  0  0  0  0
   54.9701   49.6155   51.8511 H   0  0  0  0  0  0
   52.8089   49.7860   50.6999 H   0  0  0  0  0  0
   51.8669   52.4533   51.8814 H   0  0  0  0  0  0
   53.2339   52.1945   50.7452 H   0  0  0  0  0  0
   51.3102   51.2664   49.0643 H   0  0  0  0  0  0
   50.4407   53.8088   50.6040 H   0  0  0  0  0  0
   49.6576   52.4047   47.9686 H   0  0  0  0  0  0
   48.7286   54.9870   49.4181 H   0  0  0  0  0  0
   47.9618   53.5325   46.7331 H   0  0  0  0  0  0
   49.0150   55.7363   46.2284 H   0  0  0  0  0  0
   46.1557   55.3170   48.5074 H   0  0  0  0  0  0
   46.8135   53.2773   49.7491 H   0  0  0  0  0  0
   46.3051   52.2563   48.3614 H   0  0  0  0  0  0
   45.0840   53.2118   49.2684 H   0  0  0  0  0  0
   45.6094   55.1907   46.0080 H   0  0  0  0  0  0
   46.6796   53.0164   45.5066 H   0  0  0  0  0  0
   43.7296   55.2370   47.8200 H   0  0  0  0  0  0
   43.4402   55.7049   45.3605 H   0  0  0  0  0  0
   43.1767   53.9513   45.0735 H   0  0  0  0  0  0
   41.1709   54.0607   46.5866 H   0  0  0  0  0  0
   41.4063   55.8376   46.7037 H   0  0  0  0  0  0
   39.1019   54.0107   45.4732 H   0  0  0  0  0  0
   39.4463   53.8313   43.7194 H   0  0  0  0  0  0
   38.6996   55.3435   44.3381 H   0  0  0  0  0  0
   44.1408   51.9706   46.2171 H   0  0  0  0  0  0
   42.4013   50.8520   48.5487 H   0  0  0  0  0  0
   43.3113   49.5463   45.9399 H   0  0  0  0  0  0
   41.6293   51.3938   45.6354 H   0  0  0  0  0  0
   40.5776   50.6228   46.8709 H   0  0  0  0  0  0
   40.9055   49.7806   45.3185 H   0  0  0  0  0  0
   43.0584   47.9623   47.7991 H   0  0  0  0  0  0
   41.7471   47.7713   46.5865 H   0  0  0  0  0  0
   41.4192   48.6136   48.1388 H   0  0  0  0  0  0
   43.5701   50.2829   50.1405 H   0  0  0  0  0  0
   46.6370   50.0676   49.8469 H   0  0  0  0  0  0
   45.6055   51.8609   51.2850 H   0  0  0  0  0  0
   44.5874   50.6332   52.1114 H   0  0  0  0  0  0
   45.4377   49.3217   53.9036 H   0  0  0  0  0  0
   46.0978   48.3651   55.9235 H   0  0  0  0  0  0
   49.2836   50.2950   55.4785 H   0  0  0  0  0  0
   49.6930   51.7627   53.5509 H   0  0  0  0  0  0
   48.0115   52.0092   51.7687 H   0  0  0  0  0  0
   48.5682   47.8205   49.5041 H   0  0  0  0  0  0
   47.8990   49.4037   50.0261 H   0  0  0  0  0  0
   46.1407   45.9881   51.5866 H   0  0  0  0  0  0
   47.4373   45.7225   50.3722 H   0  0  0  0  0  0
   47.7222   46.7630   53.2332 H   0  0  0  0  0  0
   48.4090   45.2600   52.5289 H   0  0  0  0  0  0
   50.0331   47.1788   52.8780 H   0  0  0  0  0  0
   49.9852   46.4846   51.2220 H   0  0  0  0  0  0
   48.7547   49.1581   52.1469 H   0  0  0  0  0  0
  1  2  2  0  0  0
  2  3  1  0  0  0
  2  7  1  0  0  0
  3  4  1  0  0  0
  3  6  1  0  0  0
  3 79  1  0  0  0
  4  5  1  0  0  0
  4 80  1  0  0  0
  4 81  1  0  0  0
  5 82  1  0  0  0
  5 83  1  0  0  0
  5 84  1  0  0  0
  6 10  1  0  0  0
  6 85  1  0  0  0
  6 86  1  0  0  0
  7  8  1  0  0  0
  7 87  1  0  0  0
  8  9  1  0  0  0
  8 10  1  0  0  0
  8 12  1  0  0  0
  9 18  1  0  0  0
 10 11  1  0  0  0
 10 88  1  0  0  0
 11 89  1  0  0  0
 11 90  1  0  0  0
 11 91  1  0  0  0
 12 13  1  0  0  0
 12 14  1  0  0  0
 12 92  1  0  0  0
 13 93  1  0  0  0
 13 94  1  0  0  0
 13 95  1  0  0  0
 14 15  1  0  0  0
 14 16  1  0  0  0
 14 96  1  0  0  0
 15 97  1  0  0  0
 16 17  1  0  0  0
 16 18  1  0  0  0
 16 98  1  0  0  0
 17 99  1  0  0  0
 17100  1  0  0  0
 17101  1  0  0  0
 18 19  1  0  0  0
 18102  1  0  0  0
 19 20  1  0  0  0
 19103  1  0  0  0
 19104  1  0  0  0
 20 21  1  0  0  0
 20 22  1  0  0  0
 20105  1  0  0  0
 21106  1  0  0  0
 22 23  1  0  0  0
 22 24  1  0  0  0
 22107  1  0  0  0
 23108  1  0  0  0
 23109  1  0  0  0
 23110  1  0  0  0
 24 25  1  0  0  0
 24111  1  0  0  0
 24112  1  0  0  0
 25 26  1  0  0  0
 25113  1  0  0  0
 25114  1  0  0  0
 26 27  2  0  0  0
 26115  1  0  0  0
 27 28  1  0  0  0
 27116  1  0  0  0
 28 29  2  0  0  0
 28117  1  0  0  0
 29 30  1  0  0  0
 29 31  1  0  0  0
 30118  1  0  0  0
 30119  1  0  0  0
 30120  1  0  0  0
 31 32  1  0  0  0
 31 33  1  0  0  0
 31121  1  0  0  0
 32 77  1  0  0  0
 33 34  1  0  0  0
 33122  1  0  0  0
 33123  1  0  0  0
 34 35  2  0  0  0
 34124  1  0  0  0
 35 36  1  0  0  0
 35125  1  0  0  0
 36 37  2  0  0  0
 36126  1  0  0  0
 37 38  1  0  0  0
 37127  1  0  0  0
 38 39  1  0  0  0
 38 40  1  0  0  0
 38128  1  0  0  0
 39129  1  0  0  0
 40 41  1  0  0  0
 40 42  1  0  0  0
 40130  1  0  0  0
 41131  1  0  0  0
 41132  1  0  0  0
 41133  1  0  0  0
 42 43  1  0  0  0
 42 44  1  0  0  0
 42134  1  0  0  0
 43135  1  0  0  0
 44 45  1  0  0  0
 44 50  1  0  0  0
 44136  1  0  0  0
 45 46  1  0  0  0
 45137  1  0  0  0
 45138  1  0  0  0
 46 47  1  0  0  0
 46139  1  0  0  0
 46140  1  0  0  0
 47 48  1  0  0  0
 47 49  2  0  0  0
 48141  1  0  0  0
 48142  1  0  0  0
 48143  1  0  0  0
 50 51  2  0  0  0
 50 52  1  0  0  0
 52 53  1  0  0  0
 52144  1  0  0  0
 53 54  1  0  0  0
 53 57  1  0  0  0
 53145  1  0  0  0
 54 55  1  0  0  0
 54 56  1  0  0  0
 54146  1  0  0  0
 55147  1  0  0  0
 55148  1  0  0  0
 55149  1  0  0  0
 56150  1  0  0  0
 56151  1  0  0  0
 56152  1  0  0  0
 57 58  2  0  0  0
 57 59  1  0  0  0
 59 60  1  0  0  0
 59153  1  0  0  0
 60 61  1  0  0  0
 60 69  1  0  0  0
 60154  1  0  0  0
 61 62  1  0  0  0
 61155  1  0  0  0
 61156  1  0  0  0
 62 63  2  0  0  0
 62 68  1  0  0  0
 63 64  1  0  0  0
 63157  1  0  0  0
 64 65  1  0  0  0
 64 66  2  0  0  0
 65158  1  0  0  0
 66 67  1  0  0  0
 66159  1  0  0  0
 67 68  2  0  0  0
 67160  1  0  0  0
 68161  1  0  0  0
 69 70  2  0  0  0
 69 71  1  0  0  0
 71 72  1  0  0  0
 71 73  1  0  0  0
 72 76  1  0  0  0
 72162  1  0  0  0
 72163  1  0  0  0
 73 74  1  0  0  0
 73164  1  0  0  0
 73165  1  0  0  0
 74 75  1  0  0  0
 74166  1  0  0  0
 74167  1  0  0  0
 75 76  1  0  0  0
 75168  1  0  0  0
 75169  1  0  0  0
 76 77  1  0  0  0
 76170  1  0  0  0
 77 78  2  0  0  0
M  CHG  1  72   1
M  END
> <s_m_source_file>
../1ynd_ligand.sdf

> <i_m_source_file_index>
1

> <s_epik_input>
W0NIM11bQ0BIXTFbQ0gyXVtDQEhdKFtDSDJdW0NIM10pQyg9TylbTkhdW0NAQF0xMk9bQ0BIXShbQ0BIXShbQ0gzXSlbQ0BIXShbT0hdKVtDQEBIXTJbQ0gzXSlbQ0gyXVtDQEhdKFtPSF0pW0NAQEhdKFtDSDNdKVtDSDJdW0NIMl0vW0NIXT1bQ0hdL1tDSF09QyhcW0NIM10pW0NAQEhdKE9DKD1PKVtDQEBIXShbTkgyK10zKVtDSDJdW0NIMl1bQ0gyXTQpW0NIMl0vW0NIXT1bQ0hdL1tDSF09W0NIXS9bQ0BIXShbT0hdKVtDQEhdKFtDSDNdKVtDQEBIXShbT0hdKVtDQEBIXShbQ0gyXVtDSDJdQyg9TylbQ0gzXSlDKD1PKVtOSF1bQ0BASF0oW0NIXShbQ0gzXSlbQ0gzXSlDKD1PKVtOSF1bQ0BIXShDKD1PKU4zNClbQ0gyXWM1W2NIXWMoW09IXSlbY0hdW2NIXVtjSF01

> <s_epik_cmdline>
J2VwaWtfYXBwJywgJy1pbWFlJywgJ2xpZ2FuZF9wcm8ubWFlJywgJy1vbWFlJywgJ2xpZ2FuZF9wcmVwLm1hZScsICctbXMnLCAnMScsICctcGgnLCAnNycsICctcGh0JywgJzAuNScsICctbnQn

> <s_epik_pKa_notes>
Molecule size exceeds maximum supported for generating protonation states

> <s_epik_Chemistry_Notes>
This compound has an ester and may undergo hydrolysis at high or low pH.

$$$$
