1yon_ligand
                    3D
 Schrodinger Suite 2020-3.
 60 63  0  0  1  0            999 V2000
   20.0290    0.1890    8.2920 P   0  0  2  0  0  0
   21.1230    1.1800    8.1700 O   0  5  0  0  0  0
   19.8040   -0.9490    7.3830 O   0  0  0  0  0  0
   18.6890    0.9120    8.5990 O   0  0  0  0  0  0
   20.2770   -0.5870    9.6280 O   0  0  0  0  0  0
   19.8200   -1.9210    9.5530 C   0  0  0  0  0  0
   20.9020   -2.9240    9.8720 C   0  0  1  0  0  0
   22.2330   -2.4630   10.3750 O   0  0  0  0  0  0
   20.1300   -3.3540   11.0870 C   0  0  1  0  0  0
   20.5730   -4.6710   11.4580 O   0  0  0  0  0  0
   20.5530   -2.2270   12.0620 C   0  0  1  0  0  0
   20.4080   -2.6290   13.4280 O   0  0  0  0  0  0
   22.0260   -1.9100   11.7060 C   0  0  2  0  0  0
   22.3280   -0.4490   11.6890 O   0  0  0  0  0  0
   17.1960    0.4650    8.2290 P   0  0  1  0  0  0
   16.9920    0.4180    6.7790 O   0  0  0  0  0  0
   16.8740   -0.7520    9.0820 O   0  5  0  0  0  0
   16.4200    1.6470    8.8870 O   0  0  0  0  0  0
   16.6410    2.9860    8.4630 C   0  0  0  0  0  0
   15.6100    3.9410    9.1550 C   0  0  1  0  0  0
   14.3420    3.5330    8.6300 O   0  0  0  0  0  0
   15.5120    3.7830   10.6790 C   0  0  1  0  0  0
   14.9750    5.0030   11.2980 O   0  0  0  0  0  0
   14.5280    2.6630   10.8190 C   0  0  1  0  0  0
   13.9070    2.6790   12.1180 O   0  0  0  0  0  0
   13.5410    3.1890    9.7540 C   0  0  2  0  0  0
   12.5280    2.2000    9.4810 N   0  0  0  0  0  0
   11.2470    2.5090    9.3650 C   0  0  0  0  0  0
   10.5870    3.7060    9.4070 N   0  0  0  0  0  0
    9.2640    3.8080    9.2570 C   0  0  0  0  0  0
    8.5870    2.5910    9.0370 N   0  0  0  0  0  0
    9.2570    1.3240    8.9740 C   0  0  0  0  0  0
   10.6120    1.2950    9.1430 C   0  0  0  0  0  0
   11.5070    0.3080    9.1030 N   0  0  0  0  0  0
   12.6890    0.8780    9.3320 C   0  0  0  0  0  0
    8.6260    0.1640    8.7590 N   0  0  0  0  0  0
   14.6140    1.7960   13.3650 P   0  0  0  0  0  0
   13.5230    1.8510   14.5170 O   0  5  0  0  0  0
   14.6920    0.3550   12.8570 O   0  5  0  0  0  0
   15.9620    2.4270   13.6560 O   0  0  0  0  0  0
   19.0002   -2.0687   10.2714 H   0  0  0  0  0  0
   19.4573   -2.1277    8.5353 H   0  0  0  0  0  0
   21.2187   -3.5501    9.0248 H   0  0  0  0  0  0
   19.0450   -3.5130   11.0002 H   0  0  0  0  0  0
   20.3201   -5.5348   10.8256 H   0  0  0  0  0  0
   19.8950   -1.3458   12.0366 H   0  0  0  0  0  0
   19.4141   -2.8861   13.8231 H   0  0  0  0  0  0
   22.7310   -2.3422   12.4314 H   0  0  0  0  0  0
   23.3431   -0.1000   11.4489 H   0  0  0  0  0  0
   17.6610    3.2936    8.7366 H   0  0  0  0  0  0
   16.5191    3.0499    7.3716 H   0  0  0  0  0  0
   15.8421    4.9950    8.9423 H   0  0  0  0  0  0
   16.4687    3.6095   11.1933 H   0  0  0  0  0  0
   15.5665    5.9304   11.2892 H   0  0  0  0  0  0
   14.9141    1.6346   10.7608 H   0  0  0  0  0  0
   12.9502    4.0817   10.0071 H   0  0  0  0  0  0
    8.7440    4.7649    9.3015 H   0  0  0  0  0  0
   13.6409    0.3502    9.3894 H   0  0  0  0  0  0
    7.5351    0.1491    8.6185 H   0  0  0  0  0  0
    9.1981   -0.7748    8.7227 H   0  0  0  0  0  0
  1  2  1  0  0  0
  1  3  2  0  0  0
  1  4  1  0  0  0
  1  5  1  0  0  0
  4 15  1  0  0  0
  5  6  1  0  0  0
  6  7  1  0  0  0
  6 41  1  0  0  0
  6 42  1  0  0  0
  7  8  1  0  0  0
  7  9  1  0  0  0
  7 43  1  0  0  0
  8 13  1  0  0  0
  9 10  1  0  0  0
  9 11  1  0  0  0
  9 44  1  0  0  0
 10 45  1  0  0  0
 11 12  1  0  0  0
 11 13  1  0  0  0
 11 46  1  0  0  0
 12 47  1  0  0  0
 13 14  1  0  0  0
 13 48  1  0  0  0
 14 49  1  0  0  0
 15 16  2  0  0  0
 15 17  1  0  0  0
 15 18  1  0  0  0
 18 19  1  0  0  0
 19 20  1  0  0  0
 19 50  1  0  0  0
 19 51  1  0  0  0
 20 21  1  0  0  0
 20 22  1  0  0  0
 20 52  1  0  0  0
 21 26  1  0  0  0
 22 23  1  0  0  0
 22 24  1  0  0  0
 22 53  1  0  0  0
 23 54  1  0  0  0
 24 25  1  0  0  0
 24 26  1  0  0  0
 24 55  1  0  0  0
 25 37  1  0  0  0
 26 27  1  0  0  0
 26 56  1  0  0  0
 27 28  1  0  0  0
 27 35  1  0  0  0
 28 29  1  0  0  0
 28 33  2  0  0  0
 29 30  2  0  0  0
 30 31  1  0  0  0
 30 57  1  0  0  0
 31 32  2  0  0  0
 32 33  1  0  0  0
 32 36  1  0  0  0
 33 34  1  0  0  0
 34 35  2  0  0  0
 35 58  1  0  0  0
 36 59  1  0  0  0
 36 60  1  0  0  0
 37 38  1  0  0  0
 37 39  1  0  0  0
 37 40  2  0  0  0
M  CHG  4   2  -1  17  -1  38  -1  39  -1
M  END
> <s_m_source_file>
../1yon_ligand.sdf

> <i_m_source_file_index>
1

> <s_epik_input>
W09IXVtDQEhdMVtDQEBIXShbT0hdKVtDQEhdKFtPSF0pT1tDQEBIXTFbQ0gyXU9bUEBdKD1PKShbT0hdKU9bUEBAXSg9TykoW09IXSlPW0NIMl1bQ0BIXTJPW0NASF0oW0NAQEhdKFtDQEBIXTJbT0hdKU9QKD1PKShbT0hdKVtPSF0pbjNbY0hdbmMoYzM0KWMoW05IMl0pbltjSF1uNA==

> <s_epik_cmdline>
J2VwaWtfYXBwJywgJy1pbWFlJywgJ2xpZ2FuZF9wcm8ubWFlJywgJy1vbWFlJywgJ2xpZ2FuZF9wcmVwLm1hZScsICctbXMnLCAnMScsICctcGgnLCAnNycsICctcGh0JywgJzAuNScsICctbnQn

> <r_lp_tautomer_probability>
0.999997216410988

> <r_epik_Ionization_Penalty>
  0.0693

> <r_epik_Ionization_Penalty_Charging>
  0.0687

> <r_epik_Ionization_Penalty_Neutral>
  0.0006

> <r_epik_State_Penalty>
  0.0596

> <r_epik_Charging_Adjusted_Penalty>
0.128330887034151

> <i_epik_Tot_Q>
-4

> <i_epik_Tot_abs_Q>
4

> <s_epik_Chemistry_Notes>
This compound contains an acetal/aminal-like group ( X-CH(R)-Y where X, Y are N, S, or O) that may be acid/base labile, releasing an aldehyde.

$$$$
