1you_ligand
                    3D
 Schrodinger Suite 2020-3.
 47 49  0  0  1  0            999 V2000
   42.0890   29.5350   -7.3330 F   0  0  0  0  0  0
   41.7620   30.4600   -6.4300 C   0  0  0  0  0  0
   40.4110   30.7680   -6.2270 C   0  0  0  0  0  0
   40.0780   31.7620   -5.3140 C   0  0  0  0  0  0
   42.7860   31.1330   -5.7540 C   0  0  0  0  0  0
   42.4280   32.1030   -4.8230 C   0  0  0  0  0  0
   41.0830   32.4130   -4.6010 C   0  0  0  0  0  0
   40.7230   33.3360   -3.6880 O   0  0  0  0  0  0
   41.0600   34.6710   -3.6600 C   0  0  0  0  0  0
   41.4230   35.3780   -4.7970 C   0  0  0  0  0  0
   41.7400   36.7460   -4.6610 C   0  0  0  0  0  0
   41.0180   35.3380   -2.4230 C   0  0  0  0  0  0
   41.3460   36.6930   -2.2980 C   0  0  0  0  0  0
   41.7010   37.4090   -3.4300 C   0  0  0  0  0  0
   42.1240   38.7300   -3.3230 O   0  0  0  0  0  0
   43.3040   39.0440   -2.4320 C   0  0  2  0  0  0
   44.3030   40.1410   -2.8970 C   0  0  0  0  0  0
   44.9380   40.9890   -1.7550 C   0  0  0  0  0  0
   46.1660   40.4680   -1.1670 O   0  0  0  0  0  0
   46.1340   40.3520    0.2790 C   0  0  0  0  0  0
   47.4430   39.9030    0.9170 C   0  0  0  0  0  0
   44.2880   37.9490   -1.9870 C   0  0  0  0  0  0
   45.0570   37.4150   -2.7960 O   0  5  0  0  0  0
   44.4250   37.5400   -0.7020 N   0  0  0  0  0  0
   43.6440   38.0780    0.2460 C   0  0  0  0  0  0
   43.7870   37.6320    1.4920 O   0  0  0  0  0  0
   42.7430   39.0390   -0.0030 N   0  0  0  0  0  0
   42.5450   39.5380   -1.2450 C   0  0  0  0  0  0
   41.7030   40.4060   -1.5140 O   0  0  0  0  0  0
   39.6333   30.2370   -6.7759 H   0  0  0  0  0  0
   39.0337   32.0315   -5.1562 H   0  0  0  0  0  0
   43.8333   30.9040   -5.9511 H   0  0  0  0  0  0
   43.2027   32.6256   -4.2620 H   0  0  0  0  0  0
   41.4623   34.8892   -5.7704 H   0  0  0  0  0  0
   42.0265   37.3082   -5.5498 H   0  0  0  0  0  0
   40.7207   34.7825   -1.5335 H   0  0  0  0  0  0
   41.3225   37.1788   -1.3225 H   0  0  0  0  0  0
   45.1374   39.6713   -3.4384 H   0  0  0  0  0  0
   43.7867   40.8490   -3.5619 H   0  0  0  0  0  0
   45.1876   41.9899   -2.1369 H   0  0  0  0  0  0
   44.2219   41.0813   -0.9252 H   0  0  0  0  0  0
   45.8870   41.3291    0.7198 H   0  0  0  0  0  0
   45.3716   39.6148    0.5709 H   0  0  0  0  0  0
   47.3182   39.8457    2.0084 H   0  0  0  0  0  0
   48.2355   40.6268    0.6760 H   0  0  0  0  0  0
   47.7201   38.9124    0.5271 H   0  0  0  0  0  0
   42.1346   39.4484    0.8170 H   0  0  0  0  0  0
  1  2  1  0  0  0
  2  3  2  0  0  0
  2  5  1  0  0  0
  3  4  1  0  0  0
  3 30  1  0  0  0
  4  7  2  0  0  0
  4 31  1  0  0  0
  5  6  2  0  0  0
  5 32  1  0  0  0
  6  7  1  0  0  0
  6 33  1  0  0  0
  7  8  1  0  0  0
  8  9  1  0  0  0
  9 10  2  0  0  0
  9 12  1  0  0  0
 10 11  1  0  0  0
 10 34  1  0  0  0
 11 14  2  0  0  0
 11 35  1  0  0  0
 12 13  2  0  0  0
 12 36  1  0  0  0
 13 14  1  0  0  0
 13 37  1  0  0  0
 14 15  1  0  0  0
 15 16  1  0  0  0
 16 17  1  0  0  0
 16 22  1  0  0  0
 16 28  1  0  0  0
 17 18  1  0  0  0
 17 38  1  0  0  0
 17 39  1  0  0  0
 18 19  1  0  0  0
 18 40  1  0  0  0
 18 41  1  0  0  0
 19 20  1  0  0  0
 20 21  1  0  0  0
 20 42  1  0  0  0
 20 43  1  0  0  0
 21 44  1  0  0  0
 21 45  1  0  0  0
 21 46  1  0  0  0
 22 23  1  0  0  0
 22 24  2  0  0  0
 24 25  1  0  0  0
 25 26  2  0  0  0
 25 27  1  0  0  0
 27 28  1  0  0  0
 27 47  1  0  0  0
 28 29  2  0  0  0
M  CHG  1  23  -1
M  END
> <s_m_source_file>
../1you_ligand.sdf

> <i_m_source_file_index>
1

> <s_epik_input>
RmMxW2NIXVtjSF1jKFtjSF1bY0hdMSlPYzJbY0hdW2NIXWMoW2NIXVtjSF0yKU9DMyhbQ0gyXVtDSDJdT1tDSDJdW0NIM10pQyg9TylbTkhdQyg9TylbTkhdQzM9Tw==

> <s_epik_cmdline>
J2VwaWtfYXBwJywgJy1pbWFlJywgJ2xpZ2FuZF9wcm8ubWFlJywgJy1vbWFlJywgJ2xpZ2FuZF9wcmVwLm1hZScsICctbXMnLCAnMScsICctcGgnLCAnNycsICctcGh0JywgJzAuNScsICctbnQn

> <r_lp_tautomer_probability>
0.999999998624798

> <r_epik_Ionization_Penalty>
  0.1050

> <r_epik_Ionization_Penalty_Charging>
  0.1049

> <r_epik_Ionization_Penalty_Neutral>
  0.0000

> <r_epik_State_Penalty>
  0.0948

> <r_epik_Charging_Adjusted_Penalty>
0.199777473384354

> <i_epik_Tot_Q>
-1

> <i_epik_Tot_abs_Q>
1

$$$$
