1yp9_ligand
                    3D
 Schrodinger Suite 2020-3.
 59 64  0  0  1  0            999 V2000
   10.2660   67.3520    7.0210 N   0  3  0  0  0  0
   11.5340   67.0880    7.3440 C   0  0  0  0  0  0
   12.2450   66.3720    6.4320 N   0  0  0  0  0  0
   12.1500   67.5160    8.5580 C   0  0  0  0  0  0
   13.4910   67.1870    8.8330 C   0  0  0  0  0  0
   14.0840   67.5970   10.0220 C   0  0  0  0  0  0
   13.3420   68.3480   10.9540 C   0  0  0  0  0  0
   13.9750   68.8110   12.2350 C   0  0  1  0  0  0
   14.5120   70.2480   12.2890 C   0  0  1  0  0  0
   13.4690   71.3620   12.0890 C   0  0  0  0  0  0
   12.4110   71.3280   11.4200 O   0  0  0  0  0  0
   13.8060   72.3910   12.9460 N   0  0  0  0  0  0
   12.8550   73.5570   13.0540 C   0  0  0  0  0  0
   12.9640   74.6170   11.9690 C   0  0  0  0  0  0
   11.8090   75.0460   11.2380 C   0  0  0  0  0  0
   11.8990   76.0360   10.2370 C   0  0  0  0  0  0
   13.1670   76.5720    9.9760 C   0  0  0  0  0  0
   13.5140   77.5350    9.0580 O   0  0  0  0  0  0
   14.9590   77.7100    9.2040 C   0  0  0  0  0  0
   15.4590   76.8310   10.2460 O   0  0  0  0  0  0
   14.3110   76.1590   10.6770 C   0  0  0  0  0  0
   14.2180   75.1770   11.6820 C   0  0  0  0  0  0
   14.6940   71.9390   14.0070 C   0  0  0  0  0  0
   14.8060   70.3970   13.8090 C   0  0  1  0  0  0
   13.6540   69.5850   14.4710 C   0  0  2  0  0  0
   14.2710   68.6490   15.5370 C   0  0  0  0  0  0
   13.3140   67.4730   15.5160 C   0  0  0  0  0  0
   13.0060   67.2820   14.0030 C   0  0  0  0  0  0
   13.0800   68.6520   13.4240 N   0  3  2  0  0  0
   12.0070   68.6620   10.6850 C   0  0  0  0  0  0
   11.4080   68.2550    9.4850 C   0  0  0  0  0  0
    9.8548   66.9907    6.0669 H   0  0  0  0  0  0
   11.7673   66.0436    5.4972 H   0  0  0  0  0  0
   13.2977   66.1214    6.6292 H   0  0  0  0  0  0
   14.0669   66.6084    8.1107 H   0  0  0  0  0  0
   15.1216   67.3375   10.2324 H   0  0  0  0  0  0
   14.8242   68.1126   12.2676 H   0  0  0  0  0  0
   15.2923   70.3536   11.5209 H   0  0  0  0  0  0
   11.8188   73.1898   13.0155 H   0  0  0  0  0  0
   13.0234   74.0805   14.0067 H   0  0  0  0  0  0
   10.8404   74.5981   11.4599 H   0  0  0  0  0  0
   11.0181   76.3703    9.6890 H   0  0  0  0  0  0
   15.4558   77.4659    8.2534 H   0  0  0  0  0  0
   15.1765   78.7539    9.4739 H   0  0  0  0  0  0
   15.1056   74.8572   12.2279 H   0  0  0  0  0  0
   15.6709   72.4339   13.9032 H   0  0  0  0  0  0
   14.2567   72.1924   14.9840 H   0  0  0  0  0  0
   15.7640   70.0398   14.2148 H   0  0  0  0  0  0
   12.8898   70.2610   14.8822 H   0  0  0  0  0  0
   15.2942   68.3773   15.2383 H   0  0  0  0  0  0
   14.2974   69.1658   16.5077 H   0  0  0  0  0  0
   13.8047   66.5931   15.9576 H   0  0  0  0  0  0
   12.4144   67.7219   16.0981 H   0  0  0  0  0  0
   13.7551   66.6104   13.5583 H   0  0  0  0  0  0
   12.0042   66.8431   13.8853 H   0  0  0  0  0  0
   12.0488   68.8575   13.1010 H   0  0  0  0  0  0
   11.4271   69.2278   11.4141 H   0  0  0  0  0  0
   10.3699   68.5129    9.2755 H   0  0  0  0  0  0
    9.6323   67.9309    7.7090 H   0  0  0  0  0  0
  1  2  2  0  0  0
  1 32  1  0  0  0
  1 59  1  0  0  0
  2  3  1  0  0  0
  2  4  1  0  0  0
  3 33  1  0  0  0
  3 34  1  0  0  0
  4  5  2  0  0  0
  4 31  1  0  0  0
  5  6  1  0  0  0
  5 35  1  0  0  0
  6  7  2  0  0  0
  6 36  1  0  0  0
  7  8  1  0  0  0
  7 30  1  0  0  0
  8  9  1  0  0  0
  8 29  1  0  0  0
  8 37  1  0  0  0
  9 10  1  0  0  0
  9 24  1  0  0  0
  9 38  1  0  0  0
 10 11  2  0  0  0
 10 12  1  0  0  0
 12 13  1  0  0  0
 12 23  1  0  0  0
 13 14  1  0  0  0
 13 39  1  0  0  0
 13 40  1  0  0  0
 14 15  2  0  0  0
 14 22  1  0  0  0
 15 16  1  0  0  0
 15 41  1  0  0  0
 16 17  2  0  0  0
 16 42  1  0  0  0
 17 18  1  0  0  0
 17 21  1  0  0  0
 18 19  1  0  0  0
 19 20  1  0  0  0
 19 43  1  0  0  0
 19 44  1  0  0  0
 20 21  1  0  0  0
 21 22  2  0  0  0
 22 45  1  0  0  0
 23 24  1  0  0  0
 23 46  1  0  0  0
 23 47  1  0  0  0
 24 25  1  0  0  0
 24 48  1  0  0  0
 25 26  1  0  0  0
 25 29  1  0  0  0
 25 49  1  0  0  0
 26 27  1  0  0  0
 26 50  1  0  0  0
 26 51  1  0  0  0
 27 28  1  0  0  0
 27 52  1  0  0  0
 27 53  1  0  0  0
 28 29  1  0  0  0
 28 54  1  0  0  0
 28 55  1  0  0  0
 29 56  1  0  0  0
 30 31  2  0  0  0
 30 57  1  0  0  0
 31 58  1  0  0  0
M  CHG  2   1   1  29   1
M  END
> <s_m_source_file>
../1yp9_ligand.sdf

> <i_m_source_file_index>
1

> <s_epik_input>
W0hdL049QygvW05IMl0pYzFbY0hdW2NIXWMoW2NIXVtjSF0xKVtDQEBIXTJbTkBASCtdKFtDSDJdW0NIMl1bQ0gyXTMpW0NAQEhdM1tDQEBIXShbQ0BASF0yNClbQ0gyXU4oQzQ9TylbQ0gyXWMoW2NIXVtjSF01KVtjSF1jKGM1NilPW0NIMl1PNg==

> <s_epik_cmdline>
J2VwaWtfYXBwJywgJy1pbWFlJywgJ2xpZ2FuZF9wcm8ubWFlJywgJy1vbWFlJywgJ2xpZ2FuZF9wcmVwLm1hZScsICctbXMnLCAnMScsICctcGgnLCAnNycsICctcGh0JywgJzAuNScsICctbnQn

> <r_lp_tautomer_probability>
1

> <r_epik_Ionization_Penalty>
  0.0170

> <r_epik_Ionization_Penalty_Charging>
  0.0170

> <r_epik_Ionization_Penalty_Neutral>
  0.0000

> <r_epik_State_Penalty>
  0.0108

> <r_epik_Charging_Adjusted_Penalty>
0.0278404202564756

> <i_epik_Tot_Q>
2

> <i_epik_Tot_abs_Q>
2

> <s_epik_Chemistry_Notes>
This compound has an imine and may undergo hydrolysis. This compound contains an acetal/aminal-like group ( X-CH(R)-Y where X, Y are N, S, or O) that may be acid/base labile, releasing an aldehyde.

$$$$
