1ype_ligand
                    3D
 Schrodinger Suite 2020-3.
 65 70  0  0  1  0            999 V2000
   10.4780  -11.8790   24.1020 N   0  3  0  0  0  0
   11.2010  -10.8070   23.7380 C   0  0  0  0  0  0
   10.8160   -9.6400   24.3190 N   0  0  0  0  0  0
   12.2760  -10.9070   22.8150 C   0  0  0  0  0  0
   12.5950  -12.1660   22.2840 C   0  0  0  0  0  0
   13.6580  -12.3050   21.3750 C   0  0  0  0  0  0
   14.4080  -11.1940   20.9800 C   0  0  0  0  0  0
   14.0640   -9.9390   21.5120 C   0  0  0  0  0  0
   13.0340   -9.7900   22.4220 C   0  0  0  0  0  0
   15.5400  -11.3240   19.9990 C   0  0  2  0  0  0
   15.3840  -12.5390   19.1310 N   0  3  1  0  0  0
   14.3780  -12.4050   18.0400 C   0  0  0  0  0  0
   15.1810  -12.4830   16.7170 C   0  0  0  0  0  0
   16.5850  -12.0440   17.0900 C   0  0  0  0  0  0
   16.7410  -12.7050   18.4770 C   0  0  1  0  0  0
   17.7720  -11.8600   19.2980 C   0  0  2  0  0  0
   18.8750  -12.8050   19.8750 C   0  0  2  0  0  0
   18.3590  -13.2410   21.1420 N   0  0  0  0  0  0
   17.1700  -12.6420   21.4890 C   0  0  0  0  0  0
   16.6000  -12.7760   22.6030 O   0  0  0  0  0  0
   16.9660  -11.4190   20.5600 C   0  0  2  0  0  0
   18.8590  -14.4250   21.9280 C   0  0  0  0  0  0
   19.8900  -14.1260   22.9970 C   0  0  0  0  0  0
   19.4920  -13.6940   24.3040 C   0  0  0  0  0  0
   20.3820  -13.3700   25.3500 C   0  0  0  0  0  0
   21.7340  -13.4580   25.0110 C   0  0  0  0  0  0
   22.8270  -13.0620   25.7580 O   0  0  0  0  0  0
   23.9540  -13.7110   25.0730 C   0  0  0  0  0  0
   23.5520  -14.1020   23.7340 O   0  0  0  0  0  0
   22.1660  -13.8890   23.7400 C   0  0  0  0  0  0
   21.2620  -14.2250   22.7050 C   0  0  0  0  0  0
   20.2760  -12.1470   19.9730 C   0  0  0  0  0  0
   20.9020  -12.0300   18.5770 C   0  0  0  0  0  0
    9.6516  -11.7673   24.8194 H   0  0  0  0  0  0
    9.9741   -9.6295   25.0269 H   0  0  0  0  0  0
   11.3464   -8.7061   24.0813 H   0  0  0  0  0  0
   12.0153  -13.0410   22.5780 H   0  0  0  0  0  0
   13.8998  -13.2893   20.9741 H   0  0  0  0  0  0
   14.6251   -9.0588   21.1982 H   0  0  0  0  0  0
   12.8095   -8.8065   22.8348 H   0  0  0  0  0  0
   15.4289  -10.3737   19.4562 H   0  0  0  0  0  0
   15.0259  -13.3745   19.7504 H   0  0  0  0  0  0
   13.6468  -13.2236   18.1129 H   0  0  0  0  0  0
   13.8588  -11.4400   18.1364 H   0  0  0  0  0  0
   15.1636  -13.5155   16.3379 H   0  0  0  0  0  0
   14.7278  -11.8115   15.9729 H   0  0  0  0  0  0
   17.2978  -12.4202   16.3414 H   0  0  0  0  0  0
   16.6300  -10.9453   17.1194 H   0  0  0  0  0  0
   17.0453  -13.7606   18.4214 H   0  0  0  0  0  0
   18.2102  -11.0546   18.6902 H   0  0  0  0  0  0
   19.0433  -13.7059   19.2667 H   0  0  0  0  0  0
   17.2129  -10.4877   21.0907 H   0  0  0  0  0  0
   18.0148  -14.9053   22.4443 H   0  0  0  0  0  0
   19.3292  -15.1470   21.2442 H   0  0  0  0  0  0
   18.4240  -13.6095   24.5049 H   0  0  0  0  0  0
   20.0417  -13.0748   26.3426 H   0  0  0  0  0  0
   24.7984  -13.0088   25.0101 H   0  0  0  0  0  0
   24.2610  -14.6040   25.6373 H   0  0  0  0  0  0
   21.6134  -14.5464   21.7245 H   0  0  0  0  0  0
   20.1795  -11.1425   20.4108 H   0  0  0  0  0  0
   20.9270  -12.7637   20.6101 H   0  0  0  0  0  0
   21.8944  -11.5625   18.6582 H   0  0  0  0  0  0
   20.2564  -11.4112   17.9364 H   0  0  0  0  0  0
   21.0039  -13.0324   18.1357 H   0  0  0  0  0  0
   10.7123  -12.8686   23.6827 H   0  0  0  0  0  0
  1  2  2  0  0  0
  1 34  1  0  0  0
  1 65  1  0  0  0
  2  3  1  0  0  0
  2  4  1  0  0  0
  3 35  1  0  0  0
  3 36  1  0  0  0
  4  5  2  0  0  0
  4  9  1  0  0  0
  5  6  1  0  0  0
  5 37  1  0  0  0
  6  7  2  0  0  0
  6 38  1  0  0  0
  7  8  1  0  0  0
  7 10  1  0  0  0
  8  9  2  0  0  0
  8 39  1  0  0  0
  9 40  1  0  0  0
 10 11  1  0  0  0
 10 21  1  0  0  0
 10 41  1  0  0  0
 11 12  1  0  0  0
 11 15  1  0  0  0
 11 42  1  0  0  0
 12 13  1  0  0  0
 12 43  1  0  0  0
 12 44  1  0  0  0
 13 14  1  0  0  0
 13 45  1  0  0  0
 13 46  1  0  0  0
 14 15  1  0  0  0
 14 47  1  0  0  0
 14 48  1  0  0  0
 15 16  1  0  0  0
 15 49  1  0  0  0
 16 17  1  0  0  0
 16 21  1  0  0  0
 16 50  1  0  0  0
 17 18  1  0  0  0
 17 32  1  0  0  0
 17 51  1  0  0  0
 18 19  1  0  0  0
 18 22  1  0  0  0
 19 20  2  0  0  0
 19 21  1  0  0  0
 21 52  1  0  0  0
 22 23  1  0  0  0
 22 53  1  0  0  0
 22 54  1  0  0  0
 23 24  2  0  0  0
 23 31  1  0  0  0
 24 25  1  0  0  0
 24 55  1  0  0  0
 25 26  2  0  0  0
 25 56  1  0  0  0
 26 27  1  0  0  0
 26 30  1  0  0  0
 27 28  1  0  0  0
 28 29  1  0  0  0
 28 57  1  0  0  0
 28 58  1  0  0  0
 29 30  1  0  0  0
 30 31  2  0  0  0
 31 59  1  0  0  0
 32 33  1  0  0  0
 32 60  1  0  0  0
 32 61  1  0  0  0
 33 62  1  0  0  0
 33 63  1  0  0  0
 33 64  1  0  0  0
M  CHG  2   1   1  11   1
M  END
> <s_m_source_file>
../1ype_ligand.sdf

> <i_m_source_file_index>
1

> <s_epik_input>
W0hdL049QygvW05IMl0pYzFbY0hdW2NIXWMoW2NIXVtjSF0xKVtDQEhdMltDQEhdKFtDQEBIXTNbQ0BASF0oW05AQEgrXTI0KVtDSDJdW0NIMl1bQ0gyXTQpQyg9TylOKFtDQEBIXTNbQ0gyXVtDSDNdKVtDSDJdYyhbY0hdW2NIXTUpW2NIXWMoYzU2KU9bQ0gyXU82

> <s_epik_cmdline>
J2VwaWtfYXBwJywgJy1pbWFlJywgJ2xpZ2FuZF9wcm8ubWFlJywgJy1vbWFlJywgJ2xpZ2FuZF9wcmVwLm1hZScsICctbXMnLCAnMScsICctcGgnLCAnNycsICctcGh0JywgJzAuNScsICctbnQn

> <r_lp_tautomer_probability>
1

> <r_epik_Ionization_Penalty>
  0.0268

> <r_epik_Ionization_Penalty_Charging>
  0.0268

> <r_epik_Ionization_Penalty_Neutral>
  0.0000

> <r_epik_State_Penalty>
  0.0192

> <r_epik_Charging_Adjusted_Penalty>
0.046030831115547

> <i_epik_Tot_Q>
2

> <i_epik_Tot_abs_Q>
2

> <s_epik_Chemistry_Notes>
This compound has an imine and may undergo hydrolysis. This compound contains an acetal/aminal-like group ( X-CH(R)-Y where X, Y are N, S, or O) that may be acid/base labile, releasing an aldehyde.

$$$$
