1ypg_ligand
                    3D
 Schrodinger Suite 2020-3.
 66 72  0  0  1  0            999 V2000
   10.3920  -11.8420   24.2390 N   0  3  0  0  0  0
   11.1550  -10.8420   23.7920 C   0  0  0  0  0  0
   12.2240  -10.9460   22.8520 C   0  0  0  0  0  0
   12.5480  -12.1990   22.3090 C   0  0  0  0  0  0
   13.5860  -12.3050   21.3830 C   0  0  0  0  0  0
   14.3110  -11.1800   20.9780 C   0  0  0  0  0  0
   15.4670  -11.3170   20.0350 C   0  0  2  0  0  0
   15.3400  -12.5240   19.1570 N   0  3  1  0  0  0
   14.3840  -12.3600   18.0190 C   0  0  0  0  0  0
   15.2470  -12.4590   16.7320 C   0  0  0  0  0  0
   16.6180  -11.9890   17.1840 C   0  0  0  0  0  0
   16.7240  -12.6920   18.5650 C   0  0  1  0  0  0
   17.7200  -11.8570   19.4210 C   0  0  2  0  0  0
   20.3410  -12.8900   19.8910 C   0  0  0  0  0  0
   18.8290  -12.7630   20.0550 C   0  0  1  0  0  0
   21.1640  -12.3390   20.3800 C   0  0  0  0  0  0
   20.8360  -12.0190   18.7640 C   0  0  0  0  0  0
   18.2280  -13.2680   21.2590 N   0  0  0  0  0  0
   17.0320  -12.6620   21.5760 C   0  0  0  0  0  0
   16.4330  -12.7950   22.6740 O   0  0  0  0  0  0
   16.8800  -11.4280   20.6600 C   0  0  2  0  0  0
   18.7190  -14.4170   22.0850 C   0  0  0  0  0  0
   19.6590  -14.0670   23.2310 C   0  0  0  0  0  0
   21.0380  -14.2840   23.0270 C   0  0  0  0  0  0
   21.9160  -13.9620   24.0820 C   0  0  0  0  0  0
   23.3120  -14.1140   24.0690 O   0  0  0  0  0  0
   23.6860  -13.6450   25.3880 C   0  0  0  0  0  0
   22.5010  -13.2210   26.1480 O   0  0  0  0  0  0
   21.4410  -13.4380   25.3020 C   0  0  0  0  0  0
   20.0810  -13.2230   25.5570 C   0  0  0  0  0  0
   19.2140  -13.5370   24.4830 C   0  0  0  0  0  0
   13.9800   -9.9340   21.5300 C   0  0  0  0  0  0
   12.9500   -9.8170   22.4480 C   0  0  0  0  0  0
   10.8240   -9.6400   24.3340 N   0  0  0  0  0  0
   10.5599  -12.8666   23.8758 H   0  0  0  0  0  0
   11.9906  -13.0861   22.6097 H   0  0  0  0  0  0
   13.8361  -13.2814   20.9681 H   0  0  0  0  0  0
   15.3629  -10.3715   19.4826 H   0  0  0  0  0  0
   14.9524  -13.3641   19.7520 H   0  0  0  0  0  0
   13.6280  -13.1581   18.0573 H   0  0  0  0  0  0
   13.8880  -11.3811   18.0950 H   0  0  0  0  0  0
   15.2584  -13.5002   16.3774 H   0  0  0  0  0  0
   14.8192  -11.8110   15.9529 H   0  0  0  0  0  0
   17.3766  -12.3216   16.4602 H   0  0  0  0  0  0
   16.6271  -10.8908   17.2461 H   0  0  0  0  0  0
   17.0297  -13.7478   18.5235 H   0  0  0  0  0  0
   18.1613  -11.0606   18.8037 H   0  0  0  0  0  0
   20.4718  -13.9344   20.2106 H   0  0  0  0  0  0
   19.2413  -13.3335   19.2097 H   0  0  0  0  0  0
   20.7666  -11.7647   21.2298 H   0  0  0  0  0  0
   21.9194  -13.0525   20.7409 H   0  0  0  0  0  0
   21.1733  -12.6535   17.9312 H   0  0  0  0  0  0
   20.0206  -11.3657   18.4202 H   0  0  0  0  0  0
   17.1281  -10.5135   21.2186 H   0  0  0  0  0  0
   17.8616  -14.9327   22.5421 H   0  0  0  0  0  0
   19.2706  -15.1203   21.4438 H   0  0  0  0  0  0
   21.4119  -14.6869   22.0857 H   0  0  0  0  0  0
   24.1873  -14.4558   25.9369 H   0  0  0  0  0  0
   24.3703  -12.7891   25.2925 H   0  0  0  0  0  0
   19.7171  -12.8423   26.5113 H   0  0  0  0  0  0
   18.1461  -13.3651   24.6177 H   0  0  0  0  0  0
   14.5401   -9.0473   21.2329 H   0  0  0  0  0  0
   12.7017   -8.8389   22.8599 H   0  0  0  0  0  0
    9.9983   -9.5716   25.0575 H   0  0  0  0  0  0
   11.3819   -8.7358   24.0490 H   0  0  0  0  0  0
    9.5954  -11.6414   24.9705 H   0  0  0  0  0  0
  1  2  2  0  0  0
  1 35  1  0  0  0
  1 66  1  0  0  0
  2  3  1  0  0  0
  2 34  1  0  0  0
  3  4  2  0  0  0
  3 33  1  0  0  0
  4  5  1  0  0  0
  4 36  1  0  0  0
  5  6  2  0  0  0
  5 37  1  0  0  0
  6  7  1  0  0  0
  6 32  1  0  0  0
  7  8  1  0  0  0
  7 21  1  0  0  0
  7 38  1  0  0  0
  8  9  1  0  0  0
  8 12  1  0  0  0
  8 39  1  0  0  0
  9 10  1  0  0  0
  9 40  1  0  0  0
  9 41  1  0  0  0
 10 11  1  0  0  0
 10 42  1  0  0  0
 10 43  1  0  0  0
 11 12  1  0  0  0
 11 44  1  0  0  0
 11 45  1  0  0  0
 12 13  1  0  0  0
 12 46  1  0  0  0
 13 15  1  0  0  0
 13 21  1  0  0  0
 13 47  1  0  0  0
 14 15  1  0  0  0
 14 16  1  0  0  0
 14 17  1  0  0  0
 14 48  1  0  0  0
 15 18  1  0  0  0
 15 49  1  0  0  0
 16 17  1  0  0  0
 16 50  1  0  0  0
 16 51  1  0  0  0
 17 52  1  0  0  0
 17 53  1  0  0  0
 18 19  1  0  0  0
 18 22  1  0  0  0
 19 20  2  0  0  0
 19 21  1  0  0  0
 21 54  1  0  0  0
 22 23  1  0  0  0
 22 55  1  0  0  0
 22 56  1  0  0  0
 23 24  2  0  0  0
 23 31  1  0  0  0
 24 25  1  0  0  0
 24 57  1  0  0  0
 25 26  1  0  0  0
 25 29  2  0  0  0
 26 27  1  0  0  0
 27 28  1  0  0  0
 27 58  1  0  0  0
 27 59  1  0  0  0
 28 29  1  0  0  0
 29 30  1  0  0  0
 30 31  2  0  0  0
 30 60  1  0  0  0
 31 61  1  0  0  0
 32 33  2  0  0  0
 32 62  1  0  0  0
 33 63  1  0  0  0
 34 64  1  0  0  0
 34 65  1  0  0  0
M  CHG  2   1   1   8   1
M  END
> <s_m_source_file>
../1ypg_ligand.sdf

> <i_m_source_file_index>
1

> <s_epik_input>
W0hdL049QyhbTkgyXSkvYzFbY0hdW2NIXWMoW2NIXVtjSF0xKVtDQEhdMltDQEhdKFtDQEBIXTNbQ0BASF0oW05AQEgrXTI0KVtDSDJdW0NIMl1bQ0gyXTQpQyg9TylOKFtDQEBIXTNbQ0hdNVtDSDJdW0NIMl01KVtDSDJdYyhbY0hdNilbY0hdW2NIXWMoYzY3KU9bQ0gyXU83

> <s_epik_cmdline>
J2VwaWtfYXBwJywgJy1pbWFlJywgJ2xpZ2FuZF9wcm8ubWFlJywgJy1vbWFlJywgJ2xpZ2FuZF9wcmVwLm1hZScsICctbXMnLCAnMScsICctcGgnLCAnNycsICctcGh0JywgJzAuNScsICctbnQn

> <r_lp_tautomer_probability>
1

> <r_epik_Ionization_Penalty>
  0.0256

> <r_epik_Ionization_Penalty_Charging>
  0.0256

> <r_epik_Ionization_Penalty_Neutral>
  0.0000

> <r_epik_State_Penalty>
  0.0182

> <r_epik_Charging_Adjusted_Penalty>
0.0438025269773826

> <i_epik_Tot_Q>
2

> <i_epik_Tot_abs_Q>
2

> <s_epik_Chemistry_Notes>
This compound has an imine and may undergo hydrolysis. This compound contains an acetal/aminal-like group ( X-CH(R)-Y where X, Y are N, S, or O) that may be acid/base labile, releasing an aldehyde.

$$$$
