1ypj_ligand
                    3D
 Schrodinger Suite 2020-3.
 67 71  0  0  1  0            999 V2000
   10.7290  -11.8010   24.3240 N   0  3  0  0  0  0
   11.4620  -10.7700   23.8820 C   0  0  0  0  0  0
   11.0720   -9.5970   24.4620 N   0  0  0  0  0  0
   12.5100  -10.9090   22.9150 C   0  0  0  0  0  0
   13.2720   -9.8170   22.4530 C   0  0  0  0  0  0
   14.2890   -9.9680   21.5290 C   0  0  0  0  0  0
   14.6190  -11.2340   20.9920 C   0  0  0  0  0  0
   15.6990  -11.3800   19.9560 C   0  0  1  0  0  0
   17.1830  -11.5280   20.3580 C   0  0  2  0  0  0
   17.8840  -12.0380   19.0830 C   0  0  2  0  0  0
   16.7300  -12.6320   18.2390 C   0  0  0  0  0  0
   16.9380  -14.1140   17.8350 C   0  0  0  0  0  0
   16.7210  -11.7930   16.9430 C   0  0  0  0  0  0
   15.4930  -12.4940   19.0230 N   0  3  2  0  0  0
   14.2700  -12.3660   18.2020 C   0  0  0  0  0  0
   18.9360  -13.0570   19.5920 C   0  0  2  0  0  0
   18.5190  -13.3720   20.9510 N   0  0  0  0  0  0
   19.0410  -14.5060   21.7870 C   0  0  0  0  0  0
   20.0430  -14.0770   22.8530 C   0  0  0  0  0  0
   19.5990  -13.6360   24.1380 C   0  0  0  0  0  0
   20.4930  -13.3270   25.1870 C   0  0  0  0  0  0
   21.8550  -13.4770   24.8710 C   0  0  0  0  0  0
   22.3080  -13.9030   23.6100 C   0  0  0  0  0  0
   21.4120  -14.2160   22.5680 C   0  0  0  0  0  0
   23.7000  -13.9730   23.5350 O   0  0  0  0  0  0
   24.1030  -13.5500   24.8690 C   0  0  0  0  0  0
   22.9300  -13.2350   25.6950 O   0  0  0  0  0  0
   17.4350  -12.6540   21.3730 C   0  0  0  0  0  0
   16.8700  -12.7620   22.4930 O   0  0  0  0  0  0
   20.3330  -12.4110   19.6630 C   0  0  0  0  0  0
   20.8750  -12.2520   18.2290 C   0  0  0  0  0  0
   13.8890  -12.3290   21.4710 C   0  0  0  0  0  0
   12.8400  -12.1640   22.3880 C   0  0  0  0  0  0
    9.9365  -11.6334   25.0682 H   0  0  0  0  0  0
   10.2535   -9.5923   25.1969 H   0  0  0  0  0  0
   11.5763   -8.6568   24.1944 H   0  0  0  0  0  0
   13.0522   -8.8208   22.8369 H   0  0  0  0  0  0
   14.8498   -9.0906   21.2067 H   0  0  0  0  0  0
   15.5235  -10.3907   19.5083 H   0  0  0  0  0  0
   17.5240  -10.5725   20.7831 H   0  0  0  0  0  0
   18.4171  -11.3057   18.4589 H   0  0  0  0  0  0
   17.8645  -14.2079   17.2496 H   0  0  0  0  0  0
   16.0850  -14.4518   17.2282 H   0  0  0  0  0  0
   17.0121  -14.7340   18.7406 H   0  0  0  0  0  0
   17.6692  -11.9393   16.4049 H   0  0  0  0  0  0
   16.6033  -10.7290   17.1959 H   0  0  0  0  0  0
   15.8841  -12.1130   16.3049 H   0  0  0  0  0  0
   15.3084  -13.4203   19.5868 H   0  0  0  0  0  0
   13.3947  -12.2678   18.8609 H   0  0  0  0  0  0
   14.1561  -13.2604   17.5719 H   0  0  0  0  0  0
   14.3494  -11.4746   17.5624 H   0  0  0  0  0  0
   18.9844  -13.9648   18.9727 H   0  0  0  0  0  0
   18.2032  -14.9951   22.3056 H   0  0  0  0  0  0
   19.5476  -15.2363   21.1390 H   0  0  0  0  0  0
   18.5284  -13.5341   24.3154 H   0  0  0  0  0  0
   20.1525  -12.9968   26.1684 H   0  0  0  0  0  0
   21.7630  -14.5488   21.5912 H   0  0  0  0  0  0
   24.6706  -14.3579   25.3540 H   0  0  0  0  0  0
   24.7343  -12.6523   24.7940 H   0  0  0  0  0  0
   20.2572  -11.4256   20.1460 H   0  0  0  0  0  0
   21.0056  -13.0553   20.2482 H   0  0  0  0  0  0
   21.8733  -11.7914   18.2633 H   0  0  0  0  0  0
   20.1950  -11.6107   17.6490 H   0  0  0  0  0  0
   20.9435  -13.2405   17.7512 H   0  0  0  0  0  0
   14.1412  -13.3310   21.1239 H   0  0  0  0  0  0
   12.2659  -13.0368   22.6989 H   0  0  0  0  0  0
   10.9198  -12.8150   23.9426 H   0  0  0  0  0  0
  1  2  2  0  0  0
  1 34  1  0  0  0
  1 67  1  0  0  0
  2  3  1  0  0  0
  2  4  1  0  0  0
  3 35  1  0  0  0
  3 36  1  0  0  0
  4  5  2  0  0  0
  4 33  1  0  0  0
  5  6  1  0  0  0
  5 37  1  0  0  0
  6  7  2  0  0  0
  6 38  1  0  0  0
  7  8  1  0  0  0
  7 32  1  0  0  0
  8  9  1  0  0  0
  8 14  1  0  0  0
  8 39  1  0  0  0
  9 10  1  0  0  0
  9 28  1  0  0  0
  9 40  1  0  0  0
 10 11  1  0  0  0
 10 16  1  0  0  0
 10 41  1  0  0  0
 11 12  1  0  0  0
 11 13  1  0  0  0
 11 14  1  0  0  0
 12 42  1  0  0  0
 12 43  1  0  0  0
 12 44  1  0  0  0
 13 45  1  0  0  0
 13 46  1  0  0  0
 13 47  1  0  0  0
 14 15  1  0  0  0
 14 48  1  0  0  0
 15 49  1  0  0  0
 15 50  1  0  0  0
 15 51  1  0  0  0
 16 17  1  0  0  0
 16 30  1  0  0  0
 16 52  1  0  0  0
 17 18  1  0  0  0
 17 28  1  0  0  0
 18 19  1  0  0  0
 18 53  1  0  0  0
 18 54  1  0  0  0
 19 20  2  0  0  0
 19 24  1  0  0  0
 20 21  1  0  0  0
 20 55  1  0  0  0
 21 22  2  0  0  0
 21 56  1  0  0  0
 22 23  1  0  0  0
 22 27  1  0  0  0
 23 24  2  0  0  0
 23 25  1  0  0  0
 24 57  1  0  0  0
 25 26  1  0  0  0
 26 27  1  0  0  0
 26 58  1  0  0  0
 26 59  1  0  0  0
 28 29  2  0  0  0
 30 31  1  0  0  0
 30 60  1  0  0  0
 30 61  1  0  0  0
 31 62  1  0  0  0
 31 63  1  0  0  0
 31 64  1  0  0  0
 32 33  2  0  0  0
 32 65  1  0  0  0
 33 66  1  0  0  0
M  CHG  2   1   1  14   1
M  END
> <s_m_source_file>
../1ypj_ligand.sdf

> <i_m_source_file_index>
1

> <s_epik_input>
W0hdL049QygvW05IMl0pYzFbY0hdW2NIXWMoW2NIXVtjSF0xKVtDQEBIXTJbTkBASCtdKFtDSDNdKUMoW0NIM10pKFtDSDNdKVtDQEBIXShbQ0BASF0yMylbQ0BASF0oW0NIMl1bQ0gzXSlOKEMzPU8pW0NIMl1jKFtjSF1bY0hdNClbY0hdYyhjNDUpT1tDSDJdTzU=

> <s_epik_cmdline>
J2VwaWtfYXBwJywgJy1pbWFlJywgJ2xpZ2FuZF9wcm8ubWFlJywgJy1vbWFlJywgJ2xpZ2FuZF9wcmVwLm1hZScsICctbXMnLCAnMScsICctcGgnLCAnNycsICctcGh0JywgJzAuNScsICctbnQn

> <r_lp_tautomer_probability>
1

> <r_epik_Ionization_Penalty>
  0.0257

> <r_epik_Ionization_Penalty_Charging>
  0.0257

> <r_epik_Ionization_Penalty_Neutral>
  0.0000

> <r_epik_State_Penalty>
  0.0182

> <r_epik_Charging_Adjusted_Penalty>
0.0438641265679492

> <i_epik_Tot_Q>
2

> <i_epik_Tot_abs_Q>
2

> <s_epik_Chemistry_Notes>
This compound has an imine and may undergo hydrolysis. This compound contains an acetal/aminal-like group ( X-CH(R)-Y where X, Y are N, S, or O) that may be acid/base labile, releasing an aldehyde.

$$$$
