1yq7_ligand
                    3D
 Schrodinger Suite 2020-3.
 25 25  0  0  1  0            999 V2000
   17.1130   35.6480   -7.1730 O   0  5  0  0  0  0
   15.6220   35.7510   -7.5440 P   0  0  0  0  0  0
   15.2410   36.8680   -8.4700 O   0  5  0  0  0  0
   14.6530   35.7080   -6.4380 O   0  0  0  0  0  0
   15.2300   34.2510   -8.5000 C   0  0  1  0  0  0
   13.9550   34.4130   -9.0880 O   0  0  0  0  0  0
   16.4390   34.0860   -9.8350 P   0  0  0  0  0  0
   16.5730   35.4550  -10.3770 O   0  5  0  0  0  0
   17.6320   33.7370   -9.0970 O   0  0  0  0  0  0
   16.2430   33.1400  -11.0180 O   0  0  0  0  0  0
   15.1780   33.1050   -7.4750 C   0  0  0  0  0  0
   15.0330   31.7070   -8.0640 C   0  0  0  0  0  0
   15.6350   30.6600   -7.3810 C   0  0  0  0  0  0
   15.5210   29.3720   -7.8830 C   0  0  0  0  0  0
   14.7750   29.1440   -8.9990 C   0  0  0  0  0  0
   14.1900   30.1470   -9.6420 N   0  0  0  0  0  0
   14.2860   31.4040   -9.1910 C   0  0  0  0  0  0
   13.7955   35.1899   -9.8502 H   0  0  0  0  0  0
   15.3785   33.2668  -11.6863 H   0  0  0  0  0  0
   16.1060   33.0990   -6.8844 H   0  0  0  0  0  0
   14.3179   33.2510   -6.8050 H   0  0  0  0  0  0
   16.1903   30.8472   -6.4619 H   0  0  0  0  0  0
   16.0272   28.5447   -7.3855 H   0  0  0  0  0  0
   14.6568   28.1255   -9.3688 H   0  0  0  0  0  0
   13.7671   32.2034   -9.7200 H   0  0  0  0  0  0
  1  2  1  0  0  0
  2  3  1  0  0  0
  2  4  2  0  0  0
  2  5  1  0  0  0
  5  6  1  0  0  0
  5  7  1  0  0  0
  5 11  1  0  0  0
  6 18  1  0  0  0
  7  8  1  0  0  0
  7  9  2  0  0  0
  7 10  1  0  0  0
 10 19  1  0  0  0
 11 12  1  0  0  0
 11 20  1  0  0  0
 11 21  1  0  0  0
 12 13  2  0  0  0
 12 17  1  0  0  0
 13 14  1  0  0  0
 13 22  1  0  0  0
 14 15  2  0  0  0
 14 23  1  0  0  0
 15 16  1  0  0  0
 15 24  1  0  0  0
 16 17  2  0  0  0
 17 25  1  0  0  0
M  CHG  3   1  -1   3  -1   8  -1
M  END
> <s_m_source_file>
../1yq7_ligand.sdf

> <i_m_source_file_index>
1

> <s_epik_input>
W09IXVAoPU8pKFtPSF0pQyhbT0hdKShQKD1PKShbT0hdKVtPSF0pW0NIMl1jMVtjSF1bY0hdW2NIXW5bY0hdMQ==

> <s_epik_cmdline>
J2VwaWtfYXBwJywgJy1pbWFlJywgJ2xpZ2FuZF9wcm8ubWFlJywgJy1vbWFlJywgJ2xpZ2FuZF9wcmVwLm1hZScsICctbXMnLCAnMScsICctcGgnLCAnNycsICctcGh0JywgJzAuNScsICctbnQn

> <r_epik_Ionization_Penalty>
  0.2005

> <r_epik_Ionization_Penalty_Charging>
  0.1915

> <r_epik_Ionization_Penalty_Neutral>
  0.0090

> <r_epik_State_Penalty>
  0.1812

> <r_epik_Charging_Adjusted_Penalty>
0.372685998985696

> <i_epik_Tot_Q>
-3

> <i_epik_Tot_abs_Q>
3

$$$$
