1yqy_ligand
                    3D
 Schrodinger Suite 2020-3.
 42 43  0  0  1  0            999 V2000
    9.2270   20.0170   27.7680 C   0  0  0  0  0  0
    8.2930   19.4750   28.7070 C   0  0  0  0  0  0
    8.0500   20.1670   29.9210 C   0  0  0  0  0  0
    8.7620   21.3710   30.1500 C   0  0  0  0  0  0
    9.7370   21.8950   29.2310 C   0  0  0  0  0  0
    9.9470   21.2150   28.0390 C   0  0  0  0  0  0
    8.5230   22.0660   31.2740 F   0  0  0  0  0  0
    7.0320   19.6580   30.9070 C   0  0  0  0  0  0
    9.4700   19.1960   26.2210 S   0  0  0  0  0  0
   10.4390   17.7900   26.5140 N   0  0  3  0  0  0
   11.8990   17.9240   26.5070 C   0  0  1  0  0  0
   12.4690   18.4380   27.8460 C   0  0  0  0  0  0
   13.3900   19.4380   27.7230 N   0  0  0  0  0  0
   13.9690   19.9520   28.8730 O   0  0  0  0  0  0
   12.1600   17.9990   28.9170 O   0  0  0  0  0  0
   10.3620   19.9620   25.4200 O   0  0  0  0  0  0
    8.1790   18.7420   25.7310 O   0  0  0  0  0  0
   12.6710   16.6260   26.2000 C   0  0  0  0  0  0
   12.3710   15.9420   24.8220 C   0  0  0  0  0  0
   13.1600   14.6640   24.5620 C   0  0  0  0  0  0
   14.5420   14.9270   24.7000 O   0  0  0  0  0  0
   14.9420   15.4300   25.9930 C   0  0  0  0  0  0
   14.2100   16.7480   26.3050 C   0  0  0  0  0  0
    7.7742   18.5409   28.4917 H   0  0  0  0  0  0
   10.2957   22.8014   29.4643 H   0  0  0  0  0  0
   10.6624   21.5979   27.3113 H   0  0  0  0  0  0
    6.6017   18.7160   30.5364 H   0  0  0  0  0  0
    6.2327   20.4041   31.0269 H   0  0  0  0  0  0
    7.5181   19.4821   31.8780 H   0  0  0  0  0  0
    9.9785   16.7913   26.5379 H   0  0  0  0  0  0
   11.9923   18.6497   25.6856 H   0  0  0  0  0  0
   13.6754   19.8364   26.7382 H   0  0  0  0  0  0
   14.7139   20.7582   28.8007 H   0  0  0  0  0  0
   12.2762   16.0038   27.0167 H   0  0  0  0  0  0
   11.3053   15.6746   24.7697 H   0  0  0  0  0  0
   12.6148   16.6384   24.0062 H   0  0  0  0  0  0
   12.8592   13.8935   25.2871 H   0  0  0  0  0  0
   12.9547   14.3075   23.5418 H   0  0  0  0  0  0
   14.6931   14.6896   26.7675 H   0  0  0  0  0  0
   16.0267   15.6129   25.9958 H   0  0  0  0  0  0
   14.5673   17.5050   25.5914 H   0  0  0  0  0  0
   14.4852   17.0486   27.3267 H   0  0  0  0  0  0
  1  2  2  0  0  0
  1  6  1  0  0  0
  1  9  1  0  0  0
  2  3  1  0  0  0
  2 24  1  0  0  0
  3  4  2  0  0  0
  3  8  1  0  0  0
  4  5  1  0  0  0
  4  7  1  0  0  0
  5  6  2  0  0  0
  5 25  1  0  0  0
  6 26  1  0  0  0
  8 27  1  0  0  0
  8 28  1  0  0  0
  8 29  1  0  0  0
  9 10  1  0  0  0
  9 16  2  0  0  0
  9 17  2  0  0  0
 10 11  1  0  0  0
 10 30  1  0  0  0
 11 12  1  0  0  0
 11 18  1  0  0  0
 11 31  1  0  0  0
 12 13  1  0  0  0
 12 15  2  0  0  0
 13 14  1  0  0  0
 13 32  1  0  0  0
 14 33  1  0  0  0
 18 19  1  0  0  0
 18 23  1  0  0  0
 18 34  1  0  0  0
 19 20  1  0  0  0
 19 35  1  0  0  0
 19 36  1  0  0  0
 20 21  1  0  0  0
 20 37  1  0  0  0
 20 38  1  0  0  0
 21 22  1  0  0  0
 22 23  1  0  0  0
 22 39  1  0  0  0
 22 40  1  0  0  0
 23 41  1  0  0  0
 23 42  1  0  0  0
M  END
> <s_m_source_file>
../1yqy_ligand.sdf

> <i_m_source_file_index>
1

> <s_epik_input>
W2NIXTFbY0hdYyhGKWMoW0NIM10pW2NIXWMxUyg9TykoPU8pW05IXVtDQEBIXShDKD1PKVtOSF1bT0hdKVtDSF0yW0NIMl1bQ0gyXU9bQ0gyXVtDSDJdMg==

> <s_epik_cmdline>
J2VwaWtfYXBwJywgJy1pbWFlJywgJ2xpZ2FuZF9wcm8ubWFlJywgJy1vbWFlJywgJ2xpZ2FuZF9wcmVwLm1hZScsICctbXMnLCAnMScsICctcGgnLCAnNycsICctcGh0JywgJzAuNScsICctbnQn

> <r_epik_Ionization_Penalty>
  0.0167

> <r_epik_Ionization_Penalty_Charging>
  0.0000

> <r_epik_Ionization_Penalty_Neutral>
  0.0167

> <r_epik_State_Penalty>
  0.0127

> <r_epik_Charging_Adjusted_Penalty>
0.0126736567375602

> <i_epik_Tot_Q>
0

> <i_epik_Tot_abs_Q>
0

> <s_epik_Chemistry_Notes>
This compound has a N-S or N-O group and may undergo hydrolysis at high or low pH.

$$$$
