1yt7_ligand
                    3D
 Schrodinger Suite 2020-3.
 73 75  0  0  1  0            999 V2000
   19.3300   52.5070  199.5170 C   0  0  0  0  0  0
   18.5390   53.8240  199.5290 C   0  0  0  0  0  0
   17.4430   53.7640  200.5930 C   0  0  0  0  0  0
   17.2690   55.1640  201.2140 C   0  0  0  0  0  0
   16.3930   55.0900  202.4800 C   0  0  2  0  0  0
   16.4730   53.7710  203.0110 N   0  0  0  0  0  0
   17.3310   53.4680  204.0220 C   0  0  0  0  0  0
   18.1680   54.2930  204.4090 O   0  0  0  0  0  0
   17.2460   52.2730  204.5870 O   0  0  0  0  0  0
   17.9780   52.1410  205.7940 C   0  0  2  0  0  0
   18.8080   50.8590  205.6800 C   0  0  0  0  0  0
   19.9410   51.0820  204.7190 C   0  0  0  0  0  0
   19.8530   50.8590  203.3700 N   0  0  0  0  0  0
   20.9630   51.1400  202.8650 N   0  0  0  0  0  0
   21.7930   51.5120  203.8700 C   0  0  0  0  0  0
   21.1980   51.5470  205.1370 O   0  0  0  0  0  0
   23.1750   51.8200  203.6890 C   0  0  0  0  0  0
   23.9630   52.1020  204.8210 C   0  0  0  0  0  0
   25.3090   52.3310  204.6870 C   0  0  0  0  0  0
   25.9020   52.2990  203.4390 C   0  0  0  0  0  0
   25.1290   52.0360  202.2880 C   0  0  0  0  0  0
   23.7590   51.8000  202.4120 C   0  0  0  0  0  0
   27.3720   52.5490  203.3190 C   0  0  0  0  0  0
   27.6930   52.8260  202.0220 F   0  0  0  0  0  0
   28.0430   51.4440  203.7230 F   0  0  0  0  0  0
   27.7180   53.5950  204.1100 F   0  0  0  0  0  0
   16.9850   51.9760  206.9830 C   0  0  0  0  0  0
   16.0370   50.7920  206.6840 C   0  0  0  0  0  0
   16.1670   53.2570  207.1760 C   0  0  0  0  0  0
   17.7520   51.6840  208.2690 C   0  0  0  0  0  0
   14.6500   56.5430  201.1440 C   0  0  0  0  0  0
   15.2120   57.6210  201.3030 O   0  0  0  0  0  0
   13.7390   56.3810  200.1350 N   0  0  0  0  0  0
   13.7660   57.0920  199.0920 N   0  0  0  0  0  0
   14.8410   57.0890  198.1800 C   0  0  0  0  0  0
   14.2770   58.0650  197.0740 C   0  0  0  0  0  0
   12.9540   58.4620  197.5850 O   0  0  0  0  0  0
   12.7900   57.8320  198.7420 C   0  0  0  0  0  0
   11.7780   57.9510  199.4260 O   0  0  0  0  0  0
   14.9770   55.3350  202.0590 C   0  0  0  0  0  0
   14.0550   54.3550  202.2240 O   0  0  0  0  0  0
   20.1161   52.5584  198.7492 H   0  0  0  0  0  0
   18.6498   51.6728  199.2901 H   0  0  0  0  0  0
   19.7905   52.3469  200.5031 H   0  0  0  0  0  0
   19.2192   54.6582  199.7559 H   0  0  0  0  0  0
   18.0785   53.9842  198.5429 H   0  0  0  0  0  0
   16.4984   53.4442  200.1288 H   0  0  0  0  0  0
   17.7295   53.0447  201.3744 H   0  0  0  0  0  0
   18.2547   55.5697  201.4856 H   0  0  0  0  0  0
   16.7862   55.8312  200.4848 H   0  0  0  0  0  0
   16.7100   55.7791  203.2766 H   0  0  0  0  0  0
   15.8334   52.9743  202.6034 H   0  0  0  0  0  0
   18.5948   53.0472  205.8850 H   0  0  0  0  0  0
   19.2114   50.5943  206.6685 H   0  0  0  0  0  0
   18.1707   50.0410  205.3131 H   0  0  0  0  0  0
   23.5018   52.1385  205.8080 H   0  0  0  0  0  0
   25.9140   52.5393  205.5695 H   0  0  0  0  0  0
   25.6003   52.0172  201.3054 H   0  0  0  0  0  0
   23.1505   51.6028  201.5295 H   0  0  0  0  0  0
   15.4792   50.9938  205.7576 H   0  0  0  0  0  0
   15.3304   50.6684  207.5179 H   0  0  0  0  0  0
   16.6269   49.8714  206.5637 H   0  0  0  0  0  0
   15.6089   53.4780  206.2542 H   0  0  0  0  0  0
   16.8440   54.0934  207.4043 H   0  0  0  0  0  0
   15.4608   53.1192  208.0081 H   0  0  0  0  0  0
   18.3437   50.7654  208.1424 H   0  0  0  0  0  0
   17.0410   51.5509  209.0978 H   0  0  0  0  0  0
   18.4242   52.5251  208.4940 H   0  0  0  0  0  0
   12.9681   55.6050  200.2519 H   0  0  0  0  0  0
   15.7473   57.4608  198.6804 H   0  0  0  0  0  0
   15.0146   56.0638  197.8212 H   0  0  0  0  0  0
   14.9532   58.9257  196.9652 H   0  0  0  0  0  0
   14.2063   57.5308  196.1150 H   0  0  0  0  0  0
  1  2  1  0  0  0
  1 42  1  0  0  0
  1 43  1  0  0  0
  1 44  1  0  0  0
  2  3  1  0  0  0
  2 45  1  0  0  0
  2 46  1  0  0  0
  3  4  1  0  0  0
  3 47  1  0  0  0
  3 48  1  0  0  0
  4  5  1  0  0  0
  4 49  1  0  0  0
  4 50  1  0  0  0
  5  6  1  0  0  0
  5 40  1  0  0  0
  5 51  1  0  0  0
  6  7  1  0  0  0
  6 52  1  0  0  0
  7  8  2  0  0  0
  7  9  1  0  0  0
  9 10  1  0  0  0
 10 11  1  0  0  0
 10 27  1  0  0  0
 10 53  1  0  0  0
 11 12  1  0  0  0
 11 54  1  0  0  0
 11 55  1  0  0  0
 12 13  2  0  0  0
 12 16  1  0  0  0
 13 14  1  0  0  0
 14 15  2  0  0  0
 15 16  1  0  0  0
 15 17  1  0  0  0
 17 18  2  0  0  0
 17 22  1  0  0  0
 18 19  1  0  0  0
 18 56  1  0  0  0
 19 20  2  0  0  0
 19 57  1  0  0  0
 20 21  1  0  0  0
 20 23  1  0  0  0
 21 22  2  0  0  0
 21 58  1  0  0  0
 22 59  1  0  0  0
 23 24  1  0  0  0
 23 25  1  0  0  0
 23 26  1  0  0  0
 27 28  1  0  0  0
 27 29  1  0  0  0
 27 30  1  0  0  0
 28 60  1  0  0  0
 28 61  1  0  0  0
 28 62  1  0  0  0
 29 63  1  0  0  0
 29 64  1  0  0  0
 29 65  1  0  0  0
 30 66  1  0  0  0
 30 67  1  0  0  0
 30 68  1  0  0  0
 31 32  2  0  0  0
 31 33  1  0  0  0
 31 40  1  0  0  0
 33 34  1  0  0  0
 33 69  1  0  0  0
 34 35  1  0  0  0
 34 38  1  0  0  0
 35 36  1  0  0  0
 35 70  1  0  0  0
 35 71  1  0  0  0
 36 37  1  0  0  0
 36 72  1  0  0  0
 36 73  1  0  0  0
 37 38  1  0  0  0
 38 39  2  0  0  0
 40 41  2  0  0  0
M  END
> <s_m_source_file>
../1yt7_ligand.sdf

> <i_m_source_file_index>
1

> <s_epik_input>
Tz1DMU9bQ0gyXVtDSDJdTjFbTkhdQyg9TylDKD1PKVtDQEhdKFtDSDJdW0NIMl1bQ0gyXVtDSDNdKVtOSF1DKD1PKU9bQ0BASF0oQyhbQ0gzXSkoW0NIM10pW0NIM10pW0NIMl1jMm5uYyhvMiktYzNbY0hdW2NIXWMoQyhGKShGKUYpW2NIXVtjSF0z

> <s_epik_cmdline>
J2VwaWtfYXBwJywgJy1pbWFlJywgJ2xpZ2FuZF9wcm8ubWFlJywgJy1vbWFlJywgJ2xpZ2FuZF9wcmVwLm1hZScsICctbXMnLCAnMScsICctcGgnLCAnNycsICctcGh0JywgJzAuNScsICctbnQn

> <r_lp_tautomer_probability>
1

> <r_epik_Ionization_Penalty>
  0.0011

> <r_epik_Ionization_Penalty_Charging>
  0.0000

> <r_epik_Ionization_Penalty_Neutral>
  0.0011

> <r_epik_State_Penalty>
 -0.0000

> <r_epik_Charging_Adjusted_Penalty>
0

> <i_epik_Tot_Q>
0

> <i_epik_Tot_abs_Q>
0

> <s_epik_Chemistry_Notes>
This compound has an ester and may undergo hydrolysis at high or low pH.

$$$$
