1yt9_ligand
                    3D
 Schrodinger Suite 2020-3.
 94 97  0  0  1  0            999 V2000
    6.3730   29.4830    8.2730 N   0  0  0  0  0  0
   15.2770   22.0870    5.0540 N   0  0  0  0  0  0
   14.3030   23.0320    5.6630 C   0  0  1  0  0  0
   11.4640   24.3210    5.3300 N   0  0  2  0  0  0
   19.6790   17.7690    9.3510 N   0  0  0  0  0  0
   14.9740   23.6050    6.9410 C   0  0  0  0  0  0
   16.8520   19.3490    5.2390 N   0  0  0  0  0  0
   12.7340   25.0610    5.2490 C   0  0  0  0  0  0
   16.3560   18.3530    6.2030 C   0  0  0  0  0  0
   14.9120   24.9260    4.2720 O   0  0  0  0  0  0
    9.7350   23.1750    6.7810 O   0  0  0  0  0  0
   11.7500   24.0110    7.8670 O   0  0  0  0  0  0
   13.7500   20.3470    4.9130 O   0  0  0  0  0  0
   14.8870   20.8020    4.7380 C   0  0  0  0  0  0
   13.8230   24.1230    4.6640 C   0  0  1  0  0  0
   10.6970   23.6990    3.0050 C   0  0  0  0  0  0
   10.5340   24.6010    4.2430 C   0  0  0  0  0  0
   10.6920   24.2350    6.9280 S   0  0  0  0  0  0
   15.4670   22.5430    7.8850 C   0  0  0  0  0  0
   16.8390   22.4820    8.2150 C   0  0  0  0  0  0
   17.3180   21.4890    9.0850 C   0  0  0  0  0  0
   16.4460   20.5350    9.6420 C   0  0  0  0  0  0
   15.0690   20.5820    9.3210 C   0  0  0  0  0  0
   14.5850   21.5820    8.4460 C   0  0  0  0  0  0
    9.6880   24.0850    1.9260 C   0  0  0  0  0  0
   10.5030   22.2250    3.3860 C   0  0  0  0  0  0
   16.0070   19.8880    4.1370 C   0  0  2  0  0  0
   18.1460   19.6980    5.4850 C   0  0  0  0  0  0
   15.4000   18.7080    3.3060 C   0  0  0  0  0  0
   14.5110   19.1900    2.1480 C   0  0  0  0  0  0
   16.5090   17.8060    2.7270 C   0  0  0  0  0  0
   18.5880   19.0060    6.5610 N   0  0  0  0  0  0
   18.8230   20.5030    4.8510 O   0  0  0  0  0  0
   17.5590   18.1150    7.1140 C   0  0  0  0  0  0
    8.4480   25.8550    6.9890 C   0  0  0  0  0  0
    7.7120   26.9860    7.4070 C   0  0  0  0  0  0
    8.3140   27.9420    8.2650 C   0  0  0  0  0  0
    9.6530   27.7550    8.6980 C   0  0  0  0  0  0
   10.3850   26.6230    8.2800 C   0  0  0  0  0  0
    9.7840   25.6760    7.4280 C   0  0  0  0  0  0
    7.5860   29.1260    8.7280 C   0  0  0  0  0  0
   19.9500   19.1240    7.1220 C   0  0  0  0  0  0
   20.0250   18.9940    8.6170 C   0  0  0  0  0  0
   20.4210   19.9790    9.4390 C   0  0  0  0  0  0
   19.8350   17.9130   10.6740 C   0  0  0  0  0  0
   20.4090   19.5340   11.1270 S   0  0  0  0  0  0
    5.7700   30.6300    8.7830 O   0  0  0  0  0  0
   19.5590   16.8170   11.7020 C   0  0  0  0  0  0
   16.3088   22.4127    4.8554 H   0  0  0  0  0  0
   13.3930   22.4704    5.9208 H   0  0  0  0  0  0
   15.8397   24.2208    6.6559 H   0  0  0  0  0  0
   14.2488   24.2237    7.4900 H   0  0  0  0  0  0
   12.6069   25.9371    4.5961 H   0  0  0  0  0  0
   13.0296   25.3933    6.2551 H   0  0  0  0  0  0
   15.4932   18.7662    6.7460 H   0  0  0  0  0  0
   16.0496   17.4434    5.6656 H   0  0  0  0  0  0
   15.8046   24.4627    3.8264 H   0  0  0  0  0  0
   13.4563   23.6265    3.7535 H   0  0  0  0  0  0
   11.7119   23.8372    2.6038 H   0  0  0  0  0  0
    9.5021   24.4666    4.5995 H   0  0  0  0  0  0
   10.6715   25.6373    3.9005 H   0  0  0  0  0  0
   17.5306   23.2104    7.7916 H   0  0  0  0  0  0
   18.3791   21.4567    9.3321 H   0  0  0  0  0  0
   16.8281   19.7670   10.3145 H   0  0  0  0  0  0
   14.3831   19.8496    9.7468 H   0  0  0  0  0  0
   13.5237   21.6154    8.1996 H   0  0  0  0  0  0
    9.8283   25.1416    1.6540 H   0  0  0  0  0  0
    8.6674   23.9372    2.3087 H   0  0  0  0  0  0
    9.8415   23.4542    1.0380 H   0  0  0  0  0  0
   11.2305   21.9484    4.1633 H   0  0  0  0  0  0
   10.6568   21.5936    2.4985 H   0  0  0  0  0  0
    9.4827   22.0766    3.7692 H   0  0  0  0  0  0
   16.6632   20.4869    3.4883 H   0  0  0  0  0  0
   14.7696   18.1287    3.9966 H   0  0  0  0  0  0
   13.7129   19.8359    2.5428 H   0  0  0  0  0  0
   14.0635   18.3212    1.6431 H   0  0  0  0  0  0
   15.1205   19.7578    1.4296 H   0  0  0  0  0  0
   17.1561   17.4511    3.5427 H   0  0  0  0  0  0
   17.1094   18.3801    2.0060 H   0  0  0  0  0  0
   16.0524   16.9435    2.2195 H   0  0  0  0  0  0
   17.2921   18.3746    8.1491 H   0  0  0  0  0  0
   17.8518   17.0558    7.0655 H   0  0  0  0  0  0
    7.9884   25.1196    6.3286 H   0  0  0  0  0  0
    6.6842   27.1238    7.0712 H   0  0  0  0  0  0
   10.1179   28.4890    9.3562 H   0  0  0  0  0  0
   11.4124   26.4820    8.6155 H   0  0  0  0  0  0
    8.0884   29.7370    9.4924 H   0  0  0  0  0  0
   20.5896   18.3342    6.7011 H   0  0  0  0  0  0
   20.3677   20.1090    6.8666 H   0  0  0  0  0  0
   20.7221   20.9650    9.0852 H   0  0  0  0  0  0
    4.7773   30.9366    8.4216 H   0  0  0  0  0  0
   19.2152   15.9084   11.1859 H   0  0  0  0  0  0
   18.7815   17.1578   12.4015 H   0  0  0  0  0  0
   20.4816   16.5957   12.2587 H   0  0  0  0  0  0
  1 41  2  0  0  0
  1 47  1  0  0  0
  2  3  1  0  0  0
  2 14  1  0  0  0
  2 49  1  0  0  0
  3  6  1  0  0  0
  3 15  1  0  0  0
  3 50  1  0  0  0
  4  8  1  0  0  0
  4 17  1  0  0  0
  4 18  1  0  0  0
  5 43  1  0  0  0
  5 45  2  0  0  0
  6 19  1  0  0  0
  6 51  1  0  0  0
  6 52  1  0  0  0
  7  9  1  0  0  0
  7 27  1  0  0  0
  7 28  1  0  0  0
  8 15  1  0  0  0
  8 53  1  0  0  0
  8 54  1  0  0  0
  9 34  1  0  0  0
  9 55  1  0  0  0
  9 56  1  0  0  0
 10 15  1  0  0  0
 10 57  1  0  0  0
 11 18  2  0  0  0
 12 18  2  0  0  0
 13 14  2  0  0  0
 14 27  1  0  0  0
 15 58  1  0  0  0
 16 17  1  0  0  0
 16 25  1  0  0  0
 16 26  1  0  0  0
 16 59  1  0  0  0
 17 60  1  0  0  0
 17 61  1  0  0  0
 18 40  1  0  0  0
 19 20  2  0  0  0
 19 24  1  0  0  0
 20 21  1  0  0  0
 20 62  1  0  0  0
 21 22  2  0  0  0
 21 63  1  0  0  0
 22 23  1  0  0  0
 22 64  1  0  0  0
 23 24  2  0  0  0
 23 65  1  0  0  0
 24 66  1  0  0  0
 25 67  1  0  0  0
 25 68  1  0  0  0
 25 69  1  0  0  0
 26 70  1  0  0  0
 26 71  1  0  0  0
 26 72  1  0  0  0
 27 29  1  0  0  0
 27 73  1  0  0  0
 28 32  1  0  0  0
 28 33  2  0  0  0
 29 30  1  0  0  0
 29 31  1  0  0  0
 29 74  1  0  0  0
 30 75  1  0  0  0
 30 76  1  0  0  0
 30 77  1  0  0  0
 31 78  1  0  0  0
 31 79  1  0  0  0
 31 80  1  0  0  0
 32 34  1  0  0  0
 32 42  1  0  0  0
 34 81  1  0  0  0
 34 82  1  0  0  0
 35 36  2  0  0  0
 35 40  1  0  0  0
 35 83  1  0  0  0
 36 37  1  0  0  0
 36 84  1  0  0  0
 37 38  2  0  0  0
 37 41  1  0  0  0
 38 39  1  0  0  0
 38 85  1  0  0  0
 39 40  2  0  0  0
 39 86  1  0  0  0
 41 87  1  0  0  0
 42 43  1  0  0  0
 42 88  1  0  0  0
 42 89  1  0  0  0
 43 44  2  0  0  0
 44 46  1  0  0  0
 44 90  1  0  0  0
 45 46  1  0  0  0
 45 48  1  0  0  0
 47 91  1  0  0  0
 48 92  1  0  0  0
 48 93  1  0  0  0
 48 94  1  0  0  0
M  END
> <s_m_source_file>
../1yt9_ligand.sdf

> <i_m_source_file_index>
1

> <s_epik_input>
W09IXS9OPVtDSF0vYzFbY0hdW2NIXWMoW2NIXVtjSF0xKVMoPU8pKD1PKU4oW0NIMl1bQ0hdKFtDSDNdKVtDSDNdKVtDSDJdW0NAQEhdKFtPSF0pW0NASF0oW0NIMl1jMltjSF1bY0hdW2NIXVtjSF1bY0hdMilbTkhdQyg9TylbQ0BIXShbQ0hdKFtDSDNdKVtDSDNdKU4zW0NIMl1bQ0gyXU4oQzM9TylbQ0gyXWM0bmMoW0NIM10pc1tjSF00

> <s_epik_cmdline>
J2VwaWtfYXBwJywgJy1pbWFlJywgJ2xpZ2FuZF9wcm8ubWFlJywgJy1vbWFlJywgJ2xpZ2FuZF9wcmVwLm1hZScsICctbXMnLCAnMScsICctcGgnLCAnNycsICctcGh0JywgJzAuNScsICctbnQn

> <r_lp_tautomer_probability>
1

> <r_epik_Ionization_Penalty>
  0.0004

> <r_epik_Ionization_Penalty_Charging>
  0.0000

> <r_epik_Ionization_Penalty_Neutral>
  0.0004

> <r_epik_State_Penalty>
 -0.0000

> <r_epik_Charging_Adjusted_Penalty>
0

> <i_epik_Tot_Q>
0

> <i_epik_Tot_abs_Q>
0

> <s_epik_Chemistry_Notes>
This compound has an imine and may undergo hydrolysis.

$$$$
