1yvf_ligand
                    3D
 Schrodinger Suite 2020-3.
 43 45  0  0  1  0            999 V2000
   -9.7390   55.1170   46.8920 C   0  0  0  0  0  0
   -8.6220   54.7640   47.5790 C   0  0  0  0  0  0
   -8.4650   54.7280   49.0400 N   0  0  0  0  0  0
   -8.1780   55.8220   49.8020 C   0  0  0  0  0  0
   -8.0570   56.9560   49.3420 O   0  0  0  0  0  0
  -11.0380   55.6110   47.3820 C   0  0  0  0  0  0
  -12.1670   55.7430   46.5440 C   0  0  0  0  0  0
  -13.4320   56.7680   48.3780 C   0  0  0  0  0  0
  -11.1450   56.0490   48.6910 C   0  0  0  0  0  0
  -12.3060   56.6130   49.1890 C   0  0  0  0  0  0
  -14.8120   57.5690   50.2350 C   0  0  0  0  0  0
  -14.5710   58.8680   50.7250 C   0  0  0  0  0  0
  -14.8090   59.1780   52.0930 C   0  0  0  0  0  0
  -15.3330   58.1950   52.9560 C   0  0  0  0  0  0
  -15.6200   56.9020   52.4720 C   0  0  0  0  0  0
  -15.3480   56.5970   51.1260 C   0  0  0  0  0  0
   -7.4500   54.2820   46.7960 C   0  0  0  0  0  0
   -7.4970   54.3880   45.5530 O   0  0  0  0  0  0
   -6.4910   53.7290   47.3780 O   0  5  0  0  0  0
   -8.0460   55.5360   51.2270 C   0  0  0  0  0  0
   -7.2720   56.3900   52.0390 C   0  0  0  0  0  0
   -7.3110   56.2440   53.4370 C   0  0  0  0  0  0
   -8.1280   55.2410   54.0210 C   0  0  0  0  0  0
   -8.8600   54.3440   53.2080 C   0  0  0  0  0  0
   -8.8010   54.4780   51.8090 C   0  0  0  0  0  0
  -13.3460   56.3600   47.0400 C   0  0  0  0  0  0
  -14.6120   57.2860   48.8730 O   0  0  0  0  0  0
  -14.0950   60.2100   49.5160 Br  0  0  0  0  0  0
   -9.7533   55.0510   45.7941 H   0  0  0  0  0  0
   -8.5794   53.7778   49.5822 H   0  0  0  0  0  0
  -12.1336   55.3724   45.5195 H   0  0  0  0  0  0
  -10.2846   55.9459   49.3522 H   0  0  0  0  0  0
  -12.3422   56.9406   50.2280 H   0  0  0  0  0  0
  -14.5862   60.1750   52.4732 H   0  0  0  0  0  0
  -15.5174   58.4353   54.0031 H   0  0  0  0  0  0
  -16.0475   56.1480   53.1329 H   0  0  0  0  0  0
  -15.5526   55.5922   50.7565 H   0  0  0  0  0  0
   -6.6468   57.1592   51.5856 H   0  0  0  0  0  0
   -6.7148   56.9000   54.0712 H   0  0  0  0  0  0
   -8.1920   55.1611   55.1062 H   0  0  0  0  0  0
   -9.4634   53.5573   53.6609 H   0  0  0  0  0  0
   -9.3329   53.7724   51.1707 H   0  0  0  0  0  0
  -14.1933   56.5180   46.3728 H   0  0  0  0  0  0
  1  2  2  0  0  0
  1  6  1  0  0  0
  1 29  1  0  0  0
  2  3  1  0  0  0
  2 17  1  0  0  0
  3  4  1  0  0  0
  3 30  1  0  0  0
  4  5  2  0  0  0
  4 20  1  0  0  0
  6  7  2  0  0  0
  6  9  1  0  0  0
  7 26  1  0  0  0
  7 31  1  0  0  0
  8 10  1  0  0  0
  8 26  2  0  0  0
  8 27  1  0  0  0
  9 10  2  0  0  0
  9 32  1  0  0  0
 10 33  1  0  0  0
 11 12  2  0  0  0
 11 16  1  0  0  0
 11 27  1  0  0  0
 12 13  1  0  0  0
 12 28  1  0  0  0
 13 14  2  0  0  0
 13 34  1  0  0  0
 14 15  1  0  0  0
 14 35  1  0  0  0
 15 16  2  0  0  0
 15 36  1  0  0  0
 16 37  1  0  0  0
 17 18  2  0  0  0
 17 19  1  0  0  0
 20 21  2  0  0  0
 20 25  1  0  0  0
 21 22  1  0  0  0
 21 38  1  0  0  0
 22 23  2  0  0  0
 22 39  1  0  0  0
 23 24  1  0  0  0
 23 40  1  0  0  0
 24 25  2  0  0  0
 24 41  1  0  0  0
 25 42  1  0  0  0
 26 43  1  0  0  0
M  CHG  1  19  -1
M  END
> <s_m_source_file>
../1yvf_ligand.sdf

> <i_m_source_file_index>
1

> <s_epik_input>
W2NIXTFbY0hdW2NIXVtjSF1bY0hdYzFDKD1PKVtOSF0vQyhDKD1PKVtPSF0pPVtDSF1cYzJbY0hdW2NIXWMoW2NIXVtjSF0yKU9jM2MoQnIpW2NIXVtjSF1bY0hdW2NIXTM=

> <s_epik_cmdline>
J2VwaWtfYXBwJywgJy1pbWFlJywgJ2xpZ2FuZF9wcm8ubWFlJywgJy1vbWFlJywgJ2xpZ2FuZF9wcmVwLm1hZScsICctbXMnLCAnMScsICctcGgnLCAnNycsICctcGh0JywgJzAuNScsICctbnQn

> <r_lp_tautomer_probability>
1

> <r_epik_Ionization_Penalty>
  0.0000

> <r_epik_Ionization_Penalty_Charging>
  0.0000

> <r_epik_Ionization_Penalty_Neutral>
  0.0000

> <r_epik_State_Penalty>
 -0.0000

> <r_epik_Charging_Adjusted_Penalty>
9.63195382327361e-06

> <i_epik_Tot_Q>
-1

> <i_epik_Tot_abs_Q>
1

$$$$
