1yvh_ligand
                    3D
 Schrodinger Suite 2020-3.
157158  0  0  1  0            999 V2000
   66.2890   35.0800   -7.3250 N   0  3  0  0  0  0
   65.9230   36.0960   -6.2940 C   0  0  2  0  0  0
   66.4700   35.6450   -4.9320 C   0  0  0  0  0  0
   66.6050   34.4490   -4.6800 O   0  0  0  0  0  0
   64.4010   36.2480   -6.2440 C   0  0  0  0  0  0
   63.9190   37.5150   -5.5710 C   0  0  0  0  0  0
   64.2970   38.7610   -6.3700 C   0  0  0  0  0  0
   64.1370   39.9710   -5.5650 N   0  0  0  0  0  0
   64.5500   41.1810   -5.9320 C   0  0  0  0  0  0
   65.1510   41.3600   -7.1040 N   0  0  0  0  0  0
   64.3710   42.2120   -5.1190 N   0  0  0  0  0  0
   66.7860   36.5960   -4.0570 N   0  0  0  0  0  0
   67.3480   36.2540   -2.7510 C   0  0  2  0  0  0
   66.3650   35.7470   -1.7010 C   0  0  0  0  0  0
   65.2170   36.1900   -1.6200 O   0  0  0  0  0  0
   68.1170   37.4470   -2.1870 C   0  0  0  0  0  0
   66.8380   34.8070   -0.8910 N   0  0  0  0  0  0
   66.0370   34.2570    0.1940 C   0  0  2  0  0  0
   66.5710   34.9250    1.4530 C   0  0  0  0  0  0
   67.7800   34.9550    1.6760 O   0  0  0  0  0  0
   66.2110   32.7270    0.3100 C   0  0  0  0  0  0
   65.5940   32.2280    1.6150 C   0  0  0  0  0  0
   65.5430   32.0450   -0.8770 C   0  0  0  0  0  0
   65.6770   35.4620    2.2720 N   0  0  0  0  0  0
   66.1070   36.1390    3.4840 C   0  0  2  0  0  0
   66.9350   35.2350    4.3860 C   0  0  0  0  0  0
   66.7080   34.0280    4.4620 O   0  0  0  0  0  0
   64.8960   36.6940    4.2330 C   0  0  0  0  0  0
   64.1300   37.7480    3.4310 C   0  0  0  0  0  0
   65.0250   38.8880    2.9430 C   0  0  0  0  0  0
   65.5260   39.6620    3.7910 O   0  0  0  0  0  0
   65.2320   39.0050    1.7110 O   0  0  0  0  0  0
   67.9100   35.8270    5.0610 N   0  0  0  0  0  0
   68.7690   35.0670    5.9510 C   0  0  2  0  0  0
   68.0090   34.6240    7.1970 C   0  0  0  0  0  0
   67.0900   35.3070    7.6590 O   0  0  0  0  0  0
   69.9940   35.9030    6.3290 C   0  0  0  0  0  0
   70.8790   36.2000    5.1310 C   0  0  0  0  0  0
   71.2480   35.2900    4.3850 O   0  0  0  0  0  0
   71.2260   37.4720    4.9400 N   0  0  0  0  0  0
   68.4030   33.4740    7.7350 N   0  0  0  0  0  0
   67.7590   32.9120    8.9110 C   0  0  2  0  0  0
   68.2350   33.5190   10.2230 C   0  0  0  0  0  0
   69.2840   33.1570   10.7620 O   0  0  0  0  0  0
   67.9550   31.3910    8.9230 C   0  0  0  0  0  0
   67.5110   30.7380    7.6140 C   0  0  0  0  0  0
   67.6710   29.2300    7.5950 C   0  0  0  0  0  0
   68.6100   28.6860    8.1630 O   0  0  0  0  0  0
   66.7600   28.5510    6.9140 N   0  0  0  0  0  0
   67.4530   34.4600   10.7290 N   0  0  0  0  0  0
   67.7600   35.0920   11.9920 C   0  0  2  0  0  0
   66.9500   34.3110   13.0160 C   0  0  0  0  0  0
   66.0170   33.5960   12.6520 O   0  0  0  0  0  0
   67.3470   36.5610   11.9640 C   0  0  0  0  0  0
   68.3140   37.4270   11.1830 C   0  0  0  0  0  0
   69.5950   37.6880   11.6730 C   0  0  0  0  0  0
   67.9690   37.9460    9.9340 C   0  0  0  0  0  0
   70.5130   38.4410   10.9410 C   0  0  0  0  0  0
   68.8810   38.7010    9.1890 C   0  0  0  0  0  0
   70.1540   38.9420    9.7000 C   0  0  0  0  0  0
   71.0800   39.6630    8.9740 O   0  0  0  0  0  0
   70.8700   40.4860    7.5600 P   0  0  0  0  0  0
   70.3660   39.4910    6.5930 O   0  0  0  0  0  0
   72.2530   40.9760    7.2560 O   0  0  0  0  0  0
   69.9210   41.5410    7.9470 O   0  0  0  0  0  0
   67.3020   34.4330   14.2870 N   0  0  0  0  0  0
   66.5820   33.7070   15.3220 C   0  0  2  0  0  0
   66.2260   34.6260   16.4680 C   0  0  0  0  0  0
   66.6200   35.7870   16.4870 O   0  0  0  0  0  0
   67.4350   32.5480   15.8430 C   0  0  0  0  0  0
   67.6510   31.5830   14.8290 O   0  0  0  0  0  0
   65.4740   34.1030   17.4250 N   0  0  0  0  0  0
   65.1000   34.8880   18.5900 C   0  0  2  0  0  0
   64.4280   34.0140   19.6450 C   0  0  0  0  0  0
   63.2830   34.3550   20.0260 O   0  0  0  0  0  0
   64.1630   36.0220   18.1840 C   0  0  0  0  0  0
   64.4230   37.3030   18.9190 C   0  0  0  0  0  0
   65.4290   38.1630   18.4980 C   0  0  0  0  0  0
   63.6730   37.6440   20.0390 C   0  0  0  0  0  0
   65.6880   39.3450   19.1790 C   0  0  0  0  0  0
   63.9240   38.8270   20.7310 C   0  0  0  0  0  0
   64.9340   39.6800   20.2980 C   0  0  0  0  0  0
   65.0310   32.9365   20.1393 O   0  0  0  0  0  0
   65.9007   35.3954   -8.3047 H   0  0  0  0  0  0
   65.8520   34.1078   -7.0531 H   0  0  0  0  0  0
   67.3839   34.9882   -7.3768 H   0  0  0  0  0  0
   66.3701   37.0613   -6.5737 H   0  0  0  0  0  0
   63.9996   36.2570   -7.2681 H   0  0  0  0  0  0
   63.9664   35.4047   -5.6873 H   0  0  0  0  0  0
   62.8236   37.4854   -5.4753 H   0  0  0  0  0  0
   64.3723   37.5948   -4.5719 H   0  0  0  0  0  0
   65.3470   38.6872   -6.6894 H   0  0  0  0  0  0
   63.6491   38.8393   -7.2555 H   0  0  0  0  0  0
   63.6460   39.9168   -4.5822 H   0  0  0  0  0  0
   65.3011   40.5063   -7.7812 H   0  0  0  0  0  0
   65.4982   42.3619   -7.3967 H   0  0  0  0  0  0
   63.8740   42.0673   -4.1484 H   0  0  0  0  0  0
   66.6200   37.6497   -4.3255 H   0  0  0  0  0  0
   67.9926   35.4001   -3.0068 H   0  0  0  0  0  0
   68.8272   37.8155   -2.9419 H   0  0  0  0  0  0
   68.6673   37.1361   -1.2867 H   0  0  0  0  0  0
   67.4103   38.2486   -1.9262 H   0  0  0  0  0  0
   67.8632   34.4443   -1.0563 H   0  0  0  0  0  0
   64.9784   34.4759   -0.0094 H   0  0  0  0  0  0
   67.2808   32.4711    0.3085 H   0  0  0  0  0  0
   66.0826   32.7259    2.4655 H   0  0  0  0  0  0
   65.7366   31.1403    1.6956 H   0  0  0  0  0  0
   64.5185   32.4585    1.6237 H   0  0  0  0  0  0
   65.9939   32.4107   -1.8113 H   0  0  0  0  0  0
   64.4673   32.2750   -0.8743 H   0  0  0  0  0  0
   65.6855   30.9568   -0.8025 H   0  0  0  0  0  0
   64.6060   35.3934    2.0308 H   0  0  0  0  0  0
   66.7547   36.9564    3.1343 H   0  0  0  0  0  0
   64.1984   35.8745    4.4604 H   0  0  0  0  0  0
   65.2283   37.1634    5.1707 H   0  0  0  0  0  0
   63.6745   37.2769    2.5475 H   0  0  0  0  0  0
   63.3414   38.1861    4.0604 H   0  0  0  0  0  0
   65.8722   39.8169    1.3355 H   0  0  0  0  0  0
   68.0639   36.9094    4.9396 H   0  0  0  0  0  0
   69.0737   34.1754    5.3834 H   0  0  0  0  0  0
   69.6658   36.8618    6.7568 H   0  0  0  0  0  0
   70.5956   35.3573    7.0708 H   0  0  0  0  0  0
   70.8715   38.2489    5.6334 H   0  0  0  0  0  0
   71.8670   37.7454    4.0889 H   0  0  0  0  0  0
   69.2438   32.9449    7.2627 H   0  0  0  0  0  0
   66.7026   33.1946    8.7922 H   0  0  0  0  0  0
   69.0196   31.1597    9.0748 H   0  0  0  0  0  0
   67.3642   30.9516    9.7402 H   0  0  0  0  0  0
   66.4470   30.9549    7.4385 H   0  0  0  0  0  0
   68.1090   31.1395    6.7826 H   0  0  0  0  0  0
   65.9335   29.0826    6.4197 H   0  0  0  0  0  0
   66.8300   27.4555    6.8428 H   0  0  0  0  0  0
   66.5548   34.7586   10.1685 H   0  0  0  0  0  0
   68.8429   35.0524   12.1810 H   0  0  0  0  0  0
   66.3568   36.6546   11.4941 H   0  0  0  0  0  0
   67.3030   36.9492   12.9923 H   0  0  0  0  0  0
   69.8837   37.2952   12.6479 H   0  0  0  0  0  0
   66.9728   37.7600    9.5327 H   0  0  0  0  0  0
   71.5075   38.6343   11.3431 H   0  0  0  0  0  0
   68.5971   39.0983    8.2145 H   0  0  0  0  0  0
   71.0184   38.6719    6.2562 H   0  0  0  0  0  0
   73.0357   40.2633    6.9570 H   0  0  0  0  0  0
   68.1435   35.0874   14.5583 H   0  0  0  0  0  0
   65.6619   33.3396   14.8442 H   0  0  0  0  0  0
   68.4096   32.9320   16.1787 H   0  0  0  0  0  0
   66.9209   32.0648   16.6869 H   0  0  0  0  0  0
   68.2478   30.6841   15.0433 H   0  0  0  0  0  0
   65.1320   33.0618   17.3305 H   0  0  0  0  0  0
   66.0449   35.2897   18.9848 H   0  0  0  0  0  0
   64.2808   36.2282   17.1100 H   0  0  0  0  0  0
   63.1227   35.7293   18.3892 H   0  0  0  0  0  0
   66.0233   37.9066   17.6210 H   0  0  0  0  0  0
   62.8798   36.9784   20.3795 H   0  0  0  0  0  0
   66.4814   40.0094   18.8367 H   0  0  0  0  0  0
   63.3309   39.0833   21.6088 H   0  0  0  0  0  0
   65.1335   40.6078   20.8342 H   0  0  0  0  0  0
   64.5249   32.3230   20.8992 H   0  0  0  0  0  0
  1  2  1  0  0  0
  1 84  1  0  0  0
  1 85  1  0  0  0
  1 86  1  0  0  0
  2  5  1  0  0  0
  2  3  1  0  0  0
  2 87  1  0  0  0
  3  4  2  0  0  0
  3 12  1  0  0  0
  5  6  1  0  0  0
  5 88  1  0  0  0
  5 89  1  0  0  0
  6  7  1  0  0  0
  6 90  1  0  0  0
  6 91  1  0  0  0
  7  8  1  0  0  0
  7 92  1  0  0  0
  7 93  1  0  0  0
  8  9  1  0  0  0
  8 94  1  0  0  0
  9 11  2  0  0  0
  9 10  1  0  0  0
 10 95  1  0  0  0
 10 96  1  0  0  0
 11 97  1  0  0  0
 12 13  1  0  0  0
 12 98  1  0  0  0
 13 16  1  0  0  0
 13 14  1  0  0  0
 13 99  1  0  0  0
 14 15  2  0  0  0
 14 17  1  0  0  0
 16100  1  0  0  0
 16101  1  0  0  0
 16102  1  0  0  0
 17 18  1  0  0  0
 17103  1  0  0  0
 18 21  1  0  0  0
 18 19  1  0  0  0
 18104  1  0  0  0
 19 20  2  0  0  0
 19 24  1  0  0  0
 21 23  1  0  0  0
 21 22  1  0  0  0
 21105  1  0  0  0
 22106  1  0  0  0
 22107  1  0  0  0
 22108  1  0  0  0
 23109  1  0  0  0
 23110  1  0  0  0
 23111  1  0  0  0
 24 25  1  0  0  0
 24112  1  0  0  0
 25 28  1  0  0  0
 25 26  1  0  0  0
 25113  1  0  0  0
 26 27  2  0  0  0
 26 33  1  0  0  0
 28 29  1  0  0  0
 28114  1  0  0  0
 28115  1  0  0  0
 29 30  1  0  0  0
 29116  1  0  0  0
 29117  1  0  0  0
 30 32  1  0  0  0
 30 31  2  0  0  0
 32118  1  0  0  0
 33 34  1  0  0  0
 33119  1  0  0  0
 34 37  1  0  0  0
 34 35  1  0  0  0
 34120  1  0  0  0
 35 36  2  0  0  0
 35 41  1  0  0  0
 37 38  1  0  0  0
 37121  1  0  0  0
 37122  1  0  0  0
 38 40  1  0  0  0
 38 39  2  0  0  0
 40123  1  0  0  0
 40124  1  0  0  0
 41 42  1  0  0  0
 41125  1  0  0  0
 42 45  1  0  0  0
 42 43  1  0  0  0
 42126  1  0  0  0
 43 44  2  0  0  0
 43 50  1  0  0  0
 45 46  1  0  0  0
 45127  1  0  0  0
 45128  1  0  0  0
 46 47  1  0  0  0
 46129  1  0  0  0
 46130  1  0  0  0
 47 49  1  0  0  0
 47 48  2  0  0  0
 49131  1  0  0  0
 49132  1  0  0  0
 50 51  1  0  0  0
 50133  1  0  0  0
 51 52  1  0  0  0
 51 54  1  0  0  0
 51134  1  0  0  0
 52 53  2  0  0  0
 52 66  1  0  0  0
 54 55  1  0  0  0
 54135  1  0  0  0
 54136  1  0  0  0
 55 56  2  0  0  0
 55 57  1  0  0  0
 56 58  1  0  0  0
 56137  1  0  0  0
 57 59  2  0  0  0
 57138  1  0  0  0
 58 60  2  0  0  0
 58139  1  0  0  0
 59 60  1  0  0  0
 59140  1  0  0  0
 60 61  1  0  0  0
 61 62  1  0  0  0
 62 63  1  0  0  0
 62 64  1  0  0  0
 62 65  2  0  0  0
 63141  1  0  0  0
 64142  1  0  0  0
 66 67  1  0  0  0
 66143  1  0  0  0
 67 70  1  0  0  0
 67 68  1  0  0  0
 67144  1  0  0  0
 68 69  2  0  0  0
 68 72  1  0  0  0
 70 71  1  0  0  0
 70145  1  0  0  0
 70146  1  0  0  0
 71147  1  0  0  0
 72 73  1  0  0  0
 72148  1  0  0  0
 73 76  1  0  0  0
 73 74  1  0  0  0
 73149  1  0  0  0
 74 75  2  0  0  0
 74 83  1  0  0  0
 76 77  1  0  0  0
 76150  1  0  0  0
 76151  1  0  0  0
 77 78  2  0  0  0
 77 79  1  0  0  0
 78 80  1  0  0  0
 78152  1  0  0  0
 79 81  2  0  0  0
 79153  1  0  0  0
 80 82  2  0  0  0
 80154  1  0  0  0
 81 82  1  0  0  0
 81155  1  0  0  0
 82156  1  0  0  0
 83157  1  0  0  0
M  CHG  1   1   1
M  END
> <s_m_source_file>
../1yvh_ligand.sdf

> <i_m_source_file_index>
1

> <s_epik_input>
W0hdL049QyhbTkgyXSlcW05IXVtDSDJdW0NIMl1bQ0gyXVtDQEhdKFtOSDMrXSlDKD1PKVtOSF1bQ0BASF0oW0NIM10pQyg9TylbTkhdW0NAQEhdKFtDSF0oW0NIM10pW0NIM10pQyg9TylbTkhdW0NAQEhdKFtDSDJdW0NIMl1DKD1PKVtPSF0pQyg9TylbTkhdW0NAQEhdKFtDSDJdQyg9TylbTkgyXSlDKD1PKVtOSF1bQ0BASF0oW0NIMl1bQ0gyXUMoPU8pW05IMl0pQyg9TylbTkhdW0NAQEhdKFtDSDJdYzFbY0hdW2NIXWMoW2NIXVtjSF0xKU9QKD1PKShbT0hdKVtPSF0pQyg9TylbTkhdW0NAQEhdKFtDSDJdW09IXSlDKD1PKVtOSF1bQ0BIXShDKD1PKVtPSF0pW0NIMl1jMltjSF1bY0hdW2NIXVtjSF1bY0hdMg==

> <s_epik_cmdline>
J2VwaWtfYXBwJywgJy1pbWFlJywgJ2xpZ2FuZF9wcm8ubWFlJywgJy1vbWFlJywgJ2xpZ2FuZF9wcmVwLm1hZScsICctbXMnLCAnMScsICctcGgnLCAnNycsICctcGh0JywgJzAuNScsICctbnQn

> <s_epik_pKa_notes>
Molecule size exceeds maximum supported for generating protonation states

> <s_epik_Chemistry_Notes>
This compound has an imine and may undergo hydrolysis.

$$$$
