1yvx_ligand
                    3D
 Schrodinger Suite 2020-3.
 47 49  0  0  1  0            999 V2000
   27.7900   62.0080    6.3650 N   0  0  0  0  0  0
   28.2940   63.5880    6.3370 C   0  0  0  0  0  0
   27.3210   64.6040    5.8580 C   0  0  0  0  0  0
   29.6770   63.8960    5.5940 C   0  0  0  0  0  0
   27.0760   61.5350    7.5260 C   0  0  0  0  0  0
   26.8030   62.2840    8.5800 O   0  0  0  0  0  0
   26.4790   59.9780    7.7510 C   0  0  0  0  0  0
   26.8240   59.3180    9.0430 C   0  0  0  0  0  0
   26.1980   57.8900    9.0800 C   0  0  0  0  0  0
   25.3680   57.3300    7.9120 C   0  0  0  0  0  0
   25.1720   58.1300    6.7860 C   0  0  0  0  0  0
   25.7130   59.4140    6.7170 C   0  0  0  0  0  0
   24.7540   55.9540    7.9250 C   0  0  0  0  0  0
   28.0680   61.2510    5.3110 C   0  0  0  0  0  0
   29.1490   60.1770    5.3060 C   0  0  0  0  0  0
   29.3020   59.3500    3.8670 S   0  0  0  0  0  0
   28.0420   60.2470    3.1100 C   0  0  0  0  0  0
   27.5040   61.2050    4.0140 C   0  0  0  0  0  0
   30.0690   59.7890    6.4320 C   0  0  0  0  0  0
   30.9970   58.8370    6.3550 O   0  5  0  0  0  0
   29.9740   60.3910    7.5260 O   0  0  0  0  0  0
   27.6430   59.9980    1.7360 C   0  0  0  0  0  0
   28.3150   58.9550    0.9320 C   0  0  0  0  0  0
   27.9130   58.7100   -0.4370 C   0  0  0  0  0  0
   26.8450   59.4860   -1.0370 C   0  0  0  0  0  0
   26.1670   60.5150   -0.2720 C   0  0  0  0  0  0
   26.5160   60.8020    1.0720 C   0  0  0  0  0  0
   28.3784   63.8179    7.4094 H   0  0  0  0  0  0
   26.3474   64.4358    6.3415 H   0  0  0  0  0  0
   27.2084   64.5181    4.7672 H   0  0  0  0  0  0
   27.6871   65.6100    6.1108 H   0  0  0  0  0  0
   30.4361   63.1676    5.9155 H   0  0  0  0  0  0
   30.0122   64.9120    5.8497 H   0  0  0  0  0  0
   29.5335   63.8201    4.5060 H   0  0  0  0  0  0
   27.4211   59.7644    9.8382 H   0  0  0  0  0  0
   26.3536   57.2687    9.9619 H   0  0  0  0  0  0
   24.5884   57.7467    5.9490 H   0  0  0  0  0  0
   25.5333   60.0067    5.8201 H   0  0  0  0  0  0
   24.9971   55.4530    8.8736 H   0  0  0  0  0  0
   25.1548   55.3657    7.0864 H   0  0  0  0  0  0
   23.6619   56.0389    7.8245 H   0  0  0  0  0  0
   26.6942   61.8731    3.7208 H   0  0  0  0  0  0
   29.1191   58.3661    1.3733 H   0  0  0  0  0  0
   28.4157   57.9382   -1.0198 H   0  0  0  0  0  0
   26.5500   59.2949   -2.0688 H   0  0  0  0  0  0
   25.3661   61.0841   -0.7439 H   0  0  0  0  0  0
   25.9922   61.5815    1.6253 H   0  0  0  0  0  0
  1  2  1  0  0  0
  1  5  1  0  0  0
  1 14  1  0  0  0
  2  3  1  0  0  0
  2  4  1  0  0  0
  2 28  1  0  0  0
  3 29  1  0  0  0
  3 30  1  0  0  0
  3 31  1  0  0  0
  4 32  1  0  0  0
  4 33  1  0  0  0
  4 34  1  0  0  0
  5  6  2  0  0  0
  5  7  1  0  0  0
  7  8  2  0  0  0
  7 12  1  0  0  0
  8  9  1  0  0  0
  8 35  1  0  0  0
  9 10  2  0  0  0
  9 36  1  0  0  0
 10 11  1  0  0  0
 10 13  1  0  0  0
 11 12  2  0  0  0
 11 37  1  0  0  0
 12 38  1  0  0  0
 13 39  1  0  0  0
 13 40  1  0  0  0
 13 41  1  0  0  0
 14 15  2  0  0  0
 14 18  1  0  0  0
 15 16  1  0  0  0
 15 19  1  0  0  0
 16 17  1  0  0  0
 17 18  2  0  0  0
 17 22  1  0  0  0
 18 42  1  0  0  0
 19 20  1  0  0  0
 19 21  2  0  0  0
 22 23  2  0  0  0
 22 27  1  0  0  0
 23 24  1  0  0  0
 23 43  1  0  0  0
 24 25  2  0  0  0
 24 44  1  0  0  0
 25 26  1  0  0  0
 25 45  1  0  0  0
 26 27  2  0  0  0
 26 46  1  0  0  0
 27 47  1  0  0  0
M  CHG  1  20  -1
M  END
> <s_m_source_file>
../1yvx_ligand.sdf

> <i_m_source_file_index>
1

> <s_epik_input>
W2NIXTFbY0hdYyhbQ0gzXSlbY0hdW2NIXWMxQyg9TylOKFtDSF0oW0NIM10pW0NIM10pYzJjKEMoPU8pW09IXSlzYyhbY0hdMiktYzNbY0hdW2NIXVtjSF1bY0hdW2NIXTM=

> <s_epik_cmdline>
J2VwaWtfYXBwJywgJy1pbWFlJywgJ2xpZ2FuZF9wcm8ubWFlJywgJy1vbWFlJywgJ2xpZ2FuZF9wcmVwLm1hZScsICctbXMnLCAnMScsICctcGgnLCAnNycsICctcGh0JywgJzAuNScsICctbnQn

> <r_lp_tautomer_probability>
1

> <r_epik_Ionization_Penalty>
  0.0001

> <r_epik_Ionization_Penalty_Charging>
  0.0001

> <r_epik_Ionization_Penalty_Neutral>
  0.0000

> <r_epik_State_Penalty>
 -0.0000

> <r_epik_Charging_Adjusted_Penalty>
0.000110960294743914

> <i_epik_Tot_Q>
-1

> <i_epik_Tot_abs_Q>
1

$$$$
