1yvz_ligand
                    3D
 Schrodinger Suite 2020-3.
 44 46  0  0  1  0            999 V2000
   28.1040   61.9480    6.2000 N   0  0  0  0  0  0
   28.5780   63.4150    6.2070 C   0  0  0  0  0  0
   27.5960   64.3760    5.4850 C   0  0  0  0  0  0
   29.9970   63.6320    5.5630 C   0  0  0  0  0  0
   27.1530   61.6390    7.2440 C   0  0  0  0  0  0
   26.7550   62.4620    8.0690 O   0  0  0  0  0  0
   26.5570   60.2320    7.4010 C   0  0  0  0  0  0
   27.0630   59.4210    8.4760 C   0  0  0  0  0  0
   26.5680   58.0920    8.6890 C   0  0  0  0  0  0
   25.5550   57.5590    7.8230 C   0  0  0  0  0  0
   25.0290   58.3560    6.7370 C   0  0  0  0  0  0
   25.5110   59.6950    6.5090 C   0  0  0  0  0  0
   24.9750   55.9800    8.0800 Cl  0  0  0  0  0  0
   24.8250   60.6100    5.1730 Cl  0  0  0  0  0  0
   28.5820   60.9860    5.2270 C   0  0  0  0  0  0
   29.5650   59.9880    5.3370 C   0  0  0  0  0  0
   29.8030   59.0740    3.9120 S   0  0  0  0  0  0
   28.6120   59.9420    3.0480 C   0  0  0  0  0  0
   28.0770   60.9030    3.8850 C   0  0  0  0  0  0
   30.3780   59.6860    6.5550 C   0  0  0  0  0  0
   31.2080   58.7760    6.4830 O   0  0  0  0  0  0
   30.1540   60.3840    7.5640 O   0  5  0  0  0  0
   28.2350   59.6870    1.6280 C   0  0  0  0  0  0
   29.1420   58.9840    0.7280 C   0  0  0  0  0  0
   28.7870   58.7370   -0.6440 C   0  0  0  0  0  0
   27.5160   59.1870   -1.1490 C   0  0  0  0  0  0
   26.6010   59.8820   -0.2840 C   0  0  0  0  0  0
   26.9510   60.1310    1.0840 C   0  0  0  0  0  0
   28.6070   63.6415    7.2830 H   0  0  0  0  0  0
   26.5876   64.2552    5.9075 H   0  0  0  0  0  0
   27.5743   64.1392    4.4110 H   0  0  0  0  0  0
   27.9302   65.4147    5.6248 H   0  0  0  0  0  0
   30.7258   62.9665    6.0488 H   0  0  0  0  0  0
   30.3065   64.6784    5.7019 H   0  0  0  0  0  0
   29.9507   63.4029    4.4881 H   0  0  0  0  0  0
   27.8319   59.8215    9.1366 H   0  0  0  0  0  0
   26.9603   57.4878    9.5070 H   0  0  0  0  0  0
   24.2609   57.9402    6.0849 H   0  0  0  0  0  0
   27.2950   61.5779    3.5369 H   0  0  0  0  0  0
   30.1063   58.6395    1.1016 H   0  0  0  0  0  0
   29.4793   58.2099   -1.3004 H   0  0  0  0  0  0
   27.2468   59.0006   -2.1887 H   0  0  0  0  0  0
   25.6391   60.2203   -0.6693 H   0  0  0  0  0  0
   26.2493   60.6596    1.7293 H   0  0  0  0  0  0
  1  2  1  0  0  0
  1  5  1  0  0  0
  1 15  1  0  0  0
  2  3  1  0  0  0
  2  4  1  0  0  0
  2 29  1  0  0  0
  3 30  1  0  0  0
  3 31  1  0  0  0
  3 32  1  0  0  0
  4 33  1  0  0  0
  4 34  1  0  0  0
  4 35  1  0  0  0
  5  6  2  0  0  0
  5  7  1  0  0  0
  7  8  2  0  0  0
  7 12  1  0  0  0
  8  9  1  0  0  0
  8 36  1  0  0  0
  9 10  2  0  0  0
  9 37  1  0  0  0
 10 11  1  0  0  0
 10 13  1  0  0  0
 11 12  2  0  0  0
 11 38  1  0  0  0
 12 14  1  0  0  0
 15 16  2  0  0  0
 15 19  1  0  0  0
 16 17  1  0  0  0
 16 20  1  0  0  0
 17 18  1  0  0  0
 18 19  2  0  0  0
 18 23  1  0  0  0
 19 39  1  0  0  0
 20 21  2  0  0  0
 20 22  1  0  0  0
 23 24  2  0  0  0
 23 28  1  0  0  0
 24 25  1  0  0  0
 24 40  1  0  0  0
 25 26  2  0  0  0
 25 41  1  0  0  0
 26 27  1  0  0  0
 26 42  1  0  0  0
 27 28  2  0  0  0
 27 43  1  0  0  0
 28 44  1  0  0  0
M  CHG  1  22  -1
M  END
> <s_m_source_file>
../1yvz_ligand.sdf

> <i_m_source_file_index>
1

> <s_epik_input>
Q2xjMVtjSF1jKENsKVtjSF1bY0hdYzFDKD1PKU4oW0NIXShbQ0gzXSlbQ0gzXSljMmMoQyg9TylbT0hdKXNjKFtjSF0yKS1jM1tjSF1bY0hdW2NIXVtjSF1bY0hdMw==

> <s_epik_cmdline>
J2VwaWtfYXBwJywgJy1pbWFlJywgJ2xpZ2FuZF9wcm8ubWFlJywgJy1vbWFlJywgJ2xpZ2FuZF9wcmVwLm1hZScsICctbXMnLCAnMScsICctcGgnLCAnNycsICctcGh0JywgJzAuNScsICctbnQn

> <r_lp_tautomer_probability>
1

> <r_epik_Ionization_Penalty>
  0.0001

> <r_epik_Ionization_Penalty_Charging>
  0.0001

> <r_epik_Ionization_Penalty_Neutral>
  0.0000

> <r_epik_State_Penalty>
 -0.0000

> <r_epik_Charging_Adjusted_Penalty>
0.000110960294743914

> <i_epik_Tot_Q>
-1

> <i_epik_Tot_abs_Q>
1

$$$$
