1yw2_ligand
                    3D
 Schrodinger Suite 2020-3.
 49 52  0  0  1  0            999 V2000
   18.9280   39.5250   18.0270 C   0  0  0  0  0  0
   17.9780   40.2500   18.9180 N   0  0  0  0  0  0
   17.9890   39.3980   20.1640 O   0  0  0  0  0  0
   18.8450   38.3680   20.0140 C   0  0  0  0  0  0
   19.4550   38.4770   18.6750 C   0  0  0  0  0  0
   18.3990   41.6210   19.2220 C   0  0  0  0  0  0
   17.2530   42.4450   19.3390 O   0  0  0  0  0  0
   17.4700   43.7910   19.6960 C   0  0  0  0  0  0
   18.9580   43.9990   19.9310 C   0  0  0  0  0  0
   18.9470   39.8220   16.6010 C   0  0  0  0  0  0
   18.9530   38.8140   15.6490 C   0  0  0  0  0  0
   18.9870   39.1840   14.3120 C   0  0  0  0  0  0
   19.0150   40.4630   13.9340 N   0  0  0  0  0  0
   18.9890   41.4940   14.8530 C   0  0  0  0  0  0
   18.9450   41.0860   16.1780 N   0  0  0  0  0  0
   18.9560   42.7830   14.4180 O   0  0  0  0  0  0
   18.2970   43.7360   15.1860 C   0  0  0  0  0  0
   18.9840   44.8820   15.5540 C   0  0  0  0  0  0
   18.3670   45.8610   16.3230 C   0  0  0  0  0  0
   17.0540   45.6910   16.7280 C   0  0  0  0  0  0
   16.3580   44.5390   16.3860 C   0  0  0  0  0  0
   16.9650   43.5790   15.5880 C   0  0  0  0  0  0
   16.2520   42.4510   15.2450 O   0  0  0  0  0  0
   20.3800   37.4220   18.2580 C   0  0  0  0  0  0
   19.9630   36.1010   18.4570 C   0  0  0  0  0  0
   20.7810   35.0530   18.0590 C   0  0  0  0  0  0
   22.0190   35.3510   17.5050 C   0  0  0  0  0  0
   22.4680   36.6480   17.3440 C   0  0  0  0  0  0
   21.5920   37.6960   17.6380 C   0  0  0  0  0  0
   22.8030   34.3150   17.1900 F   0  0  0  0  0  0
   19.1420   37.5410   20.8230 O   0  0  0  0  0  0
   18.9592   41.6311   20.1686 H   0  0  0  0  0  0
   19.0417   41.9954   18.4116 H   0  0  0  0  0  0
   17.1249   44.4463   18.8826 H   0  0  0  0  0  0
   16.9107   44.0214   20.6148 H   0  0  0  0  0  0
   19.1421   45.0468   20.2108 H   0  0  0  0  0  0
   19.5112   43.7628   19.0100 H   0  0  0  0  0  0
   19.2970   43.3379   20.7422 H   0  0  0  0  0  0
   18.9317   37.7642   15.9415 H   0  0  0  0  0  0
   18.9909   38.4065   13.5480 H   0  0  0  0  0  0
   20.0182   45.0166   15.2371 H   0  0  0  0  0  0
   18.9148   46.7597   16.6064 H   0  0  0  0  0  0
   16.5641   46.4653   17.3183 H   0  0  0  0  0  0
   15.3390   44.3892   16.7428 H   0  0  0  0  0  0
   16.7151   41.6785   14.6135 H   0  0  0  0  0  0
   18.9992   35.8960   18.9229 H   0  0  0  0  0  0
   20.4588   34.0186   18.1786 H   0  0  0  0  0  0
   23.4813   36.8486   16.9960 H   0  0  0  0  0  0
   21.8581   38.7217   17.3825 H   0  0  0  0  0  0
  1  2  1  0  0  0
  1  5  2  0  0  0
  1 10  1  0  0  0
  2  3  1  0  0  0
  2  6  1  0  0  0
  3  4  1  0  0  0
  4  5  1  0  0  0
  4 31  2  0  0  0
  5 24  1  0  0  0
  6  7  1  0  0  0
  6 32  1  0  0  0
  6 33  1  0  0  0
  7  8  1  0  0  0
  8  9  1  0  0  0
  8 34  1  0  0  0
  8 35  1  0  0  0
  9 36  1  0  0  0
  9 37  1  0  0  0
  9 38  1  0  0  0
 10 11  2  0  0  0
 10 15  1  0  0  0
 11 12  1  0  0  0
 11 39  1  0  0  0
 12 13  2  0  0  0
 12 40  1  0  0  0
 13 14  1  0  0  0
 14 15  2  0  0  0
 14 16  1  0  0  0
 16 17  1  0  0  0
 17 18  2  0  0  0
 17 22  1  0  0  0
 18 19  1  0  0  0
 18 41  1  0  0  0
 19 20  2  0  0  0
 19 42  1  0  0  0
 20 21  1  0  0  0
 20 43  1  0  0  0
 21 22  2  0  0  0
 21 44  1  0  0  0
 22 23  1  0  0  0
 23 45  1  0  0  0
 24 25  2  0  0  0
 24 29  1  0  0  0
 25 26  1  0  0  0
 25 46  1  0  0  0
 26 27  2  0  0  0
 26 47  1  0  0  0
 27 28  1  0  0  0
 27 30  1  0  0  0
 28 29  2  0  0  0
 28 48  1  0  0  0
 29 49  1  0  0  0
M  END
> <s_m_source_file>
../1yw2_ligand.sdf

> <i_m_source_file_index>
1

> <s_epik_input>
W2NIXTFbY0hdYyhGKVtjSF1bY0hdYzEtYzJjKD1PKW9uKFtDSDJdT1tDSDJdW0NIM10pYzItYzNbY0hdW2NIXW5jKG4zKU9jNFtjSF1bY0hdW2NIXVtjSF1jNFtPSF0=

> <s_epik_cmdline>
J2VwaWtfYXBwJywgJy1pbWFlJywgJ2xpZ2FuZF9wcm8ubWFlJywgJy1vbWFlJywgJ2xpZ2FuZF9wcmVwLm1hZScsICctbXMnLCAnMScsICctcGgnLCAnNycsICctcGh0JywgJzAuNScsICctbnQn

> <r_lp_tautomer_probability>
1

> <r_epik_Ionization_Penalty>
  0.0019

> <r_epik_Ionization_Penalty_Charging>
  0.0000

> <r_epik_Ionization_Penalty_Neutral>
  0.0019

> <r_epik_State_Penalty>
 -0.0000

> <r_epik_Charging_Adjusted_Penalty>
2.36862109896128e-09

> <i_epik_Tot_Q>
0

> <i_epik_Tot_abs_Q>
0

> <s_epik_Chemistry_Notes>
This compound contains an acetal/aminal-like group ( X-CH(R)-Y where X, Y are N, S, or O) that may be acid/base labile, releasing an aldehyde.

$$$$
