1yw8_ligand
                    3D
 Schrodinger Suite 2020-3.
 39 41  0  0  1  0            999 V2000
   19.9950   33.6860   15.9840 C   0  0  0  0  0  0
   18.4750   33.8110   15.7830 C   0  0  0  0  0  0
   17.6970   32.5680   16.2150 C   0  0  0  0  0  0
   18.3490   31.2780   16.3780 C   0  0  0  0  0  0
   19.8570   31.1110   16.1190 C   0  0  0  0  0  0
   20.5540   32.3390   15.4920 C   0  0  0  0  0  0
   16.3040   32.6770   16.4650 C   0  0  0  0  0  0
   15.5450   31.5600   16.8640 C   0  0  0  0  0  0
   16.1640   30.3100   17.0250 C   0  0  0  0  0  0
   17.5520   30.1590   16.7870 C   0  0  0  0  0  0
   18.2050   28.7390   16.9860 C   0  0  0  0  0  0
   17.8100   27.7650   16.1510 O   0  5  0  0  0  0
   19.0090   28.5400   17.8610 O   0  0  0  0  0  0
   15.3100   29.1880   17.4440 N   0  0  0  0  0  0
   14.6710   28.8650   18.9180 S   0  0  0  0  0  0
   16.0490   28.5550   20.0060 C   0  0  0  0  0  0
   13.9090   27.6410   18.7820 O   0  0  0  0  0  0
   13.9740   30.0600   19.3630 O   0  0  0  0  0  0
   16.6550   29.6490   20.7590 C   0  0  0  0  0  0
   17.7760   29.3800   21.6450 C   0  0  0  0  0  0
   18.2910   28.0260   21.7780 C   0  0  0  0  0  0
   17.6830   26.9370   21.0250 C   0  0  0  0  0  0
   16.5640   27.1980   20.1400 C   0  0  0  0  0  0
   20.5055   34.4850   15.4263 H   0  0  0  0  0  0
   20.2320   33.7768   17.0543 H   0  0  0  0  0  0
   18.0955   34.6580   16.3735 H   0  0  0  0  0  0
   18.2587   33.9804   14.7179 H   0  0  0  0  0  0
   20.3721   30.9088   17.0697 H   0  0  0  0  0  0
   20.0195   30.2707   15.4280 H   0  0  0  0  0  0
   20.4277   32.2659   14.4017 H   0  0  0  0  0  0
   21.6230   32.2721   15.7426 H   0  0  0  0  0  0
   15.8129   33.6428   16.3460 H   0  0  0  0  0  0
   14.4759   31.6658   17.0481 H   0  0  0  0  0  0
   15.1138   28.5114   16.5992 H   0  0  0  0  0  0
   16.2687   30.6632   20.6575 H   0  0  0  0  0  0
   18.2309   30.1936   22.2100 H   0  0  0  0  0  0
   19.1324   27.8261   22.4415 H   0  0  0  0  0  0
   18.0702   25.9232   21.1270 H   0  0  0  0  0  0
   16.1098   26.3825   19.5772 H   0  0  0  0  0  0
  1  2  1  0  0  0
  1  6  1  0  0  0
  1 24  1  0  0  0
  1 25  1  0  0  0
  2  3  1  0  0  0
  2 26  1  0  0  0
  2 27  1  0  0  0
  3  4  2  0  0  0
  3  7  1  0  0  0
  4  5  1  0  0  0
  4 10  1  0  0  0
  5  6  1  0  0  0
  5 28  1  0  0  0
  5 29  1  0  0  0
  6 30  1  0  0  0
  6 31  1  0  0  0
  7  8  2  0  0  0
  7 32  1  0  0  0
  8  9  1  0  0  0
  8 33  1  0  0  0
  9 10  2  0  0  0
  9 14  1  0  0  0
 10 11  1  0  0  0
 11 12  1  0  0  0
 11 13  2  0  0  0
 14 15  1  0  0  0
 14 34  1  0  0  0
 15 16  1  0  0  0
 15 17  2  0  0  0
 15 18  2  0  0  0
 16 19  2  0  0  0
 16 23  1  0  0  0
 19 20  1  0  0  0
 19 35  1  0  0  0
 20 21  2  0  0  0
 20 36  1  0  0  0
 21 22  1  0  0  0
 21 37  1  0  0  0
 22 23  2  0  0  0
 22 38  1  0  0  0
 23 39  1  0  0  0
M  CHG  1  12  -1
M  END
> <s_m_source_file>
../1yw8_ligand.sdf

> <i_m_source_file_index>
1

> <s_epik_input>
W0NIMl0xW0NIMl1bQ0gyXVtDSDJdYyhjMTIpYyhDKD1PKVtPSF0pYyhbY0hdW2NIXTIpW05IXVMoPU8pKD1PKWMzW2NIXVtjSF1bY0hdW2NIXVtjSF0z

> <s_epik_cmdline>
J2VwaWtfYXBwJywgJy1pbWFlJywgJ2xpZ2FuZF9wcm8ubWFlJywgJy1vbWFlJywgJ2xpZ2FuZF9wcmVwLm1hZScsICctbXMnLCAnMScsICctcGgnLCAnNycsICctcGh0JywgJzAuNScsICctbnQn

> <r_lp_tautomer_probability>
1

> <r_epik_Ionization_Penalty>
  0.0060

> <r_epik_Ionization_Penalty_Charging>
  0.0000

> <r_epik_Ionization_Penalty_Neutral>
  0.0060

> <r_epik_State_Penalty>
 -0.0000

> <r_epik_Charging_Adjusted_Penalty>
2.98439856596833e-05

> <i_epik_Tot_Q>
-1

> <i_epik_Tot_abs_Q>
1

$$$$
