1ywh_ligand
                    3D
 Schrodinger Suite 2020-3.
236240  0  0  1  0            999 V2000
   13.1330   10.2890   42.3300 N   0  3  0  0  0  0
   12.7450    9.9000   43.7270 C   0  0  2  0  0  0
   12.7520   11.1110   44.6820 C   0  0  0  0  0  0
   11.6910   11.7000   44.9350 O   0  0  0  0  0  0
   13.6210    8.7390   44.2380 C   0  0  0  0  0  0
   13.2760    7.3690   43.6140 C   0  0  0  0  0  0
   14.5240    6.5210   43.3330 C   0  0  0  0  0  0
   14.2080    5.3340   42.4320 C   0  0  0  0  0  0
   13.6710    4.1670   43.1820 N   0  3  0  0  0  0
   13.9310   11.4760   45.1980 N   0  0  0  0  0  0
   14.1170   12.7220   45.9610 C   0  0  2  0  0  0
   15.5360   13.2330   45.7250 C   0  0  0  0  0  0
   16.4900   12.4450   45.6750 O   0  0  0  0  0  0
   13.8560   12.5080   47.4590 C   0  0  0  0  0  0
   13.2320   13.6450   48.0730 O   0  0  0  0  0  0
   15.6630   14.5500   45.5580 N   0  0  0  0  0  0
   16.9340   15.2130   45.2370 C   0  0  2  0  0  0
   18.1480   14.5130   45.8770 C   0  0  0  0  0  0
   18.1090   14.0760   47.0190 O   0  0  0  0  0  0
   16.8430   16.7080   45.6300 C   0  0  0  0  0  0
   18.0920   17.5200   45.2590 C   0  0  0  0  0  0
   18.6530   17.3230   44.1570 O   0  0  0  0  0  0
   18.5790   18.4010   46.0020 O   0  0  0  0  0  0
   19.2160   14.3880   45.1080 N   0  0  0  0  0  0
   20.4550   13.7950   45.5850 C   0  0  2  0  0  0
   21.0620   14.5510   46.7480 C   0  0  0  0  0  0
   21.3800   13.7830   44.3770 C   0  0  0  0  0  0
   22.3930   12.6600   44.2370 C   0  0  0  0  0  0
   23.5490   13.2630   43.4480 C   0  0  0  0  0  0
   24.5850   12.1990   43.0920 C   0  0  0  0  0  0
   25.1440   11.4860   44.3260 C   0  0  0  0  0  0
   24.0420   11.0560   45.2910 C   0  0  0  0  0  0
   22.9990   12.1490   45.5390 C   0  0  0  0  0  0
   21.4890   13.9390   47.7240 O   0  0  0  0  0  0
   21.1120   15.8760   46.6530 N   0  0  0  0  0  0
   21.5810   16.7040   47.7530 C   0  0  2  0  0  0
   20.6470   16.5670   48.9790 C   0  0  0  0  0  0
   21.0950   16.2480   50.0800 O   0  0  0  0  0  0
   21.7460   18.1640   47.3020 C   0  0  0  0  0  0
   22.4590   19.0440   48.3000 C   0  0  0  0  0  0
   23.8300   19.2540   48.2090 C   0  0  0  0  0  0
   21.7580   19.6720   49.3340 C   0  0  0  0  0  0
   24.5090   20.0750   49.1510 C   0  0  0  0  0  0
   22.4190   20.4910   50.2730 C   0  0  0  0  0  0
   23.7950   20.6910   50.1800 C   0  0  0  0  0  0
   19.3490   16.7670   48.7760 N   0  0  0  0  0  0
   18.3480   16.5950   49.8510 C   0  0  1  0  0  0
   18.6340   15.4080   50.7480 C   0  0  0  0  0  0
   18.7190   15.5420   51.9880 O   0  0  0  0  0  0
   18.1780   17.8760   50.6750 C   0  0  0  0  0  0
   17.8790   18.9750   49.8100 O   0  0  0  0  0  0
   18.7910   14.2420   50.1130 N   0  0  0  0  0  0
   19.0670   12.9630   50.7820 C   0  0  1  0  0  0
   20.1760   13.0680   51.7820 C   0  0  0  0  0  0
   20.0140   12.6790   52.9350 O   0  0  0  0  0  0
   17.8190   12.4020   51.4590 C   0  0  0  0  0  0
   16.7740   11.8980   50.4570 C   0  0  0  0  0  0
   15.3550   12.0710   51.0110 C   0  0  0  0  0  0
   14.9290   10.8650   51.8540 C   0  0  0  0  0  0
   14.5850   11.2710   53.2140 N   0  3  0  0  0  0
   21.3060   13.6200   51.3510 N   0  0  0  0  0  0
   22.4900   13.7280   52.2020 C   0  0  2  0  0  0
   22.2660   14.6060   53.4280 C   0  0  0  0  0  0
   22.6010   14.2320   54.5600 O   0  0  0  0  0  0
   23.7040   14.1930   51.3920 C   0  0  0  0  0  0
   24.4300   13.0430   50.7190 C   0  0  0  0  0  0
   24.1580   12.6810   49.3950 C   0  0  0  0  0  0
   25.3580   12.2930   51.4230 C   0  0  0  0  0  0
   24.8130   11.6170   48.8090 C   0  0  0  0  0  0
   26.0010   11.2360   50.8490 C   0  0  0  0  0  0
   25.7330   10.8950   49.5500 C   0  0  0  0  0  0
   26.4200    9.8190   49.0070 O   0  0  0  0  0  0
   21.6510   15.7590   53.2000 N   0  0  0  0  0  0
   21.3320   16.6800   54.2700 C   0  0  2  0  0  0
   20.4200   16.0380   55.3170 C   0  0  0  0  0  0
   20.4610   16.4180   56.4890 O   0  0  0  0  0  0
   20.6810   17.9360   53.6870 C   0  0  0  0  0  0
   20.4030   19.1190   54.6210 C   0  0  0  0  0  0
   21.6970   19.6980   55.1950 C   0  0  0  0  0  0
   19.6630   20.1570   53.8480 C   0  0  0  0  0  0
   19.6080   15.0640   54.8980 N   0  0  0  0  0  0
   18.5990   14.4860   55.8040 C   0  0  2  0  0  0
   18.7530   13.0150   56.1620 C   0  0  0  0  0  0
   18.3120   12.6010   57.2190 O   0  0  0  0  0  0
   17.1830   14.7800   55.3080 C   0  0  0  0  0  0
   16.9000   16.2530   55.2940 C   0  0  0  0  0  0
   16.9620   17.0830   54.2170 C   0  0  0  0  0  0
   16.5610   17.0800   56.4200 C   0  0  0  0  0  0
   16.6620   18.3690   54.5960 N   0  0  0  0  0  0
   16.4070   18.3950   55.9420 C   0  0  0  0  0  0
   16.3530   16.8380   57.7840 C   0  0  0  0  0  0
   16.0590   19.4680   56.7770 C   0  0  0  0  0  0
   16.0070   17.9040   58.6100 C   0  0  0  0  0  0
   15.8670   19.2010   58.1020 C   0  0  0  0  0  0
   19.3950   12.2330   55.3010 N   0  0  0  0  0  0
   19.5450   10.7960   55.5500 C   0  0  2  0  0  0
   20.9990   10.3470   55.7640 C   0  0  0  0  0  0
   21.2720    9.4790   56.6070 O   0  0  0  0  0  0
   18.9040    9.9900   54.4160 C   0  0  0  0  0  0
   17.5080   10.2260   54.3560 O   0  0  0  0  0  0
   21.9230   10.9610   55.0290 N   0  0  0  0  0  0
   23.2910   10.4580   54.9680 C   0  0  2  0  0  0
   24.0400   10.4000   56.2880 C   0  0  0  0  0  0
   24.0280   11.3550   57.0810 O   0  0  0  0  0  0
   24.1290   11.2150   53.9470 C   0  0  0  0  0  0
   24.9360   12.2000   54.5660 O   0  0  0  0  0  0
   24.7030    9.2550   56.4690 N   0  0  0  0  0  0
   25.5550    8.9540   57.6040 C   0  0  2  0  0  0
   27.0180    8.7790   57.1270 C   0  0  0  0  0  0
   27.8700    8.1530   57.7660 O   0  0  0  0  0  0
   25.0360    7.6940   58.3000 C   0  0  0  0  0  0
   23.9710    7.9300   59.3680 C   0  0  0  0  0  0
   24.5860    7.8430   60.7650 C   0  0  0  0  0  0
   23.5250    7.8060   61.8730 C   0  0  0  0  0  0
   24.1410    7.7570   63.2520 N   0  3  0  0  0  0
   27.4230    9.2790   56.0710 O   0  0  0  0  0  0
   12.4945   11.1175   41.9894 H   0  0  0  0  0  0
   13.0031    9.4265   41.6598 H   0  0  0  0  0  0
   14.1856   10.6081   42.3172 H   0  0  0  0  0  0
   11.7066    9.5414   43.6706 H   0  0  0  0  0  0
   14.6759    8.9453   44.0044 H   0  0  0  0  0  0
   13.4992    8.6394   45.3267 H   0  0  0  0  0  0
   12.6307    6.8044   44.3030 H   0  0  0  0  0  0
   12.7489    7.5225   42.6608 H   0  0  0  0  0  0
   15.2839    7.1409   42.8348 H   0  0  0  0  0  0
   14.9280    6.1375   44.2816 H   0  0  0  0  0  0
   13.4548    5.6296   41.6868 H   0  0  0  0  0  0
   15.1248    5.0096   41.9179 H   0  0  0  0  0  0
   13.4628    3.3451   42.4812 H   0  0  0  0  0  0
   12.7415    4.4565   43.6942 H   0  0  0  0  0  0
   14.4116    3.8365   43.9252 H   0  0  0  0  0  0
   14.7830   10.8003   45.0321 H   0  0  0  0  0  0
   13.3782   13.4433   45.5817 H   0  0  0  0  0  0
   13.1925   11.6413   47.5954 H   0  0  0  0  0  0
   14.8100   12.3242   47.9748 H   0  0  0  0  0  0
   12.9884   13.6263   49.1455 H   0  0  0  0  0  0
   14.7457   15.1459   45.6738 H   0  0  0  0  0  0
   17.0530   15.1069   44.1486 H   0  0  0  0  0  0
   15.9870   17.1706   45.1168 H   0  0  0  0  0  0
   16.7079   16.7935   46.7183 H   0  0  0  0  0  0
   19.5483   17.9011   43.8845 H   0  0  0  0  0  0
   19.1435   14.7523   44.0726 H   0  0  0  0  0  0
   20.2350   12.7910   45.9770 H   0  0  0  0  0  0
   20.7802   13.7300   43.4564 H   0  0  0  0  0  0
   21.9841   14.7022   44.3686 H   0  0  0  0  0  0
   21.8681   11.8085   43.7794 H   0  0  0  0  0  0
   23.1657   13.7065   42.5172 H   0  0  0  0  0  0
   24.0377   14.0422   44.0513 H   0  0  0  0  0  0
   24.1231   11.4399   42.4436 H   0  0  0  0  0  0
   25.4271   12.6695   42.5633 H   0  0  0  0  0  0
   25.6938   10.5865   44.0120 H   0  0  0  0  0  0
   25.8245   12.1627   44.8636 H   0  0  0  0  0  0
   23.5161   10.1813   44.8807 H   0  0  0  0  0  0
   24.4868   10.7941   46.2624 H   0  0  0  0  0  0
   23.4893   12.9805   46.0664 H   0  0  0  0  0  0
   22.2043   11.7300   46.1737 H   0  0  0  0  0  0
   20.7870   16.3440   45.7120 H   0  0  0  0  0  0
   22.5733   16.3072   48.0135 H   0  0  0  0  0  0
   22.3289   18.1961   46.3697 H   0  0  0  0  0  0
   20.7548   18.6090   47.1302 H   0  0  0  0  0  0
   24.3931   18.7824   47.4036 H   0  0  0  0  0  0
   20.6809   19.5260   49.4159 H   0  0  0  0  0  0
   25.5858   20.2230   49.0695 H   0  0  0  0  0  0
   21.8526   20.9683   51.0727 H   0  0  0  0  0  0
   24.3090   21.3228   50.9043 H   0  0  0  0  0  0
   19.0276   17.0701   47.7686 H   0  0  0  0  0  0
   17.4154   16.3729   49.3116 H   0  0  0  0  0  0
   17.3543   17.7441   51.3920 H   0  0  0  0  0  0
   19.1093   18.0870   51.2211 H   0  0  0  0  0  0
   17.7237   19.9795   50.2306 H   0  0  0  0  0  0
   18.7008   14.2814   49.0174 H   0  0  0  0  0  0
   19.4012   12.3002   49.9702 H   0  0  0  0  0  0
   18.1004   11.5566   52.1041 H   0  0  0  0  0  0
   17.3481   13.1873   52.0685 H   0  0  0  0  0  0
   16.8593   12.4683   49.5202 H   0  0  0  0  0  0
   16.9459   10.8308   50.2535 H   0  0  0  0  0  0
   15.3158   12.9693   51.6447 H   0  0  0  0  0  0
   14.6464   12.1796   50.1767 H   0  0  0  0  0  0
   14.0496   10.3893   51.3953 H   0  0  0  0  0  0
   15.7552   10.1403   51.9010 H   0  0  0  0  0  0
   14.2836   10.3871   53.7953 H   0  0  0  0  0  0
   13.7534   11.9903   53.1826 H   0  0  0  0  0  0
   15.4589   11.7413   53.6884 H   0  0  0  0  0  0
   21.3332   14.0019   50.3198 H   0  0  0  0  0  0
   22.6512   12.7017   52.5635 H   0  0  0  0  0  0
   23.3759   14.8911   50.6077 H   0  0  0  0  0  0
   24.4175   14.6995   52.0587 H   0  0  0  0  0  0
   23.4221   13.2445   48.8213 H   0  0  0  0  0  0
   25.5791   12.5533   52.4581 H   0  0  0  0  0  0
   24.6080   11.3477   47.7729 H   0  0  0  0  0  0
   26.7281   10.6627   51.4241 H   0  0  0  0  0  0
   26.2320    9.5148   47.9667 H   0  0  0  0  0  0
   21.3827   16.0071   52.1625 H   0  0  0  0  0  0
   22.2974   16.9183   54.7403 H   0  0  0  0  0  0
   21.3244   18.3490   52.8961 H   0  0  0  0  0  0
   19.6994   17.6773   53.2633 H   0  0  0  0  0  0
   19.7809   18.7945   55.4682 H   0  0  0  0  0  0
   22.2281   18.9185   55.7610 H   0  0  0  0  0  0
   21.4579   20.5380   55.8637 H   0  0  0  0  0  0
   22.3357   20.0539   54.3731 H   0  0  0  0  0  0
   18.7369   19.7223   53.4438 H   0  0  0  0  0  0
   20.2920   20.5152   53.0197 H   0  0  0  0  0  0
   19.4142   20.9993   54.5102 H   0  0  0  0  0  0
   19.6973   14.6934   53.8662 H   0  0  0  0  0  0
   18.8253   15.0217   56.7377 H   0  0  0  0  0  0
   17.0652   14.3932   54.2850 H   0  0  0  0  0  0
   16.4535   14.2917   55.9709 H   0  0  0  0  0  0
   17.2129   16.7729   53.2026 H   0  0  0  0  0  0
   16.4602   15.8327   58.1915 H   0  0  0  0  0  0
   15.9461   20.4776   56.3820 H   0  0  0  0  0  0
   15.8420   17.7253   59.6725 H   0  0  0  0  0  0
   15.5995   20.0135   58.7775 H   0  0  0  0  0  0
   19.8175   12.6802   54.3892 H   0  0  0  0  0  0
   19.0072   10.6484   56.4982 H   0  0  0  0  0  0
   19.3545   10.2846   53.4567 H   0  0  0  0  0  0
   19.0747    8.9169   54.5870 H   0  0  0  0  0  0
   16.8971    9.7208   53.5934 H   0  0  0  0  0  0
   21.6421   11.8608   54.4621 H   0  0  0  0  0  0
   23.1019    9.4199   54.6571 H   0  0  0  0  0  0
   24.7858   10.5098   53.4166 H   0  0  0  0  0  0
   23.4654   11.7124   53.2244 H   0  0  0  0  0  0
   25.5992   12.8307   53.9558 H   0  0  0  0  0  0
   24.5646    8.5094   55.6721 H   0  0  0  0  0  0
   25.4857    9.8080   58.2938 H   0  0  0  0  0  0
   24.5864    7.0220   57.5542 H   0  0  0  0  0  0
   25.8708    7.1809   58.7999 H   0  0  0  0  0  0
   23.5311    8.9291   59.2326 H   0  0  0  0  0  0
   23.1838    7.1672   59.2758 H   0  0  0  0  0  0
   25.1896    6.9267   60.8435 H   0  0  0  0  0  0
   25.2267    8.7201   60.9389 H   0  0  0  0  0  0
   22.8982    8.7078   61.8107 H   0  0  0  0  0  0
   22.8955    6.9126   61.7482 H   0  0  0  0  0  0
   23.3434    7.7318   64.0091 H   0  0  0  0  0  0
   24.7653    8.6494   63.4066 H   0  0  0  0  0  0
   24.7626    6.8541   63.3440 H   0  0  0  0  0  0
   28.4685    9.1361   55.7602 H   0  0  0  0  0  0
  1  2  1  0  0  0
  1117  1  0  0  0
  1118  1  0  0  0
  1119  1  0  0  0
  2  3  1  0  0  0
  2  5  1  0  0  0
  2120  1  0  0  0
  3  4  2  0  0  0
  3 10  1  0  0  0
  5  6  1  0  0  0
  5121  1  0  0  0
  5122  1  0  0  0
  6  7  1  0  0  0
  6123  1  0  0  0
  6124  1  0  0  0
  7  8  1  0  0  0
  7125  1  0  0  0
  7126  1  0  0  0
  8  9  1  0  0  0
  8127  1  0  0  0
  8128  1  0  0  0
  9129  1  0  0  0
  9130  1  0  0  0
  9131  1  0  0  0
 10 11  1  0  0  0
 10132  1  0  0  0
 11 12  1  0  0  0
 11 14  1  0  0  0
 11133  1  0  0  0
 12 13  2  0  0  0
 12 16  1  0  0  0
 14 15  1  0  0  0
 14134  1  0  0  0
 14135  1  0  0  0
 15136  1  0  0  0
 16 17  1  0  0  0
 16137  1  0  0  0
 17 18  1  0  0  0
 17 20  1  0  0  0
 17138  1  0  0  0
 18 19  2  0  0  0
 18 24  1  0  0  0
 20 21  1  0  0  0
 20139  1  0  0  0
 20140  1  0  0  0
 21 22  1  0  0  0
 21 23  2  0  0  0
 22141  1  0  0  0
 24 25  1  0  0  0
 24142  1  0  0  0
 25 26  1  0  0  0
 25 27  1  0  0  0
 25143  1  0  0  0
 26 34  2  0  0  0
 26 35  1  0  0  0
 27 28  1  0  0  0
 27144  1  0  0  0
 27145  1  0  0  0
 28 29  1  0  0  0
 28 33  1  0  0  0
 28146  1  0  0  0
 29 30  1  0  0  0
 29147  1  0  0  0
 29148  1  0  0  0
 30 31  1  0  0  0
 30149  1  0  0  0
 30150  1  0  0  0
 31 32  1  0  0  0
 31151  1  0  0  0
 31152  1  0  0  0
 32 33  1  0  0  0
 32153  1  0  0  0
 32154  1  0  0  0
 33155  1  0  0  0
 33156  1  0  0  0
 35 36  1  0  0  0
 35157  1  0  0  0
 36 37  1  0  0  0
 36 39  1  0  0  0
 36158  1  0  0  0
 37 38  2  0  0  0
 37 46  1  0  0  0
 39 40  1  0  0  0
 39159  1  0  0  0
 39160  1  0  0  0
 40 41  2  0  0  0
 40 42  1  0  0  0
 41 43  1  0  0  0
 41161  1  0  0  0
 42 44  2  0  0  0
 42162  1  0  0  0
 43 45  2  0  0  0
 43163  1  0  0  0
 44 45  1  0  0  0
 44164  1  0  0  0
 45165  1  0  0  0
 46 47  1  0  0  0
 46166  1  0  0  0
 47 48  1  0  0  0
 47 50  1  0  0  0
 47167  1  0  0  0
 48 49  2  0  0  0
 48 52  1  0  0  0
 50 51  1  0  0  0
 50168  1  0  0  0
 50169  1  0  0  0
 51170  1  0  0  0
 52 53  1  0  0  0
 52171  1  0  0  0
 53 54  1  0  0  0
 53 56  1  0  0  0
 53172  1  0  0  0
 54 55  2  0  0  0
 54 61  1  0  0  0
 56 57  1  0  0  0
 56173  1  0  0  0
 56174  1  0  0  0
 57 58  1  0  0  0
 57175  1  0  0  0
 57176  1  0  0  0
 58 59  1  0  0  0
 58177  1  0  0  0
 58178  1  0  0  0
 59 60  1  0  0  0
 59179  1  0  0  0
 59180  1  0  0  0
 60181  1  0  0  0
 60182  1  0  0  0
 60183  1  0  0  0
 61 62  1  0  0  0
 61184  1  0  0  0
 62 63  1  0  0  0
 62 65  1  0  0  0
 62185  1  0  0  0
 63 64  2  0  0  0
 63 73  1  0  0  0
 65 66  1  0  0  0
 65186  1  0  0  0
 65187  1  0  0  0
 66 67  2  0  0  0
 66 68  1  0  0  0
 67 69  1  0  0  0
 67188  1  0  0  0
 68 70  2  0  0  0
 68189  1  0  0  0
 69 71  2  0  0  0
 69190  1  0  0  0
 70 71  1  0  0  0
 70191  1  0  0  0
 71 72  1  0  0  0
 72192  1  0  0  0
 73 74  1  0  0  0
 73193  1  0  0  0
 74 75  1  0  0  0
 74 77  1  0  0  0
 74194  1  0  0  0
 75 76  2  0  0  0
 75 81  1  0  0  0
 77 78  1  0  0  0
 77195  1  0  0  0
 77196  1  0  0  0
 78 79  1  0  0  0
 78 80  1  0  0  0
 78197  1  0  0  0
 79198  1  0  0  0
 79199  1  0  0  0
 79200  1  0  0  0
 80201  1  0  0  0
 80202  1  0  0  0
 80203  1  0  0  0
 81 82  1  0  0  0
 81204  1  0  0  0
 82 83  1  0  0  0
 82 85  1  0  0  0
 82205  1  0  0  0
 83 84  2  0  0  0
 83 95  1  0  0  0
 85 86  1  0  0  0
 85206  1  0  0  0
 85207  1  0  0  0
 86 87  2  0  0  0
 86 88  1  0  0  0
 87 89  1  0  0  0
 87208  1  0  0  0
 88 90  2  0  0  0
 88 91  1  0  0  0
 89 90  1  0  0  0
 90 92  1  0  0  0
 91 93  2  0  0  0
 91209  1  0  0  0
 92 94  2  0  0  0
 92210  1  0  0  0
 93 94  1  0  0  0
 93211  1  0  0  0
 94212  1  0  0  0
 95 96  1  0  0  0
 95213  1  0  0  0
 96 97  1  0  0  0
 96 99  1  0  0  0
 96214  1  0  0  0
 97 98  2  0  0  0
 97101  1  0  0  0
 99100  1  0  0  0
 99215  1  0  0  0
 99216  1  0  0  0
100217  1  0  0  0
101102  1  0  0  0
101218  1  0  0  0
102103  1  0  0  0
102105  1  0  0  0
102219  1  0  0  0
103104  2  0  0  0
103107  1  0  0  0
105106  1  0  0  0
105220  1  0  0  0
105221  1  0  0  0
106222  1  0  0  0
107108  1  0  0  0
107223  1  0  0  0
108109  1  0  0  0
108111  1  0  0  0
108224  1  0  0  0
109110  2  0  0  0
109116  1  0  0  0
111112  1  0  0  0
111225  1  0  0  0
111226  1  0  0  0
112113  1  0  0  0
112227  1  0  0  0
112228  1  0  0  0
113114  1  0  0  0
113229  1  0  0  0
113230  1  0  0  0
114115  1  0  0  0
114231  1  0  0  0
114232  1  0  0  0
115233  1  0  0  0
115234  1  0  0  0
115235  1  0  0  0
116236  1  0  0  0
M  CHG  4   1   1   9   1  60   1 115   1
M  END
> <s_m_source_file>
../1ywh_ligand.sdf

> <i_m_source_file_index>
1

> <s_epik_input>
W05IMytdW0NIMl1bQ0gyXVtDSDJdW0NIMl1bQ0BIXShbTkgzK10pQyg9TylbTkhdW0NAQEhdKFtDSDJdW09IXSlDKD1PKVtOSF1bQ0BASF0oW0NIMl1DKD1PKVtPSF0pQyg9TylbTkhdW0NAQEhdKFtDSDJdW0NIXTFbQ0gyXVtDSDJdW0NIMl1bQ0gyXVtDSDJdMSlDKD1PKVtOSF1bQ0BASF0oW0NIMl1jMltjSF1bY0hdW2NIXVtjSF1bY0hdMilDKD1PKVtOSF1bQ0BIXShbQ0gyXVtPSF0pQyg9TylbTkhdW0NASF0oW0NIMl1bQ0gyXVtDSDJdW0NIMl1bTkgzK10pQyg9TylbTkhdW0NAQEhdKFtDSDJdYzNbY0hdW2NIXWMoW09IXSlbY0hdW2NIXTMpQyg9TylbTkhdW0NAQEhdKFtDSDJdW0NIXShbQ0gzXSlbQ0gzXSlDKD1PKVtOSF1bQ0BASF0oW0NIMl1jNFtjSF1bbkhdYyhjNDUpW2NIXVtjSF1bY0hdW2NIXTUpQyg9TylbTkhdW0NAQEhdKFtDSDJdW09IXSlDKD1PKVtOSF1bQ0BASF0oW0NIMl1bT0hdKUMoPU8pW05IXVtDQEhdKEMoPU8pW09IXSlbQ0gyXVtDSDJdW0NIMl1bQ0gyXVtOSDMrXQ==

> <s_epik_cmdline>
J2VwaWtfYXBwJywgJy1pbWFlJywgJ2xpZ2FuZF9wcm8ubWFlJywgJy1vbWFlJywgJ2xpZ2FuZF9wcmVwLm1hZScsICctbXMnLCAnMScsICctcGgnLCAnNycsICctcGh0JywgJzAuNScsICctbnQn

> <s_epik_pKa_notes>
Molecule size exceeds maximum supported for generating protonation states

$$$$
