1ywi_ligand
                    3D
 Schrodinger Suite 2020-3.
 92 96  0  0  1  0            999 V2000
   -2.4660   10.0450   -7.5850 N   0  3  0  0  0  0
   -1.6270    9.0570   -6.9070 C   0  0  2  0  0  0
   -1.9070    9.0060   -5.4060 C   0  0  0  0  0  0
   -2.2610   10.0180   -4.8020 O   0  0  0  0  0  0
   -0.1920    9.5490   -7.1610 C   0  0  0  0  0  0
   -0.3130   10.7200   -8.0880 C   0  0  0  0  0  0
   -1.7050   11.2540   -7.9150 C   0  0  0  0  0  0
   -1.7470    7.8220   -4.7800 N   0  0  0  0  0  0
   -1.9950    7.6490   -3.3460 C   0  0  2  0  0  0
   -0.8520    8.1750   -2.4800 C   0  0  0  0  0  0
    0.3110    8.1340   -2.8870 O   0  0  0  0  0  0
   -2.1140    6.1370   -3.2030 C   0  0  0  0  0  0
   -1.2280    5.5920   -4.2670 C   0  0  0  0  0  0
   -1.3160    6.5600   -5.4170 C   0  0  0  0  0  0
   -1.1640    8.6660   -1.2630 N   0  0  0  0  0  0
   -0.1630    9.2000   -0.3440 C   0  0  2  0  0  0
    0.6040    8.0930    0.3660 C   0  0  0  0  0  0
    0.0640    7.0160    0.6190 O   0  0  0  0  0  0
   -0.9820   10.0130    0.6730 C   0  0  0  0  0  0
   -2.4100    9.9240    0.2270 C   0  0  0  0  0  0
   -2.5070    8.7290   -0.6760 C   0  0  0  0  0  0
    1.8650    8.3610    0.6810 N   0  0  0  0  0  0
    2.7000    7.3810    1.3620 C   0  0  2  0  0  0
    2.3760    7.3390    2.8600 C   0  0  0  0  0  0
    2.0410    8.3650    3.4540 O   0  0  0  0  0  0
    4.1710    7.7550    1.1450 C   0  0  0  0  0  0
    5.1960    6.9520    1.9400 C   0  0  0  0  0  0
    5.5460    5.6810    1.1980 C   0  0  0  0  0  0
    6.4420    7.7870    2.1930 C   0  0  0  0  0  0
    2.4720    6.1510    3.4940 N   0  0  0  0  0  0
    2.2180    5.9870    4.9230 C   0  0  2  0  0  0
    3.4150    6.4270    5.7630 C   0  0  0  0  0  0
    4.5560    6.3260    5.3150 O   0  0  0  0  0  0
    1.9640    4.4820    5.0950 C   0  0  0  0  0  0
    2.0660    3.8800    3.7270 C   0  0  0  0  0  0
    2.8100    4.8660    2.8760 C   0  0  0  0  0  0
    3.1790    6.9280    6.9880 N   0  0  0  0  0  0
    4.2610    7.3640    7.8740 C   0  0  2  0  0  0
    5.1050    6.1910    8.3670 C   0  0  0  0  0  0
    6.0880    5.8440    7.6780 O   0  5  0  0  0  0
    3.5340    8.0350    9.0520 C   0  0  0  0  0  0
    2.1230    8.2170    8.5990 C   0  0  0  0  0  0
    1.8610    7.1240    7.6070 C   0  0  0  0  0  0
    4.7760    5.6290    9.4320 O   0  0  0  0  0  0
   -2.8594    9.6139   -8.5174 H   0  0  0  0  0  0
   -3.3032   10.3267   -6.9295 H   0  0  0  0  0  0
   -1.8484    8.0559   -7.3056 H   0  0  0  0  0  0
    0.2687    9.8443   -6.2067 H   0  0  0  0  0  0
    0.3974    8.7404   -7.6180 H   0  0  0  0  0  0
    0.4367   11.4790   -7.8197 H   0  0  0  0  0  0
   -0.1440   10.3875   -9.1228 H   0  0  0  0  0  0
   -2.1091   11.7019   -8.8348 H   0  0  0  0  0  0
   -1.7871   11.9758   -7.0890 H   0  0  0  0  0  0
   -2.8872    8.2192   -3.0479 H   0  0  0  0  0  0
   -1.7818    5.8365   -2.1984 H   0  0  0  0  0  0
   -3.1622    5.8363   -3.3478 H   0  0  0  0  0  0
   -0.1986    5.5204   -3.8859 H   0  0  0  0  0  0
   -1.5804    4.5924   -4.5613 H   0  0  0  0  0  0
   -2.0625    6.2529   -6.1643 H   0  0  0  0  0  0
   -0.3444    6.7113   -5.9100 H   0  0  0  0  0  0
    0.5774    9.7822   -0.9122 H   0  0  0  0  0  0
   -0.8533    9.5811    1.6764 H   0  0  0  0  0  0
   -0.6326   11.0560    0.6752 H   0  0  0  0  0  0
   -3.0616    9.8045    1.1051 H   0  0  0  0  0  0
   -2.6842   10.8437   -0.3106 H   0  0  0  0  0  0
   -3.2511    8.8572   -1.4759 H   0  0  0  0  0  0
   -2.7127    7.7965   -0.1300 H   0  0  0  0  0  0
    2.2770    9.3463    0.4175 H   0  0  0  0  0  0
    2.4675    6.4032    0.9149 H   0  0  0  0  0  0
    4.4324    7.6152    0.0857 H   0  0  0  0  0  0
    4.3271    8.8071    1.4254 H   0  0  0  0  0  0
    4.7635    6.6740    2.9125 H   0  0  0  0  0  0
    4.6321    5.0934    1.0259 H   0  0  0  0  0  0
    6.2545    5.0900    1.7970 H   0  0  0  0  0  0
    6.0058    5.9354    0.2316 H   0  0  0  0  0  0
    6.1651    8.7047    2.7326 H   0  0  0  0  0  0
    6.9066    8.0527    1.2320 H   0  0  0  0  0  0
    7.1553    7.2074    2.7973 H   0  0  0  0  0  0
    1.3713    6.6243    5.2180 H   0  0  0  0  0  0
    2.7208    4.0573    5.7709 H   0  0  0  0  0  0
    0.9623    4.3256    5.5217 H   0  0  0  0  0  0
    2.6097    2.9256    3.7860 H   0  0  0  0  0  0
    1.0563    3.7027    3.3282 H   0  0  0  0  0  0
    2.4720    4.8624    1.8292 H   0  0  0  0  0  0
    3.8995    4.7181    2.9100 H   0  0  0  0  0  0
    4.9423    8.0263    7.3198 H   0  0  0  0  0  0
    3.5909    7.3839    9.9368 H   0  0  0  0  0  0
    4.0116    9.0003    9.2758 H   0  0  0  0  0  0
    1.4474    8.1384    9.4635 H   0  0  0  0  0  0
    2.0116    9.2084    8.1356 H   0  0  0  0  0  0
    1.1332    7.4152    6.8353 H   0  0  0  0  0  0
    1.5361    6.1867    8.0824 H   0  0  0  0  0  0
  1  2  1  0  0  0
  1  7  1  0  0  0
  1 45  1  0  0  0
  1 46  1  0  0  0
  2  3  1  0  0  0
  2  5  1  0  0  0
  2 47  1  0  0  0
  3  4  2  0  0  0
  3  8  1  0  0  0
  5  6  1  0  0  0
  5 48  1  0  0  0
  5 49  1  0  0  0
  6  7  1  0  0  0
  6 50  1  0  0  0
  6 51  1  0  0  0
  7 52  1  0  0  0
  7 53  1  0  0  0
  8  9  1  0  0  0
  8 14  1  0  0  0
  9 10  1  0  0  0
  9 12  1  0  0  0
  9 54  1  0  0  0
 10 11  2  0  0  0
 10 15  1  0  0  0
 12 13  1  0  0  0
 12 55  1  0  0  0
 12 56  1  0  0  0
 13 14  1  0  0  0
 13 57  1  0  0  0
 13 58  1  0  0  0
 14 59  1  0  0  0
 14 60  1  0  0  0
 15 16  1  0  0  0
 15 21  1  0  0  0
 16 17  1  0  0  0
 16 19  1  0  0  0
 16 61  1  0  0  0
 17 18  2  0  0  0
 17 22  1  0  0  0
 19 20  1  0  0  0
 19 62  1  0  0  0
 19 63  1  0  0  0
 20 21  1  0  0  0
 20 64  1  0  0  0
 20 65  1  0  0  0
 21 66  1  0  0  0
 21 67  1  0  0  0
 22 23  1  0  0  0
 22 68  1  0  0  0
 23 24  1  0  0  0
 23 26  1  0  0  0
 23 69  1  0  0  0
 24 25  2  0  0  0
 24 30  1  0  0  0
 26 27  1  0  0  0
 26 70  1  0  0  0
 26 71  1  0  0  0
 27 28  1  0  0  0
 27 29  1  0  0  0
 27 72  1  0  0  0
 28 73  1  0  0  0
 28 74  1  0  0  0
 28 75  1  0  0  0
 29 76  1  0  0  0
 29 77  1  0  0  0
 29 78  1  0  0  0
 30 31  1  0  0  0
 30 36  1  0  0  0
 31 32  1  0  0  0
 31 34  1  0  0  0
 31 79  1  0  0  0
 32 33  2  0  0  0
 32 37  1  0  0  0
 34 35  1  0  0  0
 34 80  1  0  0  0
 34 81  1  0  0  0
 35 36  1  0  0  0
 35 82  1  0  0  0
 35 83  1  0  0  0
 36 84  1  0  0  0
 36 85  1  0  0  0
 37 38  1  0  0  0
 37 43  1  0  0  0
 38 39  1  0  0  0
 38 41  1  0  0  0
 38 86  1  0  0  0
 39 40  1  0  0  0
 39 44  2  0  0  0
 41 42  1  0  0  0
 41 87  1  0  0  0
 41 88  1  0  0  0
 42 43  1  0  0  0
 42 89  1  0  0  0
 42 90  1  0  0  0
 43 91  1  0  0  0
 43 92  1  0  0  0
M  CHG  2   1   1  40  -1
M  END
> <s_m_source_file>
../1ywi_ligand.sdf

> <i_m_source_file_index>
1

> <s_epik_input>
W0NIMl0xW0NIMl1bQ0gyXVtOSDIrXVtDQEBIXTFDKD1PKU4yW0NAQEhdKFtDSDJdW0NIMl1bQ0gyXTIpQyg9TylOM1tDQEBIXShbQ0gyXVtDSDJdW0NIMl0zKUMoPU8pW05IXVtDQEBIXShbQ0gyXVtDSF0oW0NIM10pW0NIM10pQyg9TylONFtDQEBIXShbQ0gyXVtDSDJdW0NIMl00KUMoPU8pTjVbQ0BIXShDKD1PKVtPSF0pW0NIMl1bQ0gyXVtDSDJdNQ==

> <s_epik_cmdline>
J2VwaWtfYXBwJywgJy1pbWFlJywgJ2xpZ2FuZF9wcm8ubWFlJywgJy1vbWFlJywgJ2xpZ2FuZF9wcmVwLm1hZScsICctbXMnLCAnMScsICctcGgnLCAnNycsICctcGh0JywgJzAuNScsICctbnQn

> <r_epik_Ionization_Penalty>
  0.0382

> <r_epik_Ionization_Penalty_Charging>
  0.0382

> <r_epik_Ionization_Penalty_Neutral>
  0.0000

> <r_epik_State_Penalty>
  0.0317

> <r_epik_Charging_Adjusted_Penalty>
0.0699666260608501

> <i_epik_Tot_Q>
0

> <i_epik_Tot_abs_Q>
2

$$$$
