1ywr_ligand
                    3D
 Schrodinger Suite 2020-3.
 65 69  0  0  1  0            999 V2000
    5.4490   -0.5080   18.6240 C   0  0  0  0  0  0
    4.5650   -0.8100   16.0060 C   0  0  0  0  0  0
    4.1820   -1.0730   18.3820 C   0  0  0  0  0  0
    6.2850   -0.0910   17.5860 C   0  0  0  0  0  0
    5.8100   -0.2570   16.2890 C   0  0  0  0  0  0
    3.7370   -1.2240   17.0600 C   0  0  0  0  0  0
    3.3810   -1.4790   19.5430 C   0  0  0  0  0  0
    6.5990    0.1370   15.2950 F   0  0  0  0  0  0
    2.1750   -2.9890   20.8490 N   0  0  0  0  0  0
    1.4800   -4.1590   21.3750 C   0  0  0  0  0  0
    1.5760   -1.6340   22.7780 C   0  0  0  0  0  0
    2.9080   -0.8680   20.6510 C   0  0  0  0  0  0
    3.0750    0.5310   21.0580 C   0  0  0  0  0  0
    3.0970   -3.8030   18.8770 O   0  0  0  0  0  0
    2.8950   -2.9020   19.6670 C   0  0  0  0  0  0
    2.1780   -1.7310   21.4660 N   0  0  0  0  0  0
   -0.5900   -5.5720   21.2130 C   0  0  0  0  0  0
    1.5360   -6.6780   21.4960 C   0  0  0  0  0  0
    2.3150   -5.4200   21.1320 C   0  0  0  0  0  0
    0.0810   -4.2770   20.7600 C   0  0  0  0  0  0
    0.2420   -6.7070   20.8160 N   0  3  0  0  0  0
    3.2280    0.8200   22.3590 N   0  0  0  0  0  0
    3.2290    2.8090   20.5140 C   0  0  0  0  0  0
    3.5370    2.4650   23.9890 N   0  0  0  0  0  0
    3.0690    1.5140   20.0850 C   0  0  0  0  0  0
    3.3780    2.1050   22.6890 C   0  0  0  0  0  0
    3.3840    3.1140   21.8130 N   0  0  0  0  0  0
    3.4450    1.5650   25.0990 C   0  0  2  0  0  0
    2.1050    0.8860   25.2920 C   0  0  0  0  0  0
    3.7960    2.3060   26.4050 C   0  0  0  0  0  0
   -0.3270   -0.4290   25.6950 C   0  0  0  0  0  0
    2.0630   -0.3090   26.0290 C   0  0  0  0  0  0
    0.9180    1.4030   24.7670 C   0  0  0  0  0  0
   -0.2990    0.7500   24.9650 C   0  0  0  0  0  0
    0.8460   -0.9520   26.2220 C   0  0  0  0  0  0
    5.7877   -0.3926   19.6536 H   0  0  0  0  0  0
    4.2355   -0.9207   14.9729 H   0  0  0  0  0  0
    7.2646    0.3445   17.7830 H   0  0  0  0  0  0
    2.7586   -1.6582   16.8542 H   0  0  0  0  0  0
    1.3775   -3.9955   22.4579 H   0  0  0  0  0  0
    1.0866   -2.5868   23.0282 H   0  0  0  0  0  0
    0.8290   -0.8265   22.7799 H   0  0  0  0  0  0
    2.3547   -1.4149   23.5234 H   0  0  0  0  0  0
   -0.7047   -5.5623   22.3070 H   0  0  0  0  0  0
   -1.5801   -5.6564   20.7413 H   0  0  0  0  0  0
    2.1123   -7.5657   21.1963 H   0  0  0  0  0  0
    1.3646   -6.7017   22.5823 H   0  0  0  0  0  0
    2.5937   -5.4760   20.0694 H   0  0  0  0  0  0
    3.2253   -5.3814   21.7483 H   0  0  0  0  0  0
   -0.5337   -3.4230   21.0807 H   0  0  0  0  0  0
    0.1617   -4.2792   19.6630 H   0  0  0  0  0  0
   -0.2698   -7.6454   21.0758 H   0  0  0  0  0  0
    0.4155   -6.6725   19.7303 H   0  0  0  0  0  0
    3.2302    3.6133   19.7783 H   0  0  0  0  0  0
    3.7500    3.5304   24.1609 H   0  0  0  0  0  0
    2.9434    1.2728   19.0295 H   0  0  0  0  0  0
    4.1644    0.7935   24.7870 H   0  0  0  0  0  0
    4.7675    2.8092   26.2913 H   0  0  0  0  0  0
    3.8518    1.5837   27.2327 H   0  0  0  0  0  0
    3.0190    3.0537   26.6225 H   0  0  0  0  0  0
   -1.2728   -0.9465   25.8554 H   0  0  0  0  0  0
    2.9781   -0.7290   26.4465 H   0  0  0  0  0  0
    0.9430    2.3301   24.1943 H   0  0  0  0  0  0
   -1.2187    1.1624   24.5501 H   0  0  0  0  0  0
    0.8122   -1.8789   26.7945 H   0  0  0  0  0  0
  1  3  2  0  0  0
  1  4  1  0  0  0
  1 36  1  0  0  0
  2  5  1  0  0  0
  2  6  2  0  0  0
  2 37  1  0  0  0
  3  6  1  0  0  0
  3  7  1  0  0  0
  4  5  2  0  0  0
  4 38  1  0  0  0
  5  8  1  0  0  0
  6 39  1  0  0  0
  7 12  2  0  0  0
  7 15  1  0  0  0
  9 10  1  0  0  0
  9 15  1  0  0  0
  9 16  1  0  0  0
 10 19  1  0  0  0
 10 20  1  0  0  0
 10 40  1  0  0  0
 11 16  1  0  0  0
 11 41  1  0  0  0
 11 42  1  0  0  0
 11 43  1  0  0  0
 12 13  1  0  0  0
 12 16  1  0  0  0
 13 22  2  0  0  0
 13 25  1  0  0  0
 14 15  2  0  0  0
 17 20  1  0  0  0
 17 21  1  0  0  0
 17 44  1  0  0  0
 17 45  1  0  0  0
 18 19  1  0  0  0
 18 21  1  0  0  0
 18 46  1  0  0  0
 18 47  1  0  0  0
 19 48  1  0  0  0
 19 49  1  0  0  0
 20 50  1  0  0  0
 20 51  1  0  0  0
 21 52  1  0  0  0
 21 53  1  0  0  0
 22 26  1  0  0  0
 23 25  2  0  0  0
 23 27  1  0  0  0
 23 54  1  0  0  0
 24 26  1  0  0  0
 24 28  1  0  0  0
 24 55  1  0  0  0
 25 56  1  0  0  0
 26 27  2  0  0  0
 28 29  1  0  0  0
 28 30  1  0  0  0
 28 57  1  0  0  0
 29 32  2  0  0  0
 29 33  1  0  0  0
 30 58  1  0  0  0
 30 59  1  0  0  0
 30 60  1  0  0  0
 31 34  1  0  0  0
 31 35  2  0  0  0
 31 61  1  0  0  0
 32 35  1  0  0  0
 32 62  1  0  0  0
 33 34  2  0  0  0
 33 63  1  0  0  0
 34 64  1  0  0  0
 35 65  1  0  0  0
M  CHG  1  21   1
M  END
> <s_m_source_file>
../1ywr_ligand.sdf

> <i_m_source_file_index>
1

> <s_epik_input>
W0NIMl0xW0NIMl1bTkgyK11bQ0gyXVtDSDJdW0NIXTFuKGMyPU8pbihbQ0gzXSljKGMyLWMzW2NIXVtjSF1jKEYpW2NIXVtjSF0zKS1jNG5jKG5bY0hdW2NIXTQpW05IXVtDQEBIXShbQ0gzXSljNVtjSF1bY0hdW2NIXVtjSF1bY0hdNQ==

> <s_epik_cmdline>
J2VwaWtfYXBwJywgJy1pbWFlJywgJ2xpZ2FuZF9wcm8ubWFlJywgJy1vbWFlJywgJ2xpZ2FuZF9wcmVwLm1hZScsICctbXMnLCAnMScsICctcGgnLCAnNycsICctcGh0JywgJzAuNScsICctbnQn

> <r_lp_tautomer_probability>
1

> <r_epik_Ionization_Penalty>
  0.0044

> <r_epik_Ionization_Penalty_Charging>
  0.0035

> <r_epik_Ionization_Penalty_Neutral>
  0.0009

> <r_epik_State_Penalty>
 -0.0000

> <r_epik_Charging_Adjusted_Penalty>
0.00350425990608853

> <i_epik_Tot_Q>
1

> <i_epik_Tot_abs_Q>
1

$$$$
