1yy6_ligand
                    3D
 Schrodinger Suite 2020-3.
 97 98  0  0  1  0            999 V2000
   31.4640  -24.9160   -5.9570 N   0  3  0  0  0  0
   30.8890  -23.5410   -5.9560 C   0  0  2  0  0  0
   31.1030  -22.8890   -7.3190 C   0  0  0  0  0  0
   31.9560  -23.3170   -8.1000 O   0  0  0  0  0  0
   31.5390  -22.6920   -4.8560 C   0  0  0  0  0  0
   33.0070  -22.4290   -5.1130 C   0  0  0  0  0  0
   33.3190  -21.7100   -6.0830 O   0  0  0  0  0  0
   33.8500  -22.9420   -4.3480 O   0  5  0  0  0  0
   30.3310  -21.8370   -7.6170 N   0  0  0  0  0  0
   30.4250  -21.1190   -8.8900 C   0  0  2  0  0  0
   31.7080  -20.3140   -9.1150 C   0  0  0  0  0  0
   31.8710  -19.6800  -10.1560 O   0  0  0  0  0  0
   29.1760  -20.2450   -8.8720 C   0  0  0  0  0  0
   29.0200  -19.9340   -7.4190 C   0  0  0  0  0  0
   29.2620  -21.2720   -6.7750 C   0  0  0  0  0  0
   32.6140  -20.3400   -8.1430 N   0  0  0  0  0  0
   33.8640  -19.6100   -8.2750 C   0  0  0  0  0  0
   33.7080  -18.1040   -8.4360 C   0  0  0  0  0  0
   34.2720  -17.5080   -9.3600 O   0  0  0  0  0  0
   32.9560  -17.4790   -7.5340 N   0  0  0  0  0  0
   32.7350  -16.0350   -7.6000 C   0  0  2  0  0  0
   34.0160  -15.2640   -7.3020 C   0  0  0  0  0  0
   34.7660  -15.6190   -6.3960 O   0  0  0  0  0  0
   31.6530  -15.6070   -6.6090 C   0  0  0  0  0  0
   31.1210  -14.2090   -6.8820 C   0  0  0  0  0  0
   30.1270  -13.7320   -5.8440 C   0  0  0  0  0  0
   29.4190  -14.5700   -5.2480 O   0  5  0  0  0  0
   30.0430  -12.5080   -5.6360 O   0  0  0  0  0  0
   34.2570  -14.2030   -8.0660 N   0  0  0  0  0  0
   35.4500  -13.4020   -7.8690 C   0  0  0  0  0  0
   35.8770  -12.7570   -9.1730 C   0  0  0  0  0  0
   35.1080  -12.7530  -10.1360 O   0  0  0  0  0  0
   37.0970  -12.1980   -9.2370 N   0  0  0  0  0  0
   37.6160  -11.5490  -10.4470 C   0  0  2  0  0  0
   37.9240  -12.5650  -11.5430 C   0  0  0  0  0  0
   38.0920  -13.7550  -11.2610 O   0  0  0  0  0  0
   38.8680  -10.8430   -9.9430 C   0  0  0  0  0  0
   39.3600  -11.7780   -8.8900 C   0  0  0  0  0  0
   38.0870  -12.1350   -8.1460 C   0  0  0  0  0  0
   38.0080  -12.0980  -12.7880 N   0  0  0  0  0  0
   38.2830  -12.9900  -13.9160 C   0  0  2  0  0  0
   39.6320  -13.6740  -13.7910 C   0  0  0  0  0  0
   39.8880  -14.6850  -14.4430 O   0  0  0  0  0  0
   38.2220  -12.2250  -15.2440 C   0  0  0  0  0  0
   39.1940  -11.2010  -15.2970 O   0  0  0  0  0  0
   40.4930  -13.1220  -12.9480 N   0  0  0  0  0  0
   41.8160  -13.6930  -12.7490 C   0  0  2  0  0  0
   41.8480  -14.6110  -11.5290 C   0  0  0  0  0  0
   42.8570  -14.5420  -10.7940 O   0  0  0  0  0  0
   42.8520  -12.5830  -12.5530 C   0  0  2  0  0  0
   42.4700  -11.7690  -11.4350 O   0  0  0  0  0  0
   42.9400  -11.7160  -13.8030 C   0  0  0  0  0  0
   40.8481  -15.4459  -11.2606 O   0  5  0  0  0  0
   31.3064  -25.3800   -4.9722 H   0  0  0  0  0  0
   32.5421  -24.8624   -6.1688 H   0  0  0  0  0  0
   30.9679  -25.5203   -6.7307 H   0  0  0  0  0  0
   29.8110  -23.6354   -5.7582 H   0  0  0  0  0  0
   31.0282  -21.7198   -4.7932 H   0  0  0  0  0  0
   31.4538  -23.2139   -3.8914 H   0  0  0  0  0  0
   30.4709  -21.8549   -9.7063 H   0  0  0  0  0  0
   29.3476  -19.3477   -9.4847 H   0  0  0  0  0  0
   28.3263  -20.8113   -9.2810 H   0  0  0  0  0  0
   29.7617  -19.1769   -7.1244 H   0  0  0  0  0  0
   28.0073  -19.5468   -7.2336 H   0  0  0  0  0  0
   28.3812  -21.9300   -6.8101 H   0  0  0  0  0  0
   29.6173  -21.1901   -5.7372 H   0  0  0  0  0  0
   32.4103  -20.9215   -7.2318 H   0  0  0  0  0  0
   34.4794  -19.7715   -7.3777 H   0  0  0  0  0  0
   34.4069  -19.9697   -9.1615 H   0  0  0  0  0  0
   32.4966  -18.0694   -6.7276 H   0  0  0  0  0  0
   32.4141  -15.8478   -8.6354 H   0  0  0  0  0  0
   30.8053  -16.3056   -6.6674 H   0  0  0  0  0  0
   32.0656  -15.6155   -5.5893 H   0  0  0  0  0  0
   31.9570  -13.4942   -6.8926 H   0  0  0  0  0  0
   30.6133  -14.1939   -7.8577 H   0  0  0  0  0  0
   33.5388  -13.9352   -8.8550 H   0  0  0  0  0  0
   35.2442  -12.6132   -7.1305 H   0  0  0  0  0  0
   36.2657  -14.0429   -7.5032 H   0  0  0  0  0  0
   36.8746  -10.8660  -10.8872 H   0  0  0  0  0  0
   39.5793  -10.7208  -10.7731 H   0  0  0  0  0  0
   38.5962   -9.8544   -9.5445 H   0  0  0  0  0  0
   39.8347  -12.6489   -9.3657 H   0  0  0  0  0  0
   40.0947  -11.2613   -8.2550 H   0  0  0  0  0  0
   37.7838  -11.3665   -7.4197 H   0  0  0  0  0  0
   38.1423  -13.1123   -7.6441 H   0  0  0  0  0  0
   37.8665  -11.0208  -12.9604 H   0  0  0  0  0  0
   37.4908  -13.7509  -13.8573 H   0  0  0  0  0  0
   38.4036  -12.9206  -16.0765 H   0  0  0  0  0  0
   37.2281  -11.7677  -15.3584 H   0  0  0  0  0  0
   39.2734  -10.5637  -16.1901 H   0  0  0  0  0  0
   40.1947  -12.2192  -12.3949 H   0  0  0  0  0  0
   42.0083  -14.2683  -13.6666 H   0  0  0  0  0  0
   43.8378  -13.0062  -12.3099 H   0  0  0  0  0  0
   42.3545  -12.2216  -10.4391 H   0  0  0  0  0  0
   43.2328  -12.3387  -14.6612 H   0  0  0  0  0  0
   43.6906  -10.9266  -13.6496 H   0  0  0  0  0  0
   41.9601  -11.2569  -14.0005 H   0  0  0  0  0  0
  1  2  1  0  0  0
  1 54  1  0  0  0
  1 55  1  0  0  0
  1 56  1  0  0  0
  2  5  1  0  0  0
  2  3  1  0  0  0
  2 57  1  0  0  0
  3  4  2  0  0  0
  3  9  1  0  0  0
  5  6  1  0  0  0
  5 58  1  0  0  0
  5 59  1  0  0  0
  6  7  2  0  0  0
  6  8  1  0  0  0
  9 10  1  0  0  0
  9 15  1  0  0  0
 10 11  1  0  0  0
 10 13  1  0  0  0
 10 60  1  0  0  0
 11 12  2  0  0  0
 11 16  1  0  0  0
 13 14  1  0  0  0
 13 61  1  0  0  0
 13 62  1  0  0  0
 14 15  1  0  0  0
 14 63  1  0  0  0
 14 64  1  0  0  0
 15 65  1  0  0  0
 15 66  1  0  0  0
 16 17  1  0  0  0
 16 67  1  0  0  0
 17 18  1  0  0  0
 17 68  1  0  0  0
 17 69  1  0  0  0
 18 19  2  0  0  0
 18 20  1  0  0  0
 20 21  1  0  0  0
 20 70  1  0  0  0
 21 24  1  0  0  0
 21 22  1  0  0  0
 21 71  1  0  0  0
 22 23  2  0  0  0
 22 29  1  0  0  0
 24 25  1  0  0  0
 24 72  1  0  0  0
 24 73  1  0  0  0
 25 26  1  0  0  0
 25 74  1  0  0  0
 25 75  1  0  0  0
 26 28  2  0  0  0
 26 27  1  0  0  0
 29 30  1  0  0  0
 29 76  1  0  0  0
 30 31  1  0  0  0
 30 77  1  0  0  0
 30 78  1  0  0  0
 31 32  2  0  0  0
 31 33  1  0  0  0
 33 34  1  0  0  0
 33 39  1  0  0  0
 34 35  1  0  0  0
 34 37  1  0  0  0
 34 79  1  0  0  0
 35 36  2  0  0  0
 35 40  1  0  0  0
 37 38  1  0  0  0
 37 80  1  0  0  0
 37 81  1  0  0  0
 38 39  1  0  0  0
 38 82  1  0  0  0
 38 83  1  0  0  0
 39 84  1  0  0  0
 39 85  1  0  0  0
 40 41  1  0  0  0
 40 86  1  0  0  0
 41 44  1  0  0  0
 41 42  1  0  0  0
 41 87  1  0  0  0
 42 43  2  0  0  0
 42 46  1  0  0  0
 44 45  1  0  0  0
 44 88  1  0  0  0
 44 89  1  0  0  0
 45 90  1  0  0  0
 46 47  1  0  0  0
 46 91  1  0  0  0
 47 50  1  0  0  0
 47 48  1  0  0  0
 47 92  1  0  0  0
 48 49  2  0  0  0
 48 53  1  0  0  0
 50 52  1  0  0  0
 50 51  1  0  0  0
 50 93  1  0  0  0
 51 94  1  0  0  0
 52 95  1  0  0  0
 52 96  1  0  0  0
 52 97  1  0  0  0
M  CHG  4   1   1   8  -1  27  -1  53  -1
M  END
> <s_m_source_file>
../1yy6_ligand.sdf

> <i_m_source_file_index>
1

> <s_epik_input>
Tz1DKFtPSF0pW0NIMl1bQ0BIXShbTkgzK10pQyg9TylOMVtDQEBIXShbQ0gyXVtDSDJdW0NIMl0xKUMoPU8pW05IXVtDSDJdQyg9TylbTkhdW0NAQEhdKFtDSDJdW0NIMl1DKD1PKVtPSF0pQyg9TylbTkhdW0NIMl1DKD1PKU4yW0NAQEhdKFtDSDJdW0NIMl1bQ0gyXTIpQyg9TylbTkhdW0NAQEhdKFtDSDJdW09IXSlDKD1PKVtOSF1bQ0BIXShDKD1PKVtPSF0pW0NASF0oW09IXSlbQ0gzXQ==

> <s_epik_cmdline>
J2VwaWtfYXBwJywgJy1pbWFlJywgJ2xpZ2FuZF9wcm8ubWFlJywgJy1vbWFlJywgJ2xpZ2FuZF9wcmVwLm1hZScsICctbXMnLCAnMScsICctcGgnLCAnNycsICctcGh0JywgJzAuNScsICctbnQn

> <r_epik_Ionization_Penalty>
  0.0209

> <r_epik_Ionization_Penalty_Charging>
  0.0209

> <r_epik_Ionization_Penalty_Neutral>
  0.0000

> <r_epik_State_Penalty>
  0.0152

> <r_epik_Charging_Adjusted_Penalty>
0.0361161296655414

> <i_epik_Tot_Q>
-2

> <i_epik_Tot_abs_Q>
4

$$$$
