1yye_ligand
                    3D
 Schrodinger Suite 2020-3.
 31 33  0  0  1  0            999 V2000
   26.2360   36.2130   41.8980 C   0  0  0  0  0  0
   26.1850   36.5960   40.5190 C   0  0  0  0  0  0
   27.3570   36.6940   39.7290 C   0  0  0  0  0  0
   28.6380   36.4010   40.3130 C   0  0  0  0  0  0
   28.6880   36.0150   41.7110 C   0  0  0  0  0  0
   27.5000   35.9160   42.5040 C   0  0  0  0  0  0
   25.0840   36.1150   42.6680 O   0  0  0  0  0  0
   24.9920   36.8690   39.9840 F   0  0  0  0  0  0
   29.9010   36.5060   39.4650 C   0  0  0  0  0  0
   31.1260   35.8350   39.8240 C   0  0  0  0  0  0
   32.3060   35.9350   39.0280 C   0  0  0  0  0  0
   32.2740   36.7940   37.8050 C   0  0  0  0  0  0
   31.0360   37.4590   37.4330 C   0  0  0  0  0  0
   29.8930   37.3150   38.2720 C   0  0  0  0  0  0
   33.5020   35.2620   39.4230 C   0  0  0  0  0  0
   34.6740   35.3910   38.6130 C   0  0  0  0  0  0
   34.6630   36.1980   37.4270 C   0  0  0  0  0  0
   33.4820   36.8830   37.0130 C   0  0  0  0  0  0
   30.8940   38.2980   36.2690 C   0  0  0  0  0  0
   30.7900   38.9480   35.3170 N   0  0  0  0  0  0
   35.8180   36.3020   36.6720 O   0  0  0  0  0  0
   27.2879   36.9904   38.6824 H   0  0  0  0  0  0
   29.6528   35.7952   42.1682 H   0  0  0  0  0  0
   27.5562   35.6196   43.5514 H   0  0  0  0  0  0
   24.1037   36.3387   42.2220 H   0  0  0  0  0  0
   31.1513   35.2325   40.7320 H   0  0  0  0  0  0
   28.9758   37.8377   38.0006 H   0  0  0  0  0  0
   33.5216   34.6578   40.3300 H   0  0  0  0  0  0
   35.5869   34.8695   38.9006 H   0  0  0  0  0  0
   33.4895   37.4749   36.0978 H   0  0  0  0  0  0
   36.7307   35.7754   36.9877 H   0  0  0  0  0  0
  1  2  2  0  0  0
  1  6  1  0  0  0
  1  7  1  0  0  0
  2  3  1  0  0  0
  2  8  1  0  0  0
  3  4  2  0  0  0
  3 22  1  0  0  0
  4  5  1  0  0  0
  4  9  1  0  0  0
  5  6  2  0  0  0
  5 23  1  0  0  0
  6 24  1  0  0  0
  7 25  1  0  0  0
  9 10  2  0  0  0
  9 14  1  0  0  0
 10 11  1  0  0  0
 10 26  1  0  0  0
 11 12  2  0  0  0
 11 15  1  0  0  0
 12 13  1  0  0  0
 12 18  1  0  0  0
 13 14  2  0  0  0
 13 19  1  0  0  0
 14 27  1  0  0  0
 15 16  2  0  0  0
 15 28  1  0  0  0
 16 17  1  0  0  0
 16 29  1  0  0  0
 17 18  2  0  0  0
 17 21  1  0  0  0
 18 30  1  0  0  0
 19 20  3  0  0  0
 21 31  1  0  0  0
M  END
> <s_m_source_file>
../1yye_ligand.sdf

> <i_m_source_file_index>
1

> <s_epik_input>
W09IXWMxYyhGKVtjSF1jKFtjSF1bY0hdMSktYyhbY0hdMilbY0hdYyhDI04pYyhjMjMpW2NIXWMoW09IXSlbY0hdW2NIXTM=

> <s_epik_cmdline>
J2VwaWtfYXBwJywgJy1pbWFlJywgJ2xpZ2FuZF9wcm8ubWFlJywgJy1vbWFlJywgJ2xpZ2FuZF9wcmVwLm1hZScsICctbXMnLCAnMScsICctcGgnLCAnNycsICctcGh0JywgJzAuNScsICctbnQn

> <r_lp_tautomer_probability>
1

> <r_epik_Ionization_Penalty>
  0.0409

> <r_epik_Ionization_Penalty_Charging>
  0.0000

> <r_epik_Ionization_Penalty_Neutral>
  0.0409

> <r_epik_State_Penalty>
 -0.0000

> <r_epik_Charging_Adjusted_Penalty>
0

> <i_epik_Tot_Q>
0

> <i_epik_Tot_abs_Q>
0

$$$$
