1yyr_ligand
                    3D
 Schrodinger Suite 2020-3.
 41 41  0  0  1  0            999 V2000
  -21.6460  109.0500   16.6960 C   0  0  2  0  0  0
  -20.3520  109.9060   17.0620 C   0  0  0  0  0  0
  -22.6440  109.1430   17.9180 C   0  0  0  0  0  0
  -20.7080  111.4200   17.2640 C   0  0  0  0  0  0
  -22.9680  110.6290   18.1750 C   0  0  0  0  0  0
  -21.3530  107.5870   16.3380 N   0  3  1  0  0  0
  -18.7430  108.5760   13.7180 C   0  0  0  0  0  0
  -20.1210  108.2270   14.1960 C   0  0  0  0  0  0
  -20.1520  107.4010   15.5080 C   0  0  0  0  0  0
  -18.1500  109.7730   13.6090 C   0  0  0  0  0  0
  -18.7460  111.1240   13.9610 C   0  0  0  0  0  0
  -16.7430  109.8420   13.0760 C   0  0  0  0  0  0
  -21.1840  106.6820   17.4740 C   0  0  0  0  0  0
  -22.1110  111.6630   17.8700 C   0  0  0  0  0  0
  -22.4870  113.0900   18.1010 C   0  0  0  0  0  0
  -22.0906  109.4380   15.7676 H   0  0  0  0  0  0
  -19.9107  109.5232   17.9940 H   0  0  0  0  0  0
  -19.6166  109.8253   16.2479 H   0  0  0  0  0  0
  -23.5669  108.5937   17.6803 H   0  0  0  0  0  0
  -22.1742  108.7020   18.8095 H   0  0  0  0  0  0
  -19.9769  111.8809   17.9445 H   0  0  0  0  0  0
  -20.6808  111.9358   16.2928 H   0  0  0  0  0  0
  -23.9472  110.8419   18.6287 H   0  0  0  0  0  0
  -22.2513  107.2767   15.7842 H   0  0  0  0  0  0
  -18.1982  107.6642   13.4320 H   0  0  0  0  0  0
  -20.6887  109.1503   14.3839 H   0  0  0  0  0  0
  -20.6353  107.6303   13.4283 H   0  0  0  0  0  0
  -19.2605  107.6928   16.0825 H   0  0  0  0  0  0
  -20.0693  106.3442   15.2144 H   0  0  0  0  0  0
  -19.7691  110.9857   14.3405 H   0  0  0  0  0  0
  -18.7706  111.7590   13.0631 H   0  0  0  0  0  0
  -18.1301  111.6062   14.7344 H   0  0  0  0  0  0
  -16.3875  108.8266   12.8469 H   0  0  0  0  0  0
  -16.0867  110.2985   13.8316 H   0  0  0  0  0  0
  -16.7273  110.4513   12.1603 H   0  0  0  0  0  0
  -22.0525  106.7679   18.1436 H   0  0  0  0  0  0
  -20.2695  106.9500   18.0234 H   0  0  0  0  0  0
  -21.1028  105.6473   17.1096 H   0  0  0  0  0  0
  -21.6586  113.7427   17.7883 H   0  0  0  0  0  0
  -22.6935  113.2463   19.1701 H   0  0  0  0  0  0
  -23.3858  113.3319   17.5148 H   0  0  0  0  0  0
  1  2  1  0  0  0
  1  3  1  0  0  0
  1  6  1  0  0  0
  1 16  1  0  0  0
  2  4  1  0  0  0
  2 17  1  0  0  0
  2 18  1  0  0  0
  3  5  1  0  0  0
  3 19  1  0  0  0
  3 20  1  0  0  0
  4 14  1  0  0  0
  4 21  1  0  0  0
  4 22  1  0  0  0
  5 14  2  0  0  0
  5 23  1  0  0  0
  6  9  1  0  0  0
  6 13  1  0  0  0
  6 24  1  0  0  0
  7  8  1  0  0  0
  7 10  2  0  0  0
  7 25  1  0  0  0
  8  9  1  0  0  0
  8 26  1  0  0  0
  8 27  1  0  0  0
  9 28  1  0  0  0
  9 29  1  0  0  0
 10 11  1  0  0  0
 10 12  1  0  0  0
 11 30  1  0  0  0
 11 31  1  0  0  0
 11 32  1  0  0  0
 12 33  1  0  0  0
 12 34  1  0  0  0
 12 35  1  0  0  0
 13 36  1  0  0  0
 13 37  1  0  0  0
 13 38  1  0  0  0
 14 15  1  0  0  0
 15 39  1  0  0  0
 15 40  1  0  0  0
 15 41  1  0  0  0
M  CHG  1   6   1
M  END
> <s_m_source_file>
../1yyr_ligand.sdf

> <i_m_source_file_index>
1

> <s_epik_input>
W0NIMl0xW0NIXT1DKFtDSDNdKVtDSDJdW0NIMl1bQ0BIXTFbTkBIK10oW0NIM10pW0NIMl1bQ0gyXVtDSF09QyhbQ0gzXSlbQ0gzXQ==

> <s_epik_cmdline>
J2VwaWtfYXBwJywgJy1pbWFlJywgJ2xpZ2FuZF9wcm8ubWFlJywgJy1vbWFlJywgJ2xpZ2FuZF9wcmVwLm1hZScsICctbXMnLCAnMScsICctcGgnLCAnNycsICctcGh0JywgJzAuNScsICctbnQn

> <r_lp_tautomer_probability>
1

> <r_epik_Ionization_Penalty>
  0.0022

> <r_epik_Ionization_Penalty_Charging>
  0.0022

> <r_epik_Ionization_Penalty_Neutral>
  0.0000

> <r_epik_State_Penalty>
 -0.0000

> <r_epik_Charging_Adjusted_Penalty>
0.0022414392414298

> <i_epik_Tot_Q>
1

> <i_epik_Tot_abs_Q>
1

$$$$
