1yys_ligand
                    3D
 Schrodinger Suite 2020-3.
 41 41  0  0  1  0            999 V2000
   51.8580   13.2410   63.5180 C   0  0  1  0  0  0
   52.3200   11.7900   63.1370 C   0  0  0  0  0  0
   53.1240   14.0850   63.9750 C   0  0  0  0  0  0
   53.5110   11.7130   62.1440 C   0  0  0  0  0  0
   54.4710   13.7030   63.3540 C   0  0  0  0  0  0
   52.7490   15.4700   60.5080 C   0  0  0  0  0  0
   51.4550   15.9920   61.0730 C   0  0  0  0  0  0
   50.9810   15.2650   62.3420 C   0  0  0  0  0  0
   52.9920   14.9620   59.2880 C   0  0  0  0  0  0
   51.9800   14.7950   58.1710 C   0  0  0  0  0  0
   54.3790   14.5010   58.9300 C   0  0  0  0  0  0
   54.6580   12.6380   62.5290 C   0  0  0  0  0  0
   56.0030   12.2960   61.9430 C   0  0  0  0  0  0
   51.1250   13.8130   62.4020 N   0  3  2  0  0  0
   49.7750   13.2690   62.1450 C   0  0  0  0  0  0
   51.0978   13.2677   64.3126 H   0  0  0  0  0  0
   52.6353   11.2553   64.0451 H   0  0  0  0  0  0
   51.4849   11.2512   62.6656 H   0  0  0  0  0  0
   52.9696   15.1441   63.7212 H   0  0  0  0  0  0
   53.2589   13.9843   65.0620 H   0  0  0  0  0  0
   53.9013   10.6849   62.1186 H   0  0  0  0  0  0
   53.1694   12.0004   61.1387 H   0  0  0  0  0  0
   55.3193   14.3534   63.6134 H   0  0  0  0  0  0
   53.5623   15.5439   61.2450 H   0  0  0  0  0  0
   51.5711   17.0541   61.3346 H   0  0  0  0  0  0
   50.6575   15.8842   60.3231 H   0  0  0  0  0  0
   51.5411   15.6411   63.2108 H   0  0  0  0  0  0
   49.9068   15.4492   62.4905 H   0  0  0  0  0  0
   50.9969   15.1531   58.5104 H   0  0  0  0  0  0
   51.9085   13.7321   57.8969 H   0  0  0  0  0  0
   52.3006   15.3787   57.2955 H   0  0  0  0  0  0
   55.0495   14.6549   59.7884 H   0  0  0  0  0  0
   54.7467   15.0789   58.0693 H   0  0  0  0  0  0
   54.3546   13.4323   58.6707 H   0  0  0  0  0  0
   55.9107   11.4001   61.3114 H   0  0  0  0  0  0
   56.7178   12.0996   62.7557 H   0  0  0  0  0  0
   56.3626   13.1385   61.3340 H   0  0  0  0  0  0
   51.8507   13.4926   61.6400 H   0  0  0  0  0  0
   49.8106   12.1700   62.1758 H   0  0  0  0  0  0
   49.4302   13.5971   61.1533 H   0  0  0  0  0  0
   49.0796   13.6351   62.9146 H   0  0  0  0  0  0
  1  2  1  0  0  0
  1  3  1  0  0  0
  1 14  1  0  0  0
  1 16  1  0  0  0
  2  4  1  0  0  0
  2 17  1  0  0  0
  2 18  1  0  0  0
  3  5  1  0  0  0
  3 19  1  0  0  0
  3 20  1  0  0  0
  4 12  1  0  0  0
  4 21  1  0  0  0
  4 22  1  0  0  0
  5 12  2  0  0  0
  5 23  1  0  0  0
  6  7  1  0  0  0
  6  9  2  0  0  0
  6 24  1  0  0  0
  7  8  1  0  0  0
  7 25  1  0  0  0
  7 26  1  0  0  0
  8 14  1  0  0  0
  8 27  1  0  0  0
  8 28  1  0  0  0
  9 10  1  0  0  0
  9 11  1  0  0  0
 10 29  1  0  0  0
 10 30  1  0  0  0
 10 31  1  0  0  0
 11 32  1  0  0  0
 11 33  1  0  0  0
 11 34  1  0  0  0
 12 13  1  0  0  0
 13 35  1  0  0  0
 13 36  1  0  0  0
 13 37  1  0  0  0
 14 15  1  0  0  0
 14 38  1  0  0  0
 15 39  1  0  0  0
 15 40  1  0  0  0
 15 41  1  0  0  0
M  CHG  1  14   1
M  END
> <s_m_source_file>
../1yys_ligand.sdf

> <i_m_source_file_index>
1

> <s_epik_input>
W0NIMl0xW0NIXT1DKFtDSDNdKVtDSDJdW0NIMl1bQ0BASF0xW05AQEgrXShbQ0gzXSlbQ0gyXVtDSDJdW0NIXT1DKFtDSDNdKVtDSDNd

> <s_epik_cmdline>
J2VwaWtfYXBwJywgJy1pbWFlJywgJ2xpZ2FuZF9wcm8ubWFlJywgJy1vbWFlJywgJ2xpZ2FuZF9wcmVwLm1hZScsICctbXMnLCAnMScsICctcGgnLCAnNycsICctcGh0JywgJzAuNScsICctbnQn

> <r_lp_tautomer_probability>
1

> <r_epik_Ionization_Penalty>
  0.0022

> <r_epik_Ionization_Penalty_Charging>
  0.0022

> <r_epik_Ionization_Penalty_Neutral>
  0.0000

> <r_epik_State_Penalty>
 -0.0000

> <r_epik_Charging_Adjusted_Penalty>
0.0022414392414298

> <i_epik_Tot_Q>
1

> <i_epik_Tot_abs_Q>
1

$$$$
