1yyy_ligand
                    3D
 Schrodinger Suite 2020-3.
 58 59  0  0  1  0            999 V2000
   24.1170    5.6950   29.9690 S   0  0  0  0  0  0
   23.2240    6.1850   28.9230 O   0  0  0  0  0  0
   23.3720    4.9650   30.9930 O   0  0  0  0  0  0
   25.2070    4.6360   29.2610 N   0  0  3  0  0  0
   25.6080    3.3340   29.6730 C   0  0  1  0  0  0
   26.1630    3.3970   31.0710 C   0  0  0  0  0  0
   26.3840    2.0510   31.7140 C   0  0  0  0  0  0
   24.5160    2.2170   29.5080 C   0  0  0  0  0  0
   25.2270    1.0820   31.6160 C   0  0  0  0  0  0
   23.7770    2.4060   28.5310 O   0  0  0  0  0  0
   24.5500    1.1280   30.2950 N   0  0  0  0  0  0
   23.5560    0.0650   29.9410 C   0  0  0  0  0  0
   22.3610    0.9520   30.3660 C   0  0  0  0  0  0
   22.1550    1.3880   31.5460 O   0  0  0  0  0  0
   19.9660    2.0220   28.2830 C   0  0  2  0  0  0
   20.1020    2.0220   26.7530 C   0  0  0  0  0  0
   21.4210    0.2370   29.5930 N   0  0  0  0  0  0
   20.0270    0.4370   30.0990 C   0  0  2  0  0  0
   19.5200   -0.6460   31.0470 C   0  0  0  0  0  0
   18.0960   -0.5750   31.1730 O   0  0  0  0  0  0
   19.1230    0.8780   28.9040 C   0  0  0  0  0  0
   20.0210    3.8610   24.9590 C   0  0  0  0  0  0
   20.4800    3.3890   26.2550 N   0  0  0  0  0  0
   21.2770    4.2670   27.2060 C   0  0  0  0  0  0
   20.4380    4.6230   28.4460 C   0  0  0  0  0  0
   19.7210    3.3550   29.0270 C   0  0  0  0  0  0
   20.2210    5.1190   24.6300 N   0  0  0  0  0  0
   19.4280    2.9970   24.1840 N   0  3  0  0  0  0
   25.6491    4.9758   28.4069 H   0  0  0  0  0  0
   26.4198    3.1194   28.9624 H   0  0  0  0  0  0
   27.1362    3.9095   31.0564 H   0  0  0  0  0  0
   25.4665    3.9511   31.7174 H   0  0  0  0  0  0
   27.2438    1.5549   31.2399 H   0  0  0  0  0  0
   26.5844    2.1857   32.7872 H   0  0  0  0  0  0
   25.5935    0.0565   31.7708 H   0  0  0  0  0  0
   24.4796    1.3243   32.3858 H   0  0  0  0  0  0
   23.6459   -0.1798   28.8724 H   0  0  0  0  0  0
   23.7527   -0.8355   30.5413 H   0  0  0  0  0  0
   21.0297    1.8108   28.4674 H   0  0  0  0  0  0
   20.8817    1.3059   26.4542 H   0  0  0  0  0  0
   19.1431    1.7303   26.2996 H   0  0  0  0  0  0
   21.6019   -0.4057   28.7188 H   0  0  0  0  0  0
   20.0436    1.2569   30.8322 H   0  0  0  0  0  0
   19.7951   -1.6357   30.6536 H   0  0  0  0  0  0
   19.9740   -0.5067   32.0392 H   0  0  0  0  0  0
   17.5651   -1.2871   31.8219 H   0  0  0  0  0  0
   18.1461    1.2725   29.2204 H   0  0  0  0  0  0
   18.9735    0.0852   28.1563 H   0  0  0  0  0  0
   22.1812    3.7306   27.5295 H   0  0  0  0  0  0
   21.5658    5.1959   26.6925 H   0  0  0  0  0  0
   21.0929    5.0435   29.2234 H   0  0  0  0  0  0
   19.6731    5.3640   28.1708 H   0  0  0  0  0  0
   18.6459    3.5875   29.0184 H   0  0  0  0  0  0
   20.0680    3.2637   30.0668 H   0  0  0  0  0  0
   20.7289    5.7970   25.3317 H   0  0  0  0  0  0
   19.8803    5.4929   23.6532 H   0  0  0  0  0  0
   19.2924    1.9585   24.5205 H   0  0  0  0  0  0
   19.0631    3.3063   23.1935 H   0  0  0  0  0  0
  1  2  1  0  0  0
  1  3  1  0  0  0
  1  4  1  0  0  0
  4  5  1  0  0  0
  4 29  1  0  0  0
  5  6  1  0  0  0
  5  8  1  0  0  0
  5 30  1  0  0  0
  6  7  1  0  0  0
  6 31  1  0  0  0
  6 32  1  0  0  0
  7  9  1  0  0  0
  7 33  1  0  0  0
  7 34  1  0  0  0
  8 10  2  0  0  0
  8 11  1  0  0  0
  9 11  1  0  0  0
  9 35  1  0  0  0
  9 36  1  0  0  0
 11 12  1  0  0  0
 12 13  1  0  0  0
 12 37  1  0  0  0
 12 38  1  0  0  0
 13 14  2  0  0  0
 13 17  1  0  0  0
 15 16  1  0  0  0
 15 21  1  0  0  0
 15 26  1  0  0  0
 15 39  1  0  0  0
 16 23  1  0  0  0
 16 40  1  0  0  0
 16 41  1  0  0  0
 17 18  1  0  0  0
 17 42  1  0  0  0
 18 19  1  0  0  0
 18 21  1  0  0  0
 18 43  1  0  0  0
 19 20  1  0  0  0
 19 44  1  0  0  0
 19 45  1  0  0  0
 20 46  1  0  0  0
 21 47  1  0  0  0
 21 48  1  0  0  0
 22 23  1  0  0  0
 22 27  1  0  0  0
 22 28  2  0  0  0
 23 24  1  0  0  0
 24 25  1  0  0  0
 24 49  1  0  0  0
 24 50  1  0  0  0
 25 26  1  0  0  0
 25 51  1  0  0  0
 25 52  1  0  0  0
 26 53  1  0  0  0
 26 54  1  0  0  0
 27 55  1  0  0  0
 27 56  1  0  0  0
 28 57  1  0  0  0
 28 58  1  0  0  0
M  CHG  1  28   1
M  END
> <s_m_source_file>
../1yyy_ligand.sdf

> <i_m_source_file_index>
1

> <s_epik_input>
W09IXVtTSF0oW09IXSlbTkhdW0NASF0xW0NIMl1bQ0gyXVtDSDJdTihDMT1PKVtDSDJdQyg9TylbTkhdW0NASF0oW0NIMl1bT0hdKVtDSDJdW0NASF0yW0NIMl1OKC9DKFtOSDJdKT1OXFtIXSlbQ0gyXVtDSDJdW0NIMl0y

> <s_epik_cmdline>
J2VwaWtfYXBwJywgJy1pbWFlJywgJ2xpZ2FuZF9wcm8ubWFlJywgJy1vbWFlJywgJ2xpZ2FuZF9wcmVwLm1hZScsICctbXMnLCAnMScsICctcGgnLCAnNycsICctcGh0JywgJzAuNScsICctbnQn

> <r_lp_tautomer_probability>
1

> <r_epik_Ionization_Penalty>
  0.0001

> <r_epik_Ionization_Penalty_Charging>
  0.0000

> <r_epik_Ionization_Penalty_Neutral>
  0.0001

> <r_epik_State_Penalty>
 -0.0000

> <r_epik_Charging_Adjusted_Penalty>
4.71302853071392e-06

> <i_epik_Tot_Q>
1

> <i_epik_Tot_abs_Q>
1

> <s_epik_Chemistry_Notes>
This compound has an imine and may undergo hydrolysis.

$$$$
