1yz3_ligand
                    3D
 Schrodinger Suite 2020-3.
 22 23  0  0  1  0            999 V2000
   26.6830   41.4430   16.4840 Cl  0  0  0  0  0  0
   27.2580   43.0760   16.4370 C   0  0  0  0  0  0
   27.8860   43.6150   17.5590 C   0  0  0  0  0  0
   28.0740   42.8070   18.8460 C   0  0  0  0  0  0
   29.1060   43.4070   19.7110 N   0  3  0  0  0  0
   28.8180   44.8240   19.9750 C   0  0  0  0  0  0
   29.0420   45.6150   18.6840 C   0  0  0  0  0  0
   28.3320   44.9360   17.5080 C   0  0  0  0  0  0
   28.1520   45.6970   16.3600 C   0  0  0  0  0  0
   27.5240   45.1510   15.2430 C   0  0  0  0  0  0
   27.0760   43.8370   15.2820 C   0  0  0  0  0  0
   26.3020   43.1920   13.8760 Cl  0  0  0  0  0  0
   27.1256   42.7778   19.4024 H   0  0  0  0  0  0
   28.3827   41.7818   18.5936 H   0  0  0  0  0  0
   29.1376   42.8701   20.6705 H   0  0  0  0  0  0
   30.0863   43.3336   19.2173 H   0  0  0  0  0  0
   27.7738   44.9308   20.3039 H   0  0  0  0  0  0
   29.4903   45.1942   20.7631 H   0  0  0  0  0  0
   28.6418   46.6326   18.8034 H   0  0  0  0  0  0
   30.1194   45.6677   18.4685 H   0  0  0  0  0  0
   28.5045   46.7281   16.3331 H   0  0  0  0  0  0
   27.3850   45.7513   14.3439 H   0  0  0  0  0  0
  1  2  1  0  0  0
  2  3  2  0  0  0
  2 11  1  0  0  0
  3  4  1  0  0  0
  3  8  1  0  0  0
  4  5  1  0  0  0
  4 13  1  0  0  0
  4 14  1  0  0  0
  5  6  1  0  0  0
  5 15  1  0  0  0
  5 16  1  0  0  0
  6  7  1  0  0  0
  6 17  1  0  0  0
  6 18  1  0  0  0
  7  8  1  0  0  0
  7 19  1  0  0  0
  7 20  1  0  0  0
  8  9  2  0  0  0
  9 10  1  0  0  0
  9 21  1  0  0  0
 10 11  2  0  0  0
 10 22  1  0  0  0
 11 12  1  0  0  0
M  CHG  1   5   1
M  END
> <s_m_source_file>
../1yz3_ligand.sdf

> <i_m_source_file_index>
1

> <s_epik_input>
Q2xjMWMoQ2wpW2NIXVtjSF1jKGMxMilbQ0gyXVtDSDJdW05IMitdW0NIMl0y

> <s_epik_cmdline>
J2VwaWtfYXBwJywgJy1pbWFlJywgJ2xpZ2FuZF9wcm8ubWFlJywgJy1vbWFlJywgJ2xpZ2FuZF9wcmVwLm1hZScsICctbXMnLCAnMScsICctcGgnLCAnNycsICctcGh0JywgJzAuNScsICctbnQn

> <r_epik_Ionization_Penalty>
  0.0164

> <r_epik_Ionization_Penalty_Charging>
  0.0164

> <r_epik_Ionization_Penalty_Neutral>
  0.0000

> <r_epik_State_Penalty>
  0.0129

> <r_epik_Charging_Adjusted_Penalty>
0.0292603137864528

> <i_epik_Tot_Q>
1

> <i_epik_Tot_abs_Q>
1

$$$$
