1z1h_ligand
                    3D
 Schrodinger Suite 2020-3.
 83 85  0  0  1  0            999 V2000
    5.6690   -0.2380   14.3420 C   0  0  2  0  0  0
    7.0830    0.3740   14.2550 C   0  0  0  0  0  0
    7.3480    1.0860   12.9450 C   0  0  0  0  0  0
    7.7410    1.0220   10.5540 C   0  0  0  0  0  0
    7.6060    0.3700   11.7680 C   0  0  0  0  0  0
    6.3250    3.0840    8.7760 C   0  0  0  0  0  0
    5.4980    4.2530    9.3600 C   0  0  0  0  0  0
    4.0010    3.9610    9.4690 C   0  0  0  0  0  0
    3.5620    3.4240   10.8200 C   0  0  0  0  0  0
    2.9730    1.4640   12.1810 C   0  0  1  0  0  0
    0.5440    2.0780   11.8760 C   0  0  0  0  0  0
    3.9260    0.3660   12.6940 C   0  0  0  0  0  0
    6.3700   -2.8180   15.8170 N   0  0  1  0  0  0
    5.7070   -3.5950   16.8920 C   0  0  0  0  0  0
    2.9350   -2.8440   16.3270 C   0  0  0  0  0  0
    2.5690   -5.0460   15.2300 C   0  0  0  0  0  0
    8.5290   -4.5040   15.7960 C   0  0  0  0  0  0
    7.2450    2.4740   12.8640 C   0  0  0  0  0  0
    7.3790    3.1270   11.6580 C   0  0  0  0  0  0
    7.6180    2.3990   10.5040 C   0  0  0  0  0  0
    7.6630    3.0550    9.2910 O   0  0  0  0  0  0
    3.4350    4.1870   11.7850 O   0  0  0  0  0  0
    3.3970    2.1030   10.9100 N   0  0  0  0  0  0
    1.5280    0.9200   12.0730 C   0  0  0  0  0  0
    1.1470    0.1320   13.3060 C   0  0  0  0  0  0
    3.9570   -0.7550   12.1550 O   0  0  0  0  0  0
    4.6820    0.6980   13.7470 N   0  0  0  0  0  0
    5.3120   -0.5480   15.8090 C   0  0  2  0  0  0
    5.2570    0.6650   16.5620 O   0  0  0  0  0  0
    6.3430   -1.4910   16.4480 C   0  0  0  0  0  0
    4.7980   -4.5350   16.1180 C   0  0  0  0  0  0
    3.3010   -4.3200   16.3450 C   0  0  0  0  0  0
    7.5240   -3.5430   14.8840 S   0  0  0  0  0  0
    8.3440   -2.5090   14.2480 O   0  0  0  0  0  0
    6.8690   -4.3280   13.8480 O   0  0  0  0  0  0
    9.6660   -3.9610   16.4060 C   0  0  0  0  0  0
   10.5150   -4.7580   17.1720 C   0  0  0  0  0  0
   10.2400   -6.1120   17.3280 C   0  0  0  0  0  0
    9.1120   -6.6680   16.7230 C   0  0  0  0  0  0
    8.2660   -5.8630   15.9600 C   0  0  0  0  0  0
    5.6165   -1.1659   13.7536 H   0  0  0  0  0  0
    7.2152    1.1080   15.0636 H   0  0  0  0  0  0
    7.8344   -0.4229   14.3567 H   0  0  0  0  0  0
    7.9425    0.4550    9.6452 H   0  0  0  0  0  0
    7.7017   -0.7150   11.8089 H   0  0  0  0  0  0
    5.8409    2.1295    9.0302 H   0  0  0  0  0  0
    6.3826    3.1861    7.6823 H   0  0  0  0  0  0
    5.8581    4.4868   10.3728 H   0  0  0  0  0  0
    5.6104    5.1386    8.7173 H   0  0  0  0  0  0
    3.4331    4.8864    9.2923 H   0  0  0  0  0  0
    3.7186    3.2084    8.7181 H   0  0  0  0  0  0
    3.0294    2.2955   12.8989 H   0  0  0  0  0  0
    0.8244    2.6487   10.9784 H   0  0  0  0  0  0
    0.5746    2.7387   12.7550 H   0  0  0  0  0  0
   -0.4733    1.6779   11.7532 H   0  0  0  0  0  0
    6.4674   -4.1294   17.4805 H   0  0  0  0  0  0
    5.1494   -2.9108   17.5484 H   0  0  0  0  0  0
    1.8534   -2.7324   16.4933 H   0  0  0  0  0  0
    3.2026   -2.4118   15.3515 H   0  0  0  0  0  0
    3.4844   -2.3203   17.1232 H   0  0  0  0  0  0
    1.4843   -4.9152   15.3576 H   0  0  0  0  0  0
    2.8159   -6.1173   15.2661 H   0  0  0  0  0  0
    2.8766   -4.6313   14.2587 H   0  0  0  0  0  0
    7.0555    3.0516   13.7687 H   0  0  0  0  0  0
    7.2972    4.2130   11.6122 H   0  0  0  0  0  0
    3.5816    1.4853   10.0187 H   0  0  0  0  0  0
    1.4680    0.2344   11.2149 H   0  0  0  0  0  0
    1.8554   -0.6981   13.4440 H   0  0  0  0  0  0
    0.1303   -0.2700   13.1846 H   0  0  0  0  0  0
    1.1781    0.7908   14.1863 H   0  0  0  0  0  0
    4.5526    1.7043   14.1721 H   0  0  0  0  0  0
    4.3047   -0.9863   15.8657 H   0  0  0  0  0  0
    4.5719    1.4703   16.2583 H   0  0  0  0  0  0
    6.0870   -1.5964   17.5126 H   0  0  0  0  0  0
    7.3325   -1.0199   16.3537 H   0  0  0  0  0  0
    4.9740   -4.4098   15.0394 H   0  0  0  0  0  0
    5.0141   -5.5743   16.4065 H   0  0  0  0  0  0
    3.0113   -4.7085   17.3325 H   0  0  0  0  0  0
    9.8902   -2.9017   16.2804 H   0  0  0  0  0  0
   11.3928   -4.3207   17.6478 H   0  0  0  0  0  0
   10.9049   -6.7387   17.9224 H   0  0  0  0  0  0
    8.8926   -7.7285   16.8463 H   0  0  0  0  0  0
    7.3882   -6.3022   15.4861 H   0  0  0  0  0  0
  1  2  1  0  0  0
  1 27  1  0  0  0
  1 28  1  0  0  0
  1 41  1  0  0  0
  2  3  1  0  0  0
  2 42  1  0  0  0
  2 43  1  0  0  0
  3  5  2  0  0  0
  3 18  1  0  0  0
  4  5  1  0  0  0
  4 20  2  0  0  0
  4 44  1  0  0  0
  5 45  1  0  0  0
  6  7  1  0  0  0
  6 21  1  0  0  0
  6 46  1  0  0  0
  6 47  1  0  0  0
  7  8  1  0  0  0
  7 48  1  0  0  0
  7 49  1  0  0  0
  8  9  1  0  0  0
  8 50  1  0  0  0
  8 51  1  0  0  0
  9 22  2  0  0  0
  9 23  1  0  0  0
 10 12  1  0  0  0
 10 23  1  0  0  0
 10 24  1  0  0  0
 10 52  1  0  0  0
 11 24  1  0  0  0
 11 53  1  0  0  0
 11 54  1  0  0  0
 11 55  1  0  0  0
 12 26  2  0  0  0
 12 27  1  0  0  0
 13 14  1  0  0  0
 13 30  1  0  0  0
 13 33  1  0  0  0
 14 31  1  0  0  0
 14 56  1  0  0  0
 14 57  1  0  0  0
 15 32  1  0  0  0
 15 58  1  0  0  0
 15 59  1  0  0  0
 15 60  1  0  0  0
 16 32  1  0  0  0
 16 61  1  0  0  0
 16 62  1  0  0  0
 16 63  1  0  0  0
 17 33  1  0  0  0
 17 36  2  0  0  0
 17 40  1  0  0  0
 18 19  2  0  0  0
 18 64  1  0  0  0
 19 20  1  0  0  0
 19 65  1  0  0  0
 20 21  1  0  0  0
 23 66  1  0  0  0
 24 25  1  0  0  0
 24 67  1  0  0  0
 25 68  1  0  0  0
 25 69  1  0  0  0
 25 70  1  0  0  0
 27 71  1  0  0  0
 28 29  1  0  0  0
 28 30  1  0  0  0
 28 72  1  0  0  0
 29 73  1  0  0  0
 30 74  1  0  0  0
 30 75  1  0  0  0
 31 32  1  0  0  0
 31 76  1  0  0  0
 31 77  1  0  0  0
 32 78  1  0  0  0
 33 34  2  0  0  0
 33 35  2  0  0  0
 36 37  1  0  0  0
 36 79  1  0  0  0
 37 38  2  0  0  0
 37 80  1  0  0  0
 38 39  1  0  0  0
 38 81  1  0  0  0
 39 40  2  0  0  0
 39 82  1  0  0  0
 40 83  1  0  0  0
M  END
> <s_m_source_file>
../1z1h_ligand.sdf

> <i_m_source_file_index>
1

> <s_epik_input>
W2NIXTFbY0hdW2NIXVtjSF1bY0hdYzFTKD1PKSg9TylOKFtDSDJdW0NIMl1bQ0hdKFtDSDNdKVtDSDNdKVtDSDJdW0NAQEhdKFtPSF0pW0NASF0oW0NIMl0yKVtOSF1DKD1PKVtDQEhdKFtDSF0oW0NIM10pW0NIM10pW05IXUMoPU8pW0NIMl1bQ0gyXVtDSDJdT2MoW2NIXVtjSF1jMjMpW2NIXVtjSF0z

> <s_epik_cmdline>
J2VwaWtfYXBwJywgJy1pbWFlJywgJ2xpZ2FuZF9wcm8ubWFlJywgJy1vbWFlJywgJ2xpZ2FuZF9wcmVwLm1hZScsICctbXMnLCAnMScsICctcGgnLCAnNycsICctcGh0JywgJzAuNScsICctbnQn

> <r_lp_tautomer_probability>
1

> <r_epik_Ionization_Penalty>
  0.0000

> <r_epik_Ionization_Penalty_Charging>
  0.0000

> <r_epik_Ionization_Penalty_Neutral>
  0.0000

> <r_epik_State_Penalty>
 -0.0000

> <r_epik_Charging_Adjusted_Penalty>
0

> <i_epik_Tot_Q>
0

> <i_epik_Tot_abs_Q>
0

$$$$
