1z1r_ligand
                    3D
 Schrodinger Suite 2020-3.
 81 83  0  0  1  0            999 V2000
    5.6850   -0.2960   14.4600 C   0  0  2  0  0  0
    7.1250    0.2420   14.3620 C   0  0  0  0  0  0
    7.4020    0.9190   13.0430 C   0  0  0  0  0  0
    7.7330    0.7960   10.6500 C   0  0  0  0  0  0
    7.5870    0.1730   11.8780 C   0  0  0  0  0  0
    6.5490    2.8780    8.7310 C   0  0  0  0  0  0
    5.7610    4.0910    9.2080 C   0  0  0  0  0  0
    4.3070    3.7750    9.3580 C   0  0  0  0  0  0
    3.9320    3.3170   10.7640 C   0  0  0  0  0  0
    3.1990    1.4620   12.2020 C   0  0  1  0  0  0
    4.0640    0.3480   12.7220 C   0  0  0  0  0  0
    6.2170   -2.8610   15.9850 N   0  0  1  0  0  0
    5.2270   -3.6060   16.7740 C   0  0  0  0  0  0
    1.6910   -4.4470   15.4200 C   0  0  0  0  0  0
    3.0420   -5.5150   17.2380 C   0  0  0  0  0  0
    8.2900   -4.5910   15.9910 C   0  0  0  0  0  0
    7.3740    2.3070   12.9430 C   0  0  0  0  0  0
    7.5200    2.9430   11.7220 C   0  0  0  0  0  0
    7.6920    2.1800   10.5770 C   0  0  0  0  0  0
    7.8190    2.8080    9.3610 O   0  0  0  0  0  0
    3.9510    4.1070   11.7290 O   0  0  0  0  0  0
    3.6480    2.0210   10.9110 N   0  0  0  0  0  0
    1.7660    0.9750   12.0350 C   0  0  0  0  0  0
    0.8690    2.0680   11.5360 C   0  0  0  0  0  0
    0.4180    2.9210   12.3060 O   0  0  0  0  0  0
    0.8040    2.1970   10.2320 N   0  0  0  0  0  0
    4.0400   -0.7810   12.2170 O   0  0  0  0  0  0
    4.7750    0.6520   13.7970 N   0  0  0  0  0  0
    5.3000   -0.5290   15.9290 C   0  0  2  0  0  0
    5.3350    0.7120   16.6410 O   0  0  0  0  0  0
    6.2590   -1.5220   16.5990 C   0  0  0  0  0  0
    4.0360   -3.7100   15.8310 C   0  0  0  0  0  0
    2.7570   -4.2270   16.4850 C   0  0  0  0  0  0
    7.3120   -3.6550   15.0540 S   0  0  0  0  0  0
    8.1270   -2.6700   14.3560 O   0  0  0  0  0  0
    6.6060   -4.4850   14.0820 O   0  0  0  0  0  0
    9.3220   -4.0080   16.7210 C   0  0  0  0  0  0
   10.1600   -4.7870   17.5150 C   0  0  0  0  0  0
    9.9680   -6.1650   17.5780 C   0  0  0  0  0  0
    8.9390   -6.7590   16.8530 C   0  0  0  0  0  0
    8.1050   -5.9700   16.0630 C   0  0  0  0  0  0
    5.5747   -1.2489   13.9216 H   0  0  0  0  0  0
    7.2969    0.9772   15.1619 H   0  0  0  0  0  0
    7.8357   -0.5906   14.4703 H   0  0  0  0  0  0
    7.8791    0.2027    9.7473 H   0  0  0  0  0  0
    7.6170   -0.9151   11.9356 H   0  0  0  0  0  0
    5.9897    1.9610    8.9682 H   0  0  0  0  0  0
    6.7009    2.9439    7.6435 H   0  0  0  0  0  0
    6.1485    4.4194   10.1837 H   0  0  0  0  0  0
    5.8666    4.9071    8.4780 H   0  0  0  0  0  0
    3.7116    4.6718    9.1315 H   0  0  0  0  0  0
    4.0335    2.9680    8.6624 H   0  0  0  0  0  0
    3.2920    2.2766   12.9353 H   0  0  0  0  0  0
    5.6380   -4.5903   17.0429 H   0  0  0  0  0  0
    4.9906   -3.0447   17.6900 H   0  0  0  0  0  0
    0.7708   -4.8194   15.8938 H   0  0  0  0  0  0
    2.0510   -5.1848   14.6879 H   0  0  0  0  0  0
    1.4813   -3.4957   14.9091 H   0  0  0  0  0  0
    2.1152   -5.8793   17.7053 H   0  0  0  0  0  0
    3.7953   -5.3254   18.0168 H   0  0  0  0  0  0
    3.4218   -6.2730   16.5372 H   0  0  0  0  0  0
    7.2344    2.9049   13.8436 H   0  0  0  0  0  0
    7.5000    4.0311   11.6614 H   0  0  0  0  0  0
    3.7568    1.3642   10.0353 H   0  0  0  0  0  0
    1.7421    0.1472   11.3110 H   0  0  0  0  0  0
    1.3823    0.6251   13.0047 H   0  0  0  0  0  0
    1.2182    1.4134    9.5805 H   0  0  0  0  0  0
    0.3353    3.0887    9.7902 H   0  0  0  0  0  0
    4.6596    1.6719   14.1926 H   0  0  0  0  0  0
    4.2632   -0.8906   15.9944 H   0  0  0  0  0  0
    4.7100    1.5542   16.3093 H   0  0  0  0  0  0
    5.9779   -1.5961   17.6599 H   0  0  0  0  0  0
    7.2768   -1.1128   16.5171 H   0  0  0  0  0  0
    3.8066   -2.7162   15.4191 H   0  0  0  0  0  0
    4.2779   -4.4004   15.0095 H   0  0  0  0  0  0
    2.3845   -3.4858   17.2075 H   0  0  0  0  0  0
    9.4759   -2.9301   16.6706 H   0  0  0  0  0  0
   10.9632   -4.3200   18.0850 H   0  0  0  0  0  0
   10.6240   -6.7787   18.1954 H   0  0  0  0  0  0
    8.7861   -7.8371   16.9029 H   0  0  0  0  0  0
    7.2997   -6.4366   15.4956 H   0  0  0  0  0  0
  1  2  1  0  0  0
  1 28  1  0  0  0
  1 29  1  0  0  0
  1 42  1  0  0  0
  2  3  1  0  0  0
  2 43  1  0  0  0
  2 44  1  0  0  0
  3  5  2  0  0  0
  3 17  1  0  0  0
  4  5  1  0  0  0
  4 19  2  0  0  0
  4 45  1  0  0  0
  5 46  1  0  0  0
  6  7  1  0  0  0
  6 20  1  0  0  0
  6 47  1  0  0  0
  6 48  1  0  0  0
  7  8  1  0  0  0
  7 49  1  0  0  0
  7 50  1  0  0  0
  8  9  1  0  0  0
  8 51  1  0  0  0
  8 52  1  0  0  0
  9 21  2  0  0  0
  9 22  1  0  0  0
 10 11  1  0  0  0
 10 22  1  0  0  0
 10 23  1  0  0  0
 10 53  1  0  0  0
 11 27  2  0  0  0
 11 28  1  0  0  0
 12 13  1  0  0  0
 12 31  1  0  0  0
 12 34  1  0  0  0
 13 32  1  0  0  0
 13 54  1  0  0  0
 13 55  1  0  0  0
 14 33  1  0  0  0
 14 56  1  0  0  0
 14 57  1  0  0  0
 14 58  1  0  0  0
 15 33  1  0  0  0
 15 59  1  0  0  0
 15 60  1  0  0  0
 15 61  1  0  0  0
 16 34  1  0  0  0
 16 37  2  0  0  0
 16 41  1  0  0  0
 17 18  2  0  0  0
 17 62  1  0  0  0
 18 19  1  0  0  0
 18 63  1  0  0  0
 19 20  1  0  0  0
 22 64  1  0  0  0
 23 24  1  0  0  0
 23 65  1  0  0  0
 23 66  1  0  0  0
 24 25  2  0  0  0
 24 26  1  0  0  0
 26 67  1  0  0  0
 26 68  1  0  0  0
 28 69  1  0  0  0
 29 30  1  0  0  0
 29 31  1  0  0  0
 29 70  1  0  0  0
 30 71  1  0  0  0
 31 72  1  0  0  0
 31 73  1  0  0  0
 32 33  1  0  0  0
 32 74  1  0  0  0
 32 75  1  0  0  0
 33 76  1  0  0  0
 34 35  2  0  0  0
 34 36  2  0  0  0
 37 38  1  0  0  0
 37 77  1  0  0  0
 38 39  2  0  0  0
 38 78  1  0  0  0
 39 40  1  0  0  0
 39 79  1  0  0  0
 40 41  2  0  0  0
 40 80  1  0  0  0
 41 81  1  0  0  0
M  END
> <s_m_source_file>
../1z1r_ligand.sdf

> <i_m_source_file_index>
1

> <s_epik_input>
W2NIXTFbY0hdW2NIXVtjSF1bY0hdYzFTKD1PKSg9TylOKFtDSDJdW0NIMl1bQ0hdKFtDSDNdKVtDSDNdKVtDSDJdW0NAQEhdKFtPSF0pW0NASF0oW0NIMl0yKVtOSF1DKD1PKVtDQEhdKFtDSDJdQyg9TylbTkgyXSlbTkhdQyg9TylbQ0gyXVtDSDJdW0NIMl1PYyhbY0hdW2NIXWMyMylbY0hdW2NIXTM=

> <s_epik_cmdline>
J2VwaWtfYXBwJywgJy1pbWFlJywgJ2xpZ2FuZF9wcm8ubWFlJywgJy1vbWFlJywgJ2xpZ2FuZF9wcmVwLm1hZScsICctbXMnLCAnMScsICctcGgnLCAnNycsICctcGh0JywgJzAuNScsICctbnQn

> <r_lp_tautomer_probability>
1

> <r_epik_Ionization_Penalty>
  0.0000

> <r_epik_Ionization_Penalty_Charging>
  0.0000

> <r_epik_Ionization_Penalty_Neutral>
  0.0000

> <r_epik_State_Penalty>
 -0.0000

> <r_epik_Charging_Adjusted_Penalty>
0

> <i_epik_Tot_Q>
0

> <i_epik_Tot_abs_Q>
0

$$$$
