1z2b_ligand
                    3D
 Schrodinger Suite 2020-3.
117125  0  0  1  0            999 V2000
   94.5350   70.5200   -8.1990 C   0  0  0  0  0  0
   93.1840   70.0640   -7.6620 C   0  0  0  0  0  0
   92.1860   69.7000   -8.7540 C   0  0  1  0  0  0
   92.6970   68.5560   -9.4190 O   0  0  0  0  0  0
   90.8100   69.4440   -8.0870 C   0  0  0  0  0  0
   92.0490   70.8100   -9.7860 C   0  0  0  0  0  0
   90.9130   70.5330  -10.7560 C   0  0  1  0  0  0
   91.3910   69.5210  -11.8120 C   0  0  0  0  0  0
   89.6380   70.1930   -9.9770 C   0  0  0  0  0  0
   89.8180   69.0450   -9.0890 N   0  0  1  0  0  0
   90.3390   67.7600   -9.5970 C   0  0  0  0  0  0
   89.5650   66.9590  -10.6220 C   0  0  0  0  0  0
   88.9490   67.4680  -11.9110 C   0  0  0  0  0  0
   87.7400   66.9300  -12.2820 C   0  0  0  0  0  0
   86.9450   65.9690  -11.6740 C   0  0  0  0  0  0
   85.7470   65.6060  -12.2610 C   0  0  0  0  0  0
   85.3750   66.2020  -13.4560 C   0  0  0  0  0  0
   86.1730   67.1660  -14.0630 C   0  0  0  0  0  0
   87.3580   67.5250  -13.4650 C   0  0  0  0  0  0
   88.2900   68.3810  -13.8120 N   0  0  0  0  0  0
   89.2730   68.4100  -12.9000 C   0  0  0  0  0  0
   90.5010   69.3110  -13.0470 C   0  0  2  0  0  0
   91.1890   68.5510  -14.1680 C   0  0  0  0  0  0
   90.7070   68.5840  -15.3070 O   0  0  0  0  0  0
   92.3020   67.8130  -13.8930 O   0  0  0  0  0  0
   92.6980   67.0670  -15.0610 C   0  0  0  0  0  0
   90.1510   70.7410  -13.5700 C   0  0  0  0  0  0
   88.9500   71.3230  -13.1830 C   0  0  0  0  0  0
   88.5970   72.5930  -13.6000 C   0  0  0  0  0  0
   87.3710   73.4280  -13.3440 C   0  0  1  0  0  0
   86.2230   72.7720  -14.1220 C   0  0  1  0  0  0
   86.9340   73.3870  -11.8720 C   0  0  0  0  0  0
   85.5570   72.7280  -11.9390 C   0  0  0  0  0  0
   85.0830   73.0920  -13.2740 N   0  3  2  0  0  0
   83.9930   72.2450  -13.7050 C   0  0  0  0  0  0
   83.6550   72.7240  -14.9520 C   0  0  0  0  0  0
   84.6200   73.2310  -15.8250 C   0  0  0  0  0  0
   85.9840   73.3050  -15.5440 C   0  0  2  0  0  0
   86.7500   72.4580  -16.5530 C   0  0  0  0  0  0
   85.9230   71.2710  -17.0190 C   0  0  0  0  0  0
   86.4780   74.7560  -15.7740 C   0  0  1  0  0  0
   85.5910   75.4470  -16.5940 O   0  0  0  0  0  0
   86.1840   75.3800  -17.8010 C   0  0  0  0  0  0
   85.4010   75.3820  -18.9540 C   0  0  0  0  0  0
   87.4120   75.3000  -17.8460 O   0  0  0  0  0  0
   86.6910   75.5940  -14.5270 C   0  0  1  0  0  0
   87.0350   77.1300  -14.7670 C   0  0  0  0  0  0
   87.3290   77.8760  -13.8170 O   0  0  0  0  0  0
   87.0090   77.7070  -16.0210 O   0  0  0  0  0  0
   87.6480   79.0230  -16.0920 C   0  0  0  0  0  0
   85.4790   75.5310  -13.7800 O   0  0  0  0  0  0
   87.8090   74.8150  -13.7930 C   0  0  2  0  0  0
   88.9190   74.5030  -14.7200 N   0  0  0  0  0  0
   89.9960   75.4440  -14.4170 C   0  0  0  0  0  0
   89.4370   73.3120  -14.4300 C   0  0  0  0  0  0
   90.6400   72.7490  -14.8210 C   0  0  0  0  0  0
   91.0040   71.4830  -14.3980 C   0  0  0  0  0  0
   92.1900   70.9810  -14.8110 O   0  0  0  0  0  0
   92.7970   71.7550  -15.8420 C   0  0  0  0  0  0
   95.2003   70.7647   -7.3578 H   0  0  0  0  0  0
   94.3973   71.4112   -8.8289 H   0  0  0  0  0  0
   94.9827   69.7133   -8.7979 H   0  0  0  0  0  0
   93.3217   69.1728   -7.0321 H   0  0  0  0  0  0
   92.7362   70.8707   -7.0630 H   0  0  0  0  0  0
   92.8761   67.6274   -8.8571 H   0  0  0  0  0  0
   90.9074   68.6405   -7.3421 H   0  0  0  0  0  0
   90.4660   70.3637   -7.5913 H   0  0  0  0  0  0
   91.8453   71.7626   -9.2750 H   0  0  0  0  0  0
   92.9835   70.8943  -10.3601 H   0  0  0  0  0  0
   90.6312   71.4267  -11.3321 H   0  0  0  0  0  0
   92.3674   69.8375  -12.2076 H   0  0  0  0  0  0
   91.4871   68.5272  -11.3504 H   0  0  0  0  0  0
   89.3431   71.0559   -9.3618 H   0  0  0  0  0  0
   88.8297   69.9531  -10.6834 H   0  0  0  0  0  0
   91.3126   67.9250  -10.0816 H   0  0  0  0  0  0
   90.4606   67.0569   -8.7598 H   0  0  0  0  0  0
   90.2045   66.1574  -11.0199 H   0  0  0  0  0  0
   88.6763   66.5175  -10.1474 H   0  0  0  0  0  0
   87.2613   65.4969  -10.7322 H   0  0  0  0  0  0
   85.1043   64.8541  -11.7798 H   0  0  0  0  0  0
   84.4380   65.9092  -13.9296 H   0  0  0  0  0  0
   85.8682   67.6395  -15.0079 H   0  0  0  0  0  0
   93.5959   66.4748  -14.8308 H   0  0  0  0  0  0
   92.9189   67.7634  -15.8833 H   0  0  0  0  0  0
   91.8813   66.3935  -15.3602 H   0  0  0  0  0  0
   88.2715   70.7662  -12.5367 H   0  0  0  0  0  0
   86.3880   71.6942  -14.2677 H   0  0  0  0  0  0
   87.6573   72.7959  -11.2911 H   0  0  0  0  0  0
   86.8931   74.4113  -11.4730 H   0  0  0  0  0  0
   85.6642   71.6408  -11.8101 H   0  0  0  0  0  0
   84.9184   73.1308  -11.1391 H   0  0  0  0  0  0
   84.7270   74.1321  -13.3120 H   0  0  0  0  0  0
   84.3346   71.2002  -13.7460 H   0  0  0  0  0  0
   83.1587   72.3303  -12.9931 H   0  0  0  0  0  0
   82.5976   72.7008  -15.2544 H   0  0  0  0  0  0
   84.3225   73.6086  -16.8144 H   0  0  0  0  0  0
   87.0047   73.0724  -17.4292 H   0  0  0  0  0  0
   87.6732   72.0805  -16.0891 H   0  0  0  0  0  0
   86.5033   70.6820  -17.7444 H   0  0  0  0  0  0
   84.9993   71.6319  -17.4950 H   0  0  0  0  0  0
   85.6678   70.6401  -16.1548 H   0  0  0  0  0  0
   87.4351   74.6921  -16.3124 H   0  0  0  0  0  0
   84.3396   75.4611  -18.6763 H   0  0  0  0  0  0
   85.5658   74.4477  -19.5107 H   0  0  0  0  0  0
   85.6797   76.2388  -19.5850 H   0  0  0  0  0  0
   87.5824   79.4074  -17.1205 H   0  0  0  0  0  0
   88.7050   78.9336  -15.8007 H   0  0  0  0  0  0
   87.1366   79.7163  -15.4081 H   0  0  0  0  0  0
   84.5749   76.0326  -14.1554 H   0  0  0  0  0  0
   88.1184   75.4532  -12.9522 H   0  0  0  0  0  0
   89.6575   76.4691  -14.6282 H   0  0  0  0  0  0
   90.8721   75.2115  -15.0401 H   0  0  0  0  0  0
   90.2687   75.3594  -13.3547 H   0  0  0  0  0  0
   91.3100   73.3113  -15.4715 H   0  0  0  0  0  0
   93.7534   71.2949  -16.1311 H   0  0  0  0  0  0
   92.9774   72.7764  -15.4757 H   0  0  0  0  0  0
   92.1288   71.7912  -16.7150 H   0  0  0  0  0  0
  1  2  1  0  0  0
  1 60  1  0  0  0
  1 61  1  0  0  0
  1 62  1  0  0  0
  2  3  1  0  0  0
  2 63  1  0  0  0
  2 64  1  0  0  0
  3  4  1  0  0  0
  3  5  1  0  0  0
  3  6  1  0  0  0
  4 65  1  0  0  0
  5 10  1  0  0  0
  5 66  1  0  0  0
  5 67  1  0  0  0
  6  7  1  0  0  0
  6 68  1  0  0  0
  6 69  1  0  0  0
  7  8  1  0  0  0
  7  9  1  0  0  0
  7 70  1  0  0  0
  8 22  1  0  0  0
  8 71  1  0  0  0
  8 72  1  0  0  0
  9 10  1  0  0  0
  9 73  1  0  0  0
  9 74  1  0  0  0
 10 11  1  0  0  0
 11 12  1  0  0  0
 11 75  1  0  0  0
 11 76  1  0  0  0
 12 13  1  0  0  0
 12 77  1  0  0  0
 12 78  1  0  0  0
 13 14  2  0  0  0
 13 21  1  0  0  0
 14 15  1  0  0  0
 14 19  1  0  0  0
 15 16  2  0  0  0
 15 79  1  0  0  0
 16 17  1  0  0  0
 16 80  1  0  0  0
 17 18  1  0  0  0
 17 81  1  0  0  0
 18 19  2  0  0  0
 18 82  1  0  0  0
 19 20  1  0  0  0
 20 21  2  0  0  0
 21 22  1  0  0  0
 22 23  1  0  0  0
 22 27  1  0  0  0
 23 24  2  0  0  0
 23 25  1  0  0  0
 25 26  1  0  0  0
 26 83  1  0  0  0
 26 84  1  0  0  0
 26 85  1  0  0  0
 27 28  2  0  0  0
 27 57  1  0  0  0
 28 29  1  0  0  0
 28 86  1  0  0  0
 29 30  1  0  0  0
 29 55  2  0  0  0
 30 31  1  0  0  0
 30 32  1  0  0  0
 30 52  1  0  0  0
 31 34  1  0  0  0
 31 38  1  0  0  0
 31 87  1  0  0  0
 32 33  1  0  0  0
 32 88  1  0  0  0
 32 89  1  0  0  0
 33 34  1  0  0  0
 33 90  1  0  0  0
 33 91  1  0  0  0
 34 35  1  0  0  0
 34 92  1  0  0  0
 35 36  1  0  0  0
 35 93  1  0  0  0
 35 94  1  0  0  0
 36 37  2  0  0  0
 36 95  1  0  0  0
 37 38  1  0  0  0
 37 96  1  0  0  0
 38 39  1  0  0  0
 38 41  1  0  0  0
 39 40  1  0  0  0
 39 97  1  0  0  0
 39 98  1  0  0  0
 40 99  1  0  0  0
 40100  1  0  0  0
 40101  1  0  0  0
 41 42  1  0  0  0
 41 46  1  0  0  0
 41102  1  0  0  0
 42 43  1  0  0  0
 43 44  1  0  0  0
 43 45  2  0  0  0
 44103  1  0  0  0
 44104  1  0  0  0
 44105  1  0  0  0
 46 47  1  0  0  0
 46 51  1  0  0  0
 46 52  1  0  0  0
 47 48  2  0  0  0
 47 49  1  0  0  0
 49 50  1  0  0  0
 50106  1  0  0  0
 50107  1  0  0  0
 50108  1  0  0  0
 51109  1  0  0  0
 52 53  1  0  0  0
 52110  1  0  0  0
 53 54  1  0  0  0
 53 55  1  0  0  0
 54111  1  0  0  0
 54112  1  0  0  0
 54113  1  0  0  0
 55 56  1  0  0  0
 56 57  2  0  0  0
 56114  1  0  0  0
 57 58  1  0  0  0
 58 59  1  0  0  0
 59115  1  0  0  0
 59116  1  0  0  0
 59117  1  0  0  0
M  CHG  1  34   1
M  END
> <s_m_source_file>
../1z2b_ligand.sdf

> <i_m_source_file_index>
1

> <s_epik_input>
W0NIM11bQ0gyXVtDQF0oW09IXSkoW0NIMl1bQ0BASF0xMilbQ0gyXVtOQEBIK10oW0NIMl0yKVtDSDJdW0NIMl1DMz1DNEMoPVtDSF1bQ0gyXVtDSF09W0NIXTQpTj1DM1tDQEBdKFtDSDJdMSkoQyg9TylPW0NIM10pYyhbY0hdNSljKE9bQ0gzXSlbY0hdYyhjNVtDQEBdNjc4KU4oW0NIM10pW0NASF04W0NAQF0oW09IXSkoQyg9TylPW0NIM10pW0NASF0oT0MoPU8pW0NIM10pW0NAQF05KFtDSDJdW0NIM10pW0NAQEhdNltOQEgrXShbQ0gyXVtDSDJdNylbQ0gyXVtDSF09W0NIXTk=

> <s_epik_cmdline>
J2VwaWtfYXBwJywgJy1pbWFlJywgJ2xpZ2FuZF9wcm8ubWFlJywgJy1vbWFlJywgJ2xpZ2FuZF9wcmVwLm1hZScsICctbXMnLCAnMScsICctcGgnLCAnNycsICctcGh0JywgJzAuNScsICctbnQn

> <r_lp_tautomer_probability>
1

> <r_epik_Ionization_Penalty>
  0.1309

> <r_epik_Ionization_Penalty_Charging>
  0.0881

> <r_epik_Ionization_Penalty_Neutral>
  0.0428

> <r_epik_State_Penalty>
 -0.0000

> <r_epik_Charging_Adjusted_Penalty>
0.088121714846957

> <i_epik_Tot_Q>
1

> <i_epik_Tot_abs_Q>
1

> <s_epik_Chemistry_Notes>
This compound has an ester and may undergo hydrolysis at high or low pH. This compound has an imine and may undergo hydrolysis.

$$$$
