1z34_ligand
                    3D
 Schrodinger Suite 2020-3.
 31 33  0  0  1  0            999 V2000
  -19.1010  -42.6760   -5.7350 O   0  0  0  0  0  0
  -18.2610  -41.5530   -5.9760 C   0  0  0  0  0  0
  -16.8700  -41.7650   -5.3390 C   0  0  1  0  0  0
  -16.1410  -42.9610   -5.8020 O   0  0  0  0  0  0
  -15.2860  -42.6540   -6.9280 C   0  0  1  0  0  0
  -16.0250  -43.1800   -8.1550 N   0  0  0  0  0  0
  -16.7730  -42.5690   -9.1660 C   0  0  0  0  0  0
  -17.0560  -41.2300   -9.3320 N   0  0  0  0  0  0
  -17.8170  -40.9500  -10.4200 C   0  0  0  0  0  0
  -18.1340  -39.7110  -10.6520 F   0  0  0  0  0  0
  -18.2890  -41.8500  -11.3040 N   0  0  0  0  0  0
  -17.9980  -43.1690  -11.1210 C   0  0  0  0  0  0
  -18.4690  -44.0280  -11.9940 N   0  0  0  0  0  0
  -17.2010  -43.5740  -10.0040 C   0  0  0  0  0  0
  -16.7550  -44.7890   -9.5670 N   0  0  0  0  0  0
  -16.0910  -44.4690   -8.5030 C   0  0  0  0  0  0
  -15.1080  -41.1090   -6.8090 C   0  0  0  0  0  0
  -15.9100  -40.5960   -5.5770 C   0  0  2  0  0  0
  -15.1230  -40.4790   -4.4170 O   0  0  0  0  0  0
  -20.1303  -42.6862   -6.1228 H   0  0  0  0  0  0
  -18.1379  -41.4131   -7.0601 H   0  0  0  0  0  0
  -18.7183  -40.6527   -5.5397 H   0  0  0  0  0  0
  -17.1070  -41.9121   -4.2750 H   0  0  0  0  0  0
  -14.3033  -43.1481   -6.9405 H   0  0  0  0  0  0
  -19.0781  -43.6751  -12.8393 H   0  0  0  0  0  0
  -18.2547  -45.1009  -11.8806 H   0  0  0  0  0  0
  -15.5966  -45.2337   -7.9040 H   0  0  0  0  0  0
  -14.0416  -40.8716   -6.6808 H   0  0  0  0  0  0
  -15.4841  -40.6251   -7.7225 H   0  0  0  0  0  0
  -16.3182  -39.5803   -5.6847 H   0  0  0  0  0  0
  -15.5755  -40.1258   -3.4787 H   0  0  0  0  0  0
  1  2  1  0  0  0
  1 20  1  0  0  0
  2  3  1  0  0  0
  2 21  1  0  0  0
  2 22  1  0  0  0
  3  4  1  0  0  0
  3 18  1  0  0  0
  3 23  1  0  0  0
  4  5  1  0  0  0
  5  6  1  0  0  0
  5 17  1  0  0  0
  5 24  1  0  0  0
  6  7  1  0  0  0
  6 16  1  0  0  0
  7  8  1  0  0  0
  7 14  2  0  0  0
  8  9  2  0  0  0
  9 10  1  0  0  0
  9 11  1  0  0  0
 11 12  2  0  0  0
 12 13  1  0  0  0
 12 14  1  0  0  0
 13 25  1  0  0  0
 13 26  1  0  0  0
 14 15  1  0  0  0
 15 16  2  0  0  0
 16 27  1  0  0  0
 17 18  1  0  0  0
 17 28  1  0  0  0
 17 29  1  0  0  0
 18 19  1  0  0  0
 18 30  1  0  0  0
 19 31  1  0  0  0
M  END
> <s_m_source_file>
../1z34_ligand.sdf

> <i_m_source_file_index>
1

> <s_epik_input>
W09IXVtDSDJdW0NASF0xT1tDQEhdKFtDSDJdW0NAQEhdMVtPSF0pbjJbY0hdbmMoYzIzKWMoW05IMl0pbmMobjMpRg==

> <s_epik_cmdline>
J2VwaWtfYXBwJywgJy1pbWFlJywgJ2xpZ2FuZF9wcm8ubWFlJywgJy1vbWFlJywgJ2xpZ2FuZF9wcmVwLm1hZScsICctbXMnLCAnMScsICctcGgnLCAnNycsICctcGh0JywgJzAuNScsICctbnQn

> <r_lp_tautomer_probability>
1

> <r_epik_Ionization_Penalty>
  0.0000

> <r_epik_Ionization_Penalty_Charging>
  0.0000

> <r_epik_Ionization_Penalty_Neutral>
  0.0000

> <r_epik_State_Penalty>
 -0.0000

> <r_epik_Charging_Adjusted_Penalty>
0

> <i_epik_Tot_Q>
0

> <i_epik_Tot_abs_Q>
0

> <s_epik_Chemistry_Notes>
This compound contains an acetal/aminal-like group ( X-CH(R)-Y where X, Y are N, S, or O) that may be acid/base labile, releasing an aldehyde.

$$$$
