1z3c_ligand
                    3D
 Schrodinger Suite 2020-3.
 51 53  0  0  1  0            999 V2000
   13.3520   30.1670   91.2330 N   0  3  0  0  0  0
   13.9720   31.0910   92.2340 C   0  0  2  0  0  0
   13.1940   32.3900   92.3540 C   0  0  0  0  0  0
   12.1940   32.5580   91.6530 O   0  0  0  0  0  0
   13.6660   33.2230   93.2010 O   0  5  0  0  0  0
   15.4110   31.4330   91.8530 C   0  0  0  0  0  0
   15.9290   30.5380   90.8050 C   0  0  0  0  0  0
   17.6110   30.8330   90.2350 N   0  3  2  0  0  0
   17.4310   32.3390   89.2770 C   0  0  0  0  0  0
   17.8040   29.6040   89.0590 C   0  0  0  0  0  0
   18.0040   28.2250   89.6270 C   0  0  1  0  0  0
   18.0560   27.3540   88.4990 O   0  0  0  0  0  0
   19.3930   28.0230   90.2500 C   0  0  1  0  0  0
   19.1480   27.9260   91.6880 O   0  0  0  0  0  0
   19.8710   26.6740   89.7340 C   0  0  1  0  0  0
   20.4780   25.7300   90.5810 O   0  0  0  0  0  0
   18.6330   26.2000   88.9530 C   0  0  2  0  0  0
   18.9140   25.3370   87.8390 N   0  0  0  0  0  0
   19.7200   25.5360   86.7550 C   0  0  0  0  0  0
   19.7330   24.5300   85.9260 N   0  0  0  0  0  0
   18.8730   23.6050   86.5050 C   0  0  0  0  0  0
   18.4490   22.2990   86.1130 C   0  0  0  0  0  0
   18.8890   21.7110   84.9710 N   0  0  0  0  0  0
   17.5590   21.6140   86.9220 N   0  0  0  0  0  0
   17.1320   22.2240   88.0610 C   0  0  0  0  0  0
   17.4750   23.4500   88.5240 N   0  0  0  0  0  0
   18.3560   24.0920   87.6860 C   0  0  0  0  0  0
   12.3187   29.9399   91.5344 H   0  0  0  0  0  0
   13.9334   29.2344   91.1855 H   0  0  0  0  0  0
   13.3482   30.6476   90.2435 H   0  0  0  0  0  0
   13.9409   30.5478   93.1900 H   0  0  0  0  0  0
   15.4551   32.4657   91.4767 H   0  0  0  0  0  0
   16.0573   31.3373   92.7380 H   0  0  0  0  0  0
   15.9189   29.5007   91.1708 H   0  0  0  0  0  0
   15.2955   30.6171   89.9092 H   0  0  0  0  0  0
   18.4136   30.8417   90.9871 H   0  0  0  0  0  0
   17.3001   33.1931   89.9577 H   0  0  0  0  0  0
   16.5514   32.2539   88.6220 H   0  0  0  0  0  0
   18.3312   32.4933   88.6639 H   0  0  0  0  0  0
   16.9078   29.5616   88.4225 H   0  0  0  0  0  0
   18.6845   29.8256   88.4381 H   0  0  0  0  0  0
   17.1860   28.0233   90.3343 H   0  0  0  0  0  0
   20.1305   28.8166   90.0593 H   0  0  0  0  0  0
   18.7944   28.8054   92.2462 H   0  0  0  0  0  0
   20.8435   26.7345   89.2236 H   0  0  0  0  0  0
   21.3669   26.0077   91.1665 H   0  0  0  0  0  0
   17.9166   25.6182   89.5515 H   0  0  0  0  0  0
   20.2966   26.4476   86.5980 H   0  0  0  0  0  0
   19.5965   22.2413   84.3166 H   0  0  0  0  0  0
   18.5380   20.7043   84.7002 H   0  0  0  0  0  0
   16.4301   21.6586   88.6740 H   0  0  0  0  0  0
  1  2  1  0  0  0
  1 28  1  0  0  0
  1 29  1  0  0  0
  1 30  1  0  0  0
  2  3  1  0  0  0
  2  6  1  0  0  0
  2 31  1  0  0  0
  3  4  2  0  0  0
  3  5  1  0  0  0
  6  7  1  0  0  0
  6 32  1  0  0  0
  6 33  1  0  0  0
  7  8  1  0  0  0
  7 34  1  0  0  0
  7 35  1  0  0  0
  8 10  1  0  0  0
  8  9  1  0  0  0
  8 36  1  0  0  0
  9 37  1  0  0  0
  9 38  1  0  0  0
  9 39  1  0  0  0
 10 11  1  0  0  0
 10 40  1  0  0  0
 10 41  1  0  0  0
 11 12  1  0  0  0
 11 13  1  0  0  0
 11 42  1  0  0  0
 12 17  1  0  0  0
 13 14  1  0  0  0
 13 15  1  0  0  0
 13 43  1  0  0  0
 14 44  1  0  0  0
 15 16  1  0  0  0
 15 17  1  0  0  0
 15 45  1  0  0  0
 16 46  1  0  0  0
 17 18  1  0  0  0
 17 47  1  0  0  0
 18 19  1  0  0  0
 18 27  1  0  0  0
 19 20  2  0  0  0
 19 48  1  0  0  0
 20 21  1  0  0  0
 21 22  2  0  0  0
 21 27  1  0  0  0
 22 23  1  0  0  0
 22 24  1  0  0  0
 23 49  1  0  0  0
 23 50  1  0  0  0
 24 25  2  0  0  0
 25 26  1  0  0  0
 25 51  1  0  0  0
 26 27  2  0  0  0
M  CHG  3   1   1   5  -1   8   1
M  END
> <s_m_source_file>
../1z3c_ligand.sdf

> <i_m_source_file_index>
1

> <s_epik_input>
Tz1DKFtPSF0pW0NAQEhdKFtOSDMrXSlbQ0gyXVtDSDJdW05ASCtdKFtDSDNdKVtDSDJdW0NASF0xT1tDQEhdKFtDQEhdKFtPSF0pW0NAQEhdMVtPSF0pbihbY0hdbjIpYyhjMjMpbltjSF1uYzNbTkgyXQ==

> <s_epik_cmdline>
J2VwaWtfYXBwJywgJy1pbWFlJywgJ2xpZ2FuZF9wcm8ubWFlJywgJy1vbWFlJywgJ2xpZ2FuZF9wcmVwLm1hZScsICctbXMnLCAnMScsICctcGgnLCAnNycsICctcGh0JywgJzAuNScsICctbnQn

> <r_lp_tautomer_probability>
0.999997216410988

> <r_epik_Ionization_Penalty>
  0.0834

> <r_epik_Ionization_Penalty_Charging>
  0.0830

> <r_epik_Ionization_Penalty_Neutral>
  0.0004

> <r_epik_State_Penalty>
  0.0657

> <r_epik_Charging_Adjusted_Penalty>
0.148740215214111

> <i_epik_Tot_Q>
1

> <i_epik_Tot_abs_Q>
3

> <s_epik_Chemistry_Notes>
This compound contains an acetal/aminal-like group ( X-CH(R)-Y where X, Y are N, S, or O) that may be acid/base labile, releasing an aldehyde.

$$$$
