1z3j_ligand
                    3D
 Schrodinger Suite 2020-3.
 41 41  0  0  1  0            999 V2000
    5.8860   -5.7600   -5.2560 C   0  0  0  0  0  0
    5.7230   -5.7310   -3.8800 C   0  0  0  0  0  0
    6.2720   -4.6790   -3.1570 C   0  0  0  0  0  0
    6.9760   -3.6680   -3.8150 C   0  0  0  0  0  0
    7.1220   -3.7230   -5.1870 C   0  0  0  0  0  0
    6.5820   -4.7640   -5.9320 C   0  0  0  0  0  0
    6.1980   -4.5290   -1.7870 O   0  0  0  0  0  0
    7.3200   -3.9920   -1.1330 C   0  0  0  0  0  0
    6.8040   -4.8360   -7.7200 S   0  0  0  0  0  0
    8.2610   -4.9400   -7.9810 O   0  0  0  0  0  0
    5.9980   -5.9490   -8.2590 O   0  0  0  0  0  0
    6.1950   -3.2670   -8.3020 N   0  0  2  0  0  0
    7.0600   -2.3800   -9.1350 C   0  0  0  0  0  0
    5.0940   -2.5500   -7.5430 C   0  0  0  0  0  0
    5.6450   -1.4570   -6.6760 C   0  0  0  0  0  0
    4.8660   -0.5520   -6.0710 N   0  0  0  0  0  0
    5.2230    0.5390   -5.4600 O   0  0  0  0  0  0
    6.9100   -1.2980   -6.6500 O   0  0  0  0  0  0
    6.9630   -2.6650  -10.6380 C   0  0  0  0  0  0
    7.5810   -4.0070  -10.9930 C   0  0  0  0  0  0
    7.6860   -1.5510  -11.3790 C   0  0  0  0  0  0
    5.4570   -6.5858   -5.8236 H   0  0  0  0  0  0
    5.1718   -6.5224   -3.3720 H   0  0  0  0  0  0
    7.4070   -2.8417   -3.2497 H   0  0  0  0  0  0
    7.6729   -2.9325   -5.6966 H   0  0  0  0  0  0
    7.1203   -3.9306   -0.0530 H   0  0  0  0  0  0
    7.5263   -2.9854   -1.5256 H   0  0  0  0  0  0
    8.1916   -4.6398   -1.3085 H   0  0  0  0  0  0
    6.7668   -1.3312   -8.9798 H   0  0  0  0  0  0
    8.1119   -2.5138   -8.8424 H   0  0  0  0  0  0
    4.3866   -2.1040   -8.2576 H   0  0  0  0  0  0
    4.5630   -3.2686   -6.9014 H   0  0  0  0  0  0
    3.8020   -0.8240   -6.1343 H   0  0  0  0  0  0
    4.4610    1.1899   -5.0065 H   0  0  0  0  0  0
    5.9053   -2.7069  -10.9374 H   0  0  0  0  0  0
    7.0535   -4.8077  -10.4538 H   0  0  0  0  0  0
    8.6428   -4.0092  -10.7056 H   0  0  0  0  0  0
    7.4940   -4.1756  -12.0765 H   0  0  0  0  0  0
    7.2337   -0.5830  -11.1175 H   0  0  0  0  0  0
    7.5992   -1.7153  -12.4632 H   0  0  0  0  0  0
    8.7480   -1.5490  -11.0923 H   0  0  0  0  0  0
  1  2  2  0  0  0
  1  6  1  0  0  0
  1 22  1  0  0  0
  2  3  1  0  0  0
  2 23  1  0  0  0
  3  4  2  0  0  0
  3  7  1  0  0  0
  4  5  1  0  0  0
  4 24  1  0  0  0
  5  6  2  0  0  0
  5 25  1  0  0  0
  6  9  1  0  0  0
  7  8  1  0  0  0
  8 26  1  0  0  0
  8 27  1  0  0  0
  8 28  1  0  0  0
  9 10  2  0  0  0
  9 11  2  0  0  0
  9 12  1  0  0  0
 12 13  1  0  0  0
 12 14  1  0  0  0
 13 19  1  0  0  0
 13 29  1  0  0  0
 13 30  1  0  0  0
 14 15  1  0  0  0
 14 31  1  0  0  0
 14 32  1  0  0  0
 15 16  1  0  0  0
 15 18  2  0  0  0
 16 17  1  0  0  0
 16 33  1  0  0  0
 17 34  1  0  0  0
 19 20  1  0  0  0
 19 21  1  0  0  0
 19 35  1  0  0  0
 20 36  1  0  0  0
 20 37  1  0  0  0
 20 38  1  0  0  0
 21 39  1  0  0  0
 21 40  1  0  0  0
 21 41  1  0  0  0
M  END
> <s_m_source_file>
../1z3j_ligand.sdf

> <i_m_source_file_index>
1

> <s_epik_input>
W0NIM11PYzFbY0hdW2NIXWMoW2NIXVtjSF0xKVMoPU8pKD1PKU4oW0NIMl1bQ0hdKFtDSDNdKVtDSDNdKVtDSDJdQyg9TylbTkhdW09IXQ==

> <s_epik_cmdline>
J2VwaWtfYXBwJywgJy1pbWFlJywgJ2xpZ2FuZF9wcm8ubWFlJywgJy1vbWFlJywgJ2xpZ2FuZF9wcmVwLm1hZScsICctbXMnLCAnMScsICctcGgnLCAnNycsICctcGh0JywgJzAuNScsICctbnQn

> <r_lp_tautomer_probability>
1

> <r_epik_Ionization_Penalty>
  0.0148

> <r_epik_Ionization_Penalty_Charging>
  0.0000

> <r_epik_Ionization_Penalty_Neutral>
  0.0148

> <r_epik_State_Penalty>
  0.0116

> <r_epik_Charging_Adjusted_Penalty>
0.0115735975400342

> <i_epik_Tot_Q>
0

> <i_epik_Tot_abs_Q>
0

> <s_epik_Chemistry_Notes>
This compound has a N-S or N-O group and may undergo hydrolysis at high or low pH.

$$$$
