1z3t_ligand
                    3D
 Schrodinger Suite 2020-3.
 45 46  0  0  1  0            999 V2000
    3.0130   10.7670   23.6450 C   0  0  1  0  0  0
    4.2470    9.8970   23.2410 C   0  0  1  0  0  0
    4.2060    8.6560   24.1070 C   0  0  2  0  0  0
    4.0640    9.0070   25.5540 C   0  0  1  0  0  0
    2.8220    9.8650   25.7890 C   0  0  1  0  0  0
    2.6210   10.2410   27.2480 C   0  0  0  0  0  0
    4.3390    9.5460   21.8170 O   0  0  0  0  0  0
    5.3420    7.7740   23.9190 O   0  0  0  0  0  0
    3.9450    7.7710   26.2830 O   0  0  0  0  0  0
    3.0240   11.0590   25.0590 O   0  0  0  0  0  0
    3.7610   10.8780   27.7330 O   0  0  0  0  0  0
    0.7070   15.1070   21.7890 C   0  0  2  0  0  0
    0.9420   15.0460   23.2800 C   0  0  1  0  0  0
    2.0910   14.1440   23.5860 C   0  0  2  0  0  0
    1.8880   12.7720   22.8890 C   0  0  1  0  0  0
    1.6550   12.9800   21.4230 C   0  0  1  0  0  0
    1.3560   11.6520   20.7220 C   0  0  0  0  0  0
   -0.4770   15.8680   21.6060 O   0  0  0  0  0  0
    1.3540   16.3480   23.6860 O   0  0  0  0  0  0
    2.1700   13.9510   24.9750 O   0  0  0  0  0  0
    3.0560   11.9980   23.0030 O   0  0  0  0  0  0
    0.5240   13.8130   21.2330 O   0  0  0  0  0  0
    0.4290   10.8570   21.4560 O   0  0  0  0  0  0
    2.0623   10.2850   23.3734 H   0  0  0  0  0  0
    5.1802   10.4665   23.3625 H   0  0  0  0  0  0
    3.3404    8.0622   23.7783 H   0  0  0  0  0  0
    4.9578    9.5415   25.9081 H   0  0  0  0  0  0
    1.9197    9.3481   25.4304 H   0  0  0  0  0  0
    1.7599   10.9198   27.3364 H   0  0  0  0  0  0
    2.4335    9.3320   27.8384 H   0  0  0  0  0  0
    4.3781   10.3396   21.0563 H   0  0  0  0  0  0
    5.5971    7.4128   22.9118 H   0  0  0  0  0  0
    4.7503    7.0233   26.2332 H   0  0  0  0  0  0
    3.7962   11.2230   28.7769 H   0  0  0  0  0  0
    1.5466   15.5475   21.2313 H   0  0  0  0  0  0
    0.0335   14.7301   23.8137 H   0  0  0  0  0  0
    3.0331   14.6347   23.3003 H   0  0  0  0  0  0
    1.0755   12.1965   23.3566 H   0  0  0  0  0  0
    2.5313   13.4947   21.0020 H   0  0  0  0  0  0
    0.9269   11.8502   19.7287 H   0  0  0  0  0  0
    2.2878   11.0780   20.6110 H   0  0  0  0  0  0
   -0.5274   16.9037   21.9733 H   0  0  0  0  0  0
    0.6734   17.2034   23.5633 H   0  0  0  0  0  0
    2.3142   14.8132   25.6428 H   0  0  0  0  0  0
    0.1213    9.8739   21.0702 H   0  0  0  0  0  0
  1  2  1  0  0  0
  1 10  1  0  0  0
  1 21  1  0  0  0
  1 24  1  0  0  0
  2  3  1  0  0  0
  2  7  1  0  0  0
  2 25  1  0  0  0
  3  4  1  0  0  0
  3  8  1  0  0  0
  3 26  1  0  0  0
  4  5  1  0  0  0
  4  9  1  0  0  0
  4 27  1  0  0  0
  5  6  1  0  0  0
  5 10  1  0  0  0
  5 28  1  0  0  0
  6 11  1  0  0  0
  6 29  1  0  0  0
  6 30  1  0  0  0
  7 31  1  0  0  0
  8 32  1  0  0  0
  9 33  1  0  0  0
 11 34  1  0  0  0
 12 13  1  0  0  0
 12 18  1  0  0  0
 12 22  1  0  0  0
 12 35  1  0  0  0
 13 14  1  0  0  0
 13 19  1  0  0  0
 13 36  1  0  0  0
 14 15  1  0  0  0
 14 20  1  0  0  0
 14 37  1  0  0  0
 15 16  1  0  0  0
 15 21  1  0  0  0
 15 38  1  0  0  0
 16 17  1  0  0  0
 16 22  1  0  0  0
 16 39  1  0  0  0
 17 23  1  0  0  0
 17 40  1  0  0  0
 17 41  1  0  0  0
 18 42  1  0  0  0
 19 43  1  0  0  0
 20 44  1  0  0  0
 23 45  1  0  0  0
M  END
> <s_m_source_file>
../1z3t_ligand.sdf

> <i_m_source_file_index>
1

> <s_epik_input>
W09IXVtDQEhdMVtDQEhdKFtPSF0pW0NAQEhdKFtPSF0pW0NAQEhdKFtDQEhdKE8xKVtDSDJdW09IXSlPW0NASF0yW0NASF0oW09IXSlbQ0BASF0oW09IXSlbQ0BIXShbT0hdKVtDQEhdKE8yKVtDSDJdW09IXQ==

> <s_epik_cmdline>
J2VwaWtfYXBwJywgJy1pbWFlJywgJ2xpZ2FuZF9wcm8ubWFlJywgJy1vbWFlJywgJ2xpZ2FuZF9wcmVwLm1hZScsICctbXMnLCAnMScsICctcGgnLCAnNycsICctcGh0JywgJzAuNScsICctbnQn

> <r_lp_tautomer_probability>
1

> <r_epik_Ionization_Penalty>
  0.0000

> <r_epik_Ionization_Penalty_Charging>
  0.0000

> <r_epik_Ionization_Penalty_Neutral>
  0.0000

> <r_epik_State_Penalty>
 -0.0000

> <r_epik_Charging_Adjusted_Penalty>
0

> <i_epik_Tot_Q>
0

> <i_epik_Tot_abs_Q>
0

> <s_epik_Chemistry_Notes>
This compound contains an acetal/aminal-like group ( X-CH(R)-Y where X, Y are N, S, or O) that may be acid/base labile, releasing an aldehyde.

$$$$
