1z3v_ligand
                    3D
 Schrodinger Suite 2020-3.
 45 46  0  0  1  0            999 V2000
    2.9850   10.7630   23.5020 C   0  0  2  0  0  0
    4.1620    9.8390   23.3090 C   0  0  1  0  0  0
    4.0790    8.6530   24.2540 C   0  0  2  0  0  0
    3.9400    9.0860   25.7110 C   0  0  2  0  0  0
    2.7600   10.0540   25.8470 C   0  0  1  0  0  0
    2.5360   10.5430   27.2760 C   0  0  0  0  0  0
    3.2220   12.0640   22.9290 O   0  0  0  0  0  0
    4.2250    9.4460   21.9390 O   0  0  0  0  0  0
    5.2520    7.8750   24.0550 O   0  0  0  0  0  0
    5.1590    9.6780   26.1360 O   0  0  0  0  0  0
    3.0490   11.1630   25.0140 O   0  0  0  0  0  0
    3.6490   11.3400   27.6390 O   0  0  0  0  0  0
    0.6790   15.1230   21.8670 C   0  0  2  0  0  0
    1.1500   15.0860   23.1280 C   0  0  1  0  0  0
    1.9150   14.0440   23.5240 C   0  0  2  0  0  0
    2.0660   12.9460   22.7490 C   0  0  1  0  0  0
    1.5980   12.9320   21.5020 C   0  0  1  0  0  0
    1.5220   11.6540   20.6910 C   0  0  0  0  0  0
   -0.0950   15.9920   21.4360 O   0  0  0  0  0  0
    1.2390   16.1490   23.7790 O   0  0  0  0  0  0
    2.1730   13.9520   24.7440 O   0  0  0  0  0  0
    0.5590   13.8640   21.1600 O   0  0  0  0  0  0
    0.4600   10.8990   21.2640 O   0  0  0  0  0  0
    2.0960   10.2957   23.0533 H   0  0  0  0  0  0
    5.1133   10.3596   23.4934 H   0  0  0  0  0  0
    3.2215    8.0073   24.0137 H   0  0  0  0  0  0
    3.8050    8.2315   26.3904 H   0  0  0  0  0  0
    1.8279    9.5823   25.5026 H   0  0  0  0  0  0
    1.6107   11.1362   27.3197 H   0  0  0  0  0  0
    2.4492    9.6781   27.9502 H   0  0  0  0  0  0
    4.2882   10.2099   21.1500 H   0  0  0  0  0  0
    5.4917    7.4876   23.0538 H   0  0  0  0  0  0
    6.0943    9.1005   26.0956 H   0  0  0  0  0  0
    3.6949   11.7983   28.6379 H   0  0  0  0  0  0
    1.4374   15.8886   21.6465 H   0  0  0  0  0  0
    0.1980   14.9418   23.6599 H   0  0  0  0  0  0
    2.9226   14.4629   23.3853 H   0  0  0  0  0  0
    1.1484   12.6008   23.2479 H   0  0  0  0  0  0
    2.5686   13.4300   21.3610 H   0  0  0  0  0  0
    1.3168   11.8993   19.6385 H   0  0  0  0  0  0
    2.4793   11.1170   20.7624 H   0  0  0  0  0  0
   -0.1028   16.9947   21.8882 H   0  0  0  0  0  0
    0.6347   17.0221   23.4917 H   0  0  0  0  0  0
    2.0590   14.8291   25.3979 H   0  0  0  0  0  0
    0.1988    9.9144   20.8488 H   0  0  0  0  0  0
  1  2  1  0  0  0
  1  7  1  0  0  0
  1 11  1  0  0  0
  1 24  1  0  0  0
  2  3  1  0  0  0
  2  8  1  0  0  0
  2 25  1  0  0  0
  3  4  1  0  0  0
  3  9  1  0  0  0
  3 26  1  0  0  0
  4  5  1  0  0  0
  4 10  1  0  0  0
  4 27  1  0  0  0
  5  6  1  0  0  0
  5 11  1  0  0  0
  5 28  1  0  0  0
  6 12  1  0  0  0
  6 29  1  0  0  0
  6 30  1  0  0  0
  7 16  1  0  0  0
  8 31  1  0  0  0
  9 32  1  0  0  0
 10 33  1  0  0  0
 12 34  1  0  0  0
 13 14  1  0  0  0
 13 19  1  0  0  0
 13 22  1  0  0  0
 13 35  1  0  0  0
 14 15  1  0  0  0
 14 20  1  0  0  0
 14 36  1  0  0  0
 15 16  1  0  0  0
 15 21  1  0  0  0
 15 37  1  0  0  0
 16 17  1  0  0  0
 16 38  1  0  0  0
 17 18  1  0  0  0
 17 22  1  0  0  0
 17 39  1  0  0  0
 18 23  1  0  0  0
 18 40  1  0  0  0
 18 41  1  0  0  0
 19 42  1  0  0  0
 20 43  1  0  0  0
 21 44  1  0  0  0
 23 45  1  0  0  0
M  END
> <s_m_source_file>
../1z3v_ligand.sdf

> <i_m_source_file_index>
1

> <s_epik_input>
W09IXVtDQEhdMVtDQEhdKFtPSF0pW0NAQEhdKFtPSF0pW0NAQEhdKFtDQEhdKE8xKVtDSDJdW09IXSlPW0NASF0yW0NASF0oW09IXSlbQ0BASF0oW09IXSlbQ0BASF0oW09IXSlbQ0BIXShPMilbQ0gyXVtPSF0=

> <s_epik_cmdline>
J2VwaWtfYXBwJywgJy1pbWFlJywgJ2xpZ2FuZF9wcm8ubWFlJywgJy1vbWFlJywgJ2xpZ2FuZF9wcmVwLm1hZScsICctbXMnLCAnMScsICctcGgnLCAnNycsICctcGh0JywgJzAuNScsICctbnQn

> <r_lp_tautomer_probability>
1

> <r_epik_Ionization_Penalty>
  0.0000

> <r_epik_Ionization_Penalty_Charging>
  0.0000

> <r_epik_Ionization_Penalty_Neutral>
  0.0000

> <r_epik_State_Penalty>
 -0.0000

> <r_epik_Charging_Adjusted_Penalty>
0

> <i_epik_Tot_Q>
0

> <i_epik_Tot_abs_Q>
0

> <s_epik_Chemistry_Notes>
This compound contains an acetal/aminal-like group ( X-CH(R)-Y where X, Y are N, S, or O) that may be acid/base labile, releasing an aldehyde.

$$$$
