1z4n_ligand
                    3D
 Schrodinger Suite 2020-3.
 27 27  0  0  1  0            999 V2000
    5.3660   -5.0040   12.9930 C   0  0  1  0  0  0
    4.1770   -4.0390   12.9810 C   0  0  1  0  0  0
    4.3350   -3.0040   11.8920 C   0  0  2  0  0  0
    5.6880   -2.2170   12.0570 C   0  0  2  0  0  0
    6.8150   -3.2490   12.0690 C   0  0  1  0  0  0
    8.1570   -2.5360   12.2870 C   0  0  0  0  0  0
    5.4440   -5.7050   11.7610 O   0  0  0  0  0  0
    2.9240   -4.7720   12.8030 O   0  0  0  0  0  0
    3.2360   -2.1080   11.8970 O   0  0  0  0  0  0
    5.6200   -1.4030   13.2770 O   0  0  0  0  0  0
    6.6050   -4.2260   13.1260 O   0  0  0  0  0  0
    8.5430   -2.1310   10.9990 O   0  0  0  0  0  0
    4.8800   -7.2420   11.5720 P   0  0  0  0  0  0
    5.3460   -7.8810   10.2060 O   0  0  0  0  0  0
    5.4980   -7.9990   12.8190 O   0  5  0  0  0  0
    3.2940   -7.3390   11.6960 O   0  5  0  0  0  0
    5.2739   -5.7539   13.7925 H   0  0  0  0  0  0
    4.1043   -3.5263   13.9515 H   0  0  0  0  0  0
    4.2606   -3.5062   10.9162 H   0  0  0  0  0  0
    5.9043   -1.4775   11.2719 H   0  0  0  0  0  0
    6.8113   -3.8205   11.1291 H   0  0  0  0  0  0
    8.0121   -1.6806   12.9633 H   0  0  0  0  0  0
    8.8770   -3.2380   12.7328 H   0  0  0  0  0  0
    2.6469   -5.5675   13.5104 H   0  0  0  0  0  0
    2.2113   -2.4938   11.7911 H   0  0  0  0  0  0
    4.8466   -0.6274   13.3783 H   0  0  0  0  0  0
    9.4870   -1.5853   10.8539 H   0  0  0  0  0  0
  1  2  1  0  0  0
  1  7  1  0  0  0
  1 11  1  0  0  0
  1 17  1  0  0  0
  2  3  1  0  0  0
  2  8  1  0  0  0
  2 18  1  0  0  0
  3  4  1  0  0  0
  3  9  1  0  0  0
  3 19  1  0  0  0
  4  5  1  0  0  0
  4 10  1  0  0  0
  4 20  1  0  0  0
  5  6  1  0  0  0
  5 11  1  0  0  0
  5 21  1  0  0  0
  6 12  1  0  0  0
  6 22  1  0  0  0
  6 23  1  0  0  0
  7 13  1  0  0  0
  8 24  1  0  0  0
  9 25  1  0  0  0
 10 26  1  0  0  0
 12 27  1  0  0  0
 13 14  2  0  0  0
 13 15  1  0  0  0
 13 16  1  0  0  0
M  CHG  2  15  -1  16  -1
M  END
> <s_m_source_file>
../1z4n_ligand.sdf

> <i_m_source_file_index>
1

> <s_epik_input>
Tz1QKFtPSF0pKFtPSF0pT1tDQEBIXTFbQ0BIXShbT0hdKVtDQEBIXShbT0hdKVtDQEBIXShbT0hdKVtDQEhdKE8xKVtDSDJdW09IXQ==

> <s_epik_cmdline>
J2VwaWtfYXBwJywgJy1pbWFlJywgJ2xpZ2FuZF9wcm8ubWFlJywgJy1vbWFlJywgJ2xpZ2FuZF9wcmVwLm1hZScsICctbXMnLCAnMScsICctcGgnLCAnNycsICctcGh0JywgJzAuNScsICctbnQn

> <r_epik_Ionization_Penalty>
  0.0776

> <r_epik_Ionization_Penalty_Charging>
  0.0776

> <r_epik_Ionization_Penalty_Neutral>
  0.0000

> <r_epik_State_Penalty>
  0.0686

> <r_epik_Charging_Adjusted_Penalty>
0.146161834049153

> <i_epik_Tot_Q>
-2

> <i_epik_Tot_abs_Q>
2

> <s_epik_Chemistry_Notes>
This compound contains an acetal/aminal-like group ( X-CH(R)-Y where X, Y are N, S, or O) that may be acid/base labile, releasing an aldehyde.

$$$$
