1z4u_ligand
                    3D
 Schrodinger Suite 2020-3.
 57 61  0  0  1  0            999 V2000
  -10.8320   55.7820   47.6710 C   0  0  0  0  0  0
  -11.8860   56.1380   46.7730 C   0  0  0  0  0  0
  -13.1200   56.6640   47.2650 C   0  0  0  0  0  0
  -13.3020   56.8460   48.6600 C   0  0  0  0  0  0
  -12.2210   56.4890   49.5260 C   0  0  0  0  0  0
  -11.0330   55.9750   49.0310 C   0  0  0  0  0  0
   -8.4160   54.7970   47.8060 C   0  0  0  0  0  0
   -9.5390   55.2420   47.1870 C   0  0  0  0  0  0
   -8.1930   54.7080   49.2050 N   0  0  0  0  0  0
   -7.9010   55.7510   50.0280 C   0  0  0  0  0  0
   -7.2790   54.3120   46.9520 C   0  0  0  0  0  0
   -7.7860   56.9390   49.6670 O   0  0  0  0  0  0
   -7.3810   54.5290   45.7200 O   0  5  0  0  0  0
   -6.3080   53.7140   47.4700 O   0  0  0  0  0  0
  -14.4880   57.3690   49.1480 O   0  0  0  0  0  0
  -14.7360   57.6270   50.4940 C   0  0  0  0  0  0
  -14.6250   58.9820   50.9660 C   0  0  0  0  0  0
  -14.8730   59.2790   52.3570 C   0  0  0  0  0  0
  -15.2180   58.2270   53.2740 C   0  0  0  0  0  0
  -15.3290   56.8760   52.8170 C   0  0  0  0  0  0
  -15.0850   56.5850   51.4410 C   0  0  0  0  0  0
  -14.1610   60.3490   49.7070 Br  0  0  0  0  0  0
   -8.5850   55.4740   54.3960 C   0  0  0  0  0  0
   -7.2410   56.1230   53.9180 C   0  0  2  0  0  0
   -8.9010   54.2060   53.5190 C   0  0  1  0  0  0
   -7.4020   56.5610   52.4290 C   0  0  0  0  0  0
   -9.0480   54.6570   52.0300 C   0  0  0  0  0  0
   -7.7300   55.3330   51.5000 C   0  0  0  0  0  0
   -7.7220   53.1640   53.6250 C   0  0  0  0  0  0
   -6.3920   53.8240   53.1410 C   0  0  2  0  0  0
   -6.0800   55.0760   54.0270 C   0  0  0  0  0  0
   -6.5710   54.2770   51.6570 C   0  0  0  0  0  0
  -11.7465   56.0065   45.7000 H   0  0  0  0  0  0
  -13.9189   56.9246   46.5707 H   0  0  0  0  0  0
  -12.3344   56.6245   50.6016 H   0  0  0  0  0  0
  -10.2358   55.7155   49.7275 H   0  0  0  0  0  0
   -9.5987   55.2411   46.0886 H   0  0  0  0  0  0
   -8.2509   53.7326   49.7102 H   0  0  0  0  0  0
  -14.7982   60.3063   52.7137 H   0  0  0  0  0  0
  -15.3961   58.4602   54.3238 H   0  0  0  0  0  0
  -15.5965   56.0789   53.5107 H   0  0  0  0  0  0
  -15.1628   55.5548   51.0934 H   0  0  0  0  0  0
   -8.4931   55.1750   55.4506 H   0  0  0  0  0  0
   -9.4019   56.2032   54.2915 H   0  0  0  0  0  0
   -7.0024   56.9957   54.5437 H   0  0  0  0  0  0
   -9.8330   53.7379   53.8688 H   0  0  0  0  0  0
   -8.2228   57.2887   52.3476 H   0  0  0  0  0  0
   -6.4667   57.0226   52.0794 H   0  0  0  0  0  0
   -9.2672   53.7812   51.4016 H   0  0  0  0  0  0
   -9.8699   55.3833   51.9463 H   0  0  0  0  0  0
   -7.6101   52.8421   54.6709 H   0  0  0  0  0  0
   -7.9465   52.2909   52.9947 H   0  0  0  0  0  0
   -5.5655   53.1024   53.2197 H   0  0  0  0  0  0
   -5.1403   55.5334   53.6838 H   0  0  0  0  0  0
   -5.9713   54.7567   55.0740 H   0  0  0  0  0  0
   -6.8004   53.3881   51.0511 H   0  0  0  0  0  0
   -5.6234   54.7190   51.3154 H   0  0  0  0  0  0
  1  2  2  0  0  0
  1  6  1  0  0  0
  1  8  1  0  0  0
  2  3  1  0  0  0
  2 33  1  0  0  0
  3  4  2  0  0  0
  3 34  1  0  0  0
  4  5  1  0  0  0
  4 15  1  0  0  0
  5  6  2  0  0  0
  5 35  1  0  0  0
  6 36  1  0  0  0
  7  8  2  0  0  0
  7  9  1  0  0  0
  7 11  1  0  0  0
  8 37  1  0  0  0
  9 10  1  0  0  0
  9 38  1  0  0  0
 10 12  2  0  0  0
 10 28  1  0  0  0
 11 13  1  0  0  0
 11 14  2  0  0  0
 15 16  1  0  0  0
 16 17  2  0  0  0
 16 21  1  0  0  0
 17 18  1  0  0  0
 17 22  1  0  0  0
 18 19  2  0  0  0
 18 39  1  0  0  0
 19 20  1  0  0  0
 19 40  1  0  0  0
 20 21  2  0  0  0
 20 41  1  0  0  0
 21 42  1  0  0  0
 23 24  1  0  0  0
 23 25  1  0  0  0
 23 43  1  0  0  0
 23 44  1  0  0  0
 24 26  1  0  0  0
 24 31  1  0  0  0
 24 45  1  0  0  0
 25 27  1  0  0  0
 25 29  1  0  0  0
 25 46  1  0  0  0
 26 28  1  0  0  0
 26 47  1  0  0  0
 26 48  1  0  0  0
 27 28  1  0  0  0
 27 49  1  0  0  0
 27 50  1  0  0  0
 28 32  1  0  0  0
 29 30  1  0  0  0
 29 51  1  0  0  0
 29 52  1  0  0  0
 30 31  1  0  0  0
 30 32  1  0  0  0
 30 53  1  0  0  0
 31 54  1  0  0  0
 31 55  1  0  0  0
 32 56  1  0  0  0
 32 57  1  0  0  0
M  CHG  1  13  -1
M  END
> <s_m_source_file>
../1z4u_ligand.sdf

> <i_m_source_file_index>
1

> <s_epik_input>
W2NIXTFbY0hdW2NIXVtjSF1jKEJyKWMxT2MoW2NIXVtjSF0yKVtjSF1bY0hdYzIvW0NIXT1DKEMoPU8pW09IXSlcW05IXUMoPU8pQzM0W0NIMl1bQ0BIXTVbQ0gyXVtDQEBIXShbQ0gyXTMpW0NIMl1bQ0BIXShbQ0gyXTUpW0NIMl00

> <s_epik_cmdline>
J2VwaWtfYXBwJywgJy1pbWFlJywgJ2xpZ2FuZF9wcm8ubWFlJywgJy1vbWFlJywgJ2xpZ2FuZF9wcmVwLm1hZScsICctbXMnLCAnMScsICctcGgnLCAnNycsICctcGh0JywgJzAuNScsICctbnQn

> <r_lp_tautomer_probability>
1

> <r_epik_Ionization_Penalty>
  0.0000

> <r_epik_Ionization_Penalty_Charging>
  0.0000

> <r_epik_Ionization_Penalty_Neutral>
  0.0000

> <r_epik_State_Penalty>
 -0.0000

> <r_epik_Charging_Adjusted_Penalty>
2.83680351019499e-05

> <i_epik_Tot_Q>
-1

> <i_epik_Tot_abs_Q>
1

$$$$
