1z5m_ligand
                    3D
 Schrodinger Suite 2020-3.
 66 68  0  0  1  0            999 V2000
   -8.7460   43.4960   43.4960 C   0  0  0  0  0  0
   -7.3900   43.5560   43.9640 C   0  0  0  0  0  0
   -6.7700   42.3830   44.2310 N   0  0  0  0  0  0
   -7.3610   41.1770   44.0690 C   0  0  0  0  0  0
   -8.6250   41.1340   43.6130 N   0  0  0  0  0  0
   -9.3230   42.2380   43.3290 C   0  0  0  0  0  0
   -9.8060   44.9890   43.1270 Br  0  0  0  0  0  0
   -6.7680   40.0080   44.3260 N   0  0  0  0  0  0
   -5.5720   39.7600   44.8740 C   0  0  0  0  0  0
   -4.4620   40.6670   44.8930 C   0  0  0  0  0  0
   -3.2410   40.2990   45.5070 C   0  0  0  0  0  0
   -3.1410   39.0030   46.1000 C   0  0  0  0  0  0
   -4.2250   38.1020   46.0860 C   0  0  0  0  0  0
   -5.4340   38.4910   45.4780 C   0  0  0  0  0  0
   -2.2360   41.2050   45.5260 N   0  0  0  0  0  0
   -0.9940   41.0960   45.0570 C   0  0  0  0  0  0
   -0.6370   40.0570   44.4640 O   0  0  0  0  0  0
   -0.0910   42.0830   45.2450 N   0  0  0  0  0  0
   -0.3450   43.3050   45.9240 C   0  0  0  0  0  0
    0.9980   43.6460   46.6200 C   0  0  0  0  0  0
    2.0170   42.6180   46.0440 C   0  0  0  0  0  0
    1.2750   41.9940   44.8530 C   0  0  0  0  0  0
   -6.7370   44.7340   44.1560 N   0  0  0  0  0  0
   -5.4410   44.8800   44.7410 C   0  0  0  0  0  0
   -4.3080   44.6490   43.7190 C   0  0  0  0  0  0
   -4.6850   46.9010   42.7280 N   0  0  0  0  0  0
   -3.8420   47.7490   43.3860 C   0  0  0  0  0  0
   -2.7280   47.2800   43.8010 O   0  0  0  0  0  0
   -4.4230   45.5140   42.4440 C   0  0  0  0  0  0
   -4.1590   49.2330   43.6380 C   0  0  0  0  0  0
   -2.8220   50.0500   43.6160 C   0  0  0  0  0  0
   -5.0880   49.8530   42.5270 C   0  0  0  0  0  0
   -4.7640   49.4030   44.9870 C   0  0  0  0  0  0
   -5.8370   50.0190   45.1910 O   0  0  0  0  0  0
   -4.1800   48.9110   46.0750 N   0  0  0  0  0  0
  -10.3472   42.1543   42.9655 H   0  0  0  0  0  0
   -7.2785   39.0659   44.0773 H   0  0  0  0  0  0
   -4.5592   41.6491   44.4303 H   0  0  0  0  0  0
   -2.2058   38.7044   46.5737 H   0  0  0  0  0  0
   -4.1285   37.1159   46.5404 H   0  0  0  0  0  0
   -6.2777   37.8009   45.4735 H   0  0  0  0  0  0
   -2.3965   42.1950   45.9778 H   0  0  0  0  0  0
   -0.6375   44.0754   45.1953 H   0  0  0  0  0  0
   -1.1586   43.1590   46.6498 H   0  0  0  0  0  0
    1.2830   44.6809   46.3798 H   0  0  0  0  0  0
    0.8838   43.5405   47.7090 H   0  0  0  0  0  0
    2.9326   43.1433   45.7347 H   0  0  0  0  0  0
    2.2639   41.8744   46.8161 H   0  0  0  0  0  0
    1.5427   40.9391   44.6936 H   0  0  0  0  0  0
    1.4259   42.5557   43.9193 H   0  0  0  0  0  0
   -7.2909   45.6221   43.8176 H   0  0  0  0  0  0
   -5.3335   45.8976   45.1447 H   0  0  0  0  0  0
   -5.3210   44.1486   45.5538 H   0  0  0  0  0  0
   -3.3401   44.8860   44.1848 H   0  0  0  0  0  0
   -4.3126   43.5969   43.3980 H   0  0  0  0  0  0
   -5.6320   47.3589   42.4063 H   0  0  0  0  0  0
   -3.4810   45.4606   41.8785 H   0  0  0  0  0  0
   -5.2473   45.1390   41.8196 H   0  0  0  0  0  0
   -2.3455   49.9469   42.6299 H   0  0  0  0  0  0
   -2.1445   49.6655   44.3926 H   0  0  0  0  0  0
   -3.0375   51.1111   43.8100 H   0  0  0  0  0  0
   -4.6214   49.7158   41.5404 H   0  0  0  0  0  0
   -5.2256   50.9269   42.7214 H   0  0  0  0  0  0
   -6.0657   49.3492   42.5435 H   0  0  0  0  0  0
   -3.2343   48.3559   45.9883 H   0  0  0  0  0  0
   -4.6424   49.0589   47.0621 H   0  0  0  0  0  0
  1  2  2  0  0  0
  1  6  1  0  0  0
  1  7  1  0  0  0
  2  3  1  0  0  0
  2 23  1  0  0  0
  3  4  2  0  0  0
  4  5  1  0  0  0
  4  8  1  0  0  0
  5  6  2  0  0  0
  6 36  1  0  0  0
  8  9  1  0  0  0
  8 37  1  0  0  0
  9 10  2  0  0  0
  9 14  1  0  0  0
 10 11  1  0  0  0
 10 38  1  0  0  0
 11 12  2  0  0  0
 11 15  1  0  0  0
 12 13  1  0  0  0
 12 39  1  0  0  0
 13 14  2  0  0  0
 13 40  1  0  0  0
 14 41  1  0  0  0
 15 16  1  0  0  0
 15 42  1  0  0  0
 16 17  2  0  0  0
 16 18  1  0  0  0
 18 19  1  0  0  0
 18 22  1  0  0  0
 19 20  1  0  0  0
 19 43  1  0  0  0
 19 44  1  0  0  0
 20 21  1  0  0  0
 20 45  1  0  0  0
 20 46  1  0  0  0
 21 22  1  0  0  0
 21 47  1  0  0  0
 21 48  1  0  0  0
 22 49  1  0  0  0
 22 50  1  0  0  0
 23 24  1  0  0  0
 23 51  1  0  0  0
 24 25  1  0  0  0
 24 52  1  0  0  0
 24 53  1  0  0  0
 25 29  1  0  0  0
 25 54  1  0  0  0
 25 55  1  0  0  0
 26 27  1  0  0  0
 26 29  1  0  0  0
 26 56  1  0  0  0
 27 28  2  0  0  0
 27 30  1  0  0  0
 29 57  1  0  0  0
 29 58  1  0  0  0
 30 31  1  0  0  0
 30 32  1  0  0  0
 30 33  1  0  0  0
 31 59  1  0  0  0
 31 60  1  0  0  0
 31 61  1  0  0  0
 32 62  1  0  0  0
 32 63  1  0  0  0
 32 64  1  0  0  0
 33 34  2  0  0  0
 33 35  1  0  0  0
 35 65  1  0  0  0
 35 66  1  0  0  0
M  END
> <s_m_source_file>
../1z5m_ligand.sdf

> <i_m_source_file_index>
1

> <s_epik_input>
Tz1DKFtOSDJdKUMoW0NIM10pKFtDSDNdKUMoPU8pW05IXVtDSDJdW0NIMl1bQ0gyXVtOSF1jKGMxQnIpbmMobltjSF0xKVtOSF1jMltjSF1jKFtjSF1bY0hdW2NIXTIpW05IXUMoPU8pTjNbQ0gyXVtDSDJdW0NIMl1bQ0gyXTM=

> <s_epik_cmdline>
J2VwaWtfYXBwJywgJy1pbWFlJywgJ2xpZ2FuZF9wcm8ubWFlJywgJy1vbWFlJywgJ2xpZ2FuZF9wcmVwLm1hZScsICctbXMnLCAnMScsICctcGgnLCAnNycsICctcGh0JywgJzAuNScsICctbnQn

> <r_lp_tautomer_probability>
1

> <r_epik_Ionization_Penalty>
  0.0008

> <r_epik_Ionization_Penalty_Charging>
  0.0000

> <r_epik_Ionization_Penalty_Neutral>
  0.0008

> <r_epik_State_Penalty>
 -0.0000

> <r_epik_Charging_Adjusted_Penalty>
0

> <i_epik_Tot_Q>
0

> <i_epik_Tot_abs_Q>
0

$$$$
