1z6d_ligand
                    3D
 Schrodinger Suite 2020-3.
 34 36  0  0  1  0            999 V2000
   36.2720   -2.8330   23.3730 P   0  0  0  0  0  0
   34.8620   -3.1660   22.9990 O   0  0  0  0  0  0
   36.3110   -1.8870   24.5510 O   0  5  0  0  0  0
   37.0690   -2.3120   22.2100 O   0  5  0  0  0  0
   36.9420   -4.2480   23.7920 O   0  0  0  0  0  0
   36.9850   -5.3160   22.8450 C   0  0  0  0  0  0
   38.1660   -6.2560   23.1370 C   0  0  1  0  0  0
   38.1630   -7.3940   22.2700 O   0  0  0  0  0  0
   39.5110   -5.5630   22.9200 C   0  0  1  0  0  0
   40.3050   -5.6430   24.0860 O   0  0  0  0  0  0
   40.1780   -6.3450   21.8140 C   0  0  1  0  0  0
   41.1220   -7.2010   22.4050 O   0  0  0  0  0  0
   39.0930   -7.2310   21.2310 C   0  0  2  0  0  0
   38.4090   -6.5920   20.0800 N   0  0  0  0  0  0
   38.5020   -5.2790   19.6790 C   0  0  0  0  0  0
   37.7150   -5.1010   18.5890 N   0  0  0  0  0  0
   37.1150   -6.2890   18.3100 C   0  0  0  0  0  0
   36.2310   -6.6650   17.3100 C   0  0  0  0  0  0
   35.8330   -5.8520   16.4660 O   0  0  0  0  0  0
   35.8020   -7.9750   17.2550 N   0  0  0  0  0  0
   36.2340   -8.8990   18.1880 C   0  0  0  0  0  0
   37.1010   -8.5190   19.1930 N   0  0  0  0  0  0
   37.5500   -7.2310   19.2330 C   0  0  0  0  0  0
   36.0501   -5.8929   22.9003 H   0  0  0  0  0  0
   37.1018   -4.9034   21.8320 H   0  0  0  0  0  0
   38.0456   -6.6261   24.1658 H   0  0  0  0  0  0
   39.4304   -4.4830   22.7276 H   0  0  0  0  0  0
   39.9836   -5.1334   25.0063 H   0  0  0  0  0  0
   40.7077   -5.7157   21.0837 H   0  0  0  0  0  0
   42.0113   -6.7820   22.8986 H   0  0  0  0  0  0
   39.4720   -8.2069   20.8935 H   0  0  0  0  0  0
   39.1077   -4.5097   20.1579 H   0  0  0  0  0  0
   35.1088   -8.2939   16.4627 H   0  0  0  0  0  0
   35.8889   -9.9313   18.1300 H   0  0  0  0  0  0
  1  2  2  0  0  0
  1  3  1  0  0  0
  1  4  1  0  0  0
  1  5  1  0  0  0
  5  6  1  0  0  0
  6  7  1  0  0  0
  6 24  1  0  0  0
  6 25  1  0  0  0
  7  8  1  0  0  0
  7  9  1  0  0  0
  7 26  1  0  0  0
  8 13  1  0  0  0
  9 10  1  0  0  0
  9 11  1  0  0  0
  9 27  1  0  0  0
 10 28  1  0  0  0
 11 12  1  0  0  0
 11 13  1  0  0  0
 11 29  1  0  0  0
 12 30  1  0  0  0
 13 14  1  0  0  0
 13 31  1  0  0  0
 14 15  1  0  0  0
 14 23  1  0  0  0
 15 16  2  0  0  0
 15 32  1  0  0  0
 16 17  1  0  0  0
 17 18  1  0  0  0
 17 23  2  0  0  0
 18 19  2  0  0  0
 18 20  1  0  0  0
 20 21  1  0  0  0
 20 33  1  0  0  0
 21 22  2  0  0  0
 21 34  1  0  0  0
 22 23  1  0  0  0
M  CHG  2   3  -1   4  -1
M  END
> <s_m_source_file>
../1z6d_ligand.sdf

> <i_m_source_file_index>
1

> <s_epik_input>
Tz1QKFtPSF0pKFtPSF0pT1tDSDJdW0NASF0xT1tDQEhdKFtDQEhdKFtPSF0pW0NAQEhdMVtPSF0pbihbY0hdbjIpYyhjMjMpbltjSF1bbkhdYzM9Tw==

> <s_epik_cmdline>
J2VwaWtfYXBwJywgJy1pbWFlJywgJ2xpZ2FuZF9wcm8ubWFlJywgJy1vbWFlJywgJ2xpZ2FuZF9wcmVwLm1hZScsICctbXMnLCAnMScsICctcGgnLCAnNycsICctcGh0JywgJzAuNScsICctbnQn

> <r_lp_tautomer_probability>
1

> <r_epik_Ionization_Penalty>
  0.1134

> <r_epik_Ionization_Penalty_Charging>
  0.1134

> <r_epik_Ionization_Penalty_Neutral>
  0.0000

> <r_epik_State_Penalty>
 -0.0000

> <r_epik_Charging_Adjusted_Penalty>
0.113364628518096

> <i_epik_Tot_Q>
-2

> <i_epik_Tot_abs_Q>
2

> <s_epik_Chemistry_Notes>
This compound contains an acetal/aminal-like group ( X-CH(R)-Y where X, Y are N, S, or O) that may be acid/base labile, releasing an aldehyde.

$$$$
