1z6f_ligand
                    3D
 Schrodinger Suite 2020-3.
 81 81  0  0  1  0            999 V2000
   50.5290    7.9210   32.8920 O   0  0  0  0  0  0
   49.6190    8.3030   33.6150 C   0  0  0  0  0  0
   49.8660    9.4050   34.5530 O   0  0  0  0  0  0
   50.6820   10.5630   34.2990 C   0  0  0  0  0  0
   50.2610   11.2330   32.9940 C   0  0  0  0  0  0
   50.4650   11.5430   35.4470 C   0  0  0  0  0  0
   52.1610   10.1880   34.2260 C   0  0  0  0  0  0
   48.4240    7.7060   33.5630 N   0  0  0  0  0  0
   47.2680    8.0830   34.3770 C   0  0  2  0  0  0
   47.5380    7.9650   35.8840 C   0  0  0  0  0  0
   47.8050    6.8440   36.3800 O   0  5  0  0  0  0
   47.4910    9.0090   36.5760 O   0  0  0  0  0  0
   46.1140    7.1580   33.9580 C   0  0  0  0  0  0
   46.1090    6.8440   32.4610 C   0  0  0  0  0  0
   44.7340    6.7940   31.8190 C   0  0  0  0  0  0
   44.3620    5.7700   31.2560 O   0  0  0  0  0  0
   43.9820    7.8970   31.8700 N   0  0  0  0  0  0
   42.6660    7.9680   31.2440 C   0  0  2  0  0  0
   42.8980    8.4860   29.8470 C   0  0  0  0  0  0
   43.5670    9.4990   29.6700 O   0  0  0  0  0  0
   42.4130    7.7700   28.8280 N   0  0  0  0  0  0
   42.6230    8.2050   27.4490 C   0  0  2  0  0  0
   41.2890    8.6660   26.8640 C   0  0  0  0  0  0
   43.2480    6.9960   26.5980 B   0  0  0  0  0  0
   44.6600    6.6510   27.1080 O   0  0  0  0  0  0
   42.3690    5.7460   26.6750 O   0  0  0  0  0  0
   41.9120    8.9960   32.0810 C   0  0  0  0  0  0
   40.4110    8.7790   32.1820 C   0  0  0  0  0  0
   39.8550    9.7290   33.2470 C   0  0  0  0  0  0
   39.3700    8.9940   34.4990 C   0  0  0  0  0  0
   40.2180    9.3850   35.6190 N   0  0  0  0  0  0
   39.9930   10.2740   36.5960 C   0  0  0  0  0  0
   40.8190   10.4730   37.4770 O   0  0  0  0  0  0
   38.7540   11.0480   36.6480 O   0  0  0  0  0  0
   38.5810   12.2080   35.8280 C   0  0  0  0  0  0
   37.8760   13.3220   36.5690 C   0  0  0  0  0  0
   38.1680   14.6500   36.2550 C   0  0  0  0  0  0
   37.5290   15.6920   36.9280 C   0  0  0  0  0  0
   36.5870   15.4050   37.9170 C   0  0  0  0  0  0
   36.2900   14.0780   38.2330 C   0  0  0  0  0  0
   36.9340   13.0370   37.5600 C   0  0  0  0  0  0
   49.1959   11.5027   33.0473 H   0  0  0  0  0  0
   50.4218   10.5381   32.1566 H   0  0  0  0  0  0
   50.8618   12.1410   32.8376 H   0  0  0  0  0  0
   49.4004   11.8143   35.5012 H   0  0  0  0  0  0
   51.0658   12.4482   35.2748 H   0  0  0  0  0  0
   50.7724   11.0734   36.3930 H   0  0  0  0  0  0
   52.3196    9.4810   33.3983 H   0  0  0  0  0  0
   52.4675    9.7191   35.1726 H   0  0  0  0  0  0
   52.7609   11.0939   34.0544 H   0  0  0  0  0  0
   48.3440    6.8767   32.8448 H   0  0  0  0  0  0
   47.0647    9.1445   34.1722 H   0  0  0  0  0  0
   46.1949    6.2032   34.4981 H   0  0  0  0  0  0
   45.1538    7.6365   34.2010 H   0  0  0  0  0  0
   46.6795    7.6152   31.9227 H   0  0  0  0  0  0
   46.5713    5.8604   32.2911 H   0  0  0  0  0  0
   44.3842    8.7697   32.4054 H   0  0  0  0  0  0
   42.1450    7.0002   31.2007 H   0  0  0  0  0  0
   41.8519    6.8466   29.0340 H   0  0  0  0  0  0
   43.2973    9.0731   27.4908 H   0  0  0  0  0  0
   40.8894    9.4930   27.4693 H   0  0  0  0  0  0
   40.5762    7.8282   26.8717 H   0  0  0  0  0  0
   41.4410    9.0086   25.8298 H   0  0  0  0  0  0
   45.4411    7.4252   27.1302 H   0  0  0  0  0  0
   41.3184    5.7917   26.3524 H   0  0  0  0  0  0
   42.2983    8.9847   33.1109 H   0  0  0  0  0  0
   42.0535    9.9969   31.6473 H   0  0  0  0  0  0
   39.9437    8.9902   31.2088 H   0  0  0  0  0  0
   40.2097    7.7357   32.4667 H   0  0  0  0  0  0
   40.6403   10.4355   33.5541 H   0  0  0  0  0  0
   39.0023   10.2863   32.8320 H   0  0  0  0  0  0
   38.3249    9.2692   34.7040 H   0  0  0  0  0  0
   39.4381    7.9082   34.3363 H   0  0  0  0  0  0
   41.2078    8.9226   35.7471 H   0  0  0  0  0  0
   39.5649   12.5783   35.5043 H   0  0  0  0  0  0
   37.9791   11.9466   34.9452 H   0  0  0  0  0  0
   38.8999   14.8747   35.4791 H   0  0  0  0  0  0
   37.7649   16.7273   36.6820 H   0  0  0  0  0  0
   36.0835   16.2165   38.4424 H   0  0  0  0  0  0
   35.5547   13.8539   39.0058 H   0  0  0  0  0  0
   36.7012   12.0015   37.8084 H   0  0  0  0  0  0
  1  2  2  0  0  0
  2  3  1  0  0  0
  2  8  1  0  0  0
  3  4  1  0  0  0
  4  5  1  0  0  0
  4  6  1  0  0  0
  4  7  1  0  0  0
  5 42  1  0  0  0
  5 43  1  0  0  0
  5 44  1  0  0  0
  6 45  1  0  0  0
  6 46  1  0  0  0
  6 47  1  0  0  0
  7 48  1  0  0  0
  7 49  1  0  0  0
  7 50  1  0  0  0
  8  9  1  0  0  0
  8 51  1  0  0  0
  9 10  1  0  0  0
  9 13  1  0  0  0
  9 52  1  0  0  0
 10 11  1  0  0  0
 10 12  2  0  0  0
 13 14  1  0  0  0
 13 53  1  0  0  0
 13 54  1  0  0  0
 14 15  1  0  0  0
 14 55  1  0  0  0
 14 56  1  0  0  0
 15 16  2  0  0  0
 15 17  1  0  0  0
 17 18  1  0  0  0
 17 57  1  0  0  0
 18 19  1  0  0  0
 18 27  1  0  0  0
 18 58  1  0  0  0
 19 20  2  0  0  0
 19 21  1  0  0  0
 21 22  1  0  0  0
 21 59  1  0  0  0
 22 23  1  0  0  0
 22 24  1  0  0  0
 22 60  1  0  0  0
 23 61  1  0  0  0
 23 62  1  0  0  0
 23 63  1  0  0  0
 24 25  1  0  0  0
 24 26  1  0  0  0
 25 64  1  0  0  0
 26 65  1  0  0  0
 27 28  1  0  0  0
 27 66  1  0  0  0
 27 67  1  0  0  0
 28 29  1  0  0  0
 28 68  1  0  0  0
 28 69  1  0  0  0
 29 30  1  0  0  0
 29 70  1  0  0  0
 29 71  1  0  0  0
 30 31  1  0  0  0
 30 72  1  0  0  0
 30 73  1  0  0  0
 31 32  1  0  0  0
 31 74  1  0  0  0
 32 33  2  0  0  0
 32 34  1  0  0  0
 34 35  1  0  0  0
 35 36  1  0  0  0
 35 75  1  0  0  0
 35 76  1  0  0  0
 36 37  2  0  0  0
 36 41  1  0  0  0
 37 38  1  0  0  0
 37 77  1  0  0  0
 38 39  2  0  0  0
 38 78  1  0  0  0
 39 40  1  0  0  0
 39 79  1  0  0  0
 40 41  2  0  0  0
 40 80  1  0  0  0
 41 81  1  0  0  0
M  CHG  1  11  -1
M  END
> <s_m_source_file>
../1z6f_ligand.sdf

> <i_m_source_file_index>
1

> <s_epik_input>
W0NIM11DKFtDSDNdKShbQ0gzXSlPQyg9TylbTkhdW0NASF0oQyg9TylbT0hdKVtDSDJdW0NIMl1DKD1PKVtOSF1bQ0BIXShDKD1PKVtOSF1bQ0BIXShbQ0gzXSlCKFtPSF0pW09IXSlbQ0gyXVtDSDJdW0NIMl1bQ0gyXVtOSF1DKD1PKU9bQ0gyXWMxW2NIXVtjSF1bY0hdW2NIXVtjSF0x

> <s_epik_cmdline>
J2VwaWtfYXBwJywgJy1pbWFlJywgJ2xpZ2FuZF9wcm8ubWFlJywgJy1vbWFlJywgJ2xpZ2FuZF9wcmVwLm1hZScsICctbXMnLCAnMScsICctcGgnLCAnNycsICctcGh0JywgJzAuNScsICctbnQn

> <r_lp_tautomer_probability>
1

> <r_epik_Ionization_Penalty>
  0.0001

> <r_epik_Ionization_Penalty_Charging>
  0.0001

> <r_epik_Ionization_Penalty_Neutral>
  0.0000

> <r_epik_State_Penalty>
 -0.0000

> <r_epik_Charging_Adjusted_Penalty>
0.000118534077934456

> <i_epik_Tot_Q>
-1

> <i_epik_Tot_abs_Q>
1

> <s_epik_Chemistry_Notes>
This compound has an ester and may undergo hydrolysis at high or low pH. This compound contains a Lewis acid (boronic acid) which adds nucleophiles to form tetrahedral complexes, lowering the experimental pKa

$$$$
