1z6j_ligand
                    3D
 Schrodinger Suite 2020-3.
 89 92  0  0  1  0            999 V2000
   32.4380    4.3760   10.7720 C   0  0  0  0  0  0
   33.8430    4.5090   10.8910 C   0  0  0  0  0  0
   34.6760    3.5310   10.3210 C   0  0  0  0  0  0
   32.8080    2.3050    9.5340 C   0  0  0  0  0  0
   31.9290    3.2530   10.0800 C   0  0  0  0  0  0
   34.1400    2.4700    9.6690 N   0  0  0  0  0  0
   31.6400    5.3710   11.3620 N   0  0  0  0  0  0
   30.3140    5.4530   11.3390 C   0  0  0  0  0  0
   29.6000    6.5190   12.0610 C   0  0  0  0  0  0
   29.5790    4.6800   10.7620 O   0  0  0  0  0  0
   28.8870    7.5430   11.4180 C   0  0  0  0  0  0
   28.2170    8.5040   12.2460 C   0  0  0  0  0  0
   28.2700    8.4300   13.6710 C   0  0  0  0  0  0
   29.0050    7.3890   14.2980 C   0  0  0  0  0  0
   29.6680    6.4400   13.4860 C   0  0  0  0  0  0
   29.0720    7.3190   15.7660 C   0  0  0  0  0  0
   28.5830    8.3300   16.5320 N   0  0  0  0  0  0
   29.5990    6.2850   16.3620 N   0  3  0  0  0  0
   28.7430    7.7550    9.9410 C   0  0  0  0  0  0
   29.7600    8.7760    9.5160 N   0  0  0  0  0  0
   30.9530    8.4320    9.0230 C   0  0  0  0  0  0
   32.0070    9.5110    8.9880 C   0  0  0  0  0  0
   33.4140    9.0560    8.9670 N   0  0  0  0  0  0
   31.1910    7.3040    8.6370 O   0  0  0  0  0  0
   33.8650    8.3960   10.1290 C   0  0  0  0  0  0
   35.2890    8.0000   10.2390 C   0  0  0  0  0  0
   36.0860    8.2790    9.2340 N   0  0  0  0  0  0
   35.6480    8.9110    8.0670 C   0  0  0  0  0  0
   34.3530    9.2840    7.9240 C   0  0  0  0  0  0
   33.9160    9.8710    6.6410 C   0  0  0  0  0  0
   35.7670    7.3740   11.3670 N   0  0  0  0  0  0
   37.1910    7.1700   11.6760 C   0  0  0  0  0  0
   37.3540    7.1500   13.2260 C   0  0  0  0  0  0
   37.6510    5.8470   11.0200 C   0  0  0  0  0  0
   34.4330   11.1300    6.2080 C   0  0  0  0  0  0
   33.9760   11.6970    4.9830 C   0  0  0  0  0  0
   33.0060   11.0090    4.2070 C   0  0  0  0  0  0
   32.4820    9.7740    4.6120 C   0  0  0  0  0  0
   32.9380    9.2000    5.8370 C   0  0  0  0  0  0
   34.4580   12.9310    4.5440 N   0  0  0  0  0  0
   31.4540    9.1120    3.7900 C   0  0  0  0  0  0
   30.5540    9.8430    3.0600 N   0  0  0  0  0  0
   29.4670    9.3210    2.1800 C   0  0  1  0  0  0
   28.0840    9.8380    2.6450 C   0  0  0  0  0  0
   27.0990    8.7580    3.1840 C   0  0  0  0  0  0
   31.4220    7.8970    3.7810 O   0  0  0  0  0  0
   29.7800    9.7400    0.7270 C   0  0  0  0  0  0
   33.1330    8.1460   11.0960 O   0  0  0  0  0  0
   34.2734    5.3602   11.4186 H   0  0  0  0  0  0
   35.7587    3.6260   10.4036 H   0  0  0  0  0  0
   32.4156    1.4380    9.0025 H   0  0  0  0  0  0
   30.8523    3.1234    9.9704 H   0  0  0  0  0  0
   32.1105    6.1967   11.9160 H   0  0  0  0  0  0
   27.6538    9.3102   11.7759 H   0  0  0  0  0  0
   27.7475    9.1708   14.2762 H   0  0  0  0  0  0
   30.2386    5.6375   13.9534 H   0  0  0  0  0  0
   28.1334    9.2134   16.0551 H   0  0  0  0  0  0
   28.6369    8.2647   17.6287 H   0  0  0  0  0  0
   30.0021    5.4530   15.7660 H   0  0  0  0  0  0
   28.9171    6.8045    9.4155 H   0  0  0  0  0  0
   27.7277    8.1158    9.7196 H   0  0  0  0  0  0
   29.5333    9.8486    9.6060 H   0  0  0  0  0  0
   31.8749   10.1234    8.0838 H   0  0  0  0  0  0
   31.9096   10.1478    9.8796 H   0  0  0  0  0  0
   36.3566    9.1063    7.2621 H   0  0  0  0  0  0
   34.9959    7.0140   12.0640 H   0  0  0  0  0  0
   37.7744    7.9995   11.2499 H   0  0  0  0  0  0
   37.0144    8.1097   13.6428 H   0  0  0  0  0  0
   38.4124    6.9933   13.4814 H   0  0  0  0  0  0
   36.7502    6.3329   13.6477 H   0  0  0  0  0  0
   37.5162    5.9119    9.9302 H   0  0  0  0  0  0
   37.0509    5.0139   11.4148 H   0  0  0  0  0  0
   38.7131    5.6743   11.2485 H   0  0  0  0  0  0
   35.1736   11.6547    6.8116 H   0  0  0  0  0  0
   32.6604   11.4525    3.2732 H   0  0  0  0  0  0
   32.5377    8.2405    6.1644 H   0  0  0  0  0  0
   35.2095   13.4711    5.1387 H   0  0  0  0  0  0
   34.0864   13.3635    3.6033 H   0  0  0  0  0  0
   30.6962   10.9278    3.1739 H   0  0  0  0  0  0
   29.4542    8.2241    2.2613 H   0  0  0  0  0  0
   28.2191   10.5634    3.4608 H   0  0  0  0  0  0
   27.5723   10.3254    1.8020 H   0  0  0  0  0  0
   26.1557    9.2385    3.4828 H   0  0  0  0  0  0
   27.5463    8.2555    4.0543 H   0  0  0  0  0  0
   26.8996    8.0175    2.3954 H   0  0  0  0  0  0
   30.7685    9.3530    0.4387 H   0  0  0  0  0  0
   29.7803   10.8376    0.6539 H   0  0  0  0  0  0
   29.0141    9.3279    0.0535 H   0  0  0  0  0  0
   29.6402    6.2452   17.4605 H   0  0  0  0  0  0
  1  2  2  0  0  0
  1  5  1  0  0  0
  1  7  1  0  0  0
  2  3  1  0  0  0
  2 49  1  0  0  0
  3  6  2  0  0  0
  3 50  1  0  0  0
  4  5  2  0  0  0
  4  6  1  0  0  0
  4 51  1  0  0  0
  5 52  1  0  0  0
  7  8  1  0  0  0
  7 53  1  0  0  0
  8  9  1  0  0  0
  8 10  2  0  0  0
  9 11  2  0  0  0
  9 15  1  0  0  0
 11 12  1  0  0  0
 11 19  1  0  0  0
 12 13  2  0  0  0
 12 54  1  0  0  0
 13 14  1  0  0  0
 13 55  1  0  0  0
 14 15  2  0  0  0
 14 16  1  0  0  0
 15 56  1  0  0  0
 16 17  1  0  0  0
 16 18  2  0  0  0
 17 57  1  0  0  0
 17 58  1  0  0  0
 18 59  1  0  0  0
 18 89  1  0  0  0
 19 20  1  0  0  0
 19 60  1  0  0  0
 19 61  1  0  0  0
 20 21  1  0  0  0
 20 62  1  0  0  0
 21 22  1  0  0  0
 21 24  2  0  0  0
 22 23  1  0  0  0
 22 63  1  0  0  0
 22 64  1  0  0  0
 23 25  1  0  0  0
 23 29  1  0  0  0
 25 26  1  0  0  0
 25 48  2  0  0  0
 26 27  2  0  0  0
 26 31  1  0  0  0
 27 28  1  0  0  0
 28 29  2  0  0  0
 28 65  1  0  0  0
 29 30  1  0  0  0
 30 35  2  0  0  0
 30 39  1  0  0  0
 31 32  1  0  0  0
 31 66  1  0  0  0
 32 33  1  0  0  0
 32 34  1  0  0  0
 32 67  1  0  0  0
 33 68  1  0  0  0
 33 69  1  0  0  0
 33 70  1  0  0  0
 34 71  1  0  0  0
 34 72  1  0  0  0
 34 73  1  0  0  0
 35 36  1  0  0  0
 35 74  1  0  0  0
 36 37  2  0  0  0
 36 40  1  0  0  0
 37 38  1  0  0  0
 37 75  1  0  0  0
 38 39  2  0  0  0
 38 41  1  0  0  0
 39 76  1  0  0  0
 40 77  1  0  0  0
 40 78  1  0  0  0
 41 42  1  0  0  0
 41 46  2  0  0  0
 42 43  1  0  0  0
 42 79  1  0  0  0
 43 44  1  0  0  0
 43 47  1  0  0  0
 43 80  1  0  0  0
 44 45  1  0  0  0
 44 81  1  0  0  0
 44 82  1  0  0  0
 45 83  1  0  0  0
 45 84  1  0  0  0
 45 85  1  0  0  0
 47 86  1  0  0  0
 47 87  1  0  0  0
 47 88  1  0  0  0
M  CHG  1  18   1
M  END
> <s_m_source_file>
../1z6j_ligand.sdf

> <i_m_source_file_index>
1

> <s_epik_input>
W2NIXTFbY0hdbltjSF1bY0hdYzFbTkhdQyg9TyljMmMoW2NIXVtjSF1jKFtjSF0yKS9DKFtOSDJdKT1OXFtIXSlbQ0gyXVtOSF1DKD1PKVtDSDJdbjNjKD1PKWMoW05IXVtDSF0oW0NIM10pW0NIM10pbltjSF1jMy1jNFtjSF1jKFtOSDJdKVtjSF1jKFtjSF00KUMoPU8pW05IXVtDQEhdKFtDSDNdKVtDSDJdW0NIM10=

> <s_epik_cmdline>
J2VwaWtfYXBwJywgJy1pbWFlJywgJ2xpZ2FuZF9wcm8ubWFlJywgJy1vbWFlJywgJ2xpZ2FuZF9wcmVwLm1hZScsICctbXMnLCAnMScsICctcGgnLCAnNycsICctcGh0JywgJzAuNScsICctbnQn

> <r_lp_tautomer_probability>
1

> <r_epik_Ionization_Penalty>
  0.0073

> <r_epik_Ionization_Penalty_Charging>
  0.0002

> <r_epik_Ionization_Penalty_Neutral>
  0.0072

> <r_epik_State_Penalty>
 -0.0000

> <r_epik_Charging_Adjusted_Penalty>
0.000162997544485722

> <i_epik_Tot_Q>
1

> <i_epik_Tot_abs_Q>
1

> <s_epik_Chemistry_Notes>
This compound has an imine and may undergo hydrolysis.

$$$$
