1z9y_ligand
                    3D
 Schrodinger Suite 2020-3.
 31 32  0  0  1  0            999 V2000
   15.6380    1.4270   16.1840 N   0  0  0  0  0  0
   15.1370    2.6790   16.7840 S   0  0  0  0  0  0
   13.6590    2.6160   16.7330 O   0  0  0  0  0  0
   15.7130    2.9170   18.0870 O   0  0  0  0  0  0
   15.6100    3.9730   15.6750 C   0  0  0  0  0  0
   15.2930    5.3200   15.8850 C   0  0  0  0  0  0
   14.4520    5.8080   17.3370 Cl  0  0  0  0  0  0
   15.6370    6.3520   15.0010 C   0  0  0  0  0  0
   16.4040    6.0270   13.8880 C   0  0  0  0  0  0
   16.7790    6.9930   12.9360 N   0  0  0  0  0  0
   16.4230    8.4030   13.1460 C   0  0  0  0  0  0
   17.4210    9.0220   14.0850 C   0  0  0  0  0  0
   18.6220    9.4820   13.7380 C   0  0  0  0  0  0
   19.1450    9.9670   15.0190 C   0  0  0  0  0  0
   18.1450    9.7210   15.8700 C   0  0  0  0  0  0
   17.0770    9.0800   15.3780 O   0  0  0  0  0  0
   16.6950    4.6740   13.6520 C   0  0  0  0  0  0
   16.3160    3.6480   14.5140 C   0  0  0  0  0  0
   17.4990    4.2320   12.4480 C   0  0  0  0  0  0
   17.8720    5.0500   11.6410 O   0  0  0  0  0  0
   17.7760    2.9490   12.3240 O   0  5  0  0  0  0
   15.3733    0.5784   16.8319 H   0  0  0  0  0  0
   16.7317    1.4821   16.0804 H   0  0  0  0  0  0
   15.3133    7.3772   15.1806 H   0  0  0  0  0  0
   17.3373    6.6948   12.0363 H   0  0  0  0  0  0
   16.4405    8.9330   12.1823 H   0  0  0  0  0  0
   15.4145    8.4657   13.5807 H   0  0  0  0  0  0
   19.0940    9.4946   12.7556 H   0  0  0  0  0  0
   20.1149   10.4189   15.2267 H   0  0  0  0  0  0
   18.1959   10.0273   16.9148 H   0  0  0  0  0  0
   16.5653    2.6114   14.2873 H   0  0  0  0  0  0
  1  2  1  0  0  0
  1 22  1  0  0  0
  1 23  1  0  0  0
  2  3  2  0  0  0
  2  4  2  0  0  0
  2  5  1  0  0  0
  5  6  2  0  0  0
  5 18  1  0  0  0
  6  7  1  0  0  0
  6  8  1  0  0  0
  8  9  2  0  0  0
  8 24  1  0  0  0
  9 10  1  0  0  0
  9 17  1  0  0  0
 10 11  1  0  0  0
 10 25  1  0  0  0
 11 12  1  0  0  0
 11 26  1  0  0  0
 11 27  1  0  0  0
 12 13  2  0  0  0
 12 16  1  0  0  0
 13 14  1  0  0  0
 13 28  1  0  0  0
 14 15  2  0  0  0
 14 29  1  0  0  0
 15 16  1  0  0  0
 15 30  1  0  0  0
 17 18  2  0  0  0
 17 19  1  0  0  0
 18 31  1  0  0  0
 19 20  2  0  0  0
 19 21  1  0  0  0
M  CHG  1  21  -1
M  END
> <s_m_source_file>
../1z9y_ligand.sdf

> <i_m_source_file_index>
1

> <s_epik_input>
W05IMl1TKD1PKSg9TyljMWMoQ2wpW2NIXWMoYyhbY0hdMSlDKD1PKVtPSF0pW05IXVtDSDJdYzJbY0hdW2NIXVtjSF1vMg==

> <s_epik_cmdline>
J2VwaWtfYXBwJywgJy1pbWFlJywgJ2xpZ2FuZF9wcm8ubWFlJywgJy1vbWFlJywgJ2xpZ2FuZF9wcmVwLm1hZScsICctbXMnLCAnMScsICctcGgnLCAnNycsICctcGh0JywgJzAuNScsICctbnQn

> <r_lp_tautomer_probability>
1

> <r_epik_Ionization_Penalty>
  0.0018

> <r_epik_Ionization_Penalty_Charging>
  0.0004

> <r_epik_Ionization_Penalty_Neutral>
  0.0015

> <r_epik_State_Penalty>
 -0.0000

> <r_epik_Charging_Adjusted_Penalty>
0.000360382905360061

> <i_epik_Tot_Q>
-1

> <i_epik_Tot_abs_Q>
1

$$$$
