1zaf_ligand
                    3D
 Schrodinger Suite 2020-3.
 27 29  0  0  1  0            999 V2000
   33.4620   36.3160   35.9540 C   0  0  0  0  0  0
   32.8160   35.6350   37.0420 C   0  0  0  0  0  0
   31.5420   36.1300   37.4560 C   0  0  0  0  0  0
   30.9330   37.2250   36.8510 C   0  0  0  0  0  0
   31.5830   37.9080   35.7580 C   0  0  0  0  0  0
   32.8600   37.4450   35.3080 C   0  0  0  0  0  0
   30.6610   35.7020   38.4680 C   0  0  0  0  0  0
   29.4350   36.5800   38.4850 C   0  0  0  0  0  0
   29.6390   37.5550   37.4390 C   0  0  0  0  0  0
   28.2420   36.4590   39.4200 C   0  0  0  0  0  0
   26.9150   36.7450   38.9340 C   0  0  0  0  0  0
   25.7710   36.6530   39.7820 C   0  0  0  0  0  0
   25.9560   36.2660   41.1380 C   0  0  0  0  0  0
   27.2570   35.9680   41.6570 C   0  0  0  0  0  0
   28.4020   36.0650   40.7970 C   0  0  0  0  0  0
   24.8490   36.1830   41.9420 O   0  0  0  0  0  0
   30.8640   34.7500   39.2200 O   0  0  0  0  0  0
   34.6920   35.8860   35.5140 O   0  5  0  0  0  0
   28.5450   38.9880   36.8620 Br  0  0  0  0  0  0
   33.2786   34.7773   37.5304 H   0  0  0  0  0  0
   31.1073   38.7653   35.2816 H   0  0  0  0  0  0
   33.3688   37.9449   34.4838 H   0  0  0  0  0  0
   26.7823   37.0388   37.8928 H   0  0  0  0  0  0
   24.7752   36.8749   39.3982 H   0  0  0  0  0  0
   27.3769   35.6694   42.6984 H   0  0  0  0  0  0
   29.3950   35.8401   41.1863 H   0  0  0  0  0  0
   23.8541   36.4140   41.5336 H   0  0  0  0  0  0
  1  2  2  0  0  0
  1  6  1  0  0  0
  1 18  1  0  0  0
  2  3  1  0  0  0
  2 20  1  0  0  0
  3  4  2  0  0  0
  3  7  1  0  0  0
  4  5  1  0  0  0
  4  9  1  0  0  0
  5  6  2  0  0  0
  5 21  1  0  0  0
  6 22  1  0  0  0
  7  8  1  0  0  0
  7 17  2  0  0  0
  8  9  2  0  0  0
  8 10  1  0  0  0
  9 19  1  0  0  0
 10 11  2  0  0  0
 10 15  1  0  0  0
 11 12  1  0  0  0
 11 23  1  0  0  0
 12 13  2  0  0  0
 12 24  1  0  0  0
 13 14  1  0  0  0
 13 16  1  0  0  0
 14 15  2  0  0  0
 14 25  1  0  0  0
 15 26  1  0  0  0
 16 27  1  0  0  0
M  CHG  1  18  -1
M  END
> <s_m_source_file>
../1zaf_ligand.sdf

> <i_m_source_file_index>
1

> <s_epik_input>
W2NIXTFjKFtPSF0pW2NIXVtjSF1jKGMxMilDKEJyKT1DKEMyPU8pYzNbY0hdW2NIXWMoW09IXSlbY0hdW2NIXTM=

> <s_epik_cmdline>
J2VwaWtfYXBwJywgJy1pbWFlJywgJ2xpZ2FuZF9wcm8ubWFlJywgJy1vbWFlJywgJ2xpZ2FuZF9wcmVwLm1hZScsICctbXMnLCAnMScsICctcGgnLCAnNycsICctcGh0JywgJzAuNScsICctbnQn

> <r_lp_tautomer_probability>
1

> <r_epik_Ionization_Penalty>
  0.1313

> <r_epik_Ionization_Penalty_Charging>
  0.1163

> <r_epik_Ionization_Penalty_Neutral>
  0.0150

> <r_epik_State_Penalty>
 -0.0000

> <r_epik_Charging_Adjusted_Penalty>
0.11626917036012

> <i_epik_Tot_Q>
-1

> <i_epik_Tot_abs_Q>
1

$$$$
