1zaj_ligand
                    3D
 Schrodinger Suite 2020-3.
 32 31  0  0  1  0            999 V2000
    5.8470  -30.5860   47.9390 C   0  0  0  0  0  0
    2.5090  -30.2410   51.4720 C   0  0  2  0  0  0
    1.0680  -30.7010   51.6990 C   0  0  0  0  0  0
    2.8050  -30.2320   49.9720 C   0  0  2  0  0  0
    4.2210  -29.7370   49.6670 C   0  0  1  0  0  0
    4.5250  -29.8520   48.1720 C   0  0  2  0  0  0
    8.1140  -32.4350   47.5370 O   0  5  0  0  0  0
    6.7340  -33.0720   48.0710 P   0  0  0  0  0  0
    5.9510  -33.6140   46.7720 O   0  5  0  0  0  0
    6.9460  -34.1180   49.0960 O   0  0  0  0  0  0
    5.8480  -31.8440   48.6190 O   0  0  0  0  0  0
    3.4670  -30.5500   47.5070 O   0  0  0  0  0  0
    4.3360  -28.3640   50.0530 O   0  0  0  0  0  0
    1.8460  -29.3950   49.3190 O   0  0  0  0  0  0
    3.3980  -31.1450   52.1330 O   0  0  0  0  0  0
    0.7020  -30.5920   53.0750 O   0  0  0  0  0  0
   -0.7800  -31.0410   53.5080 P   0  0  0  0  0  0
   -0.8750  -30.7350   55.0850 O   0  5  0  0  0  0
   -0.8430  -32.6390   53.3290 O   0  5  0  0  0  0
   -1.8200  -30.3380   52.7250 O   0  0  0  0  0  0
    5.9837  -30.7620   46.8618 H   0  0  0  0  0  0
    6.6782  -29.9738   48.3189 H   0  0  0  0  0  0
    2.6957  -29.2530   51.9182 H   0  0  0  0  0  0
    0.3857  -30.0764   51.1038 H   0  0  0  0  0  0
    0.9657  -31.7520   51.3909 H   0  0  0  0  0  0
    2.6819  -31.2435   49.5576 H   0  0  0  0  0  0
    4.9566  -30.3000   50.2602 H   0  0  0  0  0  0
    4.5554  -28.8505   47.7180 H   0  0  0  0  0  0
    3.5198  -30.7244   46.4222 H   0  0  0  0  0  0
    4.1546  -28.0692   51.0971 H   0  0  0  0  0  0
    0.7711  -29.6023   49.4270 H   0  0  0  0  0  0
    3.3322  -31.2832   53.2223 H   0  0  0  0  0  0
  1  6  1  0  0  0
  1 11  1  0  0  0
  1 21  1  0  0  0
  1 22  1  0  0  0
  2  3  1  0  0  0
  2  4  1  0  0  0
  2 15  1  0  0  0
  2 23  1  0  0  0
  3 16  1  0  0  0
  3 24  1  0  0  0
  3 25  1  0  0  0
  4  5  1  0  0  0
  4 14  1  0  0  0
  4 26  1  0  0  0
  5  6  1  0  0  0
  5 13  1  0  0  0
  5 27  1  0  0  0
  6 12  1  0  0  0
  6 28  1  0  0  0
  7  8  1  0  0  0
  8  9  1  0  0  0
  8 10  2  0  0  0
  8 11  1  0  0  0
 12 29  1  0  0  0
 13 30  1  0  0  0
 14 31  1  0  0  0
 15 32  1  0  0  0
 16 17  1  0  0  0
 17 18  1  0  0  0
 17 19  1  0  0  0
 17 20  2  0  0  0
M  CHG  4   7  -1   9  -1  18  -1  19  -1
M  END
> <s_m_source_file>
../1zaj_ligand.sdf

> <i_m_source_file_index>
1

> <s_epik_input>
W09IXVAoPU8pKFtPSF0pT1tDSDJdW0NAQEhdKFtPSF0pW0NAQEhdKFtPSF0pW0NASF0oW09IXSlbQ0BIXShbT0hdKVtDSDJdT1AoPU8pKFtPSF0pW09IXQ==

> <s_epik_cmdline>
J2VwaWtfYXBwJywgJy1pbWFlJywgJ2xpZ2FuZF9wcm8ubWFlJywgJy1vbWFlJywgJ2xpZ2FuZF9wcmVwLm1hZScsICctbXMnLCAnMScsICctcGgnLCAnNycsICctcGh0JywgJzAuNScsICctbnQn

> <r_epik_Ionization_Penalty>
  0.2115

> <r_epik_Ionization_Penalty_Charging>
  0.2115

> <r_epik_Ionization_Penalty_Neutral>
  0.0000

> <r_epik_State_Penalty>
  0.2172

> <r_epik_Charging_Adjusted_Penalty>
0.428688454343908

> <i_epik_Tot_Q>
-4

> <i_epik_Tot_abs_Q>
4

$$$$
