1zc9_ligand
                    3D
 Schrodinger Suite 2020-3.
 28 28  0  0  1  0            999 V2000
   17.1240   52.9180   13.7800 N   0  3  0  0  0  0
   16.0010   53.1890   14.5470 C   0  0  0  0  0  0
   14.9270   54.1310   13.9730 C   0  0  0  0  0  0
   15.9560   52.5580   15.8330 C   0  0  0  0  0  0
   14.8710   52.8170   16.5890 O   0  5  0  0  0  0
   16.9930   51.7190   16.2850 C   0  0  0  0  0  0
   16.8920   51.1130   17.6130 C   0  0  0  0  0  0
   15.9010   50.2490   17.7330 N   0  3  0  0  0  0
   18.1100   51.5050   15.3980 C   0  0  0  0  0  0
   18.1770   52.0930   14.1570 C   0  0  0  0  0  0
   19.3130   50.5770   15.7990 C   0  0  0  0  0  0
   19.0220   49.2060   15.6340 O   0  0  0  0  0  0
   19.9460   48.1540   16.4000 P   0  0  0  0  0  0
   19.3970   46.8460   16.0150 O   0  5  0  0  0  0
   21.3840   48.2490   15.9300 O   0  5  0  0  0  0
   19.8240   48.4070   17.8060 O   0  0  0  0  0  0
   15.2291   54.4627   12.9686 H   0  0  0  0  0  0
   14.8174   55.0060   14.6306 H   0  0  0  0  0  0
   13.9672   53.5974   13.9097 H   0  0  0  0  0  0
   17.8232   50.5740   17.8418 H   0  0  0  0  0  0
   16.7301   51.9003   18.3640 H   0  0  0  0  0  0
   15.8927   49.8402   18.7542 H   0  0  0  0  0  0
   16.0389   49.4303   17.0114 H   0  0  0  0  0  0
   14.9458   50.7567   17.5335 H   0  0  0  0  0  0
   19.0242   51.9187   13.4937 H   0  0  0  0  0  0
   20.1843   50.8143   15.1710 H   0  0  0  0  0  0
   19.5672   50.7425   16.8564 H   0  0  0  0  0  0
   17.2324   53.3720   12.7840 H   0  0  0  0  0  0
  1  2  2  0  0  0
  1 10  1  0  0  0
  1 28  1  0  0  0
  2  3  1  0  0  0
  2  4  1  0  0  0
  3 17  1  0  0  0
  3 18  1  0  0  0
  3 19  1  0  0  0
  4  5  1  0  0  0
  4  6  2  0  0  0
  6  7  1  0  0  0
  6  9  1  0  0  0
  7  8  1  0  0  0
  7 20  1  0  0  0
  7 21  1  0  0  0
  8 22  1  0  0  0
  8 23  1  0  0  0
  8 24  1  0  0  0
  9 10  2  0  0  0
  9 11  1  0  0  0
 10 25  1  0  0  0
 11 12  1  0  0  0
 11 26  1  0  0  0
 11 27  1  0  0  0
 12 13  1  0  0  0
 13 14  1  0  0  0
 13 15  1  0  0  0
 13 16  2  0  0  0
M  CHG  5   1   1   5  -1   8   1  14  -1  15  -1
M  END
> <s_m_source_file>
../1zc9_ligand.sdf

> <i_m_source_file_index>
1

> <s_epik_input>
W0NIM11jMW5bY0hdYyhjKGMxW09IXSlbQ0gyXVtOSDMrXSlbQ0gyXU9QKD1PKShbT0hdKVtPSF0=

> <s_epik_cmdline>
J2VwaWtfYXBwJywgJy1pbWFlJywgJ2xpZ2FuZF9wcm8ubWFlJywgJy1vbWFlJywgJ2xpZ2FuZF9wcmVwLm1hZScsICctbXMnLCAnMScsICctcGgnLCAnNycsICctcGh0JywgJzAuNScsICctbnQn

> <r_lp_tautomer_probability>
1

> <r_epik_Ionization_Penalty>
  0.1538

> <r_epik_Ionization_Penalty_Charging>
  0.1538

> <r_epik_Ionization_Penalty_Neutral>
  0.0000

> <r_epik_State_Penalty>
 -0.0000

> <r_epik_Charging_Adjusted_Penalty>
0.153787067583469

> <i_epik_Tot_Q>
-1

> <i_epik_Tot_abs_Q>
5

$$$$
