1zd2_ligand
                    3D
 Schrodinger Suite 2020-3.
 29 29  0  0  1  0            999 V2000
  -18.0030   -9.6450   67.3740 C   0  0  0  0  0  0
  -18.1280   -9.0860   65.9770 N   0  0  0  0  0  0
  -17.3100   -8.1030   65.3770 C   0  0  0  0  0  0
  -17.6550   -7.7520   64.0600 N   0  0  0  0  0  0
  -16.9280   -6.7180   63.2580 C   0  0  0  0  0  0
  -17.5550   -6.6490   61.8440 C   0  0  0  0  0  0
  -17.1850   -5.5580   61.1550 O   0  5  0  0  0  0
  -16.3860   -7.5550   65.9610 O   0  0  0  0  0  0
  -18.2950   -7.4810   61.3710 O   0  0  0  0  0  0
  -18.5360  -11.1100   67.4220 C   0  0  0  0  0  0
  -18.4280  -11.7340   68.8430 C   0  0  0  0  0  0
  -16.9710  -11.6530   69.3890 C   0  0  0  0  0  0
  -16.4270  -10.1930   69.3300 C   0  0  0  0  0  0
  -16.5360   -9.6100   67.8950 C   0  0  0  0  0  0
  -18.6173   -8.9836   68.0027 H   0  0  0  0  0  0
  -18.9244   -9.4467   65.3095 H   0  0  0  0  0  0
  -18.5119   -8.2851   63.6224 H   0  0  0  0  0  0
  -17.0180   -5.7399   63.7531 H   0  0  0  0  0  0
  -15.8659   -6.9936   63.1810 H   0  0  0  0  0  0
  -19.5948  -11.1249   67.1241 H   0  0  0  0  0  0
  -17.9518  -11.7356   66.7310 H   0  0  0  0  0  0
  -19.0905  -11.1911   69.5332 H   0  0  0  0  0  0
  -18.7278  -12.7916   68.8028 H   0  0  0  0  0  0
  -16.9521  -11.9924   70.4352 H   0  0  0  0  0  0
  -16.3160  -12.2962   68.7830 H   0  0  0  0  0  0
  -17.0099   -9.5567   70.0122 H   0  0  0  0  0  0
  -15.3696  -10.1831   69.6331 H   0  0  0  0  0  0
  -15.8957  -10.2058   67.2279 H   0  0  0  0  0  0
  -16.1783   -8.5699   67.9140 H   0  0  0  0  0  0
  1  2  1  0  0  0
  1 10  1  0  0  0
  1 14  1  0  0  0
  1 15  1  0  0  0
  2  3  1  0  0  0
  2 16  1  0  0  0
  3  4  1  0  0  0
  3  8  2  0  0  0
  4  5  1  0  0  0
  4 17  1  0  0  0
  5  6  1  0  0  0
  5 18  1  0  0  0
  5 19  1  0  0  0
  6  7  1  0  0  0
  6  9  2  0  0  0
 10 11  1  0  0  0
 10 20  1  0  0  0
 10 21  1  0  0  0
 11 12  1  0  0  0
 11 22  1  0  0  0
 11 23  1  0  0  0
 12 13  1  0  0  0
 12 24  1  0  0  0
 12 25  1  0  0  0
 13 14  1  0  0  0
 13 26  1  0  0  0
 13 27  1  0  0  0
 14 28  1  0  0  0
 14 29  1  0  0  0
M  CHG  1   7  -1
M  END
> <s_m_source_file>
../1zd2_ligand.sdf

> <i_m_source_file_index>
1

> <s_epik_input>
W0NIMl0xW0NIMl1bQ0gyXVtDSDJdW0NIMl1bQ0hdMVtOSF1DKD1PKVtOSF1bQ0gyXUMoPU8pW09IXQ==

> <s_epik_cmdline>
J2VwaWtfYXBwJywgJy1pbWFlJywgJ2xpZ2FuZF9wcm8ubWFlJywgJy1vbWFlJywgJ2xpZ2FuZF9wcmVwLm1hZScsICctbXMnLCAnMScsICctcGgnLCAnNycsICctcGh0JywgJzAuNScsICctbnQn

> <r_lp_tautomer_probability>
1

> <r_epik_Ionization_Penalty>
  0.0015

> <r_epik_Ionization_Penalty_Charging>
  0.0014

> <r_epik_Ionization_Penalty_Neutral>
  0.0001

> <r_epik_State_Penalty>
 -0.0000

> <r_epik_Charging_Adjusted_Penalty>
0.00142983627389121

> <i_epik_Tot_Q>
-1

> <i_epik_Tot_abs_Q>
1

$$$$
