1zd3_ligand
                    3D
 Schrodinger Suite 2020-3.
 35 35  0  0  1  0            999 V2000
  -17.6210   -7.3610   63.0660 C   0  0  0  0  0  0
  -18.0200   -7.7600   64.4210 N   0  0  0  0  0  0
  -17.7790   -8.9930   64.9630 C   0  0  0  0  0  0
  -18.2270   -9.1620   66.2440 N   0  0  0  0  0  0
  -18.0320  -10.4100   66.9900 C   0  0  0  0  0  0
  -18.1580  -10.1230   68.4920 C   0  0  0  0  0  0
  -16.9560  -10.6580   69.2970 C   0  0  0  0  0  0
  -17.0630  -10.3930   70.7970 C   0  0  0  0  0  0
  -15.9950  -10.8730   71.4680 O   0  5  0  0  0  0
  -17.2040   -9.8610   64.3660 O   0  0  0  0  0  0
  -17.9610   -9.8310   71.3770 O   0  0  0  0  0  0
  -18.6010   -6.3010   62.4940 C   0  0  0  0  0  0
  -18.1890   -5.8690   61.0700 C   0  0  0  0  0  0
  -16.7410   -5.3230   61.0530 C   0  0  0  0  0  0
  -15.7300   -6.3360   61.6540 C   0  0  0  0  0  0
  -16.1780   -6.7800   63.0760 C   0  0  0  0  0  0
  -17.6687   -8.2873   62.4746 H   0  0  0  0  0  0
  -18.5488   -7.0473   65.0709 H   0  0  0  0  0  0
  -18.7511   -8.3166   66.7137 H   0  0  0  0  0  0
  -18.7964  -11.1410   66.6879 H   0  0  0  0  0  0
  -17.0322  -10.8143   66.7734 H   0  0  0  0  0  0
  -18.2181   -9.0366   68.6539 H   0  0  0  0  0  0
  -19.0679  -10.6027   68.8819 H   0  0  0  0  0  0
  -16.8777  -11.7465   69.1591 H   0  0  0  0  0  0
  -16.0331  -10.1761   68.9419 H   0  0  0  0  0  0
  -19.6154   -6.7244   62.4521 H   0  0  0  0  0  0
  -18.6008   -5.4132   63.1434 H   0  0  0  0  0  0
  -18.2477   -6.7340   60.3930 H   0  0  0  0  0  0
  -18.8678   -5.0793   60.7156 H   0  0  0  0  0  0
  -16.4407   -5.1125   60.0159 H   0  0  0  0  0  0
  -16.6914   -4.3967   61.6442 H   0  0  0  0  0  0
  -15.6708   -7.2231   61.0063 H   0  0  0  0  0  0
  -14.7378   -5.8662   61.7239 H   0  0  0  0  0  0
  -16.1397   -5.9048   63.7413 H   0  0  0  0  0  0
  -15.4766   -7.5464   63.4376 H   0  0  0  0  0  0
  1  2  1  0  0  0
  1 12  1  0  0  0
  1 16  1  0  0  0
  1 17  1  0  0  0
  2  3  1  0  0  0
  2 18  1  0  0  0
  3  4  1  0  0  0
  3 10  2  0  0  0
  4  5  1  0  0  0
  4 19  1  0  0  0
  5  6  1  0  0  0
  5 20  1  0  0  0
  5 21  1  0  0  0
  6  7  1  0  0  0
  6 22  1  0  0  0
  6 23  1  0  0  0
  7  8  1  0  0  0
  7 24  1  0  0  0
  7 25  1  0  0  0
  8  9  1  0  0  0
  8 11  2  0  0  0
 12 13  1  0  0  0
 12 26  1  0  0  0
 12 27  1  0  0  0
 13 14  1  0  0  0
 13 28  1  0  0  0
 13 29  1  0  0  0
 14 15  1  0  0  0
 14 30  1  0  0  0
 14 31  1  0  0  0
 15 16  1  0  0  0
 15 32  1  0  0  0
 15 33  1  0  0  0
 16 34  1  0  0  0
 16 35  1  0  0  0
M  CHG  1   9  -1
M  END
> <s_m_source_file>
../1zd3_ligand.sdf

> <i_m_source_file_index>
1

> <s_epik_input>
W0NIMl0xW0NIMl1bQ0gyXVtDSDJdW0NIMl1bQ0hdMVtOSF1DKD1PKVtOSF1bQ0gyXVtDSDJdW0NIMl1DKD1PKVtPSF0=

> <s_epik_cmdline>
J2VwaWtfYXBwJywgJy1pbWFlJywgJ2xpZ2FuZF9wcm8ubWFlJywgJy1vbWFlJywgJ2xpZ2FuZF9wcmVwLm1hZScsICctbXMnLCAnMScsICctcGgnLCAnNycsICctcGh0JywgJzAuNScsICctbnQn

> <r_lp_tautomer_probability>
1

> <r_epik_Ionization_Penalty>
  0.0040

> <r_epik_Ionization_Penalty_Charging>
  0.0039

> <r_epik_Ionization_Penalty_Neutral>
  0.0001

> <r_epik_State_Penalty>
 -0.0000

> <r_epik_Charging_Adjusted_Penalty>
0.00391852445862859

> <i_epik_Tot_Q>
-1

> <i_epik_Tot_abs_Q>
1

$$$$
