1zd4_ligand
                    3D
 Schrodinger Suite 2020-3.
 41 41  0  0  1  0            999 V2000
   15.4350   11.5450  141.5140 C   0  0  0  0  0  0
   16.1780   11.9470  140.3000 N   0  0  0  0  0  0
   16.8440   11.0560  139.4790 C   0  0  0  0  0  0
   17.2680   11.5780  138.2730 N   0  0  0  0  0  0
   17.9600   10.7740  137.2560 C   0  0  0  0  0  0
   17.0330   10.6330  136.0430 C   0  0  0  0  0  0
   17.6420    9.8050  134.9080 C   0  0  0  0  0  0
   16.6670    9.6990  133.7260 C   0  0  0  0  0  0
   17.2350    8.8690  132.5630 C   0  0  0  0  0  0
   17.0230    9.8970  139.7860 O   0  0  0  0  0  0
   16.2810    8.7440  131.3780 C   0  0  0  0  0  0
   16.8260    8.0060  130.3840 O   0  5  0  0  0  0
   15.1650    9.2190  131.2760 O   0  0  0  0  0  0
   15.1970   12.7700  142.4340 C   0  0  0  0  0  0
   14.4100   12.3770  143.7090 C   0  0  0  0  0  0
   13.0640   11.6810  143.3630 C   0  0  0  0  0  0
   13.2610   10.4890  142.3900 C   0  0  0  0  0  0
   14.0630   10.9120  141.1310 C   0  0  0  0  0  0
   16.0783   10.8075  142.0163 H   0  0  0  0  0  0
   16.2217   13.0065  140.0075 H   0  0  0  0  0  0
   17.0677   12.6438  138.0888 H   0  0  0  0  0  0
   18.8925   11.2781  136.9621 H   0  0  0  0  0  0
   18.1942    9.7820  137.6697 H   0  0  0  0  0  0
   16.0999   10.1380  136.3502 H   0  0  0  0  0  0
   16.8033   11.6301  135.6391 H   0  0  0  0  0  0
   18.5691   10.2847  134.5609 H   0  0  0  0  0  0
   17.8677    8.7922  135.2732 H   0  0  0  0  0  0
   15.7360    9.2182  134.0607 H   0  0  0  0  0  0
   16.4429   10.7059  133.3441 H   0  0  0  0  0  0
   18.1579    9.3396  132.1932 H   0  0  0  0  0  0
   17.4579    7.8506  132.9139 H   0  0  0  0  0  0
   16.1655   13.1932  142.7390 H   0  0  0  0  0  0
   14.6196   13.5312  141.8889 H   0  0  0  0  0  0
   15.0131   11.6829  144.3128 H   0  0  0  0  0  0
   14.1911   13.2800  144.2977 H   0  0  0  0  0  0
   12.6009   11.2995  144.2849 H   0  0  0  0  0  0
   12.3882   12.4062  142.8861 H   0  0  0  0  0  0
   13.8120    9.6858  142.9011 H   0  0  0  0  0  0
   12.2789   10.1125  142.0678 H   0  0  0  0  0  0
   13.4659   11.6442  140.5676 H   0  0  0  0  0  0
   14.2314   10.0201  140.5095 H   0  0  0  0  0  0
  1  2  1  0  0  0
  1 14  1  0  0  0
  1 18  1  0  0  0
  1 19  1  0  0  0
  2  3  1  0  0  0
  2 20  1  0  0  0
  3  4  1  0  0  0
  3 10  2  0  0  0
  4  5  1  0  0  0
  4 21  1  0  0  0
  5  6  1  0  0  0
  5 22  1  0  0  0
  5 23  1  0  0  0
  6  7  1  0  0  0
  6 24  1  0  0  0
  6 25  1  0  0  0
  7  8  1  0  0  0
  7 26  1  0  0  0
  7 27  1  0  0  0
  8  9  1  0  0  0
  8 28  1  0  0  0
  8 29  1  0  0  0
  9 11  1  0  0  0
  9 30  1  0  0  0
  9 31  1  0  0  0
 11 12  1  0  0  0
 11 13  2  0  0  0
 14 15  1  0  0  0
 14 32  1  0  0  0
 14 33  1  0  0  0
 15 16  1  0  0  0
 15 34  1  0  0  0
 15 35  1  0  0  0
 16 17  1  0  0  0
 16 36  1  0  0  0
 16 37  1  0  0  0
 17 18  1  0  0  0
 17 38  1  0  0  0
 17 39  1  0  0  0
 18 40  1  0  0  0
 18 41  1  0  0  0
M  CHG  1  12  -1
M  END
> <s_m_source_file>
../1zd4_ligand.sdf

> <i_m_source_file_index>
1

> <s_epik_input>
W0NIMl0xW0NIMl1bQ0gyXVtDSDJdW0NIMl1bQ0hdMVtOSF1DKD1PKVtOSF1bQ0gyXVtDSDJdW0NIMl1bQ0gyXVtDSDJdQyg9TylbT0hd

> <s_epik_cmdline>
J2VwaWtfYXBwJywgJy1pbWFlJywgJ2xpZ2FuZF9wcm8ubWFlJywgJy1vbWFlJywgJ2xpZ2FuZF9wcmVwLm1hZScsICctbXMnLCAnMScsICctcGgnLCAnNycsICctcGh0JywgJzAuNScsICctbnQn

> <r_lp_tautomer_probability>
1

> <r_epik_Ionization_Penalty>
  0.0047

> <r_epik_Ionization_Penalty_Charging>
  0.0046

> <r_epik_Ionization_Penalty_Neutral>
  0.0001

> <r_epik_State_Penalty>
 -0.0000

> <r_epik_Charging_Adjusted_Penalty>
0.00463499154891402

> <i_epik_Tot_Q>
-1

> <i_epik_Tot_abs_Q>
1

$$$$
