1zd5_ligand
                    3D
 Schrodinger Suite 2020-3.
 44 44  0  0  1  0            999 V2000
  -17.9510  -10.0790   67.0620 C   0  0  0  0  0  0
  -18.4930   -8.9740   66.2480 N   0  0  0  0  0  0
  -17.8940   -8.5860   65.0710 C   0  0  0  0  0  0
  -18.3350   -7.4330   64.4890 N   0  0  0  0  0  0
  -17.4680   -6.9930   63.4290 C   0  0  0  0  0  0
  -17.8250   -7.3860   61.9880 C   0  0  0  0  0  0
  -16.5710   -6.8340   61.3630 C   0  0  0  0  0  0
  -16.2610   -6.8480   59.8890 C   0  0  0  0  0  0
  -14.8580   -6.2520   60.0770 C   0  0  0  0  0  0
  -16.9180   -9.1450   64.6460 O   0  0  0  0  0  0
  -13.9420   -5.9930   58.9100 C   0  0  0  0  0  0
  -12.5890   -5.4870   59.4360 C   0  0  0  0  0  0
  -11.7690   -5.2300   58.4120 O   0  5  0  0  0  0
  -12.2380   -5.3120   60.6100 O   0  0  0  0  0  0
  -17.6440   -9.5840   68.4900 C   0  0  0  0  0  0
  -17.1070  -10.7260   69.3840 C   0  0  0  0  0  0
  -18.0920  -11.9230   69.4270 C   0  0  0  0  0  0
  -18.4540  -12.4130   68.0040 C   0  0  0  0  0  0
  -18.9870  -11.2460   67.1280 C   0  0  0  0  0  0
  -17.0221  -10.3955   66.5650 H   0  0  0  0  0  0
  -19.3961   -8.4395   66.5779 H   0  0  0  0  0  0
  -19.2334   -6.8509   64.7421 H   0  0  0  0  0  0
  -17.4272   -5.8938   63.4211 H   0  0  0  0  0  0
  -16.4574   -7.3962   63.5906 H   0  0  0  0  0  0
  -17.9502   -8.4771   61.9259 H   0  0  0  0  0  0
  -18.7631   -6.8920   61.6949 H   0  0  0  0  0  0
  -16.4910   -5.7603   61.5884 H   0  0  0  0  0  0
  -15.6956   -7.3605   61.7709 H   0  0  0  0  0  0
  -16.3126   -7.8806   59.5133 H   0  0  0  0  0  0
  -16.9940   -6.2262   59.3542 H   0  0  0  0  0  0
  -14.9404   -5.2627   60.5508 H   0  0  0  0  0  0
  -14.2600   -6.9168   60.7177 H   0  0  0  0  0  0
  -13.7945   -6.9256   58.3456 H   0  0  0  0  0  0
  -14.3911   -5.2338   58.2528 H   0  0  0  0  0  0
  -16.8844   -8.7895   68.4473 H   0  0  0  0  0  0
  -18.5632   -9.1882   68.9464 H   0  0  0  0  0  0
  -16.1444  -11.0806   68.9870 H   0  0  0  0  0  0
  -16.9659  -10.3535   70.4094 H   0  0  0  0  0  0
  -17.6309  -12.7578   69.9752 H   0  0  0  0  0  0
  -19.0183  -11.6175   69.9356 H   0  0  0  0  0  0
  -17.5589  -12.8335   67.5223 H   0  0  0  0  0  0
  -19.2328  -13.1870   68.0698 H   0  0  0  0  0  0
  -19.9270  -10.8775   67.5645 H   0  0  0  0  0  0
  -19.1778  -11.6248   66.1131 H   0  0  0  0  0  0
  1  2  1  0  0  0
  1 15  1  0  0  0
  1 19  1  0  0  0
  1 20  1  0  0  0
  2  3  1  0  0  0
  2 21  1  0  0  0
  3  4  1  0  0  0
  3 10  2  0  0  0
  4  5  1  0  0  0
  4 22  1  0  0  0
  5  6  1  0  0  0
  5 23  1  0  0  0
  5 24  1  0  0  0
  6  7  1  0  0  0
  6 25  1  0  0  0
  6 26  1  0  0  0
  7  8  1  0  0  0
  7 27  1  0  0  0
  7 28  1  0  0  0
  8  9  1  0  0  0
  8 29  1  0  0  0
  8 30  1  0  0  0
  9 11  1  0  0  0
  9 31  1  0  0  0
  9 32  1  0  0  0
 11 12  1  0  0  0
 11 33  1  0  0  0
 11 34  1  0  0  0
 12 13  1  0  0  0
 12 14  2  0  0  0
 15 16  1  0  0  0
 15 35  1  0  0  0
 15 36  1  0  0  0
 16 17  1  0  0  0
 16 37  1  0  0  0
 16 38  1  0  0  0
 17 18  1  0  0  0
 17 39  1  0  0  0
 17 40  1  0  0  0
 18 19  1  0  0  0
 18 41  1  0  0  0
 18 42  1  0  0  0
 19 43  1  0  0  0
 19 44  1  0  0  0
M  CHG  1  13  -1
M  END
> <s_m_source_file>
../1zd5_ligand.sdf

> <i_m_source_file_index>
1

> <s_epik_input>
W0NIMl0xW0NIMl1bQ0gyXVtDSDJdW0NIMl1bQ0hdMVtOSF1DKD1PKVtOSF1bQ0gyXVtDSDJdW0NIMl1bQ0gyXVtDSDJdW0NIMl1DKD1PKVtPSF0=

> <s_epik_cmdline>
J2VwaWtfYXBwJywgJy1pbWFlJywgJ2xpZ2FuZF9wcm8ubWFlJywgJy1vbWFlJywgJ2xpZ2FuZF9wcmVwLm1hZScsICctbXMnLCAnMScsICctcGgnLCAnNycsICctcGh0JywgJzAuNScsICctbnQn

> <r_lp_tautomer_probability>
1

> <r_epik_Ionization_Penalty>
  0.0049

> <r_epik_Ionization_Penalty_Charging>
  0.0048

> <r_epik_Ionization_Penalty_Neutral>
  0.0001

> <r_epik_State_Penalty>
 -0.0000

> <r_epik_Charging_Adjusted_Penalty>
0.00479416856224274

> <i_epik_Tot_Q>
-1

> <i_epik_Tot_abs_Q>
1

$$$$
