1zdp_ligand
                    3D
 Schrodinger Suite 2020-3.
 31 31  0  0  1  0            999 V2000
   35.9780   42.5960   -6.6940 S   0  0  0  0  0  0
   35.5080   41.9090   -5.0620 C   0  0  0  0  0  0
   36.5470   42.3690   -4.0240 C   0  0  2  0  0  0
   37.9330   41.6360   -3.8810 C   0  0  0  0  0  0
   39.0790   42.2020   -3.8060 O   0  0  0  0  0  0
   35.7210   42.1760   -2.7970 C   0  0  0  0  0  0
   36.5990   42.7150   -1.7360 C   0  0  0  0  0  0
   37.1950   43.9660   -1.9310 C   0  0  0  0  0  0
   36.7960   41.9440   -0.5910 C   0  0  0  0  0  0
   38.0200   44.4970   -0.9440 C   0  0  0  0  0  0
   37.6440   42.4630    0.3870 C   0  0  0  0  0  0
   38.2130   43.7310    0.2110 C   0  0  0  0  0  0
   37.7820   40.3140   -3.8400 N   0  0  0  0  0  0
   38.8530   39.2870   -3.7720 C   0  0  0  0  0  0
   38.6030   38.3270   -4.9870 C   0  0  0  0  0  0
   37.4440   38.2600   -5.5230 O   0  5  0  0  0  0
   39.5470   37.6070   -5.4400 O   0  0  0  0  0  0
   35.3601   42.3834   -7.5789 H   0  0  0  0  0  0
   34.5094   42.2765   -4.7833 H   0  0  0  0  0  0
   35.4921   40.8105   -5.1174 H   0  0  0  0  0  0
   36.8974   43.3830   -4.2669 H   0  0  0  0  0  0
   34.7788   42.7347   -2.8977 H   0  0  0  0  0  0
   35.5008   41.1060   -2.6678 H   0  0  0  0  0  0
   37.0140   44.5216   -2.8511 H   0  0  0  0  0  0
   36.3082   40.9773   -0.4657 H   0  0  0  0  0  0
   38.4964   45.4698   -1.0657 H   0  0  0  0  0  0
   37.8631   41.8845    1.2845 H   0  0  0  0  0  0
   38.8334   44.1389    1.0090 H   0  0  0  0  0  0
   36.7260   40.0068   -3.8615 H   0  0  0  0  0  0
   39.8354   39.7763   -3.8458 H   0  0  0  0  0  0
   38.7832   38.7471   -2.8161 H   0  0  0  0  0  0
  1  2  1  0  0  0
  1 18  1  0  0  0
  2  3  1  0  0  0
  2 19  1  0  0  0
  2 20  1  0  0  0
  3  4  1  0  0  0
  3  6  1  0  0  0
  3 21  1  0  0  0
  4  5  2  0  0  0
  4 13  1  0  0  0
  6  7  1  0  0  0
  6 22  1  0  0  0
  6 23  1  0  0  0
  7  8  2  0  0  0
  7  9  1  0  0  0
  8 10  1  0  0  0
  8 24  1  0  0  0
  9 11  2  0  0  0
  9 25  1  0  0  0
 10 12  2  0  0  0
 10 26  1  0  0  0
 11 12  1  0  0  0
 11 27  1  0  0  0
 12 28  1  0  0  0
 13 14  1  0  0  0
 13 29  1  0  0  0
 14 15  1  0  0  0
 14 30  1  0  0  0
 14 31  1  0  0  0
 15 16  1  0  0  0
 15 17  2  0  0  0
M  CHG  1  16  -1
M  END
> <s_m_source_file>
../1zdp_ligand.sdf

> <i_m_source_file_index>
1

> <s_epik_input>
W09IXUMoPU8pW0NIMl1bTkhdQyg9TylbQ0BASF0oW0NIMl1bU0hdKVtDSDJdYzFbY0hdW2NIXVtjSF1bY0hdW2NIXTE=

> <s_epik_cmdline>
J2VwaWtfYXBwJywgJy1pbWFlJywgJ2xpZ2FuZF9wcm8ubWFlJywgJy1vbWFlJywgJ2xpZ2FuZF9wcmVwLm1hZScsICctbXMnLCAnMScsICctcGgnLCAnNycsICctcGh0JywgJzAuNScsICctbnQn

> <r_lp_tautomer_probability>
1

> <r_epik_Ionization_Penalty>
  0.0027

> <r_epik_Ionization_Penalty_Charging>
  0.0002

> <r_epik_Ionization_Penalty_Neutral>
  0.0025

> <r_epik_State_Penalty>
 -0.0000

> <r_epik_Charging_Adjusted_Penalty>
0.000216692797188171

> <i_epik_Tot_Q>
-1

> <i_epik_Tot_abs_Q>
1

$$$$
