1ze8_ligand
                    3D
 Schrodinger Suite 2020-3.
 42 43  0  0  1  0            999 V2000
   -5.9260    1.0470   16.7310 S   0  0  0  0  0  0
   -5.3180    1.1370   18.0510 O   0  0  0  0  0  0
   -7.3600    0.9510   16.6220 O   0  0  0  0  0  0
   -5.3200   -0.2510   16.0540 N   0  0  0  0  0  0
   -5.8730    4.8280   15.0170 C   0  0  0  0  0  0
   -3.6230    3.8390   14.6280 C   0  0  0  0  0  0
   -4.0530    2.6260   15.2880 C   0  0  0  0  0  0
   -6.2930    3.6320   15.6680 C   0  0  0  0  0  0
   -4.5470    4.9360   14.4970 C   0  0  0  0  0  0
   -5.3920    2.5250   15.8040 C   0  0  0  0  0  0
   -4.1220    6.2180   13.8160 C   0  0  0  0  0  0
   -4.6140    6.3900   12.3810 C   0  0  0  0  0  0
   -4.6250    7.8330   11.9070 N   0  0  0  0  0  0
   -3.4390    9.8460   11.0770 C   0  0  0  0  0  0
   -5.9160    9.8620   11.3380 C   0  0  0  0  0  0
   -5.8850    8.5230   11.8050 C   0  0  0  0  0  0
   -3.3930    8.5010   11.5400 C   0  0  0  0  0  0
   -4.6990   10.5110   10.9830 C   0  0  0  0  0  0
   -4.7510   11.9400   10.5330 C   0  0  0  0  0  0
   -1.9930    7.9110   11.5970 C   0  0  0  0  0  0
   -7.2290    7.9440   12.1830 C   0  0  0  0  0  0
   -5.6427   -1.1412   16.6138 H   0  0  0  0  0  0
   -4.2217   -0.1904   16.0629 H   0  0  0  0  0  0
   -6.5659    5.6632   14.9155 H   0  0  0  0  0  0
   -2.6102    3.9221   14.2338 H   0  0  0  0  0  0
   -3.3630    1.7890   15.3943 H   0  0  0  0  0  0
   -7.3054    3.5583   16.0650 H   0  0  0  0  0  0
   -4.5064    7.0790   14.3826 H   0  0  0  0  0  0
   -3.0237    6.2657   13.7767 H   0  0  0  0  0  0
   -3.9599    5.8268   11.6991 H   0  0  0  0  0  0
   -5.6433    6.0108   12.2983 H   0  0  0  0  0  0
   -2.5097   10.3630   10.7958 H   0  0  0  0  0  0
   -6.8758   10.3924   11.2520 H   0  0  0  0  0  0
   -3.7341   12.2878   10.2985 H   0  0  0  0  0  0
   -5.1753   12.5618   11.3351 H   0  0  0  0  0  0
   -5.3817   12.0190    9.6352 H   0  0  0  0  0  0
   -2.0463    6.8750   11.9630 H   0  0  0  0  0  0
   -1.3705    8.5092   12.2787 H   0  0  0  0  0  0
   -1.5493    7.9219   10.5905 H   0  0  0  0  0  0
   -7.0976    6.9085   12.5302 H   0  0  0  0  0  0
   -7.8928    7.9552   11.3060 H   0  0  0  0  0  0
   -7.6747    8.5469   12.9879 H   0  0  0  0  0  0
  1  2  2  0  0  0
  1  3  2  0  0  0
  1  4  1  0  0  0
  1 10  1  0  0  0
  4 22  1  0  0  0
  4 23  1  0  0  0
  5  8  2  0  0  0
  5  9  1  0  0  0
  5 24  1  0  0  0
  6  7  1  0  0  0
  6  9  2  0  0  0
  6 25  1  0  0  0
  7 10  2  0  0  0
  7 26  1  0  0  0
  8 10  1  0  0  0
  8 27  1  0  0  0
  9 11  1  0  0  0
 11 12  1  0  0  0
 11 28  1  0  0  0
 11 29  1  0  0  0
 12 13  1  0  0  0
 12 30  1  0  0  0
 12 31  1  0  0  0
 13 16  1  0  0  0
 13 17  1  0  0  0
 14 17  2  0  0  0
 14 18  1  0  0  0
 14 32  1  0  0  0
 15 16  2  0  0  0
 15 18  1  0  0  0
 15 33  1  0  0  0
 16 21  1  0  0  0
 17 20  1  0  0  0
 18 19  1  0  0  0
 19 34  1  0  0  0
 19 35  1  0  0  0
 19 36  1  0  0  0
 20 37  1  0  0  0
 20 38  1  0  0  0
 20 39  1  0  0  0
 21 40  1  0  0  0
 21 41  1  0  0  0
 21 42  1  0  0  0
M  END
> <s_m_source_file>
../1ze8_ligand.sdf

> <i_m_source_file_index>
1

> <s_epik_input>
Tz1TKD1PKShbTkgyXSljKFtjSF1bY0hdMSlbY0hdW2NIXWMxW0NIMl1bQ0gyXU4yQyhbQ0gzXSk9W0NIXVtDSF0oW0NIM10pW0NIXT1DMltDSDNd

> <s_epik_cmdline>
J2VwaWtfYXBwJywgJy1pbWFlJywgJ2xpZ2FuZF9wcm8ubWFlJywgJy1vbWFlJywgJ2xpZ2FuZF9wcmVwLm1hZScsICctbXMnLCAnMScsICctcGgnLCAnNycsICctcGh0JywgJzAuNScsICctbnQn

> <r_lp_tautomer_probability>
1

> <r_epik_Ionization_Penalty>
  0.0004

> <r_epik_Ionization_Penalty_Charging>
  0.0000

> <r_epik_Ionization_Penalty_Neutral>
  0.0004

> <r_epik_State_Penalty>
 -0.0000

> <r_epik_Charging_Adjusted_Penalty>
5.59122639290339e-14

> <i_epik_Tot_Q>
0

> <i_epik_Tot_abs_Q>
0

> <s_epik_Chemistry_Notes>
This compound has an imine and may undergo hydrolysis.

$$$$
