1zeo_ligand
                    3D
 Schrodinger Suite 2020-3.
 61 63  0  0  1  0            999 V2000
   21.3430    6.1890   14.8940 C   0  0  0  0  0  0
   21.3070    7.0550   16.0460 C   0  0  0  0  0  0
   21.9410    8.3830   15.9580 C   0  0  0  0  0  0
   22.5680    8.7370   14.6910 C   0  0  0  0  0  0
   22.5670    7.8480   13.6040 C   0  0  0  0  0  0
   21.9860    6.5990   13.6840 C   0  0  0  0  0  0
   23.2480    9.9190   14.3110 O   0  0  0  0  0  0
   23.6510    9.6700   12.9390 N   0  0  0  0  0  0
   23.2820    8.4460   12.4820 C   0  0  0  0  0  0
   24.4030   10.6080   12.0960 C   0  0  0  0  0  0
   23.4970    7.9900   11.3540 O   0  0  0  0  0  0
   21.9780    9.3750   17.1350 C   0  0  0  0  0  0
   20.7540   10.2820   17.3190 C   0  0  0  0  0  0
   20.9100   11.1900   18.5310 C   0  0  0  0  0  0
   20.7370    4.8170   14.8990 C   0  0  0  0  0  0
   19.6800    4.6890   13.8080 C   0  0  0  0  0  0
   19.0930    3.2910   13.7840 C   0  0  0  0  0  0
   20.6650    6.5880   17.2540 O   0  0  0  0  0  0
   19.3930    7.1510   17.6720 C   0  0  1  0  0  0
   18.2420    6.5980   16.8450 C   0  0  0  0  0  0
   19.1490    6.9320   19.2070 C   0  0  0  0  0  0
   17.5740    7.4790   15.9720 C   0  0  0  0  0  0
   16.5110    7.0470   15.1610 C   0  0  0  0  0  0
   16.0550    5.7120   15.1910 C   0  0  0  0  0  0
   16.7210    4.7930   16.0770 C   0  0  0  0  0  0
   17.8040    5.2270   16.9060 C   0  0  0  0  0  0
   14.8870    5.3210   14.2770 C   0  0  0  0  0  0
   15.3640    4.6130   13.0080 C   0  0  0  0  0  0
   13.8470    4.4720   15.0330 C   0  0  0  0  0  0
   18.0930    7.0170   19.7520 O   0  0  0  0  0  0
   20.2780    6.6580   19.8770 O   0  5  0  0  0  0
   22.0170    5.9263   12.8269 H   0  0  0  0  0  0
   24.5963   11.5330   12.6590 H   0  0  0  0  0  0
   23.8166   10.8426   11.1954 H   0  0  0  0  0  0
   25.3594   10.1510   11.8021 H   0  0  0  0  0  0
   22.0798    8.8200   18.0792 H   0  0  0  0  0  0
   22.8346   10.0546   17.0150 H   0  0  0  0  0  0
   20.6268   10.9118   16.4261 H   0  0  0  0  0  0
   19.8564    9.6622   17.4614 H   0  0  0  0  0  0
   20.0167   11.8240   18.6316 H   0  0  0  0  0  0
   21.7982   11.8258   18.4009 H   0  0  0  0  0  0
   21.0278   10.5762   19.4362 H   0  0  0  0  0  0
   21.5230    4.0683   14.7211 H   0  0  0  0  0  0
   20.2649    4.6282   15.8744 H   0  0  0  0  0  0
   18.8701    5.4092   13.9959 H   0  0  0  0  0  0
   20.1363    4.8976   12.8291 H   0  0  0  0  0  0
   18.3347    3.2253   12.9898 H   0  0  0  0  0  0
   18.6261    3.0727   14.7558 H   0  0  0  0  0  0
   19.8924    2.5610   13.5890 H   0  0  0  0  0  0
   19.4916    8.2216   17.4394 H   0  0  0  0  0  0
   17.8895    8.5213   15.9245 H   0  0  0  0  0  0
   16.0273    7.7598   14.4931 H   0  0  0  0  0  0
   16.3962    3.7533   16.1169 H   0  0  0  0  0  0
   18.2945    4.5243   17.5796 H   0  0  0  0  0  0
   14.4025    6.2548   13.9558 H   0  0  0  0  0  0
   16.1037    5.2432   12.4925 H   0  0  0  0  0  0
   14.5062    4.4356   12.3427 H   0  0  0  0  0  0
   15.8252    3.6510   13.2762 H   0  0  0  0  0  0
   13.5248    5.0074   15.9383 H   0  0  0  0  0  0
   14.2964    3.5090   15.3170 H   0  0  0  0  0  0
   12.9774    4.2935   14.3835 H   0  0  0  0  0  0
  1  2  2  0  0  0
  1  6  1  0  0  0
  1 15  1  0  0  0
  2  3  1  0  0  0
  2 18  1  0  0  0
  3  4  2  0  0  0
  3 12  1  0  0  0
  4  5  1  0  0  0
  4  7  1  0  0  0
  5  6  2  0  0  0
  5  9  1  0  0  0
  6 32  1  0  0  0
  7  8  1  0  0  0
  8  9  1  0  0  0
  8 10  1  0  0  0
  9 11  2  0  0  0
 10 33  1  0  0  0
 10 34  1  0  0  0
 10 35  1  0  0  0
 12 13  1  0  0  0
 12 36  1  0  0  0
 12 37  1  0  0  0
 13 14  1  0  0  0
 13 38  1  0  0  0
 13 39  1  0  0  0
 14 40  1  0  0  0
 14 41  1  0  0  0
 14 42  1  0  0  0
 15 16  1  0  0  0
 15 43  1  0  0  0
 15 44  1  0  0  0
 16 17  1  0  0  0
 16 45  1  0  0  0
 16 46  1  0  0  0
 17 47  1  0  0  0
 17 48  1  0  0  0
 17 49  1  0  0  0
 18 19  1  0  0  0
 19 20  1  0  0  0
 19 21  1  0  0  0
 19 50  1  0  0  0
 20 22  2  0  0  0
 20 26  1  0  0  0
 21 30  2  0  0  0
 21 31  1  0  0  0
 22 23  1  0  0  0
 22 51  1  0  0  0
 23 24  2  0  0  0
 23 52  1  0  0  0
 24 25  1  0  0  0
 24 27  1  0  0  0
 25 26  2  0  0  0
 25 53  1  0  0  0
 26 54  1  0  0  0
 27 28  1  0  0  0
 27 29  1  0  0  0
 27 55  1  0  0  0
 28 56  1  0  0  0
 28 57  1  0  0  0
 28 58  1  0  0  0
 29 59  1  0  0  0
 29 60  1  0  0  0
 29 61  1  0  0  0
M  CHG  1  31  -1
M  END
> <s_m_source_file>
../1zeo_ligand.sdf

> <i_m_source_file_index>
1

> <s_epik_input>
bzFuKFtDSDNdKWMoPU8pYyhjMTIpW2NIXWMoW0NIMl1bQ0gyXVtDSDNdKWMoYzJbQ0gyXVtDSDJdW0NIM10pT1tDQEhdKEMoPU8pW09IXSljM1tjSF1bY0hdYyhbY0hdW2NIXTMpW0NIXShbQ0gzXSlbQ0gzXQ==

> <s_epik_cmdline>
J2VwaWtfYXBwJywgJy1pbWFlJywgJ2xpZ2FuZF9wcm8ubWFlJywgJy1vbWFlJywgJ2xpZ2FuZF9wcmVwLm1hZScsICctbXMnLCAnMScsICctcGgnLCAnNycsICctcGh0JywgJzAuNScsICctbnQn

> <r_lp_tautomer_probability>
1

> <r_epik_Ionization_Penalty>
  0.0000

> <r_epik_Ionization_Penalty_Charging>
  0.0000

> <r_epik_Ionization_Penalty_Neutral>
  0.0000

> <r_epik_State_Penalty>
 -0.0000

> <r_epik_Charging_Adjusted_Penalty>
3.93865325761323e-05

> <i_epik_Tot_Q>
-1

> <i_epik_Tot_abs_Q>
1

$$$$
