1zgb_ligand
                    3D
 Schrodinger Suite 2020-3.
 83 87  0  0  1  0            999 V2000
   -3.1010   59.6420   74.6460 C   0  0  0  0  0  0
   -2.0300   60.6480   74.2690 C   0  0  0  0  0  0
   -1.0720   60.0800   73.1650 C   0  0  2  0  0  0
   -0.5640   58.6720   73.5430 C   0  0  0  0  0  0
   -1.2260   57.9290   74.5080 C   0  0  0  0  0  0
   -2.4440   58.4090   75.2790 C   0  0  0  0  0  0
    0.6260   58.0220   72.8830 C   0  0  0  0  0  0
    1.0540   56.7480   73.2200 C   0  0  0  0  0  0
    0.2850   56.0030   74.2960 C   0  0  0  0  0  0
   -0.7790   56.6730   74.8270 N   0  0  0  0  0  0
    0.5390   54.9060   74.6920 O   0  0  0  0  0  0
    0.0400   61.0700   73.2430 N   0  3  0  0  0  0
   -0.0680   62.2860   72.3830 C   0  0  0  0  0  0
    0.9870   62.0150   71.3460 C   0  0  0  0  0  0
    0.6380   62.6540   70.0350 C   0  0  0  0  0  0
    1.6990   62.3090   68.9910 C   0  0  0  0  0  0
    3.1210   62.4740   69.5480 C   0  0  0  0  0  0
    3.6790   63.7740   69.0100 C   0  0  0  0  0  0
    3.2800   65.0280   69.8120 C   0  0  0  0  0  0
    2.2410   65.8630   69.0450 C   0  0  0  0  0  0
    2.7180   66.3770   67.6860 C   0  0  0  0  0  0
    1.7260   67.4350   67.2000 C   0  0  0  0  0  0
    2.2130   68.4110   66.2220 N   0  0  0  0  0  0
    3.5210   68.6620   65.7320 C   0  0  0  0  0  0
    4.5280   69.2680   66.6260 C   0  0  0  0  0  0
    5.7970   69.5770   66.0220 C   0  0  0  0  0  0
    6.0700   69.3050   64.6510 N   0  3  0  0  0  0
    5.1550   68.7420   63.8630 C   0  0  0  0  0  0
    3.8300   68.3860   64.3510 C   0  0  0  0  0  0
    4.4250   69.6100   68.0480 C   0  0  0  0  0  0
    5.4660   70.1970   68.7720 C   0  0  0  0  0  0
    6.7110   70.4990   68.1320 C   0  0  0  0  0  0
    6.8660   70.1920   66.7800 C   0  0  0  0  0  0
    5.6230   68.5170   62.4010 C   0  0  0  0  0  0
    4.4170   68.2910   61.4350 C   0  0  0  0  0  0
    3.4630   67.2460   62.0080 C   0  0  0  0  0  0
    2.8360   67.7540   63.3560 C   0  0  0  0  0  0
   -3.7952   60.0984   75.3669 H   0  0  0  0  0  0
   -3.6545   59.3405   73.7445 H   0  0  0  0  0  0
   -2.5050   61.5614   73.8817 H   0  0  0  0  0  0
   -1.4301   60.8951   75.1573 H   0  0  0  0  0  0
   -1.5000   59.9830   72.1563 H   0  0  0  0  0  0
   -2.1199   58.6508   76.3020 H   0  0  0  0  0  0
   -3.1690   57.5823   75.3098 H   0  0  0  0  0  0
    1.1680   58.5733   72.1146 H   0  0  0  0  0  0
    1.9151   56.2954   72.7283 H   0  0  0  0  0  0
   -1.2987   56.0832   75.5965 H   0  0  0  0  0  0
    0.1251   61.4454   74.2734 H   0  0  0  0  0  0
    0.9833   60.5858   72.9502 H   0  0  0  0  0  0
   -1.0832   62.3499   71.9643 H   0  0  0  0  0  0
    0.1364   63.1820   72.9875 H   0  0  0  0  0  0
    1.9503   62.4212   71.6881 H   0  0  0  0  0  0
    1.0803   60.9297   71.1928 H   0  0  0  0  0  0
   -0.3402   62.2830   69.6952 H   0  0  0  0  0  0
    0.5928   63.7460   70.1598 H   0  0  0  0  0  0
    1.5723   61.2643   68.6708 H   0  0  0  0  0  0
    1.5887   62.9747   68.1222 H   0  0  0  0  0  0
    3.0835   62.4999   70.6471 H   0  0  0  0  0  0
    3.7430   61.6272   69.2222 H   0  0  0  0  0  0
    4.7781   63.7308   69.0142 H   0  0  0  0  0  0
    3.3221   63.9283   67.9810 H   0  0  0  0  0  0
    2.8469   64.7240   70.7764 H   0  0  0  0  0  0
    4.1707   65.6485   69.9895 H   0  0  0  0  0  0
    1.3449   65.2527   68.8593 H   0  0  0  0  0  0
    1.9665   66.7452   69.6420 H   0  0  0  0  0  0
    3.7198   66.8186   67.7921 H   0  0  0  0  0  0
    2.7594   65.5414   66.9719 H   0  0  0  0  0  0
    0.8689   66.9407   66.7194 H   0  0  0  0  0  0
    1.3740   68.0285   68.0566 H   0  0  0  0  0  0
    1.5085   69.1042   65.7391 H   0  0  0  0  0  0
    3.4902   69.3958   68.5660 H   0  0  0  0  0  0
    5.3298   70.4261   69.8289 H   0  0  0  0  0  0
    7.5240   70.9611   68.6920 H   0  0  0  0  0  0
    7.8101   70.4196   66.2849 H   0  0  0  0  0  0
    6.1822   69.3989   62.0552 H   0  0  0  0  0  0
    6.2725   67.6303   62.3562 H   0  0  0  0  0  0
    3.8723   69.2372   61.3009 H   0  0  0  0  0  0
    4.7883   67.9404   60.4607 H   0  0  0  0  0  0
    2.6542   67.0538   61.2877 H   0  0  0  0  0  0
    4.0132   66.3128   62.1991 H   0  0  0  0  0  0
    2.3540   66.8824   63.8229 H   0  0  0  0  0  0
    2.0696   68.4944   63.0831 H   0  0  0  0  0  0
    7.0512   69.5604   64.2244 H   0  0  0  0  0  0
  1  2  1  0  0  0
  1  6  1  0  0  0
  1 38  1  0  0  0
  1 39  1  0  0  0
  2  3  1  0  0  0
  2 40  1  0  0  0
  2 41  1  0  0  0
  3  4  1  0  0  0
  3 12  1  0  0  0
  3 42  1  0  0  0
  4  5  2  0  0  0
  4  7  1  0  0  0
  5  6  1  0  0  0
  5 10  1  0  0  0
  6 43  1  0  0  0
  6 44  1  0  0  0
  7  8  2  0  0  0
  7 45  1  0  0  0
  8  9  1  0  0  0
  8 46  1  0  0  0
  9 10  1  0  0  0
  9 11  2  0  0  0
 10 47  1  0  0  0
 12 13  1  0  0  0
 12 48  1  0  0  0
 12 49  1  0  0  0
 13 14  1  0  0  0
 13 50  1  0  0  0
 13 51  1  0  0  0
 14 15  1  0  0  0
 14 52  1  0  0  0
 14 53  1  0  0  0
 15 16  1  0  0  0
 15 54  1  0  0  0
 15 55  1  0  0  0
 16 17  1  0  0  0
 16 56  1  0  0  0
 16 57  1  0  0  0
 17 18  1  0  0  0
 17 58  1  0  0  0
 17 59  1  0  0  0
 18 19  1  0  0  0
 18 60  1  0  0  0
 18 61  1  0  0  0
 19 20  1  0  0  0
 19 62  1  0  0  0
 19 63  1  0  0  0
 20 21  1  0  0  0
 20 64  1  0  0  0
 20 65  1  0  0  0
 21 22  1  0  0  0
 21 66  1  0  0  0
 21 67  1  0  0  0
 22 23  1  0  0  0
 22 68  1  0  0  0
 22 69  1  0  0  0
 23 24  1  0  0  0
 23 70  1  0  0  0
 24 25  2  0  0  0
 24 29  1  0  0  0
 25 26  1  0  0  0
 25 30  1  0  0  0
 26 27  2  0  0  0
 26 33  1  0  0  0
 27 28  1  0  0  0
 27 83  1  0  0  0
 28 29  2  0  0  0
 28 34  1  0  0  0
 29 37  1  0  0  0
 30 31  2  0  0  0
 30 71  1  0  0  0
 31 32  1  0  0  0
 31 72  1  0  0  0
 32 33  2  0  0  0
 32 73  1  0  0  0
 33 74  1  0  0  0
 34 35  1  0  0  0
 34 75  1  0  0  0
 34 76  1  0  0  0
 35 36  1  0  0  0
 35 77  1  0  0  0
 35 78  1  0  0  0
 36 37  1  0  0  0
 36 79  1  0  0  0
 36 80  1  0  0  0
 37 81  1  0  0  0
 37 82  1  0  0  0
M  CHG  2  12   1  27   1
M  END
> <s_m_source_file>
../1zgb_ligand.sdf

> <i_m_source_file_index>
1

> <s_epik_input>
W2NIXTFbY0hdYyg9TylbbkhdYyhjMTIpW0NIMl1bQ0gyXVtDSDJdW0NASF0yW05IMitdW0NIMl1bQ0gyXVtDSDJdW0NIMl1bQ0gyXVtDSDJdW0NIMl1bQ0gyXVtDSDJdW0NIMl1bTkhdYzNjKFtDSDJdW0NIMl1bQ0gyXVtDSDJdNCljNG5jKGMzNSlbY0hdW2NIXVtjSF1bY0hdNQ==

> <s_epik_cmdline>
J2VwaWtfYXBwJywgJy1pbWFlJywgJ2xpZ2FuZF9wcm8ubWFlJywgJy1vbWFlJywgJ2xpZ2FuZF9wcmVwLm1hZScsICctbXMnLCAnMScsICctcGgnLCAnNycsICctcGh0JywgJzAuNScsICctbnQn

> <r_lp_tautomer_probability>
0.999

> <r_epik_Ionization_Penalty>
  0.0133

> <r_epik_Ionization_Penalty_Charging>
  0.0133

> <r_epik_Ionization_Penalty_Neutral>
  0.0000

> <r_epik_State_Penalty>
  0.0101

> <r_epik_Charging_Adjusted_Penalty>
0.0233621011634225

> <i_epik_Tot_Q>
2

> <i_epik_Tot_abs_Q>
2

$$$$
