1zge_ligand
                    3D
 Schrodinger Suite 2020-3.
 19 19  0  0  1  0            999 V2000
   15.3140    2.7660   16.5040 S   0  0  0  0  0  0
   15.7860    1.5240   15.8390 N   0  0  0  0  0  0
   15.9150    2.8960   17.8310 O   0  0  0  0  0  0
   13.8620    2.8830   16.4370 O   0  0  0  0  0  0
   16.0230    4.1120   15.5850 C   0  0  0  0  0  0
   17.3890    4.2370   15.3280 C   0  0  0  0  0  0
   17.9040    5.3060   14.6060 C   0  0  0  0  0  0
   19.5980    5.5600   14.2360 Cl  0  0  0  0  0  0
   17.0380    6.2910   14.1190 C   0  0  0  0  0  0
   17.5580    7.3750   13.3800 N   0  0  0  0  0  0
   15.6850    6.1790   14.3630 C   0  0  0  0  0  0
   14.6580    7.4130   13.7360 Cl  0  0  0  0  0  0
   15.1550    5.1100   15.0860 C   0  0  0  0  0  0
   15.3780    0.6485   16.3653 H   0  0  0  0  0  0
   16.8851    1.4887   15.8659 H   0  0  0  0  0  0
   18.0708    3.4744   15.7044 H   0  0  0  0  0  0
   18.6401    7.4465   13.1960 H   0  0  0  0  0  0
   16.8812    8.1484   12.9879 H   0  0  0  0  0  0
   14.0817    5.0449   15.2645 H   0  0  0  0  0  0
  1  2  1  0  0  0
  1  3  2  0  0  0
  1  4  2  0  0  0
  1  5  1  0  0  0
  2 14  1  0  0  0
  2 15  1  0  0  0
  5  6  2  0  0  0
  5 13  1  0  0  0
  6  7  1  0  0  0
  6 16  1  0  0  0
  7  8  1  0  0  0
  7  9  2  0  0  0
  9 10  1  0  0  0
  9 11  1  0  0  0
 10 17  1  0  0  0
 10 18  1  0  0  0
 11 12  1  0  0  0
 11 13  2  0  0  0
 13 19  1  0  0  0
M  END
> <s_m_source_file>
../1zge_ligand.sdf

> <i_m_source_file_index>
1

> <s_epik_input>
W05IMl1TKD1PKSg9TyljMVtjSF1jKENsKWMoW05IMl0pYyhDbClbY0hdMQ==

> <s_epik_cmdline>
J2VwaWtfYXBwJywgJy1pbWFlJywgJ2xpZ2FuZF9wcm8ubWFlJywgJy1vbWFlJywgJ2xpZ2FuZF9wcmVwLm1hZScsICctbXMnLCAnMScsICctcGgnLCAnNycsICctcGh0JywgJzAuNScsICctbnQn

> <r_lp_tautomer_probability>
1

> <r_epik_Ionization_Penalty>
  0.0022

> <r_epik_Ionization_Penalty_Charging>
  0.0000

> <r_epik_Ionization_Penalty_Neutral>
  0.0022

> <r_epik_State_Penalty>
 -0.0000

> <r_epik_Charging_Adjusted_Penalty>
0

> <i_epik_Tot_Q>
0

> <i_epik_Tot_abs_Q>
0

$$$$
