1zgi_ligand
                    3D
 Schrodinger Suite 2020-3.
 56 60  0  0  1  0            999 V2000
   22.3230  -14.2910   25.6190 C   0  0  0  0  0  0
   22.0110  -14.9860   24.2840 C   0  0  0  0  0  0
   21.0480  -16.1020   24.5080 N   0  3  0  0  0  0
   19.7680  -15.6610   25.1350 C   0  0  2  0  0  0
   20.0600  -15.0240   26.4980 C   0  0  0  0  0  0
   21.0240  -13.8280   26.3050 C   0  0  0  0  0  0
   18.7190  -16.8040   25.1620 C   0  0  0  0  0  0
   19.2670  -18.0340   25.3410 F   0  0  0  0  0  0
   17.8050  -16.5990   26.1480 F   0  0  0  0  0  0
   18.0010  -16.8490   23.8070 C   0  0  0  0  0  0
   17.4150  -15.5460   23.4030 N   0  0  0  0  0  0
   17.8610  -14.8050   22.2800 C   0  0  0  0  0  0
   17.0050  -13.8380   21.6540 C   0  0  0  0  0  0
   17.4730  -13.1050   20.5270 C   0  0  0  0  0  0
   18.8440  -13.3810   20.0340 C   0  0  0  0  0  0
   19.7160  -14.3780   20.6870 C   0  0  0  0  0  0
   19.1710  -15.0470   21.8000 N   0  0  0  0  0  0
   15.7100  -13.3970   21.8900 N   0  0  0  0  0  0
   15.4580  -12.4320   20.9190 C   0  0  0  0  0  0
   16.5440  -12.2110   20.0760 O   0  0  0  0  0  0
   14.1350  -11.6760   20.7150 C   0  0  0  0  0  0
   13.0240  -11.7240   21.7700 C   0  0  0  0  0  0
   12.9160  -10.4860   22.5640 C   0  0  0  0  0  0
   11.8770  -10.3870   23.5960 C   0  0  0  0  0  0
   10.9660  -11.5370   23.7640 C   0  0  0  0  0  0
   11.0880  -12.7730   22.9610 C   0  0  0  0  0  0
   12.1470  -12.8950   21.9490 C   0  0  0  0  0  0
   12.3340  -14.1540   21.2840 N   0  0  0  0  0  0
   12.6160  -15.3380   21.9060 N   0  0  0  0  0  0
   12.6910  -16.3250   20.9570 C   0  0  0  0  0  0
   12.4480  -15.7450   19.7450 N   0  0  0  0  0  0
   12.2270  -14.4050   19.9490 C   0  0  0  0  0  0
   22.8468  -14.9932   26.2843 H   0  0  0  0  0  0
   22.9614  -13.4142   25.4355 H   0  0  0  0  0  0
   21.5691  -14.2590   23.5867 H   0  0  0  0  0  0
   22.9401  -15.3884   23.8541 H   0  0  0  0  0  0
   20.8001  -16.5713   23.5445 H   0  0  0  0  0  0
   21.5023  -16.8502   25.1742 H   0  0  0  0  0  0
   19.3334  -14.8741   24.5010 H   0  0  0  0  0  0
   19.1197  -14.6715   26.9470 H   0  0  0  0  0  0
   20.5250  -15.7699   27.1593 H   0  0  0  0  0  0
   21.2623  -13.3975   27.2888 H   0  0  0  0  0  0
   20.5311  -13.0675   25.6816 H   0  0  0  0  0  0
   18.7141  -17.1460   23.0239 H   0  0  0  0  0  0
   17.1798  -17.5795   23.8513 H   0  0  0  0  0  0
   16.5912  -15.1089   23.9864 H   0  0  0  0  0  0
   19.2174  -12.8344   19.1681 H   0  0  0  0  0  0
   20.7242  -14.5844   20.3279 H   0  0  0  0  0  0
   14.3398  -10.6003   20.6101 H   0  0  0  0  0  0
   13.6382  -12.0451   19.8056 H   0  0  0  0  0  0
   13.5990   -9.6552   22.3868 H   0  0  0  0  0  0
   11.7812   -9.4960   24.2165 H   0  0  0  0  0  0
   10.1728  -11.4724   24.5088 H   0  0  0  0  0  0
   10.3908  -13.5956   23.1201 H   0  0  0  0  0  0
   12.9051  -17.3785   21.1370 H   0  0  0  0  0  0
   12.0044  -13.6692   19.1763 H   0  0  0  0  0  0
  1  2  1  0  0  0
  1  6  1  0  0  0
  1 33  1  0  0  0
  1 34  1  0  0  0
  2  3  1  0  0  0
  2 35  1  0  0  0
  2 36  1  0  0  0
  3  4  1  0  0  0
  3 37  1  0  0  0
  3 38  1  0  0  0
  4  5  1  0  0  0
  4  7  1  0  0  0
  4 39  1  0  0  0
  5  6  1  0  0  0
  5 40  1  0  0  0
  5 41  1  0  0  0
  6 42  1  0  0  0
  6 43  1  0  0  0
  7  8  1  0  0  0
  7  9  1  0  0  0
  7 10  1  0  0  0
 10 11  1  0  0  0
 10 44  1  0  0  0
 10 45  1  0  0  0
 11 12  1  0  0  0
 11 46  1  0  0  0
 12 13  2  0  0  0
 12 17  1  0  0  0
 13 14  1  0  0  0
 13 18  1  0  0  0
 14 15  2  0  0  0
 14 20  1  0  0  0
 15 16  1  0  0  0
 15 47  1  0  0  0
 16 17  2  0  0  0
 16 48  1  0  0  0
 18 19  2  0  0  0
 19 20  1  0  0  0
 19 21  1  0  0  0
 21 22  1  0  0  0
 21 49  1  0  0  0
 21 50  1  0  0  0
 22 23  2  0  0  0
 22 27  1  0  0  0
 23 24  1  0  0  0
 23 51  1  0  0  0
 24 25  2  0  0  0
 24 52  1  0  0  0
 25 26  1  0  0  0
 25 53  1  0  0  0
 26 27  2  0  0  0
 26 54  1  0  0  0
 27 28  1  0  0  0
 28 29  1  0  0  0
 28 32  1  0  0  0
 29 30  2  0  0  0
 30 31  1  0  0  0
 30 55  1  0  0  0
 31 32  2  0  0  0
 32 56  1  0  0  0
M  CHG  1   3   1
M  END
> <s_m_source_file>
../1zgi_ligand.sdf

> <i_m_source_file_index>
1

> <s_epik_input>
W0NIMl0xW0NIMl1bQ0gyXVtDSDJdW05IMitdW0NASF0xQyhGKShGKVtDSDJdW05IXWMybltjSF1bY0hdYyhjMjMpb2MobjMpW0NIMl1jNFtjSF1bY0hdW2NIXVtjSF1jNC1uNW5bY0hdbltjSF01

> <s_epik_cmdline>
J2VwaWtfYXBwJywgJy1pbWFlJywgJ2xpZ2FuZF9wcm8ubWFlJywgJy1vbWFlJywgJ2xpZ2FuZF9wcmVwLm1hZScsICctbXMnLCAnMScsICctcGgnLCAnNycsICctcGh0JywgJzAuNScsICctbnQn

> <r_lp_tautomer_probability>
1

> <r_epik_Ionization_Penalty>
  0.0121

> <r_epik_Ionization_Penalty_Charging>
  0.0121

> <r_epik_Ionization_Penalty_Neutral>
  0.0000

> <r_epik_State_Penalty>
  0.0094

> <r_epik_Charging_Adjusted_Penalty>
0.0214739200709274

> <i_epik_Tot_Q>
1

> <i_epik_Tot_abs_Q>
1

$$$$
