1zgv_ligand
                    3D
 Schrodinger Suite 2020-3.
 45 47  0  0  1  0            999 V2000
   10.7320  -12.5100   23.7680 C   0  0  0  0  0  0
   11.6150  -12.6110   22.6210 C   0  0  0  0  0  0
   12.5060  -11.5690   22.2370 C   0  0  0  0  0  0
   12.5770  -10.3810   22.9890 C   0  0  0  0  0  0
   11.7790  -10.2680   24.1490 C   0  0  0  0  0  0
   10.8750  -11.3150   24.5610 C   0  0  0  0  0  0
   13.3400  -11.7050   21.0830 N   0  0  0  0  0  0
   14.6110  -12.3990   21.2230 C   0  0  0  0  0  0
   15.7110  -12.1700   20.4040 N   0  0  0  0  0  0
   16.6100  -13.0750   20.8400 C   0  0  0  0  0  0
   16.1280  -13.7970   21.8780 N   0  0  0  0  0  0
   14.9310  -13.4270   22.1280 N   0  0  0  0  0  0
   17.8630  -13.1950   20.3310 N   0  0  0  0  0  0
   18.7030  -14.1750   20.8500 C   0  0  0  0  0  0
   18.3090  -15.0510   21.9870 C   0  0  0  0  0  0
   16.9750  -14.8270   22.5700 C   0  0  0  0  0  0
   16.5790  -15.6550   23.7440 N   0  0  0  0  0  0
   17.7690  -16.2390   24.4090 C   0  0  0  0  0  0
   18.4020  -15.1740   25.3320 C   0  0  0  0  0  0
   19.8840  -15.4410   25.6620 C   0  0  0  0  0  0
   20.4920  -14.3270   26.4940 C   0  0  0  0  0  0
   20.0680  -14.3670   20.1790 C   0  0  0  0  0  0
   11.9740   -8.7900   25.0390 Cl  0  0  0  0  0  0
   11.6720  -13.8410   21.8100 C   0  0  0  0  0  0
   10.0080  -13.2869   24.0138 H   0  0  0  0  0  0
   13.2333   -9.5664   22.6829 H   0  0  0  0  0  0
   10.2966  -11.2012   25.4779 H   0  0  0  0  0  0
   13.0153  -11.2894   20.1177 H   0  0  0  0  0  0
   18.9767  -15.8225   22.3705 H   0  0  0  0  0  0
   15.5726  -15.8613   24.1372 H   0  0  0  0  0  0
   17.4646  -17.1124   25.0044 H   0  0  0  0  0  0
   18.4987  -16.5508   23.6472 H   0  0  0  0  0  0
   18.3474  -14.1886   24.8462 H   0  0  0  0  0  0
   17.8548  -15.1434   26.2857 H   0  0  0  0  0  0
   19.9699  -16.3792   26.2298 H   0  0  0  0  0  0
   20.4585  -15.5240   24.7276 H   0  0  0  0  0  0
   21.5463  -14.5600   26.7043 H   0  0  0  0  0  0
   19.9409  -14.2344   27.4415 H   0  0  0  0  0  0
   20.4295  -13.3792   25.9393 H   0  0  0  0  0  0
   20.1828  -13.6356   19.3655 H   0  0  0  0  0  0
   20.1348  -15.3854   19.7686 H   0  0  0  0  0  0
   20.8658  -14.2178   20.9215 H   0  0  0  0  0  0
   10.9447  -14.5696   22.1974 H   0  0  0  0  0  0
   12.6839  -14.2690   21.8636 H   0  0  0  0  0  0
   11.4299  -13.6020   20.7639 H   0  0  0  0  0  0
  1  2  2  0  0  0
  1  6  1  0  0  0
  1 25  1  0  0  0
  2  3  1  0  0  0
  2 24  1  0  0  0
  3  4  2  0  0  0
  3  7  1  0  0  0
  4  5  1  0  0  0
  4 26  1  0  0  0
  5  6  2  0  0  0
  5 23  1  0  0  0
  6 27  1  0  0  0
  7  8  1  0  0  0
  7 28  1  0  0  0
  8  9  1  0  0  0
  8 12  2  0  0  0
  9 10  2  0  0  0
 10 11  1  0  0  0
 10 13  1  0  0  0
 11 12  1  0  0  0
 11 16  1  0  0  0
 13 14  2  0  0  0
 14 15  1  0  0  0
 14 22  1  0  0  0
 15 16  2  0  0  0
 15 29  1  0  0  0
 16 17  1  0  0  0
 17 18  1  0  0  0
 17 30  1  0  0  0
 18 19  1  0  0  0
 18 31  1  0  0  0
 18 32  1  0  0  0
 19 20  1  0  0  0
 19 33  1  0  0  0
 19 34  1  0  0  0
 20 21  1  0  0  0
 20 35  1  0  0  0
 20 36  1  0  0  0
 21 37  1  0  0  0
 21 38  1  0  0  0
 21 39  1  0  0  0
 22 40  1  0  0  0
 22 41  1  0  0  0
 22 42  1  0  0  0
 24 43  1  0  0  0
 24 44  1  0  0  0
 24 45  1  0  0  0
M  END
> <s_m_source_file>
../1zgv_ligand.sdf

> <i_m_source_file_index>
1

> <s_epik_input>
W0NIM11jMVtjSF1bY0hdYyhDbClbY0hdYzFbTkhdYyhuMilubihjMjMpYyhbY0hdYyhuMylbQ0gzXSlbTkhdW0NIMl1bQ0gyXVtDSDJdW0NIM10=

> <s_epik_cmdline>
J2VwaWtfYXBwJywgJy1pbWFlJywgJ2xpZ2FuZF9wcm8ubWFlJywgJy1vbWFlJywgJ2xpZ2FuZF9wcmVwLm1hZScsICctbXMnLCAnMScsICctcGgnLCAnNycsICctcGh0JywgJzAuNScsICctbnQn

> <r_lp_tautomer_probability>
1

> <r_epik_Ionization_Penalty>
  0.0002

> <r_epik_Ionization_Penalty_Charging>
  0.0000

> <r_epik_Ionization_Penalty_Neutral>
  0.0002

> <r_epik_State_Penalty>
 -0.0000

> <r_epik_Charging_Adjusted_Penalty>
0

> <i_epik_Tot_Q>
0

> <i_epik_Tot_abs_Q>
0

$$$$
