1zh7_ligand
                    3D
 Schrodinger Suite 2020-3.
181183  0  0  1  0            999 V2000
   86.9300   -7.8740   33.5350 N   0  3  0  0  0  0
   87.9900   -7.8350   34.5800 C   0  0  2  0  0  0
   88.0590   -9.1740   35.3230 C   0  0  0  0  0  0
   88.9230  -10.0040   35.0380 O   0  0  0  0  0  0
   87.7060   -6.6930   35.5670 C   0  0  0  0  0  0
   88.7890   -6.4860   36.4580 O   0  0  0  0  0  0
   87.1370   -9.3820   36.2610 N   0  0  0  0  0  0
   87.0920  -10.6120   37.0520 C   0  0  2  0  0  0
   88.4740  -10.8760   37.6640 C   0  0  0  0  0  0
   89.1290  -11.8740   37.3530 O   0  0  0  0  0  0
   86.6590  -11.7940   36.1750 C   0  0  0  0  0  0
   86.0860  -12.9420   36.9480 C   0  0  0  0  0  0
   84.9910  -12.8080   37.7760 N   0  0  0  0  0  0
   86.4510  -14.2430   37.0150 C   0  0  0  0  0  0
   84.7070  -13.9770   38.3210 C   0  0  0  0  0  0
   85.5780  -14.8660   37.8760 N   0  0  0  0  0  0
   88.9200   -9.9730   38.5580 N   0  0  0  0  0  0
   90.1980   -9.9720   39.2900 C   0  0  2  0  0  0
   90.6830  -11.3640   39.6770 C   0  0  0  0  0  0
   90.2540  -11.9180   40.6870 O   0  0  0  0  0  0
   89.8890   -9.1150   40.5110 C   0  0  0  0  0  0
   88.9240   -8.1250   39.9590 C   0  0  0  0  0  0
   88.0100   -8.9510   39.1070 C   0  0  0  0  0  0
   91.5980  -11.9120   38.8830 N   0  0  0  0  0  0
   92.1160  -13.2520   39.1300 C   0  0  2  0  0  0
   92.8350  -13.4780   40.4660 C   0  0  0  0  0  0
   92.2630  -14.0840   41.3720 O   0  0  0  0  0  0
   93.0330  -13.6990   37.9750 C   0  0  2  0  0  0
   93.6030  -14.9760   38.2880 O   0  0  0  0  0  0
   94.1340  -12.6780   37.7340 C   0  0  0  0  0  0
   94.0750  -13.0080   40.5990 N   0  0  0  0  0  0
   94.8350  -13.2000   41.8410 C   0  0  2  0  0  0
   94.1020  -12.7440   43.1070 C   0  0  0  0  0  0
   94.1610  -13.4160   44.1360 O   0  0  0  0  0  0
   96.1980  -12.4830   41.7960 C   0  0  2  0  0  0
   97.0780  -13.1000   40.7090 C   0  0  0  0  0  0
   96.8890  -12.5950   43.1400 C   0  0  0  0  0  0
   97.3780  -14.5850   40.9160 C   0  0  0  0  0  0
   93.4260  -11.6000   43.0230 N   0  0  0  0  0  0
   92.6690  -11.0490   44.1460 C   0  0  2  0  0  0
   91.5340  -12.0100   44.5090 C   0  0  0  0  0  0
   91.1740  -12.1670   45.6810 O   0  0  0  0  0  0
   92.0710   -9.7020   43.7490 C   0  0  0  0  0  0
   91.9010   -8.5650   44.7570 C   0  0  0  0  0  0
   90.5850   -7.8620   44.4420 C   0  0  0  0  0  0
   91.9100   -9.0710   46.1830 C   0  0  0  0  0  0
   90.9670  -12.6510   43.4940 N   0  0  0  0  0  0
   89.8760  -13.5880   43.7150 C   0  0  2  0  0  0
   90.4000  -14.8180   44.4620 C   0  0  0  0  0  0
   89.7800  -15.2810   45.4240 O   0  0  0  0  0  0
   89.2700  -14.0040   42.3720 C   0  0  0  0  0  0
   87.9370  -14.6940   42.4800 C   0  0  0  0  0  0
   86.7490  -13.9760   42.3750 C   0  0  0  0  0  0
   87.8610  -16.0740   42.6910 C   0  0  0  0  0  0
   85.5120  -14.6170   42.4750 C   0  0  0  0  0  0
   86.6340  -16.7280   42.7960 C   0  0  0  0  0  0
   85.4640  -15.9960   42.6850 C   0  0  0  0  0  0
   84.2520  -16.6410   42.7790 O   0  0  0  0  0  0
   91.5420  -15.3390   44.0110 N   0  0  0  0  0  0
   92.1780  -16.5130   44.6190 C   0  0  2  0  0  0
   92.5010  -16.2230   46.0780 C   0  0  0  0  0  0
   92.4930  -17.1150   46.9260 O   0  0  0  0  0  0
   93.5050  -16.8780   43.8870 C   0  0  2  0  0  0
   93.2110  -17.4350   42.6010 O   0  0  0  0  0  0
   94.3250  -17.8790   44.7000 C   0  0  0  0  0  0
   92.7890  -14.9590   46.3490 N   0  0  0  0  0  0
   93.1260  -14.5030   47.6830 C   0  0  2  0  0  0
   91.8780  -14.2620   48.5290 C   0  0  0  0  0  0
   91.8880  -14.5260   49.7260 O   0  0  0  0  0  0
   93.9520  -13.2090   47.5840 C   0  0  0  0  0  0
   95.4120  -13.2210   48.0510 C   0  0  0  0  0  0
   96.0790  -14.5390   47.6930 C   0  0  0  0  0  0
   96.1560  -12.0650   47.4120 C   0  0  0  0  0  0
   90.8030  -13.7810   47.9060 N   0  0  0  0  0  0
   89.5740  -13.4820   48.6370 C   0  0  2  0  0  0
   88.6110  -14.6310   48.8650 C   0  0  0  0  0  0
   87.7830  -14.5770   49.7800 O   0  0  0  0  0  0
   88.8180  -12.3390   47.9640 C   0  0  0  0  0  0
   89.4970  -10.9740   48.0320 C   0  0  0  0  0  0
   88.5050   -9.9170   47.5770 C   0  0  0  0  0  0
   89.9620  -10.6900   49.4590 C   0  0  0  0  0  0
   88.6960  -15.6600   48.0320 N   0  0  0  0  0  0
   87.8230  -16.8160   48.1860 C   0  0  2  0  0  0
   88.4580  -17.8640   49.0970 C   0  0  0  0  0  0
   87.7900  -18.2940   50.0650 O   0  0  0  0  0  0
   87.5170  -17.4440   46.8300 C   0  0  0  0  0  0
   86.8500  -18.6850   47.0100 O   0  0  0  0  0  0
   89.6180  -18.2450   48.8240 O   0  0  0  0  0  0
   87.1387   -8.6934   32.8314 H   0  0  0  0  0  0
   86.9162   -6.9181   32.9909 H   0  0  0  0  0  0
   85.9521   -8.0393   34.0107 H   0  0  0  0  0  0
   88.9464   -7.6580   34.0662 H   0  0  0  0  0  0
   87.5345   -5.7605   35.0093 H   0  0  0  0  0  0
   86.8120   -6.9350   36.1604 H   0  0  0  0  0  0
   88.7285   -5.6985   37.2236 H   0  0  0  0  0  0
   86.3926   -8.5905   36.4322 H   0  0  0  0  0  0
   86.3463  -10.4500   37.8442 H   0  0  0  0  0  0
   85.8875  -11.4607   35.4653 H   0  0  0  0  0  0
   87.5280  -12.1759   35.6192 H   0  0  0  0  0  0
   87.2561  -14.8193   36.5357 H   0  0  0  0  0  0
   83.8932  -14.1749   39.0187 H   0  0  0  0  0  0
   91.0027   -9.5806   38.6503 H   0  0  0  0  0  0
   89.4549   -9.7454   41.3010 H   0  0  0  0  0  0
   90.8169   -8.6530   40.8791 H   0  0  0  0  0  0
   88.3901   -7.6333   40.7855 H   0  0  0  0  0  0
   89.4683   -7.3696   39.3732 H   0  0  0  0  0  0
   87.5621   -8.3777   38.2820 H   0  0  0  0  0  0
   87.2144   -9.4418   39.6867 H   0  0  0  0  0  0
   91.9640  -11.3306   38.0239 H   0  0  0  0  0  0
   91.1726  -13.8149   39.1857 H   0  0  0  0  0  0
   92.4621  -13.8436   37.0459 H   0  0  0  0  0  0
   92.9478  -15.8356   38.4925 H   0  0  0  0  0  0
   93.6841  -11.7031   37.4950 H   0  0  0  0  0  0
   94.7623  -13.0078   36.8935 H   0  0  0  0  0  0
   94.7519  -12.5846   38.6392 H   0  0  0  0  0  0
   94.5280  -12.4671   39.7551 H   0  0  0  0  0  0
   94.9393  -14.2949   41.8578 H   0  0  0  0  0  0
   96.0446  -11.4168   41.5733 H   0  0  0  0  0  0
   96.5779  -13.0039   39.7340 H   0  0  0  0  0  0
   98.0447  -12.5759   40.6785 H   0  0  0  0  0  0
   96.2517  -12.1497   43.9182 H   0  0  0  0  0  0
   97.8503  -12.0615   43.1036 H   0  0  0  0  0  0
   97.0666  -13.6551   43.3737 H   0  0  0  0  0  0
   98.0130  -14.9487   40.0947 H   0  0  0  0  0  0
   96.4350  -15.1512   40.9288 H   0  0  0  0  0  0
   97.9018  -14.7233   41.8734 H   0  0  0  0  0  0
   93.4518  -11.0654   42.0620 H   0  0  0  0  0  0
   93.3741  -10.9298   44.9818 H   0  0  0  0  0  0
   92.6889   -9.2440   42.9626 H   0  0  0  0  0  0
   91.0487   -9.8516   43.3714 H   0  0  0  0  0  0
   92.7467   -7.8658   44.6804 H   0  0  0  0  0  0
   90.6007   -7.5031   43.4023 H   0  0  0  0  0  0
   90.4534   -7.0080   45.1227 H   0  0  0  0  0  0
   89.7516   -8.5678   44.5737 H   0  0  0  0  0  0
   92.8668   -9.5736   46.3877 H   0  0  0  0  0  0
   91.0840   -9.7835   46.3244 H   0  0  0  0  0  0
   91.7857   -8.2238   46.8735 H   0  0  0  0  0  0
   91.3339  -12.4648   42.4739 H   0  0  0  0  0  0
   89.1257  -13.0608   44.3225 H   0  0  0  0  0  0
   89.1204  -13.1124   41.7453 H   0  0  0  0  0  0
   89.9519  -14.7004   41.8620 H   0  0  0  0  0  0
   86.7846  -12.8988   42.2125 H   0  0  0  0  0  0
   88.7815  -16.6516   42.7753 H   0  0  0  0  0  0
   84.5891  -14.0433   42.3895 H   0  0  0  0  0  0
   86.5963  -17.8044   42.9637 H   0  0  0  0  0  0
   83.3164  -16.0691   42.6922 H   0  0  0  0  0  0
   92.0079  -14.8485   43.1436 H   0  0  0  0  0  0
   91.4344  -17.3189   44.5317 H   0  0  0  0  0  0
   94.1084  -15.9792   43.6919 H   0  0  0  0  0  0
   92.6251  -16.8562   41.8718 H   0  0  0  0  0  0
   94.5509  -17.4513   45.6879 H   0  0  0  0  0  0
   95.2646  -18.0981   44.1717 H   0  0  0  0  0  0
   93.7497  -18.8081   44.8255 H   0  0  0  0  0  0
   92.7653  -14.2444   45.5131 H   0  0  0  0  0  0
   93.7042  -15.3250   48.1302 H   0  0  0  0  0  0
   94.0012  -12.8849   46.5340 H   0  0  0  0  0  0
   93.4759  -12.4229   48.1884 H   0  0  0  0  0  0
   95.4486  -13.1089   49.1447 H   0  0  0  0  0  0
   95.5291  -15.3677   48.1629 H   0  0  0  0  0  0
   97.1172  -14.5351   48.0564 H   0  0  0  0  0  0
   96.0733  -14.6680   46.6006 H   0  0  0  0  0  0
   95.6627  -11.1189   47.6794 H   0  0  0  0  0  0
   96.1506  -12.1851   46.3186 H   0  0  0  0  0  0
   97.1945  -12.0523   47.7744 H   0  0  0  0  0  0
   90.8529  -13.6096   46.8206 H   0  0  0  0  0  0
   89.9855  -13.2259   49.6245 H   0  0  0  0  0  0
   88.6841  -12.5666   46.8962 H   0  0  0  0  0  0
   87.8334  -12.2203   48.4398 H   0  0  0  0  0  0
   90.3771  -10.9565   47.3723 H   0  0  0  0  0  0
   88.1810  -10.1366   46.5490 H   0  0  0  0  0  0
   88.9842   -8.9273   47.6070 H   0  0  0  0  0  0
   87.6316   -9.9219   48.2457 H   0  0  0  0  0  0
   90.6786  -11.4637   49.7719 H   0  0  0  0  0  0
   89.0948  -10.6982   50.1357 H   0  0  0  0  0  0
   90.4475   -9.7036   49.4970 H   0  0  0  0  0  0
   89.4357  -15.6339   47.2183 H   0  0  0  0  0  0
   86.9049  -16.4188   48.6435 H   0  0  0  0  0  0
   88.2211  -19.0493   50.7385 H   0  0  0  0  0  0
   86.8727  -16.7673   46.2495 H   0  0  0  0  0  0
   88.4567  -17.6136   46.2840 H   0  0  0  0  0  0
   86.5508  -19.2806   46.1349 H   0  0  0  0  0  0
  1  2  1  0  0  0
  1 89  1  0  0  0
  1 90  1  0  0  0
  1 91  1  0  0  0
  2  3  1  0  0  0
  2  5  1  0  0  0
  2 92  1  0  0  0
  3  4  2  0  0  0
  3  7  1  0  0  0
  5  6  1  0  0  0
  5 93  1  0  0  0
  5 94  1  0  0  0
  6 95  1  0  0  0
  7  8  1  0  0  0
  7 96  1  0  0  0
  8  9  1  0  0  0
  8 11  1  0  0  0
  8 97  1  0  0  0
  9 10  2  0  0  0
  9 17  1  0  0  0
 11 12  1  0  0  0
 11 98  1  0  0  0
 11 99  1  0  0  0
 12 13  2  0  0  0
 12 14  1  0  0  0
 13 15  1  0  0  0
 14 16  2  0  0  0
 14100  1  0  0  0
 15 16  1  0  0  0
 15101  1  0  0  0
 17 18  1  0  0  0
 17 23  1  0  0  0
 18 19  1  0  0  0
 18 21  1  0  0  0
 18102  1  0  0  0
 19 20  2  0  0  0
 19 24  1  0  0  0
 21 22  1  0  0  0
 21103  1  0  0  0
 21104  1  0  0  0
 22 23  1  0  0  0
 22105  1  0  0  0
 22106  1  0  0  0
 23107  1  0  0  0
 23108  1  0  0  0
 24 25  1  0  0  0
 24109  1  0  0  0
 25 26  1  0  0  0
 25 28  1  0  0  0
 25110  1  0  0  0
 26 27  2  0  0  0
 26 31  1  0  0  0
 28 29  1  0  0  0
 28 30  1  0  0  0
 28111  1  0  0  0
 29112  1  0  0  0
 30113  1  0  0  0
 30114  1  0  0  0
 30115  1  0  0  0
 31 32  1  0  0  0
 31116  1  0  0  0
 32 33  1  0  0  0
 32 35  1  0  0  0
 32117  1  0  0  0
 33 34  2  0  0  0
 33 39  1  0  0  0
 35 36  1  0  0  0
 35 37  1  0  0  0
 35118  1  0  0  0
 36 38  1  0  0  0
 36119  1  0  0  0
 36120  1  0  0  0
 37121  1  0  0  0
 37122  1  0  0  0
 37123  1  0  0  0
 38124  1  0  0  0
 38125  1  0  0  0
 38126  1  0  0  0
 39 40  1  0  0  0
 39127  1  0  0  0
 40 41  1  0  0  0
 40 43  1  0  0  0
 40128  1  0  0  0
 41 42  2  0  0  0
 41 47  1  0  0  0
 43 44  1  0  0  0
 43129  1  0  0  0
 43130  1  0  0  0
 44 45  1  0  0  0
 44 46  1  0  0  0
 44131  1  0  0  0
 45132  1  0  0  0
 45133  1  0  0  0
 45134  1  0  0  0
 46135  1  0  0  0
 46136  1  0  0  0
 46137  1  0  0  0
 47 48  1  0  0  0
 47138  1  0  0  0
 48 49  1  0  0  0
 48 51  1  0  0  0
 48139  1  0  0  0
 49 50  2  0  0  0
 49 59  1  0  0  0
 51 52  1  0  0  0
 51140  1  0  0  0
 51141  1  0  0  0
 52 53  2  0  0  0
 52 54  1  0  0  0
 53 55  1  0  0  0
 53142  1  0  0  0
 54 56  2  0  0  0
 54143  1  0  0  0
 55 57  2  0  0  0
 55144  1  0  0  0
 56 57  1  0  0  0
 56145  1  0  0  0
 57 58  1  0  0  0
 58146  1  0  0  0
 59 60  1  0  0  0
 59147  1  0  0  0
 60 61  1  0  0  0
 60 63  1  0  0  0
 60148  1  0  0  0
 61 62  2  0  0  0
 61 66  1  0  0  0
 63 64  1  0  0  0
 63 65  1  0  0  0
 63149  1  0  0  0
 64150  1  0  0  0
 65151  1  0  0  0
 65152  1  0  0  0
 65153  1  0  0  0
 66 67  1  0  0  0
 66154  1  0  0  0
 67 68  1  0  0  0
 67 70  1  0  0  0
 67155  1  0  0  0
 68 69  2  0  0  0
 68 74  1  0  0  0
 70 71  1  0  0  0
 70156  1  0  0  0
 70157  1  0  0  0
 71 72  1  0  0  0
 71 73  1  0  0  0
 71158  1  0  0  0
 72159  1  0  0  0
 72160  1  0  0  0
 72161  1  0  0  0
 73162  1  0  0  0
 73163  1  0  0  0
 73164  1  0  0  0
 74 75  1  0  0  0
 74165  1  0  0  0
 75 76  1  0  0  0
 75 78  1  0  0  0
 75166  1  0  0  0
 76 77  2  0  0  0
 76 82  1  0  0  0
 78 79  1  0  0  0
 78167  1  0  0  0
 78168  1  0  0  0
 79 80  1  0  0  0
 79 81  1  0  0  0
 79169  1  0  0  0
 80170  1  0  0  0
 80171  1  0  0  0
 80172  1  0  0  0
 81173  1  0  0  0
 81174  1  0  0  0
 81175  1  0  0  0
 82 83  1  0  0  0
 82176  1  0  0  0
 83 84  1  0  0  0
 83 86  1  0  0  0
 83177  1  0  0  0
 84 85  1  0  0  0
 84 88  2  0  0  0
 85178  1  0  0  0
 86 87  1  0  0  0
 86179  1  0  0  0
 86180  1  0  0  0
 87181  1  0  0  0
M  CHG  1   1   1
M  END
> <s_m_source_file>
../1zh7_ligand.sdf

> <i_m_source_file_index>
1

> <s_epik_input>
W0NIXTE9TltDSDJdTj1DMVtDSDJdW0NASF0oW05IXUMoPU8pW0NAQEhdKFtOSDMrXSlbQ0gyXVtPSF0pQyg9TylOMltDQEBIXShbQ0gyXVtDSDJdW0NIMl0yKUMoPU8pW05IXVtDQEBIXShbQ0BIXShbT0hdKVtDSDNdKUMoPU8pW05IXVtDQEBIXShbQ0BASF0oW0NIM10pW0NIMl1bQ0gzXSlDKD1PKVtOSF1bQ0BASF0oW0NIMl1bQ0hdKFtDSDNdKVtDSDNdKUMoPU8pW05IXVtDQEBIXShbQ0gyXWMzW2NIXVtjSF1jKFtPSF0pW2NIXVtjSF0zKUMoPU8pW05IXVtDQEBIXShbQ0BIXShbT0hdKVtDSDNdKUMoPU8pW05IXVtDQEBIXShbQ0gyXVtDSF0oW0NIM10pW0NIM10pQyg9TylbTkhdW0NAQEhdKFtDSDJdW0NIXShbQ0gzXSlbQ0gzXSlDKD1PKVtOSF1bQ0BIXShDKD1PKVtPSF0pW0NIMl1bT0hd

> <s_epik_cmdline>
J2VwaWtfYXBwJywgJy1pbWFlJywgJ2xpZ2FuZF9wcm8ubWFlJywgJy1vbWFlJywgJ2xpZ2FuZF9wcmVwLm1hZScsICctbXMnLCAnMScsICctcGgnLCAnNycsICctcGh0JywgJzAuNScsICctbnQn

> <s_epik_pKa_notes>
Molecule size exceeds maximum supported for generating protonation states

> <s_epik_Chemistry_Notes>
This compound has an imine and may undergo hydrolysis.

$$$$
