1zhk_ligand
                    3D
 Schrodinger Suite 2020-3.
205208  0  0  1  0            999 V2000
   12.3860   14.7250   18.8280 N   0  3  0  0  0  0
   13.5110   14.3190   17.9350 C   0  0  2  0  0  0
   14.8490   14.6090   18.6040 C   0  0  0  0  0  0
   15.0920   15.7220   19.0450 O   0  0  0  0  0  0
   13.4490   15.0960   16.6240 C   0  0  0  0  0  0
   14.4960   14.6980   15.5880 C   0  0  0  0  0  0
   14.0620   13.4000   14.9170 C   0  0  0  0  0  0
   14.6460   15.8170   14.5580 C   0  0  0  0  0  0
   15.7390   13.6090   18.6730 N   0  0  0  0  0  0
   17.0480   13.8130   19.3010 C   0  0  2  0  0  0
   17.9420   14.6640   18.4030 C   0  0  0  0  0  0
   17.6040   14.9200   17.2410 O   0  0  0  0  0  0
   17.5690   12.3880   19.4750 C   0  0  0  0  0  0
   17.0240   11.7020   18.2500 C   0  0  0  0  0  0
   15.6020   12.2370   18.1460 C   0  0  0  0  0  0
   19.0740   15.1010   18.9360 N   0  0  0  0  0  0
   19.9860   15.9350   18.1680 C   0  0  2  0  0  0
   20.5050   15.1930   16.9510 C   0  0  0  0  0  0
   21.0570   14.1020   17.0700 O   0  0  0  0  0  0
   21.1740   16.3960   19.0180 C   0  0  0  0  0  0
   22.2060   17.1250   18.1690 C   0  0  0  0  0  0
   23.2970   17.7970   18.9680 C   0  0  0  0  0  0
   23.5830   17.3480   20.0960 O   0  0  0  0  0  0
   23.8860   18.7770   18.4460 O   0  0  0  0  0  0
   20.3330   15.7840   15.7600 N   0  0  0  0  0  0
   20.7810   15.1910   14.4950 C   0  0  2  0  0  0
   22.2980   15.0640   14.4350 C   0  0  0  0  0  0
   23.0230   15.8240   15.0760 O   0  0  0  0  0  0
   20.2680   16.1790   13.4460 C   0  0  0  0  0  0
   19.0670   16.7900   14.1080 C   0  0  0  0  0  0
   19.5770   17.0230   15.5100 C   0  0  0  0  0  0
   22.7680   14.1080   13.6460 N   0  0  0  0  0  0
   24.1980   13.8890   13.4810 C   0  0  2  0  0  0
   24.7590   14.9920   12.6020 C   0  0  0  0  0  0
   24.0450   15.5610   11.7720 O   0  0  0  0  0  0
   24.4600   12.5430   12.8040 C   0  0  0  0  0  0
   23.9470   11.2930   13.5190 C   0  0  0  0  0  0
   24.1670   10.0730   12.6200 C   0  0  0  0  0  0
   24.6680   11.1290   14.8480 C   0  0  0  0  0  0
   26.0430   15.3270   12.7910 N   0  0  0  0  0  0
   26.6610   16.3730   11.9760 C   0  0  2  0  0  0
   26.9130   15.8060   10.5780 C   0  0  0  0  0  0
   26.7600   14.6040   10.3570 O   0  0  0  0  0  0
   27.9510   16.6800   12.7340 C   0  0  0  0  0  0
   28.3060   15.3630   13.3360 C   0  0  0  0  0  0
   26.9660   14.8600   13.8400 C   0  0  0  0  0  0
   27.2780   16.6660    9.6350 N   0  0  0  0  0  0
   27.5450   16.2100    8.2780 C   0  0  2  0  0  0
   28.7400   15.2650    8.2720 C   0  0  0  0  0  0
   28.7550   14.2620    7.5530 O   0  0  0  0  0  0
   27.8150   17.4080    7.3640 C   0  0  0  0  0  0
   26.5560   18.0700    6.8400 C   0  0  0  0  0  0
   25.8420   17.2240    5.7990 C   0  0  0  0  0  0
   25.4780   16.0710    6.0500 O   0  0  0  0  0  0
   25.6380   17.7980    4.6200 N   0  0  0  0  0  0
   29.7340   15.5800    9.0910 N   0  0  0  0  0  0
   30.9160   14.7420    9.1580 C   0  0  0  0  0  0
   30.8370   13.6710   10.2300 C   0  0  0  0  0  0
   29.7820   13.0710   10.4590 O   0  0  0  0  0  0
   31.9660   13.4340   10.8890 N   0  0  0  0  0  0
   32.0580   12.4330   11.9440 C   0  0  2  0  0  0
   31.5530   13.0100   13.2660 C   0  0  0  0  0  0
   31.8800   14.1410   13.6230 O   0  0  0  0  0  0
   33.5170   11.9810   12.0740 C   0  0  0  0  0  0
   33.7980   10.9330   13.1360 C   0  0  0  0  0  0
   35.2040   10.3680   13.0170 C   0  0  0  0  0  0
   35.5240    9.6540   12.0610 O   0  0  0  0  0  0
   36.0550   10.6940   13.9810 N   0  0  0  0  0  0
   30.7270   12.2390   13.9710 N   0  0  0  0  0  0
   30.2000   12.6700   15.2630 C   0  0  2  0  0  0
   31.3970   12.7780   16.2010 C   0  0  0  0  0  0
   32.1760   11.8290   16.3350 O   0  0  0  0  0  0
   29.2040   11.6420   15.8030 C   0  0  0  0  0  0
   28.5310   11.9450   17.1440 C   0  0  0  0  0  0
   27.6970   13.2190   17.0360 C   0  0  0  0  0  0
   27.6440   10.7680   17.5350 C   0  0  0  0  0  0
   31.5460   13.9290   16.8510 N   0  0  0  0  0  0
   32.6820   14.1410   17.7430 C   0  0  2  0  0  0
   32.5770   13.4010   19.0620 C   0  0  0  0  0  0
   31.6260   13.5810   19.8180 O   0  0  0  0  0  0
   32.8750   15.6340   18.0630 C   0  0  2  0  0  0
   32.7470   16.3970   16.8610 O   0  0  0  0  0  0
   34.2580   15.8710   18.6560 C   0  0  0  0  0  0
   33.5700   12.5680   19.3410 N   0  0  0  0  0  0
   33.5920   11.8290   20.5930 C   0  0  2  0  0  0
   34.0620   12.7700   21.7050 C   0  0  0  0  0  0
   34.4390   13.9160   21.4390 O   0  0  0  0  0  0
   34.5350   10.6450   20.4670 C   0  0  0  0  0  0
   34.0070   12.3070   22.9500 N   0  0  0  0  0  0
   34.4720   13.1070   24.0770 C   0  0  2  0  0  0
   36.0020   13.0320   24.0760 C   0  0  0  0  0  0
   36.5300   12.1550   23.3600 O   0  0  0  0  0  0
   33.9470   12.5360   25.4020 C   0  0  0  0  0  0
   32.4700   12.7540   25.6780 C   0  0  0  0  0  0
   31.4960   12.3360   24.7720 C   0  0  0  0  0  0
   32.0500   13.3540   26.8650 C   0  0  0  0  0  0
   30.1260   12.5090   25.0460 C   0  0  0  0  0  0
   30.6850   13.5340   27.1470 C   0  0  0  0  0  0
   29.7360   13.1070   26.2320 C   0  0  0  0  0  0
   28.3990   13.2680   26.5090 O   0  0  0  0  0  0
   36.6510   13.8220   24.7880 O   0  0  0  0  0  0
   12.4419   14.1581   19.7690 H   0  0  0  0  0  0
   11.4281   14.5148   18.3297 H   0  0  0  0  0  0
   12.4589   15.8012   19.0434 H   0  0  0  0  0  0
   13.4004   13.2401   17.7512 H   0  0  0  0  0  0
   12.4665   14.9434   16.1534 H   0  0  0  0  0  0
   13.5966   16.1673   16.8253 H   0  0  0  0  0  0
   15.4695   14.5378   16.0744 H   0  0  0  0  0  0
   13.9608   12.6107   15.6764 H   0  0  0  0  0  0
   14.8170   13.1005   14.1752 H   0  0  0  0  0  0
   13.0950   13.5522   14.4152 H   0  0  0  0  0  0
   14.9592   16.7419   15.0644 H   0  0  0  0  0  0
   13.6824   15.9831   14.0541 H   0  0  0  0  0  0
   15.4044   15.5314   13.8141 H   0  0  0  0  0  0
   16.9734   14.3604   20.2522 H   0  0  0  0  0  0
   18.6684   12.4010   19.5079 H   0  0  0  0  0  0
   17.1791   11.9671   20.4135 H   0  0  0  0  0  0
   17.6369   11.9697   17.3767 H   0  0  0  0  0  0
   17.0516   10.6122   18.3972 H   0  0  0  0  0  0
   14.8878   11.6756   18.7662 H   0  0  0  0  0  0
   15.2352   12.2772   17.1097 H   0  0  0  0  0  0
   19.3206   14.8259   19.9721 H   0  0  0  0  0  0
   19.3731   16.7946   17.8589 H   0  0  0  0  0  0
   20.8194   17.0791   19.8039 H   0  0  0  0  0  0
   21.6544   15.5217   19.4816 H   0  0  0  0  0  0
   22.6947   16.4095   17.4913 H   0  0  0  0  0  0
   21.7079   17.9080   17.5784 H   0  0  0  0  0  0
   24.6865   19.2939   18.9955 H   0  0  0  0  0  0
   20.3901   14.1687   14.3853 H   0  0  0  0  0  0
   21.0506   16.9203   13.2269 H   0  0  0  0  0  0
   20.0100   15.6352   12.5253 H   0  0  0  0  0  0
   18.7934   17.7188   13.5860 H   0  0  0  0  0  0
   18.2251   16.0833   14.0645 H   0  0  0  0  0  0
   18.7727   17.1183   16.2544 H   0  0  0  0  0  0
   20.2531   17.8872   15.5881 H   0  0  0  0  0  0
   22.0487   13.4722   13.1090 H   0  0  0  0  0  0
   24.6379   13.9064   14.4891 H   0  0  0  0  0  0
   23.9833   12.5322   11.8127 H   0  0  0  0  0  0
   25.5440   12.3941   12.6912 H   0  0  0  0  0  0
   22.8719   11.3921   13.7297 H   0  0  0  0  0  0
   23.6356   10.2185   11.6679 H   0  0  0  0  0  0
   23.7809    9.1735   13.1217 H   0  0  0  0  0  0
   25.2426    9.9507   12.4246 H   0  0  0  0  0  0
   24.4931   12.0177   15.4721 H   0  0  0  0  0  0
   25.7471   11.0140   14.6680 H   0  0  0  0  0  0
   24.2853   10.2367   15.3651 H   0  0  0  0  0  0
   26.0294   17.2657   11.8564 H   0  0  0  0  0  0
   28.7134   17.0423   12.0286 H   0  0  0  0  0  0
   27.7559   17.4530   13.4919 H   0  0  0  0  0  0
   28.7430   14.7128   12.5638 H   0  0  0  0  0  0
   29.0366   15.5143   14.1443 H   0  0  0  0  0  0
   26.6774   15.3014   14.8054 H   0  0  0  0  0  0
   26.9177   13.7632   13.9092 H   0  0  0  0  0  0
   27.3782   17.7321    9.8867 H   0  0  0  0  0  0
   26.6418   15.6755    7.9485 H   0  0  0  0  0  0
   28.3805   18.1717    7.9180 H   0  0  0  0  0  0
   28.3997   17.0796    6.4921 H   0  0  0  0  0  0
   25.8581   18.2415    7.6728 H   0  0  0  0  0  0
   26.8144   19.0324    6.3741 H   0  0  0  0  0  0
   25.9806   18.8282    4.4432 H   0  0  0  0  0  0
   25.1263   17.2436    3.8195 H   0  0  0  0  0  0
   29.6608   16.4791    9.7205 H   0  0  0  0  0  0
   31.0598   14.2332    8.1934 H   0  0  0  0  0  0
   31.7952   15.3651    9.3785 H   0  0  0  0  0  0
   32.8516   14.0253   10.6132 H   0  0  0  0  0  0
   31.4141   11.5919   11.6474 H   0  0  0  0  0  0
   33.8526   11.5467   11.1207 H   0  0  0  0  0  0
   34.1480   12.8464   12.3250 H   0  0  0  0  0  0
   33.6915   11.3842   14.1336 H   0  0  0  0  0  0
   33.0834   10.1034   13.0306 H   0  0  0  0  0  0
   35.7248   11.3329   14.8133 H   0  0  0  0  0  0
   37.0909   10.3254   13.9481 H   0  0  0  0  0  0
   30.4431   11.2587   13.5605 H   0  0  0  0  0  0
   29.6820   13.6313   15.1306 H   0  0  0  0  0  0
   28.3792   11.5187   15.0857 H   0  0  0  0  0  0
   29.7134   10.6775   15.9453 H   0  0  0  0  0  0
   29.2978   12.0957   17.9181 H   0  0  0  0  0  0
   28.3473   14.0601   16.7537 H   0  0  0  0  0  0
   27.2239   13.4309   18.0062 H   0  0  0  0  0  0
   26.9189   13.0840   16.2703 H   0  0  0  0  0  0
   28.2557    9.8568   17.6096 H   0  0  0  0  0  0
   26.8657   10.6257   16.7708 H   0  0  0  0  0  0
   27.1707   10.9725   18.5067 H   0  0  0  0  0  0
   30.8010   14.7260   16.7102 H   0  0  0  0  0  0
   33.5078   13.7147   17.1544 H   0  0  0  0  0  0
   32.0934   15.9968   18.7467 H   0  0  0  0  0  0
   31.8124   16.3587   16.2821 H   0  0  0  0  0  0
   34.3649   15.2870   19.5820 H   0  0  0  0  0  0
   34.3822   16.9406   18.8806 H   0  0  0  0  0  0
   35.0255   15.5565   17.9335 H   0  0  0  0  0  0
   34.3836   12.4393   18.6120 H   0  0  0  0  0  0
   32.5723   11.4654   20.7880 H   0  0  0  0  0  0
   34.1832    9.9798   19.6647 H   0  0  0  0  0  0
   34.5585   10.0922   21.4177 H   0  0  0  0  0  0
   35.5462   11.0056   20.2274 H   0  0  0  0  0  0
   33.6008   11.2992   23.1213 H   0  0  0  0  0  0
   34.0903   14.1292   23.9377 H   0  0  0  0  0  0
   37.6253   12.0600   23.3245 H   0  0  0  0  0  0
   34.1051   11.4476   25.4205 H   0  0  0  0  0  0
   34.4874   12.9993   26.2407 H   0  0  0  0  0  0
   31.8004   11.8675   23.8361 H   0  0  0  0  0  0
   32.7942   13.6895   27.5873 H   0  0  0  0  0  0
   29.3768   12.1741   24.3286 H   0  0  0  0  0  0
   30.3749   14.0063   28.0791 H   0  0  0  0  0  0
   27.6428   12.9303   25.7851 H   0  0  0  0  0  0
  1  2  1  0  0  0
  1102  1  0  0  0
  1103  1  0  0  0
  1104  1  0  0  0
  2  3  1  0  0  0
  2  5  1  0  0  0
  2105  1  0  0  0
  3  4  2  0  0  0
  3  9  1  0  0  0
  5  6  1  0  0  0
  5106  1  0  0  0
  5107  1  0  0  0
  6  7  1  0  0  0
  6  8  1  0  0  0
  6108  1  0  0  0
  7109  1  0  0  0
  7110  1  0  0  0
  7111  1  0  0  0
  8112  1  0  0  0
  8113  1  0  0  0
  8114  1  0  0  0
  9 10  1  0  0  0
  9 15  1  0  0  0
 10 11  1  0  0  0
 10 13  1  0  0  0
 10115  1  0  0  0
 11 12  2  0  0  0
 11 16  1  0  0  0
 13 14  1  0  0  0
 13116  1  0  0  0
 13117  1  0  0  0
 14 15  1  0  0  0
 14118  1  0  0  0
 14119  1  0  0  0
 15120  1  0  0  0
 15121  1  0  0  0
 16 17  1  0  0  0
 16122  1  0  0  0
 17 18  1  0  0  0
 17 20  1  0  0  0
 17123  1  0  0  0
 18 19  2  0  0  0
 18 25  1  0  0  0
 20 21  1  0  0  0
 20124  1  0  0  0
 20125  1  0  0  0
 21 22  1  0  0  0
 21126  1  0  0  0
 21127  1  0  0  0
 22 23  2  0  0  0
 22 24  1  0  0  0
 24128  1  0  0  0
 25 26  1  0  0  0
 25 31  1  0  0  0
 26 27  1  0  0  0
 26 29  1  0  0  0
 26129  1  0  0  0
 27 28  2  0  0  0
 27 32  1  0  0  0
 29 30  1  0  0  0
 29130  1  0  0  0
 29131  1  0  0  0
 30 31  1  0  0  0
 30132  1  0  0  0
 30133  1  0  0  0
 31134  1  0  0  0
 31135  1  0  0  0
 32 33  1  0  0  0
 32136  1  0  0  0
 33 34  1  0  0  0
 33 36  1  0  0  0
 33137  1  0  0  0
 34 35  2  0  0  0
 34 40  1  0  0  0
 36 37  1  0  0  0
 36138  1  0  0  0
 36139  1  0  0  0
 37 38  1  0  0  0
 37 39  1  0  0  0
 37140  1  0  0  0
 38141  1  0  0  0
 38142  1  0  0  0
 38143  1  0  0  0
 39144  1  0  0  0
 39145  1  0  0  0
 39146  1  0  0  0
 40 41  1  0  0  0
 40 46  1  0  0  0
 41 42  1  0  0  0
 41 44  1  0  0  0
 41147  1  0  0  0
 42 43  2  0  0  0
 42 47  1  0  0  0
 44 45  1  0  0  0
 44148  1  0  0  0
 44149  1  0  0  0
 45 46  1  0  0  0
 45150  1  0  0  0
 45151  1  0  0  0
 46152  1  0  0  0
 46153  1  0  0  0
 47 48  1  0  0  0
 47154  1  0  0  0
 48 49  1  0  0  0
 48 51  1  0  0  0
 48155  1  0  0  0
 49 50  2  0  0  0
 49 56  1  0  0  0
 51 52  1  0  0  0
 51156  1  0  0  0
 51157  1  0  0  0
 52 53  1  0  0  0
 52158  1  0  0  0
 52159  1  0  0  0
 53 54  2  0  0  0
 53 55  1  0  0  0
 55160  1  0  0  0
 55161  1  0  0  0
 56 57  1  0  0  0
 56162  1  0  0  0
 57 58  1  0  0  0
 57163  1  0  0  0
 57164  1  0  0  0
 58 59  2  0  0  0
 58 60  1  0  0  0
 60 61  1  0  0  0
 60165  1  0  0  0
 61 62  1  0  0  0
 61 64  1  0  0  0
 61166  1  0  0  0
 62 63  2  0  0  0
 62 69  1  0  0  0
 64 65  1  0  0  0
 64167  1  0  0  0
 64168  1  0  0  0
 65 66  1  0  0  0
 65169  1  0  0  0
 65170  1  0  0  0
 66 67  2  0  0  0
 66 68  1  0  0  0
 68171  1  0  0  0
 68172  1  0  0  0
 69 70  1  0  0  0
 69173  1  0  0  0
 70 71  1  0  0  0
 70 73  1  0  0  0
 70174  1  0  0  0
 71 72  2  0  0  0
 71 77  1  0  0  0
 73 74  1  0  0  0
 73175  1  0  0  0
 73176  1  0  0  0
 74 75  1  0  0  0
 74 76  1  0  0  0
 74177  1  0  0  0
 75178  1  0  0  0
 75179  1  0  0  0
 75180  1  0  0  0
 76181  1  0  0  0
 76182  1  0  0  0
 76183  1  0  0  0
 77 78  1  0  0  0
 77184  1  0  0  0
 78 79  1  0  0  0
 78 81  1  0  0  0
 78185  1  0  0  0
 79 80  2  0  0  0
 79 84  1  0  0  0
 81 82  1  0  0  0
 81 83  1  0  0  0
 81186  1  0  0  0
 82187  1  0  0  0
 83188  1  0  0  0
 83189  1  0  0  0
 83190  1  0  0  0
 84 85  1  0  0  0
 84191  1  0  0  0
 85 86  1  0  0  0
 85 88  1  0  0  0
 85192  1  0  0  0
 86 87  2  0  0  0
 86 89  1  0  0  0
 88193  1  0  0  0
 88194  1  0  0  0
 88195  1  0  0  0
 89 90  1  0  0  0
 89196  1  0  0  0
 90 91  1  0  0  0
 90 93  1  0  0  0
 90197  1  0  0  0
 91 92  1  0  0  0
 91101  2  0  0  0
 92198  1  0  0  0
 93 94  1  0  0  0
 93199  1  0  0  0
 93200  1  0  0  0
 94 95  2  0  0  0
 94 96  1  0  0  0
 95 97  1  0  0  0
 95201  1  0  0  0
 96 98  2  0  0  0
 96202  1  0  0  0
 97 99  2  0  0  0
 97203  1  0  0  0
 98 99  1  0  0  0
 98204  1  0  0  0
 99100  1  0  0  0
100205  1  0  0  0
M  CHG  1   1   1
M  END
> <s_m_source_file>
../1zhk_ligand.sdf

> <i_m_source_file_index>
1

> <s_epik_input>
W0NIM11bQ0hdKFtDSDNdKVtDSDJdW0NASF0oW05IMytdKUMoPU8pTjFbQ0BASF0oW0NIMl1bQ0gyXVtDSDJdMSlDKD1PKVtOSF1bQ0BASF0oW0NIMl1bQ0gyXUMoPU8pW09IXSlDKD1PKU4yW0NAQEhdKFtDSDJdW0NIMl1bQ0gyXTIpQyg9TylbTkhdW0NAQEhdKFtDSDJdW0NIXShbQ0gzXSlbQ0gzXSlDKD1PKU4zW0NAQEhdKFtDSDJdW0NIMl1bQ0gyXTMpQyg9TylbTkhdW0NAQEhdKFtDSDJdW0NIMl1DKD1PKVtOSDJdKUMoPU8pW05IXVtDSDJdQyg9TylbTkhdW0NAQEhdKFtDSDJdW0NIMl1DKD1PKVtOSDJdKUMoPU8pW05IXVtDQEBIXShbQ0gyXVtDSF0oW0NIM10pW0NIM10pQyg9TylbTkhdW0NAQEhdKFtDQEhdKFtPSF0pW0NIM10pQyg9TylbTkhdW0NAQEhdKFtDSDNdKUMoPU8pW05IXVtDQEhdKEMoPU8pW09IXSlbQ0gyXWM0W2NIXVtjSF1jKFtPSF0pW2NIXVtjSF00

> <s_epik_cmdline>
J2VwaWtfYXBwJywgJy1pbWFlJywgJ2xpZ2FuZF9wcm8ubWFlJywgJy1vbWFlJywgJ2xpZ2FuZF9wcmVwLm1hZScsICctbXMnLCAnMScsICctcGgnLCAnNycsICctcGh0JywgJzAuNScsICctbnQn

> <s_epik_pKa_notes>
Molecule size exceeds maximum supported for generating protonation states

$$$$
