1zhl_ligand
                    3D
 Schrodinger Suite 2020-3.
205208  0  0  1  0            999 V2000
   12.1400   14.6630   19.1710 N   0  3  0  0  0  0
   13.2640   14.2460   18.2880 C   0  0  2  0  0  0
   14.5840   14.5420   18.9860 C   0  0  0  0  0  0
   14.7870   15.6430   19.4850 O   0  0  0  0  0  0
   13.2190   15.0190   16.9670 C   0  0  0  0  0  0
   14.2620   14.6090   15.9230 C   0  0  0  0  0  0
   13.8050   13.3420   15.2120 C   0  0  0  0  0  0
   14.4480   15.7360   14.9210 C   0  0  0  0  0  0
   15.4950   13.5590   19.0340 N   0  0  0  0  0  0
   16.7980   13.7510   19.6810 C   0  0  2  0  0  0
   17.7100   14.5960   18.7970 C   0  0  0  0  0  0
   17.3760   14.8660   17.6410 O   0  0  0  0  0  0
   17.3090   12.3240   19.8470 C   0  0  0  0  0  0
   16.7520   11.6370   18.6230 C   0  0  0  0  0  0
   15.3340   12.1690   18.5680 C   0  0  0  0  0  0
   18.8490   15.0200   19.3390 N   0  0  0  0  0  0
   19.7800   15.8300   18.5620 C   0  0  2  0  0  0
   20.2340   15.0530   17.3360 C   0  0  0  0  0  0
   20.7440   13.9390   17.4490 O   0  0  0  0  0  0
   21.0140   16.2010   19.3880 C   0  0  0  0  0  0
   21.8840   17.2590   18.7020 C   0  0  0  0  0  0
   23.3240   17.2580   19.1740 C   0  0  0  0  0  0
   23.6070   16.7140   20.2610 O   0  0  0  0  0  0
   24.1800   17.8150   18.4520 O   0  0  0  0  0  0
   20.0530   15.6310   16.1420 N   0  0  0  0  0  0
   20.4620   14.9570   14.9080 C   0  0  2  0  0  0
   21.9800   14.9000   14.7830 C   0  0  0  0  0  0
   22.6920   15.6700   15.4210 O   0  0  0  0  0  0
   19.8430   15.8280   13.8160 C   0  0  0  0  0  0
   18.6620   16.4500   14.4950 C   0  0  0  0  0  0
   19.2320   16.8120   15.8400 C   0  0  0  0  0  0
   22.4700   13.9820   13.9590 N   0  0  0  0  0  0
   23.9010   13.8540   13.7470 C   0  0  2  0  0  0
   24.3750   15.0720   12.9650 C   0  0  0  0  0  0
   23.6550   15.5910   12.1090 O   0  0  0  0  0  0
   24.2080   12.5760   12.9650 C   0  0  0  0  0  0
   23.7840   11.2660   13.6370 C   0  0  0  0  0  0
   24.0080   10.1030   12.6830 C   0  0  0  0  0  0
   24.5690   11.0690   14.9270 C   0  0  0  0  0  0
   25.5800   15.5680   13.2710 N   0  0  0  0  0  0
   26.0920   16.7350   12.5500 C   0  0  2  0  0  0
   26.5030   16.3520   11.1310 C   0  0  0  0  0  0
   26.5390   15.1720   10.7890 O   0  0  0  0  0  0
   27.2700   17.1790   13.4140 C   0  0  0  0  0  0
   27.7770   15.8880   13.9650 C   0  0  0  0  0  0
   26.5040   15.1610   14.3440 C   0  0  0  0  0  0
   26.8090   17.3470   10.3070 N   0  0  0  0  0  0
   27.2050   17.0840    8.9280 C   0  0  2  0  0  0
   28.5000   16.2860    8.8460 C   0  0  0  0  0  0
   28.6310   15.3820    8.0190 O   0  0  0  0  0  0
   27.3560   18.3980    8.1590 C   0  0  0  0  0  0
   26.0580   19.1750    8.0090 C   0  0  0  0  0  0
   24.9810   18.3820    7.2880 C   0  0  0  0  0  0
   24.5590   17.3200    7.7480 O   0  0  0  0  0  0
   24.5340   18.8950    6.1470 N   0  0  0  0  0  0
   29.4530   16.6230    9.7070 N   0  0  0  0  0  0
   30.7250   15.9250    9.7150 C   0  0  0  0  0  0
   30.7250   14.7270   10.6440 C   0  0  0  0  0  0
   29.7690   13.9550   10.6800 O   0  0  0  0  0  0
   31.8040   14.5720   11.4020 N   0  0  0  0  0  0
   31.9280   13.4560   12.3310 C   0  0  2  0  0  0
   31.3740   13.8370   13.6990 C   0  0  0  0  0  0
   31.6740   14.9140   14.2090 O   0  0  0  0  0  0
   33.4020   13.0650   12.4710 C   0  0  0  0  0  0
   33.6580   11.8440   13.3380 C   0  0  0  0  0  0
   33.1580   10.5640   12.6990 C   0  0  0  0  0  0
   31.9610   10.4000   12.4630 O   0  0  0  0  0  0
   34.0770    9.6480   12.4130 N   0  0  0  0  0  0
   30.5570   12.9640   14.2840 N   0  0  0  0  0  0
   30.0100   13.2320   15.6150 C   0  0  2  0  0  0
   31.2130   13.3090   16.5500 C   0  0  0  0  0  0
   32.0080   12.3700   16.6250 O   0  0  0  0  0  0
   29.0760   12.1010   16.0550 C   0  0  0  0  0  0
   28.5010   12.2170   17.4720 C   0  0  0  0  0  0
   27.7250   13.5210   17.6080 C   0  0  0  0  0  0
   27.5990   11.0270   17.7600 C   0  0  0  0  0  0
   31.3510   14.4220   17.2610 N   0  0  0  0  0  0
   32.4910   14.6040   18.1530 C   0  0  2  0  0  0
   32.3650   13.8480   19.4700 C   0  0  0  0  0  0
   31.4250   14.0590   20.2330 O   0  0  0  0  0  0
   32.7090   16.0910   18.4780 C   0  0  2  0  0  0
   32.5780   16.8660   17.2810 O   0  0  0  0  0  0
   34.1000   16.3080   19.0580 C   0  0  0  0  0  0
   33.3220   12.9650   19.7310 N   0  0  0  0  0  0
   33.3190   12.2000   20.9700 C   0  0  2  0  0  0
   33.8310   13.0790   22.1010 C   0  0  0  0  0  0
   34.2820   14.2020   21.8720 O   0  0  0  0  0  0
   34.2060   10.9640   20.8280 C   0  0  0  0  0  0
   33.7490   12.5760   23.3270 N   0  0  0  0  0  0
   34.2440   13.3250   24.4770 C   0  0  2  0  0  0
   35.7730   13.3160   24.4390 C   0  0  0  0  0  0
   36.3320   12.5330   23.6420 O   0  0  0  0  0  0
   33.7720   12.6770   25.7810 C   0  0  0  0  0  0
   32.3080   12.8750   26.1080 C   0  0  0  0  0  0
   31.3150   12.6250   25.1610 C   0  0  0  0  0  0
   31.9140   13.2640   27.3870 C   0  0  0  0  0  0
   29.9660   12.7540   25.4810 C   0  0  0  0  0  0
   30.5680   13.3960   27.7170 C   0  0  0  0  0  0
   29.6030   13.1380   26.7650 C   0  0  0  0  0  0
   28.2710   13.2470   27.0970 O   0  0  0  0  0  0
   36.3940   14.0750   25.2080 O   0  0  0  0  0  0
   12.1864   14.0994   20.1145 H   0  0  0  0  0  0
   11.1833   14.4582   18.6682 H   0  0  0  0  0  0
   12.2199   15.7395   19.3826 H   0  0  0  0  0  0
   13.1544   13.1678   18.0994 H   0  0  0  0  0  0
   12.2362   14.8785   16.4933 H   0  0  0  0  0  0
   13.3821   16.0891   17.1626 H   0  0  0  0  0  0
   15.2262   14.4109   16.4139 H   0  0  0  0  0  0
   13.6744   12.5352   15.9482 H   0  0  0  0  0  0
   14.5619   13.0438   14.4716 H   0  0  0  0  0  0
   12.8487   13.5320   14.7027 H   0  0  0  0  0  0
   14.7777   16.6439   15.4474 H   0  0  0  0  0  0
   13.4939   15.9341   14.4107 H   0  0  0  0  0  0
   15.2070   15.4459   14.1796 H   0  0  0  0  0  0
   16.7141   14.2920   20.6351 H   0  0  0  0  0  0
   18.4087   12.3289   19.8720 H   0  0  0  0  0  0
   16.9228   11.9032   20.7871 H   0  0  0  0  0  0
   17.3483   11.9171   17.7421 H   0  0  0  0  0  0
   16.7946   10.5468   18.7631 H   0  0  0  0  0  0
   14.6508   11.6328   19.2431 H   0  0  0  0  0  0
   14.9178   12.1695   17.5498 H   0  0  0  0  0  0
   19.0863   14.7558   20.3801 H   0  0  0  0  0  0
   19.2178   16.7331   18.2820 H   0  0  0  0  0  0
   20.6963   16.6035   20.3612 H   0  0  0  0  0  0
   21.6324   15.3051   19.5460 H   0  0  0  0  0  0
   21.8936   17.0785   17.6170 H   0  0  0  0  0  0
   21.4726   18.2590   18.9037 H   0  0  0  0  0  0
   25.2347   17.8332   18.7638 H   0  0  0  0  0  0
   20.1180   13.9123   14.8961 H   0  0  0  0  0  0
   20.5775   16.5763   13.4835 H   0  0  0  0  0  0
   19.5519   15.1961   12.9639 H   0  0  0  0  0  0
   18.3265   17.3248   13.9187 H   0  0  0  0  0  0
   17.8452   15.7157   14.5557 H   0  0  0  0  0  0
   18.4641   16.9334   16.6182 H   0  0  0  0  0  0
   19.8718   17.7064   15.8136 H   0  0  0  0  0  0
   21.7740   13.3122   13.4328 H   0  0  0  0  0  0
   24.3771   13.8042   14.7374 H   0  0  0  0  0  0
   23.6897   12.6061   11.9952 H   0  0  0  0  0  0
   25.2927   12.4995   12.7988 H   0  0  0  0  0  0
   22.7137   11.3033   13.8880 H   0  0  0  0  0  0
   23.4315   10.2689   11.7610 H   0  0  0  0  0  0
   23.6765    9.1687   13.1597 H   0  0  0  0  0  0
   25.0780   10.0303   12.4384 H   0  0  0  0  0  0
   24.3905   11.9216   15.5987 H   0  0  0  0  0  0
   25.6425   11.0023   14.6964 H   0  0  0  0  0  0
   24.2410   10.1407   15.4177 H   0  0  0  0  0  0
   25.3290   17.5186   12.4324 H   0  0  0  0  0  0
   28.0118   17.6941   12.7859 H   0  0  0  0  0  0
   26.9129   17.8646   14.1966 H   0  0  0  0  0  0
   28.3527   15.3597   13.1907 H   0  0  0  0  0  0
   28.4250   16.0882   14.8310 H   0  0  0  0  0  0
   26.1006   15.4808   15.3161 H   0  0  0  0  0  0
   26.6163   14.0668   14.3357 H   0  0  0  0  0  0
   26.7606   18.3816   10.6776 H   0  0  0  0  0  0
   26.3859   16.4763    8.5161 H   0  0  0  0  0  0
   28.0679   19.0510    8.6851 H   0  0  0  0  0  0
   27.7299   18.1890    7.1458 H   0  0  0  0  0  0
   25.6722   19.4401    9.0044 H   0  0  0  0  0  0
   26.2445   20.0926    7.4318 H   0  0  0  0  0  0
   24.9410   19.8469    5.7752 H   0  0  0  0  0  0
   23.7569   18.3679    5.5740 H   0  0  0  0  0  0
   29.2700   17.4410   10.4193 H   0  0  0  0  0  0
   30.9528   15.5663    8.7004 H   0  0  0  0  0  0
   31.5177   16.6112   10.0478 H   0  0  0  0  0  0
   32.6155   15.3098   11.3171 H   0  0  0  0  0  0
   31.3366   12.6343   11.9008 H   0  0  0  0  0  0
   33.8179   12.8410   11.4776 H   0  0  0  0  0  0
   33.9609   13.8976   12.9232 H   0  0  0  0  0  0
   34.7391   11.7368   13.5103 H   0  0  0  0  0  0
   33.1432   11.9647   14.3026 H   0  0  0  0  0  0
   35.1354    9.8403   12.6429 H   0  0  0  0  0  0
   33.7794    8.6974   11.9464 H   0  0  0  0  0  0
   30.2938   12.0344   13.7581 H   0  0  0  0  0  0
   29.4325   14.1677   15.5839 H   0  0  0  0  0  0
   28.2109   12.0553   15.3772 H   0  0  0  0  0  0
   29.6180   11.1443   16.0227 H   0  0  0  0  0  0
   29.3185   12.2185   18.2080 H   0  0  0  0  0  0
   28.3930   14.3689   17.3963 H   0  0  0  0  0  0
   27.3333   13.6095   18.6321 H   0  0  0  0  0  0
   26.8884   13.5260   16.8938 H   0  0  0  0  0  0
   28.1760   10.0962   17.6570 H   0  0  0  0  0  0
   26.7618   11.0203   17.0465 H   0  0  0  0  0  0
   27.2067   11.1038   18.7848 H   0  0  0  0  0  0
   30.5915   15.2126   17.1708 H   0  0  0  0  0  0
   33.3140   14.1729   17.5640 H   0  0  0  0  0  0
   31.9394   16.4566   19.1737 H   0  0  0  0  0  0
   31.6374   16.8430   16.7111 H   0  0  0  0  0  0
   34.2098   15.7160   19.9786 H   0  0  0  0  0  0
   34.2386   17.3745   19.2891 H   0  0  0  0  0  0
   34.8564   15.9903   18.3253 H   0  0  0  0  0  0
   34.1252   12.8157   18.9944 H   0  0  0  0  0  0
   32.2780   11.8970   21.1556 H   0  0  0  0  0  0
   33.8290   10.3343   20.0086 H   0  0  0  0  0  0
   34.1904   10.3917   21.7672 H   0  0  0  0  0  0
   35.2371   11.2762   20.6059 H   0  0  0  0  0  0
   33.3010   11.5815   23.4698 H   0  0  0  0  0  0
   33.8369   14.3434   24.3930 H   0  0  0  0  0  0
   37.4299   12.4971   23.5852 H   0  0  0  0  0  0
   33.9367   11.5905   25.7311 H   0  0  0  0  0  0
   34.3399   13.0955   26.6250 H   0  0  0  0  0  0
   31.5999   12.3234   24.1530 H   0  0  0  0  0  0
   32.6730   13.4685   28.1421 H   0  0  0  0  0  0
   29.2015   12.5552   24.7299 H   0  0  0  0  0  0
   30.2779   13.7016   28.7223 H   0  0  0  0  0  0
   27.4975   13.0425   26.3421 H   0  0  0  0  0  0
  1  2  1  0  0  0
  1102  1  0  0  0
  1103  1  0  0  0
  1104  1  0  0  0
  2  3  1  0  0  0
  2  5  1  0  0  0
  2105  1  0  0  0
  3  4  2  0  0  0
  3  9  1  0  0  0
  5  6  1  0  0  0
  5106  1  0  0  0
  5107  1  0  0  0
  6  7  1  0  0  0
  6  8  1  0  0  0
  6108  1  0  0  0
  7109  1  0  0  0
  7110  1  0  0  0
  7111  1  0  0  0
  8112  1  0  0  0
  8113  1  0  0  0
  8114  1  0  0  0
  9 10  1  0  0  0
  9 15  1  0  0  0
 10 11  1  0  0  0
 10 13  1  0  0  0
 10115  1  0  0  0
 11 12  2  0  0  0
 11 16  1  0  0  0
 13 14  1  0  0  0
 13116  1  0  0  0
 13117  1  0  0  0
 14 15  1  0  0  0
 14118  1  0  0  0
 14119  1  0  0  0
 15120  1  0  0  0
 15121  1  0  0  0
 16 17  1  0  0  0
 16122  1  0  0  0
 17 18  1  0  0  0
 17 20  1  0  0  0
 17123  1  0  0  0
 18 19  2  0  0  0
 18 25  1  0  0  0
 20 21  1  0  0  0
 20124  1  0  0  0
 20125  1  0  0  0
 21 22  1  0  0  0
 21126  1  0  0  0
 21127  1  0  0  0
 22 23  2  0  0  0
 22 24  1  0  0  0
 24128  1  0  0  0
 25 26  1  0  0  0
 25 31  1  0  0  0
 26 27  1  0  0  0
 26 29  1  0  0  0
 26129  1  0  0  0
 27 28  2  0  0  0
 27 32  1  0  0  0
 29 30  1  0  0  0
 29130  1  0  0  0
 29131  1  0  0  0
 30 31  1  0  0  0
 30132  1  0  0  0
 30133  1  0  0  0
 31134  1  0  0  0
 31135  1  0  0  0
 32 33  1  0  0  0
 32136  1  0  0  0
 33 34  1  0  0  0
 33 36  1  0  0  0
 33137  1  0  0  0
 34 35  2  0  0  0
 34 40  1  0  0  0
 36 37  1  0  0  0
 36138  1  0  0  0
 36139  1  0  0  0
 37 38  1  0  0  0
 37 39  1  0  0  0
 37140  1  0  0  0
 38141  1  0  0  0
 38142  1  0  0  0
 38143  1  0  0  0
 39144  1  0  0  0
 39145  1  0  0  0
 39146  1  0  0  0
 40 41  1  0  0  0
 40 46  1  0  0  0
 41 42  1  0  0  0
 41 44  1  0  0  0
 41147  1  0  0  0
 42 43  2  0  0  0
 42 47  1  0  0  0
 44 45  1  0  0  0
 44148  1  0  0  0
 44149  1  0  0  0
 45 46  1  0  0  0
 45150  1  0  0  0
 45151  1  0  0  0
 46152  1  0  0  0
 46153  1  0  0  0
 47 48  1  0  0  0
 47154  1  0  0  0
 48 49  1  0  0  0
 48 51  1  0  0  0
 48155  1  0  0  0
 49 50  2  0  0  0
 49 56  1  0  0  0
 51 52  1  0  0  0
 51156  1  0  0  0
 51157  1  0  0  0
 52 53  1  0  0  0
 52158  1  0  0  0
 52159  1  0  0  0
 53 54  2  0  0  0
 53 55  1  0  0  0
 55160  1  0  0  0
 55161  1  0  0  0
 56 57  1  0  0  0
 56162  1  0  0  0
 57 58  1  0  0  0
 57163  1  0  0  0
 57164  1  0  0  0
 58 59  2  0  0  0
 58 60  1  0  0  0
 60 61  1  0  0  0
 60165  1  0  0  0
 61 62  1  0  0  0
 61 64  1  0  0  0
 61166  1  0  0  0
 62 63  2  0  0  0
 62 69  1  0  0  0
 64 65  1  0  0  0
 64167  1  0  0  0
 64168  1  0  0  0
 65 66  1  0  0  0
 65169  1  0  0  0
 65170  1  0  0  0
 66 67  2  0  0  0
 66 68  1  0  0  0
 68171  1  0  0  0
 68172  1  0  0  0
 69 70  1  0  0  0
 69173  1  0  0  0
 70 71  1  0  0  0
 70 73  1  0  0  0
 70174  1  0  0  0
 71 72  2  0  0  0
 71 77  1  0  0  0
 73 74  1  0  0  0
 73175  1  0  0  0
 73176  1  0  0  0
 74 75  1  0  0  0
 74 76  1  0  0  0
 74177  1  0  0  0
 75178  1  0  0  0
 75179  1  0  0  0
 75180  1  0  0  0
 76181  1  0  0  0
 76182  1  0  0  0
 76183  1  0  0  0
 77 78  1  0  0  0
 77184  1  0  0  0
 78 79  1  0  0  0
 78 81  1  0  0  0
 78185  1  0  0  0
 79 80  2  0  0  0
 79 84  1  0  0  0
 81 82  1  0  0  0
 81 83  1  0  0  0
 81186  1  0  0  0
 82187  1  0  0  0
 83188  1  0  0  0
 83189  1  0  0  0
 83190  1  0  0  0
 84 85  1  0  0  0
 84191  1  0  0  0
 85 86  1  0  0  0
 85 88  1  0  0  0
 85192  1  0  0  0
 86 87  2  0  0  0
 86 89  1  0  0  0
 88193  1  0  0  0
 88194  1  0  0  0
 88195  1  0  0  0
 89 90  1  0  0  0
 89196  1  0  0  0
 90 91  1  0  0  0
 90 93  1  0  0  0
 90197  1  0  0  0
 91 92  1  0  0  0
 91101  2  0  0  0
 92198  1  0  0  0
 93 94  1  0  0  0
 93199  1  0  0  0
 93200  1  0  0  0
 94 95  2  0  0  0
 94 96  1  0  0  0
 95 97  1  0  0  0
 95201  1  0  0  0
 96 98  2  0  0  0
 96202  1  0  0  0
 97 99  2  0  0  0
 97203  1  0  0  0
 98 99  1  0  0  0
 98204  1  0  0  0
 99100  1  0  0  0
100205  1  0  0  0
M  CHG  1   1   1
M  END
> <s_m_source_file>
../1zhl_ligand.sdf

> <i_m_source_file_index>
1

> <s_epik_input>
W0NIM11bQ0hdKFtDSDNdKVtDSDJdW0NASF0oW05IMytdKUMoPU8pTjFbQ0BASF0oW0NIMl1bQ0gyXVtDSDJdMSlDKD1PKVtOSF1bQ0BASF0oW0NIMl1bQ0gyXUMoPU8pW09IXSlDKD1PKU4yW0NAQEhdKFtDSDJdW0NIMl1bQ0gyXTIpQyg9TylbTkhdW0NAQEhdKFtDSDJdW0NIXShbQ0gzXSlbQ0gzXSlDKD1PKU4zW0NAQEhdKFtDSDJdW0NIMl1bQ0gyXTMpQyg9TylbTkhdW0NAQEhdKFtDSDJdW0NIMl1DKD1PKVtOSDJdKUMoPU8pW05IXVtDSDJdQyg9TylbTkhdW0NAQEhdKFtDSDJdW0NIMl1DKD1PKVtOSDJdKUMoPU8pW05IXVtDQEBIXShbQ0gyXVtDSF0oW0NIM10pW0NIM10pQyg9TylbTkhdW0NAQEhdKFtDQEhdKFtPSF0pW0NIM10pQyg9TylbTkhdW0NAQEhdKFtDSDNdKUMoPU8pW05IXVtDQEhdKEMoPU8pW09IXSlbQ0gyXWM0W2NIXVtjSF1jKFtPSF0pW2NIXVtjSF00

> <s_epik_cmdline>
J2VwaWtfYXBwJywgJy1pbWFlJywgJ2xpZ2FuZF9wcm8ubWFlJywgJy1vbWFlJywgJ2xpZ2FuZF9wcmVwLm1hZScsICctbXMnLCAnMScsICctcGgnLCAnNycsICctcGh0JywgJzAuNScsICctbnQn

> <s_epik_pKa_notes>
Molecule size exceeds maximum supported for generating protonation states

$$$$
