1zkk_ligand
                    3D
 Schrodinger Suite 2020-3.
156156  0  0  1  0            999 V2000
    5.8857   -6.0391   -3.4836 O   0  0  0  0  0  0
   -9.0330   11.6900   -6.8120 N   0  3  0  0  0  0
   -9.3070   11.4260   -8.2520 C   0  0  2  0  0  0
   -8.1350   10.6880   -8.9010 C   0  0  0  0  0  0
   -8.2700   10.1280   -9.9870 O   0  0  0  0  0  0
   -9.5880   12.7280   -8.9830 C   0  0  0  0  0  0
   -6.9900   10.7020   -8.2230 N   0  0  0  0  0  0
   -5.7640   10.0860   -8.7240 C   0  0  2  0  0  0
   -5.4740    8.7780   -8.0130 C   0  0  0  0  0  0
   -5.7050    8.6550   -6.7960 O   0  0  0  0  0  0
   -4.5830   11.0160   -8.4870 C   0  0  0  0  0  0
   -4.6330   12.3320   -9.2540 C   0  0  0  0  0  0
   -3.5390   13.2770   -8.7880 C   0  0  0  0  0  0
   -2.2340   12.6200   -8.7670 N   0  0  0  0  0  0
   -1.4290   12.4750   -9.8150 C   0  0  0  0  0  0
   -1.7640   12.9530  -11.0150 N   0  0  0  0  0  0
   -0.2760   11.8400   -9.6580 N   0  0  0  0  0  0
   -4.9330    7.8110   -8.7530 N   0  0  0  0  0  0
   -4.4240    6.5720   -8.1550 C   0  0  2  0  0  0
   -2.9010    6.6190   -8.1470 C   0  0  0  0  0  0
   -2.2950    7.5490   -8.7010 O   0  0  0  0  0  0
   -4.8950    5.3280   -8.9280 C   0  0  0  0  0  0
   -4.2780    5.2060  -10.2850 C   0  0  0  0  0  0
   -3.0380    4.6370  -10.4910 N   0  0  0  0  0  0
   -4.7080    5.6260  -11.4980 C   0  0  0  0  0  0
   -2.7350    4.7080  -11.7780 C   0  0  0  0  0  0
   -3.7370    5.2970  -12.4090 N   0  0  0  0  0  0
   -2.2870    5.6230   -7.5100 N   0  0  0  0  0  0
   -0.8340    5.4920   -7.4840 C   0  0  2  0  0  0
   -0.4080    4.2050   -8.1650 C   0  0  0  0  0  0
   -1.2410    3.3650   -8.5250 O   0  0  0  0  0  0
   -0.3160    5.4880   -6.0370 C   0  0  0  0  0  0
   -0.3570    6.8480   -5.3690 C   0  0  0  0  0  0
   -0.1380    6.7230   -3.8640 C   0  0  0  0  0  0
   -0.3870    8.0090   -3.2050 N   0  0  0  0  0  0
   -1.0150    8.1570   -2.0390 C   0  0  0  0  0  0
   -1.4760    7.1020   -1.3760 N   0  0  0  0  0  0
   -1.1820    9.3730   -1.5350 N   0  0  0  0  0  0
    0.9030    4.0590   -8.3370 N   0  0  0  0  0  0
    1.5360    2.7750   -8.5750 C   0  0  2  0  0  0
    2.3530    2.5270   -7.2950 C   0  0  0  0  0  0
    2.9940    3.4600   -6.7730 O   0  0  0  0  0  0
    2.4090    2.8330   -9.8300 C   0  0  0  0  0  0
    1.6160    3.1280  -11.1070 C   0  0  0  0  0  0
    2.5280    3.5170  -12.2810 C   0  0  0  0  0  0
    1.6710    3.8770  -13.4750 C   0  0  0  0  0  0
    2.4940    4.2380  -14.6660 N   0  3  0  0  0  0
    2.2810    1.3110   -6.7570 N   0  0  0  0  0  0
    2.7920    1.0100   -5.3970 C   0  0  2  0  0  0
    3.4590   -0.3520   -5.4150 C   0  0  0  0  0  0
    2.8270   -1.3270   -5.8050 O   0  0  0  0  0  0
    1.6080    0.9460   -4.3590 C   0  0  0  0  0  0
    2.0530    0.3630   -3.0080 C   0  0  0  0  0  0
    0.9690    2.3040   -4.1710 C   0  0  0  0  0  0
    4.7270   -0.4410   -5.0100 N   0  0  0  0  0  0
    5.3840   -1.7490   -4.9490 C   0  0  2  0  0  0
    4.8620   -2.5520   -3.7640 C   0  0  0  0  0  0
    4.8130   -2.0280   -2.6650 O   0  0  0  0  0  0
    6.9090   -1.5970   -4.8520 C   0  0  0  0  0  0
    7.7460   -2.8720   -5.0000 C   0  0  0  0  0  0
    7.4840   -3.5310   -6.3510 C   0  0  0  0  0  0
    9.2170   -2.5620   -4.8580 C   0  0  0  0  0  0
    4.4960   -3.8150   -4.0090 N   0  0  0  0  0  0
    3.9460   -4.7000   -2.9750 C   0  0  2  0  0  0
    4.7810   -5.9760   -2.8810 C   0  0  0  0  0  0
    4.3900   -6.9500   -2.2220 O   0  0  0  0  0  0
    2.4780   -5.0570   -3.2720 C   0  0  0  0  0  0
    1.5070   -3.8700   -3.2940 C   0  0  0  0  0  0
    0.0900   -4.3580   -3.5530 C   0  0  0  0  0  0
   -0.4970   -4.9200   -2.3370 N   0  0  0  0  0  0
   -1.4120   -4.3060   -1.5910 C   0  0  0  0  0  0
   -1.9030   -3.1200   -1.9420 N   0  0  0  0  0  0
   -1.8690   -4.9050   -0.4950 N   0  0  0  0  0  0
    6.4943   -6.9533   -3.4221 H   0  0  0  0  0  0
   -9.8879   12.2205   -6.3673 H   0  0  0  0  0  0
   -8.1285   12.3089   -6.7184 H   0  0  0  0  0  0
   -8.8802   10.7356   -6.2869 H   0  0  0  0  0  0
  -10.2028   10.7893   -8.2981 H   0  0  0  0  0  0
  -10.4326   13.2434   -8.5024 H   0  0  0  0  0  0
   -9.8389   12.5127  -10.0321 H   0  0  0  0  0  0
   -8.6960   13.3705   -8.9437 H   0  0  0  0  0  0
   -6.9926   11.2057   -7.2451 H   0  0  0  0  0  0
   -5.9450    9.9101   -9.7947 H   0  0  0  0  0  0
   -4.5297   11.2762   -7.4196 H   0  0  0  0  0  0
   -3.6530   10.5118   -8.7883 H   0  0  0  0  0  0
   -4.4955   12.1361  -10.3276 H   0  0  0  0  0  0
   -5.6081   12.8144   -9.0913 H   0  0  0  0  0  0
   -3.4833   14.1382   -9.4701 H   0  0  0  0  0  0
   -3.7670   13.6289   -7.7711 H   0  0  0  0  0  0
   -1.8466   12.1963   -7.8287 H   0  0  0  0  0  0
   -2.7198   13.4805  -11.1496 H   0  0  0  0  0  0
   -1.0843   12.8195  -11.8695 H   0  0  0  0  0  0
    0.0040   11.4444   -8.6705 H   0  0  0  0  0  0
   -4.8738    7.9613   -9.8411 H   0  0  0  0  0  0
   -4.8309    6.5405   -7.1335 H   0  0  0  0  0  0
   -4.6312    4.4227   -8.3616 H   0  0  0  0  0  0
   -5.9859    5.3713   -9.0628 H   0  0  0  0  0  0
   -5.6231    6.1381  -11.8303 H   0  0  0  0  0  0
   -1.8168    4.3434  -12.2386 H   0  0  0  0  0  0
   -2.9152    4.8837   -6.9916 H   0  0  0  0  0  0
   -0.4524    6.3618   -8.0388 H   0  0  0  0  0  0
   -0.9304    4.8072   -5.4295 H   0  0  0  0  0  0
    0.7303    5.1487   -6.0230 H   0  0  0  0  0  0
    0.4337    7.4869   -5.7893 H   0  0  0  0  0  0
   -1.3376    7.3140   -5.5459 H   0  0  0  0  0  0
   -0.8276    5.9702   -3.4544 H   0  0  0  0  0  0
    0.8996    6.4145   -3.6688 H   0  0  0  0  0  0
   -0.0461    8.9431   -3.6753 H   0  0  0  0  0  0
   -1.3408    6.0912   -1.7883 H   0  0  0  0  0  0
   -1.9929    7.2393   -0.4147 H   0  0  0  0  0  0
   -0.8027   10.2507   -2.0789 H   0  0  0  0  0  0
    1.5133    4.9731   -8.2917 H   0  0  0  0  0  0
    0.7828    1.9955   -8.7624 H   0  0  0  0  0  0
    3.1616    3.6272   -9.7167 H   0  0  0  0  0  0
    2.9145    1.8661   -9.9701 H   0  0  0  0  0  0
    1.0460    2.2338  -11.3994 H   0  0  0  0  0  0
    0.9219    3.9614  -10.9233 H   0  0  0  0  0  0
    3.1457    4.3810  -11.9948 H   0  0  0  0  0  0
    3.1800    2.6684  -12.5357 H   0  0  0  0  0  0
    1.0370    3.0191  -13.7432 H   0  0  0  0  0  0
    1.0350    4.7385  -13.2234 H   0  0  0  0  0  0
    1.8312    4.4914  -15.5065 H   0  0  0  0  0  0
    3.1297    3.3847  -14.9447 H   0  0  0  0  0  0
    3.1278    5.1041  -14.4248 H   0  0  0  0  0  0
    1.8217    0.5144   -7.3607 H   0  0  0  0  0  0
    3.5162    1.8026   -5.1575 H   0  0  0  0  0  0
    0.8251    0.2825   -4.7552 H   0  0  0  0  0  0
    2.5141   -0.6228   -3.1681 H   0  0  0  0  0  0
    1.1788    0.2563   -2.3489 H   0  0  0  0  0  0
    2.7846    1.0384   -2.5403 H   0  0  0  0  0  0
    0.6588    2.7017   -5.1485 H   0  0  0  0  0  0
    1.6947    2.9899   -3.7096 H   0  0  0  0  0  0
    0.0889    2.2079   -3.5182 H   0  0  0  0  0  0
    5.2791    0.4658   -4.7221 H   0  0  0  0  0  0
    5.1177   -2.2547   -5.8888 H   0  0  0  0  0  0
    7.2609   -0.9189   -5.6434 H   0  0  0  0  0  0
    7.1743   -1.1818   -3.8685 H   0  0  0  0  0  0
    7.4651   -3.5713   -4.1987 H   0  0  0  0  0  0
    6.4113   -3.7542   -6.4482 H   0  0  0  0  0  0
    8.0607   -4.4651   -6.4213 H   0  0  0  0  0  0
    7.7912   -2.8488   -7.1574 H   0  0  0  0  0  0
    9.3992   -2.0874   -3.8825 H   0  0  0  0  0  0
    9.5269   -1.8783   -5.6621 H   0  0  0  0  0  0
    9.7964   -3.4945   -4.9260 H   0  0  0  0  0  0
    4.6224   -4.1833   -5.0378 H   0  0  0  0  0  0
    4.0091   -4.1317   -2.0353 H   0  0  0  0  0  0
    2.4096   -5.5349   -4.2604 H   0  0  0  0  0  0
    2.1064   -5.7503   -2.5031 H   0  0  0  0  0  0
    1.5387   -3.3524   -2.3239 H   0  0  0  0  0  0
    1.7996   -3.1716   -4.0919 H   0  0  0  0  0  0
   -0.5320   -3.5157   -3.8900 H   0  0  0  0  0  0
    0.1064   -5.1358   -4.3306 H   0  0  0  0  0  0
   -0.1857   -5.9145   -1.9848 H   0  0  0  0  0  0
   -1.5313   -2.6168   -2.8468 H   0  0  0  0  0  0
   -2.6805   -2.6429   -1.3274 H   0  0  0  0  0  0
   -1.4693   -5.8855   -0.1968 H   0  0  0  0  0  0
  1 65  1  0  0  0
  1 74  1  0  0  0
  2  3  1  0  0  0
  2 75  1  0  0  0
  2 76  1  0  0  0
  2 77  1  0  0  0
  3  6  1  0  0  0
  3  4  1  0  0  0
  3 78  1  0  0  0
  4  5  2  0  0  0
  4  7  1  0  0  0
  6 79  1  0  0  0
  6 80  1  0  0  0
  6 81  1  0  0  0
  7  8  1  0  0  0
  7 82  1  0  0  0
  8 11  1  0  0  0
  8  9  1  0  0  0
  8 83  1  0  0  0
  9 10  2  0  0  0
  9 18  1  0  0  0
 11 12  1  0  0  0
 11 84  1  0  0  0
 11 85  1  0  0  0
 12 13  1  0  0  0
 12 86  1  0  0  0
 12 87  1  0  0  0
 13 14  1  0  0  0
 13 88  1  0  0  0
 13 89  1  0  0  0
 14 15  1  0  0  0
 14 90  1  0  0  0
 15 17  2  0  0  0
 15 16  1  0  0  0
 16 91  1  0  0  0
 16 92  1  0  0  0
 17 93  1  0  0  0
 18 19  1  0  0  0
 18 94  1  0  0  0
 19 22  1  0  0  0
 19 20  1  0  0  0
 19 95  1  0  0  0
 20 21  2  0  0  0
 20 28  1  0  0  0
 22 23  1  0  0  0
 22 96  1  0  0  0
 22 97  1  0  0  0
 23 24  2  0  0  0
 23 25  1  0  0  0
 24 26  1  0  0  0
 25 27  2  0  0  0
 25 98  1  0  0  0
 26 27  1  0  0  0
 26 99  1  0  0  0
 28 29  1  0  0  0
 28100  1  0  0  0
 29 32  1  0  0  0
 29 30  1  0  0  0
 29101  1  0  0  0
 30 31  2  0  0  0
 30 39  1  0  0  0
 32 33  1  0  0  0
 32102  1  0  0  0
 32103  1  0  0  0
 33 34  1  0  0  0
 33104  1  0  0  0
 33105  1  0  0  0
 34 35  1  0  0  0
 34106  1  0  0  0
 34107  1  0  0  0
 35 36  1  0  0  0
 35108  1  0  0  0
 36 38  2  0  0  0
 36 37  1  0  0  0
 37109  1  0  0  0
 37110  1  0  0  0
 38111  1  0  0  0
 39 40  1  0  0  0
 39112  1  0  0  0
 40 43  1  0  0  0
 40 41  1  0  0  0
 40113  1  0  0  0
 41 42  2  0  0  0
 41 48  1  0  0  0
 43 44  1  0  0  0
 43114  1  0  0  0
 43115  1  0  0  0
 44 45  1  0  0  0
 44116  1  0  0  0
 44117  1  0  0  0
 45 46  1  0  0  0
 45118  1  0  0  0
 45119  1  0  0  0
 46 47  1  0  0  0
 46120  1  0  0  0
 46121  1  0  0  0
 47122  1  0  0  0
 47123  1  0  0  0
 47124  1  0  0  0
 48 49  1  0  0  0
 48125  1  0  0  0
 49 52  1  0  0  0
 49 50  1  0  0  0
 49126  1  0  0  0
 50 51  2  0  0  0
 50 55  1  0  0  0
 52 54  1  0  0  0
 52 53  1  0  0  0
 52127  1  0  0  0
 53128  1  0  0  0
 53129  1  0  0  0
 53130  1  0  0  0
 54131  1  0  0  0
 54132  1  0  0  0
 54133  1  0  0  0
 55 56  1  0  0  0
 55134  1  0  0  0
 56 59  1  0  0  0
 56 57  1  0  0  0
 56135  1  0  0  0
 57 58  2  0  0  0
 57 63  1  0  0  0
 59 60  1  0  0  0
 59136  1  0  0  0
 59137  1  0  0  0
 60 61  1  0  0  0
 60 62  1  0  0  0
 60138  1  0  0  0
 61139  1  0  0  0
 61140  1  0  0  0
 61141  1  0  0  0
 62142  1  0  0  0
 62143  1  0  0  0
 62144  1  0  0  0
 63 64  1  0  0  0
 63145  1  0  0  0
 64 67  1  0  0  0
 64 65  1  0  0  0
 64146  1  0  0  0
 65 66  2  0  0  0
 67 68  1  0  0  0
 67147  1  0  0  0
 67148  1  0  0  0
 68 69  1  0  0  0
 68149  1  0  0  0
 68150  1  0  0  0
 69 70  1  0  0  0
 69151  1  0  0  0
 69152  1  0  0  0
 70 71  1  0  0  0
 70153  1  0  0  0
 71 73  2  0  0  0
 71 72  1  0  0  0
 72154  1  0  0  0
 72155  1  0  0  0
 73156  1  0  0  0
M  CHG  2   2   1  47   1
M  END
> <s_m_source_file>
../1zkk_ligand.sdf

> <i_m_source_file_index>
1

> <s_epik_input>
W0hdL049QyhbTkgyXSlcW05IXVtDSDJdW0NIMl1bQ0gyXVtDQEBIXShDKD1PKVtPSF0pW05IXUMoPU8pW0NASF0oW0NIMl1bQ0hdKFtDSDNdKVtDSDNdKVtOSF1DKD1PKVtDQEhdKFtDSF0oW0NIM10pW0NIM10pW05IXUMoPU8pW0NASF0oW0NIMl1bQ0gyXVtDSDJdW0NIMl1bTkgzK10pW05IXUMoPU8pW0NASF0oW0NIMl1bQ0gyXVtDSDJdW05IXS9DKFtOSDJdKT1OXFtIXSlbTkhdQyg9TylbQ0BIXShbQ0gyXUMxPU5bQ0gyXU49W0NIXTEpW05IXUMoPU8pW0NAQEhdKFtOSF1DKD1PKVtDQEBIXShbTkgzK10pW0NIM10pW0NIMl1bQ0gyXVtDSDJdW05IXS9DKFtOSDJdKT1OXFtIXQ==

> <s_epik_cmdline>
J2VwaWtfYXBwJywgJy1pbWFlJywgJ2xpZ2FuZF9wcm8ubWFlJywgJy1vbWFlJywgJ2xpZ2FuZF9wcmVwLm1hZScsICctbXMnLCAnMScsICctcGgnLCAnNycsICctcGh0JywgJzAuNScsICctbnQn

> <s_epik_pKa_notes>
Molecule size exceeds maximum supported for generating protonation states

> <s_epik_Chemistry_Notes>
This compound has an imine and may undergo hydrolysis.

$$$$
