1zkl_ligand
                    3D
 Schrodinger Suite 2020-3.
 30 31  0  0  1  0            999 V2000
   -1.6860   49.7990   22.7020 N   0  0  0  0  0  0
   -1.1130   48.7300   22.0570 C   0  0  0  0  0  0
    0.0490   49.0030   21.5150 N   0  3  0  0  0  0
    0.2530   50.3400   21.8250 C   0  0  0  0  0  0
   -0.8030   50.8420   22.5540 C   0  0  0  0  0  0
   -0.9480   52.1000   23.0310 N   0  0  0  0  0  0
    0.0880   52.9400   22.7390 C   0  0  0  0  0  0
    1.2000   52.5190   22.0070 N   0  0  0  0  0  0
    1.2860   51.2260   21.5500 C   0  0  0  0  0  0
    2.2630   50.8540   20.9150 O   0  0  0  0  0  0
    0.0450   54.0970   23.1420 O   0  0  0  0  0  0
    2.2750   53.4590   21.7170 C   0  0  0  0  0  0
   -2.1040   52.5110   23.8150 C   0  0  0  0  0  0
   -3.2030   53.0680   22.8920 C   0  0  0  0  0  0
   -2.8950   54.4580   22.3710 C   0  0  0  0  0  0
   -3.6230   52.1270   21.7670 C   0  0  0  0  0  0
   -1.6313   47.7601   22.0326 H   0  0  0  0  0  0
    2.0353   54.4376   22.1584 H   0  0  0  0  0  0
    2.3853   53.5652   20.6277 H   0  0  0  0  0  0
    3.2158   53.0838   22.1460 H   0  0  0  0  0  0
   -2.5009   51.6448   24.3647 H   0  0  0  0  0  0
   -1.8039   53.2922   24.5289 H   0  0  0  0  0  0
   -4.0870   53.1647   23.5395 H   0  0  0  0  0  0
   -2.5968   55.1058   23.2086 H   0  0  0  0  0  0
   -3.7902   54.8745   21.8860 H   0  0  0  0  0  0
   -2.0745   54.4023   21.6404 H   0  0  0  0  0  0
   -3.8375   51.1314   22.1826 H   0  0  0  0  0  0
   -2.8093   52.0495   21.0309 H   0  0  0  0  0  0
   -4.5250   52.5217   21.2764 H   0  0  0  0  0  0
    0.5998   48.2211   20.9717 H   0  0  0  0  0  0
  1  2  2  0  0  0
  1  5  1  0  0  0
  2  3  1  0  0  0
  2 17  1  0  0  0
  3  4  1  0  0  0
  3 30  1  0  0  0
  4  5  2  0  0  0
  4  9  1  0  0  0
  5  6  1  0  0  0
  6  7  1  0  0  0
  6 13  1  0  0  0
  7  8  1  0  0  0
  7 11  2  0  0  0
  8  9  1  0  0  0
  8 12  1  0  0  0
  9 10  2  0  0  0
 12 18  1  0  0  0
 12 19  1  0  0  0
 12 20  1  0  0  0
 13 14  1  0  0  0
 13 21  1  0  0  0
 13 22  1  0  0  0
 14 15  1  0  0  0
 14 16  1  0  0  0
 14 23  1  0  0  0
 15 24  1  0  0  0
 15 25  1  0  0  0
 15 26  1  0  0  0
 16 27  1  0  0  0
 16 28  1  0  0  0
 16 29  1  0  0  0
M  CHG  1   3   1
M  END
> <s_m_source_file>
../1zkl_ligand.sdf

> <i_m_source_file_index>
1

> <s_epik_input>
W25IXTFbY0hdbmMoYzEyKW4oYyg9TyluKGMyPU8pW0NIM10pW0NIMl1bQ0hdKFtDSDNdKVtDSDNd

> <s_epik_cmdline>
J2VwaWtfYXBwJywgJy1pbWFlJywgJ2xpZ2FuZF9wcm8ubWFlJywgJy1vbWFlJywgJ2xpZ2FuZF9wcmVwLm1hZScsICctbXMnLCAnMScsICctcGgnLCAnNycsICctcGh0JywgJzAuNScsICctbnQn

> <r_lp_tautomer_probability>
1

> <r_epik_Ionization_Penalty>
  0.0000

> <r_epik_Ionization_Penalty_Charging>
  0.0000

> <r_epik_Ionization_Penalty_Neutral>
  0.0000

> <r_epik_State_Penalty>
 -0.0000

> <r_epik_Charging_Adjusted_Penalty>
2.54524996633124e-08

> <i_epik_Tot_Q>
1

> <i_epik_Tot_abs_Q>
1

> <s_epik_Chemistry_Notes>
This compound has an imine and may undergo hydrolysis.

$$$$
