1zkn_ligand
                    3D
 Schrodinger Suite 2020-3.
 30 31  0  0  1  0            999 V2000
   20.9370   -3.8190   29.4810 N   0  0  0  0  0  0
   20.8000   -2.8970   30.4910 C   0  0  0  0  0  0
   21.2030   -3.3330   31.6600 N   0  3  0  0  0  0
   21.6310   -4.6270   31.4000 C   0  0  0  0  0  0
   21.4730   -4.9420   30.0670 C   0  0  0  0  0  0
   21.7850   -6.1050   29.4550 N   0  0  0  0  0  0
   22.3130   -7.0600   30.2830 C   0  0  0  0  0  0
   22.5070   -6.8280   31.6480 N   0  0  0  0  0  0
   22.1690   -5.6200   32.2060 C   0  0  0  0  0  0
   22.3430   -5.4160   33.3980 O   0  0  0  0  0  0
   22.6330   -8.1460   29.8140 O   0  0  0  0  0  0
   23.0740   -7.8740   32.4850 C   0  0  0  0  0  0
   21.6030   -6.3100   28.0200 C   0  0  0  0  0  0
   20.2130   -6.8980   27.7350 C   0  0  0  0  0  0
   20.0740   -8.3630   28.1360 C   0  0  0  0  0  0
   19.0590   -6.0470   28.2480 C   0  0  0  0  0  0
   20.3838   -1.9020   30.2747 H   0  0  0  0  0  0
   23.2806   -8.7631   31.8712 H   0  0  0  0  0  0
   22.3598   -8.1350   33.2798 H   0  0  0  0  0  0
   24.0104   -7.5148   32.9369 H   0  0  0  0  0  0
   21.6986   -5.3470   27.4970 H   0  0  0  0  0  0
   22.3694   -7.0064   27.6490 H   0  0  0  0  0  0
   20.1243   -6.8742   26.6388 H   0  0  0  0  0  0
   20.9286   -8.9333   27.7431 H   0  0  0  0  0  0
   19.1399   -8.7697   27.7211 H   0  0  0  0  0  0
   20.0532   -8.4425   29.2329 H   0  0  0  0  0  0
   19.2053   -5.0031   27.9337 H   0  0  0  0  0  0
   19.0258   -6.0981   29.3463 H   0  0  0  0  0  0
   18.1124   -6.4252   27.8345 H   0  0  0  0  0  0
   21.1412   -2.6788   32.5422 H   0  0  0  0  0  0
  1  2  2  0  0  0
  1  5  1  0  0  0
  2  3  1  0  0  0
  2 17  1  0  0  0
  3  4  1  0  0  0
  3 30  1  0  0  0
  4  5  2  0  0  0
  4  9  1  0  0  0
  5  6  1  0  0  0
  6  7  1  0  0  0
  6 13  1  0  0  0
  7  8  1  0  0  0
  7 11  2  0  0  0
  8  9  1  0  0  0
  8 12  1  0  0  0
  9 10  2  0  0  0
 12 18  1  0  0  0
 12 19  1  0  0  0
 12 20  1  0  0  0
 13 14  1  0  0  0
 13 21  1  0  0  0
 13 22  1  0  0  0
 14 15  1  0  0  0
 14 16  1  0  0  0
 14 23  1  0  0  0
 15 24  1  0  0  0
 15 25  1  0  0  0
 15 26  1  0  0  0
 16 27  1  0  0  0
 16 28  1  0  0  0
 16 29  1  0  0  0
M  CHG  1   3   1
M  END
> <s_m_source_file>
../1zkn_ligand.sdf

> <i_m_source_file_index>
1

> <s_epik_input>
W25IXTFbY0hdbmMoYzEyKW4oYyg9TyluKGMyPU8pW0NIM10pW0NIMl1bQ0hdKFtDSDNdKVtDSDNd

> <s_epik_cmdline>
J2VwaWtfYXBwJywgJy1pbWFlJywgJ2xpZ2FuZF9wcm8ubWFlJywgJy1vbWFlJywgJ2xpZ2FuZF9wcmVwLm1hZScsICctbXMnLCAnMScsICctcGgnLCAnNycsICctcGh0JywgJzAuNScsICctbnQn

> <r_lp_tautomer_probability>
1

> <r_epik_Ionization_Penalty>
  0.0000

> <r_epik_Ionization_Penalty_Charging>
  0.0000

> <r_epik_Ionization_Penalty_Neutral>
  0.0000

> <r_epik_State_Penalty>
 -0.0000

> <r_epik_Charging_Adjusted_Penalty>
2.54524996633124e-08

> <i_epik_Tot_Q>
1

> <i_epik_Tot_abs_Q>
1

> <s_epik_Chemistry_Notes>
This compound has an imine and may undergo hydrolysis.

$$$$
