1zky_ligand
                    3D
 Schrodinger Suite 2020-3.
 45 47  0  0  1  0            999 V2000
  -26.0470    4.0070   -3.4670 C   0  0  0  0  0  0
  -25.9500    3.7330   -4.9630 C   0  0  2  0  0  0
  -24.5310    3.3860   -5.4420 C   0  0  1  0  0  0
  -24.7690    2.5870   -6.6580 C   0  0  0  0  0  0
  -24.0250    1.2960   -6.8980 C   0  0  0  0  0  0
  -25.6340    3.1660   -7.5610 C   0  0  0  0  0  0
  -26.3610    4.4990   -7.2660 C   0  0  1  0  0  0
  -27.7940    4.3370   -7.6850 C   0  0  0  0  0  0
  -26.3770    4.9160   -5.8000 C   0  0  1  0  0  0
  -27.7620    5.4200   -5.4320 C   0  0  0  0  0  0
  -27.7170    6.2800   -4.3080 O   0  0  0  0  0  0
  -25.4120    6.0800   -5.5940 C   0  0  0  0  0  0
  -24.0830    5.7310   -5.2640 O   0  0  0  0  0  0
  -23.8110    4.6270   -6.0400 C   0  0  1  0  0  0
  -22.3590    4.3690   -6.4810 C   0  0  0  0  0  0
  -22.0420    4.2720   -7.8330 C   0  0  0  0  0  0
  -20.7420    4.0300   -8.2250 C   0  0  0  0  0  0
  -19.7490    3.8700   -7.2730 C   0  0  0  0  0  0
  -18.4820    3.6280   -7.6360 O   0  0  0  0  0  0
  -20.0620    3.9720   -5.9330 C   0  0  0  0  0  0
  -21.3570    4.2110   -5.5410 C   0  0  0  0  0  0
  -25.7252    3.1152   -2.9093 H   0  0  0  0  0  0
  -27.0879    4.2475   -3.2050 H   0  0  0  0  0  0
  -25.3979    4.8561   -3.2069 H   0  0  0  0  0  0
  -26.6350    2.8834   -5.1008 H   0  0  0  0  0  0
  -23.9621    2.9070   -4.6315 H   0  0  0  0  0  0
  -23.4052    1.0613   -6.0200 H   0  0  0  0  0  0
  -23.3811    1.4031   -7.7834 H   0  0  0  0  0  0
  -24.7465    0.4827   -7.0655 H   0  0  0  0  0  0
  -25.8263    2.6790   -8.5284 H   0  0  0  0  0  0
  -25.8314    5.2897   -7.8176 H   0  0  0  0  0  0
  -27.8351    4.0348   -8.7419 H   0  0  0  0  0  0
  -28.3240    5.2922   -7.5559 H   0  0  0  0  0  0
  -28.2725    3.5653   -7.0641 H   0  0  0  0  0  0
  -28.1871    5.9764   -6.2804 H   0  0  0  0  0  0
  -28.4114    4.5653   -5.1917 H   0  0  0  0  0  0
  -28.6442    6.7268   -3.9199 H   0  0  0  0  0  0
  -25.3516    6.6741   -6.5178 H   0  0  0  0  0  0
  -25.7741    6.7155   -4.7724 H   0  0  0  0  0  0
  -24.2657    5.0175   -6.9623 H   0  0  0  0  0  0
  -22.8235    4.3876   -8.5840 H   0  0  0  0  0  0
  -20.4960    3.9646   -9.2849 H   0  0  0  0  0  0
  -18.2215    3.5448   -8.7015 H   0  0  0  0  0  0
  -19.2790    3.8626   -5.1827 H   0  0  0  0  0  0
  -21.5967    4.2767   -4.4797 H   0  0  0  0  0  0
  1  2  1  0  0  0
  1 22  1  0  0  0
  1 23  1  0  0  0
  1 24  1  0  0  0
  2  3  1  0  0  0
  2  9  1  0  0  0
  2 25  1  0  0  0
  3  4  1  0  0  0
  3 14  1  0  0  0
  3 26  1  0  0  0
  4  5  1  0  0  0
  4  6  2  0  0  0
  5 27  1  0  0  0
  5 28  1  0  0  0
  5 29  1  0  0  0
  6  7  1  0  0  0
  6 30  1  0  0  0
  7  8  1  0  0  0
  7  9  1  0  0  0
  7 31  1  0  0  0
  8 32  1  0  0  0
  8 33  1  0  0  0
  8 34  1  0  0  0
  9 10  1  0  0  0
  9 12  1  0  0  0
 10 11  1  0  0  0
 10 35  1  0  0  0
 10 36  1  0  0  0
 11 37  1  0  0  0
 12 13  1  0  0  0
 12 38  1  0  0  0
 12 39  1  0  0  0
 13 14  1  0  0  0
 14 15  1  0  0  0
 14 40  1  0  0  0
 15 16  2  0  0  0
 15 21  1  0  0  0
 16 17  1  0  0  0
 16 41  1  0  0  0
 17 18  2  0  0  0
 17 42  1  0  0  0
 18 19  1  0  0  0
 18 20  1  0  0  0
 19 43  1  0  0  0
 20 21  2  0  0  0
 20 44  1  0  0  0
 21 45  1  0  0  0
M  END
> <s_m_source_file>
../1zky_ligand.sdf

> <i_m_source_file_index>
1

> <s_epik_input>
W0NIM11bQ0BASF0xW0NIXT1DKFtDSDNdKVtDQEhdKFtDQEBIXShbQ0gzXSlbQ0BdMTJbQ0gyXVtPSF0pW0NAQEhdKE9bQ0gyXTIpYzNbY0hdW2NIXWMoW09IXSlbY0hdW2NIXTM=

> <s_epik_cmdline>
J2VwaWtfYXBwJywgJy1pbWFlJywgJ2xpZ2FuZF9wcm8ubWFlJywgJy1vbWFlJywgJ2xpZ2FuZF9wcmVwLm1hZScsICctbXMnLCAnMScsICctcGgnLCAnNycsICctcGh0JywgJzAuNScsICctbnQn

> <r_lp_tautomer_probability>
1

> <r_epik_Ionization_Penalty>
  0.0009

> <r_epik_Ionization_Penalty_Charging>
  0.0000

> <r_epik_Ionization_Penalty_Neutral>
  0.0009

> <r_epik_State_Penalty>
 -0.0000

> <r_epik_Charging_Adjusted_Penalty>
0

> <i_epik_Tot_Q>
0

> <i_epik_Tot_abs_Q>
0

$$$$
