1zm6_ligand
                    3D
 Schrodinger Suite 2020-3.
 83 83  0  0  1  0            999 V2000
   29.9450   27.4240  -11.1580 N   0  3  0  0  0  0
   29.4400   28.7610  -11.5000 C   0  0  2  0  0  0
   30.2690   29.8710  -10.8500 C   0  0  0  0  0  0
   30.6940   30.8050  -11.5210 O   0  0  0  0  0  0
   27.9570   28.9040  -11.0790 C   0  0  0  0  0  0
   27.1180   30.0170  -11.7300 C   0  0  0  0  0  0
   25.8290   29.4510  -12.3000 C   0  0  0  0  0  0
   26.8390   31.1240  -10.7160 C   0  0  0  0  0  0
   30.5170   29.7940   -9.5110 N   0  0  0  0  0  0
   31.2770   30.9010   -8.8520 C   0  0  2  0  0  0
   32.0290   30.6960   -7.4810 C   0  0  0  0  0  0
   32.0140   29.6380   -6.8540 O   0  0  0  0  0  0
   30.3170   32.0740   -8.7060 C   0  0  0  0  0  0
   32.6800   31.8690   -7.1010 N   0  0  0  0  0  0
   33.6350   32.3190   -6.0350 C   0  0  2  0  0  0
   33.5480   32.0900   -4.5360 C   0  0  0  0  0  0
   32.6060   32.5150   -3.8470 O   0  0  0  0  0  0
   33.7640   33.8690   -6.1060 C   0  0  2  0  0  0
   33.8050   34.3330   -7.5480 C   0  0  0  0  0  0
   35.0140   34.3360   -5.3710 C   0  0  0  0  0  0
   32.4620   34.3030   -8.2280 C   0  0  0  0  0  0
   34.5980   31.3880   -4.0730 N   0  0  0  0  0  0
   34.8200   31.2340   -2.6400 C   0  0  2  0  0  0
   35.4930   32.5160   -2.2970 C   0  0  0  0  0  0
   34.9430   33.5850   -2.5240 O   0  0  0  0  0  0
   35.7150   30.0470   -2.2750 C   0  0  0  0  0  0
   35.5710   29.0170   -3.3240 C   0  0  0  0  0  0
   35.9850   29.3430   -4.5950 C   0  0  0  0  0  0
   35.0010   27.7790   -3.0540 C   0  0  0  0  0  0
   35.8260   28.4590   -5.6230 C   0  0  0  0  0  0
   34.8220   26.9020   -4.0980 C   0  0  0  0  0  0
   35.2320   27.2430   -5.3770 C   0  0  0  0  0  0
   35.0340   26.3530   -6.4030 O   0  0  0  0  0  0
   36.6560   32.4210   -1.7700 N   0  0  0  0  0  0
   37.3280   33.6160   -1.4510 C   0  0  2  0  0  0
   38.4330   33.9240   -2.4540 C   0  0  0  0  0  0
   38.1760   34.3810   -3.5720 O   0  5  0  0  0  0
   37.8640   33.5050   -0.0330 C   0  0  0  0  0  0
   38.6670   34.6270    0.3020 O   0  0  0  0  0  0
   39.5930   33.6670   -2.1250 O   0  0  0  0  0  0
   30.9983   27.3406  -11.4639 H   0  0  0  0  0  0
   29.3495   26.6620  -11.6822 H   0  0  0  0  0  0
   29.8651   27.2687  -10.0720 H   0  0  0  0  0  0
   29.5552   28.8259  -12.5920 H   0  0  0  0  0  0
   27.4189   27.9727  -11.3097 H   0  0  0  0  0  0
   27.9000   29.1023   -9.9985 H   0  0  0  0  0  0
   27.6770   30.4556  -12.5697 H   0  0  0  0  0  0
   26.0657   28.6582  -13.0249 H   0  0  0  0  0  0
   25.2677   30.2521  -12.8030 H   0  0  0  0  0  0
   25.2202   29.0328  -11.4849 H   0  0  0  0  0  0
   27.7913   31.5107  -10.3240 H   0  0  0  0  0  0
   26.2386   30.7197   -9.8877 H   0  0  0  0  0  0
   26.2861   31.9391  -11.2059 H   0  0  0  0  0  0
   30.1683   28.9365   -8.9168 H   0  0  0  0  0  0
   32.0955   31.0185   -9.5775 H   0  0  0  0  0  0
   29.7832   32.2312   -9.6549 H   0  0  0  0  0  0
   30.8832   32.9814   -8.4491 H   0  0  0  0  0  0
   29.5911   31.8567   -7.9086 H   0  0  0  0  0  0
   32.3211   32.5844   -7.8556 H   0  0  0  0  0  0
   34.4000   31.5891   -6.3383 H   0  0  0  0  0  0
   32.8898   34.3347   -5.6275 H   0  0  0  0  0  0
   34.1715   35.3693   -7.5894 H   0  0  0  0  0  0
   34.4797   33.6822   -8.1236 H   0  0  0  0  0  0
   34.9742   33.9942   -4.3262 H   0  0  0  0  0  0
   35.0650   35.4345   -5.3958 H   0  0  0  0  0  0
   35.9053   33.9164   -5.8604 H   0  0  0  0  0  0
   32.5687   34.6511   -9.2660 H   0  0  0  0  0  0
   31.7640   34.9616   -7.6903 H   0  0  0  0  0  0
   32.0721   33.2744   -8.2244 H   0  0  0  0  0  0
   35.2935   30.9273   -4.7899 H   0  0  0  0  0  0
   33.8641   31.0572   -2.1251 H   0  0  0  0  0  0
   36.7613   30.3813   -2.2160 H   0  0  0  0  0  0
   35.4048   29.6396   -1.3015 H   0  0  0  0  0  0
   36.4432   30.3141   -4.7824 H   0  0  0  0  0  0
   34.7033   27.5098   -2.0406 H   0  0  0  0  0  0
   36.1657   28.7137   -6.6269 H   0  0  0  0  0  0
   34.3552   25.9335   -3.9185 H   0  0  0  0  0  0
   35.3543   26.6100   -7.4235 H   0  0  0  0  0  0
   37.1320   31.4507   -1.5651 H   0  0  0  0  0  0
   36.5636   34.4033   -1.5267 H   0  0  0  0  0  0
   37.0228   33.4521    0.6738 H   0  0  0  0  0  0
   38.4765   32.5958    0.0574 H   0  0  0  0  0  0
   39.1293   34.6948    1.2978 H   0  0  0  0  0  0
  1  2  1  0  0  0
  1 41  1  0  0  0
  1 42  1  0  0  0
  1 43  1  0  0  0
  2  3  1  0  0  0
  2  5  1  0  0  0
  2 44  1  0  0  0
  3  4  2  0  0  0
  3  9  1  0  0  0
  5  6  1  0  0  0
  5 45  1  0  0  0
  5 46  1  0  0  0
  6  7  1  0  0  0
  6  8  1  0  0  0
  6 47  1  0  0  0
  7 48  1  0  0  0
  7 49  1  0  0  0
  7 50  1  0  0  0
  8 51  1  0  0  0
  8 52  1  0  0  0
  8 53  1  0  0  0
  9 10  1  0  0  0
  9 54  1  0  0  0
 10 11  1  0  0  0
 10 13  1  0  0  0
 10 55  1  0  0  0
 11 12  2  0  0  0
 11 14  1  0  0  0
 13 56  1  0  0  0
 13 57  1  0  0  0
 13 58  1  0  0  0
 14 15  1  0  0  0
 14 59  1  0  0  0
 15 16  1  0  0  0
 15 18  1  0  0  0
 15 60  1  0  0  0
 16 17  2  0  0  0
 16 22  1  0  0  0
 18 19  1  0  0  0
 18 20  1  0  0  0
 18 61  1  0  0  0
 19 21  1  0  0  0
 19 62  1  0  0  0
 19 63  1  0  0  0
 20 64  1  0  0  0
 20 65  1  0  0  0
 20 66  1  0  0  0
 21 67  1  0  0  0
 21 68  1  0  0  0
 21 69  1  0  0  0
 22 23  1  0  0  0
 22 70  1  0  0  0
 23 24  1  0  0  0
 23 26  1  0  0  0
 23 71  1  0  0  0
 24 25  2  0  0  0
 24 34  1  0  0  0
 26 27  1  0  0  0
 26 72  1  0  0  0
 26 73  1  0  0  0
 27 28  2  0  0  0
 27 29  1  0  0  0
 28 30  1  0  0  0
 28 74  1  0  0  0
 29 31  2  0  0  0
 29 75  1  0  0  0
 30 32  2  0  0  0
 30 76  1  0  0  0
 31 32  1  0  0  0
 31 77  1  0  0  0
 32 33  1  0  0  0
 33 78  1  0  0  0
 34 35  1  0  0  0
 34 79  1  0  0  0
 35 36  1  0  0  0
 35 38  1  0  0  0
 35 80  1  0  0  0
 36 37  1  0  0  0
 36 40  2  0  0  0
 38 39  1  0  0  0
 38 81  1  0  0  0
 38 82  1  0  0  0
 39 83  1  0  0  0
M  CHG  2   1   1  37  -1
M  END
> <s_m_source_file>
../1zm6_ligand.sdf

> <i_m_source_file_index>
1

> <s_epik_input>
W0NIM11bQ0hdKFtDSDNdKVtDSDJdW0NASF0oW05IMytdKUMoPU8pW05IXVtDQEBIXShbQ0gzXSlDKD1PKVtOSF1bQ0BASF0oW0NAQEhdKFtDSDNdKVtDSDJdW0NIM10pQyg9TylbTkhdW0NASF0oQyg9TylbTkhdW0NASF0oQyg9TylbT0hdKVtDSDJdW09IXSlbQ0gyXWMxW2NIXVtjSF1jKFtPSF0pW2NIXVtjSF0x

> <s_epik_cmdline>
J2VwaWtfYXBwJywgJy1pbWFlJywgJ2xpZ2FuZF9wcm8ubWFlJywgJy1vbWFlJywgJ2xpZ2FuZF9wcmVwLm1hZScsICctbXMnLCAnMScsICctcGgnLCAnNycsICctcGh0JywgJzAuNScsICctbnQn

> <r_lp_tautomer_probability>
0.999999999997365

> <r_epik_Ionization_Penalty>
  0.0901

> <r_epik_Ionization_Penalty_Charging>
  0.0893

> <r_epik_Ionization_Penalty_Neutral>
  0.0008

> <r_epik_State_Penalty>
  0.0796

> <r_epik_Charging_Adjusted_Penalty>
0.168944871974316

> <i_epik_Tot_Q>
0

> <i_epik_Tot_abs_Q>
2

$$$$
