1zm7_ligand
                    3D
 Schrodinger Suite 2020-3.
 42 43  0  0  1  0            999 V2000
   36.0040   18.4750   11.8320 P   0  0  1  0  0  0
   35.7320   17.3920   12.7860 O   0  0  0  0  0  0
   34.9970   19.5550   11.7800 O   0  5  0  0  0  0
   37.4240   19.0920   12.2170 O   0  0  0  0  0  0
   38.1170   20.3990   11.5540 P   0  0  1  0  0  0
   39.4720   20.3220   12.1240 O   0  0  0  0  0  0
   37.9480   20.3850   10.0860 O   0  5  0  0  0  0
   37.2980   21.6030   12.2380 O   0  0  0  0  0  0
   37.8480   23.1320   12.5070 P   0  0  0  0  0  0
   38.3450   23.6980   11.2530 O   0  0  0  0  0  0
   36.6190   23.8010   13.0190 O   0  5  0  0  0  0
   38.8970   23.0560   13.5290 O   0  5  0  0  0  0
   36.1560   17.9420   10.3280 O   0  0  0  0  0  0
   37.1600   16.9600   10.0970 C   0  0  0  0  0  0
   36.9950   16.1600    8.9440 C   0  0  1  0  0  0
   36.4270   14.8860    9.2770 O   0  0  0  0  0  0
   36.1040   16.7280    8.0180 C   0  0  1  0  0  0
   36.6070   16.4130    6.7100 O   0  0  0  0  0  0
   34.8360   16.1180    8.2820 C   0  0  0  0  0  0
   35.1310   14.7920    8.6860 C   0  0  2  0  0  0
   34.2670   14.1780    9.5780 N   0  0  0  0  0  0
   33.4350   13.1550    9.1810 C   0  0  0  0  0  0
   33.4210   12.7730    8.0130 O   0  0  0  0  0  0
   32.6120   12.5110   10.1100 N   0  0  0  0  0  0
   32.5840   12.9090   11.4420 C   0  0  0  0  0  0
   31.9980   12.1910   12.2790 O   0  0  0  0  0  0
   33.4090   13.9710   11.8560 C   0  0  0  0  0  0
   33.4120   14.4550   13.3190 C   0  0  0  0  0  0
   34.2430   14.5690   10.9090 C   0  0  0  0  0  0
   38.1370   17.4533    9.9873 H   0  0  0  0  0  0
   37.1944   16.2635   10.9477 H   0  0  0  0  0  0
   38.0023   16.0868    8.5081 H   0  0  0  0  0  0
   36.0118   17.8207    8.1044 H   0  0  0  0  0  0
   37.5746   16.8192    6.3803 H   0  0  0  0  0  0
   34.3197   16.6751    9.0777 H   0  0  0  0  0  0
   34.2244   16.1330    7.3678 H   0  0  0  0  0  0
   35.0197   14.1371    7.8093 H   0  0  0  0  0  0
   31.9725   11.6746    9.7915 H   0  0  0  0  0  0
   32.6923   13.8623   13.9028 H   0  0  0  0  0  0
   33.1268   15.5168   13.3545 H   0  0  0  0  0  0
   34.4190   14.3314   13.7440 H   0  0  0  0  0  0
   34.9022   15.3761   11.2286 H   0  0  0  0  0  0
  1  2  2  0  0  0
  1  3  1  0  0  0
  1  4  1  0  0  0
  1 13  1  0  0  0
  4  5  1  0  0  0
  5  6  2  0  0  0
  5  7  1  0  0  0
  5  8  1  0  0  0
  8  9  1  0  0  0
  9 10  2  0  0  0
  9 11  1  0  0  0
  9 12  1  0  0  0
 13 14  1  0  0  0
 14 15  1  0  0  0
 14 30  1  0  0  0
 14 31  1  0  0  0
 15 16  1  0  0  0
 15 17  1  0  0  0
 15 32  1  0  0  0
 16 20  1  0  0  0
 17 18  1  0  0  0
 17 19  1  0  0  0
 17 33  1  0  0  0
 18 34  1  0  0  0
 19 20  1  0  0  0
 19 35  1  0  0  0
 19 36  1  0  0  0
 20 21  1  0  0  0
 20 37  1  0  0  0
 21 22  1  0  0  0
 21 29  1  0  0  0
 22 23  2  0  0  0
 22 24  1  0  0  0
 24 25  1  0  0  0
 24 38  1  0  0  0
 25 26  2  0  0  0
 25 27  1  0  0  0
 27 28  1  0  0  0
 27 29  2  0  0  0
 28 39  1  0  0  0
 28 40  1  0  0  0
 28 41  1  0  0  0
 29 42  1  0  0  0
M  CHG  4   3  -1   7  -1  11  -1  12  -1
M  END
> <s_m_source_file>
../1zm7_ligand.sdf

> <i_m_source_file_index>
1

> <s_epik_input>
Tz1QKFtPSF0pKFtPSF0pT1tQQF0oPU8pKFtPSF0pT1tQQEBdKD1PKShbT0hdKU9bQ0gyXVtDQEhdMU9bQ0BIXShbQ0gyXVtDQEBIXTFbT0hdKW4yYyg9TylbbkhdYyg9TyljKFtDSDNdKVtjSF0y

> <s_epik_cmdline>
J2VwaWtfYXBwJywgJy1pbWFlJywgJ2xpZ2FuZF9wcm8ubWFlJywgJy1vbWFlJywgJ2xpZ2FuZF9wcmVwLm1hZScsICctbXMnLCAnMScsICctcGgnLCAnNycsICctcGh0JywgJzAuNScsICctbnQn

> <r_lp_tautomer_probability>
0.999537046341301

> <r_epik_Ionization_Penalty>
  0.0827

> <r_epik_Ionization_Penalty_Charging>
  0.0827

> <r_epik_Ionization_Penalty_Neutral>
  0.0000

> <r_epik_State_Penalty>
  0.0709

> <r_epik_Charging_Adjusted_Penalty>
0.153602835498398

> <i_epik_Tot_Q>
-4

> <i_epik_Tot_abs_Q>
4

> <s_epik_Chemistry_Notes>
This compound contains an acetal/aminal-like group ( X-CH(R)-Y where X, Y are N, S, or O) that may be acid/base labile, releasing an aldehyde.

$$$$
