1zom_ligand
                    3D
 Schrodinger Suite 2020-3.
 92 93  0  0  1  0            999 V2000
   11.5170   51.1600   25.0990 C   0  0  1  0  0  0
   11.8800   51.2140   23.5830 C   0  0  1  0  0  0
   11.7280   52.5610   25.7520 C   0  0  0  0  0  0
   10.1370   50.8070   25.1710 O   0  0  0  0  0  0
   13.3390   51.5570   23.4590 N   0  0  0  0  0  0
   11.6680   49.8610   22.8880 C   0  0  0  0  0  0
   12.0110   49.9140   21.4000 C   0  0  0  0  0  0
   11.8040   48.5690   20.7430 C   0  0  0  0  0  0
   11.7580   48.8070   19.3050 N   0  0  0  0  0  0
   11.3390   47.9800   18.3420 C   0  0  0  0  0  0
   11.1520   46.6630   18.5590 N   0  0  0  0  0  0
   11.1120   48.5070   17.1430 N   0  3  0  0  0  0
   12.7470   52.8440   26.5100 N   0  0  0  0  0  0
   12.6530   54.1780   26.9320 C   0  0  0  0  0  0
   11.5190   54.8170   26.4310 C   0  0  0  0  0  0
   10.5850   53.8000   25.4600 S   0  0  0  0  0  0
   15.8550   53.3840   21.6960 N   0  0  0  0  0  0
   15.4690   52.7540   23.0100 C   0  0  2  0  0  0
   13.9110   52.6980   23.0460 C   0  0  0  0  0  0
   13.2450   53.6740   22.6950 O   0  0  0  0  0  0
   15.9860   53.5980   24.2340 C   0  0  0  0  0  0
   17.1790   52.8670   24.8420 C   0  0  0  0  0  0
   16.4900   55.0230   23.8560 C   0  0  0  0  0  0
   16.2200   55.1140   19.5340 N   0  0  0  0  0  0
   16.0380   53.7000   19.2060 C   0  0  2  0  0  0
   15.5770   52.9060   20.4400 C   0  0  0  0  0  0
   14.9590   51.8580   20.2420 O   0  0  0  0  0  0
   17.3440   53.1370   18.6530 C   0  0  0  0  0  0
   17.5950   53.6240   17.2320 C   0  0  0  0  0  0
   18.8820   53.0620   16.6920 C   0  0  0  0  0  0
   18.8260   53.1310   15.2320 N   0  0  0  0  0  0
   19.8270   52.9960   14.3460 C   0  0  0  0  0  0
   19.6000   52.7290   13.0620 N   0  0  0  0  0  0
   21.0610   53.1420   14.7670 O   0  0  0  0  0  0
   15.2370   56.0200   19.4570 C   0  0  0  0  0  0
   14.0760   55.6820   19.0860 O   0  0  0  0  0  0
   15.5480   57.3060   19.8100 N   0  0  0  0  0  0
   14.6030   58.4800   19.8400 C   0  0  1  0  0  0
   13.4530   58.2140   20.8840 C   0  0  0  0  0  0
   12.2380   59.0160   20.8330 C   0  0  0  0  0  0
   11.1630   58.7810   21.7790 C   0  0  0  0  0  0
   11.2830   57.7390   22.7980 C   0  0  0  0  0  0
   12.4720   56.9430   22.8640 C   0  0  0  0  0  0
   13.5410   57.1620   21.9390 C   0  0  0  0  0  0
    9.9050   57.4070   24.0350 Br  0  0  0  0  0  0
   15.3680   59.7540   20.2320 C   0  0  0  0  0  0
   12.0789   50.3918   25.6504 H   0  0  0  0  0  0
   11.2522   51.9696   23.0880 H   0  0  0  0  0  0
    9.7927   49.8469   24.7591 H   0  0  0  0  0  0
   14.1036   50.8135   23.7283 H   0  0  0  0  0  0
   12.3103   49.1023   23.3590 H   0  0  0  0  0  0
   10.6143   49.5604   22.9844 H   0  0  0  0  0  0
   11.3651   50.6513   20.9009 H   0  0  0  0  0  0
   13.0643   50.2062   21.2767 H   0  0  0  0  0  0
   12.6392   47.9018   21.0025 H   0  0  0  0  0  0
   10.8599   48.1294   21.0971 H   0  0  0  0  0  0
   12.0973   49.7700   18.8958 H   0  0  0  0  0  0
   11.3428   46.2372   19.5551 H   0  0  0  0  0  0
   10.8086   46.0140   17.7400 H   0  0  0  0  0  0
   11.2678   49.5831   16.9768 H   0  0  0  0  0  0
   13.3846   54.6616   27.5793 H   0  0  0  0  0  0
   11.2646   55.8556   26.6425 H   0  0  0  0  0  0
   16.4202   54.3276   21.6835 H   0  0  0  0  0  0
   15.9300   51.7560   23.0480 H   0  0  0  0  0  0
   15.1487   53.7044   24.9394 H   0  0  0  0  0  0
   16.8777   51.8487   25.1289 H   0  0  0  0  0  0
   17.5273   53.4109   25.7324 H   0  0  0  0  0  0
   17.9921   52.8143   24.1031 H   0  0  0  0  0  0
   15.6647   55.5975   23.4102 H   0  0  0  0  0  0
   17.3130   54.9404   23.1308 H   0  0  0  0  0  0
   16.8482   55.5370   24.7601 H   0  0  0  0  0  0
   17.2036   55.4800   19.8635 H   0  0  0  0  0  0
   15.2540   53.6565   18.4357 H   0  0  0  0  0  0
   18.1813   53.4614   19.2884 H   0  0  0  0  0  0
   17.2949   52.0381   18.6440 H   0  0  0  0  0  0
   16.7680   53.3015   16.5824 H   0  0  0  0  0  0
   17.6586   54.7221   17.2266 H   0  0  0  0  0  0
   19.7280   53.6556   17.0688 H   0  0  0  0  0  0
   18.9921   52.0177   17.0196 H   0  0  0  0  0  0
   17.8666   53.3155   14.7265 H   0  0  0  0  0  0
   18.5687   52.6050   12.7000 H   0  0  0  0  0  0
   20.4437   52.6324   12.3628 H   0  0  0  0  0  0
   16.6030   57.4418   20.0904 H   0  0  0  0  0  0
   14.1984   58.5999   18.8242 H   0  0  0  0  0  0
   12.1357   59.7972   20.0798 H   0  0  0  0  0  0
   10.2580   59.3865   21.7296 H   0  0  0  0  0  0
   12.5628   56.1662   23.6232 H   0  0  0  0  0  0
   14.4388   56.5476   22.0061 H   0  0  0  0  0  0
   16.1705   59.9388   19.5027 H   0  0  0  0  0  0
   15.8049   59.6258   21.2333 H   0  0  0  0  0  0
   14.6761   60.6091   20.2405 H   0  0  0  0  0  0
   10.7683   47.8670   16.3170 H   0  0  0  0  0  0
  1  2  1  0  0  0
  1  3  1  0  0  0
  1  4  1  0  0  0
  1 47  1  0  0  0
  2  5  1  0  0  0
  2  6  1  0  0  0
  2 48  1  0  0  0
  3 13  2  0  0  0
  3 16  1  0  0  0
  4 49  1  0  0  0
  5 19  1  0  0  0
  5 50  1  0  0  0
  6  7  1  0  0  0
  6 51  1  0  0  0
  6 52  1  0  0  0
  7  8  1  0  0  0
  7 53  1  0  0  0
  7 54  1  0  0  0
  8  9  1  0  0  0
  8 55  1  0  0  0
  8 56  1  0  0  0
  9 10  1  0  0  0
  9 57  1  0  0  0
 10 11  1  0  0  0
 10 12  2  0  0  0
 11 58  1  0  0  0
 11 59  1  0  0  0
 12 60  1  0  0  0
 12 92  1  0  0  0
 13 14  1  0  0  0
 14 15  2  0  0  0
 14 61  1  0  0  0
 15 16  1  0  0  0
 15 62  1  0  0  0
 17 18  1  0  0  0
 17 26  1  0  0  0
 17 63  1  0  0  0
 18 19  1  0  0  0
 18 21  1  0  0  0
 18 64  1  0  0  0
 19 20  2  0  0  0
 21 22  1  0  0  0
 21 23  1  0  0  0
 21 65  1  0  0  0
 22 66  1  0  0  0
 22 67  1  0  0  0
 22 68  1  0  0  0
 23 69  1  0  0  0
 23 70  1  0  0  0
 23 71  1  0  0  0
 24 25  1  0  0  0
 24 35  1  0  0  0
 24 72  1  0  0  0
 25 26  1  0  0  0
 25 28  1  0  0  0
 25 73  1  0  0  0
 26 27  2  0  0  0
 28 29  1  0  0  0
 28 74  1  0  0  0
 28 75  1  0  0  0
 29 30  1  0  0  0
 29 76  1  0  0  0
 29 77  1  0  0  0
 30 31  1  0  0  0
 30 78  1  0  0  0
 30 79  1  0  0  0
 31 32  1  0  0  0
 31 80  1  0  0  0
 32 33  1  0  0  0
 32 34  2  0  0  0
 33 81  1  0  0  0
 33 82  1  0  0  0
 35 36  2  0  0  0
 35 37  1  0  0  0
 37 38  1  0  0  0
 37 83  1  0  0  0
 38 39  1  0  0  0
 38 46  1  0  0  0
 38 84  1  0  0  0
 39 40  2  0  0  0
 39 44  1  0  0  0
 40 41  1  0  0  0
 40 85  1  0  0  0
 41 42  2  0  0  0
 41 86  1  0  0  0
 42 43  1  0  0  0
 42 45  1  0  0  0
 43 44  2  0  0  0
 43 87  1  0  0  0
 44 88  1  0  0  0
 46 89  1  0  0  0
 46 90  1  0  0  0
 46 91  1  0  0  0
M  CHG  1  12   1
M  END
> <s_m_source_file>
../1zom_ligand.sdf

> <i_m_source_file_index>
1

> <s_epik_input>
W0hdL049QyhbTkgyXSlcW05IXVtDSDJdW0NIMl1bQ0gyXVtDQEBIXShbQ0BIXShbT0hdKWMxbltjSF1bY0hdczEpW05IXUMoPU8pW0NASF0oW0NIXShbQ0gzXSlbQ0gzXSlbTkhdQyg9TylbQ0BIXShbQ0gyXVtDSDJdW0NIMl1bTkhdQyg9TylbTkgyXSlbTkhdQyg9TylbTkhdW0NASF0oW0NIM10pYzJbY0hdW2NIXWMoQnIpW2NIXVtjSF0y

> <s_epik_cmdline>
J2VwaWtfYXBwJywgJy1pbWFlJywgJ2xpZ2FuZF9wcm8ubWFlJywgJy1vbWFlJywgJ2xpZ2FuZF9wcmVwLm1hZScsICctbXMnLCAnMScsICctcGgnLCAnNycsICctcGh0JywgJzAuNScsICctbnQn

> <r_lp_tautomer_probability>
1

> <r_epik_Ionization_Penalty>
  0.0001

> <r_epik_Ionization_Penalty_Charging>
  0.0000

> <r_epik_Ionization_Penalty_Neutral>
  0.0001

> <r_epik_State_Penalty>
 -0.0000

> <r_epik_Charging_Adjusted_Penalty>
2.72528587278395e-06

> <i_epik_Tot_Q>
1

> <i_epik_Tot_abs_Q>
1

> <s_epik_Chemistry_Notes>
This compound has an imine and may undergo hydrolysis.

$$$$
