1zpa_ligand
                    3D
 Schrodinger Suite 2020-3.
 99102  0  0  1  0            999 V2000
  -11.3110   15.0080   33.1070 C   0  0  0  0  0  0
  -11.9100   16.0560   32.9280 O   0  0  0  0  0  0
   -9.9930   14.9170   32.9080 N   0  0  0  0  0  0
   -9.1460   15.9350   32.2870 C   0  0  0  0  0  0
   -9.1490   15.7330   30.7820 C   0  0  0  0  0  0
  -10.0110   16.3390   29.9000 C   0  0  0  0  0  0
   -9.6790   15.9110   28.6510 N   0  0  0  0  0  0
   -8.6370   15.0360   28.8100 N   0  0  0  0  0  0
   -8.3210   14.9250   30.0560 N   0  0  0  0  0  0
  -10.2530   16.1940   27.3260 C   0  0  2  0  0  0
  -10.0740   17.7050   26.9270 C   0  0  1  0  0  0
   -9.6400   17.9140   25.4410 C   0  0  0  0  0  0
   -8.4720   17.1300   25.1160 N   0  0  3  0  0  0
   -7.1610   17.6470   25.4380 C   0  0  0  0  0  0
   -6.2770   16.7300   26.3240 C   0  0  0  0  0  0
   -4.8430   16.5550   25.7790 C   0  0  0  0  0  0
   -6.3080   17.1020   27.8300 C   0  0  0  0  0  0
   -8.6280   15.7260   24.1070 S   0  0  0  0  0  0
   -9.9520   15.1690   24.2520 O   0  0  0  0  0  0
   -7.6860   14.7010   24.4530 O   0  0  0  0  0  0
   -8.4070   16.1390   22.4360 C   0  0  0  0  0  0
   -7.1640   15.9780   21.8390 C   0  0  0  0  0  0
   -6.9810   16.3120   20.4880 C   0  0  0  0  0  0
   -8.0520   16.8220   19.7800 C   0  0  0  0  0  0
   -9.3060   16.9630   20.3690 C   0  0  0  0  0  0
   -9.4810   16.6190   21.6980 C   0  0  0  0  0  0
   -7.9040   17.1310   18.4830 O   0  0  0  0  0  0
   -6.7140   16.9930   17.7380 C   0  0  0  0  0  0
  -11.7160   15.6530   27.3280 C   0  0  0  0  0  0
  -11.2450   18.4740   27.1270 O   0  0  0  0  0  0
  -11.9790   14.2230   27.7210 C   0  0  0  0  0  0
  -11.4590   13.1770   26.9470 C   0  0  0  0  0  0
  -11.6970   11.8540   27.2910 C   0  0  0  0  0  0
  -12.4440   11.5570   28.4270 C   0  0  0  0  0  0
  -12.9610   12.5870   29.2060 C   0  0  0  0  0  0
  -12.7470   13.9110   28.8420 C   0  0  0  0  0  0
  -12.0760   13.8560   33.5520 C   0  0  0  0  0  0
  -13.4580   13.9670   33.7050 C   0  0  0  0  0  0
  -14.1920   12.8660   34.1330 C   0  0  0  0  0  0
  -13.5560   11.6650   34.4070 C   0  0  0  0  0  0
  -12.1750   11.5580   34.2540 C   0  0  0  0  0  0
  -11.4410   12.6550   33.8100 C   0  0  0  0  0  0
  -14.3300   10.4530   34.8700 C   0  0  0  0  0  0
  -15.6130   10.8580   35.4650 N   0  0  0  0  0  0
  -16.7270   10.1300   35.2070 C   0  0  0  0  0  0
  -17.3980    9.7170   36.1320 O   0  0  0  0  0  0
  -17.0870    9.8650   33.9500 O   0  0  0  0  0  0
  -16.5160   10.2600   32.7060 C   0  0  0  0  0  0
  -17.7600   10.4630   31.7580 C   0  0  0  0  0  0
  -15.7490   11.5930   32.8650 C   0  0  0  0  0  0
  -15.6110    9.1300   32.1570 C   0  0  0  0  0  0
   -9.5507   13.9732   33.2596 H   0  0  0  0  0  0
   -9.5380   16.9344   32.5271 H   0  0  0  0  0  0
   -8.1194   15.8419   32.6709 H   0  0  0  0  0  0
  -10.8120   17.0335   30.1534 H   0  0  0  0  0  0
   -9.6768   15.6365   26.5729 H   0  0  0  0  0  0
   -9.3449   18.1292   27.6330 H   0  0  0  0  0  0
  -10.4599   17.6105   24.7734 H   0  0  0  0  0  0
   -9.4046   18.9754   25.2736 H   0  0  0  0  0  0
   -6.5960   17.8175   24.5097 H   0  0  0  0  0  0
   -7.2651   18.5965   25.9836 H   0  0  0  0  0  0
   -6.7407   15.7348   26.2570 H   0  0  0  0  0  0
   -4.8859   16.2932   24.7115 H   0  0  0  0  0  0
   -4.3355   15.7519   26.3335 H   0  0  0  0  0  0
   -4.2860   17.4953   25.9038 H   0  0  0  0  0  0
   -7.3518   17.2127   28.1589 H   0  0  0  0  0  0
   -5.7723   18.0503   27.9845 H   0  0  0  0  0  0
   -5.8218   16.3068   28.4142 H   0  0  0  0  0  0
   -6.3277   15.5911   22.4212 H   0  0  0  0  0  0
   -6.0130   16.1717   20.0070 H   0  0  0  0  0  0
  -10.1454   17.3424   19.7862 H   0  0  0  0  0  0
  -10.4603   16.7246   22.1648 H   0  0  0  0  0  0
   -6.8888   17.3231   16.7034 H   0  0  0  0  0  0
   -6.4013   15.9384   17.7385 H   0  0  0  0  0  0
   -5.9241   17.6099   18.1912 H   0  0  0  0  0  0
  -12.3239   16.2423   28.0303 H   0  0  0  0  0  0
  -12.1395   15.7374   26.3163 H   0  0  0  0  0  0
  -11.7365   18.4818   28.1111 H   0  0  0  0  0  0
  -10.8608   13.4052   26.0648 H   0  0  0  0  0  0
  -11.2997   11.0490   26.6728 H   0  0  0  0  0  0
  -12.6237   10.5187   28.7060 H   0  0  0  0  0  0
  -13.5348   12.3553   30.1033 H   0  0  0  0  0  0
  -13.1834   14.7125   29.4381 H   0  0  0  0  0  0
  -13.9595   14.9107   33.4905 H   0  0  0  0  0  0
  -15.2722   12.9477   34.2536 H   0  0  0  0  0  0
  -11.6709   10.6186   34.4811 H   0  0  0  0  0  0
  -10.3642   12.5668   33.6656 H   0  0  0  0  0  0
  -14.5263    9.7935   34.0118 H   0  0  0  0  0  0
  -13.7423    9.9086   35.6239 H   0  0  0  0  0  0
  -15.6629   11.7452   36.1134 H   0  0  0  0  0  0
  -18.3967   11.2670   32.1557 H   0  0  0  0  0  0
  -18.3383    9.5287   31.7069 H   0  0  0  0  0  0
  -17.4126   10.7348   30.7503 H   0  0  0  0  0  0
  -16.4298   12.3633   33.2563 H   0  0  0  0  0  0
  -15.3593   11.9107   31.8866 H   0  0  0  0  0  0
  -14.9122   11.4533   33.5652 H   0  0  0  0  0  0
  -16.1976    8.2044   32.0610 H   0  0  0  0  0  0
  -14.7727    8.9627   32.8493 H   0  0  0  0  0  0
  -15.2198    9.4201   31.1707 H   0  0  0  0  0  0
  1  2  2  0  0  0
  1  3  1  0  0  0
  1 37  1  0  0  0
  3  4  1  0  0  0
  3 52  1  0  0  0
  4  5  1  0  0  0
  4 53  1  0  0  0
  4 54  1  0  0  0
  5  6  2  0  0  0
  5  9  1  0  0  0
  6  7  1  0  0  0
  6 55  1  0  0  0
  7  8  1  0  0  0
  7 10  1  0  0  0
  8  9  2  0  0  0
 10 11  1  0  0  0
 10 29  1  0  0  0
 10 56  1  0  0  0
 11 12  1  0  0  0
 11 30  1  0  0  0
 11 57  1  0  0  0
 12 13  1  0  0  0
 12 58  1  0  0  0
 12 59  1  0  0  0
 13 14  1  0  0  0
 13 18  1  0  0  0
 14 15  1  0  0  0
 14 60  1  0  0  0
 14 61  1  0  0  0
 15 16  1  0  0  0
 15 17  1  0  0  0
 15 62  1  0  0  0
 16 63  1  0  0  0
 16 64  1  0  0  0
 16 65  1  0  0  0
 17 66  1  0  0  0
 17 67  1  0  0  0
 17 68  1  0  0  0
 18 19  2  0  0  0
 18 20  2  0  0  0
 18 21  1  0  0  0
 21 22  2  0  0  0
 21 26  1  0  0  0
 22 23  1  0  0  0
 22 69  1  0  0  0
 23 24  2  0  0  0
 23 70  1  0  0  0
 24 25  1  0  0  0
 24 27  1  0  0  0
 25 26  2  0  0  0
 25 71  1  0  0  0
 26 72  1  0  0  0
 27 28  1  0  0  0
 28 73  1  0  0  0
 28 74  1  0  0  0
 28 75  1  0  0  0
 29 31  1  0  0  0
 29 76  1  0  0  0
 29 77  1  0  0  0
 30 78  1  0  0  0
 31 32  2  0  0  0
 31 36  1  0  0  0
 32 33  1  0  0  0
 32 79  1  0  0  0
 33 34  2  0  0  0
 33 80  1  0  0  0
 34 35  1  0  0  0
 34 81  1  0  0  0
 35 36  2  0  0  0
 35 82  1  0  0  0
 36 83  1  0  0  0
 37 38  2  0  0  0
 37 42  1  0  0  0
 38 39  1  0  0  0
 38 84  1  0  0  0
 39 40  2  0  0  0
 39 85  1  0  0  0
 40 41  1  0  0  0
 40 43  1  0  0  0
 41 42  2  0  0  0
 41 86  1  0  0  0
 42 87  1  0  0  0
 43 44  1  0  0  0
 43 88  1  0  0  0
 43 89  1  0  0  0
 44 45  1  0  0  0
 44 90  1  0  0  0
 45 46  2  0  0  0
 45 47  1  0  0  0
 47 48  1  0  0  0
 48 49  1  0  0  0
 48 50  1  0  0  0
 48 51  1  0  0  0
 49 91  1  0  0  0
 49 92  1  0  0  0
 49 93  1  0  0  0
 50 94  1  0  0  0
 50 95  1  0  0  0
 50 96  1  0  0  0
 51 97  1  0  0  0
 51 98  1  0  0  0
 51 99  1  0  0  0
M  END
> <s_m_source_file>
../1zpa_ligand.sdf

> <i_m_source_file_index>
1

> <s_epik_input>
W0NIM11DKFtDSDNdKShbQ0gzXSlPQyg9TylbTkhdW0NIMl1jKFtjSF1bY0hdMSlbY0hdW2NIXWMxQyg9TylbTkhdW0NIMl1jMltjSF1uKG5uMilbQ0BASF0oW0NIMl1jM1tjSF1bY0hdW2NIXVtjSF1bY0hdMylbQ0BIXShbT0hdKVtDSDJdTihbQ0gyXVtDSF0oW0NIM10pW0NIM10pUyg9TykoPU8pYzRbY0hdW2NIXWMoW2NIXVtjSF00KU9bQ0gzXQ==

> <s_epik_cmdline>
J2VwaWtfYXBwJywgJy1pbWFlJywgJ2xpZ2FuZF9wcm8ubWFlJywgJy1vbWFlJywgJ2xpZ2FuZF9wcmVwLm1hZScsICctbXMnLCAnMScsICctcGgnLCAnNycsICctcGh0JywgJzAuNScsICctbnQn

> <r_lp_tautomer_probability>
1

> <r_epik_Ionization_Penalty>
  0.0000

> <r_epik_Ionization_Penalty_Charging>
  0.0000

> <r_epik_Ionization_Penalty_Neutral>
  0.0000

> <r_epik_State_Penalty>
 -0.0000

> <r_epik_Charging_Adjusted_Penalty>
0

> <i_epik_Tot_Q>
0

> <i_epik_Tot_abs_Q>
0

> <s_epik_Chemistry_Notes>
This compound has an ester and may undergo hydrolysis at high or low pH.

$$$$
