1zpb_ligand
                    3D
 Schrodinger Suite 2020-3.
 67 67  0  0  1  0            999 V2000
   11.3020   51.0770   25.3530 C   0  0  1  0  0  0
   11.6400   51.1450   23.8490 C   0  0  2  0  0  0
   11.6440   52.3670   26.1200 C   0  0  0  0  0  0
    9.9060   50.8660   25.4720 O   0  0  0  0  0  0
   10.4880   53.6040   26.4470 S   0  0  0  0  0  0
   11.7440   54.4510   27.2370 C   0  0  0  0  0  0
   12.9470   53.7600   27.2050 C   0  0  0  0  0  0
   12.8480   52.5450   26.5420 N   0  0  0  0  0  0
   11.2840   49.8310   23.1240 C   0  0  0  0  0  0
   11.1950   50.0540   21.6050 C   0  0  0  0  0  0
   13.0570   51.3430   23.6730 N   0  0  0  0  0  0
   13.6230   52.4290   23.1640 C   0  0  0  0  0  0
   15.1480   52.3870   23.0880 C   0  0  2  0  0  0
   15.8060   52.9700   24.3630 C   0  0  0  0  0  0
   15.6240   54.4930   24.5370 C   0  0  0  0  0  0
   17.3010   52.6320   24.3700 C   0  0  0  0  0  0
   15.6190   53.0870   21.8790 N   0  0  0  0  0  0
   15.3090   52.7060   20.6210 C   0  0  0  0  0  0
   15.9040   53.5390   19.4790 C   0  0  0  0  0  0
   16.8670   52.6720   18.6370 C   0  0  0  0  0  0
   17.3410   53.3200   17.3110 C   0  0  0  0  0  0
   18.2670   52.3300   16.6000 C   0  0  0  0  0  0
   18.1270   54.6240   17.5380 C   0  0  0  0  0  0
   14.5860   51.7260   20.3690 O   0  0  0  0  0  0
   12.9780   53.4090   22.7770 O   0  0  0  0  0  0
   11.4190   48.7530   20.8380 C   0  0  0  0  0  0
   11.3110   49.0400   19.4040 N   0  0  0  0  0  0
   11.0380   48.1540   18.4290 C   0  0  0  0  0  0
   10.8330   46.8600   18.7200 N   0  0  0  0  0  0
   10.9710   48.5790   17.1610 N   0  3  0  0  0  0
   11.8318   50.2283   25.8103 H   0  0  0  0  0  0
   11.1142   52.0060   23.4105 H   0  0  0  0  0  0
    9.4393   49.9916   24.9949 H   0  0  0  0  0  0
   11.6150   55.4235   27.7121 H   0  0  0  0  0  0
   13.8692   54.1312   27.6520 H   0  0  0  0  0  0
   12.0597   49.0781   23.3275 H   0  0  0  0  0  0
   10.3126   49.4637   23.4865 H   0  0  0  0  0  0
   10.1984   50.4432   21.3493 H   0  0  0  0  0  0
   11.9623   50.7788   21.2952 H   0  0  0  0  0  0
   13.7638   50.5548   23.9717 H   0  0  0  0  0  0
   15.4613   51.3386   22.9756 H   0  0  0  0  0  0
   15.2950   52.5004   25.2164 H   0  0  0  0  0  0
   14.5514   54.7370   24.5322 H   0  0  0  0  0  0
   16.1234   55.0188   23.7099 H   0  0  0  0  0  0
   16.0675   54.8084   25.4929 H   0  0  0  0  0  0
   17.4322   51.5469   24.2461 H   0  0  0  0  0  0
   17.7439   52.9481   25.3260 H   0  0  0  0  0  0
   17.7998   53.1585   23.5429 H   0  0  0  0  0  0
   16.2618   53.9747   21.9727 H   0  0  0  0  0  0
   15.0933   53.9091   18.8342 H   0  0  0  0  0  0
   16.4580   54.3922   19.8975 H   0  0  0  0  0  0
   17.7722   52.4548   19.2230 H   0  0  0  0  0  0
   16.3699   51.7286   18.3669 H   0  0  0  0  0  0
   16.4533   53.5595   16.7072 H   0  0  0  0  0  0
   17.7296   51.3864   16.4246 H   0  0  0  0  0  0
   19.1498   52.1381   17.2276 H   0  0  0  0  0  0
   18.5870   52.7542   15.6369 H   0  0  0  0  0  0
   17.4838   55.3556   18.0489 H   0  0  0  0  0  0
   18.4481   55.0321   16.5683 H   0  0  0  0  0  0
   19.0108   54.4160   18.1590 H   0  0  0  0  0  0
   12.4193   48.3584   21.0696 H   0  0  0  0  0  0
   10.6570   48.0170   21.1340 H   0  0  0  0  0  0
   11.4590   50.0659   19.0357 H   0  0  0  0  0  0
   10.8890   46.5153   19.7631 H   0  0  0  0  0  0
   10.6090   46.1441   17.9154 H   0  0  0  0  0  0
   11.1397   49.6405   16.9271 H   0  0  0  0  0  0
   10.7472   47.8666   16.3533 H   0  0  0  0  0  0
  1  2  1  0  0  0
  1  3  1  0  0  0
  1  4  1  0  0  0
  1 31  1  0  0  0
  2  9  1  0  0  0
  2 11  1  0  0  0
  2 32  1  0  0  0
  3  5  1  0  0  0
  3  8  2  0  0  0
  4 33  1  0  0  0
  5  6  1  0  0  0
  6  7  2  0  0  0
  6 34  1  0  0  0
  7  8  1  0  0  0
  7 35  1  0  0  0
  9 10  1  0  0  0
  9 36  1  0  0  0
  9 37  1  0  0  0
 10 26  1  0  0  0
 10 38  1  0  0  0
 10 39  1  0  0  0
 11 12  1  0  0  0
 11 40  1  0  0  0
 12 13  1  0  0  0
 12 25  2  0  0  0
 13 14  1  0  0  0
 13 17  1  0  0  0
 13 41  1  0  0  0
 14 15  1  0  0  0
 14 16  1  0  0  0
 14 42  1  0  0  0
 15 43  1  0  0  0
 15 44  1  0  0  0
 15 45  1  0  0  0
 16 46  1  0  0  0
 16 47  1  0  0  0
 16 48  1  0  0  0
 17 18  1  0  0  0
 17 49  1  0  0  0
 18 19  1  0  0  0
 18 24  2  0  0  0
 19 20  1  0  0  0
 19 50  1  0  0  0
 19 51  1  0  0  0
 20 21  1  0  0  0
 20 52  1  0  0  0
 20 53  1  0  0  0
 21 22  1  0  0  0
 21 23  1  0  0  0
 21 54  1  0  0  0
 22 55  1  0  0  0
 22 56  1  0  0  0
 22 57  1  0  0  0
 23 58  1  0  0  0
 23 59  1  0  0  0
 23 60  1  0  0  0
 26 27  1  0  0  0
 26 61  1  0  0  0
 26 62  1  0  0  0
 27 28  1  0  0  0
 27 63  1  0  0  0
 28 29  1  0  0  0
 28 30  2  0  0  0
 29 64  1  0  0  0
 29 65  1  0  0  0
 30 66  1  0  0  0
 30 67  1  0  0  0
M  CHG  1  30   1
M  END
> <s_m_source_file>
../1zpb_ligand.sdf

> <i_m_source_file_index>
1

> <s_epik_input>
W0hdL049QyhbTkgyXSlcW05IXVtDSDJdW0NIMl1bQ0gyXVtDQEBIXShbQ0BIXShbT0hdKWMxc1tjSF1bY0hdbjEpW05IXUMoPU8pW0NASF0oW0NIXShbQ0gzXSlbQ0gzXSlbTkhdQyg9TylbQ0gyXVtDSDJdW0NIXShbQ0gzXSlbQ0gzXQ==

> <s_epik_cmdline>
J2VwaWtfYXBwJywgJy1pbWFlJywgJ2xpZ2FuZF9wcm8ubWFlJywgJy1vbWFlJywgJ2xpZ2FuZF9wcmVwLm1hZScsICctbXMnLCAnMScsICctcGgnLCAnNycsICctcGh0JywgJzAuNScsICctbnQn

> <r_lp_tautomer_probability>
1

> <r_epik_Ionization_Penalty>
  0.0000

> <r_epik_Ionization_Penalty_Charging>
  0.0000

> <r_epik_Ionization_Penalty_Neutral>
  0.0000

> <r_epik_State_Penalty>
 -0.0000

> <r_epik_Charging_Adjusted_Penalty>
2.72528587278395e-06

> <i_epik_Tot_Q>
1

> <i_epik_Tot_abs_Q>
1

> <s_epik_Chemistry_Notes>
This compound has an imine and may undergo hydrolysis.

$$$$
