1zpc_ligand
                    3D
 Schrodinger Suite 2020-3.
 66 67  0  0  1  0            999 V2000
   11.3730   51.0630   25.0880 C   0  0  1  0  0  0
   11.7040   51.1250   23.5590 C   0  0  1  0  0  0
   11.5820   52.3130   25.8020 C   0  0  0  0  0  0
    9.9920   50.7170   25.1400 O   0  0  0  0  0  0
   13.1740   51.3280   23.4730 N   0  0  0  0  0  0
   11.4700   49.8080   22.7890 C   0  0  0  0  0  0
   12.1050   49.7330   21.4140 C   0  0  0  0  0  0
   11.5080   48.6020   20.6400 C   0  0  0  0  0  0
   11.5290   48.9980   19.2300 N   0  0  0  0  0  0
   11.3190   48.1750   18.1840 C   0  0  0  0  0  0
   11.0640   46.8670   18.3780 N   0  0  0  0  0  0
   11.3710   48.6820   16.9450 N   0  3  0  0  0  0
   12.6300   52.5620   26.4950 N   0  0  0  0  0  0
   12.5680   53.8220   27.0680 C   0  0  0  0  0  0
   11.4130   54.4910   26.7570 C   0  0  0  0  0  0
   10.4060   53.5650   25.7590 S   0  0  0  0  0  0
   15.7550   53.1180   21.8330 N   0  0  0  0  0  0
   15.3470   52.4030   23.0550 C   0  0  2  0  0  0
   13.7960   52.4470   23.0680 C   0  0  0  0  0  0
   13.1730   53.4630   22.7090 O   0  0  0  0  0  0
   15.9350   53.0890   24.3480 C   0  0  0  0  0  0
   17.4550   53.0230   24.3190 C   0  0  0  0  0  0
   15.5740   54.5920   24.4980 C   0  0  0  0  0  0
   15.4520   52.7760   20.5480 C   0  0  0  0  0  0
   16.0000   53.7440   19.4610 C   0  0  2  0  0  0
   14.7820   51.7740   20.2450 O   0  0  0  0  0  0
   14.9890   53.9260   18.4780 O   0  0  0  0  0  0
   17.3060   53.2040   18.8110 C   0  0  0  0  0  0
   18.4710   52.9490   19.6600 C   0  0  0  0  0  0
   19.6990   52.4470   19.0900 C   0  0  0  0  0  0
   19.8140   52.1840   17.6830 C   0  0  0  0  0  0
   18.6980   52.4170   16.8020 C   0  0  0  0  0  0
   17.4380   52.9280   17.3600 C   0  0  0  0  0  0
   18.8870   52.0820   15.1350 Cl  0  0  0  0  0  0
   11.9935   50.3502   25.6510 H   0  0  0  0  0  0
   11.0930   51.9189   23.1047 H   0  0  0  0  0  0
    9.6367   49.7971   24.6526 H   0  0  0  0  0  0
   13.8590   50.5154   23.7566 H   0  0  0  0  0  0
   11.8818   48.9674   23.3667 H   0  0  0  0  0  0
   10.3906   49.6569   22.6404 H   0  0  0  0  0  0
   11.9265   50.6756   20.8758 H   0  0  0  0  0  0
   13.1878   49.5699   21.5186 H   0  0  0  0  0  0
   12.1059   47.6926   20.7996 H   0  0  0  0  0  0
   10.4771   48.4276   20.9817 H   0  0  0  0  0  0
   11.7289   50.0443   18.9555 H   0  0  0  0  0  0
   11.0234   46.4601   19.3992 H   0  0  0  0  0  0
   10.8964   46.2055   17.5153 H   0  0  0  0  0  0
   11.5800   49.7518   16.7968 H   0  0  0  0  0  0
   13.3541   54.2369   27.6989 H   0  0  0  0  0  0
   11.1725   55.4944   27.1084 H   0  0  0  0  0  0
   16.3683   54.0281   21.9071 H   0  0  0  0  0  0
   15.7408   51.3776   22.9954 H   0  0  0  0  0  0
   15.5175   52.5399   25.2049 H   0  0  0  0  0  0
   17.7746   51.9757   24.2135 H   0  0  0  0  0  0
   17.8579   53.4368   25.2552 H   0  0  0  0  0  0
   17.8312   53.6088   23.4674 H   0  0  0  0  0  0
   14.4802   54.7054   24.5252 H   0  0  0  0  0  0
   15.9797   55.1536   23.6436 H   0  0  0  0  0  0
   16.0064   54.9815   25.4314 H   0  0  0  0  0  0
   16.1911   54.7457   19.8735 H   0  0  0  0  0  0
   13.9984   54.3039   18.7712 H   0  0  0  0  0  0
   18.4109   53.1397   20.7315 H   0  0  0  0  0  0
   20.5548   52.2643   19.7399 H   0  0  0  0  0  0
   20.7526   51.8053   17.2785 H   0  0  0  0  0  0
   16.5899   53.1064   16.6990 H   0  0  0  0  0  0
   11.2047   48.0285   16.0759 H   0  0  0  0  0  0
  1  2  1  0  0  0
  1  3  1  0  0  0
  1  4  1  0  0  0
  1 35  1  0  0  0
  2  5  1  0  0  0
  2  6  1  0  0  0
  2 36  1  0  0  0
  3 13  2  0  0  0
  3 16  1  0  0  0
  4 37  1  0  0  0
  5 19  1  0  0  0
  5 38  1  0  0  0
  6  7  1  0  0  0
  6 39  1  0  0  0
  6 40  1  0  0  0
  7  8  1  0  0  0
  7 41  1  0  0  0
  7 42  1  0  0  0
  8  9  1  0  0  0
  8 43  1  0  0  0
  8 44  1  0  0  0
  9 10  1  0  0  0
  9 45  1  0  0  0
 10 11  1  0  0  0
 10 12  2  0  0  0
 11 46  1  0  0  0
 11 47  1  0  0  0
 12 48  1  0  0  0
 12 66  1  0  0  0
 13 14  1  0  0  0
 14 15  2  0  0  0
 14 49  1  0  0  0
 15 16  1  0  0  0
 15 50  1  0  0  0
 17 18  1  0  0  0
 17 24  1  0  0  0
 17 51  1  0  0  0
 18 19  1  0  0  0
 18 21  1  0  0  0
 18 52  1  0  0  0
 19 20  2  0  0  0
 21 22  1  0  0  0
 21 23  1  0  0  0
 21 53  1  0  0  0
 22 54  1  0  0  0
 22 55  1  0  0  0
 22 56  1  0  0  0
 23 57  1  0  0  0
 23 58  1  0  0  0
 23 59  1  0  0  0
 24 25  1  0  0  0
 24 26  2  0  0  0
 25 27  1  0  0  0
 25 28  1  0  0  0
 25 60  1  0  0  0
 27 61  1  0  0  0
 28 29  2  0  0  0
 28 33  1  0  0  0
 29 30  1  0  0  0
 29 62  1  0  0  0
 30 31  2  0  0  0
 30 63  1  0  0  0
 31 32  1  0  0  0
 31 64  1  0  0  0
 32 33  2  0  0  0
 32 34  1  0  0  0
 33 65  1  0  0  0
M  CHG  1  12   1
M  END
> <s_m_source_file>
../1zpc_ligand.sdf

> <i_m_source_file_index>
1

> <s_epik_input>
W0hdL049QyhbTkgyXSlcW05IXVtDSDJdW0NIMl1bQ0gyXVtDQEBIXShbQ0BIXShbT0hdKWMxbltjSF1bY0hdczEpW05IXUMoPU8pW0NASF0oW0NIXShbQ0gzXSlbQ0gzXSlbTkhdQyg9TylbQ0BIXShbT0hdKWMyW2NIXVtjSF1bY0hdYyhDbClbY0hdMg==

> <s_epik_cmdline>
J2VwaWtfYXBwJywgJy1pbWFlJywgJ2xpZ2FuZF9wcm8ubWFlJywgJy1vbWFlJywgJ2xpZ2FuZF9wcmVwLm1hZScsICctbXMnLCAnMScsICctcGgnLCAnNycsICctcGh0JywgJzAuNScsICctbnQn

> <r_lp_tautomer_probability>
1

> <r_epik_Ionization_Penalty>
  0.0002

> <r_epik_Ionization_Penalty_Charging>
  0.0000

> <r_epik_Ionization_Penalty_Neutral>
  0.0002

> <r_epik_State_Penalty>
 -0.0000

> <r_epik_Charging_Adjusted_Penalty>
2.72528587278395e-06

> <i_epik_Tot_Q>
1

> <i_epik_Tot_abs_Q>
1

> <s_epik_Chemistry_Notes>
This compound has an imine and may undergo hydrolysis.

$$$$
