1zrz_ligand
                    3D
 Schrodinger Suite 2020-3.
 54 58  0  0  1  0            999 V2000
  -11.2450   24.7870   23.0670 C   0  0  0  0  0  0
  -10.9000   23.6670   22.2090 N   0  3  0  0  0  0
  -10.9470   22.3110   22.7580 C   0  0  0  0  0  0
  -10.5320   24.0460   20.8220 C   0  0  0  0  0  0
  -10.1970   22.8530   19.9290 C   0  0  0  0  0  0
   -8.8690   23.1630   19.2510 C   0  0  0  0  0  0
   -8.5150   22.0610   18.3450 N   0  0  0  0  0  0
   -8.0690   20.8400   18.7800 C   0  0  0  0  0  0
   -8.5850   22.0960   16.9930 C   0  0  0  0  0  0
   -8.9720   23.1040   16.0530 C   0  0  0  0  0  0
   -8.9440   22.8450   14.6690 C   0  0  0  0  0  0
   -8.5300   21.5660   14.1790 C   0  0  0  0  0  0
   -8.1390   20.5410   15.0950 C   0  0  0  0  0  0
   -8.1700   20.8210   16.5000 C   0  0  0  0  0  0
   -7.8580   20.0740   17.6410 C   0  0  0  0  0  0
   -7.3510   18.6300   17.7670 C   0  0  0  0  0  0
   -6.2980   18.0070   16.9250 C   0  0  0  0  0  0
   -5.6880   18.6160   15.9810 O   0  5  0  0  0  0
   -6.0130   16.7280   17.2250 N   0  0  0  0  0  0
   -6.8050   16.4080   18.2330 C   0  0  0  0  0  0
   -6.7460   15.2420   18.7350 O   0  0  0  0  0  0
   -7.7110   17.5110   18.6850 C   0  0  0  0  0  0
   -8.7160   17.4240   19.8290 C   0  0  0  0  0  0
  -10.0040   18.0400   19.9650 C   0  0  0  0  0  0
  -10.8120   18.9050   19.1480 C   0  0  0  0  0  0
  -12.0730   19.3400   19.6200 C   0  0  0  0  0  0
  -12.5100   18.9080   20.8960 C   0  0  0  0  0  0
  -11.7210   18.0440   21.7220 C   0  0  0  0  0  0
  -10.4360   17.6020   21.2400 C   0  0  0  0  0  0
   -9.4660   16.7930   21.7840 N   0  0  0  0  0  0
   -8.4020   16.6600   20.9590 C   0  0  0  0  0  0
  -11.5025   24.4150   24.0697 H   0  0  0  0  0  0
  -12.1067   25.3226   22.6421 H   0  0  0  0  0  0
  -10.3870   25.4716   23.1391 H   0  0  0  0  0  0
   -9.8477   23.7552   22.5170 H   0  0  0  0  0  0
  -11.2541   22.3532   23.8134 H   0  0  0  0  0  0
   -9.9506   21.8508   22.6841 H   0  0  0  0  0  0
  -11.6716   21.7100   22.1890 H   0  0  0  0  0  0
  -11.3711   24.5810   20.3532 H   0  0  0  0  0  0
   -9.6468   24.6987   20.8428 H   0  0  0  0  0  0
  -10.1163   21.9452   20.5449 H   0  0  0  0  0  0
  -10.9930   22.7194   19.1817 H   0  0  0  0  0  0
   -8.9599   24.0965   18.6763 H   0  0  0  0  0  0
   -8.0854   23.2773   20.0145 H   0  0  0  0  0  0
   -7.9114   20.5318   19.8136 H   0  0  0  0  0  0
   -9.2917   24.0822   16.4122 H   0  0  0  0  0  0
   -9.2397   23.6241   13.9664 H   0  0  0  0  0  0
   -8.5128   21.3733   13.1063 H   0  0  0  0  0  0
   -7.8227   19.5634   14.7312 H   0  0  0  0  0  0
  -10.4532   19.2284   18.1598 H   0  0  0  0  0  0
  -12.6944   20.0017   18.9987 H   0  0  0  0  0  0
  -13.4800   19.2446   21.2620 H   0  0  0  0  0  0
  -12.0802   17.7174   22.7091 H   0  0  0  0  0  0
   -7.5444   16.0417   21.2627 H   0  0  0  0  0  0
  1  2  1  0  0  0
  1 32  1  0  0  0
  1 33  1  0  0  0
  1 34  1  0  0  0
  2  3  1  0  0  0
  2  4  1  0  0  0
  2 35  1  0  0  0
  3 36  1  0  0  0
  3 37  1  0  0  0
  3 38  1  0  0  0
  4  5  1  0  0  0
  4 39  1  0  0  0
  4 40  1  0  0  0
  5  6  1  0  0  0
  5 41  1  0  0  0
  5 42  1  0  0  0
  6  7  1  0  0  0
  6 43  1  0  0  0
  6 44  1  0  0  0
  7  8  1  0  0  0
  7  9  1  0  0  0
  8 15  2  0  0  0
  8 45  1  0  0  0
  9 10  2  0  0  0
  9 14  1  0  0  0
 10 11  1  0  0  0
 10 46  1  0  0  0
 11 12  2  0  0  0
 11 47  1  0  0  0
 12 13  1  0  0  0
 12 48  1  0  0  0
 13 14  2  0  0  0
 13 49  1  0  0  0
 14 15  1  0  0  0
 15 16  1  0  0  0
 16 17  1  0  0  0
 16 22  2  0  0  0
 17 18  1  0  0  0
 17 19  2  0  0  0
 19 20  1  0  0  0
 20 21  2  0  0  0
 20 22  1  0  0  0
 22 23  1  0  0  0
 23 24  2  0  0  0
 23 31  1  0  0  0
 24 25  1  0  0  0
 24 29  1  0  0  0
 25 26  2  0  0  0
 25 50  1  0  0  0
 26 27  1  0  0  0
 26 51  1  0  0  0
 27 28  1  0  0  0
 27 52  1  0  0  0
 28 29  2  0  0  0
 28 53  1  0  0  0
 29 30  1  0  0  0
 30 31  2  0  0  0
 31 54  1  0  0  0
M  CHG  2   2   1  18  -1
M  END
> <s_m_source_file>
../1zrz_ligand.sdf

> <i_m_source_file_index>
1

> <s_epik_input>
W0NIM11bTkgrXShbQ0gzXSlbQ0gyXVtDSDJdW0NIMl1uMVtjSF1jKGMoYzEyKVtjSF1bY0hdW2NIXVtjSF0yKUMzPUMoQyg9TylbTkhdQzM9TylDPTRbQ0hdPU5DKEM0NSk9W0NIXVtDSDJdW0NIXT1bQ0hdNQ==

> <s_epik_cmdline>
J2VwaWtfYXBwJywgJy1pbWFlJywgJ2xpZ2FuZF9wcm8ubWFlJywgJy1vbWFlJywgJ2xpZ2FuZF9wcmVwLm1hZScsICctbXMnLCAnMScsICctcGgnLCAnNycsICctcGh0JywgJzAuNScsICctbnQn

> <r_lp_tautomer_probability>
1

> <r_epik_Ionization_Penalty>
  0.0109

> <r_epik_Ionization_Penalty_Charging>
  0.0109

> <r_epik_Ionization_Penalty_Neutral>
  0.0000

> <r_epik_State_Penalty>
 -0.0000

> <r_epik_Charging_Adjusted_Penalty>
0.0108641612970909

> <i_epik_Tot_Q>
0

> <i_epik_Tot_abs_Q>
2

> <s_epik_Chemistry_Notes>
This compound has an imine and may undergo hydrolysis.

$$$$
