1zs0_ligand
                    3D
 Schrodinger Suite 2020-3.
 47 48  0  0  1  0            999 V2000
    9.3810   20.2040   12.2520 C   0  0  0  0  0  0
    9.8320   18.8310   12.5710 C   0  0  0  0  0  0
    9.1750   17.6940   11.9930 C   0  0  0  0  0  0
    8.0190   17.8930   11.0560 C   0  0  0  0  0  0
    7.5750   19.2460   10.7490 C   0  0  0  0  0  0
    8.2470   20.3860   11.3380 C   0  0  0  0  0  0
    7.3090   16.7590   10.4310 O   0  0  0  0  0  0
    7.9010   15.4780   10.7120 C   0  0  0  0  0  0
   10.0730   21.3840   12.8490 C   0  0  0  0  0  0
   11.5340   21.3730   13.0190 C   0  0  0  0  0  0
   12.2160   22.4970   13.5860 C   0  0  0  0  0  0
   11.4830   23.6710   13.9950 C   0  0  0  0  0  0
   10.0240   23.7240   13.8420 C   0  0  0  0  0  0
    9.3220   22.5910   13.2700 C   0  0  0  0  0  0
   12.3610   25.0310   14.6790 S   0  0  0  0  0  0
   11.7340   26.3390   14.2180 O   0  0  0  0  0  0
   13.8480   24.9630   14.2270 O   0  0  0  0  0  0
   12.2630   24.9070   16.3990 N   0  0  3  0  0  0
   11.2240   25.4890   17.2430 C   0  0  2  0  0  0
   11.8600   26.2510   18.4860 C   0  0  0  0  0  0
   10.8970   27.2370   19.2020 C   0  0  0  0  0  0
   12.9090   27.2370   18.0080 C   0  0  0  0  0  0
   10.1710   24.1750   17.8760 P   0  0  0  0  0  0
    8.5150   24.5160   17.7600 O   0  5  0  0  0  0
   10.3310   23.7220   19.5260 O   0  0  0  0  0  0
   10.2490   22.7860   17.0030 O   0  0  0  0  0  0
   10.6707   18.6823   13.2511 H   0  0  0  0  0  0
    9.5148   16.6867   12.2339 H   0  0  0  0  0  0
    6.7338   19.4011   10.0734 H   0  0  0  0  0  0
    7.9058   21.3933   11.0991 H   0  0  0  0  0  0
    7.3190   14.6881   10.2147 H   0  0  0  0  0  0
    7.9013   15.3046   11.7982 H   0  0  0  0  0  0
    8.9353   15.4621   10.3378 H   0  0  0  0  0  0
   12.1049   20.4977   12.7093 H   0  0  0  0  0  0
   13.2985   22.4657   13.7099 H   0  0  0  0  0  0
    9.4715   24.6095   14.1564 H   0  0  0  0  0  0
    8.2393   22.6270   13.1493 H   0  0  0  0  0  0
   13.1633   24.4711   16.8567 H   0  0  0  0  0  0
   10.8105   26.2429   16.5569 H   0  0  0  0  0  0
   12.2231   25.4522   19.1494 H   0  0  0  0  0  0
   10.0481   26.6790   19.6240 H   0  0  0  0  0  0
   10.5257   27.9775   18.4782 H   0  0  0  0  0  0
   11.4352   27.7528   20.0109 H   0  0  0  0  0  0
   13.6968   26.6979   17.4615 H   0  0  0  0  0  0
   13.3502   27.7517   18.8743 H   0  0  0  0  0  0
   12.4406   27.9763   17.3417 H   0  0  0  0  0  0
   10.3089   24.4911   20.3121 H   0  0  0  0  0  0
  1  2  2  0  0  0
  1  6  1  0  0  0
  1  9  1  0  0  0
  2  3  1  0  0  0
  2 27  1  0  0  0
  3  4  2  0  0  0
  3 28  1  0  0  0
  4  5  1  0  0  0
  4  7  1  0  0  0
  5  6  2  0  0  0
  5 29  1  0  0  0
  6 30  1  0  0  0
  7  8  1  0  0  0
  8 31  1  0  0  0
  8 32  1  0  0  0
  8 33  1  0  0  0
  9 10  2  0  0  0
  9 14  1  0  0  0
 10 11  1  0  0  0
 10 34  1  0  0  0
 11 12  2  0  0  0
 11 35  1  0  0  0
 12 13  1  0  0  0
 12 15  1  0  0  0
 13 14  2  0  0  0
 13 36  1  0  0  0
 14 37  1  0  0  0
 15 16  2  0  0  0
 15 17  2  0  0  0
 15 18  1  0  0  0
 18 19  1  0  0  0
 18 38  1  0  0  0
 19 20  1  0  0  0
 19 23  1  0  0  0
 19 39  1  0  0  0
 20 21  1  0  0  0
 20 22  1  0  0  0
 20 40  1  0  0  0
 21 41  1  0  0  0
 21 42  1  0  0  0
 21 43  1  0  0  0
 22 44  1  0  0  0
 22 45  1  0  0  0
 22 46  1  0  0  0
 23 24  1  0  0  0
 23 25  1  0  0  0
 23 26  2  0  0  0
 25 47  1  0  0  0
M  CHG  1  24  -1
M  END
> <s_m_source_file>
../1zs0_ligand.sdf

> <i_m_source_file_index>
1

> <s_epik_input>
W2NIXTFbY0hdYyhPW0NIM10pW2NIXVtjSF1jMS1jMltjSF1bY0hdYyhbY0hdW2NIXTIpUyg9TykoPU8pW05IXVtDQEhdKFtDSF0oW0NIM10pW0NIM10pUCg9TykoW09IXSlbT0hd

> <s_epik_cmdline>
J2VwaWtfYXBwJywgJy1pbWFlJywgJ2xpZ2FuZF9wcm8ubWFlJywgJy1vbWFlJywgJ2xpZ2FuZF9wcmVwLm1hZScsICctbXMnLCAnMScsICctcGgnLCAnNycsICctcGh0JywgJzAuNScsICctbnQn

> <r_lp_tautomer_probability>
1

> <r_epik_Ionization_Penalty>
  0.4013

> <r_epik_Ionization_Penalty_Charging>
  0.0000

> <r_epik_Ionization_Penalty_Neutral>
  0.4013

> <r_epik_State_Penalty>
  0.4006

> <r_epik_Charging_Adjusted_Penalty>
0.4005982585136

> <i_epik_Tot_Q>
-1

> <i_epik_Tot_abs_Q>
1

$$$$
