1zsf_ligand
                    3D
 Schrodinger Suite 2020-3.
100102  0  0  1  0            999 V2000
  -21.9020   40.1520   30.4450 O   0  0  0  0  0  0
  -21.0870   39.3320   30.8210 C   0  0  0  0  0  0
  -20.9950   38.8920   32.1020 O   0  0  0  0  0  0
  -22.1800   39.0160   32.9650 C   0  0  0  0  0  0
  -21.8430   38.3730   34.2980 C   0  0  0  0  0  0
  -23.3200   38.2870   32.2650 C   0  0  0  0  0  0
  -22.4510   40.5070   33.1000 C   0  0  0  0  0  0
  -20.0650   38.7960   30.1080 N   0  0  0  0  0  0
  -19.8070   39.1060   28.7090 C   0  0  2  0  0  0
  -20.1440   37.9280   27.7750 C   0  0  2  0  0  0
  -20.2140   38.4230   26.4400 O   0  0  0  0  0  0
  -18.3410   39.5200   28.5370 C   0  0  0  0  0  0
  -18.0850   40.9850   28.8320 C   0  0  0  0  0  0
  -19.0970   41.9200   28.7190 C   0  0  0  0  0  0
  -16.8210   41.4090   29.2150 C   0  0  0  0  0  0
  -18.8560   43.2570   28.9760 C   0  0  0  0  0  0
  -16.5680   42.7460   29.4670 C   0  0  0  0  0  0
  -17.5920   43.6710   29.3510 C   0  0  0  0  0  0
  -21.4900   37.2860   28.1590 C   0  0  0  0  0  0
  -21.8880   36.2290   27.2250 N   0  3  0  0  0  0
  -23.2940   36.2000   26.8770 C   0  0  2  0  0  0
  -23.6240   37.1520   25.7250 C   0  0  0  0  0  0
  -23.9780   38.3130   25.9350 O   0  0  0  0  0  0
  -24.1970   36.5660   28.0640 C   0  0  0  0  0  0
  -25.6620   36.5500   27.6340 C   0  0  0  0  0  0
  -26.1470   35.4760   26.9040 C   0  0  0  0  0  0
  -26.5140   37.5930   27.9410 C   0  0  0  0  0  0
  -27.4640   35.4350   26.4880 C   0  0  0  0  0  0
  -27.8330   37.5610   27.5410 C   0  0  0  0  0  0
  -28.3040   36.4880   26.8040 C   0  0  0  0  0  0
  -23.6270   36.6240   24.5050 N   0  0  0  0  0  0
  -23.8600   37.4790   23.3450 C   0  0  2  0  0  0
  -24.7490   36.8140   22.3120 C   0  0  0  0  0  0
  -24.5480   35.6740   21.9240 O   0  0  0  0  0  0
  -22.5170   37.9150   22.7610 C   0  0  0  0  0  0
  -22.6210   38.9800   21.6810 C   0  0  0  0  0  0
  -22.8940   38.3370   20.3300 C   0  0  0  0  0  0
  -22.8390   39.0310   19.2940 O   0  0  0  0  0  0
  -23.0460   37.0970   20.2920 O   0  5  0  0  0  0
  -25.7540   37.5420   21.8360 N   0  0  0  0  0  0
  -26.5920   36.9600   20.7790 C   0  0  2  0  0  0
  -26.8450   38.0000   19.6920 C   0  0  0  0  0  0
  -27.2010   39.1410   19.9740 O   0  0  0  0  0  0
  -27.9010   36.4210   21.3390 C   0  0  0  0  0  0
  -28.8940   37.4590   21.8350 C   0  0  0  0  0  0
  -29.6950   38.1760   20.9680 C   0  0  0  0  0  0
  -29.0100   37.7110   23.1950 C   0  0  0  0  0  0
  -30.5810   39.1200   21.4310 C   0  0  0  0  0  0
  -29.9060   38.6550   23.6670 C   0  0  0  0  0  0
  -30.7020   39.3640   22.7900 C   0  0  0  0  0  0
  -26.6320   37.5980   18.4320 N   0  0  0  0  0  0
  -21.6558   37.2992   34.1502 H   0  0  0  0  0  0
  -22.6854   38.5062   34.9927 H   0  0  0  0  0  0
  -20.9435   38.8477   34.7171 H   0  0  0  0  0  0
  -23.0797   37.2161   32.1908 H   0  0  0  0  0  0
  -23.4563   38.7030   31.2559 H   0  0  0  0  0  0
  -24.2471   38.4156   32.8429 H   0  0  0  0  0  0
  -21.6036   40.9890   33.6095 H   0  0  0  0  0  0
  -23.3680   40.6612   33.6876 H   0  0  0  0  0  0
  -22.5773   40.9487   32.1005 H   0  0  0  0  0  0
  -19.4125   38.0915   30.6446 H   0  0  0  0  0  0
  -20.4848   39.9418   28.4810 H   0  0  0  0  0  0
  -19.3487   37.1681   27.7875 H   0  0  0  0  0  0
  -19.3405   38.9178   25.9904 H   0  0  0  0  0  0
  -17.7114   38.9324   29.2214 H   0  0  0  0  0  0
  -18.0269   39.3343   27.4993 H   0  0  0  0  0  0
  -20.0962   41.5996   28.4240 H   0  0  0  0  0  0
  -16.0172   40.6802   29.3187 H   0  0  0  0  0  0
  -19.6626   43.9842   28.8829 H   0  0  0  0  0  0
  -15.5678   43.0694   29.7553 H   0  0  0  0  0  0
  -17.4012   44.7246   29.5553 H   0  0  0  0  0  0
  -21.4116   36.8423   29.1625 H   0  0  0  0  0  0
  -22.2765   38.0551   28.1586 H   0  0  0  0  0  0
  -21.3374   36.3481   26.2802 H   0  0  0  0  0  0
  -21.6568   35.2467   27.6628 H   0  0  0  0  0  0
  -23.4289   35.1499   26.5784 H   0  0  0  0  0  0
  -24.0509   35.8367   28.8744 H   0  0  0  0  0  0
  -23.9380   37.5722   28.4252 H   0  0  0  0  0  0
  -25.4793   34.6514   26.6544 H   0  0  0  0  0  0
  -26.1405   38.4483   28.5041 H   0  0  0  0  0  0
  -27.8365   34.5838   25.9181 H   0  0  0  0  0  0
  -28.5036   38.3789   27.8045 H   0  0  0  0  0  0
  -29.3418   36.4726   26.4710 H   0  0  0  0  0  0
  -23.4546   35.5463   24.3681 H   0  0  0  0  0  0
  -24.4147   38.3543   23.7140 H   0  0  0  0  0  0
  -21.8861   38.3288   23.5615 H   0  0  0  0  0  0
  -22.0142   37.0469   22.3097 H   0  0  0  0  0  0
  -23.4435   39.6690   21.9235 H   0  0  0  0  0  0
  -21.6764   39.5412   21.6272 H   0  0  0  0  0  0
  -25.9664   38.5538   22.2117 H   0  0  0  0  0  0
  -26.0257   36.1129   20.3645 H   0  0  0  0  0  0
  -28.4243   35.8471   20.5601 H   0  0  0  0  0  0
  -27.6906   35.7665   22.1977 H   0  0  0  0  0  0
  -29.6234   37.9900   19.8964 H   0  0  0  0  0  0
  -28.3882   37.1591   23.8999 H   0  0  0  0  0  0
  -31.1927   39.6806   20.7241 H   0  0  0  0  0  0
  -29.9834   38.8396   24.7385 H   0  0  0  0  0  0
  -31.4132   40.1027   23.1597 H   0  0  0  0  0  0
  -26.3136   36.5645   18.2308 H   0  0  0  0  0  0
  -26.7755   38.3014   17.5986 H   0  0  0  0  0  0
  1  2  2  0  0  0
  2  3  1  0  0  0
  2  8  1  0  0  0
  3  4  1  0  0  0
  4  5  1  0  0  0
  4  6  1  0  0  0
  4  7  1  0  0  0
  5 52  1  0  0  0
  5 53  1  0  0  0
  5 54  1  0  0  0
  6 55  1  0  0  0
  6 56  1  0  0  0
  6 57  1  0  0  0
  7 58  1  0  0  0
  7 59  1  0  0  0
  7 60  1  0  0  0
  8  9  1  0  0  0
  8 61  1  0  0  0
  9 10  1  0  0  0
  9 12  1  0  0  0
  9 62  1  0  0  0
 10 11  1  0  0  0
 10 19  1  0  0  0
 10 63  1  0  0  0
 11 64  1  0  0  0
 12 13  1  0  0  0
 12 65  1  0  0  0
 12 66  1  0  0  0
 13 14  2  0  0  0
 13 15  1  0  0  0
 14 16  1  0  0  0
 14 67  1  0  0  0
 15 17  2  0  0  0
 15 68  1  0  0  0
 16 18  2  0  0  0
 16 69  1  0  0  0
 17 18  1  0  0  0
 17 70  1  0  0  0
 18 71  1  0  0  0
 19 20  1  0  0  0
 19 72  1  0  0  0
 19 73  1  0  0  0
 20 21  1  0  0  0
 20 74  1  0  0  0
 20 75  1  0  0  0
 21 22  1  0  0  0
 21 24  1  0  0  0
 21 76  1  0  0  0
 22 23  2  0  0  0
 22 31  1  0  0  0
 24 25  1  0  0  0
 24 77  1  0  0  0
 24 78  1  0  0  0
 25 26  2  0  0  0
 25 27  1  0  0  0
 26 28  1  0  0  0
 26 79  1  0  0  0
 27 29  2  0  0  0
 27 80  1  0  0  0
 28 30  2  0  0  0
 28 81  1  0  0  0
 29 30  1  0  0  0
 29 82  1  0  0  0
 30 83  1  0  0  0
 31 32  1  0  0  0
 31 84  1  0  0  0
 32 33  1  0  0  0
 32 35  1  0  0  0
 32 85  1  0  0  0
 33 34  2  0  0  0
 33 40  1  0  0  0
 35 36  1  0  0  0
 35 86  1  0  0  0
 35 87  1  0  0  0
 36 37  1  0  0  0
 36 88  1  0  0  0
 36 89  1  0  0  0
 37 38  2  0  0  0
 37 39  1  0  0  0
 40 41  1  0  0  0
 40 90  1  0  0  0
 41 42  1  0  0  0
 41 44  1  0  0  0
 41 91  1  0  0  0
 42 43  2  0  0  0
 42 51  1  0  0  0
 44 45  1  0  0  0
 44 92  1  0  0  0
 44 93  1  0  0  0
 45 46  2  0  0  0
 45 47  1  0  0  0
 46 48  1  0  0  0
 46 94  1  0  0  0
 47 49  2  0  0  0
 47 95  1  0  0  0
 48 50  2  0  0  0
 48 96  1  0  0  0
 49 50  1  0  0  0
 49 97  1  0  0  0
 50 98  1  0  0  0
 51 99  1  0  0  0
 51100  1  0  0  0
M  CHG  2  20   1  39  -1
M  END
> <s_m_source_file>
../1zsf_ligand.sdf

> <i_m_source_file_index>
1

> <s_epik_input>
W2NIXTFbY0hdW2NIXVtjSF1bY0hdYzFbQ0gyXVtDQEhdKFtOSF1DKD1PKU9DKFtDSDNdKShbQ0gzXSlbQ0gzXSlbQ0BIXShbT0hdKVtDSDJdW05IMitdW0NAQEhdKFtDSDJdYzJbY0hdW2NIXVtjSF1bY0hdW2NIXTIpQyg9TylbTkhdW0NAQEhdKFtDSDJdW0NIMl1DKD1PKVtPSF0pQyg9TylbTkhdW0NASF0oQyg9TylbTkgyXSlbQ0gyXWMzW2NIXVtjSF1bY0hdW2NIXVtjSF0z

> <s_epik_cmdline>
J2VwaWtfYXBwJywgJy1pbWFlJywgJ2xpZ2FuZF9wcm8ubWFlJywgJy1vbWFlJywgJ2xpZ2FuZF9wcmVwLm1hZScsICctbXMnLCAnMScsICctcGgnLCAnNycsICctcGh0JywgJzAuNScsICctbnQn

> <r_epik_Ionization_Penalty>
  0.0817

> <r_epik_Ionization_Penalty_Charging>
  0.0817

> <r_epik_Ionization_Penalty_Neutral>
  0.0000

> <r_epik_State_Penalty>
  0.0709

> <r_epik_Charging_Adjusted_Penalty>
0.152530859911752

> <i_epik_Tot_Q>
0

> <i_epik_Tot_abs_Q>
2

> <s_epik_Chemistry_Notes>
This compound has an ester and may undergo hydrolysis at high or low pH.

$$$$
