1zsh_ligand
                    3D
 Schrodinger Suite 2020-3.
 48 48  0  0  1  0            999 V2000
  -22.6290   58.7760    4.4350 C   0  0  2  0  0  0
  -21.2710   58.7300    3.7170 C   0  0  1  0  0  0
  -20.8320   58.0500    2.4180 C   0  0  1  0  0  0
  -21.7020   57.0570    1.7820 C   0  0  2  0  0  0
  -22.7620   56.4560    2.7610 C   0  0  1  0  0  0
  -23.5290   57.5240    3.7940 C   0  0  1  0  0  0
  -23.3080   60.1250    4.7940 O   0  0  0  0  0  0
  -23.5890   60.6800    6.4700 P   0  0  0  0  0  0
  -24.4410   61.9750    6.5510 O   0  5  0  0  0  0
  -24.3460   59.5730    7.1630 O   0  0  0  0  0  0
  -22.1850   60.7840    7.1170 O   0  0  0  0  0  0
  -20.3410   59.7870    3.7660 O   0  0  0  0  0  0
  -20.6580   61.3630    4.1660 P   0  0  0  0  0  0
  -21.2580   62.3870    3.1030 O   0  5  0  0  0  0
  -19.9880   61.9530    5.4340 O   0  0  0  0  0  0
  -19.2000   61.2890    3.5730 O   0  0  0  0  0  0
  -19.9100   58.9860    1.7010 O   0  0  0  0  0  0
  -18.3030   58.5860    2.0050 P   0  0  0  0  0  0
  -18.1400   58.3410    3.5340 O   0  5  0  0  0  0
  -17.4690   59.7810    1.4910 O   0  0  0  0  0  0
  -17.9960   57.3640    1.1250 O   0  0  0  0  0  0
  -20.9010   55.8950    1.2750 O   0  0  0  0  0  0
  -20.6870   55.6850   -0.3450 P   0  0  0  0  0  0
  -19.2050   55.4540   -0.5660 O   0  0  0  0  0  0
  -21.2800   57.0190   -0.9190 O   0  5  0  0  0  0
  -21.5530   54.4790   -0.7260 O   0  0  0  0  0  0
  -23.7370   55.6880    2.0080 O   0  0  0  0  0  0
  -23.7100   54.0200    2.0190 P   0  0  0  0  0  0
  -22.2750   53.6630    1.6230 O   0  0  0  0  0  0
  -24.8210   53.7310    0.9790 O   0  5  0  0  0  0
  -24.0060   53.4500    3.4170 O   0  0  0  0  0  0
  -24.0190   56.7340    4.8650 O   0  0  0  0  0  0
  -25.2350   57.3670    5.7360 P   0  0  0  0  0  0
  -26.6990   57.4650    5.3140 O   0  5  0  0  0  0
  -24.7860   57.4510    7.1890 O   0  0  0  0  0  0
  -25.5280   55.7500    5.9900 O   0  0  0  0  0  0
  -22.3919   58.7213    5.5078 H   0  0  0  0  0  0
  -21.2888   58.0455    4.5779 H   0  0  0  0  0  0
  -20.2531   57.1181    2.4988 H   0  0  0  0  0  0
  -22.1558   57.6288    0.9591 H   0  0  0  0  0  0
  -22.1974   55.7101    3.3397 H   0  0  0  0  0  0
  -24.3992   57.9720    3.2920 H   0  0  0  0  0  0
  -21.4672   61.5352    6.7558 H   0  0  0  0  0  0
  -19.0382   60.8964    2.5583 H   0  0  0  0  0  0
  -17.5444   60.7590    1.9889 H   0  0  0  0  0  0
  -21.2663   53.4697   -0.3957 H   0  0  0  0  0  0
  -23.2846   53.5958    4.2345 H   0  0  0  0  0  0
  -25.9127   55.1254    5.1703 H   0  0  0  0  0  0
  1  2  1  0  0  0
  1  6  1  0  0  0
  1  7  1  0  0  0
  1 37  1  0  0  0
  2  3  1  0  0  0
  2 12  1  0  0  0
  2 38  1  0  0  0
  3  4  1  0  0  0
  3 17  1  0  0  0
  3 39  1  0  0  0
  4  5  1  0  0  0
  4 22  1  0  0  0
  4 40  1  0  0  0
  5  6  1  0  0  0
  5 27  1  0  0  0
  5 41  1  0  0  0
  6 32  1  0  0  0
  6 42  1  0  0  0
  7  8  1  0  0  0
  8  9  1  0  0  0
  8 10  2  0  0  0
  8 11  1  0  0  0
 11 43  1  0  0  0
 12 13  1  0  0  0
 13 14  1  0  0  0
 13 15  2  0  0  0
 13 16  1  0  0  0
 16 44  1  0  0  0
 17 18  1  0  0  0
 18 19  1  0  0  0
 18 20  1  0  0  0
 18 21  2  0  0  0
 20 45  1  0  0  0
 22 23  1  0  0  0
 23 24  2  0  0  0
 23 25  1  0  0  0
 23 26  1  0  0  0
 26 46  1  0  0  0
 27 28  1  0  0  0
 28 29  2  0  0  0
 28 30  1  0  0  0
 28 31  1  0  0  0
 31 47  1  0  0  0
 32 33  1  0  0  0
 33 34  1  0  0  0
 33 35  2  0  0  0
 33 36  1  0  0  0
 36 48  1  0  0  0
M  CHG  6   9  -1  14  -1  19  -1  25  -1  30  -1  34  -1
M  END
> <s_m_source_file>
../1zsh_ligand.sdf

> <i_m_source_file_index>
1

> <s_epik_input>
W09IXVAoPU8pKFtPSF0pT1tDQEBIXTFbQ0BIXShPUCg9TykoW09IXSlbT0hdKVtDQEhdKE9QKD1PKShbT0hdKVtPSF0pW0NAQEhdKE9QKD1PKShbT0hdKVtPSF0pW0NASF0oT1AoPU8pKFtPSF0pW09IXSlbQ0BIXTFPUCg9TykoW09IXSlbT0hd

> <s_epik_cmdline>
J2VwaWtfYXBwJywgJy1pbWFlJywgJ2xpZ2FuZF9wcm8ubWFlJywgJy1vbWFlJywgJ2xpZ2FuZF9wcmVwLm1hZScsICctbXMnLCAnMScsICctcGgnLCAnNycsICctcGh0JywgJzAuNScsICctbnQn

> <r_lp_tautomer_probability>
1

> <r_epik_Ionization_Penalty>
  2.1143

> <r_epik_Ionization_Penalty_Charging>
  0.0007

> <r_epik_Ionization_Penalty_Neutral>
  2.1136

> <r_epik_State_Penalty>
 -0.0000

> <r_epik_Charging_Adjusted_Penalty>
0.000707617278583297

> <i_epik_Tot_Q>
-6

> <i_epik_Tot_abs_Q>
6

$$$$
