1zsr_ligand
                    3D
 Schrodinger Suite 2020-3.
100102  0  0  1  0            999 V2000
   -9.3250   14.2990   30.1000 O   0  0  0  0  0  0
  -10.1740   14.9640   30.6740 C   0  0  0  0  0  0
  -10.1780   15.2960   32.0080 O   0  0  0  0  0  0
   -8.9510   15.3790   32.8530 C   0  0  0  0  0  0
   -9.4190   15.8350   34.2200 C   0  0  0  0  0  0
   -7.9810   16.3910   32.2420 C   0  0  0  0  0  0
   -8.3160   13.9910   32.9410 C   0  0  0  0  0  0
  -11.2790   15.5450   30.0780 N   0  0  0  0  0  0
  -11.6190   15.3290   28.6690 C   0  0  2  0  0  0
  -11.2260   16.5350   27.7720 C   0  0  1  0  0  0
  -11.9520   17.6850   28.1510 O   0  0  0  0  0  0
  -13.1210   15.0160   28.5300 C   0  0  0  0  0  0
  -13.5290   13.7230   29.1870 C   0  0  0  0  0  0
  -14.5620   13.6940   30.1080 C   0  0  0  0  0  0
  -12.8410   12.5390   28.9140 C   0  0  0  0  0  0
  -14.9050   12.5130   30.7540 C   0  0  0  0  0  0
  -13.1790   11.3490   29.5570 C   0  0  0  0  0  0
  -14.2130   11.3390   30.4800 C   0  0  0  0  0  0
   -9.7150   16.8040   27.9000 C   0  0  0  0  0  0
   -9.3020   18.0070   27.1870 N   0  3  0  0  0  0
   -7.9240   17.9540   26.6820 C   0  0  2  0  0  0
   -7.7960   16.9300   25.5580 C   0  0  0  0  0  0
   -7.8200   15.7180   25.7950 O   0  0  0  0  0  0
   -6.9330   17.5960   27.8050 C   0  0  0  0  0  0
   -5.5190   17.3930   27.3290 C   0  0  0  0  0  0
   -4.7670   16.3230   27.7960 C   0  0  0  0  0  0
   -4.9370   18.2760   26.4220 C   0  0  0  0  0  0
   -3.4560   16.1260   27.3710 C   0  0  0  0  0  0
   -3.6250   18.0880   25.9880 C   0  0  0  0  0  0
   -2.8840   17.0070   26.4660 C   0  0  0  0  0  0
   -7.6480   17.4310   24.3360 N   0  0  0  0  0  0
   -7.5190   16.5800   23.1630 C   0  0  2  0  0  0
   -6.6800   17.3070   22.1150 C   0  0  0  0  0  0
   -6.9320   18.4700   21.7920 O   0  0  0  0  0  0
   -8.9200   16.2570   22.6200 C   0  0  0  0  0  0
   -8.9870   15.2820   21.4480 C   0  0  0  0  0  0
   -8.4830   15.8760   20.1390 C   0  0  0  0  0  0
   -8.6500   17.0990   19.9280 O   0  5  0  0  0  0
   -7.9350   15.1150   19.3110 O   0  0  0  0  0  0
   -5.6640   16.6320   21.5980 N   0  0  0  0  0  0
   -4.8360   17.2410   20.5850 C   0  0  2  0  0  0
   -4.5600   16.2460   19.4800 C   0  0  0  0  0  0
   -4.2600   15.0850   19.7340 O   0  0  0  0  0  0
   -3.5350   17.7640   21.2040 C   0  0  0  0  0  0
   -2.6720   16.7020   21.8240 C   0  0  0  0  0  0
   -1.5800   16.1910   21.1410 C   0  0  0  0  0  0
   -2.9270   16.2400   23.1110 C   0  0  0  0  0  0
   -0.7470   15.2400   21.7320 C   0  0  0  0  0  0
   -2.1010   15.2870   23.7090 C   0  0  0  0  0  0
   -1.0080   14.7890   23.0170 C   0  0  0  0  0  0
   -4.6900   16.6950   18.2440 N   0  0  0  0  0  0
   -9.8725   16.8338   34.1379 H   0  0  0  0  0  0
   -8.5603   15.8774   34.9062 H   0  0  0  0  0  0
  -10.1640   15.1248   34.6082 H   0  0  0  0  0  0
   -8.4643   17.3778   32.1916 H   0  0  0  0  0  0
   -7.7031   16.0666   31.2283 H   0  0  0  0  0  0
   -7.0779   16.4565   32.8666 H   0  0  0  0  0  0
   -9.0354   13.2861   33.3833 H   0  0  0  0  0  0
   -7.4153   14.0391   33.5706 H   0  0  0  0  0  0
   -8.0405   13.6492   31.9324 H   0  0  0  0  0  0
  -11.9129   16.1901   30.7041 H   0  0  0  0  0  0
  -11.0148   14.4577   28.3760 H   0  0  0  0  0  0
  -11.5187   16.3760   26.7237 H   0  0  0  0  0  0
  -13.0516   17.6756   28.1220 H   0  0  0  0  0  0
  -13.7080   15.8214   28.9956 H   0  0  0  0  0  0
  -13.3828   14.9406   27.4643 H   0  0  0  0  0  0
  -15.1126   14.6084   30.3289 H   0  0  0  0  0  0
  -12.0281   12.5452   28.1879 H   0  0  0  0  0  0
  -15.7196   12.5069   31.4782 H   0  0  0  0  0  0
  -12.6333   10.4319   29.3352 H   0  0  0  0  0  0
  -14.4826   10.4137   30.9892 H   0  0  0  0  0  0
   -9.4539   16.9316   28.9609 H   0  0  0  0  0  0
   -9.1546   15.9536   27.4842 H   0  0  0  0  0  0
   -9.9611   18.1641   26.3205 H   0  0  0  0  0  0
   -9.3693   18.8739   27.8608 H   0  0  0  0  0  0
   -7.7268   18.9659   26.2983 H   0  0  0  0  0  0
   -6.9130   18.4064   28.5485 H   0  0  0  0  0  0
   -7.2506   16.6612   28.2901 H   0  0  0  0  0  0
   -5.2105   15.6259   28.5070 H   0  0  0  0  0  0
   -5.5129   19.1224   26.0478 H   0  0  0  0  0  0
   -2.8805   15.2810   27.7489 H   0  0  0  0  0  0
   -3.1797   18.7840   25.2771 H   0  0  0  0  0  0
   -1.8585   16.8554   26.1291 H   0  0  0  0  0  0
   -7.6245   18.5253   24.2269 H   0  0  0  0  0  0
   -7.0097   15.6550   23.4711 H   0  0  0  0  0  0
   -9.5287   15.8089   23.4192 H   0  0  0  0  0  0
   -9.3996   17.1826   22.2690 H   0  0  0  0  0  0
   -8.3697   14.3990   21.6699 H   0  0  0  0  0  0
  -10.0299   14.9699   21.2898 H   0  0  0  0  0  0
   -5.4512   15.6084   21.9401 H   0  0  0  0  0  0
   -5.4175   18.0803   20.1758 H   0  0  0  0  0  0
   -2.9308   18.2552   20.4270 H   0  0  0  0  0  0
   -3.7716   18.4886   21.9971 H   0  0  0  0  0  0
   -1.3689   16.5363   20.1289 H   0  0  0  0  0  0
   -3.7846   16.6280   23.6607 H   0  0  0  0  0  0
    0.1103   14.8511   21.1825 H   0  0  0  0  0  0
   -2.3150   14.9350   24.7182 H   0  0  0  0  0  0
   -0.3575   14.0472   23.4803 H   0  0  0  0  0  0
   -4.9610   17.7462   18.0663 H   0  0  0  0  0  0
   -4.5272   16.0176   17.3928 H   0  0  0  0  0  0
  1  2  2  0  0  0
  2  3  1  0  0  0
  2  8  1  0  0  0
  3  4  1  0  0  0
  4  5  1  0  0  0
  4  6  1  0  0  0
  4  7  1  0  0  0
  5 52  1  0  0  0
  5 53  1  0  0  0
  5 54  1  0  0  0
  6 55  1  0  0  0
  6 56  1  0  0  0
  6 57  1  0  0  0
  7 58  1  0  0  0
  7 59  1  0  0  0
  7 60  1  0  0  0
  8  9  1  0  0  0
  8 61  1  0  0  0
  9 10  1  0  0  0
  9 12  1  0  0  0
  9 62  1  0  0  0
 10 11  1  0  0  0
 10 19  1  0  0  0
 10 63  1  0  0  0
 11 64  1  0  0  0
 12 13  1  0  0  0
 12 65  1  0  0  0
 12 66  1  0  0  0
 13 14  2  0  0  0
 13 15  1  0  0  0
 14 16  1  0  0  0
 14 67  1  0  0  0
 15 17  2  0  0  0
 15 68  1  0  0  0
 16 18  2  0  0  0
 16 69  1  0  0  0
 17 18  1  0  0  0
 17 70  1  0  0  0
 18 71  1  0  0  0
 19 20  1  0  0  0
 19 72  1  0  0  0
 19 73  1  0  0  0
 20 21  1  0  0  0
 20 74  1  0  0  0
 20 75  1  0  0  0
 21 22  1  0  0  0
 21 24  1  0  0  0
 21 76  1  0  0  0
 22 23  2  0  0  0
 22 31  1  0  0  0
 24 25  1  0  0  0
 24 77  1  0  0  0
 24 78  1  0  0  0
 25 26  2  0  0  0
 25 27  1  0  0  0
 26 28  1  0  0  0
 26 79  1  0  0  0
 27 29  2  0  0  0
 27 80  1  0  0  0
 28 30  2  0  0  0
 28 81  1  0  0  0
 29 30  1  0  0  0
 29 82  1  0  0  0
 30 83  1  0  0  0
 31 32  1  0  0  0
 31 84  1  0  0  0
 32 33  1  0  0  0
 32 35  1  0  0  0
 32 85  1  0  0  0
 33 34  2  0  0  0
 33 40  1  0  0  0
 35 36  1  0  0  0
 35 86  1  0  0  0
 35 87  1  0  0  0
 36 37  1  0  0  0
 36 88  1  0  0  0
 36 89  1  0  0  0
 37 38  1  0  0  0
 37 39  2  0  0  0
 40 41  1  0  0  0
 40 90  1  0  0  0
 41 42  1  0  0  0
 41 44  1  0  0  0
 41 91  1  0  0  0
 42 43  2  0  0  0
 42 51  1  0  0  0
 44 45  1  0  0  0
 44 92  1  0  0  0
 44 93  1  0  0  0
 45 46  2  0  0  0
 45 47  1  0  0  0
 46 48  1  0  0  0
 46 94  1  0  0  0
 47 49  2  0  0  0
 47 95  1  0  0  0
 48 50  2  0  0  0
 48 96  1  0  0  0
 49 50  1  0  0  0
 49 97  1  0  0  0
 50 98  1  0  0  0
 51 99  1  0  0  0
 51100  1  0  0  0
M  CHG  2  20   1  38  -1
M  END
> <s_m_source_file>
../1zsr_ligand.sdf

> <i_m_source_file_index>
1

> <s_epik_input>
W2NIXTFbY0hdW2NIXVtjSF1bY0hdYzFbQ0gyXVtDQEhdKFtOSF1DKD1PKU9DKFtDSDNdKShbQ0gzXSlbQ0gzXSlbQ0BASF0oW09IXSlbQ0gyXVtOSDIrXVtDQEBIXShbQ0gyXWMyW2NIXVtjSF1bY0hdW2NIXVtjSF0yKUMoPU8pW05IXVtDQEBIXShbQ0gyXVtDSDJdQyg9TylbT0hdKUMoPU8pW05IXVtDQEhdKEMoPU8pW05IMl0pW0NIMl1jM1tjSF1bY0hdW2NIXVtjSF1bY0hdMw==

> <s_epik_cmdline>
J2VwaWtfYXBwJywgJy1pbWFlJywgJ2xpZ2FuZF9wcm8ubWFlJywgJy1vbWFlJywgJ2xpZ2FuZF9wcmVwLm1hZScsICctbXMnLCAnMScsICctcGgnLCAnNycsICctcGh0JywgJzAuNScsICctbnQn

> <r_epik_Ionization_Penalty>
  0.0817

> <r_epik_Ionization_Penalty_Charging>
  0.0817

> <r_epik_Ionization_Penalty_Neutral>
  0.0000

> <r_epik_State_Penalty>
  0.0709

> <r_epik_Charging_Adjusted_Penalty>
0.152530859911752

> <i_epik_Tot_Q>
0

> <i_epik_Tot_abs_Q>
2

> <s_epik_Chemistry_Notes>
This compound has an ester and may undergo hydrolysis at high or low pH.

$$$$
