1zub_ligand
                    3D
 Schrodinger Suite 2020-3.
 93 94  0  0  1  0            999 V2000
  190.1800  -11.6900   -4.5230 N   0  3  0  0  0  0
  190.2030  -10.6310   -3.4800 C   0  0  2  0  0  0
  188.8020  -10.3620   -2.9370 C   0  0  0  0  0  0
  187.9880   -9.7110   -3.5910 O   0  0  0  0  0  0
  190.7870   -9.3560   -4.0940 C   0  0  0  0  0  0
  192.2050   -9.0550   -3.6360 C   0  0  0  0  0  0
  193.2430   -9.3930   -4.6880 C   0  0  0  0  0  0
  192.9770  -10.2880   -5.5180 O   0  5  0  0  0  0
  194.3220   -8.7640   -4.6820 O   0  0  0  0  0  0
  188.5290  -10.8680   -1.7390 N   0  0  0  0  0  0
  187.2270  -10.6810   -1.1090 C   0  0  2  0  0  0
  187.3820  -10.1720    0.3210 C   0  0  0  0  0  0
  188.4970  -10.0190    0.8180 O   0  0  0  0  0  0
  186.4410  -11.9940   -1.1120 C   0  0  0  0  0  0
  187.1860  -13.1510   -0.4670 C   0  0  0  0  0  0
  187.5640  -14.2310   -1.4610 C   0  0  0  0  0  0
  188.4720  -13.9900   -2.2840 O   0  0  0  0  0  0
  186.9510  -15.3190   -1.4170 O   0  5  0  0  0  0
  186.2550   -9.9090    0.9770 N   0  0  0  0  0  0
  186.2920   -9.4180    2.3420 C   0  0  0  0  0  0
  185.1070   -9.8870    3.1650 C   0  0  0  0  0  0
  185.2700  -10.6390    4.1250 O   0  0  0  0  0  0
  183.9120   -9.4420    2.7890 N   0  0  0  0  0  0
  182.6960   -9.8180    3.4990 C   0  0  2  0  0  0
  181.5580  -10.0630    2.5220 C   0  0  0  0  0  0
  181.5040   -9.4630    1.4500 O   0  0  0  0  0  0
  182.2440   -8.7360    4.5110 C   0  0  2  0  0  0
  183.1270   -7.4890    4.4150 C   0  0  0  0  0  0
  182.2550   -9.2940    5.9290 C   0  0  0  0  0  0
  184.4840   -7.6580    5.0520 C   0  0  0  0  0  0
  180.6420  -10.9360    2.9090 N   0  0  0  0  0  0
  179.4940  -11.2440    2.0750 C   0  0  2  0  0  0
  178.3390  -10.3120    2.4080 C   0  0  0  0  0  0
  177.8980  -10.2390    3.5550 O   0  0  0  0  0  0
  179.0710  -12.7050    2.2540 C   0  0  0  0  0  0
  179.3310  -13.5460    1.0390 C   0  0  0  0  0  0
  179.9900  -14.7420    0.9960 C   0  0  0  0  0  0
  178.9420  -13.2540   -0.3100 C   0  0  0  0  0  0
  180.0330  -15.2110   -0.2950 N   0  3  0  0  0  0
  179.3970  -14.3160   -1.1150 C   0  0  0  0  0  0
  178.2520  -12.1990   -0.9160 C   0  0  0  0  0  0
  179.1850  -14.3510   -2.4920 C   0  0  0  0  0  0
  178.0420  -12.2360   -2.2830 C   0  0  0  0  0  0
  178.5070  -13.3060   -3.0570 C   0  0  0  0  0  0
  177.8540   -9.5990    1.3990 N   0  0  0  0  0  0
  176.7480   -8.6740    1.5820 C   0  0  2  0  0  0
  175.7870   -8.7530    0.4010 C   0  0  0  0  0  0
  175.2160   -7.7090    0.0310 O   0  5  0  0  0  0
  177.2680   -7.2540    1.7640 C   0  0  0  0  0  0
  175.6210   -9.8540   -0.1560 O   0  0  0  0  0  0
  189.7624  -12.6145   -4.0977 H   0  0  0  0  0  0
  191.2044  -11.8789   -4.8763 H   0  0  0  0  0  0
  189.5561  -11.3601   -5.3668 H   0  0  0  0  0  0
  190.8286  -10.9922   -2.6504 H   0  0  0  0  0  0
  190.8091   -9.4534   -5.1895 H   0  0  0  0  0  0
  190.1618   -8.4950   -3.8151 H   0  0  0  0  0  0
  192.2959   -7.9834   -3.4047 H   0  0  0  0  0  0
  192.4326   -9.6450   -2.7359 H   0  0  0  0  0  0
  189.3135  -11.4396   -1.2214 H   0  0  0  0  0  0
  186.7137   -9.9229   -1.7187 H   0  0  0  0  0  0
  185.5004  -11.8595   -0.5578 H   0  0  0  0  0  0
  186.2172  -12.2850   -2.1489 H   0  0  0  0  0  0
  188.1127  -12.7788   -0.0057 H   0  0  0  0  0  0
  186.5514  -13.6110    0.3048 H   0  0  0  0  0  0
  185.2889  -10.0670    0.4753 H   0  0  0  0  0  0
  187.2077   -9.7756    2.8356 H   0  0  0  0  0  0
  186.2841   -8.3180    2.3364 H   0  0  0  0  0  0
  183.8555   -8.7733    1.9174 H   0  0  0  0  0  0
  182.9822  -10.7461    4.0155 H   0  0  0  0  0  0
  181.2130   -8.4350    4.2735 H   0  0  0  0  0  0
  183.2905   -7.2361    3.3570 H   0  0  0  0  0  0
  182.6299   -6.6479    4.9204 H   0  0  0  0  0  0
  181.6157  -10.1879    5.9762 H   0  0  0  0  0  0
  181.8733   -8.5329    6.6255 H   0  0  0  0  0  0
  183.2840   -9.5639    6.2088 H   0  0  0  0  0  0
  185.0583   -6.7261    4.9441 H   0  0  0  0  0  0
  185.0219   -8.4797    4.5565 H   0  0  0  0  0  0
  184.3612   -7.8915    6.1199 H   0  0  0  0  0  0
  180.7628  -11.4320    3.8834 H   0  0  0  0  0  0
  179.8247  -11.0740    1.0398 H   0  0  0  0  0  0
  179.6292  -13.1483    3.0918 H   0  0  0  0  0  0
  177.9927  -12.7511    2.4667 H   0  0  0  0  0  0
  180.3916  -15.1822    1.9206 H   0  0  0  0  0  0
  177.8860  -11.3620   -0.3214 H   0  0  0  0  0  0
  179.5468  -15.1820   -3.0975 H   0  0  0  0  0  0
  177.5058  -11.4187   -2.7653 H   0  0  0  0  0  0
  178.3250  -13.3063   -4.1317 H   0  0  0  0  0  0
  178.3100   -9.7213    0.4055 H   0  0  0  0  0  0
  176.2323   -8.9966    2.4985 H   0  0  0  0  0  0
  177.9578   -7.2231    2.6203 H   0  0  0  0  0  0
  176.4227   -6.5749    1.9494 H   0  0  0  0  0  0
  177.7990   -6.9385    0.8538 H   0  0  0  0  0  0
  180.5279  -16.1681   -0.5163 H   0  0  0  0  0  0
  1  2  1  0  0  0
  1 51  1  0  0  0
  1 52  1  0  0  0
  1 53  1  0  0  0
  2  3  1  0  0  0
  2  5  1  0  0  0
  2 54  1  0  0  0
  3  4  2  0  0  0
  3 10  1  0  0  0
  5  6  1  0  0  0
  5 55  1  0  0  0
  5 56  1  0  0  0
  6  7  1  0  0  0
  6 57  1  0  0  0
  6 58  1  0  0  0
  7  8  1  0  0  0
  7  9  2  0  0  0
 10 11  1  0  0  0
 10 59  1  0  0  0
 11 12  1  0  0  0
 11 14  1  0  0  0
 11 60  1  0  0  0
 12 13  2  0  0  0
 12 19  1  0  0  0
 14 15  1  0  0  0
 14 61  1  0  0  0
 14 62  1  0  0  0
 15 16  1  0  0  0
 15 63  1  0  0  0
 15 64  1  0  0  0
 16 17  2  0  0  0
 16 18  1  0  0  0
 19 20  1  0  0  0
 19 65  1  0  0  0
 20 21  1  0  0  0
 20 66  1  0  0  0
 20 67  1  0  0  0
 21 22  2  0  0  0
 21 23  1  0  0  0
 23 24  1  0  0  0
 23 68  1  0  0  0
 24 25  1  0  0  0
 24 27  1  0  0  0
 24 69  1  0  0  0
 25 26  2  0  0  0
 25 31  1  0  0  0
 27 28  1  0  0  0
 27 29  1  0  0  0
 27 70  1  0  0  0
 28 30  1  0  0  0
 28 71  1  0  0  0
 28 72  1  0  0  0
 29 73  1  0  0  0
 29 74  1  0  0  0
 29 75  1  0  0  0
 30 76  1  0  0  0
 30 77  1  0  0  0
 30 78  1  0  0  0
 31 32  1  0  0  0
 31 79  1  0  0  0
 32 33  1  0  0  0
 32 35  1  0  0  0
 32 80  1  0  0  0
 33 34  2  0  0  0
 33 45  1  0  0  0
 35 36  1  0  0  0
 35 81  1  0  0  0
 35 82  1  0  0  0
 36 37  2  0  0  0
 36 38  1  0  0  0
 37 39  1  0  0  0
 37 83  1  0  0  0
 38 40  2  0  0  0
 38 41  1  0  0  0
 39 40  1  0  0  0
 39 93  1  0  0  0
 40 42  1  0  0  0
 41 43  2  0  0  0
 41 84  1  0  0  0
 42 44  2  0  0  0
 42 85  1  0  0  0
 43 44  1  0  0  0
 43 86  1  0  0  0
 44 87  1  0  0  0
 45 46  1  0  0  0
 45 88  1  0  0  0
 46 47  1  0  0  0
 46 49  1  0  0  0
 46 89  1  0  0  0
 47 48  1  0  0  0
 47 50  2  0  0  0
 49 90  1  0  0  0
 49 91  1  0  0  0
 49 92  1  0  0  0
M  CHG  5   1   1   8  -1  18  -1  39   1  48  -1
M  END
> <s_m_source_file>
../1zub_ligand.sdf

> <i_m_source_file_index>
1

> <s_epik_input>
W09IXUMoPU8pW0NIMl1bQ0gyXVtDQEhdKFtOSDMrXSlDKD1PKVtOSF1bQ0BASF0oW0NIMl1bQ0gyXUMoPU8pW09IXSlDKD1PKVtOSF1bQ0gyXUMoPU8pW05IXVtDQEBIXShbQ0BASF0oW0NIM10pW0NIMl1bQ0gzXSlDKD1PKVtOSF1bQ0BIXShDKD1PKVtOSF1bQ0BASF0oW0NIM10pQyg9TylbT0hdKVtDSDJdYzFbY0hdW25IXWMoYzEyKVtjSF1bY0hdW2NIXVtjSF0y

> <s_epik_cmdline>
J2VwaWtfYXBwJywgJy1pbWFlJywgJ2xpZ2FuZF9wcm8ubWFlJywgJy1vbWFlJywgJ2xpZ2FuZF9wcmVwLm1hZScsICctbXMnLCAnMScsICctcGgnLCAnNycsICctcGh0JywgJzAuNScsICctbnQn

> <r_epik_Ionization_Penalty>
  0.0755

> <r_epik_Ionization_Penalty_Charging>
  0.0755

> <r_epik_Ionization_Penalty_Neutral>
  0.0000

> <r_epik_State_Penalty>
  0.0638

> <r_epik_Charging_Adjusted_Penalty>
0.13930920790133

> <i_epik_Tot_Q>
-1

> <i_epik_Tot_abs_Q>
5

$$$$
