1zuc_ligand
                    3D
 Schrodinger Suite 2020-3.
 36 38  0  0  1  0            999 V2000
   27.9100   -8.7070   13.2440 C   0  0  0  0  0  0
   27.0420   -7.6010   12.6150 C   0  0  0  0  0  0
   27.5070   -7.3030   11.2130 C   0  0  0  0  0  0
   27.2660   -8.1820   10.1470 C   0  0  0  0  0  0
   27.7170   -7.8830    8.8510 C   0  0  0  0  0  0
   28.4620   -6.7160    8.6060 C   0  0  0  0  0  0
   28.7080   -5.8390    9.6620 C   0  0  0  0  0  0
   28.2110   -6.1310   10.9450 C   0  0  0  0  0  0
   28.4590   -5.2270   11.9780 N   0  0  0  0  0  0
   28.0470   -5.4560   13.2670 C   0  0  0  0  0  0
   28.3710   -4.4440   14.5110 S   0  0  0  0  0  0
   27.3360   -6.5590   13.5750 O   0  0  0  0  0  0
   27.4520   -8.9030    7.8370 C   0  0  0  0  0  0
   26.3970   -9.8090    7.7550 C   0  0  0  0  0  0
   26.6740  -10.6270    6.6380 C   0  0  0  0  0  0
   27.8810  -10.2380    6.1080 C   0  0  0  0  0  0
   28.3410   -9.1820    6.8320 N   0  0  0  0  0  0
   29.6380   -8.5450    6.5510 C   0  0  0  0  0  0
   28.5950  -10.7450    4.9860 C   0  0  0  0  0  0
   29.2160  -11.1420    4.0840 N   0  0  0  0  0  0
   25.5470   -7.9140   12.6530 C   0  0  0  0  0  0
   28.9701   -8.4197   13.1840 H   0  0  0  0  0  0
   27.7542   -9.6498   12.6991 H   0  0  0  0  0  0
   27.6256   -8.8414   14.2981 H   0  0  0  0  0  0
   26.7217   -9.1091   10.3267 H   0  0  0  0  0  0
   28.8411   -6.5003    7.6071 H   0  0  0  0  0  0
   29.2842   -4.9292    9.4935 H   0  0  0  0  0  0
   29.0020   -4.2926   11.7727 H   0  0  0  0  0  0
   25.5340   -9.8733    8.4177 H   0  0  0  0  0  0
   26.0396  -11.4291    6.2608 H   0  0  0  0  0  0
   29.8008   -7.7176    7.2574 H   0  0  0  0  0  0
   29.6397   -8.1548    5.5225 H   0  0  0  0  0  0
   30.4426   -9.2866    6.6631 H   0  0  0  0  0  0
   25.3196   -8.7060   11.9243 H   0  0  0  0  0  0
   24.9762   -7.0083   12.4003 H   0  0  0  0  0  0
   25.2689   -8.2531   13.6618 H   0  0  0  0  0  0
  1  2  1  0  0  0
  1 22  1  0  0  0
  1 23  1  0  0  0
  1 24  1  0  0  0
  2  3  1  0  0  0
  2 12  1  0  0  0
  2 21  1  0  0  0
  3  4  2  0  0  0
  3  8  1  0  0  0
  4  5  1  0  0  0
  4 25  1  0  0  0
  5  6  2  0  0  0
  5 13  1  0  0  0
  6  7  1  0  0  0
  6 26  1  0  0  0
  7  8  2  0  0  0
  7 27  1  0  0  0
  8  9  1  0  0  0
  9 10  1  0  0  0
  9 28  1  0  0  0
 10 11  2  0  0  0
 10 12  1  0  0  0
 13 14  2  0  0  0
 13 17  1  0  0  0
 14 15  1  0  0  0
 14 29  1  0  0  0
 15 16  2  0  0  0
 15 30  1  0  0  0
 16 17  1  0  0  0
 16 19  1  0  0  0
 17 18  1  0  0  0
 18 31  1  0  0  0
 18 32  1  0  0  0
 18 33  1  0  0  0
 19 20  3  0  0  0
 21 34  1  0  0  0
 21 35  1  0  0  0
 21 36  1  0  0  0
M  END
> <s_m_source_file>
../1zuc_ligand.sdf

> <i_m_source_file_index>
1

> <s_epik_input>
W0NIM11DMShbQ0gzXSlPQyg9UylbTkhdYyhjMTIpW2NIXVtjSF1jKFtjSF0yKS1jM1tjSF1bY0hdYyhDI04pbjNbQ0gzXQ==

> <s_epik_cmdline>
J2VwaWtfYXBwJywgJy1pbWFlJywgJ2xpZ2FuZF9wcm8ubWFlJywgJy1vbWFlJywgJ2xpZ2FuZF9wcmVwLm1hZScsICctbXMnLCAnMScsICctcGgnLCAnNycsICctcGh0JywgJzAuNScsICctbnQn

> <r_lp_tautomer_probability>
1

> <r_epik_Ionization_Penalty>
  0.0000

> <r_epik_Ionization_Penalty_Charging>
  0.0000

> <r_epik_Ionization_Penalty_Neutral>
  0.0000

> <r_epik_State_Penalty>
 -0.0000

> <r_epik_Charging_Adjusted_Penalty>
0

> <i_epik_Tot_Q>
0

> <i_epik_Tot_abs_Q>
0

$$$$
