1zvx_ligand
                    3D
 Schrodinger Suite 2020-3.
 47 48  0  0  1  0            999 V2000
   -1.1900   22.3760    5.5780 C   0  0  0  0  0  0
   -0.2200   21.2840    5.5370 C   0  0  0  0  0  0
    0.1980   20.7060    4.2360 C   0  0  0  0  0  0
   -0.3690   21.2300    2.9850 C   0  0  0  0  0  0
   -1.3300   22.3140    3.0300 C   0  0  0  0  0  0
   -1.7470   22.8920    4.3240 C   0  0  0  0  0  0
    0.0160   20.6800    1.6880 O   0  0  0  0  0  0
    0.6930   19.4200    1.5690 C   0  0  0  0  0  0
   -1.6310   22.9410    6.8970 C   0  0  0  0  0  0
   -0.8140   22.7560    8.1060 C   0  0  0  0  0  0
   -1.2770   23.2820    9.3780 C   0  0  0  0  0  0
   -2.5740   24.0070    9.4550 C   0  0  0  0  0  0
   -3.3680   24.2050    8.2630 C   0  0  0  0  0  0
   -2.9180   23.6810    6.9950 C   0  0  0  0  0  0
   -3.1450   24.6220   11.0000 S   0  0  0  0  0  0
   -4.5850   24.6930   10.8850 O   0  0  0  0  0  0
   -2.6490   23.6950   11.9740 O   0  0  0  0  0  0
   -2.6120   26.1290   11.3960 N   0  0  3  0  0  0
   -3.1340   27.2710   10.8750 C   0  0  1  0  0  0
   -3.7190   28.1300   12.0500 C   0  0  0  0  0  0
   -4.9370   27.5370   12.6770 C   0  0  0  0  0  0
   -2.7510   28.4510   13.2100 C   0  0  0  0  0  0
   -1.8220   28.0970   10.0800 P   0  0  0  0  0  0
   -2.1310   29.5680    9.9040 O   0  5  0  0  0  0
   -0.5650   27.9580   10.8700 O   0  0  0  0  0  0
   -1.6540   27.4670    8.8220 O   0  0  0  0  0  0
    0.1977   20.8929    6.4648 H   0  0  0  0  0  0
    0.9245   19.8939    4.2078 H   0  0  0  0  0  0
   -1.7480   22.7055    2.1026 H   0  0  0  0  0  0
   -2.4720   23.7057    4.3465 H   0  0  0  0  0  0
    0.8834   19.2049    0.5072 H   0  0  0  0  0  0
    0.0654   18.6247    1.9974 H   0  0  0  0  0  0
    1.6490   19.4648    2.1112 H   0  0  0  0  0  0
    0.1364   22.2255    8.0474 H   0  0  0  0  0  0
   -0.6745   23.1457   10.2761 H   0  0  0  0  0  0
   -4.3092   24.7515    8.3218 H   0  0  0  0  0  0
   -3.5260   23.8288    6.1025 H   0  0  0  0  0  0
   -1.6882   26.1684   11.9919 H   0  0  0  0  0  0
   -3.9753   26.9052   10.2681 H   0  0  0  0  0  0
   -3.9963   29.0662   11.5434 H   0  0  0  0  0  0
   -5.6675   27.2864   11.8937 H   0  0  0  0  0  0
   -5.3811   28.2630   13.3739 H   0  0  0  0  0  0
   -4.6598   26.6246   13.2254 H   0  0  0  0  0  0
   -1.8286   28.8937   12.8060 H   0  0  0  0  0  0
   -2.5069   27.5248   13.7508 H   0  0  0  0  0  0
   -3.2282   29.1632   13.8993 H   0  0  0  0  0  0
   -0.5007   28.3862   11.8812 H   0  0  0  0  0  0
  1  2  2  0  0  0
  1  6  1  0  0  0
  1  9  1  0  0  0
  2  3  1  0  0  0
  2 27  1  0  0  0
  3  4  2  0  0  0
  3 28  1  0  0  0
  4  5  1  0  0  0
  4  7  1  0  0  0
  5  6  2  0  0  0
  5 29  1  0  0  0
  6 30  1  0  0  0
  7  8  1  0  0  0
  8 31  1  0  0  0
  8 32  1  0  0  0
  8 33  1  0  0  0
  9 10  2  0  0  0
  9 14  1  0  0  0
 10 11  1  0  0  0
 10 34  1  0  0  0
 11 12  2  0  0  0
 11 35  1  0  0  0
 12 13  1  0  0  0
 12 15  1  0  0  0
 13 14  2  0  0  0
 13 36  1  0  0  0
 14 37  1  0  0  0
 15 16  2  0  0  0
 15 17  2  0  0  0
 15 18  1  0  0  0
 18 19  1  0  0  0
 18 38  1  0  0  0
 19 20  1  0  0  0
 19 23  1  0  0  0
 19 39  1  0  0  0
 20 21  1  0  0  0
 20 22  1  0  0  0
 20 40  1  0  0  0
 21 41  1  0  0  0
 21 42  1  0  0  0
 21 43  1  0  0  0
 22 44  1  0  0  0
 22 45  1  0  0  0
 22 46  1  0  0  0
 23 24  1  0  0  0
 23 25  1  0  0  0
 23 26  2  0  0  0
 25 47  1  0  0  0
M  CHG  1  24  -1
M  END
> <s_m_source_file>
../1zvx_ligand.sdf

> <i_m_source_file_index>
1

> <s_epik_input>
W2NIXTFbY0hdYyhPW0NIM10pW2NIXVtjSF1jMS1jMltjSF1bY0hdYyhbY0hdW2NIXTIpUyg9TykoPU8pW05IXVtDQEBIXShbQ0hdKFtDSDNdKVtDSDNdKVAoPU8pKFtPSF0pW09IXQ==

> <s_epik_cmdline>
J2VwaWtfYXBwJywgJy1pbWFlJywgJ2xpZ2FuZF9wcm8ubWFlJywgJy1vbWFlJywgJ2xpZ2FuZF9wcmVwLm1hZScsICctbXMnLCAnMScsICctcGgnLCAnNycsICctcGh0JywgJzAuNScsICctbnQn

> <r_lp_tautomer_probability>
1

> <r_epik_Ionization_Penalty>
  0.4013

> <r_epik_Ionization_Penalty_Charging>
  0.0000

> <r_epik_Ionization_Penalty_Neutral>
  0.4013

> <r_epik_State_Penalty>
  0.4006

> <r_epik_Charging_Adjusted_Penalty>
0.4005982585136

> <i_epik_Tot_Q>
-1

> <i_epik_Tot_abs_Q>
1

$$$$
