1zxc_ligand
                    3D
 Schrodinger Suite 2020-3.
 48 49  0  0  1  0            999 V2000
   -2.0730    9.4130  119.8650 C   0  0  0  0  0  0
   -2.2670    9.0230  118.4700 C   0  0  0  0  0  0
   -2.3500    8.6810  117.3190 C   0  0  0  0  0  0
   -2.4220    8.3100  115.8970 C   0  0  0  0  0  0
   -2.1250    9.4240  115.0330 O   0  0  0  0  0  0
   -2.9450   10.5160  114.8820 C   0  0  0  0  0  0
   -4.2890   10.3680  115.2640 C   0  0  0  0  0  0
   -5.1850   11.4320  115.1670 C   0  0  0  0  0  0
   -4.7310   12.6350  114.6410 C   0  0  0  0  0  0
   -3.3920   12.8190  114.2720 C   0  0  0  0  0  0
   -2.5030   11.7470  114.3770 C   0  0  0  0  0  0
   -5.8070   14.0280  114.5540 S   0  0  0  0  0  0
   -4.9460   15.1790  114.5730 O   0  0  0  0  0  0
   -6.6660   13.8100  115.7130 O   0  0  0  0  0  0
   -6.8700   14.1090  113.1720 N   0  0  2  0  0  0
   -7.9780   13.0970  113.0900 C   0  0  0  0  0  0
   -9.1880   13.6760  112.3470 C   0  0  0  0  0  0
   -8.7490   14.2060  110.6630 S   0  0  0  0  0  0
   -7.3930   15.3960  111.0520 C   0  0  0  0  0  0
   -6.2940   14.6780  111.8940 C   0  0  2  0  0  0
   -5.5190   13.6030  111.1310 C   0  0  0  0  0  0
   -5.9900   12.5150  110.8490 O   0  0  0  0  0  0
   -4.2430   13.9760  110.7830 N   0  0  0  0  0  0
   -3.5240   13.0310  110.0660 O   0  0  0  0  0  0
   -8.0160   16.6260  111.7470 C   0  0  0  0  0  0
   -6.7780   15.8940  109.7250 C   0  0  0  0  0  0
   -3.0210    9.7913  120.2752 H   0  0  0  0  0  0
   -1.3081   10.2014  119.9223 H   0  0  0  0  0  0
   -1.7439    8.5398  120.4475 H   0  0  0  0  0  0
   -1.6952    7.5109  115.6893 H   0  0  0  0  0  0
   -3.4358    7.9537  115.6619 H   0  0  0  0  0  0
   -4.6366    9.4066  115.6420 H   0  0  0  0  0  0
   -6.2182   11.3223  115.4964 H   0  0  0  0  0  0
   -3.0483   13.7870  113.9074 H   0  0  0  0  0  0
   -1.4652   11.8674  114.0662 H   0  0  0  0  0  0
   -7.6224   12.2069  112.5503 H   0  0  0  0  0  0
   -8.2886   12.8103  114.1055 H   0  0  0  0  0  0
   -9.9752   12.9109  112.2760 H   0  0  0  0  0  0
   -9.5727   14.5480  112.8962 H   0  0  0  0  0  0
   -5.5508   15.4427  112.1640 H   0  0  0  0  0  0
   -3.7831   14.9434  111.0332 H   0  0  0  0  0  0
   -2.4939   13.2490  109.7476 H   0  0  0  0  0  0
   -8.4683   16.3180  112.7012 H   0  0  0  0  0  0
   -8.7901   17.0610  111.0978 H   0  0  0  0  0  0
   -7.2334   17.3752  111.9371 H   0  0  0  0  0  0
   -6.3201   15.0473  109.1926 H   0  0  0  0  0  0
   -6.0097   16.6517  109.9385 H   0  0  0  0  0  0
   -7.5664   16.3375  109.0991 H   0  0  0  0  0  0
  1  2  1  0  0  0
  1 27  1  0  0  0
  1 28  1  0  0  0
  1 29  1  0  0  0
  2  3  3  0  0  0
  3  4  1  0  0  0
  4  5  1  0  0  0
  4 30  1  0  0  0
  4 31  1  0  0  0
  5  6  1  0  0  0
  6  7  2  0  0  0
  6 11  1  0  0  0
  7  8  1  0  0  0
  7 32  1  0  0  0
  8  9  2  0  0  0
  8 33  1  0  0  0
  9 10  1  0  0  0
  9 12  1  0  0  0
 10 11  2  0  0  0
 10 34  1  0  0  0
 11 35  1  0  0  0
 12 13  2  0  0  0
 12 14  2  0  0  0
 12 15  1  0  0  0
 15 16  1  0  0  0
 15 20  1  0  0  0
 16 17  1  0  0  0
 16 36  1  0  0  0
 16 37  1  0  0  0
 17 18  1  0  0  0
 17 38  1  0  0  0
 17 39  1  0  0  0
 18 19  1  0  0  0
 19 20  1  0  0  0
 19 25  1  0  0  0
 19 26  1  0  0  0
 20 21  1  0  0  0
 20 40  1  0  0  0
 21 22  2  0  0  0
 21 23  1  0  0  0
 23 24  1  0  0  0
 23 41  1  0  0  0
 24 42  1  0  0  0
 25 43  1  0  0  0
 25 44  1  0  0  0
 25 45  1  0  0  0
 26 46  1  0  0  0
 26 47  1  0  0  0
 26 48  1  0  0  0
M  END
> <s_m_source_file>
../1zxc_ligand.sdf

> <i_m_source_file_index>
1

> <s_epik_input>
W0NIM11DI0NbQ0gyXU9jMVtjSF1bY0hdYyhbY0hdW2NIXTEpUyg9TykoPU8pTihbQ0BIXTJDKD1PKVtOSF1bT0hdKVtDSDJdW0NIMl1TQzIoW0NIM10pW0NIM10=

> <s_epik_cmdline>
J2VwaWtfYXBwJywgJy1pbWFlJywgJ2xpZ2FuZF9wcm8ubWFlJywgJy1vbWFlJywgJ2xpZ2FuZF9wcmVwLm1hZScsICctbXMnLCAnMScsICctcGgnLCAnNycsICctcGh0JywgJzAuNScsICctbnQn

> <r_lp_tautomer_probability>
1

> <r_epik_Ionization_Penalty>
  0.0240

> <r_epik_Ionization_Penalty_Charging>
  0.0000

> <r_epik_Ionization_Penalty_Neutral>
  0.0240

> <r_epik_State_Penalty>
  0.0195

> <r_epik_Charging_Adjusted_Penalty>
0.0194789140160548

> <i_epik_Tot_Q>
0

> <i_epik_Tot_abs_Q>
0

> <s_epik_Chemistry_Notes>
This compound has a N-S or N-O group and may undergo hydrolysis at high or low pH.

$$$$
