1zyr_ligand
                    3D
 Schrodinger Suite 2020-3.
 86 90  0  0  1  0            999 V2000
  -27.5940  -44.5340  -22.3290 C   0  0  0  0  0  0
  -26.9140  -43.2920  -22.5510 C   0  0  0  0  0  0
  -26.1770  -43.3940  -23.7590 N   0  0  0  0  0  0
  -27.1590  -45.3710  -23.4350 C   0  0  0  0  0  0
  -25.8500  -42.2340  -24.5140 C   0  0  1  0  0  0
  -27.7450  -46.4310  -23.7950 O   0  5  0  0  0  0
  -26.9950  -42.2470  -21.9000 O   0  0  0  0  0  0
  -28.5160  -44.8350  -21.3610 C   0  0  0  0  0  0
  -28.9440  -43.9240  -20.3420 C   0  0  0  0  0  0
  -29.8400  -44.2350  -19.4240 C   0  0  0  0  0  0
  -30.2250  -43.3700  -18.3640 C   0  0  0  0  0  0
  -31.0620  -43.8740  -17.4890 C   0  0  0  0  0  0
  -31.4910  -43.2090  -16.2530 C   0  0  2  0  0  0
  -29.6210  -41.9630  -18.2810 C   0  0  0  0  0  0
  -29.0890  -46.0960  -21.3310 O   0  0  0  0  0  0
  -27.0850  -41.4950  -24.6820 O   0  0  0  0  0  0
  -24.7090  -41.4380  -23.7910 C   0  0  0  0  0  0
  -30.3440  -43.2170  -15.1720 C   0  0  2  0  0  0
  -32.7910  -43.9040  -15.7650 C   0  0  0  0  0  0
  -24.4970  -40.1300  -24.5560 C   0  0  0  0  0  0
  -29.9930  -44.6270  -14.4790 C   0  0  2  0  0  0
  -30.8210  -42.3230  -14.1470 O   0  0  0  0  0  0
  -29.0660  -44.3820  -13.2310 C   0  0  2  0  0  0
  -29.2870  -45.6450  -15.4220 C   0  0  0  0  0  0
  -30.0030  -42.1710  -12.9400 C   0  0  1  0  0  0
  -25.9120  -44.8100  -24.1170 C   0  0  2  0  0  0
  -24.5390  -45.0300  -23.4010 C   0  0  1  0  0  0
  -24.3530  -46.2000  -22.4740 C   0  0  0  0  0  0
  -23.3360  -44.9510  -24.3920 C   0  0  0  0  0  0
  -24.1720  -45.8040  -21.1470 N   0  0  0  0  0  0
  -24.3580  -47.3960  -22.8080 O   0  0  0  0  0  0
  -23.9430  -46.7620  -20.0600 C   0  0  0  0  0  0
  -26.9270  -40.2400  -25.3890 C   0  0  2  0  0  0
  -25.8520  -39.3410  -24.6100 C   0  0  1  0  0  0
  -26.2890  -39.0940  -23.2390 O   0  0  0  0  0  0
  -28.3180  -39.5450  -25.5390 C   0  0  0  0  0  0
  -29.7840  -43.4810  -12.3260 O   0  0  0  0  0  0
  -28.6110  -41.4560  -13.2000 C   0  0  2  0  0  0
  -30.8310  -41.3040  -11.9790 C   0  0  0  0  0  0
  -27.6970  -43.7750  -13.5720 C   0  0  0  0  0  0
  -28.7680  -40.2050  -14.0150 C   0  0  0  0  0  0
  -27.4900  -42.4450  -13.5430 C   0  0  0  0  0  0
  -28.1620  -40.2370  -12.7290 O   0  0  0  0  0  0
  -25.5253  -42.5232  -25.5244 H   0  0  0  0  0  0
  -28.4875  -42.9232  -20.3482 H   0  0  0  0  0  0
  -30.3382  -45.2153  -19.4516 H   0  0  0  0  0  0
  -31.4993  -44.8694  -17.6562 H   0  0  0  0  0  0
  -31.7026  -42.1602  -16.5083 H   0  0  0  0  0  0
  -28.9543  -41.7989  -19.1404 H   0  0  0  0  0  0
  -29.0471  -41.8648  -17.3477 H   0  0  0  0  0  0
  -30.4283  -41.2160  -18.2953 H   0  0  0  0  0  0
  -25.0081  -41.2298  -22.7531 H   0  0  0  0  0  0
  -23.7860  -42.0364  -23.7936 H   0  0  0  0  0  0
  -29.4175  -42.8473  -15.6356 H   0  0  0  0  0  0
  -33.5488  -43.8649  -16.5614 H   0  0  0  0  0  0
  -33.1706  -43.3860  -14.8719 H   0  0  0  0  0  0
  -32.5745  -44.9533  -15.5160 H   0  0  0  0  0  0
  -23.7363  -39.5239  -24.0422 H   0  0  0  0  0  0
  -24.1583  -40.3539  -25.5783 H   0  0  0  0  0  0
  -30.9438  -45.0994  -14.1912 H   0  0  0  0  0  0
  -28.8584  -45.3319  -12.7166 H   0  0  0  0  0  0
  -29.9205  -45.8298  -16.3021 H   0  0  0  0  0  0
  -29.1223  -46.5901  -14.8838 H   0  0  0  0  0  0
  -28.3194  -45.2343  -15.7463 H   0  0  0  0  0  0
  -25.8303  -45.1830  -25.1486 H   0  0  0  0  0  0
  -24.5541  -44.2106  -22.6672 H   0  0  0  0  0  0
  -23.4741  -44.0949  -25.0688 H   0  0  0  0  0  0
  -23.2841  -45.8789  -24.9804 H   0  0  0  0  0  0
  -22.4019  -44.8235  -23.8253 H   0  0  0  0  0  0
  -24.2065  -44.7258  -20.9317 H   0  0  0  0  0  0
  -23.8298  -46.2187  -19.1102 H   0  0  0  0  0  0
  -23.0279  -47.3370  -20.2648 H   0  0  0  0  0  0
  -24.7996  -47.4486  -19.9899 H   0  0  0  0  0  0
  -26.5693  -40.4958  -26.3973 H   0  0  0  0  0  0
  -25.7432  -38.3422  -25.0578 H   0  0  0  0  0  0
  -25.6650  -38.4909  -22.5630 H   0  0  0  0  0  0
  -29.0050  -40.2125  -26.0798 H   0  0  0  0  0  0
  -28.2003  -38.6067  -26.1009 H   0  0  0  0  0  0
  -28.7281  -39.3264  -24.5420 H   0  0  0  0  0  0
  -31.8000  -41.7891  -11.7901 H   0  0  0  0  0  0
  -30.9979  -40.3144  -12.4294 H   0  0  0  0  0  0
  -30.2878  -41.1879  -11.0296 H   0  0  0  0  0  0
  -26.8753  -44.4537  -13.8445 H   0  0  0  0  0  0
  -28.2357  -40.3208  -14.9707 H   0  0  0  0  0  0
  -29.8357  -40.0256  -14.2094 H   0  0  0  0  0  0
  -26.4933  -42.0384  -13.7695 H   0  0  0  0  0  0
  1  2  1  0  0  0
  1  4  2  0  0  0
  1  8  1  0  0  0
  2  3  1  0  0  0
  2  7  2  0  0  0
  3  5  1  0  0  0
  3 26  1  0  0  0
  4  6  1  0  0  0
  4 26  1  0  0  0
  5 16  1  0  0  0
  5 17  1  0  0  0
  5 44  1  0  0  0
  8  9  1  0  0  0
  8 15  2  0  0  0
  9 10  2  0  0  0
  9 45  1  0  0  0
 10 11  1  0  0  0
 10 46  1  0  0  0
 11 12  2  0  0  0
 11 14  1  0  0  0
 12 13  1  0  0  0
 12 47  1  0  0  0
 13 18  1  0  0  0
 13 19  1  0  0  0
 13 48  1  0  0  0
 14 49  1  0  0  0
 14 50  1  0  0  0
 14 51  1  0  0  0
 16 33  1  0  0  0
 17 20  1  0  0  0
 17 52  1  0  0  0
 17 53  1  0  0  0
 18 21  1  0  0  0
 18 22  1  0  0  0
 18 54  1  0  0  0
 19 55  1  0  0  0
 19 56  1  0  0  0
 19 57  1  0  0  0
 20 34  1  0  0  0
 20 58  1  0  0  0
 20 59  1  0  0  0
 21 23  1  0  0  0
 21 24  1  0  0  0
 21 60  1  0  0  0
 22 25  1  0  0  0
 23 37  1  0  0  0
 23 40  1  0  0  0
 23 61  1  0  0  0
 24 62  1  0  0  0
 24 63  1  0  0  0
 24 64  1  0  0  0
 25 37  1  0  0  0
 25 38  1  0  0  0
 25 39  1  0  0  0
 26 27  1  0  0  0
 26 65  1  0  0  0
 27 28  1  0  0  0
 27 29  1  0  0  0
 27 66  1  0  0  0
 28 30  1  0  0  0
 28 31  2  0  0  0
 29 67  1  0  0  0
 29 68  1  0  0  0
 29 69  1  0  0  0
 30 32  1  0  0  0
 30 70  1  0  0  0
 32 71  1  0  0  0
 32 72  1  0  0  0
 32 73  1  0  0  0
 33 34  1  0  0  0
 33 36  1  0  0  0
 33 74  1  0  0  0
 34 35  1  0  0  0
 34 75  1  0  0  0
 35 76  1  0  0  0
 36 77  1  0  0  0
 36 78  1  0  0  0
 36 79  1  0  0  0
 38 41  1  0  0  0
 38 42  1  0  0  0
 38 43  1  0  0  0
 39 80  1  0  0  0
 39 81  1  0  0  0
 39 82  1  0  0  0
 40 42  2  0  0  0
 40 83  1  0  0  0
 41 43  1  0  0  0
 41 84  1  0  0  0
 41 85  1  0  0  0
 42 86  1  0  0  0
M  CHG  1   6  -1
M  END
> <s_m_source_file>
../1zyr_ligand.sdf

> <i_m_source_file_index>
1

> <s_epik_input>
W0NIMl0xW0NIMl1bQ0BIXShbT0hdKVtDQEhdKFtDSDNdKU9bQ0BASF0xTihbQ0BIXShDMj1PKVtDQEhdKFtDSDNdKUMoPU8pW05IXVtDSDNdKUMoPU8pL0MyPUMoW09IXSlcW0NIXT1bQ0hdXEMoW0NIM10pPVtDSF1cW0NAQEhdKFtDSDNdKVtDQEhdKFtDQEBIXShbQ0gzXSlbQ0BIXShPMylbQ0hdPVtDSF00KU9bQ0BdMyhbQ0gzXSlbQ0BdNDVbQ0gyXU81

> <s_epik_cmdline>
J2VwaWtfYXBwJywgJy1pbWFlJywgJ2xpZ2FuZF9wcm8ubWFlJywgJy1vbWFlJywgJ2xpZ2FuZF9wcmVwLm1hZScsICctbXMnLCAnMScsICctcGgnLCAnNycsICctcGh0JywgJzAuNScsICctbnQn

> <r_lp_tautomer_probability>
1

> <r_epik_Ionization_Penalty>
  0.0001

> <r_epik_Ionization_Penalty_Charging>
  0.0001

> <r_epik_Ionization_Penalty_Neutral>
  0.0000

> <r_epik_State_Penalty>
 -0.0000

> <r_epik_Charging_Adjusted_Penalty>
9.38679948697021e-05

> <i_epik_Tot_Q>
-1

> <i_epik_Tot_abs_Q>
1

> <s_epik_Chemistry_Notes>
This compound contains an acetal/aminal-like group ( X-CH(R)-Y where X, Y are N, S, or O) that may be acid/base labile, releasing an aldehyde.

$$$$
