1zz1_ligand
                    3D
 Schrodinger Suite 2020-3.
 39 39  0  0  1  0            999 V2000
   -4.3600  -14.5190   43.9310 O   0  0  0  0  0  0
   -2.3410  -14.5180   42.2580 O   0  0  0  0  0  0
   -4.4660  -14.5820   42.5380 N   0  0  0  0  0  0
   -3.4500  -14.1660   41.8800 C   0  0  0  0  0  0
   -3.7520  -13.3200   40.6460 C   0  0  0  0  0  0
   -4.0330  -11.8480   40.9210 C   0  0  0  0  0  0
   -4.1800  -10.9850   39.6570 C   0  0  0  0  0  0
   -5.1840  -11.4680   38.6000 C   0  0  0  0  0  0
   -5.6240  -10.3570   37.6390 C   0  0  0  0  0  0
   -6.6640  -10.8180   36.6160 C   0  0  0  0  0  0
   -7.2510   -9.5920   35.9400 C   0  0  0  0  0  0
   -6.5290   -8.8030   35.3400 O   0  0  0  0  0  0
   -8.5720   -9.4340   36.0480 N   0  0  0  0  0  0
   -9.2500   -8.3670   35.5510 C   0  0  0  0  0  0
  -10.4390   -8.5970   34.8640 C   0  0  0  0  0  0
  -11.1670   -7.5280   34.3460 C   0  0  0  0  0  0
  -10.7050   -6.2200   34.5160 C   0  0  0  0  0  0
   -9.5140   -5.9780   35.2050 C   0  0  0  0  0  0
   -8.7880   -7.0560   35.7220 C   0  0  0  0  0  0
   -5.1942  -14.8594   44.5620 H   0  0  0  0  0  0
   -5.3836  -14.9719   42.0733 H   0  0  0  0  0  0
   -2.8924  -13.3517   39.9604 H   0  0  0  0  0  0
   -4.6419  -13.7187   40.1369 H   0  0  0  0  0  0
   -4.9719  -11.7533   41.4862 H   0  0  0  0  0  0
   -3.2069  -11.4205   41.5082 H   0  0  0  0  0  0
   -4.5094   -9.9742   39.9394 H   0  0  0  0  0  0
   -3.2110  -10.9238   39.1401 H   0  0  0  0  0  0
   -4.7271  -12.2679   37.9988 H   0  0  0  0  0  0
   -6.0850  -11.8537   39.0993 H   0  0  0  0  0  0
   -6.0680   -9.5303   38.2130 H   0  0  0  0  0  0
   -4.7510   -9.9883   37.0805 H   0  0  0  0  0  0
   -6.1812  -11.4641   35.8681 H   0  0  0  0  0  0
   -7.4582  -11.3806   37.1286 H   0  0  0  0  0  0
   -9.1765  -10.1944   36.5640 H   0  0  0  0  0  0
  -10.8013   -9.6164   34.7310 H   0  0  0  0  0  0
  -12.0970   -7.7118   33.8081 H   0  0  0  0  0  0
  -11.2762   -5.3854   34.1094 H   0  0  0  0  0  0
   -9.1537   -4.9580   35.3385 H   0  0  0  0  0  0
   -7.8579   -6.8748   36.2607 H   0  0  0  0  0  0
  1  3  1  0  0  0
  1 20  1  0  0  0
  2  4  2  0  0  0
  3  4  1  0  0  0
  3 21  1  0  0  0
  4  5  1  0  0  0
  5  6  1  0  0  0
  5 22  1  0  0  0
  5 23  1  0  0  0
  6  7  1  0  0  0
  6 24  1  0  0  0
  6 25  1  0  0  0
  7  8  1  0  0  0
  7 26  1  0  0  0
  7 27  1  0  0  0
  8  9  1  0  0  0
  8 28  1  0  0  0
  8 29  1  0  0  0
  9 10  1  0  0  0
  9 30  1  0  0  0
  9 31  1  0  0  0
 10 11  1  0  0  0
 10 32  1  0  0  0
 10 33  1  0  0  0
 11 12  2  0  0  0
 11 13  1  0  0  0
 13 14  1  0  0  0
 13 34  1  0  0  0
 14 15  2  0  0  0
 14 19  1  0  0  0
 15 16  1  0  0  0
 15 35  1  0  0  0
 16 17  2  0  0  0
 16 36  1  0  0  0
 17 18  1  0  0  0
 17 37  1  0  0  0
 18 19  2  0  0  0
 18 38  1  0  0  0
 19 39  1  0  0  0
M  END
> <s_m_source_file>
../1zz1_ligand.sdf

> <i_m_source_file_index>
1

> <s_epik_input>
W09IXVtOSF1DKD1PKVtDSDJdW0NIMl1bQ0gyXVtDSDJdW0NIMl1bQ0gyXUMoPU8pW05IXWMxW2NIXVtjSF1bY0hdW2NIXVtjSF0x

> <s_epik_cmdline>
J2VwaWtfYXBwJywgJy1pbWFlJywgJ2xpZ2FuZF9wcm8ubWFlJywgJy1vbWFlJywgJ2xpZ2FuZF9wcmVwLm1hZScsICctbXMnLCAnMScsICctcGgnLCAnNycsICctcGh0JywgJzAuNScsICctbnQn

> <r_lp_tautomer_probability>
1

> <r_epik_Ionization_Penalty>
  0.0036

> <r_epik_Ionization_Penalty_Charging>
  0.0000

> <r_epik_Ionization_Penalty_Neutral>
  0.0036

> <r_epik_State_Penalty>
 -0.0000

> <r_epik_Charging_Adjusted_Penalty>
0

> <i_epik_Tot_Q>
0

> <i_epik_Tot_abs_Q>
0

> <s_epik_Chemistry_Notes>
This compound has a N-S or N-O group and may undergo hydrolysis at high or low pH.

$$$$
