1zz2_ligand
                    3D
 Schrodinger Suite 2020-3.
 59 62  0  0  1  0            999 V2000
   28.8390   68.5680   16.5790 C   0  0  0  0  0  0
   29.9200   68.2440   15.6580 C   0  0  0  0  0  0
   31.2830   68.7130   15.8980 C   0  0  0  0  0  0
   31.6020   69.5050   17.0750 C   0  0  0  0  0  0
   30.5130   69.8080   17.9900 C   0  0  0  0  0  0
   29.1500   69.3640   17.7550 C   0  0  0  0  0  0
   28.2970   69.7300   18.5730 O   0  0  0  0  0  0
   30.7450   70.5210   19.3010 C   0  0  0  0  0  0
   30.6640   71.9830   19.1740 N   0  3  0  0  0  0
   31.0760   72.7830   20.3380 C   0  0  0  0  0  0
   30.8550   74.2580   20.0030 C   0  0  0  0  0  0
   31.4410   75.1920   21.0460 C   0  0  0  0  0  0
   32.8760   74.9020   21.2540 N   0  0  2  0  0  0
   33.1740   73.4960   21.5980 C   0  0  0  0  0  0
   32.5680   72.5370   20.5820 C   0  0  0  0  0  0
   33.7600   76.1260   22.1960 S   0  0  0  0  0  0
   33.7490   77.6910   21.4490 N   0  5  0  0  0  0
   32.9590   76.2460   23.7240 O   0  0  0  0  0  0
   35.3710   75.5410   22.3230 O   0  0  0  0  0  0
   34.1220   77.8400   20.0960 C   0  0  0  0  0  0
   34.6380   76.7600   19.2660 C   0  0  0  0  0  0
   35.0160   77.1050   17.9040 C   0  0  0  0  0  0
   34.8540   78.4650   17.4130 C   0  0  0  0  0  0
   34.3350   79.5190   18.2630 C   0  0  0  0  0  0
   33.9700   79.2050   19.6330 C   0  0  0  0  0  0
   35.5880   76.1750   17.1270 O   0  0  0  0  0  0
   36.2660   76.4920   16.0170 C   0  0  0  0  0  0
   35.7110   76.0000   14.7670 C   0  0  0  0  0  0
   36.4030   76.3570   13.5380 C   0  0  0  0  0  0
   37.6050   77.1760   13.5750 C   0  0  0  0  0  0
   38.1480   77.6460   14.8460 C   0  0  0  0  0  0
   37.4740   77.3050   16.0910 C   0  0  0  0  0  0
   38.2370   77.5900   12.2920 F   0  0  0  0  0  0
   27.8225   68.2223   16.3911 H   0  0  0  0  0  0
   29.7086   67.6414   14.7747 H   0  0  0  0  0  0
   32.0704   68.4661   15.1859 H   0  0  0  0  0  0
   32.6161   69.8573   17.2638 H   0  0  0  0  0  0
   27.2477   69.4249   18.4471 H   0  0  0  0  0  0
   29.9852   70.2037   20.0304 H   0  0  0  0  0  0
   31.7461   70.2710   19.6822 H   0  0  0  0  0  0
   31.3080   72.3154   18.3465 H   0  0  0  0  0  0
   29.6237   72.2762   18.9696 H   0  0  0  0  0  0
   30.4780   72.4844   21.2116 H   0  0  0  0  0  0
   31.3307   74.4903   19.0388 H   0  0  0  0  0  0
   29.7760   74.4616   19.9380 H   0  0  0  0  0  0
   31.3325   76.2332   20.7081 H   0  0  0  0  0  0
   30.9079   75.0583   21.9989 H   0  0  0  0  0  0
   34.2635   73.3456   21.6144 H   0  0  0  0  0  0
   32.7570   73.2647   22.5893 H   0  0  0  0  0  0
   32.7139   71.5147   20.9610 H   0  0  0  0  0  0
   33.1191   72.6602   19.6380 H   0  0  0  0  0  0
   34.7361   75.7433   19.6465 H   0  0  0  0  0  0
   35.1287   78.6966   16.3839 H   0  0  0  0  0  0
   34.2205   80.5327   17.8790 H   0  0  0  0  0  0
   33.5897   79.9795   20.2991 H   0  0  0  0  0  0
   34.8101   75.3866   14.7509 H   0  0  0  0  0  0
   36.0172   76.0075   12.5803 H   0  0  0  0  0  0
   39.0550   78.2502   14.8630 H   0  0  0  0  0  0
   37.8614   77.6477   17.0505 H   0  0  0  0  0  0
  1  2  2  0  0  0
  1  6  1  0  0  0
  1 34  1  0  0  0
  2  3  1  0  0  0
  2 35  1  0  0  0
  3  4  2  0  0  0
  3 36  1  0  0  0
  4  5  1  0  0  0
  4 37  1  0  0  0
  5  6  2  0  0  0
  5  8  1  0  0  0
  6  7  1  0  0  0
  7 38  1  0  0  0
  8  9  1  0  0  0
  8 39  1  0  0  0
  8 40  1  0  0  0
  9 10  1  0  0  0
  9 41  1  0  0  0
  9 42  1  0  0  0
 10 11  1  0  0  0
 10 15  1  0  0  0
 10 43  1  0  0  0
 11 12  1  0  0  0
 11 44  1  0  0  0
 11 45  1  0  0  0
 12 13  1  0  0  0
 12 46  1  0  0  0
 12 47  1  0  0  0
 13 14  1  0  0  0
 13 16  1  0  0  0
 14 15  1  0  0  0
 14 48  1  0  0  0
 14 49  1  0  0  0
 15 50  1  0  0  0
 15 51  1  0  0  0
 16 17  1  0  0  0
 16 18  2  0  0  0
 16 19  2  0  0  0
 17 20  1  0  0  0
 20 21  2  0  0  0
 20 25  1  0  0  0
 21 22  1  0  0  0
 21 52  1  0  0  0
 22 23  2  0  0  0
 22 26  1  0  0  0
 23 24  1  0  0  0
 23 53  1  0  0  0
 24 25  2  0  0  0
 24 54  1  0  0  0
 25 55  1  0  0  0
 26 27  1  0  0  0
 27 28  2  0  0  0
 27 32  1  0  0  0
 28 29  1  0  0  0
 28 56  1  0  0  0
 29 30  2  0  0  0
 29 57  1  0  0  0
 30 31  1  0  0  0
 30 33  1  0  0  0
 31 32  2  0  0  0
 31 58  1  0  0  0
 32 59  1  0  0  0
M  CHG  2   9   1  17  -1
M  END
> <s_m_source_file>
../1zz2_ligand.sdf

> <i_m_source_file_index>
1

> <s_epik_input>
W09IXWMxW2NIXVtjSF1bY0hdW2NIXWMxW0NIMl1bTkgyK11bQ0hdMltDSDJdW0NIMl1OKFtDSDJdW0NIMl0yKVMoPU8pKD1PKVtOSF1jM1tjSF1jKFtjSF1bY0hdW2NIXTMpT2M0W2NIXVtjSF1jKEYpW2NIXVtjSF00

> <s_epik_cmdline>
J2VwaWtfYXBwJywgJy1pbWFlJywgJ2xpZ2FuZF9wcm8ubWFlJywgJy1vbWFlJywgJ2xpZ2FuZF9wcmVwLm1hZScsICctbXMnLCAnMScsICctcGgnLCAnNycsICctcGh0JywgJzAuNScsICctbnQn

> <r_lp_tautomer_probability>
0.999999999997365

> <r_epik_Ionization_Penalty>
  0.3641

> <r_epik_Ionization_Penalty_Charging>
  0.3508

> <r_epik_Ionization_Penalty_Neutral>
  0.0133

> <r_epik_State_Penalty>
  0.3244

> <r_epik_Charging_Adjusted_Penalty>
0.675155911829482

> <i_epik_Tot_Q>
0

> <i_epik_Tot_abs_Q>
2

$$$$
