1zzz_ligand
                    3D
 Schrodinger Suite 2020-3.
 57 58  0  0  1  0            999 V2000
   25.1570    4.6820   29.2140 N   0  3  0  0  0  0
   25.5970    3.3910   29.6250 C   0  0  1  0  0  0
   26.1840    3.4820   31.0050 C   0  0  0  0  0  0
   26.4320    2.1540   31.6720 C   0  0  0  0  0  0
   24.5370    2.2410   29.4950 C   0  0  0  0  0  0
   25.2710    1.1810   31.6400 C   0  0  0  0  0  0
   23.7760    2.3820   28.5310 O   0  0  0  0  0  0
   24.6040    1.1740   30.3100 N   0  0  0  0  0  0
   23.7020    0.0530   29.9470 C   0  0  0  0  0  0
   22.4180    0.8670   30.2860 C   0  0  0  0  0  0
   22.1470    1.3320   31.4330 O   0  0  0  0  0  0
   19.3380    2.1580   28.1910 C   0  0  1  0  0  0
   20.1240    2.0850   26.8650 C   0  0  0  0  0  0
   21.2880    0.3550   29.5550 N   0  0  0  0  0  0
   19.9550    0.5250   29.9580 C   0  0  2  0  0  0
   19.4520   -0.5070   31.0730 C   0  0  0  0  0  0
   18.0560   -0.6290   31.1720 O   0  0  0  0  0  0
   19.1950    0.8040   28.7650 C   0  0  0  0  0  0
   19.9900    3.7540   25.0540 C   0  0  0  0  0  0
   20.2770    3.4130   26.3750 N   0  0  0  0  0  0
   20.9790    4.3780   27.3200 C   0  0  0  0  0  0
   20.1910    4.5320   28.6190 C   0  0  0  0  0  0
   20.0500    3.1780   29.1560 C   0  0  0  0  0  0
   19.5410    2.8750   24.2120 N   0  0  0  0  0  0
   20.1300    4.9700   24.7200 N   0  3  0  0  0  0
   25.9735    5.4071   29.3466 H   0  0  0  0  0  0
   24.2936    4.9864   29.8238 H   0  0  0  0  0  0
   24.8641    4.6493   28.1542 H   0  0  0  0  0  0
   26.3931    3.1887   28.8934 H   0  0  0  0  0  0
   27.1532    4.0001   30.9578 H   0  0  0  0  0  0
   25.4997    4.0432   31.6583 H   0  0  0  0  0  0
   27.2747    1.6476   31.1787 H   0  0  0  0  0  0
   26.6719    2.3158   32.7333 H   0  0  0  0  0  0
   25.6376    0.1657   31.8516 H   0  0  0  0  0  0
   24.5300    1.4691   32.4002 H   0  0  0  0  0  0
   23.8576   -0.2158   28.8918 H   0  0  0  0  0  0
   23.9233   -0.8165   30.5833 H   0  0  0  0  0  0
   18.2962    2.4709   28.0272 H   0  0  0  0  0  0
   21.1088    1.6299   27.0471 H   0  0  0  0  0  0
   19.5657    1.4734   26.1410 H   0  0  0  0  0  0
   21.5173   -0.1968   28.6314 H   0  0  0  0  0  0
   19.8812    1.4983   30.4652 H   0  0  0  0  0  0
   19.8438   -1.5099   30.8478 H   0  0  0  0  0  0
   19.8141   -0.1851   32.0606 H   0  0  0  0  0  0
   17.6148   -1.3148   31.9103 H   0  0  0  0  0  0
   18.1426    0.6284   29.0325 H   0  0  0  0  0  0
   19.5148    0.0561   28.0244 H   0  0  0  0  0  0
   21.9825    3.9946   27.5567 H   0  0  0  0  0  0
   21.0670    5.3634   26.8391 H   0  0  0  0  0  0
   20.7474    5.1818   29.3105 H   0  0  0  0  0  0
   19.2107    4.9815   28.4021 H   0  0  0  0  0  0
   19.4730    3.2645   30.0885 H   0  0  0  0  0  0
   21.0645    2.8196   29.3845 H   0  0  0  0  0  0
   19.4268    1.8255   24.5210 H   0  0  0  0  0  0
   19.2745    3.1792   23.1891 H   0  0  0  0  0  0
   20.5123    5.7000   25.4487 H   0  0  0  0  0  0
   19.8691    5.2942   23.7018 H   0  0  0  0  0  0
  1  2  1  0  0  0
  1 26  1  0  0  0
  1 27  1  0  0  0
  1 28  1  0  0  0
  2  3  1  0  0  0
  2  5  1  0  0  0
  2 29  1  0  0  0
  3  4  1  0  0  0
  3 30  1  0  0  0
  3 31  1  0  0  0
  4  6  1  0  0  0
  4 32  1  0  0  0
  4 33  1  0  0  0
  5  7  2  0  0  0
  5  8  1  0  0  0
  6  8  1  0  0  0
  6 34  1  0  0  0
  6 35  1  0  0  0
  8  9  1  0  0  0
  9 10  1  0  0  0
  9 36  1  0  0  0
  9 37  1  0  0  0
 10 11  2  0  0  0
 10 14  1  0  0  0
 12 13  1  0  0  0
 12 18  1  0  0  0
 12 23  1  0  0  0
 12 38  1  0  0  0
 13 20  1  0  0  0
 13 39  1  0  0  0
 13 40  1  0  0  0
 14 15  1  0  0  0
 14 41  1  0  0  0
 15 16  1  0  0  0
 15 18  1  0  0  0
 15 42  1  0  0  0
 16 17  1  0  0  0
 16 43  1  0  0  0
 16 44  1  0  0  0
 17 45  1  0  0  0
 18 46  1  0  0  0
 18 47  1  0  0  0
 19 20  1  0  0  0
 19 24  1  0  0  0
 19 25  2  0  0  0
 20 21  1  0  0  0
 21 22  1  0  0  0
 21 48  1  0  0  0
 21 49  1  0  0  0
 22 23  1  0  0  0
 22 50  1  0  0  0
 22 51  1  0  0  0
 23 52  1  0  0  0
 23 53  1  0  0  0
 24 54  1  0  0  0
 24 55  1  0  0  0
 25 56  1  0  0  0
 25 57  1  0  0  0
M  CHG  2   1   1  25   1
M  END
> <s_m_source_file>
../1zzz_ligand.sdf

> <i_m_source_file_index>
1

> <s_epik_input>
W05IMytdW0NASF0xW0NIMl1bQ0gyXVtDSDJdTihDMT1PKVtDSDJdQyg9TylbTkhdW0NASF0oW0NIMl1bT0hdKVtDSDJdW0NAQEhdMltDSDJdTigvQyhbTkgyXSk9TlxbSF0pW0NIMl1bQ0gyXVtDSDJdMg==

> <s_epik_cmdline>
J2VwaWtfYXBwJywgJy1pbWFlJywgJ2xpZ2FuZF9wcm8ubWFlJywgJy1vbWFlJywgJ2xpZ2FuZF9wcmVwLm1hZScsICctbXMnLCAnMScsICctcGgnLCAnNycsICctcGh0JywgJzAuNScsICctbnQn

> <r_epik_Ionization_Penalty>
  0.0312

> <r_epik_Ionization_Penalty_Charging>
  0.0312

> <r_epik_Ionization_Penalty_Neutral>
  0.0000

> <r_epik_State_Penalty>
  0.0258

> <r_epik_Charging_Adjusted_Penalty>
0.0570479218254639

> <i_epik_Tot_Q>
2

> <i_epik_Tot_abs_Q>
2

> <s_epik_Chemistry_Notes>
This compound has an imine and may undergo hydrolysis.

$$$$
