220l_ligand
                    3D
 Schrodinger Suite 2020-3.
 12 12  0  0  1  0            999 V2000
   30.3320    8.8900    1.1050 C   0  0  0  0  0  0
   30.9980   10.0850    1.3100 C   0  0  0  0  0  0
   30.2880   11.2650    1.4270 C   0  0  0  0  0  0
   28.9160   11.2430    1.3150 C   0  0  0  0  0  0
   28.2450   10.0330    1.1040 C   0  0  0  0  0  0
   28.9480    8.8550    1.0060 C   0  0  0  0  0  0
   30.9012    7.9643    1.0202 H   0  0  0  0  0  0
   32.0857   10.0960    1.3794 H   0  0  0  0  0  0
   30.8098   12.2050    1.6064 H   0  0  0  0  0  0
   28.3501   12.1715    1.3909 H   0  0  0  0  0  0
   27.1585   10.0242    1.0168 H   0  0  0  0  0  0
   28.4271    7.9098    0.8532 H   0  0  0  0  0  0
  1  2  2  0  0  0
  1  6  1  0  0  0
  1  7  1  0  0  0
  2  3  1  0  0  0
  2  8  1  0  0  0
  3  4  2  0  0  0
  3  9  1  0  0  0
  4  5  1  0  0  0
  4 10  1  0  0  0
  5  6  2  0  0  0
  5 11  1  0  0  0
  6 12  1  0  0  0
M  END
> <s_m_source_file>
../220l_ligand.sdf

> <i_m_source_file_index>
1

> <s_epik_input>
W2NIXTFbY0hdW2NIXVtjSF1bY0hdW2NIXTE=

> <s_epik_cmdline>
J2VwaWtfYXBwJywgJy1pbWFlJywgJ2xpZ2FuZF9wcm8ubWFlJywgJy1vbWFlJywgJ2xpZ2FuZF9wcmVwLm1hZScsICctbXMnLCAnMScsICctcGgnLCAnNycsICctcGh0JywgJzAuNScsICctbnQn

> <r_lp_tautomer_probability>
1

> <r_epik_Ionization_Penalty>
  0.0000

> <r_epik_Ionization_Penalty_Charging>
  0.0000

> <r_epik_Ionization_Penalty_Neutral>
  0.0000

> <r_epik_State_Penalty>
 -0.0000

> <r_epik_Charging_Adjusted_Penalty>
0

> <i_epik_Tot_Q>
0

> <i_epik_Tot_abs_Q>
0

$$$$
