223l_ligand
                    3D
 Schrodinger Suite 2020-3.
 12 12  0  0  1  0            999 V2000
   29.4090    7.9130   -1.7090 C   0  0  0  0  0  0
   30.1620    7.3800   -2.7460 C   0  0  0  0  0  0
   31.3980    7.9340   -3.0780 C   0  0  0  0  0  0
   31.8660    9.0540   -2.4000 C   0  0  0  0  0  0
   31.1000    9.6020   -1.3760 C   0  0  0  0  0  0
   29.8700    9.0320   -1.0270 C   0  0  0  0  0  0
   28.4596    7.4554   -1.4308 H   0  0  0  0  0  0
   29.7850    6.5231   -3.3043 H   0  0  0  0  0  0
   31.9985    7.4880   -3.8708 H   0  0  0  0  0  0
   32.8243    9.4987   -2.6683 H   0  0  0  0  0  0
   31.4601   10.4812   -0.8418 H   0  0  0  0  0  0
   29.2757    9.4650   -0.2224 H   0  0  0  0  0  0
  1  2  2  0  0  0
  1  6  1  0  0  0
  1  7  1  0  0  0
  2  3  1  0  0  0
  2  8  1  0  0  0
  3  4  2  0  0  0
  3  9  1  0  0  0
  4  5  1  0  0  0
  4 10  1  0  0  0
  5  6  2  0  0  0
  5 11  1  0  0  0
  6 12  1  0  0  0
M  END
> <s_m_source_file>
../223l_ligand.sdf

> <i_m_source_file_index>
1

> <s_epik_input>
W2NIXTFbY0hdW2NIXVtjSF1bY0hdW2NIXTE=

> <s_epik_cmdline>
J2VwaWtfYXBwJywgJy1pbWFlJywgJ2xpZ2FuZF9wcm8ubWFlJywgJy1vbWFlJywgJ2xpZ2FuZF9wcmVwLm1hZScsICctbXMnLCAnMScsICctcGgnLCAnNycsICctcGh0JywgJzAuNScsICctbnQn

> <r_lp_tautomer_probability>
1

> <r_epik_Ionization_Penalty>
  0.0000

> <r_epik_Ionization_Penalty_Charging>
  0.0000

> <r_epik_Ionization_Penalty_Neutral>
  0.0000

> <r_epik_State_Penalty>
 -0.0000

> <r_epik_Charging_Adjusted_Penalty>
0

> <i_epik_Tot_Q>
0

> <i_epik_Tot_abs_Q>
0

$$$$
