2a0c_ligand
                    3D
 Schrodinger Suite 2020-3.
 53 55  0  0  1  0            999 V2000
    3.4740    9.8470   27.9890 O   0  0  0  0  0  0
    4.1320    9.7280   29.1940 C   0  0  0  0  0  0
    4.2590   10.8230   30.0990 C   0  0  0  0  0  0
    4.9420   10.6450   31.3430 C   0  0  0  0  0  0
    5.4970    9.3750   31.6790 C   0  0  0  0  0  0
    5.3710    8.2830   30.7740 C   0  0  0  0  0  0
    4.7060    8.4760   29.5380 C   0  0  0  0  0  0
    4.5230    7.3480   28.5790 C   0  0  0  0  0  0
    3.5280    6.4870   28.6970 N   0  0  0  0  0  0
    2.4240    6.4650   28.1680 C   0  0  0  0  0  0
    1.5150    5.4070   28.2980 C   0  0  0  0  0  0
    1.4980    4.2120   28.9170 N   0  0  0  0  0  0
    0.3690    3.6070   28.6340 C   0  0  0  0  0  0
    0.2650    5.5380   27.5840 C   0  0  0  0  0  0
   -0.4450    4.3860   27.8110 N   0  0  0  0  0  0
   -1.8090    4.0590   27.2480 C   0  0  0  0  0  0
   -1.6370    3.7090   25.7810 C   0  0  0  0  0  0
   -2.9320    5.1140   27.3750 C   0  0  0  0  0  0
   -0.0340    6.6310   26.8070 N   0  0  0  0  0  0
    0.8550    7.6550   26.7100 C   0  0  0  0  0  0
    2.0320    7.5560   27.3930 N   0  0  0  0  0  0
    0.6230    8.6970   25.9820 N   0  0  0  0  0  0
   -0.5390    8.8980   25.0470 C   0  0  2  0  0  0
   -1.6670    9.6260   25.8740 C   0  0  0  0  0  0
   -1.5940   11.1530   26.1440 C   0  0  0  0  0  0
   -1.0700    7.6310   24.2720 C   0  0  0  0  0  0
   -0.2060    7.0360   23.2990 O   0  0  0  0  0  0
    3.0216   10.8077   27.7019 H   0  0  0  0  0  0
    3.8360   11.7944   29.8429 H   0  0  0  0  0  0
    5.0385   11.4813   32.0353 H   0  0  0  0  0  0
    6.0170    9.2404   32.6275 H   0  0  0  0  0  0
    5.7827    7.3068   31.0300 H   0  0  0  0  0  0
    4.3839    7.7486   27.5640 H   0  0  0  0  0  0
    5.4127    6.7015   28.5992 H   0  0  0  0  0  0
    3.6296    5.6169   29.3623 H   0  0  0  0  0  0
    0.0994    2.6155   28.9978 H   0  0  0  0  0  0
   -2.1440    3.2220   27.8782 H   0  0  0  0  0  0
   -0.8402    2.9582   25.6742 H   0  0  0  0  0  0
   -1.3661    4.6140   25.2175 H   0  0  0  0  0  0
   -2.5801    3.3011   25.3884 H   0  0  0  0  0  0
   -3.0687    5.3783   28.4340 H   0  0  0  0  0  0
   -3.8701    4.7007   26.9761 H   0  0  0  0  0  0
   -2.6561    6.0136   26.8052 H   0  0  0  0  0  0
    1.3811    9.4861   26.0948 H   0  0  0  0  0  0
   -0.1279    9.5101   24.2307 H   0  0  0  0  0  0
   -2.6340    9.5000   25.3650 H   0  0  0  0  0  0
   -1.7233    9.1884   26.8816 H   0  0  0  0  0  0
   -2.4693   11.4634   26.7334 H   0  0  0  0  0  0
   -1.5858   11.6946   25.1866 H   0  0  0  0  0  0
   -0.6751   11.3829   26.7032 H   0  0  0  0  0  0
   -1.2919    6.8281   24.9904 H   0  0  0  0  0  0
   -1.9856    7.8945   23.7223 H   0  0  0  0  0  0
   -0.5381    6.1510   22.7365 H   0  0  0  0  0  0
  1  2  1  0  0  0
  1 28  1  0  0  0
  2  3  2  0  0  0
  2  7  1  0  0  0
  3  4  1  0  0  0
  3 29  1  0  0  0
  4  5  2  0  0  0
  4 30  1  0  0  0
  5  6  1  0  0  0
  5 31  1  0  0  0
  6  7  2  0  0  0
  6 32  1  0  0  0
  7  8  1  0  0  0
  8  9  1  0  0  0
  8 33  1  0  0  0
  8 34  1  0  0  0
  9 10  1  0  0  0
  9 35  1  0  0  0
 10 11  2  0  0  0
 10 21  1  0  0  0
 11 12  1  0  0  0
 11 14  1  0  0  0
 12 13  2  0  0  0
 13 15  1  0  0  0
 13 36  1  0  0  0
 14 15  1  0  0  0
 14 19  2  0  0  0
 15 16  1  0  0  0
 16 17  1  0  0  0
 16 18  1  0  0  0
 16 37  1  0  0  0
 17 38  1  0  0  0
 17 39  1  0  0  0
 17 40  1  0  0  0
 18 41  1  0  0  0
 18 42  1  0  0  0
 18 43  1  0  0  0
 19 20  1  0  0  0
 20 21  2  0  0  0
 20 22  1  0  0  0
 22 23  1  0  0  0
 22 44  1  0  0  0
 23 24  1  0  0  0
 23 26  1  0  0  0
 23 45  1  0  0  0
 24 25  1  0  0  0
 24 46  1  0  0  0
 24 47  1  0  0  0
 25 48  1  0  0  0
 25 49  1  0  0  0
 25 50  1  0  0  0
 26 27  1  0  0  0
 26 51  1  0  0  0
 26 52  1  0  0  0
 27 53  1  0  0  0
M  END
> <s_m_source_file>
../2a0c_ligand.sdf

> <i_m_source_file_index>
1

> <s_epik_input>
W09IXWMxW2NIXVtjSF1bY0hdW2NIXWMxW0NIMl1bTkhdYzJuYyhbTkhdW0NASF0oW0NIMl1bQ0gzXSlbQ0gyXVtPSF0pbmMoYzIzKW4oW2NIXW4zKVtDSF0oW0NIM10pW0NIM10=

> <s_epik_cmdline>
J2VwaWtfYXBwJywgJy1pbWFlJywgJ2xpZ2FuZF9wcm8ubWFlJywgJy1vbWFlJywgJ2xpZ2FuZF9wcmVwLm1hZScsICctbXMnLCAnMScsICctcGgnLCAnNycsICctcGh0JywgJzAuNScsICctbnQn

> <r_lp_tautomer_probability>
1

> <r_epik_Ionization_Penalty>
  0.0135

> <r_epik_Ionization_Penalty_Charging>
  0.0000

> <r_epik_Ionization_Penalty_Neutral>
  0.0135

> <r_epik_State_Penalty>
 -0.0000

> <r_epik_Charging_Adjusted_Penalty>
0

> <i_epik_Tot_Q>
0

> <i_epik_Tot_abs_Q>
0

$$$$
