2a0t_ligand
                    3D
 Schrodinger Suite 2020-3.
163164  0  0  1  0            999 V2000
    7.3530  -11.7920  -28.6130 N   0  3  0  0  0  0
    6.2150  -11.5090  -29.5260 C   0  0  2  0  0  0
    5.0520  -12.4640  -29.2710 C   0  0  0  0  0  0
    4.3340  -12.8450  -30.1950 O   0  0  0  0  0  0
    6.7040  -11.6420  -30.9710 C   0  0  0  0  0  0
    6.5450  -10.3550  -31.7560 C   0  0  0  0  0  0
    6.3440   -9.2850  -31.1810 O   0  0  0  0  0  0
    6.6350  -10.4520  -33.0770 N   0  0  0  0  0  0
    4.8720  -12.8470  -28.0110 N   0  0  0  0  0  0
    3.7970  -13.7580  -27.6350 C   0  0  2  0  0  0
    3.3330  -13.4870  -26.2040 C   0  0  0  0  0  0
    4.1410  -13.1710  -25.3310 O   0  0  0  0  0  0
    4.2600  -15.2100  -27.7720 C   0  0  0  0  0  0
    3.3540  -16.0230  -28.6770 C   0  0  0  0  0  0
    3.0130  -15.5300  -29.7720 O   0  0  0  0  0  0
    2.9860  -17.1520  -28.2900 O   0  0  0  0  0  0
    2.0180  -13.6080  -25.9430 N   0  0  0  0  0  0
    1.4540  -13.3740  -24.6110 C   0  0  2  0  0  0
    1.7540  -14.5160  -23.6470 C   0  0  0  0  0  0
    2.5720  -15.3900  -23.9380 O   0  0  0  0  0  0
   -0.0470  -13.2800  -24.8790 C   0  0  0  0  0  0
   -0.2650  -14.1190  -26.0900 C   0  0  0  0  0  0
    0.9810  -13.9810  -26.9250 C   0  0  0  0  0  0
    1.0880  -14.5050  -22.4960 N   0  0  0  0  0  0
    1.2840  -15.5410  -21.4890 C   0  0  2  0  0  0
    0.2320  -15.4400  -20.3890 C   0  0  0  0  0  0
    0.2880  -14.5480  -19.5420 O   0  0  0  0  0  0
    2.6850  -15.4350  -20.8830 C   0  0  0  0  0  0
    3.2740  -16.7920  -20.5520 C   0  0  0  0  0  0
    3.4420  -17.6090  -21.4810 O   0  0  0  0  0  0
    3.5670  -17.0380  -19.3620 O   0  0  0  0  0  0
   -0.7250  -16.3610  -20.4070 N   0  0  0  0  0  0
   -1.7910  -16.3790  -19.4120 C   0  0  1  0  0  0
   -3.1790  -16.2750  -20.0780 C   0  0  1  0  0  0
   -4.2910  -16.3220  -19.0400 C   0  0  0  0  0  0
   -3.2690  -15.0800  -20.8040 O   0  0  0  0  0  0
   -3.6810  -15.1620  -22.3060 P   0  0  0  0  0  0
   -5.1970  -15.4850  -22.2810 O   0  0  0  0  0  0
   -3.4780  -13.7250  -22.8490 O   0  0  0  0  0  0
   -2.8870  -16.1840  -23.0680 O   0  0  0  0  0  0
   -1.7260  -17.6530  -18.5720 C   0  0  0  0  0  0
   -1.5370  -18.7480  -19.1030 O   0  0  0  0  0  0
   -1.8800  -17.5030  -17.2590 N   0  0  0  0  0  0
   -1.8330  -18.6440  -16.3510 C   0  0  2  0  0  0
   -2.6290  -18.3730  -15.0770 C   0  0  0  0  0  0
   -3.2320  -17.3110  -14.9220 O   0  0  0  0  0  0
   -0.3830  -18.9830  -15.9930 C   0  0  0  0  0  0
    0.5340  -17.7800  -15.7450 C   0  0  0  0  0  0
    0.9240  -17.1240  -17.0610 C   0  0  0  0  0  0
   -0.1310  -16.7740  -14.8150 C   0  0  0  0  0  0
   -2.6200  -19.3430  -14.1670 N   0  0  0  0  0  0
   -3.3340  -19.2180  -12.9020 C   0  0  2  0  0  0
   -2.5170  -19.8110  -11.7570 C   0  0  0  0  0  0
   -2.8380  -20.8850  -11.2500 O   0  0  0  0  0  0
   -4.6930  -19.9150  -12.9890 C   0  0  0  0  0  0
   -5.5780  -19.3810  -14.1030 C   0  0  0  0  0  0
   -6.9420  -20.0430  -14.1320 C   0  0  0  0  0  0
   -6.9980  -21.2830  -14.2740 O   0  0  0  0  0  0
   -7.9540  -19.3220  -14.0140 O   0  0  0  0  0  0
   -1.4560  -19.0990  -11.3670 N   0  0  0  0  0  0
   -0.5610  -19.5280  -10.2860 C   0  0  2  0  0  0
   -0.0970  -20.9750  -10.4650 C   0  0  0  0  0  0
   -0.7410  -21.7730  -11.1440 O   0  0  0  0  0  0
   -1.2090  -19.3560   -8.8890 C   0  0  2  0  0  0
   -0.2330  -19.7760   -7.7860 C   0  0  0  0  0  0
   -2.4980  -20.1520   -8.7790 C   0  0  0  0  0  0
   -0.7730  -19.5690   -6.3870 C   0  0  0  0  0  0
    1.0370  -21.3010   -9.8540 N   0  0  0  0  0  0
    1.5990  -22.6450   -9.9420 C   0  0  2  0  0  0
    1.3900  -23.4070   -8.6370 C   0  0  0  0  0  0
    1.5020  -22.8400   -7.5510 O   0  0  0  0  0  0
    3.0920  -22.5780  -10.2740 C   0  0  0  0  0  0
    3.8290  -21.4750   -9.5480 C   0  0  0  0  0  0
    4.0600  -21.5480   -8.1800 C   0  0  0  0  0  0
    4.2920  -20.3580  -10.2320 C   0  0  0  0  0  0
    4.7320  -20.5400   -7.5150 C   0  0  0  0  0  0
    4.9650  -19.3470   -9.5750 C   0  0  0  0  0  0
    5.1810  -19.4410   -8.2170 C   0  0  0  0  0  0
    5.8500  -18.4350   -7.5590 O   0  0  0  0  0  0
    1.0870  -24.6950   -8.7540 N   0  0  0  0  0  0
    0.8640  -25.5360   -7.5840 C   0  0  2  0  0  0
    0.7040  -26.9980   -7.9850 C   0  0  0  0  0  0
    1.0010  -27.3250   -9.1540 O   0  0  0  0  0  0
   -0.3750  -25.0660   -6.8210 C   0  0  0  0  0  0
   -0.2180  -25.2530   -5.4250 O   0  0  0  0  0  0
    0.2830  -27.8040   -7.1290 O   0  0  0  0  0  0
    7.0174  -11.7004  -27.5695 H   0  0  0  0  0  0
    8.1628  -11.0720  -28.8023 H   0  0  0  0  0  0
    7.7211  -12.8131  -28.7915 H   0  0  0  0  0  0
    5.8687  -10.4856  -29.3192 H   0  0  0  0  0  0
    7.7704  -11.9118  -30.9738 H   0  0  0  0  0  0
    6.1262  -12.4255  -31.4830 H   0  0  0  0  0  0
    6.8156  -11.4307  -33.5456 H   0  0  0  0  0  0
    6.5290   -9.5537  -33.7029 H   0  0  0  0  0  0
    5.5582  -12.4595  -27.2435 H   0  0  0  0  0  0
    2.9757  -13.5515  -28.3370 H   0  0  0  0  0  0
    5.2741  -15.2329  -28.1975 H   0  0  0  0  0  0
    4.2673  -15.6876  -26.7811 H   0  0  0  0  0  0
    2.3289  -17.7640  -28.9253 H   0  0  0  0  0  0
    1.9013  -12.4738  -24.1644 H   0  0  0  0  0  0
   -0.5996  -13.6649  -24.0092 H   0  0  0  0  0  0
   -0.3233  -12.2296  -25.0534 H   0  0  0  0  0  0
   -0.4255  -15.1644  -25.7877 H   0  0  0  0  0  0
   -1.1489  -13.7548  -26.6342 H   0  0  0  0  0  0
    0.8907  -13.1880  -27.6820 H   0  0  0  0  0  0
    1.2623  -14.9250  -27.4146 H   0  0  0  0  0  0
    0.3748  -13.6878  -22.3128 H   0  0  0  0  0  0
    1.1667  -16.4943  -22.0251 H   0  0  0  0  0  0
    3.3570  -14.9377  -21.5979 H   0  0  0  0  0  0
    2.6391  -14.8482  -19.9537 H   0  0  0  0  0  0
    3.9960  -18.0142  -19.0917 H   0  0  0  0  0  0
   -0.6993  -17.1235  -21.1994 H   0  0  0  0  0  0
   -1.5944  -15.4976  -18.7839 H   0  0  0  0  0  0
   -3.3208  -17.0711  -20.8238 H   0  0  0  0  0  0
   -4.2208  -17.2600  -18.4697 H   0  0  0  0  0  0
   -5.2667  -16.2723  -19.5455 H   0  0  0  0  0  0
   -4.1891  -15.4677  -18.3546 H   0  0  0  0  0  0
   -5.8934  -14.8153  -21.7552 H   0  0  0  0  0  0
   -4.0033  -12.8803  -22.3794 H   0  0  0  0  0  0
   -2.0458  -16.4906  -16.8620 H   0  0  0  0  0  0
   -2.3000  -19.4696  -16.9081 H   0  0  0  0  0  0
   -0.3636  -19.5831  -15.0713 H   0  0  0  0  0  0
    0.0728  -19.5565  -16.8135 H   0  0  0  0  0  0
    1.4535  -18.1341  -15.2559 H   0  0  0  0  0  0
    1.4014  -17.8689  -17.7147 H   0  0  0  0  0  0
    1.6284  -16.3019  -16.8663 H   0  0  0  0  0  0
    0.0242  -16.7270  -17.5536 H   0  0  0  0  0  0
   -0.4034  -17.2707  -13.8721 H   0  0  0  0  0  0
   -1.0371  -16.3749  -15.2943 H   0  0  0  0  0  0
    0.5672  -15.9498  -14.6069 H   0  0  0  0  0  0
   -2.0532  -20.2588  -14.3905 H   0  0  0  0  0  0
   -3.4654  -18.1374  -12.7439 H   0  0  0  0  0  0
   -4.5431  -20.9890  -13.1738 H   0  0  0  0  0  0
   -5.2365  -19.7782  -12.0425 H   0  0  0  0  0  0
   -5.7299  -18.3004  -13.9645 H   0  0  0  0  0  0
   -5.0942  -19.5617  -15.0742 H   0  0  0  0  0  0
   -7.9737  -21.7903  -14.2987 H   0  0  0  0  0  0
   -1.2663  -18.1530  -11.8953 H   0  0  0  0  0  0
    0.3004  -18.8526  -10.3954 H   0  0  0  0  0  0
   -1.4650  -18.2955   -8.7484 H   0  0  0  0  0  0
    0.0021  -20.8453   -7.8921 H   0  0  0  0  0  0
    0.6921  -19.1870   -7.8712 H   0  0  0  0  0  0
   -3.1898  -19.8414   -9.5758 H   0  0  0  0  0  0
   -2.9609  -19.9665   -7.7985 H   0  0  0  0  0  0
   -2.2766  -21.2245   -8.8830 H   0  0  0  0  0  0
   -0.0206  -19.8913   -5.6522 H   0  0  0  0  0  0
   -1.6904  -20.1618   -6.2566 H   0  0  0  0  0  0
   -1.0004  -18.5034   -6.2357 H   0  0  0  0  0  0
    1.5543  -20.5257   -9.2698 H   0  0  0  0  0  0
    1.0468  -23.1414  -10.7535 H   0  0  0  0  0  0
    3.5720  -23.5285   -9.9979 H   0  0  0  0  0  0
    3.2203  -22.4021  -11.3522 H   0  0  0  0  0  0
    3.7054  -22.4146   -7.6220 H   0  0  0  0  0  0
    4.1211  -20.2783  -11.3056 H   0  0  0  0  0  0
    4.9062  -20.6131   -6.4415 H   0  0  0  0  0  0
    5.3237  -18.4787  -10.1277 H   0  0  0  0  0  0
    6.0238  -18.5073   -6.4752 H   0  0  0  0  0  0
    1.0056  -25.1243   -9.7635 H   0  0  0  0  0  0
    1.7656  -25.4202   -6.9645 H   0  0  0  0  0  0
    0.8971  -28.3718   -9.4755 H   0  0  0  0  0  0
   -0.5414  -23.9962   -7.0154 H   0  0  0  0  0  0
   -1.2515  -25.6402   -7.1558 H   0  0  0  0  0  0
   -1.0257  -24.9629   -4.7369 H   0  0  0  0  0  0
  1  2  1  0  0  0
  1 87  1  0  0  0
  1 88  1  0  0  0
  1 89  1  0  0  0
  2  3  1  0  0  0
  2  5  1  0  0  0
  2 90  1  0  0  0
  3  4  2  0  0  0
  3  9  1  0  0  0
  5  6  1  0  0  0
  5 91  1  0  0  0
  5 92  1  0  0  0
  6  7  2  0  0  0
  6  8  1  0  0  0
  8 93  1  0  0  0
  8 94  1  0  0  0
  9 10  1  0  0  0
  9 95  1  0  0  0
 10 11  1  0  0  0
 10 13  1  0  0  0
 10 96  1  0  0  0
 11 12  2  0  0  0
 11 17  1  0  0  0
 13 14  1  0  0  0
 13 97  1  0  0  0
 13 98  1  0  0  0
 14 15  2  0  0  0
 14 16  1  0  0  0
 16 99  1  0  0  0
 17 18  1  0  0  0
 17 23  1  0  0  0
 18 19  1  0  0  0
 18 21  1  0  0  0
 18100  1  0  0  0
 19 20  2  0  0  0
 19 24  1  0  0  0
 21 22  1  0  0  0
 21101  1  0  0  0
 21102  1  0  0  0
 22 23  1  0  0  0
 22103  1  0  0  0
 22104  1  0  0  0
 23105  1  0  0  0
 23106  1  0  0  0
 24 25  1  0  0  0
 24107  1  0  0  0
 25 26  1  0  0  0
 25 28  1  0  0  0
 25108  1  0  0  0
 26 27  2  0  0  0
 26 32  1  0  0  0
 28 29  1  0  0  0
 28109  1  0  0  0
 28110  1  0  0  0
 29 30  2  0  0  0
 29 31  1  0  0  0
 31111  1  0  0  0
 32 33  1  0  0  0
 32112  1  0  0  0
 33 34  1  0  0  0
 33 41  1  0  0  0
 33113  1  0  0  0
 34 35  1  0  0  0
 34 36  1  0  0  0
 34114  1  0  0  0
 35115  1  0  0  0
 35116  1  0  0  0
 35117  1  0  0  0
 36 37  1  0  0  0
 37 38  1  0  0  0
 37 39  1  0  0  0
 37 40  2  0  0  0
 38118  1  0  0  0
 39119  1  0  0  0
 41 42  2  0  0  0
 41 43  1  0  0  0
 43 44  1  0  0  0
 43120  1  0  0  0
 44 45  1  0  0  0
 44 47  1  0  0  0
 44121  1  0  0  0
 45 46  2  0  0  0
 45 51  1  0  0  0
 47 48  1  0  0  0
 47122  1  0  0  0
 47123  1  0  0  0
 48 49  1  0  0  0
 48 50  1  0  0  0
 48124  1  0  0  0
 49125  1  0  0  0
 49126  1  0  0  0
 49127  1  0  0  0
 50128  1  0  0  0
 50129  1  0  0  0
 50130  1  0  0  0
 51 52  1  0  0  0
 51131  1  0  0  0
 52 53  1  0  0  0
 52 55  1  0  0  0
 52132  1  0  0  0
 53 54  2  0  0  0
 53 60  1  0  0  0
 55 56  1  0  0  0
 55133  1  0  0  0
 55134  1  0  0  0
 56 57  1  0  0  0
 56135  1  0  0  0
 56136  1  0  0  0
 57 58  1  0  0  0
 57 59  2  0  0  0
 58137  1  0  0  0
 60 61  1  0  0  0
 60138  1  0  0  0
 61 62  1  0  0  0
 61 64  1  0  0  0
 61139  1  0  0  0
 62 63  2  0  0  0
 62 68  1  0  0  0
 64 65  1  0  0  0
 64 66  1  0  0  0
 64140  1  0  0  0
 65 67  1  0  0  0
 65141  1  0  0  0
 65142  1  0  0  0
 66143  1  0  0  0
 66144  1  0  0  0
 66145  1  0  0  0
 67146  1  0  0  0
 67147  1  0  0  0
 67148  1  0  0  0
 68 69  1  0  0  0
 68149  1  0  0  0
 69 70  1  0  0  0
 69 72  1  0  0  0
 69150  1  0  0  0
 70 71  2  0  0  0
 70 80  1  0  0  0
 72 73  1  0  0  0
 72151  1  0  0  0
 72152  1  0  0  0
 73 74  2  0  0  0
 73 75  1  0  0  0
 74 76  1  0  0  0
 74153  1  0  0  0
 75 77  2  0  0  0
 75154  1  0  0  0
 76 78  2  0  0  0
 76155  1  0  0  0
 77 78  1  0  0  0
 77156  1  0  0  0
 78 79  1  0  0  0
 79157  1  0  0  0
 80 81  1  0  0  0
 80158  1  0  0  0
 81 82  1  0  0  0
 81 84  1  0  0  0
 81159  1  0  0  0
 82 83  1  0  0  0
 82 86  2  0  0  0
 83160  1  0  0  0
 84 85  1  0  0  0
 84161  1  0  0  0
 84162  1  0  0  0
 85163  1  0  0  0
M  CHG  1   1   1
M  END
> <s_m_source_file>
../2a0t_ligand.sdf

> <i_m_source_file_index>
1

> <s_epik_input>
Tz1DKFtOSDJdKVtDSDJdW0NASF0oW05IMytdKUMoPU8pW05IXVtDQEBIXShbQ0gyXUMoPU8pW09IXSlDKD1PKU4xW0NAQEhdKFtDSDJdW0NIMl1bQ0gyXTEpQyg9TylbTkhdW0NAQEhdKFtDSDJdQyg9TylbT0hdKUMoPU8pW05IXVtDQEBIXShbQ0BASF0oW0NIM10pT1AoPU8pKFtPSF0pW09IXSlDKD1PKVtOSF1bQ0BASF0oW0NIMl1bQ0hdKFtDSDNdKVtDSDNdKUMoPU8pW05IXVtDQEBIXShbQ0gyXVtDSDJdQyg9TylbT0hdKUMoPU8pW05IXVtDQEBIXShbQ0BASF0oW0NIM10pW0NIMl1bQ0gzXSlDKD1PKVtOSF1bQ0BIXShDKD1PKVtOSF1bQ0BIXShDKD1PKVtPSF0pW0NIMl1bT0hdKVtDSDJdYzJbY0hdW2NIXWMoW09IXSlbY0hdW2NIXTI=

> <s_epik_cmdline>
J2VwaWtfYXBwJywgJy1pbWFlJywgJ2xpZ2FuZF9wcm8ubWFlJywgJy1vbWFlJywgJ2xpZ2FuZF9wcmVwLm1hZScsICctbXMnLCAnMScsICctcGgnLCAnNycsICctcGh0JywgJzAuNScsICctbnQn

> <s_epik_pKa_notes>
Molecule size exceeds maximum supported for generating protonation states

$$$$
