2a25_ligand
                    3D
 Schrodinger Suite 2020-3.
134135  0  0  1  0            999 V2000
    6.3170   51.9840   18.2250 N   0  3  0  0  0  0
    6.4910   51.2810   16.9210 C   0  0  2  0  0  0
    5.2660   50.4240   16.5930 C   0  0  0  0  0  0
    4.6140   49.8910   17.4970 O   0  0  0  0  0  0
    7.7360   50.3890   16.9150 C   0  0  0  0  0  0
    9.0140   51.0180   17.3730 C   0  0  0  0  0  0
    9.7980   50.0030   18.2120 C   0  0  0  0  0  0
   11.1870   50.5030   18.5770 C   0  0  0  0  0  0
   11.3150   50.7250   20.0470 N   0  3  0  0  0  0
    4.9460   50.3120   15.3060 N   0  0  0  0  0  0
    3.9950   49.2910   14.8320 C   0  0  2  0  0  0
    4.5010   47.8660   15.1130 C   0  0  0  0  0  0
    5.7000   47.6110   15.0650 O   0  0  0  0  0  0
    3.9190   49.5320   13.3130 C   0  0  0  0  0  0
    5.0220   50.4590   12.9650 C   0  0  0  0  0  0
    5.4360   51.1810   14.2180 C   0  0  0  0  0  0
    3.5720   46.9670   15.4220 N   0  0  0  0  0  0
    3.8910   45.6010   15.7670 C   0  0  2  0  0  0
    2.9780   44.6980   14.9900 C   0  0  0  0  0  0
    1.8250   45.0340   14.7590 O   0  0  0  0  0  0
    3.7070   45.3660   17.2360 C   0  0  0  0  0  0
    3.5060   43.5500   14.5630 N   0  0  0  0  0  0
    2.6920   42.5540   13.9050 C   0  0  2  0  0  0
    2.7300   41.3670   14.8150 C   0  0  0  0  0  0
    3.8100   40.9810   15.2960 O   0  0  0  0  0  0
    3.2540   42.2080   12.5210 C   0  0  0  0  0  0
    1.5470   40.8170   15.0720 N   0  0  0  0  0  0
    1.3750   39.6210   15.8670 C   0  0  2  0  0  0
    1.2600   38.4600   14.8900 C   0  0  0  0  0  0
    0.2390   38.3200   14.2040 O   0  0  0  0  0  0
    0.1030   39.7220   16.7660 C   0  0  0  0  0  0
   -0.0480   38.5130   17.6450 C   0  0  0  0  0  0
    0.1480   40.9780   17.6060 C   0  0  0  0  0  0
    2.2950   37.6140   14.8620 N   0  0  0  0  0  0
    2.4840   36.6130   13.8130 C   0  0  2  0  0  0
    2.3260   35.2080   14.3650 C   0  0  0  0  0  0
    2.9910   34.8320   15.3380 O   0  0  0  0  0  0
    3.9220   36.7540   13.2070 C   0  0  0  0  0  0
    4.2170   35.6940   12.1090 C   0  0  0  0  0  0
    4.1220   38.1580   12.6670 C   0  0  0  0  0  0
    1.4760   34.4280   13.7090 N   0  0  0  0  0  0
    1.2530   33.0350   14.0310 C   0  0  2  0  0  0
    2.1930   32.1340   13.2300 C   0  0  0  0  0  0
    2.6090   32.4920   12.1460 O   0  0  0  0  0  0
   -0.2150   32.6680   13.7330 C   0  0  0  0  0  0
    2.4890   30.9410   13.7470 N   0  0  0  0  0  0
    3.3820   29.9860   13.0770 C   0  0  2  0  0  0
    2.7950   29.1830   11.9020 C   0  0  0  0  0  0
    1.6700   28.6460   11.9900 O   0  0  0  0  0  0
    3.7390   29.0220   14.2000 C   0  0  0  0  0  0
    2.5910   29.0580   15.1080 C   0  0  0  0  0  0
    1.9940   30.4140   15.0330 C   0  0  0  0  0  0
    3.5730   29.0850   10.8210 N   0  0  0  0  0  0
    3.3340   28.0830    9.7660 C   0  0  2  0  0  0
    3.8120   26.6360   10.1510 C   0  0  0  0  0  0
    4.9870   26.3390   10.4630 O   0  0  0  0  0  0
    3.9180   28.5490    8.3900 C   0  0  2  0  0  0
    3.7760   30.0630    8.2150 C   0  0  0  0  0  0
    3.2370   27.8020    7.2330 C   0  0  0  0  0  0
    4.4260   30.6090    6.9590 C   0  0  0  0  0  0
    2.9068   25.6616   10.1448 O   0  5  0  0  0  0
    7.2095   52.5913   18.4361 H   0  0  0  0  0  0
    6.1803   51.2425   19.0259 H   0  0  0  0  0  0
    5.4329   52.6366   18.1746 H   0  0  0  0  0  0
    6.6091   52.0829   16.1774 H   0  0  0  0  0  0
    7.5725   49.5268   17.5782 H   0  0  0  0  0  0
    7.9274   50.0335   15.8918 H   0  0  0  0  0  0
    9.6106   51.3151   16.4979 H   0  0  0  0  0  0
    8.7881   51.9061   17.9815 H   0  0  0  0  0  0
    9.2533   49.8008   19.1460 H   0  0  0  0  0  0
    9.9118   49.0678   17.6441 H   0  0  0  0  0  0
   11.9370   49.7596   18.2690 H   0  0  0  0  0  0
   11.3812   51.4550   18.0614 H   0  0  0  0  0  0
   12.3286   51.0854   20.2765 H   0  0  0  0  0  0
   11.1332   49.7789   20.5779 H   0  0  0  0  0  0
   10.5775   51.4744   20.3702 H   0  0  0  0  0  0
    3.0376   49.4040   15.3617 H   0  0  0  0  0  0
    4.0345   48.5747   12.7837 H   0  0  0  0  0  0
    2.9446   49.9754   13.0604 H   0  0  0  0  0  0
    5.8688   49.8856   12.5598 H   0  0  0  0  0  0
    4.6719   51.1786   12.2103 H   0  0  0  0  0  0
    4.9663   52.1722   14.3007 H   0  0  0  0  0  0
    6.5283   51.2853   14.2957 H   0  0  0  0  0  0
    2.5238   47.3002   15.4077 H   0  0  0  0  0  0
    4.9466   45.4310   15.5083 H   0  0  0  0  0  0
    4.3782   46.0300   17.8004 H   0  0  0  0  0  0
    3.9441   44.3182   17.4722 H   0  0  0  0  0  0
    2.6637   45.5774   17.5133 H   0  0  0  0  0  0
    4.5795   43.3676   14.7188 H   0  0  0  0  0  0
    1.6712   42.9417   13.7722 H   0  0  0  0  0  0
    3.2132   43.0979   11.8757 H   0  0  0  0  0  0
    2.6542   41.4022   12.0727 H   0  0  0  0  0  0
    4.2978   41.8757   12.6217 H   0  0  0  0  0  0
    0.6697   41.3227   14.6424 H   0  0  0  0  0  0
    2.2646   39.5214   16.5062 H   0  0  0  0  0  0
   -0.7961   39.7636   16.1337 H   0  0  0  0  0  0
   -0.0793   37.6076   17.0210 H   0  0  0  0  0  0
   -0.9812   38.5933   18.2217 H   0  0  0  0  0  0
    0.8059   38.4530   18.3358 H   0  0  0  0  0  0
    0.2586   41.8540   16.9500 H   0  0  0  0  0  0
    1.0026   40.9268   18.2966 H   0  0  0  0  0  0
   -0.7845   41.0671   18.1826 H   0  0  0  0  0  0
    3.0249   37.6973   15.6807 H   0  0  0  0  0  0
    1.6838   36.8059   13.0832 H   0  0  0  0  0  0
    4.6563   36.5959   14.0106 H   0  0  0  0  0  0
    4.0658   34.6859   12.5225 H   0  0  0  0  0  0
    5.2578   35.7984   11.7688 H   0  0  0  0  0  0
    3.5361   35.8475   11.2588 H   0  0  0  0  0  0
    3.9080   38.8897   13.4599 H   0  0  0  0  0  0
    3.4406   38.3255   11.8198 H   0  0  0  0  0  0
    5.1623   38.2764   12.3298 H   0  0  0  0  0  0
    0.9254   34.8957   12.8795 H   0  0  0  0  0  0
    1.4830   32.9407   15.1025 H   0  0  0  0  0  0
   -0.8817   33.3220   14.3142 H   0  0  0  0  0  0
   -0.3948   31.6195   14.0127 H   0  0  0  0  0  0
   -0.4155   32.8008   12.6596 H   0  0  0  0  0  0
    4.1961   30.5747   12.6290 H   0  0  0  0  0  0
    3.8964   28.0161   13.7836 H   0  0  0  0  0  0
    4.6602   29.3618   14.6959 H   0  0  0  0  0  0
    1.8557   28.3002   14.7996 H   0  0  0  0  0  0
    2.9278   28.8460   16.1335 H   0  0  0  0  0  0
    2.3337   31.0657   15.8515 H   0  0  0  0  0  0
    0.8944   30.3860   15.0190 H   0  0  0  0  0  0
    4.4165   29.7856   10.7332 H   0  0  0  0  0  0
    2.2355   28.0653    9.7120 H   0  0  0  0  0  0
    4.9932   28.3190    8.3564 H   0  0  0  0  0  0
    2.7095   30.3281    8.1669 H   0  0  0  0  0  0
    4.2432   30.5762    9.0684 H   0  0  0  0  0  0
    3.3512   26.7177    7.3790 H   0  0  0  0  0  0
    3.7048   28.0952    6.2815 H   0  0  0  0  0  0
    2.1675   28.0583    7.2101 H   0  0  0  0  0  0
    4.2771   31.6979    6.9128 H   0  0  0  0  0  0
    3.9694   30.1386    6.0757 H   0  0  0  0  0  0
    5.5031   30.3867    6.9773 H   0  0  0  0  0  0
  1  2  1  0  0  0
  1 62  1  0  0  0
  1 63  1  0  0  0
  1 64  1  0  0  0
  2  5  1  0  0  0
  2  3  1  0  0  0
  2 65  1  0  0  0
  3  4  2  0  0  0
  3 10  1  0  0  0
  5  6  1  0  0  0
  5 66  1  0  0  0
  5 67  1  0  0  0
  6  7  1  0  0  0
  6 68  1  0  0  0
  6 69  1  0  0  0
  7  8  1  0  0  0
  7 70  1  0  0  0
  7 71  1  0  0  0
  8  9  1  0  0  0
  8 72  1  0  0  0
  8 73  1  0  0  0
  9 74  1  0  0  0
  9 75  1  0  0  0
  9 76  1  0  0  0
 10 11  1  0  0  0
 10 16  1  0  0  0
 11 12  1  0  0  0
 11 14  1  0  0  0
 11 77  1  0  0  0
 12 13  2  0  0  0
 12 17  1  0  0  0
 14 15  1  0  0  0
 14 78  1  0  0  0
 14 79  1  0  0  0
 15 16  1  0  0  0
 15 80  1  0  0  0
 15 81  1  0  0  0
 16 82  1  0  0  0
 16 83  1  0  0  0
 17 18  1  0  0  0
 17 84  1  0  0  0
 18 21  1  0  0  0
 18 19  1  0  0  0
 18 85  1  0  0  0
 19 20  2  0  0  0
 19 22  1  0  0  0
 21 86  1  0  0  0
 21 87  1  0  0  0
 21 88  1  0  0  0
 22 23  1  0  0  0
 22 89  1  0  0  0
 23 26  1  0  0  0
 23 24  1  0  0  0
 23 90  1  0  0  0
 24 25  2  0  0  0
 24 27  1  0  0  0
 26 91  1  0  0  0
 26 92  1  0  0  0
 26 93  1  0  0  0
 27 28  1  0  0  0
 27 94  1  0  0  0
 28 31  1  0  0  0
 28 29  1  0  0  0
 28 95  1  0  0  0
 29 30  2  0  0  0
 29 34  1  0  0  0
 31 33  1  0  0  0
 31 32  1  0  0  0
 31 96  1  0  0  0
 32 97  1  0  0  0
 32 98  1  0  0  0
 32 99  1  0  0  0
 33100  1  0  0  0
 33101  1  0  0  0
 33102  1  0  0  0
 34 35  1  0  0  0
 34103  1  0  0  0
 35 38  1  0  0  0
 35 36  1  0  0  0
 35104  1  0  0  0
 36 37  2  0  0  0
 36 41  1  0  0  0
 38 40  1  0  0  0
 38 39  1  0  0  0
 38105  1  0  0  0
 39106  1  0  0  0
 39107  1  0  0  0
 39108  1  0  0  0
 40109  1  0  0  0
 40110  1  0  0  0
 40111  1  0  0  0
 41 42  1  0  0  0
 41112  1  0  0  0
 42 45  1  0  0  0
 42 43  1  0  0  0
 42113  1  0  0  0
 43 44  2  0  0  0
 43 46  1  0  0  0
 45114  1  0  0  0
 45115  1  0  0  0
 45116  1  0  0  0
 46 47  1  0  0  0
 46 52  1  0  0  0
 47 48  1  0  0  0
 47 50  1  0  0  0
 47117  1  0  0  0
 48 49  2  0  0  0
 48 53  1  0  0  0
 50 51  1  0  0  0
 50118  1  0  0  0
 50119  1  0  0  0
 51 52  1  0  0  0
 51120  1  0  0  0
 51121  1  0  0  0
 52122  1  0  0  0
 52123  1  0  0  0
 53 54  1  0  0  0
 53124  1  0  0  0
 54 57  1  0  0  0
 54 55  1  0  0  0
 54125  1  0  0  0
 55 56  2  0  0  0
 55 61  1  0  0  0
 57 59  1  0  0  0
 57 58  1  0  0  0
 57126  1  0  0  0
 58 60  1  0  0  0
 58127  1  0  0  0
 58128  1  0  0  0
 59129  1  0  0  0
 59130  1  0  0  0
 59131  1  0  0  0
 60132  1  0  0  0
 60133  1  0  0  0
 60134  1  0  0  0
M  CHG  3   1   1   9   1  61  -1
M  END
> <s_m_source_file>
../2a25_ligand.sdf

> <i_m_source_file_index>
1

> <s_epik_input>
W05IMytdW0NIMl1bQ0gyXVtDSDJdW0NIMl1bQ0BIXShbTkgzK10pQyg9TylOMVtDQEBIXShbQ0gyXVtDSDJdW0NIMl0xKUMoPU8pW05IXVtDQEBIXShbQ0gzXSlDKD1PKVtOSF1bQ0BASF0oW0NIM10pQyg9TylbTkhdW0NAQEhdKFtDSF0oW0NIM10pW0NIM10pQyg9TylbTkhdW0NAQEhdKFtDSF0oW0NIM10pW0NIM10pQyg9TylbTkhdW0NAQEhdKFtDSDNdKUMoPU8pTjJbQ0BASF0oW0NIMl1bQ0gyXVtDSDJdMilDKD1PKVtOSF1bQ0BIXShDKD1PKVtPSF0pW0NAQEhdKFtDSDNdKVtDSDJdW0NIM10=

> <s_epik_cmdline>
J2VwaWtfYXBwJywgJy1pbWFlJywgJ2xpZ2FuZF9wcm8ubWFlJywgJy1vbWFlJywgJ2xpZ2FuZF9wcmVwLm1hZScsICctbXMnLCAnMScsICctcGgnLCAnNycsICctcGh0JywgJzAuNScsICctbnQn

> <r_epik_Ionization_Penalty>
  0.1141

> <r_epik_Ionization_Penalty_Charging>
  0.1141

> <r_epik_Ionization_Penalty_Neutral>
  0.0000

> <r_epik_State_Penalty>
  0.1031

> <r_epik_Charging_Adjusted_Penalty>
0.217173916531962

> <i_epik_Tot_Q>
1

> <i_epik_Tot_abs_Q>
3

$$$$
