2a29_ligand
                    3D
 Schrodinger Suite 2020-3.
 44 46  0  0  1  0            999 V2000
  116.3370   -0.2220   -9.9420 P   0  0  0  0  0  0
  115.6550   -1.5310  -10.2470 O   0  5  0  0  0  0
  117.4230    0.0700  -10.9460 O   0  5  0  0  0  0
  116.8790   -0.2050   -8.5360 O   0  0  0  0  0  0
  115.4260    2.1870   -9.0350 P   0  0  1  0  0  0
  115.7610    1.6300   -7.6800 O   0  5  0  0  0  0
  116.5190    3.0670   -9.5700 O   0  0  0  0  0  0
  115.2340    0.9470  -10.0550 N   0  0  1  0  0  0
  113.7340    4.4110   -8.5360 P   0  0  1  0  0  0
  114.9620    4.8990   -7.8650 O   0  0  0  0  0  0
  113.2250    5.2460   -9.6500 O   0  5  0  0  0  0
  113.9820    2.9030   -9.0700 O   0  0  0  0  0  0
  112.5630    4.2190   -7.4350 O   0  0  0  0  0  0
  112.4810    3.0640   -6.5690 C   0  0  0  0  0  0
  111.8170    3.4490   -5.2550 C   0  0  1  0  0  0
  110.3880    3.2260   -5.3930 O   0  0  0  0  0  0
  112.3360    2.4100   -4.2800 C   0  0  1  0  0  0
  113.5560    2.8130   -3.6720 O   0  0  0  0  0  0
  111.2200    2.3460   -3.2720 C   0  0  1  0  0  0
  111.3940    3.3050   -2.2370 O   0  0  0  0  0  0
  109.9820    2.6670   -4.1090 C   0  0  2  0  0  0
  109.2100    1.4100   -4.4050 N   0  0  0  0  0  0
  109.7340    0.1780   -4.4510 C   0  0  0  0  0  0
  108.7870   -0.7230   -4.7280 N   0  0  0  0  0  0
  107.6430   -0.0700   -4.8650 C   0  0  0  0  0  0
  106.2920   -0.4270   -5.1400 C   0  0  0  0  0  0
  105.9550   -1.6990   -5.3200 N   0  0  0  0  0  0
  105.3250    0.5500   -5.2080 N   0  0  0  0  0  0
  105.5970    1.8790   -5.0190 C   0  0  0  0  0  0
  106.8860    2.2370   -4.7600 N   0  0  0  0  0  0
  107.9090    1.3070   -4.6650 C   0  0  0  0  0  0
  115.2543    1.3735  -11.0687 H   0  0  0  0  0  0
  111.8868    2.2792   -7.0598 H   0  0  0  0  0  0
  113.4935    2.6847   -6.3667 H   0  0  0  0  0  0
  111.9732    4.4949   -4.9521 H   0  0  0  0  0  0
  112.6258    1.4479   -4.7276 H   0  0  0  0  0  0
  114.4683    2.9075   -4.2793 H   0  0  0  0  0  0
  111.1836    1.4044   -2.7045 H   0  0  0  0  0  0
  112.2426    3.2170   -1.5426 H   0  0  0  0  0  0
  109.3564    3.3981   -3.5759 H   0  0  0  0  0  0
  110.7855   -0.0566   -4.2856 H   0  0  0  0  0  0
  106.7234   -2.4844   -5.2668 H   0  0  0  0  0  0
  104.9075   -1.9671   -5.5222 H   0  0  0  0  0  0
  104.8065    2.6274   -5.0741 H   0  0  0  0  0  0
  1  2  1  0  0  0
  1  3  1  0  0  0
  1  4  2  0  0  0
  1  8  1  0  0  0
  5  6  1  0  0  0
  5  7  2  0  0  0
  5  8  1  0  0  0
  5 12  1  0  0  0
  8 32  1  0  0  0
  9 10  2  0  0  0
  9 11  1  0  0  0
  9 12  1  0  0  0
  9 13  1  0  0  0
 13 14  1  0  0  0
 14 15  1  0  0  0
 14 33  1  0  0  0
 14 34  1  0  0  0
 15 16  1  0  0  0
 15 17  1  0  0  0
 15 35  1  0  0  0
 16 21  1  0  0  0
 17 18  1  0  0  0
 17 19  1  0  0  0
 17 36  1  0  0  0
 18 37  1  0  0  0
 19 20  1  0  0  0
 19 21  1  0  0  0
 19 38  1  0  0  0
 20 39  1  0  0  0
 21 22  1  0  0  0
 21 40  1  0  0  0
 22 23  1  0  0  0
 22 31  1  0  0  0
 23 24  2  0  0  0
 23 41  1  0  0  0
 24 25  1  0  0  0
 25 26  2  0  0  0
 25 31  1  0  0  0
 26 27  1  0  0  0
 26 28  1  0  0  0
 27 42  1  0  0  0
 27 43  1  0  0  0
 28 29  2  0  0  0
 29 30  1  0  0  0
 29 44  1  0  0  0
 30 31  2  0  0  0
M  CHG  4   2  -1   3  -1   6  -1  11  -1
M  END
> <s_m_source_file>
../2a29_ligand.sdf

> <i_m_source_file_index>
1

> <s_epik_input>
W09IXVAoPU8pKFtPSF0pW05IXVtQQF0oPU8pKFtPSF0pT1tQQEBdKD1PKShbT0hdKU9bQ0gyXVtDQEhdMU9bQ0BIXShbQ0BIXShbT0hdKVtDQEBIXTFbT0hdKW4oW2NIXW4yKWMoYzIzKW5bY0hdbmMzW05IMl0=

> <s_epik_cmdline>
J2VwaWtfYXBwJywgJy1pbWFlJywgJ2xpZ2FuZF9wcm8ubWFlJywgJy1vbWFlJywgJ2xpZ2FuZF9wcmVwLm1hZScsICctbXMnLCAnMScsICctcGgnLCAnNycsICctcGh0JywgJzAuNScsICctbnQn

> <r_lp_tautomer_probability>
0.999997216410988

> <r_epik_Ionization_Penalty>
  0.3578

> <r_epik_Ionization_Penalty_Charging>
  0.3346

> <r_epik_Ionization_Penalty_Neutral>
  0.0232

> <r_epik_State_Penalty>
  0.3402

> <r_epik_Charging_Adjusted_Penalty>
0.674771962662822

> <i_epik_Tot_Q>
-4

> <i_epik_Tot_abs_Q>
4

> <s_epik_Chemistry_Notes>
This compound contains an acetal/aminal-like group ( X-CH(R)-Y where X, Y are N, S, or O) that may be acid/base labile, releasing an aldehyde.

$$$$
