2a2g_ligand
                    3D
 Schrodinger Suite 2020-3.
 27 28  0  0  1  0            999 V2000
   21.3400    1.4530   58.7970 C   0  0  0  0  0  0
   19.4020    2.4970   57.4160 C   0  0  2  0  0  0
   19.0920    0.3830   58.8100 C   0  0  0  0  0  0
   18.5390    1.2760   57.6840 C   0  0  0  0  0  0
   20.6000    0.1040   58.6340 C   0  0  1  0  0  0
   20.7750    2.5590   57.9450 C   0  0  2  0  0  0
   18.6860    3.7800   57.0670 C   0  0  0  0  0  0
   20.5580    2.2300   56.5260 O   0  0  0  0  0  0
   20.9370   -0.6800   57.3570 C   0  0  0  0  0  0
   20.0950   -0.7600   56.3450 C   0  0  0  0  0  0
   22.2440   -1.4480   57.3280 C   0  0  0  0  0  0
   21.2769    1.7815   59.8449 H   0  0  0  0  0  0
   22.3959    1.3285   58.5148 H   0  0  0  0  0  0
   18.9444    0.8816   59.7793 H   0  0  0  0  0  0
   18.5607   -0.5802   58.8085 H   0  0  0  0  0  0
   17.5294    1.5982   57.9788 H   0  0  0  0  0  0
   18.4769    0.6636   56.7723 H   0  0  0  0  0  0
   20.9556   -0.5923   59.4078 H   0  0  0  0  0  0
   21.3069    3.3359   58.5138 H   0  0  0  0  0  0
   17.8412    3.9275   57.7558 H   0  0  0  0  0  0
   18.3113    3.7216   56.0344 H   0  0  0  0  0  0
   19.3840    4.6254   57.1565 H   0  0  0  0  0  0
   19.1483   -0.2005   56.3717 H   0  0  0  0  0  0
   20.3395   -1.3862   55.4743 H   0  0  0  0  0  0
   22.8042   -1.2535   58.2545 H   0  0  0  0  0  0
   22.8412   -1.1229   56.4633 H   0  0  0  0  0  0
   22.0348   -2.5247   57.2451 H   0  0  0  0  0  0
  1  5  1  0  0  0
  1  6  1  0  0  0
  1 12  1  0  0  0
  1 13  1  0  0  0
  2  4  1  0  0  0
  2  6  1  0  0  0
  2  7  1  0  0  0
  2  8  1  0  0  0
  3  4  1  0  0  0
  3  5  1  0  0  0
  3 14  1  0  0  0
  3 15  1  0  0  0
  4 16  1  0  0  0
  4 17  1  0  0  0
  5  9  1  0  0  0
  5 18  1  0  0  0
  6  8  1  0  0  0
  6 19  1  0  0  0
  7 20  1  0  0  0
  7 21  1  0  0  0
  7 22  1  0  0  0
  9 10  2  0  0  0
  9 11  1  0  0  0
 10 23  1  0  0  0
 10 24  1  0  0  0
 11 25  1  0  0  0
 11 26  1  0  0  0
 11 27  1  0  0  0
M  END
> <s_m_source_file>
../2a2g_ligand.sdf

> <i_m_source_file_index>
1

> <s_epik_input>
W0NIM11bQ0BAXTEyW0NASF0oTzIpW0NIMl1bQ0BASF0oW0NIMl1bQ0gyXTEpQyg9W0NIMl0pW0NIM10=

> <s_epik_cmdline>
J2VwaWtfYXBwJywgJy1pbWFlJywgJ2xpZ2FuZF9wcm8ubWFlJywgJy1vbWFlJywgJ2xpZ2FuZF9wcmVwLm1hZScsICctbXMnLCAnMScsICctcGgnLCAnNycsICctcGh0JywgJzAuNScsICctbnQn

> <r_lp_tautomer_probability>
1

> <r_epik_Ionization_Penalty>
  0.0000

> <r_epik_Ionization_Penalty_Charging>
  0.0000

> <r_epik_Ionization_Penalty_Neutral>
  0.0000

> <r_epik_State_Penalty>
 -0.0000

> <r_epik_Charging_Adjusted_Penalty>
0

> <i_epik_Tot_Q>
0

> <i_epik_Tot_abs_Q>
0

$$$$
