2a2x_ligand
                    3D
 Schrodinger Suite 2020-3.
 67 68  0  0  1  0            999 V2000
   12.4160   20.9810   22.4580 C   0  0  0  0  0  0
   12.1040   22.2140   23.0930 C   0  0  0  0  0  0
   12.7230   23.3480   22.7090 N   0  0  0  0  0  0
   13.6450   23.3730   21.7340 C   0  0  0  0  0  0
   14.0050   22.1920   21.0610 C   0  0  0  0  0  0
   13.3810   20.9770   21.4290 C   0  0  0  0  0  0
   15.0460   22.2250   19.9720 C   0  0  0  0  0  0
   11.1000   22.2730   24.1850 C   0  0  0  0  0  0
   10.3980   21.1890   24.5240 N   0  0  0  0  0  0
   10.9090   23.4190   24.8350 N   0  3  0  0  0  0
   16.3750   22.1220   20.5990 N   0  0  0  0  0  0
   17.1270   20.9880   20.5150 C   0  0  0  0  0  0
   18.4710   20.9460   21.1980 C   0  0  2  0  0  0
   16.7290   20.0050   19.9140 O   0  0  0  0  0  0
   19.5720   21.3730   20.2110 C   0  0  0  0  0  0
   19.7050   18.6630   21.1420 C   0  0  0  0  0  0
   18.7030   19.5640   21.7630 N   0  0  0  0  0  0
   17.9700   19.1410   22.8710 C   0  0  0  0  0  0
   18.1620   17.7540   23.4920 C   0  0  2  0  0  0
   17.1470   19.8810   23.3700 O   0  0  0  0  0  0
   16.9170   16.9810   23.3260 N   0  3  0  0  0  0
   16.3280   16.7280   22.0020 C   0  0  0  0  0  0
   14.8510   16.4450   22.1540 C   0  0  0  0  0  0
   14.3770   16.2070   23.2590 O   0  5  0  0  0  0
   14.1270   16.4540   21.1660 O   0  0  0  0  0  0
   18.4380   17.8530   24.9980 C   0  0  0  0  0  0
   19.8950   18.0940   25.4300 C   0  0  0  0  0  0
   20.9610   17.6870   24.3790 C   0  0  0  0  0  0
   22.3790   17.9240   24.9520 C   0  0  0  0  0  0
   22.5640   19.4070   25.3530 C   0  0  0  0  0  0
   21.4970   19.8170   26.3920 C   0  0  0  0  0  0
   20.0780   19.5860   25.8140 C   0  0  0  0  0  0
   11.9202   20.0584   22.7597 H   0  0  0  0  0  0
   14.1185   24.3163   21.4617 H   0  0  0  0  0  0
   13.6430   20.0478   20.9230 H   0  0  0  0  0  0
   14.8861   21.3800   19.2862 H   0  0  0  0  0  0
   14.9641   23.1699   19.4149 H   0  0  0  0  0  0
   10.5554   20.2418   23.9873 H   0  0  0  0  0  0
    9.6623   21.2432   25.3400 H   0  0  0  0  0  0
   11.4870   24.3124   24.5562 H   0  0  0  0  0  0
   16.7883   22.9761   21.1555 H   0  0  0  0  0  0
   18.4794   21.6466   22.0460 H   0  0  0  0  0  0
   19.3536   22.3824   19.8323 H   0  0  0  0  0  0
   19.6051   20.6649   19.3698 H   0  0  0  0  0  0
   20.5443   21.3768   20.7255 H   0  0  0  0  0  0
   20.1756   19.1714   20.2876 H   0  0  0  0  0  0
   19.2075   17.7457   20.7942 H   0  0  0  0  0  0
   20.4748   18.4039   21.8839 H   0  0  0  0  0  0
   18.9910   17.2449   22.9786 H   0  0  0  0  0  0
   17.0580   15.9676   23.7300 H   0  0  0  0  0  0
   16.1001   17.4810   23.8669 H   0  0  0  0  0  0
   16.4683   17.6125   21.3632 H   0  0  0  0  0  0
   16.8222   15.8604   21.5405 H   0  0  0  0  0  0
   17.8632   18.6896   25.4219 H   0  0  0  0  0  0
   18.1369   16.9155   25.4884 H   0  0  0  0  0  0
   20.0583   17.4314   26.2928 H   0  0  0  0  0  0
   20.8425   16.6221   24.1300 H   0  0  0  0  0  0
   20.8299   18.2928   23.4702 H   0  0  0  0  0  0
   22.5251   17.2936   25.8416 H   0  0  0  0  0  0
   23.1300   17.6644   24.1913 H   0  0  0  0  0  0
   23.5638   19.5467   25.7900 H   0  0  0  0  0  0
   22.4612   20.0434   24.4617 H   0  0  0  0  0  0
   21.6199   19.2117   27.3022 H   0  0  0  0  0  0
   21.6175   20.8817   26.6407 H   0  0  0  0  0  0
   19.9458   20.2135   24.9203 H   0  0  0  0  0  0
   19.3302   19.8641   26.5712 H   0  0  0  0  0  0
   10.1732   23.4725   25.6509 H   0  0  0  0  0  0
  1  2  2  0  0  0
  1  6  1  0  0  0
  1 33  1  0  0  0
  2  3  1  0  0  0
  2  8  1  0  0  0
  3  4  2  0  0  0
  4  5  1  0  0  0
  4 34  1  0  0  0
  5  6  2  0  0  0
  5  7  1  0  0  0
  6 35  1  0  0  0
  7 11  1  0  0  0
  7 36  1  0  0  0
  7 37  1  0  0  0
  8  9  1  0  0  0
  8 10  2  0  0  0
  9 38  1  0  0  0
  9 39  1  0  0  0
 10 40  1  0  0  0
 10 67  1  0  0  0
 11 12  1  0  0  0
 11 41  1  0  0  0
 12 13  1  0  0  0
 12 14  2  0  0  0
 13 15  1  0  0  0
 13 17  1  0  0  0
 13 42  1  0  0  0
 15 43  1  0  0  0
 15 44  1  0  0  0
 15 45  1  0  0  0
 16 17  1  0  0  0
 16 46  1  0  0  0
 16 47  1  0  0  0
 16 48  1  0  0  0
 17 18  1  0  0  0
 18 19  1  0  0  0
 18 20  2  0  0  0
 19 21  1  0  0  0
 19 26  1  0  0  0
 19 49  1  0  0  0
 21 22  1  0  0  0
 21 50  1  0  0  0
 21 51  1  0  0  0
 22 23  1  0  0  0
 22 52  1  0  0  0
 22 53  1  0  0  0
 23 24  1  0  0  0
 23 25  2  0  0  0
 26 27  1  0  0  0
 26 54  1  0  0  0
 26 55  1  0  0  0
 27 28  1  0  0  0
 27 32  1  0  0  0
 27 56  1  0  0  0
 28 29  1  0  0  0
 28 57  1  0  0  0
 28 58  1  0  0  0
 29 30  1  0  0  0
 29 59  1  0  0  0
 29 60  1  0  0  0
 30 31  1  0  0  0
 30 61  1  0  0  0
 30 62  1  0  0  0
 31 32  1  0  0  0
 31 63  1  0  0  0
 31 64  1  0  0  0
 32 65  1  0  0  0
 32 66  1  0  0  0
M  CHG  3  10   1  21   1  24  -1
M  END
> <s_m_source_file>
../2a2x_ligand.sdf

> <i_m_source_file_index>
1

> <s_epik_input>
W0hdXE49QyhbTkgyXSlcYzFbY0hdW2NIXWMoW2NIXW4xKVtDSDJdW05IXUMoPU8pW0NASF0oW0NIM10pTihbQ0gzXSlDKD1PKVtDQEhdKFtOSDIrXVtDSDJdQyg9TylbT0hdKVtDSDJdW0NIXTJbQ0gyXVtDSDJdW0NIMl1bQ0gyXVtDSDJdMg==

> <s_epik_cmdline>
J2VwaWtfYXBwJywgJy1pbWFlJywgJ2xpZ2FuZF9wcm8ubWFlJywgJy1vbWFlJywgJ2xpZ2FuZF9wcmVwLm1hZScsICctbXMnLCAnMScsICctcGgnLCAnNycsICctcGh0JywgJzAuNScsICctbnQn

> <r_lp_tautomer_probability>
1

> <r_epik_Ionization_Penalty>
  0.1629

> <r_epik_Ionization_Penalty_Charging>
  0.1628

> <r_epik_Ionization_Penalty_Neutral>
  0.0001

> <r_epik_State_Penalty>
 -0.0000

> <r_epik_Charging_Adjusted_Penalty>
0.162828402013633

> <i_epik_Tot_Q>
1

> <i_epik_Tot_abs_Q>
3

> <s_epik_Chemistry_Notes>
This compound has an imine and may undergo hydrolysis.

$$$$
