2a3i_ligand
                    3D
 Schrodinger Suite 2020-3.
211210  0  0  1  0            999 V2000
   43.6300   86.8240    0.2260 N   0  3  0  0  0  0
   43.3830   86.7960    1.6960 C   0  0  2  0  0  0
   44.3480   85.8280    2.3600 C   0  0  0  0  0  0
   45.1390   85.1710    1.6820 O   0  0  0  0  0  0
   41.9110   86.4790    2.0200 C   0  0  0  0  0  0
   41.3840   86.1040    0.6350 C   0  0  0  0  0  0
   39.9120   86.1200    0.2940 C   0  0  0  0  0  0
   39.1570   85.5150   -0.4490 O   0  0  0  0  0  0
   39.5750   87.2680    0.9150 N   0  0  0  0  0  0
   44.2800   85.7390    3.6850 N   0  0  0  0  0  0
   45.1440   84.8320    4.4200 C   0  0  2  0  0  0
   44.3560   84.0390    5.4520 C   0  0  0  0  0  0
   43.6650   84.6070    6.2960 O   0  0  0  0  0  0
   46.2700   85.6000    5.1130 C   0  0  0  0  0  0
   47.1710   84.6920    5.9430 C   0  0  0  0  0  0
   47.8930   83.6440    5.0990 C   0  0  0  0  0  0
   47.4050   83.2310    4.0440 O   0  0  0  0  0  0
   49.0580   83.2010    5.5710 N   0  0  0  0  0  0
   44.4790   82.7190    5.3690 N   0  0  0  0  0  0
   43.8030   81.7890    6.2680 C   0  0  2  0  0  0
   42.3880   81.4860    5.7890 C   0  0  0  0  0  0
   42.1820   81.1480    4.6230 O   0  0  0  0  0  0
   43.7740   82.3340    7.7050 C   0  0  0  0  0  0
   45.1400   82.7600    8.2460 C   0  0  0  0  0  0
   45.1030   82.9540    9.7550 C   0  0  0  0  0  0
   45.4160   81.6540   10.4870 C   0  0  0  0  0  0
   44.5750   80.5130   10.0220 N   0  3  0  0  0  0
   41.4200   81.6210    6.6900 N   0  0  0  0  0  0
   40.0170   81.3320    6.3990 C   0  0  2  0  0  0
   39.8430   79.8270    6.2950 C   0  0  0  0  0  0
   40.2620   79.1930    5.3250 O   0  0  0  0  0  0
   39.5600   81.9910    5.1010 C   0  0  0  0  0  0
   38.2280   81.6090    4.7870 O   0  0  0  0  0  0
   39.2180   79.2630    7.3170 N   0  0  0  0  0  0
   38.9890   77.8330    7.3910 C   0  0  2  0  0  0
   38.2700   77.2810    6.1650 C   0  0  0  0  0  0
   38.6230   76.2150    5.6660 O   0  0  0  0  0  0
   38.2320   77.5060    8.6910 C   0  0  0  0  0  0
   39.0600   78.2780    9.7210 C   0  0  0  0  0  0
   38.0410   78.2850   10.8610 C   0  0  0  0  0  0
   40.2030   77.3680   10.1730 C   0  0  0  0  0  0
   37.2670   78.0080    5.6820 N   0  0  0  0  0  0
   36.5180   77.5830    4.5050 C   0  0  2  0  0  0
   37.4530   77.4500    3.3090 C   0  0  0  0  0  0
   37.4330   76.4400    2.6050 O   0  0  0  0  0  0
   35.4110   78.5900    4.1880 C   0  0  0  0  0  0
   33.9840   78.0390    4.2280 C   0  0  0  0  0  0
   33.7140   77.4300    5.5950 C   0  0  0  0  0  0
   32.9880   79.1510    3.9290 C   0  0  0  0  0  0
   38.2730   78.4720    3.0830 N   0  0  0  0  0  0
   39.2210   78.4490    1.9740 C   0  0  2  0  0  0
   40.2060   77.2910    2.0970 C   0  0  0  0  0  0
   40.5000   76.6090    1.1120 O   0  0  0  0  0  0
   40.0000   79.7630    1.9040 C   0  0  0  0  0  0
   39.1830   80.9500    1.4220 C   0  0  0  0  0  0
   39.9790   82.2390    1.4090 C   0  0  0  0  0  0
   40.1710   82.8500    0.3590 O   0  0  0  0  0  0
   40.4480   82.6580    2.5760 N   0  0  0  0  0  0
   40.7190   77.0810    3.3070 N   0  0  0  0  0  0
   41.6750   76.0110    3.5650 C   0  0  2  0  0  0
   41.0690   74.6580    3.2250 C   0  0  0  0  0  0
   41.6370   73.8910    2.4570 O   0  0  0  0  0  0
   42.1010   76.0150    5.0380 C   0  0  0  0  0  0
   42.9280   77.2160    5.4650 C   0  0  0  0  0  0
   43.3070   77.1740    6.9410 C   0  0  0  0  0  0
   43.9460   78.0950    7.4530 O   0  0  0  0  0  0
   42.9120   76.1080    7.6300 N   0  0  0  0  0  0
   39.9060   74.3780    3.8010 N   0  0  0  0  0  0
   39.2070   73.1170    3.5800 C   0  0  2  0  0  0
   38.8940   72.8180    2.1190 C   0  0  0  0  0  0
   38.9130   71.6630    1.6980 O   0  0  0  0  0  0
   37.9010   73.1030    4.3770 C   0  0  0  0  0  0
   38.0200   73.0010    5.8980 C   0  0  0  0  0  0
   36.7010   73.3920    6.5620 C   0  0  0  0  0  0
   38.4140   71.5810    6.2670 C   0  0  0  0  0  0
   38.5930   73.8560    1.3490 N   0  0  0  0  0  0
   38.2580   73.6780   -0.0630 C   0  0  2  0  0  0
   39.4720   73.5100   -0.9630 C   0  0  0  0  0  0
   39.3480   73.0730   -2.1070 O   0  0  0  0  0  0
   37.4090   74.8560   -0.5510 C   0  0  0  0  0  0
   35.9570   74.8410   -0.0560 C   0  0  0  0  0  0
   35.2980   76.1910   -0.3010 C   0  0  0  0  0  0
   35.2010   73.7210   -0.7590 C   0  0  0  0  0  0
   40.6500   73.8470   -0.4470 N   0  0  0  0  0  0
   41.8700   73.7250   -1.2340 C   0  0  2  0  0  0
   42.9180   72.8750   -0.5320 C   0  0  0  0  0  0
   44.0110   72.6650   -1.0610 O   0  0  0  0  0  0
   42.4760   75.1130   -1.5370 C   0  0  2  0  0  0
   42.8900   75.7450   -0.3210 O   0  0  0  0  0  0
   41.4500   75.9870   -2.2170 C   0  0  0  0  0  0
   42.5670   72.3770    0.6500 N   0  0  0  0  0  0
   43.4730   71.5620    1.4480 C   0  0  2  0  0  0
   44.2660   70.6040    0.5730 C   0  0  0  0  0  0
   43.6490   69.6780   -0.0020 O   0  0  0  0  0  0
   42.7050   70.7710    2.5140 C   0  0  0  0  0  0
   43.4670   70.6810    3.8360 C   0  0  0  0  0  0
   43.3080   69.3440    4.5430 C   0  0  0  0  0  0
   44.1380   69.0470    5.4340 O   0  0  0  0  0  0
   42.3630   68.5920    4.2190 O   0  0  0  0  0  0
   45.4990   70.8060    0.4620 O   0  0  0  0  0  0
   44.6891   87.0529    0.0365 H   0  0  0  0  0  0
   42.9992   87.5971   -0.2371 H   0  0  0  0  0  0
   43.3839   85.8427   -0.2059 H   0  0  0  0  0  0
   43.5916   87.8044    2.0827 H   0  0  0  0  0  0
   41.8649   85.6541    2.7462 H   0  0  0  0  0  0
   41.4293   87.3709    2.4471 H   0  0  0  0  0  0
   41.8119   86.7838   -0.1165 H   0  0  0  0  0  0
   41.6735   85.0690    0.4004 H   0  0  0  0  0  0
   40.2986   87.7695    1.5745 H   0  0  0  0  0  0
   38.5764   87.7033    0.7623 H   0  0  0  0  0  0
   43.5549   86.3661    4.2244 H   0  0  0  0  0  0
   45.5496   84.1518    3.6566 H   0  0  0  0  0  0
   46.8947   86.0970    4.3562 H   0  0  0  0  0  0
   45.8384   86.3557    5.7858 H   0  0  0  0  0  0
   47.9349   85.2988    6.4512 H   0  0  0  0  0  0
   46.5659   84.1612    6.6927 H   0  0  0  0  0  0
   49.4550   83.5981    6.5169 H   0  0  0  0  0  0
   49.6225   82.4382    5.0147 H   0  0  0  0  0  0
   45.1315   82.3360    4.5705 H   0  0  0  0  0  0
   44.4054   80.8698    6.2217 H   0  0  0  0  0  0
   43.1213   83.2184    7.7486 H   0  0  0  0  0  0
   43.3874   81.5591    8.3833 H   0  0  0  0  0  0
   45.8850   81.9854    8.0116 H   0  0  0  0  0  0
   45.4394   83.7099    7.7790 H   0  0  0  0  0  0
   45.8488   83.7084   10.0461 H   0  0  0  0  0  0
   44.1011   83.2935   10.0566 H   0  0  0  0  0  0
   46.4696   81.3846   10.3216 H   0  0  0  0  0  0
   45.2364   81.7872   11.5640 H   0  0  0  0  0  0
   44.8445   79.6062   10.5834 H   0  0  0  0  0  0
   44.7468   80.3444    8.9487 H   0  0  0  0  0  0
   43.5136   80.7471   10.1911 H   0  0  0  0  0  0
   41.7139   81.9671    7.6919 H   0  0  0  0  0  0
   39.4366   81.7508    7.2343 H   0  0  0  0  0  0
   39.6000   83.0847    5.2112 H   0  0  0  0  0  0
   40.2223   81.6808    4.2793 H   0  0  0  0  0  0
   37.7441   81.9974    3.8787 H   0  0  0  0  0  0
   38.8680   79.9187    8.1279 H   0  0  0  0  0  0
   39.9952   77.3884    7.3910 H   0  0  0  0  0  0
   37.1940   77.8609    8.6100 H   0  0  0  0  0  0
   38.2359   76.4181    8.8538 H   0  0  0  0  0  0
   39.4672   79.2468    9.3959 H   0  0  0  0  0  0
   37.1911   78.9282   10.5891 H   0  0  0  0  0  0
   38.5158   78.6716   11.7748 H   0  0  0  0  0  0
   37.6831   77.2602   11.0391 H   0  0  0  0  0  0
   40.9706   77.3252    9.3863 H   0  0  0  0  0  0
   39.8139   76.3565   10.3611 H   0  0  0  0  0  0
   40.6466   77.7678   11.0968 H   0  0  0  0  0  0
   37.0062   78.9482    6.1900 H   0  0  0  0  0  0
   36.0834   76.6047    4.7581 H   0  0  0  0  0  0
   35.4448   79.4135    4.9165 H   0  0  0  0  0  0
   35.5592   78.9908    3.1744 H   0  0  0  0  0  0
   33.8644   77.2562    3.4645 H   0  0  0  0  0  0
   34.4435   76.6302    5.7907 H   0  0  0  0  0  0
   32.6969   77.0117    5.6156 H   0  0  0  0  0  0
   33.8064   78.2076    6.3675 H   0  0  0  0  0  0
   33.2008   79.5770    2.9374 H   0  0  0  0  0  0
   33.0766   79.9377    4.6928 H   0  0  0  0  0  0
   31.9670   78.7417    3.9408 H   0  0  0  0  0  0
   38.2278   79.3456    3.7499 H   0  0  0  0  0  0
   38.5938   78.3114    1.0809 H   0  0  0  0  0  0
   40.3787   80.0185    2.9047 H   0  0  0  0  0  0
   40.8456   79.6514    1.2094 H   0  0  0  0  0  0
   38.8305   80.7607    0.3973 H   0  0  0  0  0  0
   38.3183   81.0940    2.0865 H   0  0  0  0  0  0
   40.2502   82.0770    3.4889 H   0  0  0  0  0  0
   41.0350   83.5866    2.6315 H   0  0  0  0  0  0
   40.4013   77.7438    4.1254 H   0  0  0  0  0  0
   42.5304   76.2211    2.9061 H   0  0  0  0  0  0
   41.2067   76.0051    5.6783 H   0  0  0  0  0  0
   42.7106   75.1233    5.2458 H   0  0  0  0  0  0
   43.8583   77.2476    4.8789 H   0  0  0  0  0  0
   42.3533   78.1376    5.2907 H   0  0  0  0  0  0
   42.3432   75.3099    7.1304 H   0  0  0  0  0  0
   43.1539   76.0239    8.6998 H   0  0  0  0  0  0
   39.4710   75.1388    4.4657 H   0  0  0  0  0  0
   39.9333   72.3686    3.9297 H   0  0  0  0  0  0
   37.3441   74.0319    4.1847 H   0  0  0  0  0  0
   37.2924   72.2401    4.0686 H   0  0  0  0  0  0
   38.7965   73.6905    6.2610 H   0  0  0  0  0  0
   36.4393   74.4223    6.2790 H   0  0  0  0  0  0
   36.8075   73.3278    7.6549 H   0  0  0  0  0  0
   35.9064   72.7075    6.2302 H   0  0  0  0  0  0
   39.3650   71.3253    5.7769 H   0  0  0  0  0  0
   37.6306   70.8847    5.9333 H   0  0  0  0  0  0
   38.5317   71.5049    7.3580 H   0  0  0  0  0  0
   38.5984   74.8636    1.7902 H   0  0  0  0  0  0
   37.6997   72.7304   -0.0821 H   0  0  0  0  0  0
   37.8560   75.7990   -0.2032 H   0  0  0  0  0  0
   37.3724   74.8511   -1.6504 H   0  0  0  0  0  0
   35.9292   74.6569    1.0281 H   0  0  0  0  0  0
   35.8666   76.9763    0.2187 H   0  0  0  0  0  0
   34.2670   76.1706    0.0818 H   0  0  0  0  0  0
   35.2842   76.4018   -1.3805 H   0  0  0  0  0  0
   35.7014   72.7613   -0.5626 H   0  0  0  0  0  0
   35.1865   73.9121   -1.8422 H   0  0  0  0  0  0
   34.1692   73.6809   -0.3799 H   0  0  0  0  0  0
   40.6972   74.2214    0.5862 H   0  0  0  0  0  0
   41.5350   73.2155   -2.1495 H   0  0  0  0  0  0
   43.3790   75.0255   -2.1590 H   0  0  0  0  0  0
   43.6391   75.2611    0.3230 H   0  0  0  0  0  0
   41.1249   75.5101   -3.1534 H   0  0  0  0  0  0
   41.8943   76.9682   -2.4403 H   0  0  0  0  0  0
   40.5832   76.1195   -1.5528 H   0  0  0  0  0  0
   41.5553   72.5984    1.0208 H   0  0  0  0  0  0
   44.1554   72.2854    1.9181 H   0  0  0  0  0  0
   41.7406   71.2621    2.7111 H   0  0  0  0  0  0
   42.5281   69.7467    2.1540 H   0  0  0  0  0  0
   44.5413   70.8279    3.6507 H   0  0  0  0  0  0
   43.1035   71.4598    4.5225 H   0  0  0  0  0  0
   44.0539   68.0881    5.9664 H   0  0  0  0  0  0
   46.1119   70.1379   -0.1609 H   0  0  0  0  0  0
  1  2  1  0  0  0
  1101  1  0  0  0
  1102  1  0  0  0
  1103  1  0  0  0
  2  3  1  0  0  0
  2  5  1  0  0  0
  2104  1  0  0  0
  3  4  2  0  0  0
  3 10  1  0  0  0
  5  6  1  0  0  0
  5105  1  0  0  0
  5106  1  0  0  0
  6  7  1  0  0  0
  6107  1  0  0  0
  6108  1  0  0  0
  7  8  2  0  0  0
  7  9  1  0  0  0
  9109  1  0  0  0
  9110  1  0  0  0
 10 11  1  0  0  0
 10111  1  0  0  0
 11 12  1  0  0  0
 11 14  1  0  0  0
 11112  1  0  0  0
 12 13  2  0  0  0
 12 19  1  0  0  0
 14 15  1  0  0  0
 14113  1  0  0  0
 14114  1  0  0  0
 15 16  1  0  0  0
 15115  1  0  0  0
 15116  1  0  0  0
 16 17  2  0  0  0
 16 18  1  0  0  0
 18117  1  0  0  0
 18118  1  0  0  0
 19 20  1  0  0  0
 19119  1  0  0  0
 20 21  1  0  0  0
 20 23  1  0  0  0
 20120  1  0  0  0
 21 22  2  0  0  0
 21 28  1  0  0  0
 23 24  1  0  0  0
 23121  1  0  0  0
 23122  1  0  0  0
 24 25  1  0  0  0
 24123  1  0  0  0
 24124  1  0  0  0
 25 26  1  0  0  0
 25125  1  0  0  0
 25126  1  0  0  0
 26 27  1  0  0  0
 26127  1  0  0  0
 26128  1  0  0  0
 27129  1  0  0  0
 27130  1  0  0  0
 27131  1  0  0  0
 28 29  1  0  0  0
 28132  1  0  0  0
 29 30  1  0  0  0
 29 32  1  0  0  0
 29133  1  0  0  0
 30 31  2  0  0  0
 30 34  1  0  0  0
 32 33  1  0  0  0
 32134  1  0  0  0
 32135  1  0  0  0
 33136  1  0  0  0
 34 35  1  0  0  0
 34137  1  0  0  0
 35 36  1  0  0  0
 35 38  1  0  0  0
 35138  1  0  0  0
 36 37  2  0  0  0
 36 42  1  0  0  0
 38 39  1  0  0  0
 38139  1  0  0  0
 38140  1  0  0  0
 39 40  1  0  0  0
 39 41  1  0  0  0
 39141  1  0  0  0
 40142  1  0  0  0
 40143  1  0  0  0
 40144  1  0  0  0
 41145  1  0  0  0
 41146  1  0  0  0
 41147  1  0  0  0
 42 43  1  0  0  0
 42148  1  0  0  0
 43 44  1  0  0  0
 43 46  1  0  0  0
 43149  1  0  0  0
 44 45  2  0  0  0
 44 50  1  0  0  0
 46 47  1  0  0  0
 46150  1  0  0  0
 46151  1  0  0  0
 47 48  1  0  0  0
 47 49  1  0  0  0
 47152  1  0  0  0
 48153  1  0  0  0
 48154  1  0  0  0
 48155  1  0  0  0
 49156  1  0  0  0
 49157  1  0  0  0
 49158  1  0  0  0
 50 51  1  0  0  0
 50159  1  0  0  0
 51 52  1  0  0  0
 51 54  1  0  0  0
 51160  1  0  0  0
 52 53  2  0  0  0
 52 59  1  0  0  0
 54 55  1  0  0  0
 54161  1  0  0  0
 54162  1  0  0  0
 55 56  1  0  0  0
 55163  1  0  0  0
 55164  1  0  0  0
 56 57  2  0  0  0
 56 58  1  0  0  0
 58165  1  0  0  0
 58166  1  0  0  0
 59 60  1  0  0  0
 59167  1  0  0  0
 60 61  1  0  0  0
 60 63  1  0  0  0
 60168  1  0  0  0
 61 62  2  0  0  0
 61 68  1  0  0  0
 63 64  1  0  0  0
 63169  1  0  0  0
 63170  1  0  0  0
 64 65  1  0  0  0
 64171  1  0  0  0
 64172  1  0  0  0
 65 66  2  0  0  0
 65 67  1  0  0  0
 67173  1  0  0  0
 67174  1  0  0  0
 68 69  1  0  0  0
 68175  1  0  0  0
 69 70  1  0  0  0
 69 72  1  0  0  0
 69176  1  0  0  0
 70 71  2  0  0  0
 70 76  1  0  0  0
 72 73  1  0  0  0
 72177  1  0  0  0
 72178  1  0  0  0
 73 74  1  0  0  0
 73 75  1  0  0  0
 73179  1  0  0  0
 74180  1  0  0  0
 74181  1  0  0  0
 74182  1  0  0  0
 75183  1  0  0  0
 75184  1  0  0  0
 75185  1  0  0  0
 76 77  1  0  0  0
 76186  1  0  0  0
 77 78  1  0  0  0
 77 80  1  0  0  0
 77187  1  0  0  0
 78 79  2  0  0  0
 78 84  1  0  0  0
 80 81  1  0  0  0
 80188  1  0  0  0
 80189  1  0  0  0
 81 82  1  0  0  0
 81 83  1  0  0  0
 81190  1  0  0  0
 82191  1  0  0  0
 82192  1  0  0  0
 82193  1  0  0  0
 83194  1  0  0  0
 83195  1  0  0  0
 83196  1  0  0  0
 84 85  1  0  0  0
 84197  1  0  0  0
 85 86  1  0  0  0
 85 88  1  0  0  0
 85198  1  0  0  0
 86 87  2  0  0  0
 86 91  1  0  0  0
 88 89  1  0  0  0
 88 90  1  0  0  0
 88199  1  0  0  0
 89200  1  0  0  0
 90201  1  0  0  0
 90202  1  0  0  0
 90203  1  0  0  0
 91 92  1  0  0  0
 91204  1  0  0  0
 92 93  1  0  0  0
 92 95  1  0  0  0
 92205  1  0  0  0
 93 94  2  0  0  0
 93100  1  0  0  0
 95 96  1  0  0  0
 95206  1  0  0  0
 95207  1  0  0  0
 96 97  1  0  0  0
 96208  1  0  0  0
 96209  1  0  0  0
 97 98  1  0  0  0
 97 99  2  0  0  0
 98210  1  0  0  0
100211  1  0  0  0
M  CHG  2   1   1  27   1
M  END
> <s_m_source_file>
../2a3i_ligand.sdf

> <i_m_source_file_index>
1

> <s_epik_input>
Tz1DKFtOSDJdKVtDSDJdW0NIMl1bQ0BIXShbTkgzK10pQyg9TylbTkhdW0NAQEhdKFtDSDJdW0NIMl1DKD1PKVtOSDJdKUMoPU8pW05IXVtDQEBIXShbQ0gyXVtDSDJdW0NIMl1bQ0gyXVtOSDMrXSlDKD1PKVtOSF1bQ0BASF0oW0NIMl1bT0hdKUMoPU8pW05IXVtDQEBIXShbQ0gyXVtDSF0oW0NIM10pW0NIM10pQyg9TylbTkhdW0NAQEhdKFtDSDJdW0NIXShbQ0gzXSlbQ0gzXSlDKD1PKVtOSF1bQ0BASF0oW0NIMl1bQ0gyXUMoPU8pW05IMl0pQyg9TylbTkhdW0NAQEhdKFtDSDJdW0NIMl1DKD1PKVtOSDJdKUMoPU8pW05IXVtDQEBIXShbQ0gyXVtDSF0oW0NIM10pW0NIM10pQyg9TylbTkhdW0NAQEhdKFtDSDJdW0NIXShbQ0gzXSlbQ0gzXSlDKD1PKVtOSF1bQ0BASF0oW0NASF0oW09IXSlbQ0gzXSlDKD1PKVtOSF1bQ0BIXShDKD1PKVtPSF0pW0NIMl1bQ0gyXUMoPU8pW09IXQ==

> <s_epik_cmdline>
J2VwaWtfYXBwJywgJy1pbWFlJywgJ2xpZ2FuZF9wcm8ubWFlJywgJy1vbWFlJywgJ2xpZ2FuZF9wcmVwLm1hZScsICctbXMnLCAnMScsICctcGgnLCAnNycsICctcGh0JywgJzAuNScsICctbnQn

> <s_epik_pKa_notes>
Molecule size exceeds maximum supported for generating protonation states

$$$$
