2a3x_ligand
                    3D
 Schrodinger Suite 2020-3.
 56 58  0  0  1  0            999 V2000
  -26.2960   74.7970   74.3430 O   0  5  0  0  0  0
  -25.5830   75.7710   74.6800 C   0  0  0  0  0  0
  -25.3380   76.0450   75.8770 O   0  0  0  0  0  0
  -24.9670   76.6490   73.6210 C   0  0  2  0  0  0
  -25.4780   76.2970   72.3280 O   0  0  0  0  0  0
  -25.1090   77.1840   71.2680 C   0  0  0  0  0  0
  -23.4630   76.3940   73.6600 C   0  0  0  0  0  0
  -25.2910   78.0070   73.9540 O   0  0  0  0  0  0
  -24.9210   78.9790   72.9750 C   0  0  0  0  0  0
  -25.5210   78.6060   71.6230 C   0  0  2  0  0  0
  -26.9400   78.6430   71.6900 O   0  0  0  0  0  0
  -27.5030   79.9030   71.3190 C   0  0  0  0  0  0
  -26.6940   80.8810   70.6710 O   0  0  0  0  0  0
  -28.9540   80.0060   71.2390 N   0  0  0  0  0  0
  -29.6110   79.8860   72.5360 C   0  0  0  0  0  0
  -31.0210   80.4320   72.3220 C   0  0  0  0  0  0
  -29.4550   79.2660   70.0880 C   0  0  0  0  0  0
  -30.8610   79.8130   69.8770 C   0  0  0  0  0  0
  -31.5300   79.7010   71.1680 N   0  0  0  0  0  0
  -32.9680   79.8510   70.9610 C   0  0  0  0  0  0
  -33.7770   78.6860   70.9020 O   0  0  0  0  0  0
  -33.5890   81.1240   71.1820 O   0  0  0  0  0  0
  -35.0110   81.0960   71.0290 C   0  0  1  0  0  0
  -35.7480   80.9520   72.3610 C   0  0  0  0  0  0
  -35.6740   82.1520   73.1370 O   0  0  0  0  0  0
  -35.4680   82.3750   70.3350 C   0  0  0  0  0  0
  -35.4000   83.5080   71.2100 O   0  0  0  0  0  0
  -36.0540   83.3670   72.4750 C   0  0  1  0  0  0
  -37.5670   83.4440   72.2660 C   0  0  0  0  0  0
  -35.6240   84.5020   73.3750 C   0  0  0  0  0  0
  -36.0600   84.5400   74.5470 O   0  5  0  0  0  0
  -34.8390   85.3730   72.9390 O   0  0  0  0  0  0
  -24.0196   77.1458   71.1204 H   0  0  0  0  0  0
  -25.6156   76.8780   70.3408 H   0  0  0  0  0  0
  -23.2622   75.3444   73.3991 H   0  0  0  0  0  0
  -23.0823   76.5998   74.6713 H   0  0  0  0  0  0
  -22.9604   77.0540   72.9377 H   0  0  0  0  0  0
  -25.2966   79.9671   73.2792 H   0  0  0  0  0  0
  -23.8249   79.0140   72.8890 H   0  0  0  0  0  0
  -25.2272   79.3366   70.8549 H   0  0  0  0  0  0
  -29.6285   78.8295   72.8418 H   0  0  0  0  0  0
  -29.0583   80.4748   73.2829 H   0  0  0  0  0  0
  -31.6262   80.2473   73.2218 H   0  0  0  0  0  0
  -30.9701   81.5139   72.1301 H   0  0  0  0  0  0
  -28.8046   79.4526   69.2208 H   0  0  0  0  0  0
  -29.4603   78.1903   70.3177 H   0  0  0  0  0  0
  -30.8012   80.8611   69.5486 H   0  0  0  0  0  0
  -31.3749   79.2168   69.1086 H   0  0  0  0  0  0
  -35.1870   80.1982   70.4183 H   0  0  0  0  0  0
  -36.8077   80.7264   72.1711 H   0  0  0  0  0  0
  -35.2976   80.1343   72.9428 H   0  0  0  0  0  0
  -34.8234   82.5707   69.4654 H   0  0  0  0  0  0
  -36.5094   82.2587   70.0006 H   0  0  0  0  0  0
  -37.8891   82.6207   71.6114 H   0  0  0  0  0  0
  -37.8241   84.4061   71.7987 H   0  0  0  0  0  0
  -38.0760   83.3606   73.2376 H   0  0  0  0  0  0
  1  2  1  0  0  0
  2  3  2  0  0  0
  2  4  1  0  0  0
  4  5  1  0  0  0
  4  7  1  0  0  0
  4  8  1  0  0  0
  5  6  1  0  0  0
  6 10  1  0  0  0
  6 33  1  0  0  0
  6 34  1  0  0  0
  7 35  1  0  0  0
  7 36  1  0  0  0
  7 37  1  0  0  0
  8  9  1  0  0  0
  9 10  1  0  0  0
  9 38  1  0  0  0
  9 39  1  0  0  0
 10 11  1  0  0  0
 10 40  1  0  0  0
 11 12  1  0  0  0
 12 13  2  0  0  0
 12 14  1  0  0  0
 14 15  1  0  0  0
 14 17  1  0  0  0
 15 16  1  0  0  0
 15 41  1  0  0  0
 15 42  1  0  0  0
 16 19  1  0  0  0
 16 43  1  0  0  0
 16 44  1  0  0  0
 17 18  1  0  0  0
 17 45  1  0  0  0
 17 46  1  0  0  0
 18 19  1  0  0  0
 18 47  1  0  0  0
 18 48  1  0  0  0
 19 20  1  0  0  0
 20 21  2  0  0  0
 20 22  1  0  0  0
 22 23  1  0  0  0
 23 24  1  0  0  0
 23 26  1  0  0  0
 23 49  1  0  0  0
 24 25  1  0  0  0
 24 50  1  0  0  0
 24 51  1  0  0  0
 25 28  1  0  0  0
 26 27  1  0  0  0
 26 52  1  0  0  0
 26 53  1  0  0  0
 27 28  1  0  0  0
 28 29  1  0  0  0
 28 30  1  0  0  0
 29 54  1  0  0  0
 29 55  1  0  0  0
 29 56  1  0  0  0
 30 31  1  0  0  0
 30 32  2  0  0  0
M  CHG  2   1  -1  31  -1
M  END
> <s_m_source_file>
../2a3x_ligand.sdf

> <i_m_source_file_index>
1

> <s_epik_input>
W09IXUMoPU8pW0NAQF0xKFtDSDNdKU9bQ0gyXVtDQEhdKFtDSDJdTzEpT0MoPU8pTjJbQ0gyXVtDSDJdTihbQ0gyXVtDSDJdMilDKD1PKU9bQ0BIXShbQ0gyXU8zKVtDSDJdT1tDQEBdMyhbQ0gzXSlDKD1PKVtPSF0=

> <s_epik_cmdline>
J2VwaWtfYXBwJywgJy1pbWFlJywgJ2xpZ2FuZF9wcm8ubWFlJywgJy1vbWFlJywgJ2xpZ2FuZF9wcmVwLm1hZScsICctbXMnLCAnMScsICctcGgnLCAnNycsICctcGh0JywgJzAuNScsICctbnQn

> <r_lp_tautomer_probability>
1

> <r_epik_Ionization_Penalty>
  0.0000

> <r_epik_Ionization_Penalty_Charging>
  0.0000

> <r_epik_Ionization_Penalty_Neutral>
  0.0000

> <r_epik_State_Penalty>
 -0.0000

> <r_epik_Charging_Adjusted_Penalty>
3.98516424684351e-05

> <i_epik_Tot_Q>
-2

> <i_epik_Tot_abs_Q>
2

> <s_epik_Chemistry_Notes>
This compound has an ester and may undergo hydrolysis at high or low pH.

$$$$
