2a4g_ligand
                    3D
 Schrodinger Suite 2020-3.
105106  0  0  1  0            999 V2000
  192.1520  -10.5310   49.0320 C   0  0  0  0  0  0
  192.7820  -11.3530   49.7070 O   0  0  0  0  0  0
  190.9290  -10.3640   48.9220 O   0  0  0  0  0  0
  190.1620  -11.1160   49.8060 C   0  0  0  0  0  0
  188.8870  -10.3230   50.0490 C   0  0  0  0  0  0
  187.7360  -10.9900   49.3210 C   0  0  0  0  0  0
  188.6130  -10.2300   51.5370 C   0  0  0  0  0  0
  192.7440   -9.6270   48.2640 N   0  0  0  0  0  0
  194.1890   -9.4660   48.2640 C   0  0  1  0  0  0
  194.6450   -8.6690   47.0510 C   0  0  0  0  0  0
  196.1610   -8.5050   47.0410 C   0  0  0  0  0  0
  196.6480   -7.7270   45.8400 C   0  0  0  0  0  0
  196.1900   -8.4010   44.5510 C   0  0  0  0  0  0
  194.6760   -8.6140   44.5250 C   0  0  0  0  0  0
  194.2210   -9.3620   45.7600 C   0  0  0  0  0  0
  194.6220   -8.7120   49.5060 C   0  0  0  0  0  0
  194.1500   -7.6020   49.7570 O   0  0  0  0  0  0
  195.5130   -9.3180   50.2800 N   0  0  0  0  0  0
  196.0080   -8.6840   51.4890 C   0  0  1  0  0  0
  196.6570   -9.7140   52.4060 C   0  0  0  0  0  0
  195.7720  -10.8760   52.8590 C   0  0  0  0  0  0
  196.4900  -11.6550   53.9350 C   0  0  0  0  0  0
  194.4610  -10.3590   53.3870 C   0  0  0  0  0  0
  197.0060   -7.6010   51.1020 C   0  0  0  0  0  0
  198.0120   -7.8770   50.4450 O   0  0  0  0  0  0
  196.6970   -6.3620   51.4730 N   0  0  0  0  0  0
  197.5450   -5.2190   51.1620 C   0  0  1  0  0  0
  196.7620   -4.1940   50.3330 C   0  0  0  0  0  0
  196.8230   -4.4370   48.8320 C   0  0  0  0  0  0
  195.4420   -4.5890   48.3180 C   0  0  0  0  0  0
  198.7500   -5.8180   53.1790 O   0  0  0  0  0  0
  198.3060   -4.7280   52.3810 C   0  0  1  0  0  0
  199.3770   -2.8110   51.4470 O   0  0  0  0  0  0
  200.6880   -4.5480   51.9340 N   0  0  0  0  0  0
  201.9350   -3.8820   51.6090 C   0  0  0  0  0  0
  202.3130   -4.0080   50.1540 C   0  0  0  0  0  0
  201.5480   -4.5080   49.3230 O   0  0  0  0  0  0
  199.5100   -3.9490   51.8810 C   0  0  0  0  0  0
  203.5070   -3.5190   49.8490 N   0  0  0  0  0  0
  204.0500   -3.5630   48.5040 C   0  0  1  0  0  0
  203.8550   -2.2780   47.7430 C   0  0  0  0  0  0
  203.9310   -1.0460   48.3870 C   0  0  0  0  0  0
  203.7910    0.1340   47.6810 C   0  0  0  0  0  0
  203.5680    0.0930   46.3060 C   0  0  0  0  0  0
  203.4850   -1.1320   45.6450 C   0  0  0  0  0  0
  203.6290   -2.3100   46.3650 C   0  0  0  0  0  0
  205.5560   -3.7760   48.6090 C   0  0  0  0  0  0
  206.2090   -3.2690   49.5330 O   0  0  0  0  0  0
  206.1020   -4.5290   47.6600 N   0  0  0  0  0  0
  189.9379  -12.0945   49.3562 H   0  0  0  0  0  0
  190.7199  -11.2622   50.7427 H   0  0  0  0  0  0
  188.9993   -9.2995   49.6619 H   0  0  0  0  0  0
  187.9635  -11.0429   48.2461 H   0  0  0  0  0  0
  186.8174  -10.4043   49.4730 H   0  0  0  0  0  0
  187.5923  -12.0066   49.7159 H   0  0  0  0  0  0
  189.4634   -9.7430   52.0367 H   0  0  0  0  0  0
  188.4759  -11.2409   51.9484 H   0  0  0  0  0  0
  187.7009   -9.6386   51.7056 H   0  0  0  0  0  0
  192.1198   -8.9919   47.6182 H   0  0  0  0  0  0
  194.5975  -10.4871   48.2427 H   0  0  0  0  0  0
  194.1701   -7.6790   47.1167 H   0  0  0  0  0  0
  196.4775   -7.9660   47.9462 H   0  0  0  0  0  0
  196.6370   -9.4965   47.0194 H   0  0  0  0  0  0
  196.2411   -6.7056   45.8752 H   0  0  0  0  0  0
  197.7471   -7.6844   45.8518 H   0  0  0  0  0  0
  196.4639   -7.7721   43.6911 H   0  0  0  0  0  0
  196.6774   -9.3827   44.4573 H   0  0  0  0  0  0
  194.1690   -7.6383   44.4927 H   0  0  0  0  0  0
  194.4032   -9.1986   43.6340 H   0  0  0  0  0  0
  194.6575  -10.3711   45.7251 H   0  0  0  0  0  0
  193.1240   -9.4357   45.7266 H   0  0  0  0  0  0
  195.8768  -10.3159   49.9937 H   0  0  0  0  0  0
  195.1389   -8.2457   52.0013 H   0  0  0  0  0  0
  197.5159  -10.1718   51.8934 H   0  0  0  0  0  0
  197.0004   -9.2203   53.3270 H   0  0  0  0  0  0
  195.5564  -11.5404   52.0093 H   0  0  0  0  0  0
  197.4464  -12.0289   53.5407 H   0  0  0  0  0  0
  195.8664  -12.5044   54.2507 H   0  0  0  0  0  0
  196.6802  -10.9992   54.7974 H   0  0  0  0  0  0
  193.9451   -9.7932   52.5972 H   0  0  0  0  0  0
  194.6467   -9.7004   54.2482 H   0  0  0  0  0  0
  193.8329  -11.2055   53.7015 H   0  0  0  0  0  0
  195.7623   -6.2168   52.0345 H   0  0  0  0  0  0
  198.3575   -5.5673   50.5074 H   0  0  0  0  0  0
  195.7014   -4.2206   50.6237 H   0  0  0  0  0  0
  197.1672   -3.1879   50.5161 H   0  0  0  0  0  0
  197.3118   -3.5822   48.3418 H   0  0  0  0  0  0
  197.3987   -5.3527   48.6319 H   0  0  0  0  0  0
  195.4721   -4.7654   47.2327 H   0  0  0  0  0  0
  194.8708   -3.6719   48.5248 H   0  0  0  0  0  0
  194.9577   -5.4425   48.8149 H   0  0  0  0  0  0
  198.0174   -6.5017   53.6328 H   0  0  0  0  0  0
  197.6596   -4.1435   53.0522 H   0  0  0  0  0  0
  200.6926   -5.6037   52.2430 H   0  0  0  0  0  0
  201.8486   -2.8097   51.8386 H   0  0  0  0  0  0
  202.7503   -4.3198   52.2036 H   0  0  0  0  0  0
  204.0916   -3.0667   50.6636 H   0  0  0  0  0  0
  203.4942   -4.3707   48.0053 H   0  0  0  0  0  0
  204.1033   -1.0115   49.4627 H   0  0  0  0  0  0
  203.8547    1.0919   48.1972 H   0  0  0  0  0  0
  203.4581    1.0214   45.7455 H   0  0  0  0  0  0
  203.3082   -1.1643   44.5699 H   0  0  0  0  0  0
  203.5651   -3.2687   45.8503 H   0  0  0  0  0  0
  205.4723   -4.9530   46.8640 H   0  0  0  0  0  0
  207.1837   -4.7284   47.6704 H   0  0  0  0  0  0
  1  2  2  0  0  0
  1  3  1  0  0  0
  1  8  1  0  0  0
  3  4  1  0  0  0
  4  5  1  0  0  0
  4 50  1  0  0  0
  4 51  1  0  0  0
  5  6  1  0  0  0
  5  7  1  0  0  0
  5 52  1  0  0  0
  6 53  1  0  0  0
  6 54  1  0  0  0
  6 55  1  0  0  0
  7 56  1  0  0  0
  7 57  1  0  0  0
  7 58  1  0  0  0
  8  9  1  0  0  0
  8 59  1  0  0  0
  9 10  1  0  0  0
  9 16  1  0  0  0
  9 60  1  0  0  0
 10 11  1  0  0  0
 10 15  1  0  0  0
 10 61  1  0  0  0
 11 12  1  0  0  0
 11 62  1  0  0  0
 11 63  1  0  0  0
 12 13  1  0  0  0
 12 64  1  0  0  0
 12 65  1  0  0  0
 13 14  1  0  0  0
 13 66  1  0  0  0
 13 67  1  0  0  0
 14 15  1  0  0  0
 14 68  1  0  0  0
 14 69  1  0  0  0
 15 70  1  0  0  0
 15 71  1  0  0  0
 16 17  2  0  0  0
 16 18  1  0  0  0
 18 19  1  0  0  0
 18 72  1  0  0  0
 19 20  1  0  0  0
 19 24  1  0  0  0
 19 73  1  0  0  0
 20 21  1  0  0  0
 20 74  1  0  0  0
 20 75  1  0  0  0
 21 22  1  0  0  0
 21 23  1  0  0  0
 21 76  1  0  0  0
 22 77  1  0  0  0
 22 78  1  0  0  0
 22 79  1  0  0  0
 23 80  1  0  0  0
 23 81  1  0  0  0
 23 82  1  0  0  0
 24 25  2  0  0  0
 24 26  1  0  0  0
 26 27  1  0  0  0
 26 83  1  0  0  0
 27 28  1  0  0  0
 27 32  1  0  0  0
 27 84  1  0  0  0
 28 29  1  0  0  0
 28 85  1  0  0  0
 28 86  1  0  0  0
 29 30  1  0  0  0
 29 87  1  0  0  0
 29 88  1  0  0  0
 30 89  1  0  0  0
 30 90  1  0  0  0
 30 91  1  0  0  0
 31 32  1  0  0  0
 31 92  1  0  0  0
 32 38  1  0  0  0
 32 93  1  0  0  0
 33 38  2  0  0  0
 34 35  1  0  0  0
 34 38  1  0  0  0
 34 94  1  0  0  0
 35 36  1  0  0  0
 35 95  1  0  0  0
 35 96  1  0  0  0
 36 37  2  0  0  0
 36 39  1  0  0  0
 39 40  1  0  0  0
 39 97  1  0  0  0
 40 41  1  0  0  0
 40 47  1  0  0  0
 40 98  1  0  0  0
 41 42  2  0  0  0
 41 46  1  0  0  0
 42 43  1  0  0  0
 42 99  1  0  0  0
 43 44  2  0  0  0
 43100  1  0  0  0
 44 45  1  0  0  0
 44101  1  0  0  0
 45 46  2  0  0  0
 45102  1  0  0  0
 46103  1  0  0  0
 47 48  2  0  0  0
 47 49  1  0  0  0
 49104  1  0  0  0
 49105  1  0  0  0
M  END
> <s_m_source_file>
../2a4g_ligand.sdf

> <i_m_source_file_index>
1

> <s_epik_input>
W0NIM11bQ0hdKFtDSDNdKVtDSDJdT0MoPU8pW05IXVtDQEBIXShbQ0hdMVtDSDJdW0NIMl1bQ0gyXVtDSDJdW0NIMl0xKUMoPU8pW05IXVtDQEBIXShbQ0gyXVtDSF0oW0NIM10pW0NIM10pQyg9TylbTkhdW0NAQEhdKFtDSDJdW0NIMl1bQ0gzXSlbQ0BASF0oW09IXSlDKD1PKVtOSF1bQ0gyXUMoPU8pW05IXVtDQEhdKEMoPU8pW05IMl0pYzJbY0hdW2NIXVtjSF1bY0hdW2NIXTI=

> <s_epik_cmdline>
J2VwaWtfYXBwJywgJy1pbWFlJywgJ2xpZ2FuZF9wcm8ubWFlJywgJy1vbWFlJywgJ2xpZ2FuZF9wcmVwLm1hZScsICctbXMnLCAnMScsICctcGgnLCAnNycsICctcGh0JywgJzAuNScsICctbnQn

> <r_lp_tautomer_probability>
1

> <r_epik_Ionization_Penalty>
  0.0000

> <r_epik_Ionization_Penalty_Charging>
  0.0000

> <r_epik_Ionization_Penalty_Neutral>
  0.0000

> <r_epik_State_Penalty>
 -0.0000

> <r_epik_Charging_Adjusted_Penalty>
0

> <i_epik_Tot_Q>
0

> <i_epik_Tot_abs_Q>
0

> <s_epik_Chemistry_Notes>
This compound has an ester and may undergo hydrolysis at high or low pH.

$$$$
