2a4l_ligand
                    3D
 Schrodinger Suite 2020-3.
 52 54  0  0  1  0            999 V2000
   96.9410   98.3980   81.7010 O   0  0  0  0  0  0
   97.8200   99.3160   82.3990 C   0  0  0  0  0  0
   99.3030   99.0600   82.1250 C   0  0  1  0  0  0
   99.5800   97.5390   82.1130 C   0  0  0  0  0  0
  100.8690   97.0700   82.8130 C   0  0  0  0  0  0
   99.6890   99.6750   80.7710 N   0  0  0  0  0  0
  100.6050  100.5790   80.3970 C   0  0  0  0  0  0
  101.5800  100.7310   81.2850 N   0  0  0  0  0  0
  102.5660  101.6080   81.0000 C   0  0  0  0  0  0
  103.6710  101.8700   81.7690 N   0  0  0  0  0  0
  103.9420  101.2080   83.0530 C   0  0  0  0  0  0
  104.1430   99.6920   82.8200 C   0  0  0  0  0  0
  102.7500  101.4540   84.0120 C   0  0  0  0  0  0
  104.3850  102.7950   81.0530 C   0  0  0  0  0  0
  102.6270  102.3520   79.8510 C   0  0  0  0  0  0
  103.7980  103.0970   79.9180 N   0  0  0  0  0  0
  100.6130  101.2930   79.2400 N   0  0  0  0  0  0
  101.5820  102.1980   78.8950 C   0  0  0  0  0  0
  101.4790  102.7930   77.7210 N   0  0  0  0  0  0
  100.2390  102.4850   76.9830 C   0  0  0  0  0  0
   99.6080  103.8320   76.5810 C   0  0  0  0  0  0
  100.4390  104.8910   76.2360 C   0  0  0  0  0  0
   99.8830  106.1120   75.8700 C   0  0  0  0  0  0
   98.4980  106.2290   75.8640 C   0  0  0  0  0  0
   97.6480  105.1730   76.1880 C   0  0  0  0  0  0
   98.2240  103.9610   76.5500 C   0  0  0  0  0  0
   95.8507   98.4831   81.8195 H   0  0  0  0  0  0
   97.5982  100.3465   82.0847 H   0  0  0  0  0  0
   97.6624   99.2215   83.4835 H   0  0  0  0  0  0
   99.8994   99.5328   82.9192 H   0  0  0  0  0  0
   98.7559   97.0123   82.6164 H   0  0  0  0  0  0
   99.6581   97.1887   81.0732 H   0  0  0  0  0  0
  100.9509   95.9758   82.7357 H   0  0  0  0  0  0
  100.8373   97.3614   83.8732 H   0  0  0  0  0  0
  101.7395   97.5379   82.3300 H   0  0  0  0  0  0
   99.1571   99.3713   79.8573 H   0  0  0  0  0  0
  104.8626  101.6515   83.4601 H   0  0  0  0  0  0
  104.9917   99.5352   82.1381 H   0  0  0  0  0  0
  103.2318   99.2654   82.3754 H   0  0  0  0  0  0
  104.3484   99.1974   83.7808 H   0  0  0  0  0  0
  102.6210  102.5354   84.1667 H   0  0  0  0  0  0
  102.9497  100.9666   84.9777 H   0  0  0  0  0  0
  101.8331  101.0346   83.5723 H   0  0  0  0  0  0
  105.3280  103.2284   81.3861 H   0  0  0  0  0  0
  102.2260  103.4710   77.2825 H   0  0  0  0  0  0
  100.4816  101.8879   76.0916 H   0  0  0  0  0  0
   99.5580  101.9149   77.6320 H   0  0  0  0  0  0
  101.5216  104.7652   76.2522 H   0  0  0  0  0  0
  100.5167  106.9552   75.5950 H   0  0  0  0  0  0
   98.0573  107.1887   75.5941 H   0  0  0  0  0  0
   96.5651  105.2939   76.1584 H   0  0  0  0  0  0
   97.5912  103.1123   76.8094 H   0  0  0  0  0  0
  1  2  1  0  0  0
  1 27  1  0  0  0
  2  3  1  0  0  0
  2 28  1  0  0  0
  2 29  1  0  0  0
  3  4  1  0  0  0
  3  6  1  0  0  0
  3 30  1  0  0  0
  4  5  1  0  0  0
  4 31  1  0  0  0
  4 32  1  0  0  0
  5 33  1  0  0  0
  5 34  1  0  0  0
  5 35  1  0  0  0
  6  7  1  0  0  0
  6 36  1  0  0  0
  7  8  2  0  0  0
  7 17  1  0  0  0
  8  9  1  0  0  0
  9 10  1  0  0  0
  9 15  2  0  0  0
 10 11  1  0  0  0
 10 14  1  0  0  0
 11 12  1  0  0  0
 11 13  1  0  0  0
 11 37  1  0  0  0
 12 38  1  0  0  0
 12 39  1  0  0  0
 12 40  1  0  0  0
 13 41  1  0  0  0
 13 42  1  0  0  0
 13 43  1  0  0  0
 14 16  2  0  0  0
 14 44  1  0  0  0
 15 16  1  0  0  0
 15 18  1  0  0  0
 17 18  2  0  0  0
 18 19  1  0  0  0
 19 20  1  0  0  0
 19 45  1  0  0  0
 20 21  1  0  0  0
 20 46  1  0  0  0
 20 47  1  0  0  0
 21 22  2  0  0  0
 21 26  1  0  0  0
 22 23  1  0  0  0
 22 48  1  0  0  0
 23 24  2  0  0  0
 23 49  1  0  0  0
 24 25  1  0  0  0
 24 50  1  0  0  0
 25 26  2  0  0  0
 25 51  1  0  0  0
 26 52  1  0  0  0
M  END
> <s_m_source_file>
../2a4l_ligand.sdf

> <i_m_source_file_index>
1

> <s_epik_input>
W09IXVtDSDJdW0NAQEhdKFtDSDJdW0NIM10pW05IXWMobjEpbmMoYyhjMTIpbltjSF1uMltDSF0oW0NIM10pW0NIM10pW05IXVtDSDJdYzNbY0hdW2NIXVtjSF1bY0hdW2NIXTM=

> <s_epik_cmdline>
J2VwaWtfYXBwJywgJy1pbWFlJywgJ2xpZ2FuZF9wcm8ubWFlJywgJy1vbWFlJywgJ2xpZ2FuZF9wcmVwLm1hZScsICctbXMnLCAnMScsICctcGgnLCAnNycsICctcGh0JywgJzAuNScsICctbnQn

> <r_epik_Ionization_Penalty>
  0.0222

> <r_epik_Ionization_Penalty_Charging>
  0.0000

> <r_epik_Ionization_Penalty_Neutral>
  0.0222

> <r_epik_State_Penalty>
  0.0128

> <r_epik_Charging_Adjusted_Penalty>
0.0128024195703568

> <i_epik_Tot_Q>
0

> <i_epik_Tot_abs_Q>
0

$$$$
