2a4m_ligand
                    3D
 Schrodinger Suite 2020-3.
 27 28  0  0  1  0            999 V2000
   49.4880   14.8270   20.1100 N   0  3  0  0  0  0
   49.9380   13.4530   20.2700 C   0  0  2  0  0  0
   49.5240   12.6060   19.0680 C   0  0  0  0  0  0
   49.3770   13.1450   17.9550 O   0  0  0  0  0  0
   49.3420   12.8360   21.5570 C   0  0  0  0  0  0
   49.6470   11.3910   21.7860 C   0  0  0  0  0  0
   50.8910   10.8190   21.8960 C   0  0  0  0  0  0
   48.7050   10.3210   21.9340 C   0  0  0  0  0  0
   50.7810    9.4710   22.0810 N   0  3  0  0  0  0
   49.4530    9.1340   22.1260 C   0  0  0  0  0  0
   47.3060   10.2410   21.9050 C   0  0  0  0  0  0
   48.8360    7.8720   22.2650 C   0  0  0  0  0  0
   46.7100    8.9900   22.0530 C   0  0  0  0  0  0
   47.4680    7.8360   22.2390 C   0  0  0  0  0  0
   49.3770   11.3690   19.2460 O   0  5  0  0  0  0
   49.9206   15.2498   19.1913 H   0  0  0  0  0  0
   49.8128   15.4224   20.9760 H   0  0  0  0  0  0
   48.3903   14.8477   20.0417 H   0  0  0  0  0  0
   51.0345   13.5206   20.3263 H   0  0  0  0  0  0
   49.7282   13.3749   22.4348 H   0  0  0  0  0  0
   48.2454   12.9184   21.5294 H   0  0  0  0  0  0
   51.7924   11.4461   21.8307 H   0  0  0  0  0  0
   46.6986   11.1360   21.7699 H   0  0  0  0  0  0
   49.4250    6.9632   22.3880 H   0  0  0  0  0  0
   45.6232    8.9125   22.0225 H   0  0  0  0  0  0
   46.9590    6.8807   22.3670 H   0  0  0  0  0  0
   51.6862    8.8520   22.1669 H   0  0  0  0  0  0
  1  2  1  0  0  0
  1 16  1  0  0  0
  1 17  1  0  0  0
  1 18  1  0  0  0
  2  3  1  0  0  0
  2  5  1  0  0  0
  2 19  1  0  0  0
  3  4  2  0  0  0
  3 15  1  0  0  0
  5  6  1  0  0  0
  5 20  1  0  0  0
  5 21  1  0  0  0
  6  7  2  0  0  0
  6  8  1  0  0  0
  7  9  1  0  0  0
  7 22  1  0  0  0
  8 10  2  0  0  0
  8 11  1  0  0  0
  9 10  1  0  0  0
  9 27  1  0  0  0
 10 12  1  0  0  0
 11 13  2  0  0  0
 11 23  1  0  0  0
 12 14  2  0  0  0
 12 24  1  0  0  0
 13 14  1  0  0  0
 13 25  1  0  0  0
 14 26  1  0  0  0
M  CHG  3   1   1   9   1  15  -1
M  END
> <s_m_source_file>
../2a4m_ligand.sdf

> <i_m_source_file_index>
1

> <s_epik_input>
Tz1DKFtPSF0pW0NAQEhdKFtOSDMrXSlbQ0gyXWMxW2NIXVtuSF1jKGMxMilbY0hdW2NIXVtjSF1bY0hdMg==

> <s_epik_cmdline>
J2VwaWtfYXBwJywgJy1pbWFlJywgJ2xpZ2FuZF9wcm8ubWFlJywgJy1vbWFlJywgJ2xpZ2FuZF9wcmVwLm1hZScsICctbXMnLCAnMScsICctcGgnLCAnNycsICctcGh0JywgJzAuNScsICctbnQn

> <r_lp_tautomer_probability>
1

> <r_epik_Ionization_Penalty>
  0.0030

> <r_epik_Ionization_Penalty_Charging>
  0.0030

> <r_epik_Ionization_Penalty_Neutral>
  0.0000

> <r_epik_State_Penalty>
 -0.0000

> <r_epik_Charging_Adjusted_Penalty>
0.00304110655313935

> <i_epik_Tot_Q>
1

> <i_epik_Tot_abs_Q>
3

$$$$
