2a4q_ligand
                    3D
 Schrodinger Suite 2020-3.
110113  0  0  1  0            999 V2000
  192.9860  -10.8280   49.0130 C   0  0  0  0  0  0
  193.7240  -11.4620   49.7830 O   0  0  0  0  0  0
  191.5090  -11.2000   48.8630 C   0  0  0  0  0  0
  190.5580  -10.0970   49.2930 C   0  0  0  0  0  0
  189.7820  -10.5070   50.5340 C   0  0  0  0  0  0
  190.7190  -10.8790   51.6820 C   0  0  0  0  0  0
  190.0190  -10.8260   53.0470 C   0  0  0  0  0  0
  191.0220  -10.9990   54.1960 C   0  0  0  0  0  0
  192.2070  -10.0870   53.9580 C   0  0  0  0  0  0
  193.4090   -9.7890   48.2940 N   0  0  0  0  0  0
  194.8010   -9.3410   48.3130 C   0  0  1  0  0  0
  195.1160   -8.4430   47.0790 C   0  0  0  0  0  0
  196.6030   -8.0670   47.0370 C   0  0  0  0  0  0
  194.7680   -9.1630   45.7660 C   0  0  0  0  0  0
  196.9810   -7.2480   45.8060 C   0  0  0  0  0  0
  195.1120   -8.3570   44.5160 C   0  0  0  0  0  0
  196.5920   -7.9790   44.5160 C   0  0  0  0  0  0
  195.1730   -8.5600   49.5680 C   0  0  0  0  0  0
  194.7560   -7.4090   49.7270 O   0  0  0  0  0  0
  195.9490   -9.1750   50.4580 N   0  0  0  0  0  0
  196.3830   -8.4810   51.6700 C   0  0  1  0  0  0
  196.9300   -9.4680   52.7150 C   0  0  0  0  0  0
  195.8820  -10.3760   53.2880 C   0  0  0  0  0  0
  194.5900   -9.9270   53.4550 C   0  0  0  0  0  0
  196.1560  -11.7150   53.5530 C   0  0  0  0  0  0
  195.1340  -12.5810   53.9630 C   0  0  0  0  0  0
  193.8280  -12.0980   54.1050 C   0  0  0  0  0  0
  193.5710  -10.7580   53.8560 C   0  0  0  0  0  0
  197.4550   -7.4790   51.2490 C   0  0  0  0  0  0
  198.5180   -7.8590   50.7480 O   0  0  0  0  0  0
  197.1500   -6.1960   51.4110 N   0  0  0  0  0  0
  198.0850   -5.1400   51.0290 C   0  0  1  0  0  0
  197.4300   -4.1650   50.0330 C   0  0  0  0  0  0
  196.2500   -4.7390   49.2410 C   0  0  0  0  0  0
  196.2400   -4.3280   47.7790 C   0  0  0  0  0  0
  199.6330   -5.4240   52.9160 O   0  0  0  0  0  0
  198.8470   -4.4360   52.2250 C   0  0  1  0  0  0
  199.5520   -2.5090   51.0500 O   0  0  0  0  0  0
  201.2350   -3.8430   51.6840 N   0  0  0  0  0  0
  201.9030   -4.7740   50.7850 C   0  0  0  0  0  0
  202.7950   -4.1820   49.7130 C   0  0  0  0  0  0
  202.4930   -4.2970   48.5260 O   0  0  0  0  0  0
  199.9440   -3.5270   51.6050 C   0  0  0  0  0  0
  203.8820   -3.5380   50.1400 N   0  0  0  0  0  0
  204.8790   -2.9110   49.2620 C   0  0  2  0  0  0
  204.4660   -2.1550   47.9310 C   0  0  0  0  0  0
  204.2650   -2.6600   46.6090 C   0  0  0  0  0  0
  204.3310   -0.7520   48.0750 C   0  0  0  0  0  0
  203.9560   -1.8410   45.5110 C   0  0  0  0  0  0
  204.0240    0.0860   46.9960 C   0  0  0  0  0  0
  203.8380   -0.4640   45.7140 C   0  0  0  0  0  0
  206.0760   -3.8210   48.9680 C   0  0  0  0  0  0
  205.9150   -4.9370   48.4530 O   0  5  0  0  0  0
  207.2210   -3.4490   49.2560 O   0  0  0  0  0  0
  191.2934  -11.4272   47.8085 H   0  0  0  0  0  0
  191.2887  -12.0831   49.4808 H   0  0  0  0  0  0
  191.1314   -9.1857   49.5183 H   0  0  0  0  0  0
  189.8451   -9.8903   48.4812 H   0  0  0  0  0  0
  189.1452   -9.6717   50.8608 H   0  0  0  0  0  0
  189.1527  -11.3787   50.3016 H   0  0  0  0  0  0
  191.0948  -11.9019   51.5318 H   0  0  0  0  0  0
  191.5657  -10.1772   51.7063 H   0  0  0  0  0  0
  189.5172   -9.8542   53.1642 H   0  0  0  0  0  0
  189.2741  -11.6330   53.1087 H   0  0  0  0  0  0
  190.5376  -10.7367   55.1481 H   0  0  0  0  0  0
  191.3606  -12.0449   54.2328 H   0  0  0  0  0  0
  192.0675   -9.5440   53.0116 H   0  0  0  0  0  0
  192.2874   -9.3667   54.7855 H   0  0  0  0  0  0
  192.6705   -9.2632   47.6710 H   0  0  0  0  0  0
  195.3477  -10.2955   48.3114 H   0  0  0  0  0  0
  194.5099   -7.5294   47.1680 H   0  0  0  0  0  0
  196.8550   -7.4683   47.9247 H   0  0  0  0  0  0
  197.2126   -8.9826   47.0271 H   0  0  0  0  0  0
  195.3242  -10.1103   45.7088 H   0  0  0  0  0  0
  193.6880   -9.3695   45.7362 H   0  0  0  0  0  0
  196.4573   -6.2811   45.8340 H   0  0  0  0  0  0
  198.0675   -7.0765   45.7992 H   0  0  0  0  0  0
  194.8962   -8.9588   43.6208 H   0  0  0  0  0  0
  194.5078   -7.4380   44.4944 H   0  0  0  0  0  0
  196.7861   -7.3265   43.6520 H   0  0  0  0  0  0
  197.1878   -8.8989   44.4219 H   0  0  0  0  0  0
  196.2637  -10.2132   50.2761 H   0  0  0  0  0  0
  195.5064   -7.9787   52.1050 H   0  0  0  0  0  0
  197.6986  -10.1040   52.2516 H   0  0  0  0  0  0
  197.3731   -8.9080   53.5517 H   0  0  0  0  0  0
  194.3684   -8.8772   53.2626 H   0  0  0  0  0  0
  197.1725  -12.0921   53.4407 H   0  0  0  0  0  0
  195.3552  -13.6279   54.1708 H   0  0  0  0  0  0
  193.0225  -12.7670   54.4077 H   0  0  0  0  0  0
  196.1721   -5.9353   51.8419 H   0  0  0  0  0  0
  198.8514   -5.7166   50.4903 H   0  0  0  0  0  0
  197.0468   -3.2885   50.5761 H   0  0  0  0  0  0
  198.1764   -3.8403   49.2930 H   0  0  0  0  0  0
  196.2872   -5.8379   49.2724 H   0  0  0  0  0  0
  195.3060   -4.3912   49.6858 H   0  0  0  0  0  0
  195.3689   -4.7757   47.2782 H   0  0  0  0  0  0
  197.1625   -4.6787   47.2932 H   0  0  0  0  0  0
  196.1813   -3.2320   47.7067 H   0  0  0  0  0  0
  199.1354   -6.2325   53.4716 H   0  0  0  0  0  0
  198.1506   -3.9496   52.9239 H   0  0  0  0  0  0
  201.8023   -3.3529   52.4890 H   0  0  0  0  0  0
  202.5504   -5.4458   51.3677 H   0  0  0  0  0  0
  201.1499   -5.3673   50.2457 H   0  0  0  0  0  0
  204.0060   -3.4944   51.2321 H   0  0  0  0  0  0
  205.0917   -2.1311   50.0080 H   0  0  0  0  0  0
  204.3561   -3.7338   46.4451 H   0  0  0  0  0  0
  204.4711   -0.3091   49.0610 H   0  0  0  0  0  0
  203.8111   -2.2712   44.5200 H   0  0  0  0  0  0
  203.9294    1.1611   47.1485 H   0  0  0  0  0  0
  203.6003    0.1887   44.8740 H   0  0  0  0  0  0
  1  2  2  0  0  0
  1  3  1  0  0  0
  1 10  1  0  0  0
  3  4  1  0  0  0
  3 55  1  0  0  0
  3 56  1  0  0  0
  4  5  1  0  0  0
  4 57  1  0  0  0
  4 58  1  0  0  0
  5  6  1  0  0  0
  5 59  1  0  0  0
  5 60  1  0  0  0
  6  7  1  0  0  0
  6 61  1  0  0  0
  6 62  1  0  0  0
  7  8  1  0  0  0
  7 63  1  0  0  0
  7 64  1  0  0  0
  8  9  1  0  0  0
  8 65  1  0  0  0
  8 66  1  0  0  0
  9 28  1  0  0  0
  9 67  1  0  0  0
  9 68  1  0  0  0
 10 11  1  0  0  0
 10 69  1  0  0  0
 11 12  1  0  0  0
 11 18  1  0  0  0
 11 70  1  0  0  0
 12 13  1  0  0  0
 12 14  1  0  0  0
 12 71  1  0  0  0
 13 15  1  0  0  0
 13 72  1  0  0  0
 13 73  1  0  0  0
 14 16  1  0  0  0
 14 74  1  0  0  0
 14 75  1  0  0  0
 15 17  1  0  0  0
 15 76  1  0  0  0
 15 77  1  0  0  0
 16 17  1  0  0  0
 16 78  1  0  0  0
 16 79  1  0  0  0
 17 80  1  0  0  0
 17 81  1  0  0  0
 18 19  2  0  0  0
 18 20  1  0  0  0
 20 21  1  0  0  0
 20 82  1  0  0  0
 21 22  1  0  0  0
 21 29  1  0  0  0
 21 83  1  0  0  0
 22 23  1  0  0  0
 22 84  1  0  0  0
 22 85  1  0  0  0
 23 24  2  0  0  0
 23 25  1  0  0  0
 24 28  1  0  0  0
 24 86  1  0  0  0
 25 26  2  0  0  0
 25 87  1  0  0  0
 26 27  1  0  0  0
 26 88  1  0  0  0
 27 28  2  0  0  0
 27 89  1  0  0  0
 29 30  2  0  0  0
 29 31  1  0  0  0
 31 32  1  0  0  0
 31 90  1  0  0  0
 32 33  1  0  0  0
 32 37  1  0  0  0
 32 91  1  0  0  0
 33 34  1  0  0  0
 33 92  1  0  0  0
 33 93  1  0  0  0
 34 35  1  0  0  0
 34 94  1  0  0  0
 34 95  1  0  0  0
 35 96  1  0  0  0
 35 97  1  0  0  0
 35 98  1  0  0  0
 36 37  1  0  0  0
 36 99  1  0  0  0
 37 43  1  0  0  0
 37100  1  0  0  0
 38 43  2  0  0  0
 39 40  1  0  0  0
 39 43  1  0  0  0
 39101  1  0  0  0
 40 41  1  0  0  0
 40102  1  0  0  0
 40103  1  0  0  0
 41 42  2  0  0  0
 41 44  1  0  0  0
 44 45  1  0  0  0
 44104  1  0  0  0
 45 46  1  0  0  0
 45 52  1  0  0  0
 45105  1  0  0  0
 46 47  2  0  0  0
 46 48  1  0  0  0
 47 49  1  0  0  0
 47106  1  0  0  0
 48 50  2  0  0  0
 48107  1  0  0  0
 49 51  2  0  0  0
 49108  1  0  0  0
 50 51  1  0  0  0
 50109  1  0  0  0
 51110  1  0  0  0
 52 53  1  0  0  0
 52 54  2  0  0  0
M  CHG  1  53  -1
M  END
> <s_m_source_file>
../2a4q_ligand.sdf

> <i_m_source_file_index>
1

> <s_epik_input>
W2NIXTFbY0hdW2NIXWMoW2NIXWMxMilbQ0gyXVtDSDJdW0NIMl1bQ0gyXVtDSDJdW0NIMl1bQ0gyXUMoPU8pW05IXVtDQEBIXShbQ0hdM1tDSDJdW0NIMl1bQ0gyXVtDSDJdW0NIMl0zKUMoPU8pW05IXVtDQEBIXShbQ0gyXTIpQyg9TylbTkhdW0NAQEhdKFtDSDJdW0NIMl1bQ0gzXSlbQ0BASF0oW09IXSlDKD1PKVtOSF1bQ0gyXUMoPU8pW05IXVtDQEBIXShDKD1PKVtPSF0pYzRbY0hdW2NIXVtjSF1bY0hdW2NIXTQ=

> <s_epik_cmdline>
J2VwaWtfYXBwJywgJy1pbWFlJywgJ2xpZ2FuZF9wcm8ubWFlJywgJy1vbWFlJywgJ2xpZ2FuZF9wcmVwLm1hZScsICctbXMnLCAnMScsICctcGgnLCAnNycsICctcGh0JywgJzAuNScsICctbnQn

> <r_lp_tautomer_probability>
1

> <r_epik_Ionization_Penalty>
  0.0001

> <r_epik_Ionization_Penalty_Charging>
  0.0001

> <r_epik_Ionization_Penalty_Neutral>
  0.0000

> <r_epik_State_Penalty>
 -0.0000

> <r_epik_Charging_Adjusted_Penalty>
7.78993072182295e-05

> <i_epik_Tot_Q>
-1

> <i_epik_Tot_abs_Q>
1

$$$$
