2a4r_ligand
                    3D
 Schrodinger Suite 2020-3.
102105  0  0  1  0            999 V2000
  191.1800  -10.6150   48.8780 C   0  0  0  0  0  0
  191.7780  -11.4990   49.5040 O   0  0  0  0  0  0
  189.9130  -10.5240   48.9240 O   0  0  0  0  0  0
  189.0440  -11.3980   49.6700 C   0  0  0  0  0  0
  187.9290  -10.8220   50.5490 C   0  0  0  0  0  0
  188.2740  -10.9430   52.0270 C   0  0  0  0  0  0
  187.6520   -9.3870   50.1940 C   0  0  0  0  0  0
  191.8070   -9.7090   48.1290 N   0  0  0  0  0  0
  193.2600   -9.5430   48.1500 C   0  0  1  0  0  0
  193.7410   -8.7540   46.9380 C   0  0  0  0  0  0
  195.2600   -8.5800   46.9690 C   0  0  0  0  0  0
  193.3560   -9.4530   45.6390 C   0  0  0  0  0  0
  195.7980   -7.8450   45.7550 C   0  0  0  0  0  0
  193.8530   -8.7160   44.4110 C   0  0  0  0  0  0
  195.3700   -8.5420   44.4680 C   0  0  0  0  0  0
  193.7160   -8.7810   49.3820 C   0  0  0  0  0  0
  193.2930   -7.6440   49.5990 O   0  0  0  0  0  0
  194.5990   -9.3990   50.1580 N   0  0  0  0  0  0
  195.1270   -8.7780   51.3690 C   0  0  2  0  0  0
  196.1830   -7.7450   51.0020 C   0  0  0  0  0  0
  197.1620   -8.0600   50.3170 O   0  0  0  0  0  0
  195.7430   -9.8290   52.2870 C   0  0  0  0  0  0
  194.6820  -10.8400   52.6830 C   0  0  0  0  0  0
  193.5660  -10.3740   53.6150 C   0  0  0  0  0  0
  194.6770  -11.3080   54.1340 C   0  0  0  0  0  0
  195.9770   -6.5110   51.4540 N   0  0  0  0  0  0
  196.9070   -5.4190   51.1700 C   0  0  1  0  0  0
  196.1980   -4.3240   50.3540 C   0  0  0  0  0  0
  195.9260   -4.7740   48.8890 C   0  0  0  0  0  0
  195.1560   -3.8690   47.9210 C   0  0  0  0  0  0
  194.4930   -5.1470   48.4640 C   0  0  0  0  0  0
  198.0060   -5.8700   53.2870 O   0  0  0  0  0  0
  197.5670   -4.8280   52.4310 C   0  0  1  0  0  0
  198.6990   -2.9110   51.5300 O   0  0  0  0  0  0
  199.9360   -4.7280   51.9770 N   0  0  0  0  0  0
  201.2120   -4.1190   51.6670 C   0  0  0  0  0  0
  201.5520   -4.0790   50.1970 C   0  0  0  0  0  0
  200.7180   -4.3280   49.3220 O   0  0  0  0  0  0
  198.7860   -4.0700   51.9370 C   0  0  0  0  0  0
  202.8030   -3.7200   49.9390 N   0  0  0  0  0  0
  203.3580   -3.6350   48.5990 C   0  0  1  0  0  0
  203.0040   -2.4400   47.7450 C   0  0  0  0  0  0
  203.0240   -1.1470   48.2860 C   0  0  0  0  0  0
  202.7010   -2.6440   46.4010 C   0  0  0  0  0  0
  202.7470   -0.0660   47.5050 C   0  0  0  0  0  0
  202.4220   -1.5460   45.6150 C   0  0  0  0  0  0
  202.4470   -0.2640   46.1600 C   0  0  0  0  0  0
  204.8800   -3.6940   48.7580 C   0  0  0  0  0  0
  205.4190   -3.3480   49.8220 O   0  5  0  0  0  0
  205.5960   -4.0890   47.8330 O   0  0  0  0  0  0
  188.5106  -12.0643   48.9761 H   0  0  0  0  0  0
  189.6423  -12.0002   50.3696 H   0  0  0  0  0  0
  187.0097  -11.3955   50.3594 H   0  0  0  0  0  0
  188.4739  -11.9966   52.2718 H   0  0  0  0  0  0
  187.4298  -10.5799   52.6315 H   0  0  0  0  0  0
  189.1676  -10.3399   52.2455 H   0  0  0  0  0  0
  187.4045   -9.3150   49.1246 H   0  0  0  0  0  0
  188.5434   -8.7783   50.4059 H   0  0  0  0  0  0
  186.8055   -9.0182   50.7919 H   0  0  0  0  0  0
  191.1901   -9.0724   47.4777 H   0  0  0  0  0  0
  193.6440  -10.5738   48.1507 H   0  0  0  0  0  0
  193.2518   -7.7697   46.9800 H   0  0  0  0  0  0
  195.5449   -8.0037   47.8616 H   0  0  0  0  0  0
  195.7417   -9.5684   47.0015 H   0  0  0  0  0  0
  193.7891  -10.4640   45.6244 H   0  0  0  0  0  0
  192.2603   -9.5225   45.5708 H   0  0  0  0  0  0
  195.4095   -6.8159   45.7475 H   0  0  0  0  0  0
  196.8969   -7.8218   45.7976 H   0  0  0  0  0  0
  193.5930   -9.2894   43.5090 H   0  0  0  0  0  0
  193.3813   -7.7234   44.3631 H   0  0  0  0  0  0
  195.6867   -7.9410   43.6028 H   0  0  0  0  0  0
  195.8390   -9.5356   44.4157 H   0  0  0  0  0  0
  194.9317  -10.4061   49.8664 H   0  0  0  0  0  0
  194.2693   -8.2989   51.8638 H   0  0  0  0  0  0
  196.5602  -10.3428   51.7596 H   0  0  0  0  0  0
  196.1390   -9.3407   53.1896 H   0  0  0  0  0  0
  194.7116  -11.3379   51.7026 H   0  0  0  0  0  0
  193.5793   -9.2762   53.6827 H   0  0  0  0  0  0
  192.5949  -10.7051   53.2184 H   0  0  0  0  0  0
  194.6173  -12.4059   54.1649 H   0  0  0  0  0  0
  195.6018  -10.9770   54.6292 H   0  0  0  0  0  0
  195.0764   -6.3236   52.0572 H   0  0  0  0  0  0
  197.7003   -5.9003   50.5793 H   0  0  0  0  0  0
  195.2333   -4.0829   50.8244 H   0  0  0  0  0  0
  196.8275   -3.4224   50.3255 H   0  0  0  0  0  0
  196.9060   -5.2724   48.8525 H   0  0  0  0  0  0
  195.0512   -2.8664   48.3612 H   0  0  0  0  0  0
  195.7056   -3.7966   46.9709 H   0  0  0  0  0  0
  194.5023   -6.1264   47.9632 H   0  0  0  0  0  0
  193.8478   -5.1961   49.3535 H   0  0  0  0  0  0
  197.2726   -6.5432   53.7549 H   0  0  0  0  0  0
  196.8822   -4.2276   53.0479 H   0  0  0  0  0  0
  199.8880   -5.7890   52.2634 H   0  0  0  0  0  0
  201.2176   -3.0781   52.0227 H   0  0  0  0  0  0
  202.0167   -4.6806   52.1640 H   0  0  0  0  0  0
  203.4299   -3.4795   50.8103 H   0  0  0  0  0  0
  202.8683   -4.4745   48.0838 H   0  0  0  0  0  0
  203.2631   -1.0055   49.3400 H   0  0  0  0  0  0
  202.6848   -3.6492   45.9799 H   0  0  0  0  0  0
  202.7600    0.9390   47.9267 H   0  0  0  0  0  0
  202.1804   -1.6818   44.5608 H   0  0  0  0  0  0
  202.2289    0.5949   45.5253 H   0  0  0  0  0  0
  1  2  2  0  0  0
  1  3  1  0  0  0
  1  8  1  0  0  0
  3  4  1  0  0  0
  4  5  1  0  0  0
  4 51  1  0  0  0
  4 52  1  0  0  0
  5  6  1  0  0  0
  5  7  1  0  0  0
  5 53  1  0  0  0
  6 54  1  0  0  0
  6 55  1  0  0  0
  6 56  1  0  0  0
  7 57  1  0  0  0
  7 58  1  0  0  0
  7 59  1  0  0  0
  8  9  1  0  0  0
  8 60  1  0  0  0
  9 10  1  0  0  0
  9 16  1  0  0  0
  9 61  1  0  0  0
 10 11  1  0  0  0
 10 12  1  0  0  0
 10 62  1  0  0  0
 11 13  1  0  0  0
 11 63  1  0  0  0
 11 64  1  0  0  0
 12 14  1  0  0  0
 12 65  1  0  0  0
 12 66  1  0  0  0
 13 15  1  0  0  0
 13 67  1  0  0  0
 13 68  1  0  0  0
 14 15  1  0  0  0
 14 69  1  0  0  0
 14 70  1  0  0  0
 15 71  1  0  0  0
 15 72  1  0  0  0
 16 17  2  0  0  0
 16 18  1  0  0  0
 18 19  1  0  0  0
 18 73  1  0  0  0
 19 20  1  0  0  0
 19 22  1  0  0  0
 19 74  1  0  0  0
 20 21  2  0  0  0
 20 26  1  0  0  0
 22 23  1  0  0  0
 22 75  1  0  0  0
 22 76  1  0  0  0
 23 24  1  0  0  0
 23 25  1  0  0  0
 23 77  1  0  0  0
 24 25  1  0  0  0
 24 78  1  0  0  0
 24 79  1  0  0  0
 25 80  1  0  0  0
 25 81  1  0  0  0
 26 27  1  0  0  0
 26 82  1  0  0  0
 27 28  1  0  0  0
 27 33  1  0  0  0
 27 83  1  0  0  0
 28 29  1  0  0  0
 28 84  1  0  0  0
 28 85  1  0  0  0
 29 30  1  0  0  0
 29 31  1  0  0  0
 29 86  1  0  0  0
 30 31  1  0  0  0
 30 87  1  0  0  0
 30 88  1  0  0  0
 31 89  1  0  0  0
 31 90  1  0  0  0
 32 33  1  0  0  0
 32 91  1  0  0  0
 33 39  1  0  0  0
 33 92  1  0  0  0
 34 39  2  0  0  0
 35 36  1  0  0  0
 35 39  1  0  0  0
 35 93  1  0  0  0
 36 37  1  0  0  0
 36 94  1  0  0  0
 36 95  1  0  0  0
 37 38  2  0  0  0
 37 40  1  0  0  0
 40 41  1  0  0  0
 40 96  1  0  0  0
 41 42  1  0  0  0
 41 48  1  0  0  0
 41 97  1  0  0  0
 42 43  2  0  0  0
 42 44  1  0  0  0
 43 45  1  0  0  0
 43 98  1  0  0  0
 44 46  2  0  0  0
 44 99  1  0  0  0
 45 47  2  0  0  0
 45100  1  0  0  0
 46 47  1  0  0  0
 46101  1  0  0  0
 47102  1  0  0  0
 48 49  1  0  0  0
 48 50  2  0  0  0
M  CHG  1  49  -1
M  END
> <s_m_source_file>
../2a4r_ligand.sdf

> <i_m_source_file_index>
1

> <s_epik_input>
W0NIM11bQ0hdKFtDSDNdKVtDSDJdT0MoPU8pW05IXVtDQEBIXShbQ0hdMVtDSDJdW0NIMl1bQ0gyXVtDSDJdW0NIMl0xKUMoPU8pW05IXVtDQEBIXShbQ0gyXVtDSF0yW0NIMl1bQ0gyXTIpQyg9TylbTkhdW0NAQEhdKFtDSDJdW0NIXTNbQ0gyXVtDSDJdMylbQ0BASF0oW09IXSlDKD1PKVtOSF1bQ0gyXUMoPU8pW05IXVtDQEhdKEMoPU8pW09IXSljNFtjSF1bY0hdW2NIXVtjSF1bY0hdNA==

> <s_epik_cmdline>
J2VwaWtfYXBwJywgJy1pbWFlJywgJ2xpZ2FuZF9wcm8ubWFlJywgJy1vbWFlJywgJ2xpZ2FuZF9wcmVwLm1hZScsICctbXMnLCAnMScsICctcGgnLCAnNycsICctcGh0JywgJzAuNScsICctbnQn

> <r_lp_tautomer_probability>
1

> <r_epik_Ionization_Penalty>
  0.0001

> <r_epik_Ionization_Penalty_Charging>
  0.0001

> <r_epik_Ionization_Penalty_Neutral>
  0.0000

> <r_epik_State_Penalty>
 -0.0000

> <r_epik_Charging_Adjusted_Penalty>
7.78993072182295e-05

> <i_epik_Tot_Q>
-1

> <i_epik_Tot_abs_Q>
1

> <s_epik_Chemistry_Notes>
This compound has an ester and may undergo hydrolysis at high or low pH.

$$$$
