2a4w_ligand
                    3D
 Schrodinger Suite 2020-3.
181186  0  0  1  0            999 V2000
   32.5450   -9.3130    5.9490 N   0  0  0  0  0  0
   32.6720  -10.4320    8.1770 C   0  0  2  0  0  0
   32.4850   -9.1840    7.3220 C   0  0  0  0  0  0
   32.2980   -8.0660    7.7560 O   0  0  0  0  0  0
   33.9740   -9.1780    9.8490 N   0  3  0  0  0  0
   32.8860  -10.1320    9.6700 C   0  0  0  0  0  0
   33.8880  -11.2250    7.7610 N   0  3  0  0  0  0
   31.5990   -7.5060   13.0240 N   0  0  0  0  0  0
   33.6230   -8.7490   12.3200 C   0  0  0  0  0  0
   32.7730   -7.5110   12.3580 C   0  0  0  0  0  0
   33.1220   -6.4290   11.7430 O   0  0  0  0  0  0
   36.3840  -12.0170   12.7170 C   0  0  0  0  0  0
   37.1560  -12.5150   11.4940 C   0  0  0  0  0  0
   37.0040  -11.9090   10.3510 C   0  0  0  0  0  0
   36.0880  -10.7430   10.3020 N   0  0  0  0  0  0
   35.4260  -10.3160   11.4130 C   0  0  0  0  0  0
   35.5220  -10.8520   12.5010 N   0  0  0  0  0  0
   34.5960   -9.0500   11.1580 C   0  0  1  0  0  0
   36.4660  -12.6000   13.9210 N   0  0  0  0  0  0
   38.1010  -13.6880   11.6770 C   0  0  0  0  0  0
   37.5590  -12.1100    9.0450 C   0  0  0  0  0  0
   38.3840  -13.0130    8.8760 O   0  0  0  0  0  0
   37.1330  -11.2360    8.0420 N   0  0  0  0  0  0
   37.6380  -11.3470    6.6750 C   0  0  2  0  0  0
   39.0440  -10.7870    6.5280 C   0  0  0  0  0  0
   39.8300  -11.2610    5.7050 O   0  0  0  0  0  0
   36.7160  -10.6810    5.6290 C   0  0  2  0  0  0
   36.3070   -9.2460    5.9430 C   0  0  0  0  0  0
   35.5800  -11.5180    5.4750 O   0  0  0  0  0  0
   36.0960   -8.7810    7.1620 N   0  0  0  0  0  0
   36.0380   -8.2760    5.0140 C   0  0  0  0  0  0
   35.6950   -7.5340    6.9980 C   0  0  0  0  0  0
   35.6600   -7.2350    5.7100 N   0  0  0  0  0  0
   39.3730   -9.7620    7.3260 N   0  0  0  0  0  0
   39.4910   -6.9430    6.3380 C   0  0  2  0  0  0
   39.4100   -5.4550    6.6590 C   0  0  0  0  0  0
   39.8060   -4.5820    5.8770 O   0  0  0  0  0  0
   41.7900   -7.1050    6.8140 O   0  0  0  0  0  0
   40.6840   -9.1310    7.2870 C   0  0  2  0  0  0
   41.4510   -9.5820    8.5200 C   0  0  0  0  0  0
   40.5360   -7.5990    7.2730 C   0  0  2  0  0  0
   39.8250   -7.1250    4.8590 C   0  0  0  0  0  0
   38.8590   -5.1430    7.8350 N   0  0  0  0  0  0
   38.7560   -3.7660    8.2830 C   0  0  2  0  0  0
   39.6930   -3.5280    9.4580 C   0  0  0  0  0  0
   40.2960   -4.4550   10.0090 O   0  0  0  0  0  0
   37.3210   -3.4150    8.7240 C   0  0  2  0  0  0
   37.0690   -4.1440    9.9220 O   0  0  0  0  0  0
   36.2820   -3.7400    7.6690 C   0  0  0  0  0  0
   39.8120   -2.2700    9.8630 N   0  0  0  0  0  0
   39.8040   -2.1140   12.2830 C   0  0  0  0  0  0
   31.4270   -0.8410   12.6430 C   0  0  0  0  0  0
   31.4570    0.2770   13.1440 O   0  0  0  0  0  0
   38.4870   -1.3970   12.2840 C   0  0  0  0  0  0
   40.6190   -1.8910   11.0040 C   0  0  0  0  0  0
   38.3110    0.2500   12.7500 S   0  0  0  0  0  0
   36.6270    0.0950   12.7230 C   0  0  0  0  0  0
   36.2860   -1.2100   12.3520 C   0  0  0  0  0  0
   37.3810   -2.0250   12.0880 N   0  0  0  0  0  0
   32.8390   -2.8510   11.9430 C   0  0  0  0  0  0
   32.7260   -1.5610   12.3740 C   0  0  0  0  0  0
   33.9200   -0.9090   12.5360 N   0  0  0  0  0  0
   34.9380   -1.6430   12.2840 C   0  0  0  0  0  0
   34.5280   -3.2660   11.7740 S   0  0  0  0  0  0
   30.3350   -1.5630   12.4130 N   0  0  0  0  0  0
   29.0170   -1.0160   12.6340 C   0  0  0  0  0  0
   28.6200    0.0520   11.6430 C   0  0  0  0  0  0
   27.5090    0.9370   12.2250 C   0  0  0  0  0  0
   27.0250    2.2690   11.1150 S   0  0  0  0  0  0
   25.6890    3.1040   11.9220 C   0  0  0  0  0  0
   26.2410    1.5070    9.7220 C   0  0  0  0  0  0
   33.2480  -13.2630    1.9150 O   0  0  0  0  0  0
   32.5240  -12.5510    5.3980 O   0  0  0  0  0  0
   33.6750  -10.3330    1.7490 C   0  0  0  0  0  0
   34.2940   -9.0920    1.9310 O   0  0  0  0  0  0
   34.7770  -13.9690    5.8960 O   0  0  0  0  0  0
   33.7700  -11.1660    3.0310 C   0  0  2  0  0  0
   35.1430  -11.5050    3.2240 O   0  0  0  0  0  0
   35.5220  -12.3440    4.3230 C   0  0  2  0  0  0
   34.5720  -13.5550    4.5550 C   0  0  2  0  0  0
   33.0730  -13.2420    4.2950 C   0  0  2  0  0  0
   32.8960  -12.4270    3.0040 C   0  0  2  0  0  0
   34.8150  -15.6830    7.5500 C   0  0  1  0  0  0
   36.0370  -15.7500    8.4810 C   0  0  2  0  0  0
   37.1220  -16.6640    7.8690 C   0  0  1  0  0  0
   37.5170  -16.2480    6.4280 C   0  0  2  0  0  0
   36.6490  -15.2520    5.8880 O   0  0  0  0  0  0
   35.2360  -15.2850    6.1150 C   0  0  2  0  0  0
   35.8450  -16.1540    9.8250 O   0  0  0  0  0  0
   38.2720  -16.5900    8.6840 O   0  0  0  0  0  0
   34.1630  -16.9350    7.5020 O   0  0  0  0  0  0
   34.1130  -16.7750   11.1140 N   0  0  0  0  0  0
   34.8630  -15.7340   10.6280 C   0  0  0  0  0  0
   34.5780  -14.6060   10.9340 O   0  0  0  0  0  0
   38.7370  -18.1330    5.5880 O   0  0  0  0  0  0
   37.5190  -17.4540    5.4760 C   0  0  0  0  0  0
   32.7123  -10.3014    5.4962 H   0  0  0  0  0  0
   32.4255   -8.4274    5.3076 H   0  0  0  0  0  0
   31.7426  -10.9965    8.0110 H   0  0  0  0  0  0
   34.8038   -9.4376    9.1752 H   0  0  0  0  0  0
   33.6153   -8.1647    9.6155 H   0  0  0  0  0  0
   31.9646   -9.7065   10.0942 H   0  0  0  0  0  0
   33.1371  -11.0633   10.1988 H   0  0  0  0  0  0
   33.8110  -11.4816    6.6941 H   0  0  0  0  0  0
   33.9454  -12.1478    8.3569 H   0  0  0  0  0  0
   34.7933  -10.6232    7.9290 H   0  0  0  0  0  0
   31.2668   -8.4074   13.5599 H   0  0  0  0  0  0
   30.9744   -6.6006   13.0309 H   0  0  0  0  0  0
   34.2840   -8.7670   13.1991 H   0  0  0  0  0  0
   32.9759   -9.6385   12.3295 H   0  0  0  0  0  0
   35.2247   -8.1517   11.0692 H   0  0  0  0  0  0
   37.1182  -13.4739   14.0656 H   0  0  0  0  0  0
   35.8811  -12.2046   14.7645 H   0  0  0  0  0  0
   38.0605  -14.0320   12.7210 H   0  0  0  0  0  0
   39.1268  -13.3738   11.4339 H   0  0  0  0  0  0
   37.8007  -14.5085   11.0087 H   0  0  0  0  0  0
   36.4035  -10.4532    8.2970 H   0  0  0  0  0  0
   37.6551  -12.4377    6.5331 H   0  0  0  0  0  0
   37.2202  -10.6260    4.6529 H   0  0  0  0  0  0
   36.0772   -8.2189    3.9162 H   0  0  0  0  0  0
   35.4314   -6.8510    7.8055 H   0  0  0  0  0  0
   38.6089   -9.3996    8.0294 H   0  0  0  0  0  0
   38.5188   -7.4298    6.5050 H   0  0  0  0  0  0
   41.9502   -6.0216    6.7116 H   0  0  0  0  0  0
   41.1899   -9.4600    6.3673 H   0  0  0  0  0  0
   41.5463  -10.6778    8.5120 H   0  0  0  0  0  0
   40.9092   -9.2676    9.4242 H   0  0  0  0  0  0
   42.4524   -9.1268    8.5157 H   0  0  0  0  0  0
   40.2699   -7.3143    8.3016 H   0  0  0  0  0  0
   39.0509   -6.6403    4.2460 H   0  0  0  0  0  0
   39.8625   -8.1983    4.6210 H   0  0  0  0  0  0
   40.8022   -6.6675    4.6448 H   0  0  0  0  0  0
   38.4785   -5.9575    8.4689 H   0  0  0  0  0  0
   39.0529   -3.1736    7.4050 H   0  0  0  0  0  0
   37.2113   -2.3443    8.9511 H   0  0  0  0  0  0
   37.7337   -4.0224   10.7900 H   0  0  0  0  0  0
   36.4961   -3.1670    6.7548 H   0  0  0  0  0  0
   35.2829   -3.4728    8.0437 H   0  0  0  0  0  0
   36.3131   -4.8161    7.4430 H   0  0  0  0  0  0
   39.2675   -1.5014    9.2948 H   0  0  0  0  0  0
   40.4137   -1.7620   13.1282 H   0  0  0  0  0  0
   39.6324   -3.1962   12.3803 H   0  0  0  0  0  0
   41.5294   -2.5079   11.0303 H   0  0  0  0  0  0
   40.8973   -0.8301   10.9201 H   0  0  0  0  0  0
   35.9177    0.8886   12.9581 H   0  0  0  0  0  0
   32.0037   -3.5199   11.7359 H   0  0  0  0  0  0
   30.4483   -2.5945   12.0480 H   0  0  0  0  0  0
   28.2695   -1.8197   12.5612 H   0  0  0  0  0  0
   28.9714   -0.5624   13.6351 H   0  0  0  0  0  0
   29.4930    0.6797   11.4111 H   0  0  0  0  0  0
   28.2537   -0.4218   10.7204 H   0  0  0  0  0  0
   26.6175    0.3237   12.4227 H   0  0  0  0  0  0
   27.8568    1.3919   13.1642 H   0  0  0  0  0  0
   26.0666    3.6210   12.8165 H   0  0  0  0  0  0
   24.9238    2.3712   12.2177 H   0  0  0  0  0  0
   25.2464    3.8387   11.2333 H   0  0  0  0  0  0
   26.9897    0.9511    9.1386 H   0  0  0  0  0  0
   25.7844    2.2821    9.0889 H   0  0  0  0  0  0
   25.4618    0.8145   10.0732 H   0  0  0  0  0  0
   33.1939  -12.8779    0.8861 H   0  0  0  0  0  0
   32.5665  -12.9967    6.4028 H   0  0  0  0  0  0
   32.6152  -10.1806    1.4969 H   0  0  0  0  0  0
   34.1724  -10.8744    0.9307 H   0  0  0  0  0  0
   34.3189   -8.3637    1.1070 H   0  0  0  0  0  0
   33.4555  -10.5690    3.8997 H   0  0  0  0  0  0
   36.5355  -12.7060    4.0957 H   0  0  0  0  0  0
   34.8349  -14.4034    3.9061 H   0  0  0  0  0  0
   32.4756  -14.1640    4.2394 H   0  0  0  0  0  0
   31.8491  -12.1360    2.8331 H   0  0  0  0  0  0
   34.0690  -14.9897    7.9656 H   0  0  0  0  0  0
   36.3135  -14.6985    8.6483 H   0  0  0  0  0  0
   36.7795  -17.7093    7.8794 H   0  0  0  0  0  0
   38.5016  -15.7592    6.4678 H   0  0  0  0  0  0
   34.8377  -15.9957    5.3759 H   0  0  0  0  0  0
   38.2070  -16.8469    9.7516 H   0  0  0  0  0  0
   33.7850  -17.3941    8.4274 H   0  0  0  0  0  0
   34.3657  -17.8099   10.8399 H   0  0  0  0  0  0
   33.2590  -16.5747   11.7777 H   0  0  0  0  0  0
   38.9248  -19.0298    4.9793 H   0  0  0  0  0  0
   36.6948  -18.1323    5.7417 H   0  0  0  0  0  0
   37.3872  -17.1046    4.4413 H   0  0  0  0  0  0
  1  3  1  0  0  0
  1 97  1  0  0  0
  1 98  1  0  0  0
  2  3  1  0  0  0
  2  6  1  0  0  0
  2  7  1  0  0  0
  2 99  1  0  0  0
  3  4  2  0  0  0
  5  6  1  0  0  0
  5 18  1  0  0  0
  5100  1  0  0  0
  5101  1  0  0  0
  6102  1  0  0  0
  6103  1  0  0  0
  7104  1  0  0  0
  7105  1  0  0  0
  7106  1  0  0  0
  8 10  1  0  0  0
  8107  1  0  0  0
  8108  1  0  0  0
  9 10  1  0  0  0
  9 18  1  0  0  0
  9109  1  0  0  0
  9110  1  0  0  0
 10 11  2  0  0  0
 12 13  2  0  0  0
 12 17  1  0  0  0
 12 19  1  0  0  0
 13 14  1  0  0  0
 13 20  1  0  0  0
 14 15  2  0  0  0
 14 21  1  0  0  0
 15 16  1  0  0  0
 16 17  2  0  0  0
 16 18  1  0  0  0
 18111  1  0  0  0
 19112  1  0  0  0
 19113  1  0  0  0
 20114  1  0  0  0
 20115  1  0  0  0
 20116  1  0  0  0
 21 22  2  0  0  0
 21 23  1  0  0  0
 23 24  1  0  0  0
 23117  1  0  0  0
 24 25  1  0  0  0
 24 27  1  0  0  0
 24118  1  0  0  0
 25 26  2  0  0  0
 25 34  1  0  0  0
 27 28  1  0  0  0
 27 29  1  0  0  0
 27119  1  0  0  0
 28 30  2  0  0  0
 28 31  1  0  0  0
 29 79  1  0  0  0
 30 32  1  0  0  0
 31 33  2  0  0  0
 31120  1  0  0  0
 32 33  1  0  0  0
 32121  1  0  0  0
 34 39  1  0  0  0
 34122  1  0  0  0
 35 36  1  0  0  0
 35 41  1  0  0  0
 35 42  1  0  0  0
 35123  1  0  0  0
 36 37  2  0  0  0
 36 43  1  0  0  0
 38 41  1  0  0  0
 38124  1  0  0  0
 39 40  1  0  0  0
 39 41  1  0  0  0
 39125  1  0  0  0
 40126  1  0  0  0
 40127  1  0  0  0
 40128  1  0  0  0
 41129  1  0  0  0
 42130  1  0  0  0
 42131  1  0  0  0
 42132  1  0  0  0
 43 44  1  0  0  0
 43133  1  0  0  0
 44 45  1  0  0  0
 44 47  1  0  0  0
 44134  1  0  0  0
 45 46  2  0  0  0
 45 50  1  0  0  0
 47 48  1  0  0  0
 47 49  1  0  0  0
 47135  1  0  0  0
 48136  1  0  0  0
 49137  1  0  0  0
 49138  1  0  0  0
 49139  1  0  0  0
 50 55  1  0  0  0
 50140  1  0  0  0
 51 54  1  0  0  0
 51 55  1  0  0  0
 51141  1  0  0  0
 51142  1  0  0  0
 52 53  2  0  0  0
 52 61  1  0  0  0
 52 65  1  0  0  0
 54 56  1  0  0  0
 54 59  2  0  0  0
 55143  1  0  0  0
 55144  1  0  0  0
 56 57  1  0  0  0
 57 58  2  0  0  0
 57145  1  0  0  0
 58 59  1  0  0  0
 58 63  1  0  0  0
 60 61  2  0  0  0
 60 64  1  0  0  0
 60146  1  0  0  0
 61 62  1  0  0  0
 62 63  2  0  0  0
 63 64  1  0  0  0
 65 66  1  0  0  0
 65147  1  0  0  0
 66 67  1  0  0  0
 66148  1  0  0  0
 66149  1  0  0  0
 67 68  1  0  0  0
 67150  1  0  0  0
 67151  1  0  0  0
 68 69  1  0  0  0
 68152  1  0  0  0
 68153  1  0  0  0
 69 70  1  0  0  0
 69 71  1  0  0  0
 70154  1  0  0  0
 70155  1  0  0  0
 70156  1  0  0  0
 71157  1  0  0  0
 71158  1  0  0  0
 71159  1  0  0  0
 72 82  1  0  0  0
 72160  1  0  0  0
 73 81  1  0  0  0
 73161  1  0  0  0
 74 75  1  0  0  0
 74 77  1  0  0  0
 74162  1  0  0  0
 74163  1  0  0  0
 75164  1  0  0  0
 76 80  1  0  0  0
 76 88  1  0  0  0
 77 78  1  0  0  0
 77 82  1  0  0  0
 77165  1  0  0  0
 78 79  1  0  0  0
 79 80  1  0  0  0
 79166  1  0  0  0
 80 81  1  0  0  0
 80167  1  0  0  0
 81 82  1  0  0  0
 81168  1  0  0  0
 82169  1  0  0  0
 83 84  1  0  0  0
 83 88  1  0  0  0
 83 91  1  0  0  0
 83170  1  0  0  0
 84 85  1  0  0  0
 84 89  1  0  0  0
 84171  1  0  0  0
 85 86  1  0  0  0
 85 90  1  0  0  0
 85172  1  0  0  0
 86 87  1  0  0  0
 86 96  1  0  0  0
 86173  1  0  0  0
 87 88  1  0  0  0
 88174  1  0  0  0
 89 93  1  0  0  0
 90175  1  0  0  0
 91176  1  0  0  0
 92 93  1  0  0  0
 92177  1  0  0  0
 92178  1  0  0  0
 93 94  2  0  0  0
 95 96  1  0  0  0
 95179  1  0  0  0
 96180  1  0  0  0
 96181  1  0  0  0
M  CHG  2   5   1   7   1
M  END
> <s_m_source_file>
../2a4w_ligand.sdf

> <i_m_source_file_index>
1

> <s_epik_input>
W05IMl1DKD1PKU9bQ0BIXShbQ0BASF0xW09IXSlbQ0BIXShbT0hdKVtDQEBIXShbQ0gyXVtPSF0pT1tDQEBIXTFPW0NAQEhdKFtDQEBIXShbT0hdKVtDQEBIXTJbT0hdKVtDQEBIXShPW0NASF0yW0NIMl1bT0hdKU9bQ0BASF0oQzM9TltDSDJdTj1bQ0hdMylbQ0BIXShbTkhdQyg9TyljKGMoW0NIM10pYzRbTkgyXSluYyhuNClbQ0BIXShbQ0gyXUMoPU8pW05IMl0pW05IMitdW0NIMl1bQ0BIXShbTkgzK10pQyg9TylbTkgyXSlDKD1PKVtOSF1bQ0BIXShbQ0gzXSlbQ0BASF0oW09IXSlbQ0BIXShbQ0gzXSlDKD1PKVtOSF1bQ0BASF0oW0NASF0oW09IXSlbQ0gzXSlDKD1PKVtOSF1bQ0gyXVtDSDJdYzVzW2NIXWMobjUpLWMobjYpc1tjSF1jNkMoPU8pW05IXVtDSDJdW0NIMl1bQ0gyXVtTSF0oW0NIM10pW0NIM10=

> <s_epik_cmdline>
J2VwaWtfYXBwJywgJy1pbWFlJywgJ2xpZ2FuZF9wcm8ubWFlJywgJy1vbWFlJywgJ2xpZ2FuZF9wcmVwLm1hZScsICctbXMnLCAnMScsICctcGgnLCAnNycsICctcGh0JywgJzAuNScsICctbnQn

> <s_epik_pKa_notes>
Molecule size exceeds maximum supported for generating protonation states

> <s_epik_Chemistry_Notes>
This compound has an ester and may undergo hydrolysis at high or low pH. This compound has an imine and may undergo hydrolysis. This compound contains an acetal/aminal-like group ( X-CH(R)-Y where X, Y are N, S, or O) that may be acid/base labile, releasing an aldehyde.

$$$$
