2a4z_ligand
                    3D
 Schrodinger Suite 2020-3.
 23 25  0  0  1  0            999 V2000
   40.1700   14.1920   32.5720 C   0  0  0  0  0  0
   41.0860   15.5690   34.2360 C   0  0  0  0  0  0
   45.6620   14.3820   29.9980 C   0  0  0  0  0  0
   45.9180   13.3130   29.2450 C   0  0  0  0  0  0
   44.3290   14.6080   30.5810 C   0  0  0  0  0  0
   44.8870   12.3050   28.9590 C   0  0  0  0  0  0
   47.8010   14.2970   29.6520 C   0  0  0  0  0  0
   43.3350   13.6840   30.3400 C   0  0  0  0  0  0
   43.6510   12.4830   29.4800 C   0  0  0  0  0  0
   39.9420   14.8700   33.7920 N   0  0  0  0  0  0
   42.4680   15.3900   33.1510 S   0  0  0  0  0  0
   41.5320   14.3650   32.0450 C   0  0  0  0  0  0
   41.1010   16.2320   35.2720 O   0  5  0  0  0  0
   39.2970   13.5250   32.0170 O   0  0  0  0  0  0
   46.7600   15.1970   30.1360 O   0  0  0  0  0  0
   47.2110   13.2780   28.8040 O   0  0  0  0  0  0
   48.4290   13.7230   30.7450 F   0  0  0  0  0  0
   41.9390   13.7970   30.8820 C   0  0  0  0  0  0
   48.7360   14.9750   28.9060 F   0  0  0  0  0  0
   44.1320   15.4892   31.1915 H   0  0  0  0  0  0
   45.1127   11.4352   28.3421 H   0  0  0  0  0  0
   42.8716   11.7488   29.2761 H   0  0  0  0  0  0
   41.2013   13.3432   30.2038 H   0  0  0  0  0  0
  1 10  1  0  0  0
  1 12  1  0  0  0
  1 14  2  0  0  0
  2 10  2  0  0  0
  2 11  1  0  0  0
  2 13  1  0  0  0
  3  4  2  0  0  0
  3  5  1  0  0  0
  3 15  1  0  0  0
  4  6  1  0  0  0
  4 16  1  0  0  0
  5  8  2  0  0  0
  5 20  1  0  0  0
  6  9  2  0  0  0
  6 21  1  0  0  0
  7 15  1  0  0  0
  7 16  1  0  0  0
  7 17  1  0  0  0
  7 19  1  0  0  0
  8  9  1  0  0  0
  8 18  1  0  0  0
  9 22  1  0  0  0
 11 12  1  0  0  0
 12 18  2  0  0  0
 18 23  1  0  0  0
M  CHG  1  13  -1
M  END
> <s_m_source_file>
../2a4z_ligand.sdf

> <i_m_source_file_index>
1

> <s_epik_input>
Tz1DMVtOSF1DKD1PKVNDXDE9W0NIXS9jKFtjSF0yKVtjSF1bY0hdYyhjMjMpT0MoTzMpKEYpRg==

> <s_epik_cmdline>
J2VwaWtfYXBwJywgJy1pbWFlJywgJ2xpZ2FuZF9wcm8ubWFlJywgJy1vbWFlJywgJ2xpZ2FuZF9wcmVwLm1hZScsICctbXMnLCAnMScsICctcGgnLCAnNycsICctcGh0JywgJzAuNScsICctbnQn

> <r_epik_Ionization_Penalty>
  0.0721

> <r_epik_Ionization_Penalty_Charging>
  0.0721

> <r_epik_Ionization_Penalty_Neutral>
  0.0000

> <r_epik_State_Penalty>
  0.0633

> <r_epik_Charging_Adjusted_Penalty>
0.135396520478879

> <i_epik_Tot_Q>
-1

> <i_epik_Tot_abs_Q>
1

$$$$
