2a58_ligand
                    3D
 Schrodinger Suite 2020-3.
 48 50  0  0  1  0            999 V2000
   76.1540   45.2280   42.4980 N   0  0  0  0  0  0
   76.0470   44.0100   43.1670 C   0  0  0  0  0  0
   77.0560   43.3740   43.3100 O   0  0  0  0  0  0
   74.7920   43.6730   43.5870 N   0  0  0  0  0  0
   73.5830   44.3830   43.4390 C   0  0  0  0  0  0
   72.5370   43.9460   43.8720 O   0  0  0  0  0  0
   73.7540   45.7120   42.6950 C   0  0  0  0  0  0
   72.6860   46.4790   42.4870 N   0  0  0  0  0  0
   72.8540   47.7060   41.7940 C   0  0  0  0  0  0
   71.6510   48.5030   41.5940 C   0  0  0  0  0  0
   71.8400   49.7080   40.8990 C   0  0  0  0  0  0
   70.6900   50.6690   40.5960 C   0  0  0  0  0  0
   73.1840   50.0970   40.4240 C   0  0  0  0  0  0
   73.3610   51.4400   39.6380 C   0  0  0  0  0  0
   74.3410   49.3710   40.6030 C   0  0  0  0  0  0
   74.1400   48.1270   41.3190 C   0  0  0  0  0  0
   75.2780   47.2440   41.5840 N   0  0  0  0  0  0
   75.0790   46.0690   42.2520 C   0  0  3  0  0  0
   76.5600   47.7730   41.0680 C   0  0  0  0  0  0
   76.9170   47.0860   39.7380 C   0  0  2  0  0  0
   77.3580   45.7210   40.0100 O   0  0  0  0  0  0
   78.1270   47.6410   39.1070 C   0  0  2  0  0  0
   79.2400   47.5820   40.0110 O   0  0  0  0  0  0
   77.9720   49.0720   38.6530 C   0  0  2  0  0  0
   76.9170   49.4020   37.7450 O   0  0  0  0  0  0
   79.3930   49.4260   38.0620 C   0  0  0  0  0  0
   80.1680   49.9960   39.1380 O   0  0  0  0  0  0
   77.1332   45.5701   42.1317 H   0  0  0  0  0  0
   74.6271   42.7271   44.1237 H   0  0  0  0  0  0
   70.6737   48.1862   41.9581 H   0  0  0  0  0  0
   69.7534   50.2598   41.0027 H   0  0  0  0  0  0
   70.5935   50.7936   39.5074 H   0  0  0  0  0  0
   70.8958   51.6449   41.0600 H   0  0  0  0  0  0
   72.3870   51.9431   39.5478 H   0  0  0  0  0  0
   73.7585   51.2279   38.6345 H   0  0  0  0  0  0
   74.0618   52.0922   40.1797 H   0  0  0  0  0  0
   75.3147   49.7007   40.2407 H   0  0  0  0  0  0
   76.4693   48.8566   40.9022 H   0  0  0  0  0  0
   77.3578   47.5797   41.8003 H   0  0  0  0  0  0
   76.0397   47.1694   39.0797 H   0  0  0  0  0  0
   76.6743   45.0083   40.4944 H   0  0  0  0  0  0
   78.3281   46.9889   38.2442 H   0  0  0  0  0  0
   79.5301   46.6227   40.4643 H   0  0  0  0  0  0
   77.5586   49.6648   39.4823 H   0  0  0  0  0  0
   75.8706   49.2099   38.0245 H   0  0  0  0  0  0
   79.8703   48.5108   37.6818 H   0  0  0  0  0  0
   79.2788   50.1484   37.2404 H   0  0  0  0  0  0
   81.2032   50.3214   38.9578 H   0  0  0  0  0  0
  1  2  1  0  0  0
  1 18  1  0  0  0
  1 28  1  0  0  0
  2  3  2  0  0  0
  2  4  1  0  0  0
  4  5  1  0  0  0
  4 29  1  0  0  0
  5  6  2  0  0  0
  5  7  1  0  0  0
  7  8  2  0  0  0
  7 18  1  0  0  0
  8  9  1  0  0  0
  9 10  2  0  0  0
  9 16  1  0  0  0
 10 11  1  0  0  0
 10 30  1  0  0  0
 11 12  1  0  0  0
 11 13  2  0  0  0
 12 31  1  0  0  0
 12 32  1  0  0  0
 12 33  1  0  0  0
 13 14  1  0  0  0
 13 15  1  0  0  0
 14 34  1  0  0  0
 14 35  1  0  0  0
 14 36  1  0  0  0
 15 16  2  0  0  0
 15 37  1  0  0  0
 16 17  1  0  0  0
 17 18  1  0  0  0
 17 19  1  0  0  0
 19 20  1  0  0  0
 19 38  1  0  0  0
 19 39  1  0  0  0
 20 21  1  0  0  0
 20 22  1  0  0  0
 20 40  1  0  0  0
 21 41  1  0  0  0
 22 23  1  0  0  0
 22 24  1  0  0  0
 22 42  1  0  0  0
 23 43  1  0  0  0
 24 25  1  0  0  0
 24 26  1  0  0  0
 24 44  1  0  0  0
 25 45  1  0  0  0
 26 27  1  0  0  0
 26 46  1  0  0  0
 26 47  1  0  0  0
 27 48  1  0  0  0
M  END
> <s_m_source_file>
../2a58_ligand.sdf

> <i_m_source_file_index>
1

> <s_epik_input>
Tz1DMVtOSF1DKD1PKVtOSF1bQ0hdKEMxPTIpTihjM2MoTjIpW2NIXWMoW0NIM10pYyhbQ0gzXSlbY0hdMylbQ0gyXVtDQEhdKFtPSF0pW0NASF0oW09IXSlbQ0BIXShbT0hdKVtDSDJdW09IXQ==

> <s_epik_cmdline>
J2VwaWtfYXBwJywgJy1pbWFlJywgJ2xpZ2FuZF9wcm8ubWFlJywgJy1vbWFlJywgJ2xpZ2FuZF9wcmVwLm1hZScsICctbXMnLCAnMScsICctcGgnLCAnNycsICctcGh0JywgJzAuNScsICctbnQn

> <r_epik_Ionization_Penalty>
  0.0728

> <r_epik_Ionization_Penalty_Charging>
  0.0000

> <r_epik_Ionization_Penalty_Neutral>
  0.0728

> <r_epik_State_Penalty>
  0.0634

> <r_epik_Charging_Adjusted_Penalty>
0.0633951760452824

> <i_epik_Tot_Q>
0

> <i_epik_Tot_abs_Q>
0

> <s_epik_Chemistry_Notes>
This compound has an imine and may undergo hydrolysis.

$$$$
