2a8g_ligand
                    3D
 Schrodinger Suite 2020-3.
 32 34  0  0  1  0            999 V2000
    9.3980    3.5290    0.1720 O   0  0  0  0  0  0
    9.7610    2.1560    0.2790 C   0  0  0  0  0  0
   10.9090    2.1550    1.2640 C   0  0  1  0  0  0
   10.3990    1.8720    2.5630 O   0  0  0  0  0  0
   11.4440    1.2120    3.2680 C   0  0  1  0  0  0
   11.0050    0.6070    4.5510 N   0  0  0  0  0  0
    9.8890    0.9350    5.2250 C   0  0  0  0  0  0
    9.8400    0.1690    6.3250 N   0  0  0  0  0  0
   10.9410   -0.6090    6.3430 C   0  0  0  0  0  0
   11.6880   -0.3360    5.2230 C   0  0  0  0  0  0
   12.8630   -1.0100    5.0090 N   0  0  0  0  0  0
   13.2930   -1.9410    5.9120 C   0  0  0  0  0  0
   12.5570   -2.2150    6.9990 N   0  0  0  0  0  0
   11.4090   -1.5690    7.2070 C   0  0  0  0  0  0
   10.7720   -1.8490    8.2170 O   0  0  0  0  0  0
   14.4390   -2.6400    5.7710 N   0  0  0  0  0  0
   11.9820    0.2230    2.2550 C   0  0  0  0  0  0
   11.9530    1.0830    1.0060 C   0  0  2  0  0  0
   13.2210    1.7220    0.9510 O   0  0  0  0  0  0
    8.5733    3.8298   -0.4909 H   0  0  0  0  0  0
    8.9007    1.5768    0.6455 H   0  0  0  0  0  0
   10.0630    1.7785   -0.7091 H   0  0  0  0  0  0
   11.3630    3.1561    1.2226 H   0  0  0  0  0  0
   12.1880    1.9465    3.6101 H   0  0  0  0  0  0
    9.1568    1.6870    4.9309 H   0  0  0  0  0  0
   12.9002   -2.9725    7.7190 H   0  0  0  0  0  0
   15.0880   -2.4625    4.9008 H   0  0  0  0  0  0
   14.7240   -3.3872    6.5263 H   0  0  0  0  0  0
   12.9911   -0.0963    2.5545 H   0  0  0  0  0  0
   11.3185   -0.6532    2.2099 H   0  0  0  0  0  0
   11.7895    0.5330    0.0675 H   0  0  0  0  0  0
   13.4547    2.4103    0.1254 H   0  0  0  0  0  0
  1  2  1  0  0  0
  1 20  1  0  0  0
  2  3  1  0  0  0
  2 21  1  0  0  0
  2 22  1  0  0  0
  3  4  1  0  0  0
  3 18  1  0  0  0
  3 23  1  0  0  0
  4  5  1  0  0  0
  5  6  1  0  0  0
  5 17  1  0  0  0
  5 24  1  0  0  0
  6  7  1  0  0  0
  6 10  1  0  0  0
  7  8  2  0  0  0
  7 25  1  0  0  0
  8  9  1  0  0  0
  9 10  2  0  0  0
  9 14  1  0  0  0
 10 11  1  0  0  0
 11 12  2  0  0  0
 12 13  1  0  0  0
 12 16  1  0  0  0
 13 14  1  0  0  0
 13 26  1  0  0  0
 14 15  2  0  0  0
 16 27  1  0  0  0
 16 28  1  0  0  0
 17 18  1  0  0  0
 17 29  1  0  0  0
 17 30  1  0  0  0
 18 19  1  0  0  0
 18 31  1  0  0  0
 19 32  1  0  0  0
M  END
> <s_m_source_file>
../2a8g_ligand.sdf

> <i_m_source_file_index>
1

> <s_epik_input>
W09IXVtDSDJdW0NASF0xT1tDQEhdKFtDSDJdW0NAQEhdMVtPSF0pbihbY0hdbjIpYyhjMjMpbmMoW05IMl0pW25IXWMzPU8=

> <s_epik_cmdline>
J2VwaWtfYXBwJywgJy1pbWFlJywgJ2xpZ2FuZF9wcm8ubWFlJywgJy1vbWFlJywgJ2xpZ2FuZF9wcmVwLm1hZScsICctbXMnLCAnMScsICctcGgnLCAnNycsICctcGh0JywgJzAuNScsICctbnQn

> <r_lp_tautomer_probability>
1

> <r_epik_Ionization_Penalty>
  0.0014

> <r_epik_Ionization_Penalty_Charging>
  0.0013

> <r_epik_Ionization_Penalty_Neutral>
  0.0001

> <r_epik_State_Penalty>
 -0.0000

> <r_epik_Charging_Adjusted_Penalty>
0.00134520778326026

> <i_epik_Tot_Q>
0

> <i_epik_Tot_abs_Q>
0

> <s_epik_Chemistry_Notes>
This compound contains an acetal/aminal-like group ( X-CH(R)-Y where X, Y are N, S, or O) that may be acid/base labile, releasing an aldehyde.

$$$$
