2a8h_ligand
                    3D
 Schrodinger Suite 2020-3.
 51 52  0  0  1  0            999 V2000
   -7.4890   16.2720  113.1280 C   0  0  0  0  0  0
   -6.8460   15.2780  112.1410 C   0  0  0  0  0  0
   -5.6970   14.4770  112.8330 C   0  0  1  0  0  0
   -6.2000   13.7420  114.0690 N   0  0  3  0  0  0
   -7.3080   12.7310  113.8460 C   0  0  0  0  0  0
   -8.5500   13.3940  113.2830 C   0  0  0  0  0  0
   -8.2060   14.1210  111.6640 S   0  0  0  0  0  0
   -5.5790   13.9980  115.6990 S   0  0  0  0  0  0
   -4.7050   15.1530  115.7550 O   0  0  0  0  0  0
   -6.6830   13.8670  116.6320 O   0  0  0  0  0  0
   -4.5050   12.6080  115.9140 C   0  0  0  0  0  0
   -5.0300   11.3420  116.1560 C   0  0  0  0  0  0
   -4.1620   10.2580  116.3230 C   0  0  0  0  0  0
   -2.7790   10.4430  116.2490 C   0  0  0  0  0  0
   -2.2710   11.7260  116.0050 C   0  0  0  0  0  0
   -3.1290   12.8110  115.8370 C   0  0  0  0  0  0
   -1.8260    9.4690  116.3940 O   0  0  0  0  0  0
   -2.0450    8.4320  117.3530 C   0  0  0  0  0  0
   -1.9020    8.9330  118.7250 C   0  0  0  0  0  0
   -1.7850    9.3430  119.8480 C   0  0  0  0  0  0
   -1.6420    9.8410  121.2130 C   0  0  0  0  0  0
   -2.9280    9.6830  121.9370 N   0  3  0  0  0  0
   -5.0490   13.5150  111.8460 C   0  0  0  0  0  0
   -5.6890   12.6970  111.1880 O   0  0  0  0  0  0
   -3.6840   13.6670  111.7770 N   0  0  0  0  0  0
   -3.0190   12.8130  110.8860 O   0  0  0  0  0  0
   -6.4130   16.0430  110.8760 C   0  0  0  0  0  0
   -7.8024   15.7361  114.0361 H   0  0  0  0  0  0
   -8.3661   16.7403  112.6575 H   0  0  0  0  0  0
   -6.7574   17.0489  113.3948 H   0  0  0  0  0  0
   -4.9174   15.1727  113.1770 H   0  0  0  0  0  0
   -6.9668   11.9640  113.1352 H   0  0  0  0  0  0
   -7.5677   12.2546  114.8028 H   0  0  0  0  0  0
   -9.3483   12.6450  113.1746 H   0  0  0  0  0  0
   -8.8833   14.1888  113.9666 H   0  0  0  0  0  0
   -6.1086   11.1964  116.2149 H   0  0  0  0  0  0
   -4.5666    9.2636  116.5119 H   0  0  0  0  0  0
   -1.1931   11.8768  115.9460 H   0  0  0  0  0  0
   -2.7282   13.8068  115.6476 H   0  0  0  0  0  0
   -3.0617    8.0298  117.2324 H   0  0  0  0  0  0
   -1.3114    7.6273  117.1969 H   0  0  0  0  0  0
   -0.8578    9.2698  121.7314 H   0  0  0  0  0  0
   -1.3646   10.9052  121.1879 H   0  0  0  0  0  0
   -2.8185   10.0586  122.9651 H   0  0  0  0  0  0
   -3.2058    8.6190  121.9630 H   0  0  0  0  0  0
   -3.7127   10.2543  121.4195 H   0  0  0  0  0  0
   -3.1131   14.3997  112.3663 H   0  0  0  0  0  0
   -1.9263   12.8756  110.7762 H   0  0  0  0  0  0
   -5.6020   16.7416  111.1296 H   0  0  0  0  0  0
   -7.2698   16.6053  110.4763 H   0  0  0  0  0  0
   -6.0580   15.3284  110.1188 H   0  0  0  0  0  0
  1  2  1  0  0  0
  1 28  1  0  0  0
  1 29  1  0  0  0
  1 30  1  0  0  0
  2  3  1  0  0  0
  2  7  1  0  0  0
  2 27  1  0  0  0
  3  4  1  0  0  0
  3 23  1  0  0  0
  3 31  1  0  0  0
  4  5  1  0  0  0
  4  8  1  0  0  0
  5  6  1  0  0  0
  5 32  1  0  0  0
  5 33  1  0  0  0
  6  7  1  0  0  0
  6 34  1  0  0  0
  6 35  1  0  0  0
  8  9  2  0  0  0
  8 10  2  0  0  0
  8 11  1  0  0  0
 11 12  2  0  0  0
 11 16  1  0  0  0
 12 13  1  0  0  0
 12 36  1  0  0  0
 13 14  2  0  0  0
 13 37  1  0  0  0
 14 15  1  0  0  0
 14 17  1  0  0  0
 15 16  2  0  0  0
 15 38  1  0  0  0
 16 39  1  0  0  0
 17 18  1  0  0  0
 18 19  1  0  0  0
 18 40  1  0  0  0
 18 41  1  0  0  0
 19 20  3  0  0  0
 20 21  1  0  0  0
 21 22  1  0  0  0
 21 42  1  0  0  0
 21 43  1  0  0  0
 22 44  1  0  0  0
 22 45  1  0  0  0
 22 46  1  0  0  0
 23 24  2  0  0  0
 23 25  1  0  0  0
 25 26  1  0  0  0
 25 47  1  0  0  0
 26 48  1  0  0  0
 27 49  1  0  0  0
 27 50  1  0  0  0
 27 51  1  0  0  0
M  CHG  1  22   1
M  END
> <s_m_source_file>
../2a8h_ligand.sdf

> <i_m_source_file_index>
1

> <s_epik_input>
W09IXVtOSF1DKD1PKVtDQEBIXShDMShbQ0gzXSlbQ0gzXSlOKFtDSDJdW0NIMl1TMSlTKD1PKSg9TyljMltjSF1bY0hdYyhbY0hdW2NIXTIpT1tDSDJdQyNDW0NIMl1bTkgzK10=

> <s_epik_cmdline>
J2VwaWtfYXBwJywgJy1pbWFlJywgJ2xpZ2FuZF9wcm8ubWFlJywgJy1vbWFlJywgJ2xpZ2FuZF9wcmVwLm1hZScsICctbXMnLCAnMScsICctcGgnLCAnNycsICctcGh0JywgJzAuNScsICctbnQn

> <r_lp_tautomer_probability>
1

> <r_epik_Ionization_Penalty>
  0.0503

> <r_epik_Ionization_Penalty_Charging>
  0.0262

> <r_epik_Ionization_Penalty_Neutral>
  0.0240

> <r_epik_State_Penalty>
 -0.0000

> <r_epik_Charging_Adjusted_Penalty>
0.0262307590112413

> <i_epik_Tot_Q>
1

> <i_epik_Tot_abs_Q>
1

> <s_epik_Chemistry_Notes>
This compound has a N-S or N-O group and may undergo hydrolysis at high or low pH.

$$$$
