2aa6_ligand
                    3D
 Schrodinger Suite 2020-3.
 53 56  0  0  1  0            999 V2000
   17.5650   50.4360   18.3850 C   0  0  0  0  0  0
   16.5600   50.3360   19.5960 C   0  0  0  0  0  0
   15.5210   49.2270   19.3690 C   0  0  0  0  0  0
   14.4240   49.3330   19.9230 O   0  0  0  0  0  0
   15.8220   48.0460   18.5310 C   0  0  0  0  0  0
   16.9710   47.9160   17.8890 C   0  0  0  0  0  0
   17.2490   46.6230   17.0850 C   0  0  0  0  0  0
   17.9090   46.9360   15.7290 C   0  0  0  0  0  0
   19.1520   47.9250   15.8060 C   0  0  2  0  0  0
   18.6580   49.2660   16.4440 C   0  0  1  0  0  0
   18.1160   49.0410   17.8990 C   0  0  1  0  0  0
   19.8190   50.3550   16.4740 C   0  0  0  0  0  0
   20.3530   50.5540   15.0120 C   0  0  0  0  0  0
   20.9100   49.2090   14.4040 C   0  0  1  0  0  0
   19.6960   48.2120   14.3940 C   0  0  1  0  0  0
   20.2260   47.0120   13.5640 C   0  0  0  0  0  0
   21.0600   47.7320   12.4050 C   0  0  0  0  0  0
   21.2040   49.2340   12.8600 C   0  0  2  0  0  0
   22.1590   48.6790   15.2260 C   0  0  0  0  0  0
   19.2400   48.5020   18.9180 C   0  0  0  0  0  0
   22.5740   49.8490   12.5190 C   0  0  0  0  0  0
   23.4690   49.1410   12.1170 O   0  0  0  0  0  0
   22.7740   51.3250   12.6770 C   0  0  0  0  0  0
   17.0602   50.9045   17.5273 H   0  0  0  0  0  0
   18.4325   51.0458   18.6778 H   0  0  0  0  0  0
   17.1172   50.1103   20.5172 H   0  0  0  0  0  0
   16.0304   51.2930   19.7130 H   0  0  0  0  0  0
   15.0552   47.2614   18.4506 H   0  0  0  0  0  0
   17.9239   45.9718   17.6598 H   0  0  0  0  0  0
   16.3015   46.0961   16.8989 H   0  0  0  0  0  0
   18.2735   46.0029   15.2746 H   0  0  0  0  0  0
   17.1711   47.4050   15.0616 H   0  0  0  0  0  0
   19.9729   47.4853   16.3915 H   0  0  0  0  0  0
   17.8295   49.6211   15.8135 H   0  0  0  0  0  0
   19.4210   51.3047   16.8608 H   0  0  0  0  0  0
   20.6327   50.0056   17.1265 H   0  0  0  0  0  0
   19.5356   50.9115   14.3686 H   0  0  0  0  0  0
   21.1667   51.2942   15.0164 H   0  0  0  0  0  0
   18.7697   48.5903   13.9370 H   0  0  0  0  0  0
   20.8506   46.3711   14.2037 H   0  0  0  0  0  0
   19.3765   46.4289   13.1788 H   0  0  0  0  0  0
   22.0421   47.2469   12.3045 H   0  0  0  0  0  0
   20.5122   47.6511   11.4546 H   0  0  0  0  0  0
   20.5220   49.9013   12.3127 H   0  0  0  0  0  0
   21.9170   48.6755   16.2990 H   0  0  0  0  0  0
   23.0219   49.3373   15.0469 H   0  0  0  0  0  0
   22.4041   47.6568   14.9020 H   0  0  0  0  0  0
   18.7960   48.3662   19.9152 H   0  0  0  0  0  0
   20.0606   49.2320   18.9783 H   0  0  0  0  0  0
   19.6313   47.5395   18.5566 H   0  0  0  0  0  0
   21.8465   51.7826   13.0517 H   0  0  0  0  0  0
   23.0332   51.7662   11.7033 H   0  0  0  0  0  0
   23.5891   51.5101   13.3921 H   0  0  0  0  0  0
  1  2  1  0  0  0
  1 11  1  0  0  0
  1 24  1  0  0  0
  1 25  1  0  0  0
  2  3  1  0  0  0
  2 26  1  0  0  0
  2 27  1  0  0  0
  3  4  2  0  0  0
  3  5  1  0  0  0
  5  6  2  0  0  0
  5 28  1  0  0  0
  6  7  1  0  0  0
  6 11  1  0  0  0
  7  8  1  0  0  0
  7 29  1  0  0  0
  7 30  1  0  0  0
  8  9  1  0  0  0
  8 31  1  0  0  0
  8 32  1  0  0  0
  9 10  1  0  0  0
  9 15  1  0  0  0
  9 33  1  0  0  0
 10 11  1  0  0  0
 10 12  1  0  0  0
 10 34  1  0  0  0
 11 20  1  0  0  0
 12 13  1  0  0  0
 12 35  1  0  0  0
 12 36  1  0  0  0
 13 14  1  0  0  0
 13 37  1  0  0  0
 13 38  1  0  0  0
 14 15  1  0  0  0
 14 18  1  0  0  0
 14 19  1  0  0  0
 15 16  1  0  0  0
 15 39  1  0  0  0
 16 17  1  0  0  0
 16 40  1  0  0  0
 16 41  1  0  0  0
 17 18  1  0  0  0
 17 42  1  0  0  0
 17 43  1  0  0  0
 18 21  1  0  0  0
 18 44  1  0  0  0
 19 45  1  0  0  0
 19 46  1  0  0  0
 19 47  1  0  0  0
 20 48  1  0  0  0
 20 49  1  0  0  0
 20 50  1  0  0  0
 21 22  2  0  0  0
 21 23  1  0  0  0
 23 51  1  0  0  0
 23 52  1  0  0  0
 23 53  1  0  0  0
M  END
> <s_m_source_file>
../2aa6_ligand.sdf

> <i_m_source_file_index>
1

> <s_epik_input>
W0NIMl0xW0NIMl1DKD1PKVtDSF09QyhbQ0BdMTJbQ0gzXSlbQ0gyXVtDSDJdW0NAQEhdM1tDQEBIXTJbQ0gyXVtDSDJdW0NAQF00KFtDSDNdKVtDQEhdM1tDSDJdW0NIMl1bQ0BASF00Qyg9TylbQ0gzXQ==

> <s_epik_cmdline>
J2VwaWtfYXBwJywgJy1pbWFlJywgJ2xpZ2FuZF9wcm8ubWFlJywgJy1vbWFlJywgJ2xpZ2FuZF9wcmVwLm1hZScsICctbXMnLCAnMScsICctcGgnLCAnNycsICctcGh0JywgJzAuNScsICctbnQn

> <r_lp_tautomer_probability>
1

> <r_epik_Ionization_Penalty>
  0.0000

> <r_epik_Ionization_Penalty_Charging>
  0.0000

> <r_epik_Ionization_Penalty_Neutral>
  0.0000

> <r_epik_State_Penalty>
 -0.0000

> <r_epik_Charging_Adjusted_Penalty>
0

> <i_epik_Tot_Q>
0

> <i_epik_Tot_abs_Q>
0

$$$$
