2aa9_ligand
                    3D
 Schrodinger Suite 2020-3.
 21 21  0  0  1  0            999 V2000
   56.6790    8.6380   30.4740 O   0  0  0  0  0  0
   56.6260    9.9260   29.8790 C   0  0  1  0  0  0
   57.9020   10.2560   29.1100 C   0  0  2  0  0  0
   59.0440   10.1580   29.9750 O   0  0  0  0  0  0
   57.7680   11.6890   28.5680 C   0  0  0  0  0  0
   56.5170   12.0620   27.9730 C   0  0  0  0  0  0
   56.3950   13.3500   27.1710 C   0  0  0  0  0  0
   55.4970   13.3990   26.2960 O   0  5  0  0  0  0
   57.1220   14.3070   27.4410 O   0  0  0  0  0  0
   55.3580   11.2710   28.1490 C   0  0  0  0  0  0
   55.4030    9.9800   28.9340 C   0  0  1  0  0  0
   55.4060    8.8830   28.0370 O   0  0  0  0  0  0
   57.4820    8.3931   31.1848 H   0  0  0  0  0  0
   56.5452   10.6154   30.7324 H   0  0  0  0  0  0
   58.0975    9.5229   28.3135 H   0  0  0  0  0  0
   59.2912    9.1986   30.4530 H   0  0  0  0  0  0
   57.9239   12.4068   29.3868 H   0  0  0  0  0  0
   58.5219   11.8568   27.7848 H   0  0  0  0  0  0
   54.4014   11.5919   27.7109 H   0  0  0  0  0  0
   54.4745    9.8699   29.5134 H   0  0  0  0  0  0
   55.4365    7.8545   28.4260 H   0  0  0  0  0  0
  1  2  1  0  0  0
  1 13  1  0  0  0
  2  3  1  0  0  0
  2 11  1  0  0  0
  2 14  1  0  0  0
  3  4  1  0  0  0
  3  5  1  0  0  0
  3 15  1  0  0  0
  4 16  1  0  0  0
  5  6  1  0  0  0
  5 17  1  0  0  0
  5 18  1  0  0  0
  6  7  1  0  0  0
  6 10  2  0  0  0
  7  8  1  0  0  0
  7  9  2  0  0  0
 10 11  1  0  0  0
 10 19  1  0  0  0
 11 12  1  0  0  0
 11 20  1  0  0  0
 12 21  1  0  0  0
M  CHG  1   8  -1
M  END
> <s_m_source_file>
../2aa9_ligand.sdf

> <i_m_source_file_index>
1

> <s_epik_input>
W09IXVtDQEhdMVtDQEhdKFtPSF0pW0NIMl1DKEMoPU8pW09IXSk9W0NIXVtDQEhdMVtPSF0=

> <s_epik_cmdline>
J2VwaWtfYXBwJywgJy1pbWFlJywgJ2xpZ2FuZF9wcm8ubWFlJywgJy1vbWFlJywgJ2xpZ2FuZF9wcmVwLm1hZScsICctbXMnLCAnMScsICctcGgnLCAnNycsICctcGh0JywgJzAuNScsICctbnQn

> <r_lp_tautomer_probability>
1

> <r_epik_Ionization_Penalty>
  0.0015

> <r_epik_Ionization_Penalty_Charging>
  0.0015

> <r_epik_Ionization_Penalty_Neutral>
  0.0000

> <r_epik_State_Penalty>
 -0.0000

> <r_epik_Charging_Adjusted_Penalty>
0.00145913088719701

> <i_epik_Tot_Q>
-1

> <i_epik_Tot_abs_Q>
1

$$$$
