2aac_ligand
                    3D
 Schrodinger Suite 2020-3.
 23 23  0  0  1  0            999 V2000
   39.7740    2.5030   42.5190 C   0  0  2  0  0  0
   39.6580    2.0070   41.0830 C   0  0  1  0  0  0
   38.4640    2.6540   40.3860 C   0  0  2  0  0  0
   37.1990    2.5190   41.2150 C   0  0  2  0  0  0
   37.4570    3.0510   42.6210 C   0  0  1  0  0  0
   36.2440    2.9120   43.5180 C   0  0  0  0  0  0
   40.7570    1.7910   43.1640 O   0  0  0  0  0  0
   40.8410    2.3290   40.3790 O   0  0  0  0  0  0
   38.2750    2.0400   39.1200 O   0  0  0  0  0  0
   36.8240    1.1460   41.2920 O   0  0  0  0  0  0
   38.5500    2.3040   43.2170 O   0  0  0  0  0  0
   40.0440    3.5670   42.5893 H   0  0  0  0  0  0
   39.5794    0.9101   41.0568 H   0  0  0  0  0  0
   38.6621    3.7177   40.1879 H   0  0  0  0  0  0
   36.3560    3.0374   40.7348 H   0  0  0  0  0  0
   37.7398    4.1120   42.5559 H   0  0  0  0  0  0
   35.4017    3.4714   43.0849 H   0  0  0  0  0  0
   36.4772    3.3140   44.5150 H   0  0  0  0  0  0
   35.9724    1.8496   43.6054 H   0  0  0  0  0  0
   40.9905    2.0058   44.2173 H   0  0  0  0  0  0
   41.8115    1.9504   40.7322 H   0  0  0  0  0  0
   39.0903    2.0398   38.3816 H   0  0  0  0  0  0
   36.5964    0.5857   40.3732 H   0  0  0  0  0  0
  1 11  1  0  0  0
  1  7  1  0  0  0
  1  2  1  0  0  0
  1 12  1  0  0  0
  2  8  1  0  0  0
  2  3  1  0  0  0
  2 13  1  0  0  0
  3  9  1  0  0  0
  3  4  1  0  0  0
  3 14  1  0  0  0
  4 10  1  0  0  0
  4  5  1  0  0  0
  4 15  1  0  0  0
  5 11  1  0  0  0
  5  6  1  0  0  0
  5 16  1  0  0  0
  6 17  1  0  0  0
  6 18  1  0  0  0
  6 19  1  0  0  0
  7 20  1  0  0  0
  8 21  1  0  0  0
  9 22  1  0  0  0
 10 23  1  0  0  0
M  END
> <s_m_source_file>
../2aac_ligand.sdf

> <i_m_source_file_index>
1

> <s_epik_input>
W09IXVtDQEhdMVtDQEhdKFtPSF0pW0NAQEhdKFtPSF0pW0NAQEhdKFtPSF0pW0NASF0oTzEpW0NIM10=

> <s_epik_cmdline>
J2VwaWtfYXBwJywgJy1pbWFlJywgJ2xpZ2FuZF9wcm8ubWFlJywgJy1vbWFlJywgJ2xpZ2FuZF9wcmVwLm1hZScsICctbXMnLCAnMScsICctcGgnLCAnNycsICctcGh0JywgJzAuNScsICctbnQn

> <r_lp_tautomer_probability>
1

> <r_epik_Ionization_Penalty>
  0.0000

> <r_epik_Ionization_Penalty_Charging>
  0.0000

> <r_epik_Ionization_Penalty_Neutral>
  0.0000

> <r_epik_State_Penalty>
 -0.0000

> <r_epik_Charging_Adjusted_Penalty>
0

> <i_epik_Tot_Q>
0

> <i_epik_Tot_abs_Q>
0

> <s_epik_Chemistry_Notes>
This compound contains an acetal/aminal-like group ( X-CH(R)-Y where X, Y are N, S, or O) that may be acid/base labile, releasing an aldehyde.

$$$$
