2ad5_ligand
                    3D
 Schrodinger Suite 2020-3.
 41 42  0  0  1  0            999 V2000
    9.0270   -2.9400   15.7180 N   0  0  0  0  0  0
    7.8520   -2.1780   15.4110 C   0  0  0  0  0  0
    7.0670   -2.5610   14.3640 N   0  0  0  0  0  0
    7.4120   -3.6840   13.6220 C   0  0  0  0  0  0
    8.5520   -4.4320   13.9520 C   0  0  0  0  0  0
    9.3640   -4.0620   15.0020 C   0  0  0  0  0  0
    7.5520   -1.1850   16.0620 O   0  0  0  0  0  0
    6.6430   -4.0430   12.5930 N   0  0  0  0  0  0
    9.8730   -2.4960   16.8340 C   0  0  1  0  0  0
    9.9960   -3.3960   18.0140 C   0  0  2  0  0  0
    9.0400   -3.0060   19.0090 O   0  0  0  0  0  0
   11.4140   -3.0930   18.5250 C   0  0  1  0  0  0
   12.0650   -2.3010   17.3960 C   0  0  2  0  0  0
   11.2100   -2.5270   16.2700 O   0  0  0  0  0  0
   11.3140   -2.2650   19.6800 O   0  0  0  0  0  0
   13.5010   -2.7930   17.1200 C   0  0  0  0  0  0
   13.9900   -2.1580   15.9640 O   0  0  0  0  0  0
   15.3980   -1.3740   15.9430 P   0  0  2  0  0  0
   16.0410   -1.3230   17.2860 O   0  5  0  0  0  0
   15.2440   -0.0960   15.2090 O   0  0  0  0  0  0
   16.3500   -2.3970   15.1070 O   0  0  0  0  0  0
   16.0080   -3.8860   14.4330 P   0  0  2  0  0  0
   14.5510   -4.1000   14.2380 O   0  5  0  0  0  0
   16.7490   -4.9630   15.1100 O   0  0  0  0  0  0
   16.6180   -3.6890   12.9430 O   0  0  0  0  0  0
   18.0930   -2.9990   12.5450 P   0  0  0  0  0  0
   19.0970   -2.9720   13.6390 O   0  0  0  0  0  0
   17.7580   -1.5490   11.9360 O   0  5  0  0  0  0
   18.5990   -3.8830   11.3140 O   0  5  0  0  0  0
    8.7992   -5.3192   13.3690 H   0  0  0  0  0  0
   10.2495   -4.6441   15.2572 H   0  0  0  0  0  0
    5.7507   -3.4513   12.3405 H   0  0  0  0  0  0
    9.4473   -1.5428   17.1806 H   0  0  0  0  0  0
    9.7715   -4.4510   17.7981 H   0  0  0  0  0  0
    7.9648   -3.1461   18.8235 H   0  0  0  0  0  0
   11.9921   -3.9712   18.8484 H   0  0  0  0  0  0
   12.1151   -1.2197   17.5915 H   0  0  0  0  0  0
   10.8681   -2.6616   20.6041 H   0  0  0  0  0  0
   14.1441   -2.5470   17.9778 H   0  0  0  0  0  0
   13.4926   -3.8825   16.9686 H   0  0  0  0  0  0
    6.9011   -4.9307   11.9969 H   0  0  0  0  0  0
  1  2  1  0  0  0
  1  6  1  0  0  0
  1  9  1  0  0  0
  2  3  1  0  0  0
  2  7  2  0  0  0
  3  4  2  0  0  0
  4  5  1  0  0  0
  4  8  1  0  0  0
  5  6  2  0  0  0
  5 30  1  0  0  0
  6 31  1  0  0  0
  8 32  1  0  0  0
  8 41  1  0  0  0
  9 10  1  0  0  0
  9 14  1  0  0  0
  9 33  1  0  0  0
 10 11  1  0  0  0
 10 12  1  0  0  0
 10 34  1  0  0  0
 11 35  1  0  0  0
 12 13  1  0  0  0
 12 15  1  0  0  0
 12 36  1  0  0  0
 13 14  1  0  0  0
 13 16  1  0  0  0
 13 37  1  0  0  0
 15 38  1  0  0  0
 16 17  1  0  0  0
 16 39  1  0  0  0
 16 40  1  0  0  0
 17 18  1  0  0  0
 18 19  1  0  0  0
 18 20  2  0  0  0
 18 21  1  0  0  0
 21 22  1  0  0  0
 22 23  1  0  0  0
 22 24  2  0  0  0
 22 25  1  0  0  0
 25 26  1  0  0  0
 26 27  2  0  0  0
 26 28  1  0  0  0
 26 29  1  0  0  0
M  CHG  4  19  -1  23  -1  28  -1  29  -1
M  END
> <s_m_source_file>
../2ad5_ligand.sdf

> <i_m_source_file_index>
1

> <s_epik_input>
W2NIXTFbY0hdYyg9Ti9bSF0pXFtuSF1jKD1PKW4xW0NASF0yW0NASF0oW09IXSlbQ0BIXShbT0hdKVtDQEhdKE8yKVtDSDJdT1tQQEBdKD1PKShbT0hdKU9bUEBAXSg9TykoW09IXSlPUCg9TykoW09IXSlbT0hd

> <s_epik_cmdline>
J2VwaWtfYXBwJywgJy1pbWFlJywgJ2xpZ2FuZF9wcm8ubWFlJywgJy1vbWFlJywgJ2xpZ2FuZF9wcmVwLm1hZScsICctbXMnLCAnMScsICctcGgnLCAnNycsICctcGh0JywgJzAuNScsICctbnQn

> <r_lp_tautomer_probability>
0.999959729267721

> <r_epik_Ionization_Penalty>
  0.0824

> <r_epik_Ionization_Penalty_Charging>
  0.0813

> <r_epik_Ionization_Penalty_Neutral>
  0.0010

> <r_epik_State_Penalty>
  0.0708

> <r_epik_Charging_Adjusted_Penalty>
0.152154878947093

> <i_epik_Tot_Q>
-4

> <i_epik_Tot_abs_Q>
4

> <s_epik_Chemistry_Notes>
This compound contains an acetal/aminal-like group ( X-CH(R)-Y where X, Y are N, S, or O) that may be acid/base labile, releasing an aldehyde.

$$$$
