2ada_ligand
                    3D
 Schrodinger Suite 2020-3.
 31 33  0  0  1  0            999 V2000
    1.3740   21.0250   39.0150 N   0  0  0  0  0  0
    2.3800   20.6620   39.8120 C   0  0  0  0  0  0
    3.5440   20.1910   39.3810 N   0  0  0  0  0  0
    3.7140   20.0710   38.0510 C   0  0  0  0  0  0
    2.7580   20.4160   37.1670 C   0  0  0  0  0  0
    1.4950   20.9620   37.6150 C   0  0  0  0  0  0
    1.2590   22.2410   37.0340 O   0  0  0  0  0  0
    3.2090   20.1790   35.9160 N   0  0  0  0  0  0
    4.4450   19.6980   36.0730 C   0  0  0  0  0  0
    4.7840   19.6280   37.3620 N   0  0  0  0  0  0
    5.9050   18.9790   37.9010 C   0  0  1  0  0  0
    6.2900   17.7450   37.0850 C   0  0  2  0  0  0
    6.5180   16.7490   38.0750 O   0  0  0  0  0  0
    7.6790   18.0480   36.5420 C   0  0  2  0  0  0
    8.5210   16.8940   36.5830 O   0  0  0  0  0  0
    8.1990   19.1680   37.4400 C   0  0  2  0  0  0
    7.0470   19.8500   37.9560 O   0  0  0  0  0  0
    9.1110   20.1360   36.6980 C   0  0  0  0  0  0
    8.6500   20.4200   35.3740 O   0  0  0  0  0  0
    0.4287   21.3814   39.4501 H   0  0  0  0  0  0
    2.2370   20.7584   40.8883 H   0  0  0  0  0  0
    5.0957   19.3998   35.2510 H   0  0  0  0  0  0
    5.5841   18.7529   38.9286 H   0  0  0  0  0  0
    5.5557   17.4225   36.3322 H   0  0  0  0  0  0
    5.6722   16.3344   38.6431 H   0  0  0  0  0  0
    7.6985   18.2919   35.4696 H   0  0  0  0  0  0
    8.2682   16.0071   35.9834 H   0  0  0  0  0  0
    8.7729   18.7678   38.2888 H   0  0  0  0  0  0
    9.1626   21.0866   37.2490 H   0  0  0  0  0  0
   10.1190   19.7028   36.6192 H   0  0  0  0  0  0
    9.2184   21.1063   34.7291 H   0  0  0  0  0  0
  1  2  1  0  0  0
  1  6  1  0  0  0
  1 20  1  0  0  0
  2  3  2  0  0  0
  2 21  1  0  0  0
  3  4  1  0  0  0
  4  5  2  0  0  0
  4 10  1  0  0  0
  5  6  1  0  0  0
  5  8  1  0  0  0
  6  7  2  0  0  0
  8  9  2  0  0  0
  9 10  1  0  0  0
  9 22  1  0  0  0
 10 11  1  0  0  0
 11 12  1  0  0  0
 11 17  1  0  0  0
 11 23  1  0  0  0
 12 13  1  0  0  0
 12 14  1  0  0  0
 12 24  1  0  0  0
 13 25  1  0  0  0
 14 15  1  0  0  0
 14 16  1  0  0  0
 14 26  1  0  0  0
 15 27  1  0  0  0
 16 17  1  0  0  0
 16 18  1  0  0  0
 16 28  1  0  0  0
 18 19  1  0  0  0
 18 29  1  0  0  0
 18 30  1  0  0  0
 19 31  1  0  0  0
M  END
> <s_m_source_file>
../2ada_ligand.sdf

> <i_m_source_file_index>
1

> <s_epik_input>
bjFbY0hdW25IXWMoPU8pYyhjMTIpbltjSF1uMltDQEhdM1tDQEhdKFtPSF0pW0NASF0oW09IXSlbQ0BIXShPMylbQ0gyXVtPSF0=

> <s_epik_cmdline>
J2VwaWtfYXBwJywgJy1pbWFlJywgJ2xpZ2FuZF9wcm8ubWFlJywgJy1vbWFlJywgJ2xpZ2FuZF9wcmVwLm1hZScsICctbXMnLCAnMScsICctcGgnLCAnNycsICctcGh0JywgJzAuNScsICctbnQn

> <r_lp_tautomer_probability>
1

> <r_epik_Ionization_Penalty>
  0.0091

> <r_epik_Ionization_Penalty_Charging>
  0.0090

> <r_epik_Ionization_Penalty_Neutral>
  0.0001

> <r_epik_State_Penalty>
 -0.0000

> <r_epik_Charging_Adjusted_Penalty>
0.00902189868262537

> <i_epik_Tot_Q>
0

> <i_epik_Tot_abs_Q>
0

> <s_epik_Chemistry_Notes>
This compound contains an acetal/aminal-like group ( X-CH(R)-Y where X, Y are N, S, or O) that may be acid/base labile, releasing an aldehyde.

$$$$
