2adm_ligand
                    3D
 Schrodinger Suite 2020-3.
 50 52  0  0  1  0            999 V2000
    2.4320   34.5750   46.0750 N   0  3  0  0  0  0
    3.0060   34.0860   44.8240 C   0  0  2  0  0  0
    4.5160   33.8170   44.9280 C   0  0  0  0  0  0
    5.1060   34.1460   45.9810 O   0  0  0  0  0  0
    5.0940   33.2780   43.9560 O   0  5  0  0  0  0
    2.7130   35.0660   43.6760 C   0  0  0  0  0  0
    2.8090   36.5410   44.0570 C   0  0  0  0  0  0
    2.7800   37.6130   42.6110 S   0  0  2  0  0  0
    4.0130   38.8140   43.0470 C   0  0  0  0  0  0
    1.2030   38.4680   42.5930 C   0  0  0  0  0  0
    0.0180   37.5540   42.3090 C   0  0  1  0  0  0
   -1.1880   38.0960   42.8710 O   0  0  0  0  0  0
   -0.1880   37.3780   40.8210 C   0  0  1  0  0  0
    0.0950   36.0230   40.4390 O   0  0  0  0  0  0
   -1.6380   37.7280   40.5550 C   0  0  1  0  0  0
   -2.3850   36.5500   40.2230 O   0  0  0  0  0  0
   -2.1650   38.3270   41.8450 C   0  0  2  0  0  0
   -2.4090   39.7780   41.6950 N   0  0  0  0  0  0
   -1.8940   40.6480   40.7930 C   0  0  0  0  0  0
   -2.2970   41.8690   40.8610 N   0  0  0  0  0  0
   -3.1890   41.8280   41.9360 C   0  0  0  0  0  0
   -4.0820   42.7790   42.4610 C   0  0  0  0  0  0
   -4.1190   44.0470   42.0380 N   0  0  0  0  0  0
   -4.9290   42.3680   43.4310 N   0  0  0  0  0  0
   -4.8880   41.1020   43.8360 C   0  0  0  0  0  0
   -4.1020   40.1160   43.4240 N   0  0  0  0  0  0
   -3.2630   40.5520   42.4530 C   0  0  0  0  0  0
    1.3542   34.7490   45.9406 H   0  0  0  0  0  0
    2.9228   35.5173   46.3600 H   0  0  0  0  0  0
    2.5868   33.8270   46.8665 H   0  0  0  0  0  0
    2.4924   33.1274   44.6586 H   0  0  0  0  0  0
    3.4322   34.9007   42.8603 H   0  0  0  0  0  0
    1.6915   34.8995   43.3035 H   0  0  0  0  0  0
    1.9587   36.8094   44.7011 H   0  0  0  0  0  0
    3.7497   36.7194   44.5985 H   0  0  0  0  0  0
    5.0017   38.3324   43.0706 H   0  0  0  0  0  0
    3.7843   39.2307   44.0390 H   0  0  0  0  0  0
    4.0168   39.6228   42.3015 H   0  0  0  0  0  0
    1.0290   38.9370   43.5727 H   0  0  0  0  0  0
    1.2149   39.2430   41.8124 H   0  0  0  0  0  0
    0.1902   36.5829   42.7961 H   0  0  0  0  0  0
    0.5066   37.9772   40.2139 H   0  0  0  0  0  0
    1.1081   35.6149   40.5697 H   0  0  0  0  0  0
   -1.7632   38.3887   39.6845 H   0  0  0  0  0  0
   -2.1399   35.9813   39.3139 H   0  0  0  0  0  0
   -3.1114   37.8605   42.1560 H   0  0  0  0  0  0
   -1.1705   40.3284   40.0430 H   0  0  0  0  0  0
   -3.4308   44.3838   41.2488 H   0  0  0  0  0  0
   -4.8377   44.7533   42.4793 H   0  0  0  0  0  0
   -5.6009   40.8371   44.6168 H   0  0  0  0  0  0
  1  2  1  0  0  0
  1 28  1  0  0  0
  1 29  1  0  0  0
  1 30  1  0  0  0
  2  6  1  0  0  0
  2  3  1  0  0  0
  2 31  1  0  0  0
  3  5  1  0  0  0
  3  4  2  0  0  0
  6  7  1  0  0  0
  6 32  1  0  0  0
  6 33  1  0  0  0
  7  8  1  0  0  0
  7 34  1  0  0  0
  7 35  1  0  0  0
  8 10  1  0  0  0
  8  9  1  0  0  0
  9 36  1  0  0  0
  9 37  1  0  0  0
  9 38  1  0  0  0
 10 11  1  0  0  0
 10 39  1  0  0  0
 10 40  1  0  0  0
 11 13  1  0  0  0
 11 12  1  0  0  0
 11 41  1  0  0  0
 12 17  1  0  0  0
 13 15  1  0  0  0
 13 14  1  0  0  0
 13 42  1  0  0  0
 14 43  1  0  0  0
 15 17  1  0  0  0
 15 16  1  0  0  0
 15 44  1  0  0  0
 16 45  1  0  0  0
 17 18  1  0  0  0
 17 46  1  0  0  0
 18 27  1  0  0  0
 18 19  1  0  0  0
 19 20  2  0  0  0
 19 47  1  0  0  0
 20 21  1  0  0  0
 21 27  2  0  0  0
 21 22  1  0  0  0
 22 24  2  0  0  0
 22 23  1  0  0  0
 23 48  1  0  0  0
 23 49  1  0  0  0
 24 25  1  0  0  0
 25 26  2  0  0  0
 25 50  1  0  0  0
 26 27  1  0  0  0
M  CHG  2   1   1   5  -1
M  END
> <s_m_source_file>
../2adm_ligand.sdf

> <i_m_source_file_index>
1

> <s_epik_input>
Tz1DKFtPSF0pW0NAQEhdKFtOSDMrXSlbQ0gyXVtDSDJdW1NASF0oW0NIM10pW0NIMl1bQ0BIXTFPW0NASF0oW0NASF0oW09IXSlbQ0BASF0xW09IXSluKFtjSF1uMiljKGMyMyluW2NIXW5jM1tOSDJd

> <s_epik_cmdline>
J2VwaWtfYXBwJywgJy1pbWFlJywgJ2xpZ2FuZF9wcm8ubWFlJywgJy1vbWFlJywgJ2xpZ2FuZF9wcmVwLm1hZScsICctbXMnLCAnMScsICctcGgnLCAnNycsICctcGh0JywgJzAuNScsICctbnQn

> <r_lp_tautomer_probability>
1

> <r_epik_Ionization_Penalty>
  0.0015

> <r_epik_Ionization_Penalty_Charging>
  0.0011

> <r_epik_Ionization_Penalty_Neutral>
  0.0004

> <r_epik_State_Penalty>
 -0.0000

> <r_epik_Charging_Adjusted_Penalty>
0.00106610994672706

> <i_epik_Tot_Q>
0

> <i_epik_Tot_abs_Q>
2

> <s_epik_Chemistry_Notes>
This compound contains an acetal/aminal-like group ( X-CH(R)-Y where X, Y are N, S, or O) that may be acid/base labile, releasing an aldehyde.

$$$$
