2adu_ligand
                    3D
 Schrodinger Suite 2020-3.
 21 22  0  0  1  0            999 V2000
   19.6180   30.7460   16.2430 C   0  0  0  0  0  0
   19.8350   29.2910   16.2940 C   0  0  0  0  0  0
   18.2940   31.2890   16.3020 C   0  0  0  0  0  0
   20.7140   31.6560   16.0970 C   0  0  0  0  0  0
   20.9750   28.4970   16.1830 C   0  0  0  0  0  0
   18.0690   32.7080   16.2610 C   0  0  0  0  0  0
   20.4880   33.0660   16.0570 C   0  0  0  0  0  0
   19.1640   33.5860   16.1210 C   0  0  0  0  0  0
   16.6720   33.2570   16.3340 C   0  0  0  0  0  0
   18.8350   28.3540   16.5010 N   0  0  0  0  0  0
   20.6520   27.1750   16.3120 N   0  0  0  0  0  0
   19.3320   27.0920   16.5070 N   0  3  0  0  0  0
   17.4417   30.6140   16.3794 H   0  0  0  0  0  0
   21.7299   31.2693   16.0157 H   0  0  0  0  0  0
   21.9830   28.8769   16.0166 H   0  0  0  0  0  0
   21.3344   33.7481   15.9770 H   0  0  0  0  0  0
   18.9968   34.6615   16.0619 H   0  0  0  0  0  0
   15.9573   32.4277   16.4416 H   0  0  0  0  0  0
   16.4492   33.8160   15.4132 H   0  0  0  0  0  0
   16.5870   33.9291   17.2006 H   0  0  0  0  0  0
   18.6576   26.2360   16.6566 H   0  0  0  0  0  0
  1  2  1  0  0  0
  1  3  2  0  0  0
  1  4  1  0  0  0
  2  5  2  0  0  0
  2 10  1  0  0  0
  3  6  1  0  0  0
  3 13  1  0  0  0
  4  7  2  0  0  0
  4 14  1  0  0  0
  5 11  1  0  0  0
  5 15  1  0  0  0
  6  8  2  0  0  0
  6  9  1  0  0  0
  7  8  1  0  0  0
  7 16  1  0  0  0
  8 17  1  0  0  0
  9 18  1  0  0  0
  9 19  1  0  0  0
  9 20  1  0  0  0
 10 12  2  0  0  0
 11 12  1  0  0  0
 12 21  1  0  0  0
M  CHG  1  12   1
M  END
> <s_m_source_file>
../2adu_ligand.sdf

> <i_m_source_file_index>
1

> <s_epik_input>
bjFuW25IXVtjSF1jMS1jMltjSF1jKFtDSDNdKVtjSF1bY0hdW2NIXTI=

> <s_epik_cmdline>
J2VwaWtfYXBwJywgJy1pbWFlJywgJ2xpZ2FuZF9wcm8ubWFlJywgJy1vbWFlJywgJ2xpZ2FuZF9wcmVwLm1hZScsICctbXMnLCAnMScsICctcGgnLCAnNycsICctcGh0JywgJzAuNScsICctbnQn

> <r_epik_Ionization_Penalty>
  0.0000

> <r_epik_Ionization_Penalty_Charging>
  0.0000

> <r_epik_Ionization_Penalty_Neutral>
  0.0000

> <r_epik_State_Penalty>
  0.0579

> <r_epik_Charging_Adjusted_Penalty>
0.0579184980666244

> <i_epik_Tot_Q>
1

> <i_epik_Tot_abs_Q>
1

$$$$
