2aei_ligand
                    3D
 Schrodinger Suite 2020-3.
 65 68  0  0  1  0            999 V2000
   31.1030    7.3540    7.1980 C   0  0  0  0  0  0
   30.6150    7.4150    8.4910 N   0  0  0  0  0  0
   32.3180    8.0170    6.9030 C   0  0  0  0  0  0
   30.5370    6.6820    6.1530 O   0  0  0  0  0  0
   31.2940    8.1120    9.4690 C   0  0  0  0  0  0
   33.0170    8.7220    7.8920 C   0  0  0  0  0  0
   32.7690    7.9620    5.6870 F   0  0  0  0  0  0
   29.3380    6.0330    6.1020 C   0  0  0  0  0  0
   32.4940    8.7450    9.1580 C   0  0  0  0  0  0
   30.9660    8.3450   10.7460 O   0  0  0  0  0  0
   34.1740    9.3640    7.5720 N   0  0  0  0  0  0
   28.0330    6.5320    6.5030 C   0  0  0  0  0  0
   29.4680    4.7020    5.6420 C   0  0  0  0  0  0
   33.0910    9.3930   10.1100 F   0  0  0  0  0  0
   29.9970    7.9580   11.5720 C   0  0  0  0  0  0
   34.5550   10.7410    7.8440 C   0  0  2  0  0  0
   26.9310    5.6400    6.4530 C   0  0  0  0  0  0
   27.7730    7.8590    6.8620 C   0  0  0  0  0  0
   28.3530    3.8510    5.5900 C   0  0  0  0  0  0
   30.3060    7.4020   12.8360 C   0  0  0  0  0  0
   28.6570    8.1980   11.2400 C   0  0  0  0  0  0
   35.7970   10.8260    8.7390 C   0  0  0  0  0  0
   33.4210   11.6160    8.4500 C   0  0  0  0  0  0
   27.0870    4.3160    6.0110 C   0  0  0  0  0  0
   26.8420    8.1470    7.6380 O   0  0  0  0  0  0
   28.5070    8.8810    6.3850 O   0  5  0  0  0  0
   29.2820    7.0790   13.7620 C   0  0  0  0  0  0
   27.6500    7.8910   12.1190 C   0  0  0  0  0  0
   36.7450    9.6040    8.8150 C   0  0  0  0  0  0
   27.9590    7.3420   13.3690 C   0  0  0  0  0  0
   29.5460    6.5410   15.0410 C   0  0  0  0  0  0
   36.6190    8.7820   10.0360 C   0  0  0  0  0  0
   29.1370    7.1670   16.1610 N   0  3  0  0  0  0
   30.2120    5.3850   15.2490 N   0  0  0  0  0  0
   35.6290    7.7720   10.1260 C   0  0  0  0  0  0
   37.4850    8.9910   11.1430 C   0  0  0  0  0  0
   35.5030    6.9900   11.2860 C   0  0  0  0  0  0
   37.3600    8.2070   12.3080 C   0  0  0  0  0  0
   36.3690    7.2070   12.3810 C   0  0  0  0  0  0
   34.8674    8.6964    7.0395 H   0  0  0  0  0  0
   30.4435    4.3334    5.3248 H   0  0  0  0  0  0
   34.7814   11.0869    6.8246 H   0  0  0  0  0  0
   25.9458    5.9883    6.7631 H   0  0  0  0  0  0
   28.4640    2.8302    5.2244 H   0  0  0  0  0  0
   31.3472    7.2192   13.1019 H   0  0  0  0  0  0
   28.4120    8.6339   10.2715 H   0  0  0  0  0  0
   36.4369   11.6541    8.4004 H   0  0  0  0  0  0
   35.4877   11.0035    9.7796 H   0  0  0  0  0  0
   32.5292   11.5560    7.8088 H   0  0  0  0  0  0
   33.7580   12.6612    8.5124 H   0  0  0  0  0  0
   33.1738   11.2496    9.4573 H   0  0  0  0  0  0
   26.2283    3.6448    5.9927 H   0  0  0  0  0  0
   26.6111    8.0742   11.8448 H   0  0  0  0  0  0
   36.5476    8.9335    7.9656 H   0  0  0  0  0  0
   37.7894    9.9471    8.7762 H   0  0  0  0  0  0
   27.1476    7.1113   14.0593 H   0  0  0  0  0  0
   28.5861    8.1165   16.0904 H   0  0  0  0  0  0
   30.5848    4.8033   14.3930 H   0  0  0  0  0  0
   30.3818    5.0249   16.2744 H   0  0  0  0  0  0
   34.9573    7.5999    9.2850 H   0  0  0  0  0  0
   38.2521    9.7637   11.0910 H   0  0  0  0  0  0
   34.7374    6.2161   11.3413 H   0  0  0  0  0  0
   38.0293    8.3740   13.1520 H   0  0  0  0  0  0
   36.2709    6.6014   13.2820 H   0  0  0  0  0  0
   29.3539    6.7289   17.1464 H   0  0  0  0  0  0
  1  2  2  0  0  0
  1  3  1  0  0  0
  1  4  1  0  0  0
  2  5  1  0  0  0
  3  6  2  0  0  0
  3  7  1  0  0  0
  4  8  1  0  0  0
  5  9  2  0  0  0
  5 10  1  0  0  0
  6  9  1  0  0  0
  6 11  1  0  0  0
  8 12  2  0  0  0
  8 13  1  0  0  0
  9 14  1  0  0  0
 10 15  1  0  0  0
 11 16  1  0  0  0
 11 40  1  0  0  0
 12 17  1  0  0  0
 12 18  1  0  0  0
 13 19  2  0  0  0
 13 41  1  0  0  0
 15 20  2  0  0  0
 15 21  1  0  0  0
 16 22  1  0  0  0
 16 23  1  0  0  0
 16 42  1  0  0  0
 17 24  2  0  0  0
 17 43  1  0  0  0
 18 25  2  0  0  0
 18 26  1  0  0  0
 19 24  1  0  0  0
 19 44  1  0  0  0
 20 27  1  0  0  0
 20 45  1  0  0  0
 21 28  2  0  0  0
 21 46  1  0  0  0
 22 29  1  0  0  0
 22 47  1  0  0  0
 22 48  1  0  0  0
 23 49  1  0  0  0
 23 50  1  0  0  0
 23 51  1  0  0  0
 24 52  1  0  0  0
 27 30  2  0  0  0
 27 31  1  0  0  0
 28 30  1  0  0  0
 28 53  1  0  0  0
 29 32  1  0  0  0
 29 54  1  0  0  0
 29 55  1  0  0  0
 30 56  1  0  0  0
 31 33  2  0  0  0
 31 34  1  0  0  0
 32 35  2  0  0  0
 32 36  1  0  0  0
 33 57  1  0  0  0
 33 65  1  0  0  0
 34 58  1  0  0  0
 34 59  1  0  0  0
 35 37  1  0  0  0
 35 60  1  0  0  0
 36 38  2  0  0  0
 36 61  1  0  0  0
 37 39  2  0  0  0
 37 62  1  0  0  0
 38 39  1  0  0  0
 38 63  1  0  0  0
 39 64  1  0  0  0
M  CHG  2  26  -1  33   1
M  END
> <s_m_source_file>
../2aei_ligand.sdf

> <i_m_source_file_index>
1

> <s_epik_input>
W2NIXTFbY0hdW2NIXVtjSF1jKEMoPU8pW09IXSljMU9jMm5jKE9jM1tjSF1jKC9DKD1OXFtIXSlbTkgyXSlbY0hdW2NIXVtjSF0zKWMoRiljKGMyRilbTkhdW0NAQEhdKFtDSDNdKVtDSDJdW0NIMl1jNFtjSF1bY0hdW2NIXVtjSF1bY0hdNA==

> <s_epik_cmdline>
J2VwaWtfYXBwJywgJy1pbWFlJywgJ2xpZ2FuZF9wcm8ubWFlJywgJy1vbWFlJywgJ2xpZ2FuZF9wcmVwLm1hZScsICctbXMnLCAnMScsICctcGgnLCAnNycsICctcGh0JywgJzAuNScsICctbnQn

> <r_lp_tautomer_probability>
1

> <r_epik_Ionization_Penalty>
  0.0009

> <r_epik_Ionization_Penalty_Charging>
  0.0009

> <r_epik_Ionization_Penalty_Neutral>
  0.0000

> <r_epik_State_Penalty>
 -0.0000

> <r_epik_Charging_Adjusted_Penalty>
0.000892650971560756

> <i_epik_Tot_Q>
0

> <i_epik_Tot_abs_Q>
2

> <s_epik_Chemistry_Notes>
This compound has an imine and may undergo hydrolysis.

$$$$
