2ael_ligand
                    3D
 Schrodinger Suite 2020-3.
 41 41  0  0  1  0            999 V2000
   38.1100   72.2130   35.1580 C   0  0  2  0  0  0
   38.6790   70.7410   35.2550 C   0  0  0  0  0  0
   36.6010   72.1120   34.7780 C   0  0  0  0  0  0
   38.0410   70.0760   36.5180 C   0  0  0  0  0  0
   35.8650   71.2050   35.7960 C   0  0  0  0  0  0
   38.8470   73.1630   34.1990 N   0  3  1  0  0  0
   38.4460   74.8150   37.2320 C   0  0  0  0  0  0
   38.4460   75.1940   35.7700 C   0  0  0  0  0  0
   39.4210   74.3550   34.8810 C   0  0  0  0  0  0
   37.4230   74.4450   38.0420 C   0  0  0  0  0  0
   35.9560   74.3140   37.6820 C   0  0  0  0  0  0
   37.7010   74.1060   39.4730 C   0  0  0  0  0  0
   39.9710   72.5760   33.4730 C   0  0  0  0  0  0
   36.5090   70.2840   36.5910 C   0  0  0  0  0  0
   35.7680   69.4360   37.5720 C   0  0  0  0  0  0
   38.2690   72.7010   36.1309 H   0  0  0  0  0  0
   38.4079   70.1825   34.3469 H   0  0  0  0  0  0
   39.7743   70.7768   35.3501 H   0  0  0  0  0  0
   36.1513   73.1158   34.7925 H   0  0  0  0  0  0
   36.5046   71.6816   33.7703 H   0  0  0  0  0  0
   38.2341   68.9932   36.4993 H   0  0  0  0  0  0
   38.4844   70.5119   37.4254 H   0  0  0  0  0  0
   34.7737   71.3243   35.8659 H   0  0  0  0  0  0
   38.0760   73.4398   33.4649 H   0  0  0  0  0  0
   39.4698   74.8719   37.6301 H   0  0  0  0  0  0
   37.4367   75.0553   35.3553 H   0  0  0  0  0  0
   38.7443   76.2475   35.6643 H   0  0  0  0  0  0
   40.2358   74.0384   35.5488 H   0  0  0  0  0  0
   39.8145   75.0540   34.1283 H   0  0  0  0  0  0
   35.8137   74.5747   36.6229 H   0  0  0  0  0  0
   35.3622   74.9943   38.3101 H   0  0  0  0  0  0
   35.6279   73.2779   37.8519 H   0  0  0  0  0  0
   38.7765   74.2188   39.6742 H   0  0  0  0  0  0
   37.3982   73.0668   39.6691 H   0  0  0  0  0  0
   37.1325   74.7833   40.1273 H   0  0  0  0  0  0
   39.6313   71.6791   32.9343 H   0  0  0  0  0  0
   40.7624   72.2984   34.1848 H   0  0  0  0  0  0
   40.3654   73.3086   32.7534 H   0  0  0  0  0  0
   36.4762   68.7766   38.0951 H   0  0  0  0  0  0
   35.0231   68.8258   37.0401 H   0  0  0  0  0  0
   35.2589   70.0811   38.3033 H   0  0  0  0  0  0
  1  2  1  0  0  0
  1  3  1  0  0  0
  1  6  1  0  0  0
  1 16  1  0  0  0
  2  4  1  0  0  0
  2 17  1  0  0  0
  2 18  1  0  0  0
  3  5  1  0  0  0
  3 19  1  0  0  0
  3 20  1  0  0  0
  4 14  1  0  0  0
  4 21  1  0  0  0
  4 22  1  0  0  0
  5 14  2  0  0  0
  5 23  1  0  0  0
  6  9  1  0  0  0
  6 13  1  0  0  0
  6 24  1  0  0  0
  7  8  1  0  0  0
  7 10  2  0  0  0
  7 25  1  0  0  0
  8  9  1  0  0  0
  8 26  1  0  0  0
  8 27  1  0  0  0
  9 28  1  0  0  0
  9 29  1  0  0  0
 10 11  1  0  0  0
 10 12  1  0  0  0
 11 30  1  0  0  0
 11 31  1  0  0  0
 11 32  1  0  0  0
 12 33  1  0  0  0
 12 34  1  0  0  0
 12 35  1  0  0  0
 13 36  1  0  0  0
 13 37  1  0  0  0
 13 38  1  0  0  0
 14 15  1  0  0  0
 15 39  1  0  0  0
 15 40  1  0  0  0
 15 41  1  0  0  0
M  CHG  1   6   1
M  END
> <s_m_source_file>
../2ael_ligand.sdf

> <i_m_source_file_index>
1

> <s_epik_input>
W0NIMl0xW0NIXT1DKFtDSDNdKVtDSDJdW0NIMl1bQ0BIXTFbTkBIK10oW0NIM10pW0NIMl1bQ0gyXVtDSF09QyhbQ0gzXSlbQ0gzXQ==

> <s_epik_cmdline>
J2VwaWtfYXBwJywgJy1pbWFlJywgJ2xpZ2FuZF9wcm8ubWFlJywgJy1vbWFlJywgJ2xpZ2FuZF9wcmVwLm1hZScsICctbXMnLCAnMScsICctcGgnLCAnNycsICctcGh0JywgJzAuNScsICctbnQn

> <r_lp_tautomer_probability>
1

> <r_epik_Ionization_Penalty>
  0.0022

> <r_epik_Ionization_Penalty_Charging>
  0.0022

> <r_epik_Ionization_Penalty_Neutral>
  0.0000

> <r_epik_State_Penalty>
 -0.0000

> <r_epik_Charging_Adjusted_Penalty>
0.0022414392414298

> <i_epik_Tot_Q>
1

> <i_epik_Tot_abs_Q>
1

$$$$
