2aez_ligand
                    3D
 Schrodinger Suite 2020-3.
 66 68  0  0  1  0            999 V2000
    9.0700   73.6060   -3.5590 C   0  0  1  0  0  0
    6.5830   71.7190   -3.6820 C   0  0  0  0  0  0
    8.0330   68.6460   -2.1000 C   0  0  0  0  0  0
   10.3730   73.0380   -2.9690 C   0  0  1  0  0  0
    6.6920   73.1220   -3.0810 C   0  0  1  0  0  0
    7.1380   69.2810   -3.1540 C   0  0  1  0  0  0
   10.9900   73.9920   -1.9530 C   0  0  2  0  0  0
    5.7150   73.1820   -1.9130 C   0  0  2  0  0  0
    5.7840   68.5280   -3.3560 C   0  0  2  0  0  0
   11.2180   75.3660   -2.5810 C   0  0  1  0  0  0
    4.8640   74.3970   -2.2430 C   0  0  1  0  0  0
    5.4410   68.7950   -4.7990 C   0  0  1  0  0  0
    9.8530   75.9080   -3.0580 C   0  0  1  0  0  0
    5.0080   74.5930   -3.7680 C   0  0  1  0  0  0
    6.8160   68.8660   -5.5000 C   0  0  1  0  0  0
    9.9610   77.2690   -3.7090 C   0  0  0  0  0  0
    5.0420   76.0350   -4.1990 C   0  0  0  0  0  0
    6.9080   69.9270   -6.5860 C   0  0  0  0  0  0
    8.0020   73.5100   -2.6160 O   0  0  0  0  0  0
    6.9520   70.6790   -2.7210 O   0  0  0  0  0  0
    8.3040   67.2790   -2.3610 O   0  0  0  0  0  0
   10.1370   71.7290   -2.4610 O   0  0  0  0  0  0
    6.2450   73.9560   -4.1280 O   0  0  0  0  0  0
    7.7780   69.1680   -4.4290 O   0  0  0  0  0  0
   12.2090   73.3910   -1.4890 O   0  0  0  0  0  0
    6.3820   73.3640   -0.6640 O   0  0  0  0  0  0
    4.7310   68.9720   -2.5160 O   0  0  0  0  0  0
   11.8060   76.2630   -1.6300 O   0  0  0  0  0  0
    3.5130   74.2110   -1.8180 O   0  0  0  0  0  0
    4.5630   67.8040   -5.3160 O   0  0  0  0  0  0
    9.2780   74.9570   -4.0430 O   0  0  0  0  0  0
    5.1910   76.0710   -5.6160 O   0  0  0  0  0  0
    8.2110   69.9230   -7.1590 O   0  0  0  0  0  0
    8.3710   77.7190   -4.1520 O   0  0  0  0  0  0
    8.7036   73.0378   -4.4267 H   0  0  0  0  0  0
    5.5467   71.5371   -4.0029 H   0  0  0  0  0  0
    7.2549   71.6384   -4.5492 H   0  0  0  0  0  0
    8.9948   69.1788   -2.0664 H   0  0  0  0  0  0
    7.5439   68.7099   -1.1168 H   0  0  0  0  0  0
   11.1358   72.8618   -3.7417 H   0  0  0  0  0  0
   10.3621   74.1289   -1.0603 H   0  0  0  0  0  0
    5.1609   72.2478   -1.7390 H   0  0  0  0  0  0
    5.8144   67.4675   -3.0655 H   0  0  0  0  0  0
   11.9585   75.3181   -3.3930 H   0  0  0  0  0  0
    5.1297   75.2965   -1.6682 H   0  0  0  0  0  0
    4.8131   69.6823   -4.9672 H   0  0  0  0  0  0
    9.1820   76.0066   -2.1920 H   0  0  0  0  0  0
    4.1683   74.1393   -4.3149 H   0  0  0  0  0  0
    7.0518   67.9170   -6.0039 H   0  0  0  0  0  0
   10.3882   77.9855   -2.9920 H   0  0  0  0  0  0
   10.6125   77.2021   -4.5928 H   0  0  0  0  0  0
    4.1039   76.5280   -3.9042 H   0  0  0  0  0  0
    5.8902   76.5422   -3.7160 H   0  0  0  0  0  0
    6.1665   69.7143   -7.3701 H   0  0  0  0  0  0
    6.7068   70.9166   -6.1498 H   0  0  0  0  0  0
    8.9404   66.7033   -1.6728 H   0  0  0  0  0  0
    9.6940   70.9589   -3.1096 H   0  0  0  0  0  0
   12.1873   72.3986   -1.0149 H   0  0  0  0  0  0
    7.0423   72.5758   -0.2731 H   0  0  0  0  0  0
    4.8114   68.8558   -1.4251 H   0  0  0  0  0  0
   12.7848   76.0293   -1.1858 H   0  0  0  0  0  0
    3.2875   74.0615   -0.7518 H   0  0  0  0  0  0
    3.5604   67.6769   -4.8817 H   0  0  0  0  0  0
    5.2385   77.0372   -6.1397 H   0  0  0  0  0  0
    8.4596   70.6292   -7.9649 H   0  0  0  0  0  0
    8.1907   78.6835   -4.6493 H   0  0  0  0  0  0
  1  4  1  0  0  0
  1 19  1  0  0  0
  1 31  1  0  0  0
  1 35  1  0  0  0
  2  5  1  0  0  0
  2 20  1  0  0  0
  2 36  1  0  0  0
  2 37  1  0  0  0
  3  6  1  0  0  0
  3 21  1  0  0  0
  3 38  1  0  0  0
  3 39  1  0  0  0
  4  7  1  0  0  0
  4 22  1  0  0  0
  4 40  1  0  0  0
  5  8  1  0  0  0
  5 19  1  0  0  0
  5 23  1  0  0  0
  6  9  1  0  0  0
  6 20  1  0  0  0
  6 24  1  0  0  0
  7 10  1  0  0  0
  7 25  1  0  0  0
  7 41  1  0  0  0
  8 11  1  0  0  0
  8 26  1  0  0  0
  8 42  1  0  0  0
  9 12  1  0  0  0
  9 27  1  0  0  0
  9 43  1  0  0  0
 10 13  1  0  0  0
 10 28  1  0  0  0
 10 44  1  0  0  0
 11 14  1  0  0  0
 11 29  1  0  0  0
 11 45  1  0  0  0
 12 15  1  0  0  0
 12 30  1  0  0  0
 12 46  1  0  0  0
 13 16  1  0  0  0
 13 31  1  0  0  0
 13 47  1  0  0  0
 14 17  1  0  0  0
 14 23  1  0  0  0
 14 48  1  0  0  0
 15 18  1  0  0  0
 15 24  1  0  0  0
 15 49  1  0  0  0
 16 34  1  0  0  0
 16 50  1  0  0  0
 16 51  1  0  0  0
 17 32  1  0  0  0
 17 52  1  0  0  0
 17 53  1  0  0  0
 18 33  1  0  0  0
 18 54  1  0  0  0
 18 55  1  0  0  0
 21 56  1  0  0  0
 22 57  1  0  0  0
 25 58  1  0  0  0
 26 59  1  0  0  0
 27 60  1  0  0  0
 28 61  1  0  0  0
 29 62  1  0  0  0
 30 63  1  0  0  0
 32 64  1  0  0  0
 33 65  1  0  0  0
 34 66  1  0  0  0
M  END
> <s_m_source_file>
../2aez_ligand.sdf

> <i_m_source_file_index>
1

> <s_epik_input>
W09IXVtDSDJdW0NAQEhdKE8xKVtDQEBIXShbT0hdKVtDQEhdKFtPSF0pW0NAQEhdKFtPSF0pW0NASF0xT1tDQF0yKFtDQEBIXShbT0hdKVtDQEhdKFtPSF0pW0NASF0oTzIpW0NIMl1bT0hdKVtDSDJdT1tDQEBdMyhbQ0gyXVtPSF0pW0NAQEhdKFtPSF0pW0NASF0oW09IXSlbQ0BIXShPMylbQ0gyXVtPSF0=

> <s_epik_cmdline>
J2VwaWtfYXBwJywgJy1pbWFlJywgJ2xpZ2FuZF9wcm8ubWFlJywgJy1vbWFlJywgJ2xpZ2FuZF9wcmVwLm1hZScsICctbXMnLCAnMScsICctcGgnLCAnNycsICctcGh0JywgJzAuNScsICctbnQn

> <r_lp_tautomer_probability>
1

> <r_epik_Ionization_Penalty>
  0.0000

> <r_epik_Ionization_Penalty_Charging>
  0.0000

> <r_epik_Ionization_Penalty_Neutral>
  0.0000

> <r_epik_State_Penalty>
 -0.0000

> <r_epik_Charging_Adjusted_Penalty>
0

> <i_epik_Tot_Q>
0

> <i_epik_Tot_abs_Q>
0

> <s_epik_Chemistry_Notes>
This compound contains an acetal/aminal-like group ( X-CH(R)-Y where X, Y are N, S, or O) that may be acid/base labile, releasing an aldehyde.

$$$$
