2agv_ligand
                    3D
 Schrodinger Suite 2020-3.
 38 38  0  0  1  0            999 V2000
    7.4130  -13.7920   11.6700 O   0  0  0  0  0  0
    1.9460  -13.3450   10.6600 O   0  0  0  0  0  0
    6.0640  -13.6700   11.3900 C   0  0  0  0  0  0
    5.6440  -13.0110   10.1660 C   0  0  0  0  0  0
    4.2280  -12.9480   10.0000 C   0  0  0  0  0  0
    3.2990  -13.4680   10.9300 C   0  0  0  0  0  0
    3.7210  -14.1210   12.1430 C   0  0  0  0  0  0
    5.1470  -14.1880   12.3170 C   0  0  0  0  0  0
    6.6240  -12.4090    9.0950 C   0  0  0  0  0  0
    7.5070  -11.3110    9.7240 C   0  0  0  0  0  0
    7.5250  -13.5030    8.5040 C   0  0  0  0  0  0
    5.9060  -11.7630    7.8990 C   0  0  0  0  0  0
    2.7320  -14.7000   13.1900 C   0  0  0  0  0  0
    1.8320  -15.7690   12.5800 C   0  0  0  0  0  0
    3.4540  -15.3470   14.3900 C   0  0  0  0  0  0
    1.8860  -13.5510   13.7820 C   0  0  0  0  0  0
    8.1590  -13.3969   10.9648 H   0  0  0  0  0  0
    1.6123  -12.8483    9.7370 H   0  0  0  0  0  0
    3.8390  -12.4697    9.1011 H   0  0  0  0  0  0
    5.5357  -14.6662   13.2161 H   0  0  0  0  0  0
    8.0455  -11.7246   10.5894 H   0  0  0  0  0  0
    6.8731  -10.4741   10.0523 H   0  0  0  0  0  0
    8.2318  -10.9517    8.9787 H   0  0  0  0  0  0
    8.0704  -14.0069    9.3156 H   0  0  0  0  0  0
    8.2437  -13.0487    7.8061 H   0  0  0  0  0  0
    6.9063  -14.2371    7.9670 H   0  0  0  0  0  0
    5.2400  -10.9648    8.2587 H   0  0  0  0  0  0
    5.3134  -12.5252    7.3718 H   0  0  0  0  0  0
    6.6508  -11.3368    7.2108 H   0  0  0  0  0  0
    2.4521  -16.5770   12.1646 H   0  0  0  0  0  0
    1.2250  -15.3234   11.7781 H   0  0  0  0  0  0
    1.1696  -16.1778   13.3572 H   0  0  0  0  0  0
    4.0793  -16.1799   14.0361 H   0  0  0  0  0  0
    2.7091  -15.7259   15.1052 H   0  0  0  0  0  0
    4.0884  -14.5965   14.8843 H   0  0  0  0  0  0
    1.3405  -13.0430   12.9731 H   0  0  0  0  0  0
    2.5472  -12.8313   14.2867 H   0  0  0  0  0  0
    1.1680  -13.9606   14.5077 H   0  0  0  0  0  0
  1  3  1  0  0  0
  1 17  1  0  0  0
  2  6  1  0  0  0
  2 18  1  0  0  0
  3  4  2  0  0  0
  3  8  1  0  0  0
  4  5  1  0  0  0
  4  9  1  0  0  0
  5  6  2  0  0  0
  5 19  1  0  0  0
  6  7  1  0  0  0
  7  8  2  0  0  0
  7 13  1  0  0  0
  8 20  1  0  0  0
  9 10  1  0  0  0
  9 11  1  0  0  0
  9 12  1  0  0  0
 10 21  1  0  0  0
 10 22  1  0  0  0
 10 23  1  0  0  0
 11 24  1  0  0  0
 11 25  1  0  0  0
 11 26  1  0  0  0
 12 27  1  0  0  0
 12 28  1  0  0  0
 12 29  1  0  0  0
 13 14  1  0  0  0
 13 15  1  0  0  0
 13 16  1  0  0  0
 14 30  1  0  0  0
 14 31  1  0  0  0
 14 32  1  0  0  0
 15 33  1  0  0  0
 15 34  1  0  0  0
 15 35  1  0  0  0
 16 36  1  0  0  0
 16 37  1  0  0  0
 16 38  1  0  0  0
M  END
> <s_m_source_file>
../2agv_ligand.sdf

> <i_m_source_file_index>
1

> <s_epik_input>
W09IXWMxYyhDKFtDSDNdKShbQ0gzXSlbQ0gzXSlbY0hdYyhbT0hdKWMoW2NIXTEpQyhbQ0gzXSkoW0NIM10pW0NIM10=

> <s_epik_cmdline>
J2VwaWtfYXBwJywgJy1pbWFlJywgJ2xpZ2FuZF9wcm8ubWFlJywgJy1vbWFlJywgJ2xpZ2FuZF9wcmVwLm1hZScsICctbXMnLCAnMScsICctcGgnLCAnNycsICctcGh0JywgJzAuNScsICctbnQn

> <r_lp_tautomer_probability>
1

> <r_epik_Ionization_Penalty>
  0.0000

> <r_epik_Ionization_Penalty_Charging>
  0.0000

> <r_epik_Ionization_Penalty_Neutral>
  0.0000

> <r_epik_State_Penalty>
 -0.0000

> <r_epik_Charging_Adjusted_Penalty>
0

> <i_epik_Tot_Q>
0

> <i_epik_Tot_abs_Q>
0

$$$$
