2ai7_ligand
                    3D
 Schrodinger Suite 2020-3.
 28 28  0  0  1  0            999 V2000
   24.9800   -6.1100    9.2400 C   0  0  0  0  0  0
   25.4060   -5.5820    7.9920 C   0  0  0  0  0  0
   26.1080   -4.3380    7.8960 C   0  0  0  0  0  0
   26.3980   -3.5910    9.0700 C   0  0  0  0  0  0
   26.0080   -4.0490   10.3380 C   0  0  0  0  0  0
   25.2430   -5.4080   10.4300 C   0  0  0  0  0  0
   26.5490   -3.7940    6.5610 C   0  0  0  0  0  0
   27.4790   -4.7550    5.8070 C   0  0  0  0  0  0
   27.9380   -4.1720    4.4620 C   0  0  0  0  0  0
   29.3020   -3.6480    4.5990 N   0  0  3  0  0  0
   30.4010   -4.4770    4.3780 O   0  0  0  0  0  0
   29.4600   -2.3460    4.9520 C   0  0  0  0  0  0
   30.7080   -1.7010    5.1310 O   0  0  0  0  0  0
   24.4483   -7.0609    9.2755 H   0  0  0  0  0  0
   25.1921   -6.1404    7.0807 H   0  0  0  0  0  0
   26.9330   -2.6452    8.9839 H   0  0  0  0  0  0
   26.2329   -3.4718   11.2349 H   0  0  0  0  0  0
   24.9207   -5.8028   11.3935 H   0  0  0  0  0  0
   25.6669   -3.6139    5.9290 H   0  0  0  0  0  0
   27.0915   -2.8490    6.7112 H   0  0  0  0  0  0
   28.3717   -4.9559    6.4176 H   0  0  0  0  0  0
   26.9494   -5.6988    5.6102 H   0  0  0  0  0  0
   27.9225   -4.9612    3.6959 H   0  0  0  0  0  0
   27.2598   -3.3587    4.1643 H   0  0  0  0  0  0
   30.2483   -5.5284    4.0929 H   0  0  0  0  0  0
   28.9907   -1.7012    4.1944 H   0  0  0  0  0  0
   28.9846   -2.1705    5.9283 H   0  0  0  0  0  0
   30.7424   -0.6398    5.4184 H   0  0  0  0  0  0
  1  2  2  0  0  0
  1  6  1  0  0  0
  1 14  1  0  0  0
  2  3  1  0  0  0
  2 15  1  0  0  0
  3  4  2  0  0  0
  3  7  1  0  0  0
  4  5  1  0  0  0
  4 16  1  0  0  0
  5  6  2  0  0  0
  5 17  1  0  0  0
  6 18  1  0  0  0
  7  8  1  0  0  0
  7 19  1  0  0  0
  7 20  1  0  0  0
  8  9  1  0  0  0
  8 21  1  0  0  0
  8 22  1  0  0  0
  9 10  1  0  0  0
  9 23  1  0  0  0
  9 24  1  0  0  0
 10 11  1  0  0  0
 10 12  1  0  0  0
 11 25  1  0  0  0
 12 13  1  0  0  0
 12 26  1  0  0  0
 12 27  1  0  0  0
 13 28  1  0  0  0
M  END
> <s_m_source_file>
../2ai7_ligand.sdf

> <i_m_source_file_index>
1

> <s_epik_input>
W2NIXTFbY0hdW2NIXVtjSF1bY0hdYzFbQ0gyXVtDSDJdW0NIMl1bTkgrXShbT0hdKVtDSDJdW09IXQ==

> <s_epik_cmdline>
J2VwaWtfYXBwJywgJy1pbWFlJywgJ2xpZ2FuZF9wcm8ubWFlJywgJy1vbWFlJywgJ2xpZ2FuZF9wcmVwLm1hZScsICctbXMnLCAnMScsICctcGgnLCAnNycsICctcGh0JywgJzAuNScsICctbnQn

> <r_epik_Ionization_Penalty>
  0.0014

> <r_epik_Ionization_Penalty_Charging>
  0.0000

> <r_epik_Ionization_Penalty_Neutral>
  0.0014

> <r_epik_State_Penalty>
  0.1916

> <r_epik_Charging_Adjusted_Penalty>
0.191552662275011

> <i_epik_Tot_Q>
0

> <i_epik_Tot_abs_Q>
0

> <s_epik_Chemistry_Notes>
This compound contains an acetal/aminal-like group ( X-CH(R)-Y where X, Y are N, S, or O) that may be acid/base labile, releasing an aldehyde. This compound has a N-S or N-O group and may undergo hydrolysis at high or low pH.

$$$$
