2ai8_ligand
                    3D
 Schrodinger Suite 2020-3.
 28 28  0  0  1  0            999 V2000
   46.6420    8.8100   14.2560 C   0  0  0  0  0  0
   45.6640    7.7800   14.2430 C   0  0  0  0  0  0
   45.8730    6.5200   14.9440 C   0  0  0  0  0  0
   47.0760    6.3050   15.6550 C   0  0  0  0  0  0
   48.0780    7.2760   15.7010 C   0  0  0  0  0  0
   47.8470    8.6200   14.9490 C   0  0  0  0  0  0
   44.8440    5.3920   14.9220 C   0  0  0  0  0  0
   43.5210    5.7570   14.2220 C   0  0  0  0  0  0
   42.4210    4.6310   14.1450 C   0  0  0  0  0  0
   42.0370    3.8590   15.4280 N   0  0  3  0  0  0
   40.6910    3.7380   15.7990 O   0  0  0  0  0  0
   42.9970    3.2550   16.1960 C   0  0  0  0  0  0
   42.7530    2.5040   17.3910 O   0  0  0  0  0  0
   46.4568    9.7459   13.7288 H   0  0  0  0  0  0
   44.7346    7.9360   13.6953 H   0  0  0  0  0  0
   47.2243    5.3606   16.1786 H   0  0  0  0  0  0
   49.0018    7.0973   16.2512 H   0  0  0  0  0  0
   48.6085    9.3998   14.9609 H   0  0  0  0  0  0
   45.2619    4.5248   14.3897 H   0  0  0  0  0  0
   44.5941    5.1034   15.9536 H   0  0  0  0  0  0
   43.0476    6.5987   14.7487 H   0  0  0  0  0  0
   43.7247    6.0445   13.1799 H   0  0  0  0  0  0
   41.4736    5.0672   13.7955 H   0  0  0  0  0  0
   42.7455    3.8488   13.4430 H   0  0  0  0  0  0
   39.9082    4.2172   15.1927 H   0  0  0  0  0  0
   43.5394    2.5146   15.5897 H   0  0  0  0  0  0
   43.7023    4.0140   16.5653 H   0  0  0  0  0  0
   43.5940    2.0554   17.9400 H   0  0  0  0  0  0
  1  2  2  0  0  0
  1  6  1  0  0  0
  1 14  1  0  0  0
  2  3  1  0  0  0
  2 15  1  0  0  0
  3  4  2  0  0  0
  3  7  1  0  0  0
  4  5  1  0  0  0
  4 16  1  0  0  0
  5  6  2  0  0  0
  5 17  1  0  0  0
  6 18  1  0  0  0
  7  8  1  0  0  0
  7 19  1  0  0  0
  7 20  1  0  0  0
  8  9  1  0  0  0
  8 21  1  0  0  0
  8 22  1  0  0  0
  9 10  1  0  0  0
  9 23  1  0  0  0
  9 24  1  0  0  0
 10 11  1  0  0  0
 10 12  1  0  0  0
 11 25  1  0  0  0
 12 13  1  0  0  0
 12 26  1  0  0  0
 12 27  1  0  0  0
 13 28  1  0  0  0
M  END
> <s_m_source_file>
../2ai8_ligand.sdf

> <i_m_source_file_index>
1

> <s_epik_input>
W2NIXTFbY0hdW2NIXVtjSF1bY0hdYzFbQ0gyXVtDSDJdW0NIMl1bTkBASCtdKFtPSF0pW0NIMl1bT0hd

> <s_epik_cmdline>
J2VwaWtfYXBwJywgJy1pbWFlJywgJ2xpZ2FuZF9wcm8ubWFlJywgJy1vbWFlJywgJ2xpZ2FuZF9wcmVwLm1hZScsICctbXMnLCAnMScsICctcGgnLCAnNycsICctcGh0JywgJzAuNScsICctbnQn

> <r_epik_Ionization_Penalty>
  0.0014

> <r_epik_Ionization_Penalty_Charging>
  0.0000

> <r_epik_Ionization_Penalty_Neutral>
  0.0014

> <r_epik_State_Penalty>
  0.1916

> <r_epik_Charging_Adjusted_Penalty>
0.191552662275011

> <i_epik_Tot_Q>
0

> <i_epik_Tot_abs_Q>
0

> <s_epik_Chemistry_Notes>
This compound contains an acetal/aminal-like group ( X-CH(R)-Y where X, Y are N, S, or O) that may be acid/base labile, releasing an aldehyde. This compound has a N-S or N-O group and may undergo hydrolysis at high or low pH.

$$$$
