2aia_ligand
                    3D
 Schrodinger Suite 2020-3.
 38 39  0  0  1  0            999 V2000
   -4.9100   25.1530   -3.2030 C   0  0  0  0  0  0
   -5.7870   25.3700   -2.1060 C   0  0  0  0  0  0
   -5.2930   26.0020   -0.9390 C   0  0  0  0  0  0
   -3.9390   26.4140   -0.8390 C   0  0  0  0  0  0
   -3.0790   26.1880   -1.9480 C   0  0  0  0  0  0
   -3.5630   25.5600   -3.1220 C   0  0  0  0  0  0
   -7.1970   24.9340   -2.2050 C   0  0  0  0  0  0
   -8.0960   25.7520   -2.0280 O   0  0  0  0  0  0
   -7.5330   23.5080   -2.4850 C   0  0  0  0  0  0
   -6.9660   22.4120   -1.7490 C   0  0  0  0  0  0
   -7.3250   21.0810   -2.0570 C   0  0  0  0  0  0
   -8.3260   20.8290   -3.1870 C   0  0  0  0  0  0
   -8.8550   21.9330   -3.8830 C   0  0  0  0  0  0
   -8.4610   23.2450   -3.5350 C   0  0  0  0  0  0
   -3.5220   27.0430    0.3650 O   0  0  0  0  0  0
   -4.4750   27.2260    1.4190 C   0  0  0  0  0  0
   -3.8050   27.9110    2.6120 C   0  0  0  0  0  0
   -3.4270   29.2850    2.2810 N   0  0  3  0  0  0
   -4.4090   30.2820    2.1580 O   0  0  0  0  0  0
   -2.1070   29.5520    2.1030 C   0  0  0  0  0  0
   -1.6700   30.5360    1.5310 O   0  0  0  0  0  0
   -5.2795   24.6712   -4.1082 H   0  0  0  0  0  0
   -5.9670   26.1756   -0.1001 H   0  0  0  0  0  0
   -2.0363   26.5011   -1.8945 H   0  0  0  0  0  0
   -2.8923   25.3912   -3.9645 H   0  0  0  0  0  0
   -6.2540   22.6090   -0.9475 H   0  0  0  0  0  0
   -6.8966   20.2480   -1.4996 H   0  0  0  0  0  0
   -8.6240   19.8136   -3.4483 H   0  0  0  0  0  0
   -9.5693   21.7755   -4.6912 H   0  0  0  0  0  0
   -8.8811   24.0848   -4.0885 H   0  0  0  0  0  0
   -5.3042   27.8527    1.0589 H   0  0  0  0  0  0
   -4.8654   26.2472    1.7344 H   0  0  0  0  0  0
   -4.5026   27.9315    3.4623 H   0  0  0  0  0  0
   -2.8996   27.3535    2.8939 H   0  0  0  0  0  0
   -5.4694   30.0312    2.3088 H   0  0  0  0  0  0
   -1.6138   29.6322    3.0829 H   0  0  0  0  0  0
   -1.6433   28.7394    1.5245 H   0  0  0  0  0  0
   -0.5837   30.6763    1.4300 H   0  0  0  0  0  0
  1  2  2  0  0  0
  1  6  1  0  0  0
  1 22  1  0  0  0
  2  3  1  0  0  0
  2  7  1  0  0  0
  3  4  2  0  0  0
  3 23  1  0  0  0
  4  5  1  0  0  0
  4 15  1  0  0  0
  5  6  2  0  0  0
  5 24  1  0  0  0
  6 25  1  0  0  0
  7  8  2  0  0  0
  7  9  1  0  0  0
  9 10  2  0  0  0
  9 14  1  0  0  0
 10 11  1  0  0  0
 10 26  1  0  0  0
 11 12  2  0  0  0
 11 27  1  0  0  0
 12 13  1  0  0  0
 12 28  1  0  0  0
 13 14  2  0  0  0
 13 29  1  0  0  0
 14 30  1  0  0  0
 15 16  1  0  0  0
 16 17  1  0  0  0
 16 31  1  0  0  0
 16 32  1  0  0  0
 17 18  1  0  0  0
 17 33  1  0  0  0
 17 34  1  0  0  0
 18 19  1  0  0  0
 18 20  1  0  0  0
 19 35  1  0  0  0
 20 21  1  0  0  0
 20 36  1  0  0  0
 20 37  1  0  0  0
 21 38  1  0  0  0
M  END
> <s_m_source_file>
../2aia_ligand.sdf

> <i_m_source_file_index>
1

> <s_epik_input>
W2NIXTFbY0hdW2NIXVtjSF1bY0hdYzFDKD1PKWMyW2NIXVtjSF1bY0hdYyhbY0hdMilPW0NIMl1bQ0gyXVtOSCtdKFtPSF0pW0NIMl1bT0hd

> <s_epik_cmdline>
J2VwaWtfYXBwJywgJy1pbWFlJywgJ2xpZ2FuZF9wcm8ubWFlJywgJy1vbWFlJywgJ2xpZ2FuZF9wcmVwLm1hZScsICctbXMnLCAnMScsICctcGgnLCAnNycsICctcGh0JywgJzAuNScsICctbnQn

> <r_epik_Ionization_Penalty>
  0.0004

> <r_epik_Ionization_Penalty_Charging>
  0.0000

> <r_epik_Ionization_Penalty_Neutral>
  0.0004

> <r_epik_State_Penalty>
  0.1772

> <r_epik_Charging_Adjusted_Penalty>
0.177213064295696

> <i_epik_Tot_Q>
0

> <i_epik_Tot_abs_Q>
0

> <s_epik_Chemistry_Notes>
This compound contains an acetal/aminal-like group ( X-CH(R)-Y where X, Y are N, S, or O) that may be acid/base labile, releasing an aldehyde. This compound has a N-S or N-O group and may undergo hydrolysis at high or low pH.

$$$$
