2aie_ligand
                    3D
 Schrodinger Suite 2020-3.
 30 30  0  0  1  0            999 V2000
   23.8560   -5.2880    8.9670 C   0  0  0  0  0  0
   24.3230   -4.9200    7.7430 N   0  0  0  0  0  0
   25.4540   -4.1500    7.6150 C   0  0  0  0  0  0
   26.2000   -3.6970    8.7270 C   0  0  0  0  0  0
   25.7780   -4.0390   10.0210 C   0  0  0  0  0  0
   24.4910   -4.9140   10.1590 C   0  0  0  0  0  0
   22.6160   -6.1290    8.9880 C   0  0  0  0  0  0
   25.8630   -3.8130    6.2060 C   0  0  0  0  0  0
   26.8510   -4.8250    5.5960 C   0  0  0  0  0  0
   27.5010   -4.3330    4.2900 C   0  0  0  0  0  0
   28.8400   -3.8060    4.5590 N   0  0  3  0  0  0
   29.9280   -4.6730    4.5470 O   0  0  0  0  0  0
   29.0050   -2.4850    4.8130 C   0  0  0  0  0  0
   30.0810   -1.9490    5.0490 O   0  0  0  0  0  0
   27.0928   -3.0890    8.5811 H   0  0  0  0  0  0
   26.3295   -3.7055   10.9001 H   0  0  0  0  0  0
   24.1067   -5.2180   11.1326 H   0  0  0  0  0  0
   22.2779   -6.3095    7.9569 H   0  0  0  0  0  0
   21.8266   -5.6044    9.5463 H   0  0  0  0  0  0
   22.8333   -7.0905    9.4762 H   0  0  0  0  0  0
   24.9723   -3.7916    5.5608 H   0  0  0  0  0  0
   26.3500   -2.8268    6.1915 H   0  0  0  0  0  0
   27.6607   -5.0249    6.3133 H   0  0  0  0  0  0
   26.3223   -5.7626    5.3692 H   0  0  0  0  0  0
   27.5794   -5.1706    3.5813 H   0  0  0  0  0  0
   26.8825   -3.5369    3.8498 H   0  0  0  0  0  0
   29.7767   -5.7425    4.3391 H   0  0  0  0  0  0
   28.6549   -1.8992    3.9503 H   0  0  0  0  0  0
   28.4237   -2.2077    5.7047 H   0  0  0  0  0  0
   30.1255   -0.8675    5.2450 H   0  0  0  0  0  0
  1  2  2  0  0  0
  1  6  1  0  0  0
  1  7  1  0  0  0
  2  3  1  0  0  0
  3  4  2  0  0  0
  3  8  1  0  0  0
  4  5  1  0  0  0
  4 15  1  0  0  0
  5  6  2  0  0  0
  5 16  1  0  0  0
  6 17  1  0  0  0
  7 18  1  0  0  0
  7 19  1  0  0  0
  7 20  1  0  0  0
  8  9  1  0  0  0
  8 21  1  0  0  0
  8 22  1  0  0  0
  9 10  1  0  0  0
  9 23  1  0  0  0
  9 24  1  0  0  0
 10 11  1  0  0  0
 10 25  1  0  0  0
 10 26  1  0  0  0
 11 12  1  0  0  0
 11 13  1  0  0  0
 12 27  1  0  0  0
 13 14  1  0  0  0
 13 28  1  0  0  0
 13 29  1  0  0  0
 14 30  1  0  0  0
M  END
> <s_m_source_file>
../2aie_ligand.sdf

> <i_m_source_file_index>
1

> <s_epik_input>
W2NIXTFbY0hdW2NIXWMobmMxW0NIM10pW0NIMl1bQ0gyXVtDSDJdW05IK10oW09IXSlbQ0gyXVtPSF0=

> <s_epik_cmdline>
J2VwaWtfYXBwJywgJy1pbWFlJywgJ2xpZ2FuZF9wcm8ubWFlJywgJy1vbWFlJywgJ2xpZ2FuZF9wcmVwLm1hZScsICctbXMnLCAnMScsICctcGgnLCAnNycsICctcGh0JywgJzAuNScsICctbnQn

> <r_epik_Ionization_Penalty>
  0.1920

> <r_epik_Ionization_Penalty_Charging>
  0.0000

> <r_epik_Ionization_Penalty_Neutral>
  0.1920

> <r_epik_State_Penalty>
  0.3272

> <r_epik_Charging_Adjusted_Penalty>
0.327208278605741

> <i_epik_Tot_Q>
0

> <i_epik_Tot_abs_Q>
0

> <s_epik_Chemistry_Notes>
This compound contains an acetal/aminal-like group ( X-CH(R)-Y where X, Y are N, S, or O) that may be acid/base labile, releasing an aldehyde. This compound has a N-S or N-O group and may undergo hydrolysis at high or low pH.

$$$$
