2ajb_ligand
                    3D
 Schrodinger Suite 2020-3.
 58 58  0  0  1  0            999 V2000
   -6.0990   19.4950    7.2280 N   0  3  0  0  0  0
   -6.8320   19.8800    6.0270 C   0  0  1  0  0  0
   -6.3920   21.3060    5.6060 C   0  0  0  0  0  0
   -4.8890   21.4830    5.3160 C   0  0  0  0  0  0
   -6.8080   22.2970    6.7100 C   0  0  0  0  0  0
   -7.2150   21.5880    4.3290 C   0  0  0  0  0  0
   -6.5460   18.8790    4.9000 C   0  0  0  0  0  0
   -5.4100   18.4980    4.6830 O   0  0  0  0  0  0
   -7.5900   18.4360    4.1840 N   0  0  0  0  0  0
   -7.4440   17.4730    3.0800 C   0  0  2  0  0  0
   -6.9690   18.0450    1.7040 C   0  0  1  0  0  0
   -7.8330   18.8560    1.2800 O   0  0  0  0  0  0
   -8.8310   16.8330    2.9990 C   0  0  0  0  0  0
   -9.7300   17.9440    3.4290 C   0  0  0  0  0  0
   -8.9960   18.5210    4.6100 C   0  0  0  0  0  0
   -5.6850   18.7340    1.8780 N   0  3  0  0  0  0
   -5.1680   19.6300    0.8390 C   0  0  2  0  0  0
   -3.6640   19.4320    0.6520 C   0  0  0  0  0  0
   -2.9500   19.3300    1.6720 O   0  5  0  0  0  0
   -5.4470   21.1160    1.1710 C   0  0  2  0  0  0
   -5.3680   21.9600   -0.1010 C   0  0  0  0  0  0
   -4.4400   21.6300    2.1870 C   0  0  0  0  0  0
   -5.6710   23.4290    0.1200 C   0  0  0  0  0  0
   -3.2190   19.3800   -0.5140 O   0  0  0  0  0  0
   -6.3080   20.2160    8.0320 H   0  0  0  0  0  0
   -5.0203   19.4882    7.0128 H   0  0  0  0  0  0
   -6.4160   18.4904    7.5448 H   0  0  0  0  0  0
   -7.9018   19.8507    6.2814 H   0  0  0  0  0  0
   -4.3127   21.2801    6.2307 H   0  0  0  0  0  0
   -4.6986   22.5142    4.9838 H   0  0  0  0  0  0
   -4.5828   20.7810    4.5264 H   0  0  0  0  0  0
   -6.2234   22.0983    7.6204 H   0  0  0  0  0  0
   -7.8792   22.1745    6.9280 H   0  0  0  0  0  0
   -6.6184   23.3257    6.3697 H   0  0  0  0  0  0
   -6.9198   20.8816    3.5391 H   0  0  0  0  0  0
   -7.0251   22.6172    3.9903 H   0  0  0  0  0  0
   -8.2859   21.4659    4.5486 H   0  0  0  0  0  0
   -6.6302   16.7846    3.3515 H   0  0  0  0  0  0
   -6.9276   17.3459    0.8557 H   0  0  0  0  0  0
   -8.8613   18.5147    1.0900 H   0  0  0  0  0  0
   -9.0237   16.5050    1.9669 H   0  0  0  0  0  0
   -8.8744   15.9652    3.6736 H   0  0  0  0  0  0
   -9.8438   18.6635    2.6047 H   0  0  0  0  0  0
  -10.7153   17.5353    3.6976 H   0  0  0  0  0  0
   -9.1369   17.9330    5.5289 H   0  0  0  0  0  0
   -9.2577   19.5718    4.8034 H   0  0  0  0  0  0
   -5.7305   19.3740    2.7715 H   0  0  0  0  0  0
   -4.8835   17.9906    1.9999 H   0  0  0  0  0  0
   -5.7110   19.3293   -0.0691 H   0  0  0  0  0  0
   -6.4535   21.2104    1.6046 H   0  0  0  0  0  0
   -4.3536   21.8954   -0.5215 H   0  0  0  0  0  0
   -6.0944   21.5837   -0.8364 H   0  0  0  0  0  0
   -4.4985   21.0214    3.1014 H   0  0  0  0  0  0
   -4.6665   22.6788    2.4294 H   0  0  0  0  0  0
   -3.4263   21.5618    1.7653 H   0  0  0  0  0  0
   -5.5943   23.9671   -0.8363 H   0  0  0  0  0  0
   -4.9488   23.8487    0.8358 H   0  0  0  0  0  0
   -6.6896   23.5370    0.5209 H   0  0  0  0  0  0
  1  2  1  0  0  0
  1 25  1  0  0  0
  1 26  1  0  0  0
  1 27  1  0  0  0
  2  3  1  0  0  0
  2  7  1  0  0  0
  2 28  1  0  0  0
  3  4  1  0  0  0
  3  5  1  0  0  0
  3  6  1  0  0  0
  4 29  1  0  0  0
  4 30  1  0  0  0
  4 31  1  0  0  0
  5 32  1  0  0  0
  5 33  1  0  0  0
  5 34  1  0  0  0
  6 35  1  0  0  0
  6 36  1  0  0  0
  6 37  1  0  0  0
  7  8  2  0  0  0
  7  9  1  0  0  0
  9 10  1  0  0  0
  9 15  1  0  0  0
 10 11  1  0  0  0
 10 13  1  0  0  0
 10 38  1  0  0  0
 11 12  1  0  0  0
 11 16  1  0  0  0
 11 39  1  0  0  0
 12 40  1  0  0  0
 13 14  1  0  0  0
 13 41  1  0  0  0
 13 42  1  0  0  0
 14 15  1  0  0  0
 14 43  1  0  0  0
 14 44  1  0  0  0
 15 45  1  0  0  0
 15 46  1  0  0  0
 16 17  1  0  0  0
 16 47  1  0  0  0
 16 48  1  0  0  0
 17 18  1  0  0  0
 17 20  1  0  0  0
 17 49  1  0  0  0
 18 19  1  0  0  0
 18 24  2  0  0  0
 20 21  1  0  0  0
 20 22  1  0  0  0
 20 50  1  0  0  0
 21 23  1  0  0  0
 21 51  1  0  0  0
 21 52  1  0  0  0
 22 53  1  0  0  0
 22 54  1  0  0  0
 22 55  1  0  0  0
 23 56  1  0  0  0
 23 57  1  0  0  0
 23 58  1  0  0  0
M  CHG  3   1   1  16   1  19  -1
M  END
> <s_m_source_file>
../2ajb_ligand.sdf

> <i_m_source_file_index>
1

> <s_epik_input>
W0NIM11DKFtDSDNdKShbQ0gzXSlbQ0BIXShbTkgzK10pQyg9TylOMVtDQEBIXShbQ0gyXVtDSDJdW0NIMl0xKVtDQEBIXShbT0hdKVtOSDIrXVtDQEhdKEMoPU8pW09IXSlbQ0BASF0oW0NIM10pW0NIMl1bQ0gzXQ==

> <s_epik_cmdline>
J2VwaWtfYXBwJywgJy1pbWFlJywgJ2xpZ2FuZF9wcm8ubWFlJywgJy1vbWFlJywgJ2xpZ2FuZF9wcmVwLm1hZScsICctbXMnLCAnMScsICctcGgnLCAnNycsICctcGh0JywgJzAuNScsICctbnQn

> <r_lp_tautomer_probability>
1

> <r_epik_Ionization_Penalty>
  0.3016

> <r_epik_Ionization_Penalty_Charging>
  0.1505

> <r_epik_Ionization_Penalty_Neutral>
  0.1511

> <r_epik_State_Penalty>
 -0.0000

> <r_epik_Charging_Adjusted_Penalty>
0.150492302206224

> <i_epik_Tot_Q>
1

> <i_epik_Tot_abs_Q>
3

> <s_epik_Chemistry_Notes>
This compound contains an acetal/aminal-like group ( X-CH(R)-Y where X, Y are N, S, or O) that may be acid/base labile, releasing an aldehyde.

$$$$
