2ajl_ligand
                    3D
 Schrodinger Suite 2020-3.
 51 53  0  0  1  0            999 V2000
  111.4360  -77.8720  -54.5300 N   0  0  0  0  0  0
  111.8970  -78.6710  -55.6500 C   0  0  1  0  0  0
  112.9700  -77.7680  -56.2170 C   0  0  0  0  0  0
  112.3440  -76.4060  -56.0210 C   0  0  0  0  0  0
  111.9190  -76.5330  -54.5830 C   0  0  0  0  0  0
  110.3970  -78.2460  -53.7940 C   0  0  0  0  0  0
  110.2140  -77.3510  -52.5820 C   0  0  1  0  0  0
  109.6850  -79.2100  -54.0640 O   0  0  0  0  0  0
  108.8180  -76.9090  -52.4810 N   0  3  0  0  0  0
  110.6220  -78.2600  -51.4130 C   0  0  0  0  0  0
  110.0470  -76.7200  -47.3950 C   0  0  0  0  0  0
  108.9310  -77.0970  -48.1690 C   0  0  0  0  0  0
  109.0960  -77.6010  -49.4730 C   0  0  0  0  0  0
  110.4040  -77.7100  -50.0140 C   0  0  0  0  0  0
  111.5330  -77.3560  -49.2720 C   0  0  0  0  0  0
  111.3320  -76.8610  -47.9780 C   0  0  0  0  0  0
  109.6580  -75.1680  -43.4050 C   0  0  0  0  0  0
  108.4970  -75.3570  -44.1960 C   0  0  0  0  0  0
  108.6260  -75.8780  -45.5180 C   0  0  0  0  0  0
  109.9070  -76.2130  -46.0680 C   0  0  0  0  0  0
  111.0520  -76.0150  -45.2190 C   0  0  0  0  0  0
  110.9380  -75.4980  -43.9040 C   0  0  0  0  0  0
  112.4500  -80.0580  -55.5000 C   0  0  0  0  0  0
  112.4210  -80.8840  -54.5080 N   0  3  0  0  0  0
  110.9795  -78.9191  -56.2037 H   0  0  0  0  0  0
  113.9025  -77.9059  -55.6501 H   0  0  0  0  0  0
  113.1422  -78.0217  -57.2734 H   0  0  0  0  0  0
  113.0987  -75.6263  -56.2011 H   0  0  0  0  0  0
  111.5109  -76.2802  -56.7281 H   0  0  0  0  0  0
  111.1090  -75.8400  -54.3115 H   0  0  0  0  0  0
  112.7538  -76.4161  -53.8763 H   0  0  0  0  0  0
  110.7733  -76.4047  -52.6223 H   0  0  0  0  0  0
  108.5750  -76.2632  -53.3377 H   0  0  0  0  0  0
  108.6783  -76.3462  -51.5463 H   0  0  0  0  0  0
  108.1545  -77.7864  -52.4834 H   0  0  0  0  0  0
  110.0471  -79.1967  -51.4590 H   0  0  0  0  0  0
  111.6965  -78.4855  -51.4815 H   0  0  0  0  0  0
  107.9285  -76.9971  -47.7530 H   0  0  0  0  0  0
  108.2294  -77.9041  -50.0606 H   0  0  0  0  0  0
  112.5358  -77.4615  -49.6860 H   0  0  0  0  0  0
  112.2036  -76.5705  -47.3914 H   0  0  0  0  0  0
  109.5620  -74.7625  -42.3978 H   0  0  0  0  0  0
  107.5138  -75.1064  -43.7976 H   0  0  0  0  0  0
  107.7312  -76.0245  -46.1230 H   0  0  0  0  0  0
  112.0405  -76.2713  -45.6001 H   0  0  0  0  0  0
  111.8252  -75.3571  -43.2866 H   0  0  0  0  0  0
  111.9961  -80.7173  -56.2546 H   0  0  0  0  0  0
  113.5406  -80.0352  -55.6415 H   0  0  0  0  0  0
  112.9418  -81.8116  -54.7879 H   0  0  0  0  0  0
  111.3760  -81.1131  -54.2521 H   0  0  0  0  0  0
  112.9205  -80.4310  -53.6390 H   0  0  0  0  0  0
  1  2  1  0  0  0
  1  5  1  0  0  0
  1  6  1  0  0  0
  2  3  1  0  0  0
  2 23  1  0  0  0
  2 25  1  0  0  0
  3  4  1  0  0  0
  3 26  1  0  0  0
  3 27  1  0  0  0
  4  5  1  0  0  0
  4 28  1  0  0  0
  4 29  1  0  0  0
  5 30  1  0  0  0
  5 31  1  0  0  0
  6  7  1  0  0  0
  6  8  2  0  0  0
  7  9  1  0  0  0
  7 10  1  0  0  0
  7 32  1  0  0  0
  9 33  1  0  0  0
  9 34  1  0  0  0
  9 35  1  0  0  0
 10 14  1  0  0  0
 10 36  1  0  0  0
 10 37  1  0  0  0
 11 12  2  0  0  0
 11 16  1  0  0  0
 11 20  1  0  0  0
 12 13  1  0  0  0
 12 38  1  0  0  0
 13 14  2  0  0  0
 13 39  1  0  0  0
 14 15  1  0  0  0
 15 16  2  0  0  0
 15 40  1  0  0  0
 16 41  1  0  0  0
 17 18  2  0  0  0
 17 22  1  0  0  0
 17 42  1  0  0  0
 18 19  1  0  0  0
 18 43  1  0  0  0
 19 20  2  0  0  0
 19 44  1  0  0  0
 20 21  1  0  0  0
 21 22  2  0  0  0
 21 45  1  0  0  0
 22 46  1  0  0  0
 23 24  1  0  0  0
 23 47  1  0  0  0
 23 48  1  0  0  0
 24 49  1  0  0  0
 24 50  1  0  0  0
 24 51  1  0  0  0
M  CHG  2   9   1  24   1
M  END
> <s_m_source_file>
../2ajl_ligand.sdf

> <i_m_source_file_index>
1

> <s_epik_input>
W0NIMl0xW0NIMl1bQ0gyXVtDQEBIXShbQ0gyXVtOSDMrXSlOMUMoPU8pW0NAQEhdKFtOSDMrXSlbQ0gyXWMoW2NIXVtjSF0yKVtjSF1bY0hdYzItYzNbY0hdW2NIXVtjSF1bY0hdW2NIXTM=

> <s_epik_cmdline>
J2VwaWtfYXBwJywgJy1pbWFlJywgJ2xpZ2FuZF9wcm8ubWFlJywgJy1vbWFlJywgJ2xpZ2FuZF9wcmVwLm1hZScsICctbXMnLCAnMScsICctcGgnLCAnNycsICctcGh0JywgJzAuNScsICctbnQn

> <r_epik_Ionization_Penalty>
  0.2069

> <r_epik_Ionization_Penalty_Charging>
  0.2069

> <r_epik_Ionization_Penalty_Neutral>
  0.0000

> <r_epik_State_Penalty>
  0.1941

> <r_epik_Charging_Adjusted_Penalty>
0.401015837288573

> <i_epik_Tot_Q>
2

> <i_epik_Tot_abs_Q>
2

$$$$
