2alv_ligand
                    3D
 Schrodinger Suite 2020-3.
 82 83  0  0  1  0            999 V2000
   73.3760   47.7140   18.4330 C   0  0  0  0  0  0
   72.8930   46.2990   18.6050 C   0  0  0  0  0  0
   71.9590   45.8240   17.7670 O   0  0  0  0  0  0
   71.7080   44.4820   18.1770 N   0  0  0  0  0  0
   72.4860   44.2900   19.1810 C   0  0  0  0  0  0
   73.3040   45.4570   19.5210 C   0  0  0  0  0  0
   72.5940   43.0470   19.9540 C   0  0  0  0  0  0
   73.0910   42.0800   19.3140 O   0  0  0  0  0  0
   72.2270   42.9390   21.2720 N   0  0  0  0  0  0
   72.3260   41.7740   22.1820 C   0  0  1  0  0  0
   72.1330   42.1430   23.7530 C   0  0  0  0  0  0
   72.2900   40.9620   24.7780 C   0  0  0  0  0  0
   70.7360   42.8150   24.0190 C   0  0  0  0  0  0
   71.3590   40.6490   21.7020 C   0  0  0  0  0  0
   70.1250   40.8390   21.5470 O   0  0  0  0  0  0
   72.0130   39.2830   21.4870 C   0  0  0  0  0  0
   71.1410   38.0200   21.0920 C   0  0  1  0  0  0
   72.1390   36.8100   20.9160 C   0  0  0  0  0  0
   73.0630   37.0400   19.7340 C   0  0  0  0  0  0
   74.1020   36.0980   19.3790 C   0  0  0  0  0  0
   74.6740   36.1150   18.0000 C   0  0  0  0  0  0
   74.6400   35.1100   20.3920 C   0  0  0  0  0  0
   70.2140   37.7990   22.3190 C   0  0  0  0  0  0
   70.7080   38.0510   23.4970 O   0  0  0  0  0  0
   68.9190   37.3770   22.1920 N   0  0  0  0  0  0
   68.1000   37.2110   23.3980 C   0  0  2  0  0  0
   67.5730   35.8690   23.8530 C   0  0  0  0  0  0
   68.8440   35.0260   24.2700 C   0  0  0  0  0  0
   68.5470   33.6490   24.9040 C   0  0  0  0  0  0
   67.3640   33.2810   25.0880 O   0  0  0  0  0  0
   69.5250   32.7600   25.3300 O   0  0  0  0  0  0
   70.3680   33.0850   26.4740 C   0  0  0  0  0  0
   69.8230   32.5050   27.8090 C   0  0  0  0  0  0
   66.8980   38.2280   23.3800 C   0  0  0  0  0  0
   66.9220   39.3590   24.4470 C   0  0  2  0  0  0
   67.1800   39.0330   25.9450 C   0  0  0  0  0  0
   66.7700   40.3700   26.6240 C   0  0  0  0  0  0
   65.6080   40.7100   25.7960 N   0  0  0  0  0  0
   65.6540   40.1510   24.5640 C   0  0  0  0  0  0
   64.8130   40.2570   23.6380 O   0  0  0  0  0  0
   72.8541   48.1789   17.5836 H   0  0  0  0  0  0
   74.4591   47.7109   18.2407 H   0  0  0  0  0  0
   73.1679   48.2864   19.3490 H   0  0  0  0  0  0
   74.0437   45.5876   20.3109 H   0  0  0  0  0  0
   71.8087   43.8884   21.6375 H   0  0  0  0  0  0
   73.3625   41.4373   22.0330 H   0  0  0  0  0  0
   72.9587   42.8354   23.9738 H   0  0  0  0  0  0
   73.2595   40.4667   24.6210 H   0  0  0  0  0  0
   71.4782   40.2352   24.6271 H   0  0  0  0  0  0
   72.2421   41.3576   25.8033 H   0  0  0  0  0  0
   70.5909   43.6494   23.3170 H   0  0  0  0  0  0
   70.7020   43.1940   25.0511 H   0  0  0  0  0  0
   69.9381   42.0716   23.8749 H   0  0  0  0  0  0
   72.7493   39.3531   20.6728 H   0  0  0  0  0  0
   72.5182   38.9686   22.4122 H   0  0  0  0  0  0
   70.5430   38.1265   20.1749 H   0  0  0  0  0  0
   72.7478   36.7015   21.8257 H   0  0  0  0  0  0
   71.5679   35.8856   20.7446 H   0  0  0  0  0  0
   72.9245   37.9556   19.1403 H   0  0  0  0  0  0
   74.1689   36.8887   17.4031 H   0  0  0  0  0  0
   74.5243   35.1324   17.5288 H   0  0  0  0  0  0
   75.7502   36.3365   18.0522 H   0  0  0  0  0  0
   74.1079   35.2369   21.3463 H   0  0  0  0  0  0
   75.7145   35.2897   20.5445 H   0  0  0  0  0  0
   74.4885   34.0855   20.0212 H   0  0  0  0  0  0
   68.4900   37.1628   21.2020 H   0  0  0  0  0  0
   68.9328   37.3565   24.1018 H   0  0  0  0  0  0
   66.5689   35.4272   23.9348 H   0  0  0  0  0  0
   69.8525   35.4316   24.1015 H   0  0  0  0  0  0
   71.3756   32.6731   26.3157 H   0  0  0  0  0  0
   70.4316   34.1776   26.5840 H   0  0  0  0  0  0
   70.4983   32.7820   28.6319 H   0  0  0  0  0  0
   69.7645   31.4090   27.7358 H   0  0  0  0  0  0
   68.8205   32.9135   28.0041 H   0  0  0  0  0  0
   66.8637   38.7379   22.4059 H   0  0  0  0  0  0
   65.9555   37.6847   23.5428 H   0  0  0  0  0  0
   67.7670   39.9025   23.9992 H   0  0  0  0  0  0
   66.5545   38.1802   26.2476 H   0  0  0  0  0  0
   68.2406   38.7786   26.0875 H   0  0  0  0  0  0
   66.5332   40.1862   27.6824 H   0  0  0  0  0  0
   67.6012   41.0871   26.5535 H   0  0  0  0  0  0
   64.8164   41.3588   26.1990 H   0  0  0  0  0  0
  1  2  1  0  0  0
  1 41  1  0  0  0
  1 42  1  0  0  0
  1 43  1  0  0  0
  2  3  1  0  0  0
  2  6  2  0  0  0
  3  4  1  0  0  0
  4  5  2  0  0  0
  5  6  1  0  0  0
  5  7  1  0  0  0
  6 44  1  0  0  0
  7  8  2  0  0  0
  7  9  1  0  0  0
  9 10  1  0  0  0
  9 45  1  0  0  0
 10 11  1  0  0  0
 10 14  1  0  0  0
 10 46  1  0  0  0
 11 12  1  0  0  0
 11 13  1  0  0  0
 11 47  1  0  0  0
 12 48  1  0  0  0
 12 49  1  0  0  0
 12 50  1  0  0  0
 13 51  1  0  0  0
 13 52  1  0  0  0
 13 53  1  0  0  0
 14 15  2  0  0  0
 14 16  1  0  0  0
 16 17  1  0  0  0
 16 54  1  0  0  0
 16 55  1  0  0  0
 17 18  1  0  0  0
 17 23  1  0  0  0
 17 56  1  0  0  0
 18 19  1  0  0  0
 18 57  1  0  0  0
 18 58  1  0  0  0
 19 20  2  0  0  0
 19 59  1  0  0  0
 20 21  1  0  0  0
 20 22  1  0  0  0
 21 60  1  0  0  0
 21 61  1  0  0  0
 21 62  1  0  0  0
 22 63  1  0  0  0
 22 64  1  0  0  0
 22 65  1  0  0  0
 23 24  2  0  0  0
 23 25  1  0  0  0
 25 26  1  0  0  0
 25 66  1  0  0  0
 26 27  1  0  0  0
 26 34  1  0  0  0
 26 67  1  0  0  0
 27 28  2  0  0  0
 27 68  1  0  0  0
 28 29  1  0  0  0
 28 69  1  0  0  0
 29 30  2  0  0  0
 29 31  1  0  0  0
 31 32  1  0  0  0
 32 33  1  0  0  0
 32 70  1  0  0  0
 32 71  1  0  0  0
 33 72  1  0  0  0
 33 73  1  0  0  0
 33 74  1  0  0  0
 34 35  1  0  0  0
 34 75  1  0  0  0
 34 76  1  0  0  0
 35 36  1  0  0  0
 35 39  1  0  0  0
 35 77  1  0  0  0
 36 37  1  0  0  0
 36 78  1  0  0  0
 36 79  1  0  0  0
 37 38  1  0  0  0
 37 80  1  0  0  0
 37 81  1  0  0  0
 38 39  1  0  0  0
 38 82  1  0  0  0
 39 40  2  0  0  0
M  END
> <s_m_source_file>
../2alv_ligand.sdf

> <i_m_source_file_index>
1

> <s_epik_input>
W0NIM11jMW9uYyhbY0hdMSlDKD1PKVtOSF1bQ0BASF0oW0NIXShbQ0gzXSlbQ0gzXSlDKD1PKVtDSDJdW0NAQEhdKFtDSDJdW0NIXT1DKFtDSDNdKVtDSDNdKUMoPU8pW05IXVtDQEhdKC9bQ0hdPVtDSF0vQyg9TylPW0NIMl1bQ0gzXSlbQ0gyXVtDQEBIXTJbQ0gyXVtDSDJdW05IXUMyPU8=

> <s_epik_cmdline>
J2VwaWtfYXBwJywgJy1pbWFlJywgJ2xpZ2FuZF9wcm8ubWFlJywgJy1vbWFlJywgJ2xpZ2FuZF9wcmVwLm1hZScsICctbXMnLCAnMScsICctcGgnLCAnNycsICctcGh0JywgJzAuNScsICctbnQn

> <r_lp_tautomer_probability>
1

> <r_epik_Ionization_Penalty>
  0.0000

> <r_epik_Ionization_Penalty_Charging>
  0.0000

> <r_epik_Ionization_Penalty_Neutral>
  0.0000

> <r_epik_State_Penalty>
 -0.0000

> <r_epik_Charging_Adjusted_Penalty>
0

> <i_epik_Tot_Q>
0

> <i_epik_Tot_abs_Q>
0

> <s_epik_Chemistry_Notes>
This compound has an ester and may undergo hydrolysis at high or low pH.

$$$$
