2am4_ligand
                    3D
 Schrodinger Suite 2020-3.
 57 59  0  0  1  0            999 V2000
    2.8570   20.5620   13.3920 C   0  0  2  0  0  0
    4.3390   20.1930   13.4440 O   0  0  0  0  0  0
    4.8540   19.4600   12.2400 P   0  0  1  0  0  0
    6.2360   19.9900   11.9730 O   0  5  0  0  0  0
    4.9730   18.0790   12.7660 O   0  0  0  0  0  0
    4.0350   19.5390   10.9040 O   0  0  0  0  0  0
    3.7200   18.5240    9.7620 P   0  0  2  0  0  0
    4.0470   17.2030   10.1860 O   0  0  0  0  0  0
    4.5050   19.0630    8.5950 O   0  5  0  0  0  0
    2.1480   18.6230    9.5240 O   0  0  0  0  0  0
    1.2800   18.1470   10.5360 C   0  0  0  0  0  0
    0.0470   17.6080    9.7490 C   0  0  1  0  0  0
   -0.6530   18.6400    9.0290 O   0  0  0  0  0  0
   -0.7600   18.2440    7.6610 C   0  0  2  0  0  0
    0.3770   17.3040    7.3720 C   0  0  1  0  0  0
    0.4250   16.5470    8.7030 C   0  0  2  0  0  0
   -0.5110   15.4740    8.7220 O   0  0  0  0  0  0
    0.0440   16.5120    6.2820 O   0  0  0  0  0  0
   -0.7540   19.4880    6.8680 N   0  0  0  0  0  0
   -1.9790   19.9270    6.2950 C   0  0  0  0  0  0
   -3.0160   19.3220    6.4440 O   0  0  0  0  0  0
   -1.9890   21.1100    5.5290 N   0  0  0  0  0  0
   -0.8270   21.8560    5.3230 C   0  0  0  0  0  0
   -0.8890   22.8040    4.6920 O   0  0  0  0  0  0
    0.3820   21.4210    5.8950 C   0  0  0  0  0  0
    0.4260   20.2380    6.6660 C   0  0  0  0  0  0
    2.2130   21.7220   13.9410 C   0  0  2  0  0  0
    2.8270   22.8550   13.3520 F   0  0  0  0  0  0
    2.4800   21.8920   15.5030 C   0  0  1  0  0  0
    2.0010   23.1810   16.2120 O   0  0  0  0  0  0
    1.8680   20.6310   16.2410 C   0  0  2  0  0  0
    2.4130   20.6520   17.6620 O   0  0  0  0  0  0
    2.3730   19.2270   15.4630 C   0  0  1  0  0  0
    1.5830   18.0250   16.0670 C   0  0  0  0  0  0
    1.9560   16.7720   15.4850 O   0  0  0  0  0  0
    2.0690   19.4440   14.0660 O   0  0  0  0  0  0
    2.8152   20.8351   12.3273 H   0  0  0  0  0  0
    1.7848   17.3557   11.1096 H   0  0  0  0  0  0
    1.0132   18.9748   11.2095 H   0  0  0  0  0  0
   -0.6532   17.2160   10.5014 H   0  0  0  0  0  0
   -1.7012   17.7169    7.4457 H   0  0  0  0  0  0
    1.3336   17.7137    7.0155 H   0  0  0  0  0  0
    1.3762   16.0267    8.8888 H   0  0  0  0  0  0
   -0.5963   14.8342    9.6128 H   0  0  0  0  0  0
   -0.0185   16.9566    5.2778 H   0  0  0  0  0  0
   -2.9271   21.4649    5.0774 H   0  0  0  0  0  0
    1.2921   22.0011    5.7423 H   0  0  0  0  0  0
    1.3672   19.9051    7.1035 H   0  0  0  0  0  0
    1.1575   21.6230   13.6475 H   0  0  0  0  0  0
    3.5702   22.0060   15.5953 H   0  0  0  0  0  0
    2.3238   24.1650   15.8412 H   0  0  0  0  0  0
    0.7727   20.7114   16.3036 H   0  0  0  0  0  0
    2.1849   21.4987   18.3261 H   0  0  0  0  0  0
    3.4370   18.9482   15.4730 H   0  0  0  0  0  0
    1.7762   17.9655   17.1483 H   0  0  0  0  0  0
    0.5063   18.1699   15.8943 H   0  0  0  0  0  0
    1.4730   15.8432   15.8227 H   0  0  0  0  0  0
  1  2  1  0  0  0
  1 27  1  0  0  0
  1 36  1  0  0  0
  1 37  1  0  0  0
  2  3  1  0  0  0
  3  4  1  0  0  0
  3  5  2  0  0  0
  3  6  1  0  0  0
  6  7  1  0  0  0
  7  8  2  0  0  0
  7  9  1  0  0  0
  7 10  1  0  0  0
 10 11  1  0  0  0
 11 12  1  0  0  0
 11 38  1  0  0  0
 11 39  1  0  0  0
 12 13  1  0  0  0
 12 16  1  0  0  0
 12 40  1  0  0  0
 13 14  1  0  0  0
 14 15  1  0  0  0
 14 19  1  0  0  0
 14 41  1  0  0  0
 15 16  1  0  0  0
 15 18  1  0  0  0
 15 42  1  0  0  0
 16 17  1  0  0  0
 16 43  1  0  0  0
 17 44  1  0  0  0
 18 45  1  0  0  0
 19 20  1  0  0  0
 19 26  1  0  0  0
 20 21  2  0  0  0
 20 22  1  0  0  0
 22 23  1  0  0  0
 22 46  1  0  0  0
 23 24  2  0  0  0
 23 25  1  0  0  0
 25 26  2  0  0  0
 25 47  1  0  0  0
 26 48  1  0  0  0
 27 28  1  0  0  0
 27 29  1  0  0  0
 27 49  1  0  0  0
 29 30  1  0  0  0
 29 31  1  0  0  0
 29 50  1  0  0  0
 30 51  1  0  0  0
 31 32  1  0  0  0
 31 33  1  0  0  0
 31 52  1  0  0  0
 32 53  1  0  0  0
 33 34  1  0  0  0
 33 36  1  0  0  0
 33 54  1  0  0  0
 34 35  1  0  0  0
 34 55  1  0  0  0
 34 56  1  0  0  0
 35 57  1  0  0  0
M  CHG  2   4  -1   9  -1
M  END
> <s_m_source_file>
../2am4_ligand.sdf

> <i_m_source_file_index>
1

> <s_epik_input>
W09IXVtDSDJdW0NAQEhdKE8xKVtDQEBIXShbT0hdKVtDQEhdKFtPSF0pW0NAQEhdKEYpW0NASF0xT1tQQF0oPU8pKFtPSF0pT1tQQF0oPU8pKFtPSF0pT1tDSDJdW0NASF0yT1tDQEhdKFtDQEhdKFtPSF0pW0NAQEhdMltPSF0pbjNjKD1PKVtuSF1jKD1PKVtjSF1bY0hdMw==

> <s_epik_cmdline>
J2VwaWtfYXBwJywgJy1pbWFlJywgJ2xpZ2FuZF9wcm8ubWFlJywgJy1vbWFlJywgJ2xpZ2FuZF9wcmVwLm1hZScsICctbXMnLCAnMScsICctcGgnLCAnNycsICctcGh0JywgJzAuNScsICctbnQn

> <r_lp_tautomer_probability>
1

> <r_epik_Ionization_Penalty>
  0.0047

> <r_epik_Ionization_Penalty_Charging>
  0.0047

> <r_epik_Ionization_Penalty_Neutral>
  0.0000

> <r_epik_State_Penalty>
 -0.0000

> <r_epik_Charging_Adjusted_Penalty>
0.00472429255870253

> <i_epik_Tot_Q>
-2

> <i_epik_Tot_abs_Q>
2

> <s_epik_Chemistry_Notes>
This compound contains an acetal/aminal-like group ( X-CH(R)-Y where X, Y are N, S, or O) that may be acid/base labile, releasing an aldehyde.

$$$$
