2am9_ligand
                    3D
 Schrodinger Suite 2020-3.
 51 54  0  0  1  0            999 V2000
   26.9610    5.2750    4.7480 C   0  0  0  0  0  0
   26.0870    6.5150    5.0500 C   0  0  0  0  0  0
   24.7140    6.3800    4.4550 C   0  0  1  0  0  0
   24.0440    7.4060    3.9390 O   0  0  0  0  0  0
   24.1250    5.0470    4.4570 C   0  0  0  0  0  0
   24.8080    3.9090    4.8030 C   0  0  0  0  0  0
   24.0890    2.5690    4.7900 C   0  0  0  0  0  0
   24.8770    1.4740    4.0590 C   0  0  0  0  0  0
   26.3060    1.3630    4.6670 C   0  0  2  0  0  0
   27.0680    2.7200    4.5650 C   0  0  1  0  0  0
   26.3230    3.9250    5.2440 C   0  0  1  0  0  0
   28.5550    2.7000    5.0980 C   0  0  0  0  0  0
   29.3370    1.5340    4.4490 C   0  0  0  0  0  0
   28.6170    0.1640    4.6020 C   0  0  1  0  0  0
   27.1900    0.2970    3.9730 C   0  0  1  0  0  0
   26.6680   -1.1630    3.8940 C   0  0  0  0  0  0
   27.9500   -1.9990    3.6690 C   0  0  0  0  0  0
   29.1270   -0.9850    3.6840 C   0  0  2  0  0  0
   30.3270   -1.5900    4.2060 O   0  0  0  0  0  0
   28.5870   -0.2730    6.1200 C   0  0  0  0  0  0
   26.3440    3.8460    6.7980 C   0  0  0  0  0  0
   27.1128    5.1892    3.6619 H   0  0  0  0  0  0
   27.9354    5.3828    5.2470 H   0  0  0  0  0  0
   25.9841    6.6347    6.1386 H   0  0  0  0  0  0
   26.5632    7.4113    4.6260 H   0  0  0  0  0  0
   24.2674    6.5834    5.4394 H   0  0  0  0  0  0
   24.4914    8.4109    3.9390 H   0  0  0  0  0  0
   23.0682    4.9848    4.1582 H   0  0  0  0  0  0
   23.9261    2.2303    5.8238 H   0  0  0  0  0  0
   23.1190    2.6782    4.2828 H   0  0  0  0  0  0
   24.3568    0.5112    4.1709 H   0  0  0  0  0  0
   24.9532    1.7277    2.9914 H   0  0  0  0  0  0
   26.1443    1.0635    5.7130 H   0  0  0  0  0  0
   27.0846    2.8628    3.4744 H   0  0  0  0  0  0
   29.0480    3.6502    4.8449 H   0  0  0  0  0  0
   28.5513    2.5683    6.1901 H   0  0  0  0  0  0
   29.4609    1.7293    3.3736 H   0  0  0  0  0  0
   30.3262    1.4476    4.9223 H   0  0  0  0  0  0
   27.1729    0.7260    2.9603 H   0  0  0  0  0  0
   26.1609   -1.4225    4.8350 H   0  0  0  0  0  0
   25.9588   -1.2541    3.0581 H   0  0  0  0  0  0
   28.0515   -2.7391    4.4764 H   0  0  0  0  0  0
   27.8840   -2.5184    2.7016 H   0  0  0  0  0  0
   29.4666   -0.6573    2.6904 H   0  0  0  0  0  0
   31.2523   -1.0000    4.2818 H   0  0  0  0  0  0
   28.2223    0.5629    6.7350 H   0  0  0  0  0  0
   29.6018   -0.5497    6.4420 H   0  0  0  0  0  0
   27.9160   -1.1364    6.2398 H   0  0  0  0  0  0
   25.8099    4.7118    7.2164 H   0  0  0  0  0  0
   27.3857    3.8520    7.1514 H   0  0  0  0  0  0
   25.8513    2.9184    7.1247 H   0  0  0  0  0  0
  1  2  1  0  0  0
  1 11  1  0  0  0
  1 22  1  0  0  0
  1 23  1  0  0  0
  2  3  1  0  0  0
  2 24  1  0  0  0
  2 25  1  0  0  0
  3  4  1  0  0  0
  3  5  1  0  0  0
  3 26  1  0  0  0
  4 27  1  0  0  0
  5  6  2  0  0  0
  5 28  1  0  0  0
  6  7  1  0  0  0
  6 11  1  0  0  0
  7  8  1  0  0  0
  7 29  1  0  0  0
  7 30  1  0  0  0
  8  9  1  0  0  0
  8 31  1  0  0  0
  8 32  1  0  0  0
  9 10  1  0  0  0
  9 15  1  0  0  0
  9 33  1  0  0  0
 10 11  1  0  0  0
 10 12  1  0  0  0
 10 34  1  0  0  0
 11 21  1  0  0  0
 12 13  1  0  0  0
 12 35  1  0  0  0
 12 36  1  0  0  0
 13 14  1  0  0  0
 13 37  1  0  0  0
 13 38  1  0  0  0
 14 15  1  0  0  0
 14 18  1  0  0  0
 14 20  1  0  0  0
 15 16  1  0  0  0
 15 39  1  0  0  0
 16 17  1  0  0  0
 16 40  1  0  0  0
 16 41  1  0  0  0
 17 18  1  0  0  0
 17 42  1  0  0  0
 17 43  1  0  0  0
 18 19  1  0  0  0
 18 44  1  0  0  0
 19 45  1  0  0  0
 20 46  1  0  0  0
 20 47  1  0  0  0
 20 48  1  0  0  0
 21 49  1  0  0  0
 21 50  1  0  0  0
 21 51  1  0  0  0
M  END
> <s_m_source_file>
../2am9_ligand.sdf

> <i_m_source_file_index>
1

> <s_epik_input>
W0NIMl0xW0NIMl1bQ0hdKFtPSF0pW0NIXT1DKFtDQF0xMltDSDNdKVtDSDJdW0NIMl1bQ0BASF0zW0NAQEhdMltDSDJdW0NIMl1bQ0BAXTQoW0NIM10pW0NASF0zW0NIMl1bQ0gyXVtDQEBIXTRbT0hd

> <s_epik_cmdline>
J2VwaWtfYXBwJywgJy1pbWFlJywgJ2xpZ2FuZF9wcm8ubWFlJywgJy1vbWFlJywgJ2xpZ2FuZF9wcmVwLm1hZScsICctbXMnLCAnMScsICctcGgnLCAnNycsICctcGh0JywgJzAuNScsICctbnQn

> <r_lp_tautomer_probability>
1

> <r_epik_Ionization_Penalty>
  0.0000

> <r_epik_Ionization_Penalty_Charging>
  0.0000

> <r_epik_Ionization_Penalty_Neutral>
  0.0000

> <r_epik_State_Penalty>
 -0.0000

> <r_epik_Charging_Adjusted_Penalty>
0

> <i_epik_Tot_Q>
0

> <i_epik_Tot_abs_Q>
0

$$$$
