2ama_ligand
                    3D
 Schrodinger Suite 2020-3.
 51 54  0  0  1  0            999 V2000
   27.3330    5.1460    4.3910 C   0  0  0  0  0  0
   26.4290    6.3160    4.8430 C   0  0  0  0  0  0
   24.9960    6.0700    4.2170 C   0  0  0  0  0  0
   24.6070    7.0270    3.5420 O   0  0  0  0  0  0
   24.4570    4.9470    4.4700 C   0  0  0  0  0  0
   25.2980    3.7110    3.9910 C   0  0  2  0  0  0
   24.6020    2.3300    4.2660 C   0  0  0  0  0  0
   25.4890    1.1780    3.7360 C   0  0  0  0  0  0
   26.9030    1.1550    4.4180 C   0  0  2  0  0  0
   27.5950    2.5460    4.1760 C   0  0  1  0  0  0
   26.7230    3.7620    4.7090 C   0  0  1  0  0  0
   29.0140    2.4940    4.8300 C   0  0  0  0  0  0
   29.9300    1.3520    4.3990 C   0  0  0  0  0  0
   29.2430   -0.0370    4.5080 C   0  0  1  0  0  0
   27.8190    0.0360    3.8480 C   0  0  1  0  0  0
   27.3370   -1.4250    3.9770 C   0  0  0  0  0  0
   28.6190   -2.2230    3.5900 C   0  0  0  0  0  0
   29.7780   -1.1910    3.6800 C   0  0  2  0  0  0
   30.9260   -1.8170    4.2640 O   0  0  0  0  0  0
   29.1640   -0.4420    6.0350 C   0  0  0  0  0  0
   26.5610    3.6230    6.2790 C   0  0  0  0  0  0
   27.4898    5.2027    3.3037 H   0  0  0  0  0  0
   28.3031    5.2123    4.9053 H   0  0  0  0  0  0
   26.3734    6.3332    5.9415 H   0  0  0  0  0  0
   26.8507    7.2658    4.4823 H   0  0  0  0  0  0
   24.3184    4.8433    5.5563 H   0  0  0  0  0  0
   23.4798    4.8880    3.9684 H   0  0  0  0  0  0
   25.3813    3.7809    2.8964 H   0  0  0  0  0  0
   24.4523    2.2040    5.3485 H   0  0  0  0  0  0
   23.6280    2.3021    3.7555 H   0  0  0  0  0  0
   24.9975    0.2146    3.9369 H   0  0  0  0  0  0
   25.6348    1.2963    2.6521 H   0  0  0  0  0  0
   26.7640    0.9436    5.4885 H   0  0  0  0  0  0
   27.7047    2.7177    3.0950 H   0  0  0  0  0  0
   29.5607    3.4188    4.5937 H   0  0  0  0  0  0
   28.9116    2.3972    5.9209 H   0  0  0  0  0  0
   30.2311    1.4990    3.3513 H   0  0  0  0  0  0
   30.8245    1.3379    5.0390 H   0  0  0  0  0  0
   27.7989    0.3572    2.7961 H   0  0  0  0  0  0
   27.0073   -1.6125    5.0096 H   0  0  0  0  0  0
   26.4974   -1.5964    3.2872 H   0  0  0  0  0  0
   28.7603   -3.0547    4.2960 H   0  0  0  0  0  0
   28.5089   -2.6219    2.5708 H   0  0  0  0  0  0
   30.1740   -0.8254    2.7211 H   0  0  0  0  0  0
   31.8517   -1.2411    4.4104 H   0  0  0  0  0  0
   28.7748    0.4049    6.6193 H   0  0  0  0  0  0
   30.1687   -0.7061    6.3967 H   0  0  0  0  0  0
   28.4936   -1.3063    6.1509 H   0  0  0  0  0  0
   25.9583    4.4602    6.6609 H   0  0  0  0  0  0
   27.5535    3.6396    6.7529 H   0  0  0  0  0  0
   26.0587    2.6728    6.5131 H   0  0  0  0  0  0
  1  2  1  0  0  0
  1 11  1  0  0  0
  1 22  1  0  0  0
  1 23  1  0  0  0
  2  3  1  0  0  0
  2 24  1  0  0  0
  2 25  1  0  0  0
  3  4  2  0  0  0
  3  5  1  0  0  0
  5  6  1  0  0  0
  5 26  1  0  0  0
  5 27  1  0  0  0
  6  7  1  0  0  0
  6 11  1  0  0  0
  6 28  1  0  0  0
  7  8  1  0  0  0
  7 29  1  0  0  0
  7 30  1  0  0  0
  8  9  1  0  0  0
  8 31  1  0  0  0
  8 32  1  0  0  0
  9 10  1  0  0  0
  9 15  1  0  0  0
  9 33  1  0  0  0
 10 11  1  0  0  0
 10 12  1  0  0  0
 10 34  1  0  0  0
 11 21  1  0  0  0
 12 13  1  0  0  0
 12 35  1  0  0  0
 12 36  1  0  0  0
 13 14  1  0  0  0
 13 37  1  0  0  0
 13 38  1  0  0  0
 14 15  1  0  0  0
 14 18  1  0  0  0
 14 20  1  0  0  0
 15 16  1  0  0  0
 15 39  1  0  0  0
 16 17  1  0  0  0
 16 40  1  0  0  0
 16 41  1  0  0  0
 17 18  1  0  0  0
 17 42  1  0  0  0
 17 43  1  0  0  0
 18 19  1  0  0  0
 18 44  1  0  0  0
 19 45  1  0  0  0
 20 46  1  0  0  0
 20 47  1  0  0  0
 20 48  1  0  0  0
 21 49  1  0  0  0
 21 50  1  0  0  0
 21 51  1  0  0  0
M  END
> <s_m_source_file>
../2ama_ligand.sdf

> <i_m_source_file_index>
1

> <s_epik_input>
W0NIMl0xW0NIMl1DKD1PKVtDSDJdW0NAQEhdKFtDQF0xMltDSDNdKVtDSDJdW0NIMl1bQ0BASF0zW0NAQEhdMltDSDJdW0NIMl1bQ0BAXTQoW0NIM10pW0NASF0zW0NIMl1bQ0gyXVtDQEBIXTRbT0hd

> <s_epik_cmdline>
J2VwaWtfYXBwJywgJy1pbWFlJywgJ2xpZ2FuZF9wcm8ubWFlJywgJy1vbWFlJywgJ2xpZ2FuZF9wcmVwLm1hZScsICctbXMnLCAnMScsICctcGgnLCAnNycsICctcGh0JywgJzAuNScsICctbnQn

> <r_lp_tautomer_probability>
1

> <r_epik_Ionization_Penalty>
  0.0000

> <r_epik_Ionization_Penalty_Charging>
  0.0000

> <r_epik_Ionization_Penalty_Neutral>
  0.0000

> <r_epik_State_Penalty>
 -0.0000

> <r_epik_Charging_Adjusted_Penalty>
0

> <i_epik_Tot_Q>
0

> <i_epik_Tot_abs_Q>
0

$$$$
