2amv_ligand
                    3D
 Schrodinger Suite 2020-3.
 48 49  0  0  1  0            999 V2000
   28.1030    2.4370   52.8170 C   0  0  0  0  0  0
   27.4550    3.8220   53.2110 C   0  0  0  0  0  0
   27.6440    4.3340   54.6160 C   0  0  0  0  0  0
   28.4830    3.5460   55.5770 C   0  0  0  0  0  0
   29.0730    2.3630   55.2320 C   0  0  0  0  0  0
   28.9040    1.7820   53.8950 C   0  0  0  0  0  0
   27.9610    1.7570   51.3900 C   0  0  2  0  0  0
   27.0460    0.3760   51.4150 C   0  0  0  0  0  0
   29.9990    0.3290   50.5870 C   0  0  0  0  0  0
   27.6410   -0.9080   51.1770 C   0  0  0  0  0  0
   29.3400    1.6580   50.7470 C   0  0  0  0  0  0
   30.0280    3.0170   50.3770 C   0  0  0  0  0  0
   31.3790    0.2200   50.1020 C   0  0  0  0  0  0
   26.9570   -2.2800   51.0880 C   0  0  0  0  0  0
   30.3800   -2.2620   52.9380 C   0  0  0  0  0  0
   29.9660   -2.1000   51.5030 C   0  0  0  0  0  0
   25.4960    0.5740   51.6760 C   0  0  0  0  0  0
   23.5260    2.1670   51.4330 C   0  0  0  0  0  0
   23.2920    2.5980   52.9070 C   0  0  0  0  0  0
   23.2690    3.2190   50.3990 C   0  0  0  0  0  0
   29.1850   -0.9100   51.0350 N   0  0  0  0  0  0
   29.3430    4.1010   50.2600 O   0  5  0  0  0  0
   31.2440    3.1440   50.3610 O   0  0  0  0  0  0
   32.2790    0.5670   50.9110 O   0  5  0  0  0  0
   31.5460   -0.1460   48.9130 O   0  0  0  0  0  0
   24.7800   -0.2850   52.1400 O   0  0  0  0  0  0
   25.0850    1.8260   51.3370 O   0  0  0  0  0  0
   26.6050    4.8260   52.2430 Cl  0  0  0  0  0  0
   27.1759    5.2669   54.9300 H   0  0  0  0  0  0
   28.6273    3.9306   56.5866 H   0  0  0  0  0  0
   29.6835    1.8384   55.9670 H   0  0  0  0  0  0
   29.3852    0.8283   53.6782 H   0  0  0  0  0  0
   27.4439    2.4397   50.6997 H   0  0  0  0  0  0
   25.8699   -2.1558   51.2016 H   0  0  0  0  0  0
   27.3372   -2.9318   51.8884 H   0  0  0  0  0  0
   27.1739   -2.7351   50.1103 H   0  0  0  0  0  0
   30.9399   -3.2017   53.0542 H   0  0  0  0  0  0
   29.4851   -2.2869   53.5772 H   0  0  0  0  0  0
   31.0181   -1.4160   53.2332 H   0  0  0  0  0  0
   30.8609   -2.0751   50.8638 H   0  0  0  0  0  0
   29.3279   -2.9460   51.2077 H   0  0  0  0  0  0
   22.7922    1.3824   51.1966 H   0  0  0  0  0  0
   22.2311    2.8506   53.0511 H   0  0  0  0  0  0
   23.9125    3.4773   53.1348 H   0  0  0  0  0  0
   23.5667    1.7714   53.5787 H   0  0  0  0  0  0
   22.2050    3.4977   50.4161 H   0  0  0  0  0  0
   23.5295    2.8272   49.4047 H   0  0  0  0  0  0
   23.8836    4.1049   50.6166 H   0  0  0  0  0  0
  1  2  2  0  0  0
  1  6  1  0  0  0
  1  7  1  0  0  0
  2  3  1  0  0  0
  2 28  1  0  0  0
  3  4  2  0  0  0
  3 29  1  0  0  0
  4  5  1  0  0  0
  4 30  1  0  0  0
  5  6  2  0  0  0
  5 31  1  0  0  0
  6 32  1  0  0  0
  7  8  1  0  0  0
  7 11  1  0  0  0
  7 33  1  0  0  0
  8 10  2  0  0  0
  8 17  1  0  0  0
  9 11  2  0  0  0
  9 13  1  0  0  0
  9 21  1  0  0  0
 10 14  1  0  0  0
 10 21  1  0  0  0
 11 12  1  0  0  0
 12 22  1  0  0  0
 12 23  2  0  0  0
 13 24  1  0  0  0
 13 25  2  0  0  0
 14 34  1  0  0  0
 14 35  1  0  0  0
 14 36  1  0  0  0
 15 16  1  0  0  0
 15 37  1  0  0  0
 15 38  1  0  0  0
 15 39  1  0  0  0
 16 21  1  0  0  0
 16 40  1  0  0  0
 16 41  1  0  0  0
 17 26  2  0  0  0
 17 27  1  0  0  0
 18 19  1  0  0  0
 18 20  1  0  0  0
 18 27  1  0  0  0
 18 42  1  0  0  0
 19 43  1  0  0  0
 19 44  1  0  0  0
 19 45  1  0  0  0
 20 46  1  0  0  0
 20 47  1  0  0  0
 20 48  1  0  0  0
M  CHG  2  22  -1  24  -1
M  END
> <s_m_source_file>
../2amv_ligand.sdf

> <i_m_source_file_index>
1

> <s_epik_input>
W2NIXTFbY0hdW2NIXVtjSF1jKENsKWMxW0NAQEhdMkMoQyg9TylPW0NIXShbQ0gzXSlbQ0gzXSk9QyhbQ0gzXSlOKFtDSDJdW0NIM10pQyhDKD1PKVtPSF0pPUMyQyg9TylbT0hd

> <s_epik_cmdline>
J2VwaWtfYXBwJywgJy1pbWFlJywgJ2xpZ2FuZF9wcm8ubWFlJywgJy1vbWFlJywgJ2xpZ2FuZF9wcmVwLm1hZScsICctbXMnLCAnMScsICctcGgnLCAnNycsICctcGh0JywgJzAuNScsICctbnQn

> <r_lp_tautomer_probability>
1

> <r_epik_Ionization_Penalty>
  0.0007

> <r_epik_Ionization_Penalty_Charging>
  0.0007

> <r_epik_Ionization_Penalty_Neutral>
  0.0000

> <r_epik_State_Penalty>
 -0.0000

> <r_epik_Charging_Adjusted_Penalty>
0.000675009627634526

> <i_epik_Tot_Q>
-2

> <i_epik_Tot_abs_Q>
2

> <s_epik_Chemistry_Notes>
This compound has an ester and may undergo hydrolysis at high or low pH.

$$$$
