2an5_ligand
                    3D
 Schrodinger Suite 2020-3.
 26 27  0  0  1  0            999 V2000
   29.4990   46.3790   17.6890 O   0  0  0  0  0  0
   28.6720   45.3280   18.1970 C   0  0  1  0  0  0
   28.1850   44.4470   17.0440 C   0  0  0  0  0  0
   27.7580   45.0510   15.8650 C   0  0  0  0  0  0
   27.2590   44.2820   14.8200 C   0  0  0  0  0  0
   27.1880   42.8970   14.9580 C   0  0  0  0  0  0
   27.6160   42.2970   16.1350 C   0  0  0  0  0  0
   28.1190   43.0610   17.1850 C   0  0  0  0  0  0
   28.6160   42.3150   18.4270 C   0  0  0  0  0  0
   28.7050   43.2460   19.6360 C   0  0  0  0  0  0
   29.4420   44.5370   19.2620 C   0  0  2  0  0  0
   29.6170   45.3720   20.4560 N   0  3  0  0  0  0
   29.1134   47.0555   16.9120 H   0  0  0  0  0  0
   27.8027   45.8143   18.6637 H   0  0  0  0  0  0
   27.8153   46.1345   15.7604 H   0  0  0  0  0  0
   26.9254   44.7592   13.8985 H   0  0  0  0  0  0
   26.7975   42.2862   14.1441 H   0  0  0  0  0  0
   27.5574   41.2135   16.2383 H   0  0  0  0  0  0
   27.9206   41.4969   18.6660 H   0  0  0  0  0  0
   29.6158   41.9007   18.2303 H   0  0  0  0  0  0
   27.6911   43.4987   19.9796 H   0  0  0  0  0  0
   29.2522   42.7428   20.4468 H   0  0  0  0  0  0
   30.4437   44.2851   18.8837 H   0  0  0  0  0  0
   30.1461   46.2967   20.1824 H   0  0  0  0  0  0
   30.2045   44.8215   21.2055 H   0  0  0  0  0  0
   28.6316   45.6237   20.8751 H   0  0  0  0  0  0
  1  2  1  0  0  0
  1 13  1  0  0  0
  2  3  1  0  0  0
  2 11  1  0  0  0
  2 14  1  0  0  0
  3  4  2  0  0  0
  3  8  1  0  0  0
  4  5  1  0  0  0
  4 15  1  0  0  0
  5  6  2  0  0  0
  5 16  1  0  0  0
  6  7  1  0  0  0
  6 17  1  0  0  0
  7  8  2  0  0  0
  7 18  1  0  0  0
  8  9  1  0  0  0
  9 10  1  0  0  0
  9 19  1  0  0  0
  9 20  1  0  0  0
 10 11  1  0  0  0
 10 21  1  0  0  0
 10 22  1  0  0  0
 11 12  1  0  0  0
 11 23  1  0  0  0
 12 24  1  0  0  0
 12 25  1  0  0  0
 12 26  1  0  0  0
M  CHG  1  12   1
M  END
> <s_m_source_file>
../2an5_ligand.sdf

> <i_m_source_file_index>
1

> <s_epik_input>
W09IXVtDQEBIXTFbQ0BASF0oW05IMytdKVtDSDJdW0NIMl1jKGMxMilbY0hdW2NIXVtjSF1bY0hdMg==

> <s_epik_cmdline>
J2VwaWtfYXBwJywgJy1pbWFlJywgJ2xpZ2FuZF9wcm8ubWFlJywgJy1vbWFlJywgJ2xpZ2FuZF9wcmVwLm1hZScsICctbXMnLCAnMScsICctcGgnLCAnNycsICctcGh0JywgJzAuNScsICctbnQn

> <r_epik_Ionization_Penalty>
  0.0135

> <r_epik_Ionization_Penalty_Charging>
  0.0135

> <r_epik_Ionization_Penalty_Neutral>
  0.0000

> <r_epik_State_Penalty>
  0.0105

> <r_epik_Charging_Adjusted_Penalty>
0.0239821746645908

> <i_epik_Tot_Q>
1

> <i_epik_Tot_abs_Q>
1

$$$$
