2ank_ligand
                    3D
 Schrodinger Suite 2020-3.
 71 73  0  0  1  0            999 V2000
   14.2050   16.0150   22.9550 C   0  0  0  0  0  0
   15.6210   16.4000   22.6200 C   0  0  0  0  0  0
   16.2270   17.1140   23.7480 N   0  3  0  0  0  0
   17.5010   17.8040   23.5530 C   0  0  1  0  0  0
   17.2490   19.0670   22.7610 C   0  0  0  0  0  0
   18.1370   18.1140   24.9350 C   0  0  0  0  0  0
   19.4500   18.9000   24.8050 C   0  0  0  0  0  0
   19.8770   19.4160   26.1920 C   0  0  0  0  0  0
   21.1920   20.2370   26.0830 C   0  0  0  0  0  0
   22.3200   19.3870   25.4440 C   0  0  0  0  0  0
   21.8720   18.8160   24.0710 C   0  0  0  0  0  0
   20.5700   17.9930   24.2290 C   0  0  0  0  0  0
   16.4490   19.8960   23.1660 O   0  0  0  0  0  0
   17.9380   19.2330   21.5890 N   0  0  0  0  0  0
   17.8250   20.3980   20.6730 C   0  0  0  0  0  0
   16.3630   20.7120   20.3240 C   0  0  0  0  0  0
   15.6270   19.7970   19.9730 O   0  0  0  0  0  0
   15.8720   21.9950   20.3940 N   0  0  0  0  0  0
   14.4630   22.3080   20.0380 C   0  0  0  0  0  0
   13.5200   22.2490   21.2250 C   0  0  0  0  0  0
   12.9190   21.0270   21.6140 C   0  0  0  0  0  0
   12.0350   21.0080   22.7180 C   0  0  0  0  0  0
   11.7570   22.2250   23.3930 C   0  0  0  0  0  0
   12.3570   23.3690   22.9890 N   0  0  0  0  0  0
   13.1990   23.4190   21.9440 C   0  0  0  0  0  0
   13.2890   16.3120   22.1890 O   0  5  0  0  0  0
   13.9690   15.3960   23.9850 O   0  0  0  0  0  0
   10.8210   22.2580   24.5630 C   0  0  0  0  0  0
   10.5980   23.4010   25.2030 N   0  3  0  0  0  0
   10.1970   21.1550   24.9740 N   0  0  0  0  0  0
   18.6030   20.0880   19.3840 C   0  0  0  0  0  0
   18.5610   21.6150   21.2750 C   0  0  0  0  0  0
   20.0040   20.7250   19.5310 C   0  0  0  0  0  0
   20.0490   21.3060   20.9710 C   0  0  0  0  0  0
   16.2072   15.4935   22.4086 H   0  0  0  0  0  0
   15.6238   17.0531   21.7349 H   0  0  0  0  0  0
   15.5403   17.8996   24.0962 H   0  0  0  0  0  0
   16.4210   16.4069   24.5680 H   0  0  0  0  0  0
   18.1628   17.1474   22.9692 H   0  0  0  0  0  0
   17.4369   18.7144   25.5344 H   0  0  0  0  0  0
   18.3532   17.1713   25.4589 H   0  0  0  0  0  0
   19.2812   19.7490   24.1262 H   0  0  0  0  0  0
   19.0856   20.0599   26.6032 H   0  0  0  0  0  0
   20.0423   18.5624   26.8659 H   0  0  0  0  0  0
   21.0191   21.1249   25.4571 H   0  0  0  0  0  0
   21.5114   20.5528   27.0871 H   0  0  0  0  0  0
   23.2109   20.0142   25.2928 H   0  0  0  0  0  0
   22.5705   18.5490   26.1112 H   0  0  0  0  0  0
   21.6897   19.6448   23.3711 H   0  0  0  0  0  0
   22.6619   18.1641   23.6696 H   0  0  0  0  0  0
   20.7494   17.1517   24.9146 H   0  0  0  0  0  0
   20.2598   17.6061   23.2471 H   0  0  0  0  0  0
   18.6224   18.4068   21.3462 H   0  0  0  0  0  0
   16.5478   22.7984   20.7224 H   0  0  0  0  0  0
   14.4075   23.3238   19.6196 H   0  0  0  0  0  0
   14.1038   21.5840   19.2918 H   0  0  0  0  0  0
   13.1358   20.1092   21.0674 H   0  0  0  0  0  0
   11.5754   20.0751   23.0446 H   0  0  0  0  0  0
   13.6381   24.3720   21.6490 H   0  0  0  0  0  0
   11.1046   24.3215   24.8774 H   0  0  0  0  0  0
   10.3696   20.2000   24.4561 H   0  0  0  0  0  0
    9.5092   21.1993   25.8313 H   0  0  0  0  0  0
   18.6847   18.9983   19.2582 H   0  0  0  0  0  0
   18.0711   20.5177   18.5223 H   0  0  0  0  0  0
   18.2109   22.5349   20.7840 H   0  0  0  0  0  0
   18.3525   21.6729   22.3535 H   0  0  0  0  0  0
   20.7746   19.9536   19.3855 H   0  0  0  0  0  0
   20.1287   21.5149   18.7757 H   0  0  0  0  0  0
   20.6362   22.2342   21.0323 H   0  0  0  0  0  0
   20.4306   20.5815   21.7056 H   0  0  0  0  0  0
    9.9068   23.4266   26.0584 H   0  0  0  0  0  0
  1  2  1  0  0  0
  1 26  1  0  0  0
  1 27  2  0  0  0
  2  3  1  0  0  0
  2 35  1  0  0  0
  2 36  1  0  0  0
  3  4  1  0  0  0
  3 37  1  0  0  0
  3 38  1  0  0  0
  4  5  1  0  0  0
  4  6  1  0  0  0
  4 39  1  0  0  0
  5 13  2  0  0  0
  5 14  1  0  0  0
  6  7  1  0  0  0
  6 40  1  0  0  0
  6 41  1  0  0  0
  7  8  1  0  0  0
  7 12  1  0  0  0
  7 42  1  0  0  0
  8  9  1  0  0  0
  8 43  1  0  0  0
  8 44  1  0  0  0
  9 10  1  0  0  0
  9 45  1  0  0  0
  9 46  1  0  0  0
 10 11  1  0  0  0
 10 47  1  0  0  0
 10 48  1  0  0  0
 11 12  1  0  0  0
 11 49  1  0  0  0
 11 50  1  0  0  0
 12 51  1  0  0  0
 12 52  1  0  0  0
 14 15  1  0  0  0
 14 53  1  0  0  0
 15 16  1  0  0  0
 15 31  1  0  0  0
 15 32  1  0  0  0
 16 17  2  0  0  0
 16 18  1  0  0  0
 18 19  1  0  0  0
 18 54  1  0  0  0
 19 20  1  0  0  0
 19 55  1  0  0  0
 19 56  1  0  0  0
 20 21  2  0  0  0
 20 25  1  0  0  0
 21 22  1  0  0  0
 21 57  1  0  0  0
 22 23  2  0  0  0
 22 58  1  0  0  0
 23 24  1  0  0  0
 23 28  1  0  0  0
 24 25  2  0  0  0
 25 59  1  0  0  0
 28 29  2  0  0  0
 28 30  1  0  0  0
 29 60  1  0  0  0
 29 71  1  0  0  0
 30 61  1  0  0  0
 30 62  1  0  0  0
 31 33  1  0  0  0
 31 63  1  0  0  0
 31 64  1  0  0  0
 32 34  1  0  0  0
 32 65  1  0  0  0
 32 66  1  0  0  0
 33 34  1  0  0  0
 33 67  1  0  0  0
 33 68  1  0  0  0
 34 69  1  0  0  0
 34 70  1  0  0  0
M  CHG  3   3   1  26  -1  29   1
M  END
> <s_m_source_file>
../2ank_ligand.sdf

> <i_m_source_file_index>
1

> <s_epik_input>
W0NIMl0xW0NIMl1bQ0gyXVtDSDJdW0NIMl1bQ0hdMVtDSDJdW0NAQEhdKFtOSDIrXVtDSDJdQyg9TylbT0hdKUMoPU8pW05IXUMyKFtDSDJdW0NIMl1bQ0gyXVtDSDJdMilDKD1PKVtOSF1bQ0gyXWMzW2NIXVtjSF1jKG5bY0hdMykvQyg9TlxbSF0pW05IMl0=

> <s_epik_cmdline>
J2VwaWtfYXBwJywgJy1pbWFlJywgJ2xpZ2FuZF9wcm8ubWFlJywgJy1vbWFlJywgJ2xpZ2FuZF9wcmVwLm1hZScsICctbXMnLCAnMScsICctcGgnLCAnNycsICctcGh0JywgJzAuNScsICctbnQn

> <r_lp_tautomer_probability>
1

> <r_epik_Ionization_Penalty>
  0.0225

> <r_epik_Ionization_Penalty_Charging>
  0.0224

> <r_epik_Ionization_Penalty_Neutral>
  0.0001

> <r_epik_State_Penalty>
 -0.0000

> <r_epik_Charging_Adjusted_Penalty>
0.022359793273371

> <i_epik_Tot_Q>
1

> <i_epik_Tot_abs_Q>
3

> <s_epik_Chemistry_Notes>
This compound has an imine and may undergo hydrolysis.

$$$$
