2anl_ligand
                    3D
 Schrodinger Suite 2020-3.
 78 81  0  0  1  0            999 V2000
   56.4850   14.6610   30.6000 C   0  0  0  0  0  0
   56.9170   14.0180   31.7500 O   0  0  0  0  0  0
   55.8570   15.8810   30.8120 C   0  0  0  0  0  0
   55.3720   16.5520   29.7190 C   0  0  0  0  0  0
   55.5190   16.0130   28.4350 C   0  0  0  0  0  0
   56.1350   14.8000   28.2100 C   0  0  0  0  0  0
   56.6210   14.1340   29.2950 C   0  0  0  0  0  0
   57.2770   12.8220   29.0630 C   0  0  0  0  0  0
   56.2460   14.2830   26.8010 C   0  0  0  0  0  0
   56.3670   12.9890   26.5280 O   0  0  0  0  0  0
   56.2370   15.0980   25.8380 N   0  0  0  0  0  0
   56.3340   14.6570   24.4560 C   0  0  1  0  0  0
   55.5220   15.6880   23.7060 C   0  0  0  0  0  0
   54.2110   15.8740   24.4290 C   0  0  0  0  0  0
   53.2900   14.8390   24.4640 C   0  0  0  0  0  0
   52.0780   15.0150   25.1010 C   0  0  0  0  0  0
   51.7990   16.2190   25.7170 C   0  0  0  0  0  0
   52.7020   17.2450   25.6710 C   0  0  0  0  0  0
   53.9170   17.0770   25.0340 C   0  0  0  0  0  0
   57.7680   14.6760   23.9660 C   0  0  2  0  0  0
   58.2030   16.0020   23.7760 O   0  0  0  0  0  0
   57.7820   14.0300   22.6320 C   0  0  0  0  0  0
   57.8490   14.7400   21.6770 O   0  0  0  0  0  0
   57.6640   12.7040   22.5670 N   0  0  0  0  0  0
   57.5850   11.8250   23.7420 C   0  0  0  0  0  0
   58.3950   10.3740   23.2090 S   0  0  0  0  0  0
   57.6250   10.4020   21.6700 C   0  0  0  0  0  0
   58.4600    9.6510   20.6490 C   0  0  0  0  0  0
   56.2720    9.7310   22.0100 C   0  0  0  0  0  0
   57.6790   11.9090   21.3180 C   0  0  1  0  0  0
   56.5810   12.1650   20.3140 C   0  0  0  0  0  0
   56.9210   12.2660   19.1180 O   0  0  0  0  0  0
   55.3000   12.1660   20.7780 N   0  0  0  0  0  0
   54.1690   12.1710   19.8670 C   0  0  0  0  0  0
   52.9460   12.6150   20.6230 C   0  0  0  0  0  0
   52.3390   13.8790   20.4820 C   0  0  0  0  0  0
   51.2040   14.2260   21.2090 C   0  0  0  0  0  0
   50.6750   13.3150   22.0940 C   0  0  0  0  0  0
   51.2570   12.0510   22.2290 C   0  0  0  0  0  0
   52.3970   11.7040   21.5050 C   0  0  0  0  0  0
   52.8820   14.9250   19.5330 C   0  0  0  0  0  0
   56.7755   14.4931   32.7320 H   0  0  0  0  0  0
   55.7528   16.2925   31.8159 H   0  0  0  0  0  0
   54.8693   17.5102   29.8503 H   0  0  0  0  0  0
   55.1327   16.5723   27.5829 H   0  0  0  0  0  0
   57.6162   12.4067   30.0235 H   0  0  0  0  0  0
   58.1414   12.9571   28.3962 H   0  0  0  0  0  0
   56.5593   12.1305   28.5975 H   0  0  0  0  0  0
   56.1527   16.1703   26.0685 H   0  0  0  0  0  0
   55.9701   13.6236   24.3576 H   0  0  0  0  0  0
   56.0746   16.6386   23.6755 H   0  0  0  0  0  0
   55.3407   15.3362   22.6797 H   0  0  0  0  0  0
   53.5226   13.8861   23.9886 H   0  0  0  0  0  0
   51.3453   14.2081   25.1176 H   0  0  0  0  0  0
   50.8536   16.3524   26.2429 H   0  0  0  0  0  0
   52.4624   18.1998   26.1389 H   0  0  0  0  0  0
   54.6398   17.8926   25.0102 H   0  0  0  0  0  0
   58.4565   14.2139   24.6888 H   0  0  0  0  0  0
   58.2757   16.6854   24.6349 H   0  0  0  0  0  0
   58.0934   12.3030   24.5923 H   0  0  0  0  0  0
   56.5298   11.6486   23.9977 H   0  0  0  0  0  0
   58.4380    8.5752   20.8773 H   0  0  0  0  0  0
   59.4981   10.0127   20.6869 H   0  0  0  0  0  0
   58.0490    9.8208   19.6429 H   0  0  0  0  0  0
   56.4362    8.6660   22.2309 H   0  0  0  0  0  0
   55.5896    9.8267   21.1526 H   0  0  0  0  0  0
   55.8289   10.2235   22.8881 H   0  0  0  0  0  0
   58.6039   12.2704   20.8448 H   0  0  0  0  0  0
   55.1307   12.1629   21.8649 H   0  0  0  0  0  0
   54.3693   12.8653   19.0376 H   0  0  0  0  0  0
   54.0152   11.1576   19.4678 H   0  0  0  0  0  0
   50.7414   15.2044   21.0792 H   0  0  0  0  0  0
   49.8016   13.5789   22.6903 H   0  0  0  0  0  0
   50.8128   11.3257   22.9107 H   0  0  0  0  0  0
   52.8516   10.7217   21.6338 H   0  0  0  0  0  0
   53.7730   14.5301   19.0230 H   0  0  0  0  0  0
   53.1536   15.8281   20.0992 H   0  0  0  0  0  0
   52.1140   15.1771   18.7869 H   0  0  0  0  0  0
  1  2  1  0  0  0
  1  3  2  0  0  0
  1  7  1  0  0  0
  2 42  1  0  0  0
  3  4  1  0  0  0
  3 43  1  0  0  0
  4  5  2  0  0  0
  4 44  1  0  0  0
  5  6  1  0  0  0
  5 45  1  0  0  0
  6  7  2  0  0  0
  6  9  1  0  0  0
  7  8  1  0  0  0
  8 46  1  0  0  0
  8 47  1  0  0  0
  8 48  1  0  0  0
  9 10  2  0  0  0
  9 11  1  0  0  0
 11 12  1  0  0  0
 11 49  1  0  0  0
 12 13  1  0  0  0
 12 20  1  0  0  0
 12 50  1  0  0  0
 13 14  1  0  0  0
 13 51  1  0  0  0
 13 52  1  0  0  0
 14 15  2  0  0  0
 14 19  1  0  0  0
 15 16  1  0  0  0
 15 53  1  0  0  0
 16 17  2  0  0  0
 16 54  1  0  0  0
 17 18  1  0  0  0
 17 55  1  0  0  0
 18 19  2  0  0  0
 18 56  1  0  0  0
 19 57  1  0  0  0
 20 21  1  0  0  0
 20 22  1  0  0  0
 20 58  1  0  0  0
 21 59  1  0  0  0
 22 23  2  0  0  0
 22 24  1  0  0  0
 24 25  1  0  0  0
 24 30  1  0  0  0
 25 26  1  0  0  0
 25 60  1  0  0  0
 25 61  1  0  0  0
 26 27  1  0  0  0
 27 28  1  0  0  0
 27 29  1  0  0  0
 27 30  1  0  0  0
 28 62  1  0  0  0
 28 63  1  0  0  0
 28 64  1  0  0  0
 29 65  1  0  0  0
 29 66  1  0  0  0
 29 67  1  0  0  0
 30 31  1  0  0  0
 30 68  1  0  0  0
 31 32  2  0  0  0
 31 33  1  0  0  0
 33 34  1  0  0  0
 33 69  1  0  0  0
 34 35  1  0  0  0
 34 70  1  0  0  0
 34 71  1  0  0  0
 35 36  2  0  0  0
 35 40  1  0  0  0
 36 37  1  0  0  0
 36 41  1  0  0  0
 37 38  2  0  0  0
 37 72  1  0  0  0
 38 39  1  0  0  0
 38 73  1  0  0  0
 39 40  2  0  0  0
 39 74  1  0  0  0
 40 75  1  0  0  0
 41 76  1  0  0  0
 41 77  1  0  0  0
 41 78  1  0  0  0
M  END
> <s_m_source_file>
../2anl_ligand.sdf

> <i_m_source_file_index>
1

> <s_epik_input>
W09IXWMxW2NIXVtjSF1bY0hdYyhjMVtDSDNdKUMoPU8pW05IXVtDQEBIXShbQ0gyXWMyW2NIXVtjSF1bY0hdW2NIXVtjSF0yKVtDQEhdKFtPSF0pQyg9TylOKFtDSDJdU0MzKFtDSDNdKVtDSDNdKVtDQEBIXTNDKD1PKVtOSF1bQ0gyXWM0YyhbQ0gzXSlbY0hdW2NIXVtjSF1bY0hdNA==

> <s_epik_cmdline>
J2VwaWtfYXBwJywgJy1pbWFlJywgJ2xpZ2FuZF9wcm8ubWFlJywgJy1vbWFlJywgJ2xpZ2FuZF9wcmVwLm1hZScsICctbXMnLCAnMScsICctcGgnLCAnNycsICctcGh0JywgJzAuNScsICctbnQn

> <r_lp_tautomer_probability>
1

> <r_epik_Ionization_Penalty>
  0.0050

> <r_epik_Ionization_Penalty_Charging>
  0.0000

> <r_epik_Ionization_Penalty_Neutral>
  0.0050

> <r_epik_State_Penalty>
 -0.0000

> <r_epik_Charging_Adjusted_Penalty>
0

> <i_epik_Tot_Q>
0

> <i_epik_Tot_abs_Q>
0

> <s_epik_Chemistry_Notes>
This compound contains an acetal/aminal-like group ( X-CH(R)-Y where X, Y are N, S, or O) that may be acid/base labile, releasing an aldehyde.

$$$$
