2anm_ligand
                    3D
 Schrodinger Suite 2020-3.
 68 70  0  0  1  0            999 V2000
   12.2240   21.1610   22.4720 C   0  0  0  0  0  0
   11.8780   22.3780   23.1190 C   0  0  0  0  0  0
   12.4600   23.5390   22.7430 N   0  0  0  0  0  0
   13.3600   23.6030   21.7510 C   0  0  0  0  0  0
   13.7480   22.4350   21.0680 C   0  0  0  0  0  0
   13.1690   21.1970   21.4270 C   0  0  0  0  0  0
   14.7580   22.5180   19.9670 C   0  0  0  0  0  0
   10.8950   22.3980   24.2200 C   0  0  0  0  0  0
   10.1260   21.3390   24.4680 N   0  0  0  0  0  0
   10.7800   23.4880   24.9690 N   0  3  0  0  0  0
   16.0820   22.4690   20.5770 N   0  0  0  0  0  0
   16.8770   21.3920   20.4140 C   0  0  0  0  0  0
   18.2340   21.3540   21.0660 C   0  0  2  0  0  0
   16.5080   20.4420   19.7560 O   0  0  0  0  0  0
   19.3380   21.4740   19.9700 C   0  0  0  0  0  0
   20.4280   20.4900   20.4650 C   0  0  0  0  0  0
   19.5900   19.3810   21.1110 C   0  0  0  0  0  0
   18.4210   20.0330   21.7250 N   0  0  0  0  0  0
   17.6310   19.5110   22.7320 C   0  0  0  0  0  0
   17.9190   18.1360   23.3220 C   0  0  2  0  0  0
   16.6820   20.1430   23.1600 O   0  0  0  0  0  0
   16.6680   17.3790   23.3980 N   0  3  0  0  0  0
   15.9240   16.9980   22.1960 C   0  0  0  0  0  0
   14.6610   16.2990   22.6260 C   0  0  0  0  0  0
   14.6840   15.5280   23.5820 O   0  5  0  0  0  0
   13.6130   16.5040   22.0240 O   0  0  0  0  0  0
   18.4930   18.2530   24.7500 C   0  0  0  0  0  0
   19.8870   18.8930   24.7340 C   0  0  0  0  0  0
   20.1930   19.5140   26.1080 C   0  0  0  0  0  0
   21.5740   20.2290   26.0500 C   0  0  0  0  0  0
   22.6870   19.2400   25.6310 C   0  0  0  0  0  0
   22.3340   18.5330   24.2990 C   0  0  0  0  0  0
   20.9570   17.8370   24.4050 C   0  0  0  0  0  0
   11.7680   20.2193   22.7776 H   0  0  0  0  0  0
   13.7930   24.5637   21.4723 H   0  0  0  0  0  0
   13.4492   20.2831   20.9033 H   0  0  0  0  0  0
   14.6214   21.6703   19.2795 H   0  0  0  0  0  0
   14.6243   23.4613   19.4171 H   0  0  0  0  0  0
   10.2192   20.4345   23.8489 H   0  0  0  0  0  0
    9.3977   21.3690   25.2919 H   0  0  0  0  0  0
   11.4138   24.3639   24.7664 H   0  0  0  0  0  0
   16.4423   23.3168   21.1781 H   0  0  0  0  0  0
   18.2795   22.1563   21.8172 H   0  0  0  0  0  0
   18.9192   21.1856   18.9946 H   0  0  0  0  0  0
   19.6961   22.5130   19.9225 H   0  0  0  0  0  0
   21.0204   20.1376   19.6078 H   0  0  0  0  0  0
   21.0875   21.0030   21.1804 H   0  0  0  0  0  0
   19.2757   18.6624   20.3397 H   0  0  0  0  0  0
   20.1920   18.8624   21.8717 H   0  0  0  0  0  0
   18.6179   17.6037   22.6600 H   0  0  0  0  0  0
   16.8531   16.4136   23.8916 H   0  0  0  0  0  0
   15.9279   17.9509   23.9770 H   0  0  0  0  0  0
   15.6782   17.8996   21.6157 H   0  0  0  0  0  0
   16.5392   16.3235   21.5824 H   0  0  0  0  0  0
   17.8263   18.8772   25.3631 H   0  0  0  0  0  0
   18.5710   17.2510   25.1971 H   0  0  0  0  0  0
   19.9001   19.6758   23.9614 H   0  0  0  0  0  0
   19.4101   20.2433   26.3633 H   0  0  0  0  0  0
   20.2191   18.7219   26.8708 H   0  0  0  0  0  0
   21.5325   21.0477   25.3165 H   0  0  0  0  0  0
   21.8174   20.6374   27.0419 H   0  0  0  0  0  0
   23.6324   19.7865   25.4988 H   0  0  0  0  0  0
   22.8115   18.4756   26.4122 H   0  0  0  0  0  0
   22.2981   19.2754   23.4881 H   0  0  0  0  0  0
   23.1001   17.7774   24.0707 H   0  0  0  0  0  0
   20.9836   17.0809   25.2035 H   0  0  0  0  0  0
   20.7116   17.3519   23.4487 H   0  0  0  0  0  0
   10.0509   23.5152   25.7922 H   0  0  0  0  0  0
  1  2  2  0  0  0
  1  6  1  0  0  0
  1 34  1  0  0  0
  2  3  1  0  0  0
  2  8  1  0  0  0
  3  4  2  0  0  0
  4  5  1  0  0  0
  4 35  1  0  0  0
  5  6  2  0  0  0
  5  7  1  0  0  0
  6 36  1  0  0  0
  7 11  1  0  0  0
  7 37  1  0  0  0
  7 38  1  0  0  0
  8  9  1  0  0  0
  8 10  2  0  0  0
  9 39  1  0  0  0
  9 40  1  0  0  0
 10 41  1  0  0  0
 10 68  1  0  0  0
 11 12  1  0  0  0
 11 42  1  0  0  0
 12 13  1  0  0  0
 12 14  2  0  0  0
 13 15  1  0  0  0
 13 18  1  0  0  0
 13 43  1  0  0  0
 15 16  1  0  0  0
 15 44  1  0  0  0
 15 45  1  0  0  0
 16 17  1  0  0  0
 16 46  1  0  0  0
 16 47  1  0  0  0
 17 18  1  0  0  0
 17 48  1  0  0  0
 17 49  1  0  0  0
 18 19  1  0  0  0
 19 20  1  0  0  0
 19 21  2  0  0  0
 20 22  1  0  0  0
 20 27  1  0  0  0
 20 50  1  0  0  0
 22 23  1  0  0  0
 22 51  1  0  0  0
 22 52  1  0  0  0
 23 24  1  0  0  0
 23 53  1  0  0  0
 23 54  1  0  0  0
 24 25  1  0  0  0
 24 26  2  0  0  0
 27 28  1  0  0  0
 27 55  1  0  0  0
 27 56  1  0  0  0
 28 29  1  0  0  0
 28 33  1  0  0  0
 28 57  1  0  0  0
 29 30  1  0  0  0
 29 58  1  0  0  0
 29 59  1  0  0  0
 30 31  1  0  0  0
 30 60  1  0  0  0
 30 61  1  0  0  0
 31 32  1  0  0  0
 31 62  1  0  0  0
 31 63  1  0  0  0
 32 33  1  0  0  0
 32 64  1  0  0  0
 32 65  1  0  0  0
 33 66  1  0  0  0
 33 67  1  0  0  0
M  CHG  3  10   1  22   1  25  -1
M  END
> <s_m_source_file>
../2anm_ligand.sdf

> <i_m_source_file_index>
1

> <s_epik_input>
W0hdXE49QyhbTkgyXSlcYzFbY0hdW2NIXWMoW2NIXW4xKVtDSDJdW05IXUMoPU8pW0NAQEhdMltDSDJdW0NIMl1bQ0gyXU4yQyg9TylbQ0BIXShbTkgyK11bQ0gyXUMoPU8pW09IXSlbQ0gyXVtDSF0zW0NIMl1bQ0gyXVtDSDJdW0NIMl1bQ0gyXTM=

> <s_epik_cmdline>
J2VwaWtfYXBwJywgJy1pbWFlJywgJ2xpZ2FuZF9wcm8ubWFlJywgJy1vbWFlJywgJ2xpZ2FuZF9wcmVwLm1hZScsICctbXMnLCAnMScsICctcGgnLCAnNycsICctcGh0JywgJzAuNScsICctbnQn

> <r_lp_tautomer_probability>
1

> <r_epik_Ionization_Penalty>
  0.1556

> <r_epik_Ionization_Penalty_Charging>
  0.1555

> <r_epik_Ionization_Penalty_Neutral>
  0.0001

> <r_epik_State_Penalty>
 -0.0000

> <r_epik_Charging_Adjusted_Penalty>
0.155514063425873

> <i_epik_Tot_Q>
1

> <i_epik_Tot_abs_Q>
3

> <s_epik_Chemistry_Notes>
This compound has an imine and may undergo hydrolysis.

$$$$
