2ao6_ligand
                    3D
 Schrodinger Suite 2020-3.
 45 48  0  0  1  0            999 V2000
   27.2230    5.6740    3.6940 C   0  0  0  0  0  0
   26.3530    6.8180    4.2060 C   0  0  0  0  0  0
   24.8960    6.6830    3.7900 C   0  0  0  0  0  0
   24.3220    5.3580    3.9950 C   0  0  0  0  0  0
   25.0940    4.2280    4.0720 C   0  0  0  0  0  0
   24.3940    2.8690    4.3110 C   0  0  0  0  0  0
   25.1900    1.7150    3.7000 C   0  0  0  0  0  0
   26.6350    1.7090    4.2960 C   0  0  2  0  0  0
   27.3540    3.0980    4.0390 C   0  0  0  0  0  0
   26.6080    4.2590    3.9420 C   0  0  0  0  0  0
   28.8360    3.0620    3.9340 C   0  0  0  0  0  0
   29.5820    1.9280    4.0330 C   0  0  0  0  0  0
   28.9390    0.5400    4.2460 C   0  0  1  0  0  0
   27.4720    0.5830    3.6920 C   0  0  1  0  0  0
   26.9510   -0.8690    3.8880 C   0  0  0  0  0  0
   28.2610   -1.6930    3.7160 C   0  0  0  0  0  0
   29.4430   -0.6890    3.4440 C   0  0  1  0  0  0
   28.9380    0.2760    5.8040 C   0  0  0  0  0  0
   29.5480   -0.4410    1.9370 C   0  0  0  0  0  0
   24.2400    7.6200    3.3440 O   0  0  0  0  0  0
   30.6520   -1.2580    3.9540 O   0  0  0  0  0  0
   27.3698    5.7821    2.6092 H   0  0  0  0  0  0
   28.1991    5.7006    4.2005 H   0  0  0  0  0  0
   26.3876    6.8413    5.3052 H   0  0  0  0  0  0
   26.7291    7.7716    3.8070 H   0  0  0  0  0  0
   23.2285    5.2845    4.0887 H   0  0  0  0  0  0
   24.2971    2.6916    5.3923 H   0  0  0  0  0  0
   23.3949    2.8853    3.8511 H   0  0  0  0  0  0
   24.6922    0.7622    3.9333 H   0  0  0  0  0  0
   25.2430    1.8434    2.6088 H   0  0  0  0  0  0
   26.5528    1.5098    5.3747 H   0  0  0  0  0  0
   29.3282    4.0312    3.7656 H   0  0  0  0  0  0
   30.6783    1.9829    3.9614 H   0  0  0  0  0  0
   27.3868    0.8714    2.6339 H   0  0  0  0  0  0
   26.5035   -0.9661    4.8882 H   0  0  0  0  0  0
   26.1923   -1.0926    3.1236 H   0  0  0  0  0  0
   28.4565   -2.2667    4.6340 H   0  0  0  0  0  0
   28.1504   -2.3848    2.8679 H   0  0  0  0  0  0
   28.5743    1.1724    6.3275 H   0  0  0  0  0  0
   29.9607    0.0462    6.1376 H   0  0  0  0  0  0
   28.2783   -0.5744    6.0313 H   0  0  0  0  0  0
   28.6072   -0.0041    1.5709 H   0  0  0  0  0  0
   29.7350   -1.3941    1.4207 H   0  0  0  0  0  0
   30.3772    0.2535    1.7366 H   0  0  0  0  0  0
   30.7387   -1.4970    5.0242 H   0  0  0  0  0  0
  1  2  1  0  0  0
  1 10  1  0  0  0
  1 22  1  0  0  0
  1 23  1  0  0  0
  2  3  1  0  0  0
  2 24  1  0  0  0
  2 25  1  0  0  0
  3  4  1  0  0  0
  3 20  2  0  0  0
  4  5  2  0  0  0
  4 26  1  0  0  0
  5  6  1  0  0  0
  5 10  1  0  0  0
  6  7  1  0  0  0
  6 27  1  0  0  0
  6 28  1  0  0  0
  7  8  1  0  0  0
  7 29  1  0  0  0
  7 30  1  0  0  0
  8  9  1  0  0  0
  8 14  1  0  0  0
  8 31  1  0  0  0
  9 10  2  0  0  0
  9 11  1  0  0  0
 11 12  2  0  0  0
 11 32  1  0  0  0
 12 13  1  0  0  0
 12 33  1  0  0  0
 13 14  1  0  0  0
 13 17  1  0  0  0
 13 18  1  0  0  0
 14 15  1  0  0  0
 14 34  1  0  0  0
 15 16  1  0  0  0
 15 35  1  0  0  0
 15 36  1  0  0  0
 16 17  1  0  0  0
 16 37  1  0  0  0
 16 38  1  0  0  0
 17 19  1  0  0  0
 17 21  1  0  0  0
 18 39  1  0  0  0
 18 40  1  0  0  0
 18 41  1  0  0  0
 19 42  1  0  0  0
 19 43  1  0  0  0
 19 44  1  0  0  0
 21 45  1  0  0  0
M  END
> <s_m_source_file>
../2ao6_ligand.sdf

> <i_m_source_file_index>
1

> <s_epik_input>
W0NIMl0xW0NIMl1DKD1PKVtDSF09QyhbQ0gyXVtDSDJdMilDMT1DKFtDSF09W0NIXTMpW0NAQEhdMltDQEBIXShbQ0BdMzRbQ0gzXSlbQ0gyXVtDSDJdW0NAXTQoW0NIM10pW09IXQ==

> <s_epik_cmdline>
J2VwaWtfYXBwJywgJy1pbWFlJywgJ2xpZ2FuZF9wcm8ubWFlJywgJy1vbWFlJywgJ2xpZ2FuZF9wcmVwLm1hZScsICctbXMnLCAnMScsICctcGgnLCAnNycsICctcGh0JywgJzAuNScsICctbnQn

> <r_lp_tautomer_probability>
1

> <r_epik_Ionization_Penalty>
  0.0000

> <r_epik_Ionization_Penalty_Charging>
  0.0000

> <r_epik_Ionization_Penalty_Neutral>
  0.0000

> <r_epik_State_Penalty>
 -0.0000

> <r_epik_Charging_Adjusted_Penalty>
0

> <i_epik_Tot_Q>
0

> <i_epik_Tot_abs_Q>
0

$$$$
