2aoc_ligand
                    3D
 Schrodinger Suite 2020-3.
126125  0  0  1  0            999 V2000
   23.5570   24.3130   19.6080 C   0  0  0  0  0  0
   23.2750   24.7250   20.7400 O   0  0  0  0  0  0
   24.2310   22.9670   19.4260 C   0  0  0  0  0  0
   23.3250   25.0520   18.5100 N   0  0  0  0  0  0
   22.7600   26.3740   18.5130 C   0  0  2  0  0  0
   21.3920   26.4760   17.8210 C   0  0  0  0  0  0
   20.7600   27.5560   17.9500 O   0  0  0  0  0  0
   23.7080   27.3720   17.8160 C   0  0  2  0  0  0
   23.9050   27.0090   16.4570 O   0  0  0  0  0  0
   25.0950   27.3220   18.5120 C   0  0  0  0  0  0
   24.5710   26.0400   15.6430 C   0  0  0  0  0  0
   20.8700   25.4690   17.1720 N   0  0  0  0  0  0
   19.5340   25.5150   16.5370 C   0  0  2  0  0  0
   18.6290   24.4790   17.1520 C   0  0  0  0  0  0
   18.5270   23.3530   16.6680 O   0  0  0  0  0  0
   19.6230   25.3100   15.0040 C   0  0  2  0  0  0
   20.7810   26.1310   14.4190 C   0  0  0  0  0  0
   18.2870   25.5440   14.3550 C   0  0  0  0  0  0
   20.6370   27.6360   14.4720 C   0  0  0  0  0  0
   18.0410   24.8270   18.2650 N   0  0  0  0  0  0
   17.3080   23.8360   19.0690 C   0  0  2  0  0  0
   15.8110   23.8700   18.8570 C   0  0  0  0  0  0
   17.6270   24.0460   20.5560 C   0  0  0  0  0  0
   19.1140   24.0630   20.9220 C   0  0  0  0  0  0
   19.8820   22.8530   20.4200 C   0  0  0  0  0  0
   19.3310   21.5400   20.9220 C   0  0  0  0  0  0
   15.4340   23.7600   17.4780 N   0  3  0  0  0  0
   14.1590   23.0960   17.2070 C   0  0  2  0  0  0
   14.2020   21.6520   17.6420 C   0  0  0  0  0  0
   15.2370   21.0030   17.6870 O   0  0  0  0  0  0
   13.6830   23.1670   15.7630 C   0  0  0  0  0  0
   14.6790   22.5100   14.8440 C   0  0  0  0  0  0
   14.1690   22.4260   13.4410 C   0  0  0  0  0  0
   15.1590   21.9110   12.4620 C   0  0  0  0  0  0
   13.0420   21.1090   17.9150 N   0  0  0  0  0  0
   12.9040   19.6970   18.3040 C   0  0  2  0  0  0
   11.4810   19.2650   17.9600 C   0  0  0  0  0  0
   10.4990   19.9420   18.2710 O   0  0  0  0  0  0
   13.2590   19.4950   19.7640 C   0  0  0  0  0  0
   13.0610   18.1050   20.3160 C   0  0  0  0  0  0
   11.6510   17.8570   20.8440 C   0  0  0  0  0  0
   10.9740   18.7750   21.2350 O   0  0  0  0  0  0
   11.1870   16.6300   20.8000 N   0  0  0  0  0  0
   11.3810   18.0520   17.4630 N   0  0  0  0  0  0
   10.1000   17.4480   17.1380 C   0  0  2  0  0  0
   10.0400   16.0600   17.7590 C   0  0  0  0  0  0
   11.0360   15.3260   17.7620 O   0  0  0  0  0  0
    9.9260   17.3170   15.6310 C   0  0  0  0  0  0
    9.5630   18.5760   14.8780 C   0  0  0  0  0  0
    9.3630   18.1660   13.4190 C   0  0  0  0  0  0
    8.6890   19.1570   12.6180 N   0  0  0  0  0  0
    8.4920   18.9690   11.3070 C   0  0  0  0  0  0
    8.8940   17.8850   10.6770 N   0  0  0  0  0  0
    7.8870   19.9090   10.6320 N   0  3  0  0  0  0
    8.8050   15.6200   18.2900 N   0  0  0  0  0  0
   24.3531   22.4826   20.4060 H   0  0  0  0  0  0
   25.2182   23.1110   18.9626 H   0  0  0  0  0  0
   23.6107   22.3310   18.7774 H   0  0  0  0  0  0
   23.6016   24.5743   17.5586 H   0  0  0  0  0  0
   22.6474   26.5463   19.5936 H   0  0  0  0  0  0
   23.2561   28.3746   17.7918 H   0  0  0  0  0  0
   24.9840   27.5981   19.5710 H   0  0  0  0  0  0
   25.7785   28.0286   18.0185 H   0  0  0  0  0  0
   25.5051   26.3039   18.4396 H   0  0  0  0  0  0
   24.3660   26.2487   14.5826 H   0  0  0  0  0  0
   24.2045   25.0342   15.8963 H   0  0  0  0  0  0
   25.6548   26.0917   15.8240 H   0  0  0  0  0  0
   21.4769   24.5536   17.1106 H   0  0  0  0  0  0
   19.1302   26.5143   16.7567 H   0  0  0  0  0  0
   19.8451   24.2618   14.7553 H   0  0  0  0  0  0
   21.7074   25.8988   14.9647 H   0  0  0  0  0  0
   20.9087   25.8790   13.3559 H   0  0  0  0  0  0
   17.5277   24.9140   14.8414 H   0  0  0  0  0  0
   18.3479   25.2865   13.2873 H   0  0  0  0  0  0
   18.0080   26.6027   14.4616 H   0  0  0  0  0  0
   21.5258   28.1053   14.0250 H   0  0  0  0  0  0
   20.5396   27.9584   15.5192 H   0  0  0  0  0  0
   19.7409   27.9386   13.9104 H   0  0  0  0  0  0
   18.0978   25.8733   18.5997 H   0  0  0  0  0  0
   17.6590   22.8619   18.6975 H   0  0  0  0  0  0
   15.3451   23.0325   19.3969 H   0  0  0  0  0  0
   15.4083   24.8205   19.2370 H   0  0  0  0  0  0
   17.2180   25.0124   20.8858 H   0  0  0  0  0  0
   17.1742   23.2356   21.1462 H   0  0  0  0  0  0
   19.5886   24.9548   20.4867 H   0  0  0  0  0  0
   19.2220   24.0875   22.0164 H   0  0  0  0  0  0
   19.8467   22.8265   19.3209 H   0  0  0  0  0  0
   20.9287   22.9195   20.7518 H   0  0  0  0  0  0
   19.9335   20.7120   20.5203 H   0  0  0  0  0  0
   18.2881   21.4292   20.5903 H   0  0  0  0  0  0
   19.3700   21.5223   22.0212 H   0  0  0  0  0  0
   15.3514   24.7653   17.0392 H   0  0  0  0  0  0
   16.1972   23.1841   16.9340 H   0  0  0  0  0  0
   13.4601   23.6845   17.8196 H   0  0  0  0  0  0
   12.7167   22.6498   15.6696 H   0  0  0  0  0  0
   13.5654   24.2199   15.4670 H   0  0  0  0  0  0
   15.6120   23.0926   14.8379 H   0  0  0  0  0  0
   14.8864   21.4892   15.1976 H   0  0  0  0  0  0
   13.3007   21.7515   13.4063 H   0  0  0  0  0  0
   13.8691   23.4276   13.0993 H   0  0  0  0  0  0
   14.7038   21.8820   11.4610 H   0  0  0  0  0  0
   15.4692   20.8966   12.7533 H   0  0  0  0  0  0
   16.0375   22.5728   12.4463 H   0  0  0  0  0  0
   12.1507   21.7498   17.8448 H   0  0  0  0  0  0
   13.6276   19.0917   17.7383 H   0  0  0  0  0  0
   14.3218   19.7326   19.9192 H   0  0  0  0  0  0
   12.6404   20.1578   20.3869 H   0  0  0  0  0  0
   13.2517   17.3655   19.5243 H   0  0  0  0  0  0
   13.7595   17.9384   21.1493 H   0  0  0  0  0  0
   11.8278   15.8123   20.4385 H   0  0  0  0  0  0
   10.1573   16.4194   21.1246 H   0  0  0  0  0  0
   12.3121   17.4910   17.2947 H   0  0  0  0  0  0
    9.3319   18.1193   17.5496 H   0  0  0  0  0  0
   10.8656   16.9613   15.1830 H   0  0  0  0  0  0
    9.1219   16.5979   15.4159 H   0  0  0  0  0  0
    8.6390   19.0006   15.2974 H   0  0  0  0  0  0
   10.3787   19.3079   14.9726 H   0  0  0  0  0  0
   10.3420   17.9827   12.9522 H   0  0  0  0  0  0
    8.7585   17.2480   13.3756 H   0  0  0  0  0  0
    8.3270   20.0861   13.0824 H   0  0  0  0  0  0
    9.4051   17.0842   11.2315 H   0  0  0  0  0  0
    8.7188   17.7802    9.5961 H   0  0  0  0  0  0
    7.5452   20.8206   11.1439 H   0  0  0  0  0  0
    7.9315   16.2885   18.2775 H   0  0  0  0  0  0
    8.7180   14.6093   18.7154 H   0  0  0  0  0  0
    7.7192   19.7892    9.5515 H   0  0  0  0  0  0
  1  2  2  0  0  0
  1  3  1  0  0  0
  1  4  1  0  0  0
  3 56  1  0  0  0
  3 57  1  0  0  0
  3 58  1  0  0  0
  4  5  1  0  0  0
  4 59  1  0  0  0
  5  6  1  0  0  0
  5  8  1  0  0  0
  5 60  1  0  0  0
  6  7  2  0  0  0
  6 12  1  0  0  0
  8  9  1  0  0  0
  8 10  1  0  0  0
  8 61  1  0  0  0
  9 11  1  0  0  0
 10 62  1  0  0  0
 10 63  1  0  0  0
 10 64  1  0  0  0
 11 65  1  0  0  0
 11 66  1  0  0  0
 11 67  1  0  0  0
 12 13  1  0  0  0
 12 68  1  0  0  0
 13 14  1  0  0  0
 13 16  1  0  0  0
 13 69  1  0  0  0
 14 15  2  0  0  0
 14 20  1  0  0  0
 16 17  1  0  0  0
 16 18  1  0  0  0
 16 70  1  0  0  0
 17 19  1  0  0  0
 17 71  1  0  0  0
 17 72  1  0  0  0
 18 73  1  0  0  0
 18 74  1  0  0  0
 18 75  1  0  0  0
 19 76  1  0  0  0
 19 77  1  0  0  0
 19 78  1  0  0  0
 20 21  1  0  0  0
 20 79  1  0  0  0
 21 22  1  0  0  0
 21 23  1  0  0  0
 21 80  1  0  0  0
 22 27  1  0  0  0
 22 81  1  0  0  0
 22 82  1  0  0  0
 23 24  1  0  0  0
 23 83  1  0  0  0
 23 84  1  0  0  0
 24 25  1  0  0  0
 24 85  1  0  0  0
 24 86  1  0  0  0
 25 26  1  0  0  0
 25 87  1  0  0  0
 25 88  1  0  0  0
 26 89  1  0  0  0
 26 90  1  0  0  0
 26 91  1  0  0  0
 27 28  1  0  0  0
 27 92  1  0  0  0
 27 93  1  0  0  0
 28 29  1  0  0  0
 28 31  1  0  0  0
 28 94  1  0  0  0
 29 30  2  0  0  0
 29 35  1  0  0  0
 31 32  1  0  0  0
 31 95  1  0  0  0
 31 96  1  0  0  0
 32 33  1  0  0  0
 32 97  1  0  0  0
 32 98  1  0  0  0
 33 34  1  0  0  0
 33 99  1  0  0  0
 33100  1  0  0  0
 34101  1  0  0  0
 34102  1  0  0  0
 34103  1  0  0  0
 35 36  1  0  0  0
 35104  1  0  0  0
 36 37  1  0  0  0
 36 39  1  0  0  0
 36105  1  0  0  0
 37 38  2  0  0  0
 37 44  1  0  0  0
 39 40  1  0  0  0
 39106  1  0  0  0
 39107  1  0  0  0
 40 41  1  0  0  0
 40108  1  0  0  0
 40109  1  0  0  0
 41 42  2  0  0  0
 41 43  1  0  0  0
 43110  1  0  0  0
 43111  1  0  0  0
 44 45  1  0  0  0
 44112  1  0  0  0
 45 46  1  0  0  0
 45 48  1  0  0  0
 45113  1  0  0  0
 46 47  2  0  0  0
 46 55  1  0  0  0
 48 49  1  0  0  0
 48114  1  0  0  0
 48115  1  0  0  0
 49 50  1  0  0  0
 49116  1  0  0  0
 49117  1  0  0  0
 50 51  1  0  0  0
 50118  1  0  0  0
 50119  1  0  0  0
 51 52  1  0  0  0
 51120  1  0  0  0
 52 53  1  0  0  0
 52 54  2  0  0  0
 53121  1  0  0  0
 53122  1  0  0  0
 54123  1  0  0  0
 54126  1  0  0  0
 55124  1  0  0  0
 55125  1  0  0  0
M  CHG  2  27   1  54   1
M  END
> <s_m_source_file>
../2aoc_ligand.sdf

> <i_m_source_file_index>
1

> <s_epik_input>
Tz1DKFtDSDNdKVtOSF1bQ0BASF0oW0NAQEhdKFtDSDNdKU9bQ0gzXSlDKD1PKVtOSF1bQ0BASF0oW0NAQEhdKFtDSDNdKVtDSDJdW0NIM10pQyg9TylbTkhdW0NAQEhdKFtDSDJdW0NIMl1bQ0gyXVtDSDNdKVtDSDJdW05IMitdW0NAQEhdKFtDSDJdW0NIMl1bQ0gyXVtDSDNdKUMoPU8pW05IXVtDQEBIXShbQ0gyXVtDSDJdQyg9TylbTkgyXSlDKD1PKVtOSF1bQ0BIXShDKD1PKVtOSDJdKVtDSDJdW0NIMl1bQ0gyXVtOSF0vQyhbTkgyXSk9TlxbSF0=

> <s_epik_cmdline>
J2VwaWtfYXBwJywgJy1pbWFlJywgJ2xpZ2FuZF9wcm8ubWFlJywgJy1vbWFlJywgJ2xpZ2FuZF9wcmVwLm1hZScsICctbXMnLCAnMScsICctcGgnLCAnNycsICctcGh0JywgJzAuNScsICctbnQn

> <r_epik_Ionization_Penalty>
  0.1921

> <r_epik_Ionization_Penalty_Charging>
  0.1921

> <r_epik_Ionization_Penalty_Neutral>
  0.0000

> <r_epik_State_Penalty>
  0.1818

> <r_epik_Charging_Adjusted_Penalty>
0.37396405168134

> <i_epik_Tot_Q>
2

> <i_epik_Tot_abs_Q>
2

> <s_epik_Chemistry_Notes>
This compound has an imine and may undergo hydrolysis.

$$$$
