2aof_ligand
                    3D
 Schrodinger Suite 2020-3.
169171  0  0  1  0            999 V2000
   29.7560   24.5050   18.7370 N   0  3  0  0  0  0
   28.9570   25.5690   18.1580 C   0  0  2  0  0  0
   27.4550   25.3480   18.2380 C   0  0  0  0  0  0
   26.7700   26.1410   17.5400 O   0  0  0  0  0  0
   29.2650   25.6660   16.6620 C   0  0  0  0  0  0
   29.8560   26.9250   16.0900 C   0  0  0  0  0  0
   29.7200   26.8210   14.5660 C   0  0  0  0  0  0
   29.7180   28.1750   14.0170 N   0  0  0  0  0  0
   30.1450   28.5270   12.8140 C   0  0  0  0  0  0
   30.6290   27.6170   11.9460 N   0  0  0  0  0  0
   30.0600   29.8280   12.5310 N   0  0  0  0  0  0
   26.8800   24.3870   18.9310 N   0  0  0  0  0  0
   25.4620   24.1740   18.6040 C   0  0  2  0  0  0
   24.7090   25.3450   19.2500 C   0  0  0  0  0  0
   24.9830   25.6730   20.4010 O   0  0  0  0  0  0
   25.1100   22.8030   19.1450 C   0  0  0  0  0  0
   26.1360   22.4800   20.1470 C   0  0  0  0  0  0
   27.2680   23.4540   20.0030 C   0  0  0  0  0  0
   23.8370   25.9290   18.4380 N   0  0  0  0  0  0
   22.9560   27.0070   18.6790 C   0  0  0  0  0  0
   21.5890   26.7910   18.0520 C   0  0  0  0  0  0
   20.8100   27.6860   18.2040 O   0  0  0  0  0  0
   21.2400   25.6930   17.3910 N   0  0  0  0  0  0
   19.9000   25.5450   16.8260 C   0  0  2  0  0  0
   19.1520   24.3620   17.4400 C   0  0  0  0  0  0
   19.3000   23.2390   16.9740 O   0  0  0  0  0  0
   19.9400   25.2540   15.3220 C   0  0  0  0  0  0
   18.5560   25.1280   14.7420 C   0  0  0  0  0  0
   17.5940   24.4780   15.1750 O   0  0  0  0  0  0
   18.4010   25.8050   13.6250 N   0  0  0  0  0  0
   18.2890   24.6450   18.3830 N   0  0  0  0  0  0
   17.3900   23.6910   18.9920 C   0  0  2  0  0  0
   15.9580   23.9570   18.5820 C   0  0  0  0  0  0
   17.5590   23.8150   20.5120 C   0  0  0  0  0  0
   19.0120   23.5670   20.8570 C   0  0  0  0  0  0
   19.8350   24.6370   21.0900 C   0  0  0  0  0  0
   19.4950   22.2770   20.9590 C   0  0  0  0  0  0
   21.1600   24.4620   21.4230 C   0  0  0  0  0  0
   20.8240   22.0870   21.2690 C   0  0  0  0  0  0
   21.6470   23.1720   21.5100 C   0  0  0  0  0  0
   15.5510   23.8760   17.2920 N   0  3  0  0  0  0
   14.5170   22.9570   16.8360 C   0  0  2  0  0  0
   14.5140   21.5410   17.3610 C   0  0  0  0  0  0
   15.4980   20.8240   17.2680 O   0  0  0  0  0  0
   14.6780   22.7690   15.3250 C   0  0  0  0  0  0
   13.7030   21.6980   14.8080 C   0  0  0  0  0  0
   12.3870   22.3590   14.4790 C   0  0  0  0  0  0
   14.3450   20.9900   13.6420 C   0  0  0  0  0  0
   13.3760   21.0760   17.8560 N   0  0  0  0  0  0
   13.2350   19.6720   18.2520 C   0  0  2  0  0  0
   11.8350   19.2090   17.8520 C   0  0  0  0  0  0
   10.8620   19.9180   18.0800 O   0  0  0  0  0  0
   13.4810   19.4940   19.7430 C   0  0  0  0  0  0
   13.3450   18.0640   20.3170 C   0  0  0  0  0  0
   11.9250   17.7370   20.7380 C   0  0  0  0  0  0
   11.1270   18.6090   21.0430 O   0  0  0  0  0  0
   11.5370   16.4750   20.6830 N   0  0  0  0  0  0
   11.7430   17.9640   17.3940 N   0  0  0  0  0  0
   10.4340   17.4130   17.0600 C   0  0  2  0  0  0
   10.1710   16.0170   17.6070 C   0  0  0  0  0  0
   11.0630   15.1750   17.6060 O   0  0  0  0  0  0
   10.3400   17.3410   15.5250 C   0  0  0  0  0  0
   11.4790   16.6440   15.0330 O   0  0  0  0  0  0
    8.9270   15.7880   18.0250 N   0  0  0  0  0  0
    8.4120   14.4660   18.2970 C   0  0  2  0  0  0
    8.5340   13.6050   17.0410 C   0  0  0  0  0  0
    8.5080   14.1430   15.9340 O   0  0  0  0  0  0
    6.9180   14.5230   18.6590 C   0  0  0  0  0  0
    6.1320   14.8320   17.3870 C   0  0  0  0  0  0
    4.7340   15.3780   17.5860 C   0  0  0  0  0  0
    4.5160   16.1410   18.8030 N   0  0  0  0  0  0
    3.8910   17.3170   18.7780 C   0  0  0  0  0  0
    3.7120   17.9790   19.9170 N   0  0  0  0  0  0
    3.4630   17.8080   17.6240 N   0  0  0  0  0  0
    8.6190   12.2850   17.1240 N   0  0  0  0  0  0
    8.5440   11.4780   15.9150 C   0  0  2  0  0  0
    7.2410   11.7630   15.1640 C   0  0  0  0  0  0
    6.2970   12.2640   15.7900 O   0  0  0  0  0  0
    8.4760   10.0250   16.3990 C   0  0  0  0  0  0
    8.1660   10.1300   17.8530 C   0  0  0  0  0  0
    8.7470   11.4300   18.3270 C   0  0  0  0  0  0
    7.2400   11.4180   13.9520 N   0  0  0  0  0  0
   29.5404   24.4286   19.8130 H   0  0  0  0  0  0
   30.8234   24.7275   18.5918 H   0  0  0  0  0  0
   29.5098   23.5524   18.2451 H   0  0  0  0  0  0
   29.2455   26.4367   18.7694 H   0  0  0  0  0  0
   29.9896   24.8859   16.3855 H   0  0  0  0  0  0
   28.3379   25.5256   16.0869 H   0  0  0  0  0  0
   29.3049   27.7961   16.4740 H   0  0  0  0  0  0
   30.9130   27.0007   16.3848 H   0  0  0  0  0  0
   30.5675   26.2489   14.1605 H   0  0  0  0  0  0
   28.7790   26.3093   14.3159 H   0  0  0  0  0  0
   29.3368   29.0124   14.6199 H   0  0  0  0  0  0
   30.6766   26.5557   12.2314 H   0  0  0  0  0  0
   30.9765   27.9354   10.9521 H   0  0  0  0  0  0
   29.6564   30.5280   13.2774 H   0  0  0  0  0  0
   25.2393   24.1648   17.5268 H   0  0  0  0  0  0
   24.1091   22.8344   19.6003 H   0  0  0  0  0  0
   25.1162   22.0718   18.3232 H   0  0  0  0  0  0
   25.7015   22.5568   21.1546 H   0  0  0  0  0  0
   26.5001   21.4552   19.9818 H   0  0  0  0  0  0
   28.1980   22.9384   19.7215 H   0  0  0  0  0  0
   27.4273   24.0138   20.9364 H   0  0  0  0  0  0
   23.8605   25.4485   17.4488 H   0  0  0  0  0  0
   22.8161   27.1309   19.7630 H   0  0  0  0  0  0
   23.3810   27.9294   18.2564 H   0  0  0  0  0  0
   21.9791   24.8870   17.2721 H   0  0  0  0  0  0
   19.4379   26.5145   17.0636 H   0  0  0  0  0  0
   20.4592   26.0736   14.8037 H   0  0  0  0  0  0
   20.4766   24.3102   15.1453 H   0  0  0  0  0  0
   19.2374   26.3912   13.2166 H   0  0  0  0  0  0
   17.4350   25.7850   13.0993 H   0  0  0  0  0  0
   18.2782   25.6959   18.7079 H   0  0  0  0  0  0
   17.6606   22.6920   18.6196 H   0  0  0  0  0  0
   15.2922   23.2462   19.0933 H   0  0  0  0  0  0
   15.6814   24.9844   18.8613 H   0  0  0  0  0  0
   17.2648   24.8253   20.8324 H   0  0  0  0  0  0
   16.9224   23.0713   21.0136 H   0  0  0  0  0  0
   19.4333   25.6471   21.0103 H   0  0  0  0  0  0
   18.8361   21.4239   20.7970 H   0  0  0  0  0  0
   21.8071   25.3184   21.6128 H   0  0  0  0  0  0
   21.2288   21.0765   21.3246 H   0  0  0  0  0  0
   22.6923   23.0075   21.7717 H   0  0  0  0  0  0
   15.1537   24.8502   16.9710 H   0  0  0  0  0  0
   16.4042   23.6001   16.6549 H   0  0  0  0  0  0
   13.6271   23.4684   17.2317 H   0  0  0  0  0  0
   14.4685   23.7197   14.8129 H   0  0  0  0  0  0
   15.7075   22.4518   15.1026 H   0  0  0  0  0  0
   13.4743   20.9199   15.5511 H   0  0  0  0  0  0
   11.9882   22.8499   15.3790 H   0  0  0  0  0  0
   11.6727   21.5994   14.1285 H   0  0  0  0  0  0
   12.5409   23.1095   13.6897 H   0  0  0  0  0  0
   15.2944   20.5381   13.9651 H   0  0  0  0  0  0
   14.5386   21.7127   12.8357 H   0  0  0  0  0  0
   13.6704   20.2027   13.2746 H   0  0  0  0  0  0
   12.5272   21.7668   17.9673 H   0  0  0  0  0  0
   14.0055   19.0916   17.7234 H   0  0  0  0  0  0
   14.5058   19.8114   19.9860 H   0  0  0  0  0  0
   12.7636   20.1066   20.3087 H   0  0  0  0  0  0
   13.6479   17.3322   19.5537 H   0  0  0  0  0  0
   13.9915   17.9607   21.2009 H   0  0  0  0  0  0
   12.2567   15.6898   20.4081 H   0  0  0  0  0  0
   10.4944   16.2097   20.9121 H   0  0  0  0  0  0
   12.6469   17.3502   17.2665 H   0  0  0  0  0  0
    9.7239   18.0970   17.5478 H   0  0  0  0  0  0
    9.4217   16.8075   15.2385 H   0  0  0  0  0  0
   10.3165   18.3598   15.1109 H   0  0  0  0  0  0
   11.6014   16.4845   13.9515 H   0  0  0  0  0  0
    8.2818   16.6684   18.1612 H   0  0  0  0  0  0
    9.0253   14.0953   19.1315 H   0  0  0  0  0  0
    6.6036   13.5532   19.0721 H   0  0  0  0  0  0
    6.7519   15.3116   19.4076 H   0  0  0  0  0  0
    6.6727   15.5859   16.7959 H   0  0  0  0  0  0
    6.0189   13.9128   16.7935 H   0  0  0  0  0  0
    4.4815   16.0515   16.7538 H   0  0  0  0  0  0
    4.0158   14.5453   17.6146 H   0  0  0  0  0  0
    4.8695   15.7496   19.7683 H   0  0  0  0  0  0
    4.0754   17.5529   20.8638 H   0  0  0  0  0  0
    3.2005   18.9529   19.9126 H   0  0  0  0  0  0
    3.6217   17.2434   16.6934 H   0  0  0  0  0  0
    9.4120   11.7198   15.2841 H   0  0  0  0  0  0
    7.6867    9.4918   15.8488 H   0  0  0  0  0  0
    9.4436    9.5333   16.2204 H   0  0  0  0  0  0
    7.0757   10.1136   17.9975 H   0  0  0  0  0  0
    8.6194    9.2818   18.3868 H   0  0  0  0  0  0
    9.8073   11.3498   18.6087 H   0  0  0  0  0  0
    8.1800   11.8772   19.1568 H   0  0  0  0  0  0
    8.1446   10.9811   13.5038 H   0  0  0  0  0  0
    6.3346   11.5537   13.3423 H   0  0  0  0  0  0
  1  2  1  0  0  0
  1 83  1  0  0  0
  1 84  1  0  0  0
  1 85  1  0  0  0
  2  3  1  0  0  0
  2  5  1  0  0  0
  2 86  1  0  0  0
  3  4  2  0  0  0
  3 12  1  0  0  0
  5  6  1  0  0  0
  5 87  1  0  0  0
  5 88  1  0  0  0
  6  7  1  0  0  0
  6 89  1  0  0  0
  6 90  1  0  0  0
  7  8  1  0  0  0
  7 91  1  0  0  0
  7 92  1  0  0  0
  8  9  1  0  0  0
  8 93  1  0  0  0
  9 10  1  0  0  0
  9 11  2  0  0  0
 10 94  1  0  0  0
 10 95  1  0  0  0
 11 96  1  0  0  0
 12 13  1  0  0  0
 12 18  1  0  0  0
 13 14  1  0  0  0
 13 16  1  0  0  0
 13 97  1  0  0  0
 14 15  2  0  0  0
 14 19  1  0  0  0
 16 17  1  0  0  0
 16 98  1  0  0  0
 16 99  1  0  0  0
 17 18  1  0  0  0
 17100  1  0  0  0
 17101  1  0  0  0
 18102  1  0  0  0
 18103  1  0  0  0
 19 20  1  0  0  0
 19104  1  0  0  0
 20 21  1  0  0  0
 20105  1  0  0  0
 20106  1  0  0  0
 21 22  2  0  0  0
 21 23  1  0  0  0
 23 24  1  0  0  0
 23107  1  0  0  0
 24 25  1  0  0  0
 24 27  1  0  0  0
 24108  1  0  0  0
 25 26  2  0  0  0
 25 31  1  0  0  0
 27 28  1  0  0  0
 27109  1  0  0  0
 27110  1  0  0  0
 28 29  2  0  0  0
 28 30  1  0  0  0
 30111  1  0  0  0
 30112  1  0  0  0
 31 32  1  0  0  0
 31113  1  0  0  0
 32 33  1  0  0  0
 32 34  1  0  0  0
 32114  1  0  0  0
 33 41  1  0  0  0
 33115  1  0  0  0
 33116  1  0  0  0
 34 35  1  0  0  0
 34117  1  0  0  0
 34118  1  0  0  0
 35 36  2  0  0  0
 35 37  1  0  0  0
 36 38  1  0  0  0
 36119  1  0  0  0
 37 39  2  0  0  0
 37120  1  0  0  0
 38 40  2  0  0  0
 38121  1  0  0  0
 39 40  1  0  0  0
 39122  1  0  0  0
 40123  1  0  0  0
 41 42  1  0  0  0
 41124  1  0  0  0
 41125  1  0  0  0
 42 43  1  0  0  0
 42 45  1  0  0  0
 42126  1  0  0  0
 43 44  2  0  0  0
 43 49  1  0  0  0
 45 46  1  0  0  0
 45127  1  0  0  0
 45128  1  0  0  0
 46 47  1  0  0  0
 46 48  1  0  0  0
 46129  1  0  0  0
 47130  1  0  0  0
 47131  1  0  0  0
 47132  1  0  0  0
 48133  1  0  0  0
 48134  1  0  0  0
 48135  1  0  0  0
 49 50  1  0  0  0
 49136  1  0  0  0
 50 51  1  0  0  0
 50 53  1  0  0  0
 50137  1  0  0  0
 51 52  2  0  0  0
 51 58  1  0  0  0
 53 54  1  0  0  0
 53138  1  0  0  0
 53139  1  0  0  0
 54 55  1  0  0  0
 54140  1  0  0  0
 54141  1  0  0  0
 55 56  2  0  0  0
 55 57  1  0  0  0
 57142  1  0  0  0
 57143  1  0  0  0
 58 59  1  0  0  0
 58144  1  0  0  0
 59 60  1  0  0  0
 59 62  1  0  0  0
 59145  1  0  0  0
 60 61  2  0  0  0
 60 64  1  0  0  0
 62 63  1  0  0  0
 62146  1  0  0  0
 62147  1  0  0  0
 63148  1  0  0  0
 64 65  1  0  0  0
 64149  1  0  0  0
 65 66  1  0  0  0
 65 68  1  0  0  0
 65150  1  0  0  0
 66 67  2  0  0  0
 66 75  1  0  0  0
 68 69  1  0  0  0
 68151  1  0  0  0
 68152  1  0  0  0
 69 70  1  0  0  0
 69153  1  0  0  0
 69154  1  0  0  0
 70 71  1  0  0  0
 70155  1  0  0  0
 70156  1  0  0  0
 71 72  1  0  0  0
 71157  1  0  0  0
 72 73  1  0  0  0
 72 74  2  0  0  0
 73158  1  0  0  0
 73159  1  0  0  0
 74160  1  0  0  0
 75 76  1  0  0  0
 75 81  1  0  0  0
 76 77  1  0  0  0
 76 79  1  0  0  0
 76161  1  0  0  0
 77 78  2  0  0  0
 77 82  1  0  0  0
 79 80  1  0  0  0
 79162  1  0  0  0
 79163  1  0  0  0
 80 81  1  0  0  0
 80164  1  0  0  0
 80165  1  0  0  0
 81166  1  0  0  0
 81167  1  0  0  0
 82168  1  0  0  0
 82169  1  0  0  0
M  CHG  2   1   1  41   1
M  END
> <s_m_source_file>
../2aof_ligand.sdf

> <i_m_source_file_index>
1

> <s_epik_input>
W0hdL049QyhbTkgyXSlcW05IXVtDSDJdW0NIMl1bQ0gyXVtDQEhdKFtOSDMrXSlDKD1PKU4xW0NAQEhdKFtDSDJdW0NIMl1bQ0gyXTEpQyg9TylbTkhdW0NIMl1DKD1PKVtOSF1bQ0BASF0oW0NIMl1DKD1PKVtOSDJdKUMoPU8pW05IXVtDQEBIXShbQ0gyXWMyW2NIXVtjSF1bY0hdW2NIXVtjSF0yKVtDSDJdW05IMitdW0NAQEhdKFtDSDJdW0NIXShbQ0gzXSlbQ0gzXSlDKD1PKVtOSF1bQ0BASF0oW0NIMl1bQ0gyXUMoPU8pW05IMl0pQyg9TylbTkhdW0NAQEhdKFtDSDJdW09IXSlDKD1PKVtOSF1bQ0BIXShDKD1PKU4zW0NASF0oQyg9TylbTkgyXSlbQ0gyXVtDSDJdW0NIMl0zKVtDSDJdW0NIMl1bQ0gyXVtOSF0vQyhbTkgyXSk9TlxbSF0=

> <s_epik_cmdline>
J2VwaWtfYXBwJywgJy1pbWFlJywgJ2xpZ2FuZF9wcm8ubWFlJywgJy1vbWFlJywgJ2xpZ2FuZF9wcmVwLm1hZScsICctbXMnLCAnMScsICctcGgnLCAnNycsICctcGh0JywgJzAuNScsICctbnQn

> <s_epik_pKa_notes>
Molecule size exceeds maximum supported for generating protonation states

> <s_epik_Chemistry_Notes>
This compound has an imine and may undergo hydrolysis.

$$$$
