2aog_ligand
                    3D
 Schrodinger Suite 2020-3.
123122  0  0  1  0            999 V2000
   23.4090   24.3380   19.8370 C   0  0  0  0  0  0
   22.9580   24.7500   20.9100 O   0  0  0  0  0  0
   24.0730   23.0180   19.6860 C   0  0  0  0  0  0
   23.3340   25.1010   18.7410 N   0  0  0  0  0  0
   22.7820   26.4170   18.7280 C   0  0  2  0  0  0
   21.3940   26.5210   18.0600 C   0  0  0  0  0  0
   20.7730   27.5990   18.1710 O   0  0  0  0  0  0
   23.7180   27.4060   18.0150 C   0  0  2  0  0  0
   23.8990   26.9760   16.6590 O   0  0  0  0  0  0
   25.0840   27.4940   18.7170 C   0  0  0  0  0  0
   20.9160   25.4820   17.4120 N   0  0  0  0  0  0
   19.6290   25.5180   16.7320 C   0  0  2  0  0  0
   18.7620   24.4610   17.3580 C   0  0  0  0  0  0
   18.7270   23.3020   16.8930 O   0  0  0  0  0  0
   19.7760   25.3160   15.2160 C   0  0  2  0  0  0
   20.8930   26.1790   14.6010 C   0  0  0  0  0  0
   18.4710   25.5010   14.5110 C   0  0  0  0  0  0
   20.6560   27.6730   14.6740 C   0  0  0  0  0  0
   18.0930   24.7630   18.4100 N   0  0  0  0  0  0
   17.2900   23.8120   19.1680 C   0  0  2  0  0  0
   15.7930   23.9200   18.8920 C   0  0  0  0  0  0
   17.5910   23.9840   20.6610 C   0  0  0  0  0  0
   19.0510   24.0060   21.0530 C   0  0  0  0  0  0
   19.7750   22.7310   20.7080 C   0  0  0  0  0  0
   19.1800   21.4920   21.3350 C   0  0  0  0  0  0
   15.4740   23.7520   17.5080 N   0  3  0  0  0  0
   14.2570   23.0180   17.1030 C   0  0  2  0  0  0
   14.2740   21.6000   17.5980 C   0  0  0  0  0  0
   15.2960   20.8920   17.5240 O   0  0  0  0  0  0
   14.1960   22.9420   15.5960 C   0  0  0  0  0  0
   12.9430   22.4340   14.9470 C   0  0  0  0  0  0
   13.1020   21.0100   14.4430 C   0  0  0  0  0  0
   14.2020   20.8320   13.4250 C   0  0  0  0  0  0
   13.1400   21.1090   18.0520 N   0  0  0  0  0  0
   13.0220   19.7230   18.4990 C   0  0  2  0  0  0
   11.6150   19.2450   18.1490 C   0  0  0  0  0  0
   10.6170   19.9110   18.4430 O   0  0  0  0  0  0
   13.3860   19.5640   19.9510 C   0  0  0  0  0  0
   13.1930   18.1750   20.5100 C   0  0  0  0  0  0
   11.7850   17.8930   20.9980 C   0  0  0  0  0  0
   11.0950   18.7940   21.3860 O   0  0  0  0  0  0
   11.3560   16.6490   20.9500 N   0  0  0  0  0  0
   11.5370   18.0240   17.6610 N   0  0  0  0  0  0
   10.2990   17.4130   17.2790 C   0  0  2  0  0  0
   10.1980   16.0410   17.9470 C   0  0  0  0  0  0
   11.1370   15.2490   17.9860 O   0  0  0  0  0  0
   10.2390   17.1850   15.7790 C   0  0  0  0  0  0
   10.1700   18.4620   14.9970 C   0  0  0  0  0  0
   10.3350   18.2120   13.5210 C   0  0  0  0  0  0
    9.7860   19.3600   12.7800 N   0  0  0  0  0  0
    9.5980   19.3840   11.4910 C   0  0  0  0  0  0
    9.9970   18.3230   10.7800 N   0  0  0  0  0  0
    9.0520   20.4440   10.8900 N   0  3  0  0  0  0
    8.9430   15.7370   18.4710 N   0  0  0  0  0  0
   24.0692   22.4929   20.6526 H   0  0  0  0  0  0
   25.1109   23.1656   19.3530 H   0  0  0  0  0  0
   23.5306   22.4179   18.9406 H   0  0  0  0  0  0
   23.7285   24.6608   17.8133 H   0  0  0  0  0  0
   22.7028   26.5935   19.8109 H   0  0  0  0  0  0
   23.2595   28.4049   17.9707 H   0  0  0  0  0  0
   23.0271   26.8553   15.9992 H   0  0  0  0  0  0
   24.9414   27.8240   19.7566 H   0  0  0  0  0  0
   25.7226   28.2163   18.1873 H   0  0  0  0  0  0
   25.5647   26.5046   18.7090 H   0  0  0  0  0  0
   21.5222   24.5643   17.3938 H   0  0  0  0  0  0
   19.1926   26.5147   16.8936 H   0  0  0  0  0  0
   20.0575   24.2655   15.0513 H   0  0  0  0  0  0
   21.8393   25.9826   15.1263 H   0  0  0  0  0  0
   21.0059   25.9281   13.5360 H   0  0  0  0  0  0
   17.7060   24.8671   14.9833 H   0  0  0  0  0  0
   18.5816   25.2164   13.4542 H   0  0  0  0  0  0
   18.1650   26.5555   14.5767 H   0  0  0  0  0  0
   21.5029   28.2016   14.2120 H   0  0  0  0  0  0
   20.5632   27.9785   15.7266 H   0  0  0  0  0  0
   19.7298   27.9240   14.1363 H   0  0  0  0  0  0
   18.1513   25.8132   18.7320 H   0  0  0  0  0  0
   17.6052   22.8245   18.7998 H   0  0  0  0  0  0
   15.2588   23.1425   19.4579 H   0  0  0  0  0  0
   15.4335   24.9120   19.2028 H   0  0  0  0  0  0
   17.1696   24.9373   21.0125 H   0  0  0  0  0  0
   17.1397   23.1538   21.2241 H   0  0  0  0  0  0
   19.5588   24.8295   20.5295 H   0  0  0  0  0  0
   19.1367   24.1541   22.1396 H   0  0  0  0  0  0
   19.7562   22.5821   19.6183 H   0  0  0  0  0  0
   20.8180   22.7972   21.0511 H   0  0  0  0  0  0
   19.7656   20.6111   21.0333 H   0  0  0  0  0  0
   18.1397   21.3738   20.9977 H   0  0  0  0  0  0
   19.2015   21.5890   22.4305 H   0  0  0  0  0  0
   15.3523   24.7388   17.0374 H   0  0  0  0  0  0
   16.2870   23.2051   17.0081 H   0  0  0  0  0  0
   13.4102   23.5666   17.5412 H   0  0  0  0  0  0
   14.3400   23.9468   15.1721 H   0  0  0  0  0  0
   14.9886   22.2727   15.2302 H   0  0  0  0  0  0
   12.1196   22.4509   15.6762 H   0  0  0  0  0  0
   12.6876   23.0755   14.0907 H   0  0  0  0  0  0
   13.3347   20.3457   15.2883 H   0  0  0  0  0  0
   12.1660   20.6830   13.9666 H   0  0  0  0  0  0
   14.2479   19.7775   13.1153 H   0  0  0  0  0  0
   15.1642   21.1257   13.8698 H   0  0  0  0  0  0
   13.9956   21.4631   12.5480 H   0  0  0  0  0  0
   12.2655   21.7752   18.0892 H   0  0  0  0  0  0
   13.7710   19.1165   17.9687 H   0  0  0  0  0  0
   14.4475   19.8153   20.0925 H   0  0  0  0  0  0
   12.7654   20.2373   20.5605 H   0  0  0  0  0  0
   13.4203   17.4317   19.7317 H   0  0  0  0  0  0
   13.8676   18.0273   21.3662 H   0  0  0  0  0  0
   12.0211   15.8514   20.5874 H   0  0  0  0  0  0
   10.3325   16.4073   21.2725 H   0  0  0  0  0  0
   12.4807   17.4695   17.5519 H   0  0  0  0  0  0
    9.5246   18.1241   17.6026 H   0  0  0  0  0  0
   11.1387   16.6417   15.4544 H   0  0  0  0  0  0
    9.3448   16.5932   15.5335 H   0  0  0  0  0  0
    9.1939   18.9412   15.1629 H   0  0  0  0  0  0
   10.9716   19.1386   15.3282 H   0  0  0  0  0  0
   11.4031   18.0937   13.2863 H   0  0  0  0  0  0
    9.7945   17.2956   13.2416 H   0  0  0  0  0  0
    9.5038   20.2774   13.3174 H   0  0  0  0  0  0
   10.4451   17.4569   11.2889 H   0  0  0  0  0  0
    9.8769   18.3169    9.6866 H   0  0  0  0  0  0
    8.7287   21.3091   11.4876 H   0  0  0  0  0  0
    8.1299   16.4757   18.4149 H   0  0  0  0  0  0
    8.7655   14.7583   18.9408 H   0  0  0  0  0  0
    8.9255   20.4521    9.7973 H   0  0  0  0  0  0
  1  2  2  0  0  0
  1  3  1  0  0  0
  1  4  1  0  0  0
  3 55  1  0  0  0
  3 56  1  0  0  0
  3 57  1  0  0  0
  4  5  1  0  0  0
  4 58  1  0  0  0
  5  6  1  0  0  0
  5  8  1  0  0  0
  5 59  1  0  0  0
  6  7  2  0  0  0
  6 11  1  0  0  0
  8  9  1  0  0  0
  8 10  1  0  0  0
  8 60  1  0  0  0
  9 61  1  0  0  0
 10 62  1  0  0  0
 10 63  1  0  0  0
 10 64  1  0  0  0
 11 12  1  0  0  0
 11 65  1  0  0  0
 12 13  1  0  0  0
 12 15  1  0  0  0
 12 66  1  0  0  0
 13 14  2  0  0  0
 13 19  1  0  0  0
 15 16  1  0  0  0
 15 17  1  0  0  0
 15 67  1  0  0  0
 16 18  1  0  0  0
 16 68  1  0  0  0
 16 69  1  0  0  0
 17 70  1  0  0  0
 17 71  1  0  0  0
 17 72  1  0  0  0
 18 73  1  0  0  0
 18 74  1  0  0  0
 18 75  1  0  0  0
 19 20  1  0  0  0
 19 76  1  0  0  0
 20 21  1  0  0  0
 20 22  1  0  0  0
 20 77  1  0  0  0
 21 26  1  0  0  0
 21 78  1  0  0  0
 21 79  1  0  0  0
 22 23  1  0  0  0
 22 80  1  0  0  0
 22 81  1  0  0  0
 23 24  1  0  0  0
 23 82  1  0  0  0
 23 83  1  0  0  0
 24 25  1  0  0  0
 24 84  1  0  0  0
 24 85  1  0  0  0
 25 86  1  0  0  0
 25 87  1  0  0  0
 25 88  1  0  0  0
 26 27  1  0  0  0
 26 89  1  0  0  0
 26 90  1  0  0  0
 27 28  1  0  0  0
 27 30  1  0  0  0
 27 91  1  0  0  0
 28 29  2  0  0  0
 28 34  1  0  0  0
 30 31  1  0  0  0
 30 92  1  0  0  0
 30 93  1  0  0  0
 31 32  1  0  0  0
 31 94  1  0  0  0
 31 95  1  0  0  0
 32 33  1  0  0  0
 32 96  1  0  0  0
 32 97  1  0  0  0
 33 98  1  0  0  0
 33 99  1  0  0  0
 33100  1  0  0  0
 34 35  1  0  0  0
 34101  1  0  0  0
 35 36  1  0  0  0
 35 38  1  0  0  0
 35102  1  0  0  0
 36 37  2  0  0  0
 36 43  1  0  0  0
 38 39  1  0  0  0
 38103  1  0  0  0
 38104  1  0  0  0
 39 40  1  0  0  0
 39105  1  0  0  0
 39106  1  0  0  0
 40 41  2  0  0  0
 40 42  1  0  0  0
 42107  1  0  0  0
 42108  1  0  0  0
 43 44  1  0  0  0
 43109  1  0  0  0
 44 45  1  0  0  0
 44 47  1  0  0  0
 44110  1  0  0  0
 45 46  2  0  0  0
 45 54  1  0  0  0
 47 48  1  0  0  0
 47111  1  0  0  0
 47112  1  0  0  0
 48 49  1  0  0  0
 48113  1  0  0  0
 48114  1  0  0  0
 49 50  1  0  0  0
 49115  1  0  0  0
 49116  1  0  0  0
 50 51  1  0  0  0
 50117  1  0  0  0
 51 52  1  0  0  0
 51 53  2  0  0  0
 52118  1  0  0  0
 52119  1  0  0  0
 53120  1  0  0  0
 53123  1  0  0  0
 54121  1  0  0  0
 54122  1  0  0  0
M  CHG  2  26   1  53   1
M  END
> <s_m_source_file>
../2aog_ligand.sdf

> <i_m_source_file_index>
1

> <s_epik_input>
Tz1DKFtDSDNdKVtOSF1bQ0BASF0oW0NASF0oW09IXSlbQ0gzXSlDKD1PKVtOSF1bQ0BASF0oW0NAQEhdKFtDSDNdKVtDSDJdW0NIM10pQyg9TylbTkhdW0NAQEhdKFtDSDJdW0NIMl1bQ0gyXVtDSDNdKVtDSDJdW05IMitdW0NAQEhdKFtDSDJdW0NIMl1bQ0gyXVtDSDNdKUMoPU8pW05IXVtDQEBIXShbQ0gyXVtDSDJdQyg9TylbTkgyXSlDKD1PKVtOSF1bQ0BIXShDKD1PKVtOSDJdKVtDSDJdW0NIMl1bQ0gyXVtOSF0vQyhbTkgyXSk9TlxbSF0=

> <s_epik_cmdline>
J2VwaWtfYXBwJywgJy1pbWFlJywgJ2xpZ2FuZF9wcm8ubWFlJywgJy1vbWFlJywgJ2xpZ2FuZF9wcmVwLm1hZScsICctbXMnLCAnMScsICctcGgnLCAnNycsICctcGh0JywgJzAuNScsICctbnQn

> <r_epik_Ionization_Penalty>
  0.1921

> <r_epik_Ionization_Penalty_Charging>
  0.1921

> <r_epik_Ionization_Penalty_Neutral>
  0.0000

> <r_epik_State_Penalty>
  0.1818

> <r_epik_Charging_Adjusted_Penalty>
0.37396405168134

> <i_epik_Tot_Q>
2

> <i_epik_Tot_abs_Q>
2

> <s_epik_Chemistry_Notes>
This compound has an imine and may undergo hydrolysis.

$$$$
