2aoh_ligand
                    3D
 Schrodinger Suite 2020-3.
161163  0  0  1  0            999 V2000
   29.4920   27.7650   16.1540 N   0  3  0  0  0  0
   28.8420   27.7500   17.4710 C   0  0  2  0  0  0
   27.5500   28.5200   17.4290 C   0  0  0  0  0  0
   26.9430   28.9510   18.4070 O   0  0  0  0  0  0
   29.8990   28.1820   18.5000 C   0  0  0  0  0  0
   29.5450   29.3960   19.3310 C   0  0  0  0  0  0
   30.1500   26.9720   19.4060 C   0  0  0  0  0  0
   27.0200   28.6420   16.2150 N   0  0  0  0  0  0
   25.5670   28.8200   16.1040 C   0  0  2  0  0  0
   24.8490   27.5430   16.4720 C   0  0  0  0  0  0
   25.0540   26.5070   15.8280 O   0  0  0  0  0  0
   25.2230   29.2560   14.6630 C   0  0  0  0  0  0
   23.8610   29.0670   14.3740 O   0  0  0  0  0  0
   23.9960   27.5350   17.5010 N   0  0  0  0  0  0
   23.1720   26.3690   17.8210 C   0  0  2  0  0  0
   21.7040   26.6870   17.6130 C   0  0  0  0  0  0
   21.2420   27.8270   17.8510 O   0  0  0  0  0  0
   23.3180   25.9040   19.2620 C   0  0  0  0  0  0
   24.5100   24.9630   19.4510 C   0  0  0  0  0  0
   24.4380   23.6180   19.1470 C   0  0  0  0  0  0
   25.7150   25.4960   19.8990 C   0  0  0  0  0  0
   25.5260   22.7800   19.3060 C   0  0  0  0  0  0
   26.7890   24.6440   20.1140 C   0  0  0  0  0  0
   26.7210   23.2990   19.8000 C   0  0  0  0  0  0
   20.9580   25.7280   17.0750 N   0  0  0  0  0  0
   19.6140   25.9650   16.5100 C   0  0  2  0  0  0
   18.7580   24.7510   16.8420 C   0  0  0  0  0  0
   18.9640   23.7130   16.1640 O   0  0  0  0  0  0
   19.6410   26.1690   14.9860 C   0  0  0  0  0  0
   20.4920   27.4170   14.7090 C   0  0  0  0  0  0
   20.0380   28.5290   14.9230 O   0  0  0  0  0  0
   21.7750   27.1780   14.3860 N   0  0  0  0  0  0
   17.9120   24.8570   17.8460 N   0  0  0  0  0  0
   17.8363   25.8362   18.3415 H   0  0  0  0  0  0
   17.0960   23.7440   18.3060 C   0  0  2  0  0  0
   15.6380   23.8280   17.9770 C   0  0  0  0  0  0
   17.2820   23.7760   19.8480 C   0  0  0  0  0  0
   18.7170   23.5560   20.2800 C   0  0  0  0  0  0
   19.4420   24.5240   20.9530 C   0  0  0  0  0  0
   19.3790   22.3660   20.0080 C   0  0  0  0  0  0
   20.7580   24.3220   21.3220 C   0  0  0  0  0  0
   20.6770   22.1490   20.3700 C   0  0  0  0  0  0
   21.3810   23.1260   21.0460 C   0  0  0  0  0  0
   15.2770   23.5550   16.6270 N   0  3  1  0  0  0
   14.0450   22.8080   16.3590 C   0  0  2  0  0  0
   14.1260   21.3670   16.8450 C   0  0  0  0  0  0
   15.1560   20.6800   16.7900 O   0  0  0  0  0  0
   13.8730   22.8990   14.8320 C   0  0  0  0  0  0
   15.1980   23.3040   14.2940 C   0  0  0  0  0  0
   15.8490   24.0930   15.3870 C   0  0  0  0  0  0
   12.9810   20.9200   17.3530 N   0  0  0  0  0  0
   12.9260   19.5250   17.8150 C   0  0  2  0  0  0
   11.5200   18.9800   17.6690 C   0  0  0  0  0  0
   10.5420   19.5880   18.1240 O   0  0  0  0  0  0
   13.4450   19.4620   19.2620 C   0  0  0  0  0  0
   13.3980   18.1080   19.9700 C   0  0  0  0  0  0
   12.0490   17.8090   20.6250 C   0  0  0  0  0  0
   11.3960   18.6950   21.1420 O   0  0  0  0  0  0
   11.5820   16.5900   20.4980 N   0  0  0  0  0  0
   11.4120   17.7450   17.1860 N   0  0  0  0  0  0
   10.1540   16.9930   17.1200 C   0  0  2  0  0  0
   10.3600   15.5350   17.4940 C   0  0  0  0  0  0
   11.4950   15.0810   17.5070 O   0  0  0  0  0  0
    9.5710   17.0270   15.6930 C   0  0  2  0  0  0
   10.4490   16.3260   14.6680 C   0  0  0  0  0  0
    9.3030   18.4640   15.2890 C   0  0  0  0  0  0
    9.8550   16.0270   13.3220 C   0  0  0  0  0  0
    9.3030   14.7990   17.7870 N   0  0  0  0  0  0
    9.4120   13.3560   17.9820 C   0  0  2  0  0  0
    9.4180   12.7160   16.5990 C   0  0  0  0  0  0
    8.4900   13.0410   15.8630 O   0  0  0  0  0  0
    8.2340   12.8030   18.7990 C   0  0  2  0  0  0
    8.3890   13.4380   20.0800 O   0  0  0  0  0  0
    8.3190   11.2900   18.8960 C   0  0  0  0  0  0
   10.4330   11.9040   16.3590 N   0  0  0  0  0  0
   10.6910   11.3120   15.0620 C   0  0  2  0  0  0
    9.4950   10.4950   14.5750 C   0  0  0  0  0  0
    9.3430    9.3510   15.0030 O   0  0  0  0  0  0
   11.9590   10.4660   15.1220 C   0  0  0  0  0  0
    8.6330   11.0112   13.7036 O   0  0  0  0  0  0
   28.7676   27.4606   15.3841 H   0  0  0  0  0  0
   30.3407   27.0652   16.1560 H   0  0  0  0  0  0
   29.8544   28.7804   15.9355 H   0  0  0  0  0  0
   28.4981   26.7416   17.7445 H   0  0  0  0  0  0
   30.7946   28.5124   17.9534 H   0  0  0  0  0  0
   29.3679   30.2554   18.6677 H   0  0  0  0  0  0
   30.3745   29.6262   20.0158 H   0  0  0  0  0  0
   28.6353   29.1889   19.9136 H   0  0  0  0  0  0
   30.4059   26.0984   18.7885 H   0  0  0  0  0  0
   29.2425   26.7559   19.9889 H   0  0  0  0  0  0
   30.9818   27.1931   20.0910 H   0  0  0  0  0  0
   27.6414   28.6123   15.3078 H   0  0  0  0  0  0
   25.2714   29.5904   16.8313 H   0  0  0  0  0  0
   25.4589   30.3229   14.5366 H   0  0  0  0  0  0
   25.8138   28.6628   13.9495 H   0  0  0  0  0  0
   23.4671   29.3335   13.3821 H   0  0  0  0  0  0
   23.9250   28.4442   18.1161 H   0  0  0  0  0  0
   23.5482   25.5992   17.1312 H   0  0  0  0  0  0
   23.4659   26.7763   19.9156 H   0  0  0  0  0  0
   22.4082   25.3667   19.5679 H   0  0  0  0  0  0
   23.5005   23.2070   18.7725 H   0  0  0  0  0  0
   25.8137   26.5666   20.0783 H   0  0  0  0  0  0
   25.4497   21.7238   19.0475 H   0  0  0  0  0  0
   27.7085   25.0446   20.5407 H   0  0  0  0  0  0
   27.5893   22.6544   19.9369 H   0  0  0  0  0  0
   21.3888   24.7159   17.0635 H   0  0  0  0  0  0
   19.2332   26.8870   16.9736 H   0  0  0  0  0  0
   20.0842   25.2843   14.5055 H   0  0  0  0  0  0
   18.6146   26.3112   14.6168 H   0  0  0  0  0  0
   22.1142   26.1471   14.2067 H   0  0  0  0  0  0
   22.4856   28.0134   14.3010 H   0  0  0  0  0  0
   17.4278   22.8497   17.7581 H   0  0  0  0  0  0
   15.0815   23.1040   18.5902 H   0  0  0  0  0  0
   15.2726   24.8440   18.1872 H   0  0  0  0  0  0
   16.9647   24.7554   20.2353 H   0  0  0  0  0  0
   16.6715   22.9847   20.3075 H   0  0  0  0  0  0
   18.9618   25.4712   21.1985 H   0  0  0  0  0  0
   18.8414   21.5748   19.4853 H   0  0  0  0  0  0
   21.3054   25.1134   21.8340 H   0  0  0  0  0  0
   21.1590   21.2025   20.1250 H   0  0  0  0  0  0
   22.4117   22.9531   21.3555 H   0  0  0  0  0  0
   16.2326   23.3505   17.1320 H   0  0  0  0  0  0
   13.2107   23.2489   16.9242 H   0  0  0  0  0  0
   13.5671   21.9184   14.4384 H   0  0  0  0  0  0
   13.1020   23.6465   14.5937 H   0  0  0  0  0  0
   15.7822   22.4061   14.0439 H   0  0  0  0  0  0
   15.0558   23.9128   13.3889 H   0  0  0  0  0  0
   15.6161   25.1654   15.3109 H   0  0  0  0  0  0
   16.9402   23.9545   15.3963 H   0  0  0  0  0  0
   12.0909   21.5613   17.4329 H   0  0  0  0  0  0
   13.5706   18.9152   17.1649 H   0  0  0  0  0  0
   14.5018   19.7662   19.2860 H   0  0  0  0  0  0
   12.8535   20.1411   19.8936 H   0  0  0  0  0  0
   13.5957   17.3069   19.2426 H   0  0  0  0  0  0
   14.1615   18.0813   20.7614 H   0  0  0  0  0  0
   12.1986   15.8113   20.0253 H   0  0  0  0  0  0
   10.5737   16.3464   20.8641 H   0  0  0  0  0  0
   12.3447   17.2896   16.8218 H   0  0  0  0  0  0
    9.5009   17.4912   17.8517 H   0  0  0  0  0  0
    8.6230   16.4691   15.6946 H   0  0  0  0  0  0
   11.3347   16.9443   14.4598 H   0  0  0  0  0  0
   10.7677   15.3505   15.0641 H   0  0  0  0  0  0
    8.6672   18.9454   16.0466 H   0  0  0  0  0  0
    8.7910   18.4818   14.3156 H   0  0  0  0  0  0
   10.2565   19.0070   15.2117 H   0  0  0  0  0  0
   10.6044   15.5224   12.6944 H   0  0  0  0  0  0
    9.5462   16.9666   12.8406 H   0  0  0  0  0  0
    8.9792   15.3729   13.4449 H   0  0  0  0  0  0
    8.3258   15.2948   17.8835 H   0  0  0  0  0  0
   10.3447   13.1740   18.5361 H   0  0  0  0  0  0
    7.2336   13.0323   18.4032 H   0  0  0  0  0  0
    8.3489   14.5344   20.1588 H   0  0  0  0  0  0
    8.1952   10.8509   17.8951 H   0  0  0  0  0  0
    7.5237   10.9199   19.5597 H   0  0  0  0  0  0
    9.2997   11.0032   19.3035 H   0  0  0  0  0  0
   11.0994   11.6844   17.2062 H   0  0  0  0  0  0
   10.8379   12.1581   14.3747 H   0  0  0  0  0  0
   12.7965   11.0853   15.4756 H   0  0  0  0  0  0
   12.1883   10.0774   14.1188 H   0  0  0  0  0  0
   11.8064    9.6254   15.8149 H   0  0  0  0  0  0
    7.7753   10.4147   13.3593 H   0  0  0  0  0  0
  1  2  1  0  0  0
  1 81  1  0  0  0
  1 82  1  0  0  0
  1 83  1  0  0  0
  2  3  1  0  0  0
  2  5  1  0  0  0
  2 84  1  0  0  0
  3  4  2  0  0  0
  3  8  1  0  0  0
  5  6  1  0  0  0
  5  7  1  0  0  0
  5 85  1  0  0  0
  6 86  1  0  0  0
  6 87  1  0  0  0
  6 88  1  0  0  0
  7 89  1  0  0  0
  7 90  1  0  0  0
  7 91  1  0  0  0
  8  9  1  0  0  0
  8 92  1  0  0  0
  9 10  1  0  0  0
  9 12  1  0  0  0
  9 93  1  0  0  0
 10 11  2  0  0  0
 10 14  1  0  0  0
 12 13  1  0  0  0
 12 94  1  0  0  0
 12 95  1  0  0  0
 13 96  1  0  0  0
 14 15  1  0  0  0
 14 97  1  0  0  0
 15 16  1  0  0  0
 15 18  1  0  0  0
 15 98  1  0  0  0
 16 17  2  0  0  0
 16 25  1  0  0  0
 18 19  1  0  0  0
 18 99  1  0  0  0
 18100  1  0  0  0
 19 20  2  0  0  0
 19 21  1  0  0  0
 20 22  1  0  0  0
 20101  1  0  0  0
 21 23  2  0  0  0
 21102  1  0  0  0
 22 24  2  0  0  0
 22103  1  0  0  0
 23 24  1  0  0  0
 23104  1  0  0  0
 24105  1  0  0  0
 25 26  1  0  0  0
 25106  1  0  0  0
 26 27  1  0  0  0
 26 29  1  0  0  0
 26107  1  0  0  0
 27 28  2  0  0  0
 27 33  1  0  0  0
 29 30  1  0  0  0
 29108  1  0  0  0
 29109  1  0  0  0
 30 31  2  0  0  0
 30 32  1  0  0  0
 32110  1  0  0  0
 32111  1  0  0  0
 33 34  1  0  0  0
 33 35  1  0  0  0
 35 36  1  0  0  0
 35 37  1  0  0  0
 35112  1  0  0  0
 36 44  1  0  0  0
 36113  1  0  0  0
 36114  1  0  0  0
 37 38  1  0  0  0
 37115  1  0  0  0
 37116  1  0  0  0
 38 39  2  0  0  0
 38 40  1  0  0  0
 39 41  1  0  0  0
 39117  1  0  0  0
 40 42  2  0  0  0
 40118  1  0  0  0
 41 43  2  0  0  0
 41119  1  0  0  0
 42 43  1  0  0  0
 42120  1  0  0  0
 43121  1  0  0  0
 44 45  1  0  0  0
 44 50  1  0  0  0
 44122  1  0  0  0
 45 46  1  0  0  0
 45 48  1  0  0  0
 45123  1  0  0  0
 46 47  2  0  0  0
 46 51  1  0  0  0
 48 49  1  0  0  0
 48124  1  0  0  0
 48125  1  0  0  0
 49 50  1  0  0  0
 49126  1  0  0  0
 49127  1  0  0  0
 50128  1  0  0  0
 50129  1  0  0  0
 51 52  1  0  0  0
 51130  1  0  0  0
 52 53  1  0  0  0
 52 55  1  0  0  0
 52131  1  0  0  0
 53 54  2  0  0  0
 53 60  1  0  0  0
 55 56  1  0  0  0
 55132  1  0  0  0
 55133  1  0  0  0
 56 57  1  0  0  0
 56134  1  0  0  0
 56135  1  0  0  0
 57 58  2  0  0  0
 57 59  1  0  0  0
 59136  1  0  0  0
 59137  1  0  0  0
 60 61  1  0  0  0
 60138  1  0  0  0
 61 62  1  0  0  0
 61 64  1  0  0  0
 61139  1  0  0  0
 62 63  2  0  0  0
 62 68  1  0  0  0
 64 65  1  0  0  0
 64 66  1  0  0  0
 64140  1  0  0  0
 65 67  1  0  0  0
 65141  1  0  0  0
 65142  1  0  0  0
 66143  1  0  0  0
 66144  1  0  0  0
 66145  1  0  0  0
 67146  1  0  0  0
 67147  1  0  0  0
 67148  1  0  0  0
 68 69  1  0  0  0
 68149  1  0  0  0
 69 70  1  0  0  0
 69 72  1  0  0  0
 69150  1  0  0  0
 70 71  2  0  0  0
 70 75  1  0  0  0
 72 73  1  0  0  0
 72 74  1  0  0  0
 72151  1  0  0  0
 73152  1  0  0  0
 74153  1  0  0  0
 74154  1  0  0  0
 74155  1  0  0  0
 75 76  1  0  0  0
 75156  1  0  0  0
 76 77  1  0  0  0
 76 79  1  0  0  0
 76157  1  0  0  0
 77 78  2  0  0  0
 77 80  1  0  0  0
 79158  1  0  0  0
 79159  1  0  0  0
 79160  1  0  0  0
 80161  1  0  0  0
M  CHG  2   1   1  44   1
M  END
> <s_m_source_file>
../2aoh_ligand.sdf

> <i_m_source_file_index>
1

> <s_epik_input>
W0NIM11bQ0hdKFtDSDNdKVtDQEhdKFtOSDMrXSlDKD1PKVtOSF1bQ0BASF0oW0NIMl1bT0hdKUMoPU8pW05IXVtDQEBIXShbQ0gyXWMxW2NIXVtjSF1bY0hdW2NIXVtjSF0xKUMoPU8pW05IXVtDQEBIXShbQ0gyXUMoPU8pW05IMl0pQyg9TylbTkhdW0NAQEhdKFtDSDJdYzJbY0hdW2NIXVtjSF1bY0hdW2NIXTIpW0NIMl1bTkBIK10zW0NAQEhdKFtDSDJdW0NIMl1bQ0gyXTMpQyg9TylbTkhdW0NAQEhdKFtDSDJdW0NIMl1DKD1PKVtOSDJdKUMoPU8pW05IXVtDQEBIXShbQ0BASF0oW0NIM10pW0NIMl1bQ0gzXSlDKD1PKVtOSF1bQ0BASF0oW0NASF0oW09IXSlbQ0gzXSlDKD1PKVtOSF1bQ0BASF0oW0NIM10pQyg9TylbT0hd

> <s_epik_cmdline>
J2VwaWtfYXBwJywgJy1pbWFlJywgJ2xpZ2FuZF9wcm8ubWFlJywgJy1vbWFlJywgJ2xpZ2FuZF9wcmVwLm1hZScsICctbXMnLCAnMScsICctcGgnLCAnNycsICctcGh0JywgJzAuNScsICctbnQn

> <s_epik_pKa_notes>
Molecule size exceeds maximum supported for generating protonation states

$$$$
