2aoi_ligand
                    3D
 Schrodinger Suite 2020-3.
169171  0  0  1  0            999 V2000
   30.0790   24.8920   18.6880 N   0  3  0  0  0  0
   29.2010   25.8780   18.0980 C   0  0  2  0  0  0
   27.7210   25.5420   18.1620 C   0  0  0  0  0  0
   26.9670   26.2870   17.4980 O   0  0  0  0  0  0
   29.5850   26.0710   16.6090 C   0  0  0  0  0  0
   29.0930   27.4000   16.0700 C   0  0  0  0  0  0
   28.3810   27.2330   14.7280 C   0  0  0  0  0  0
   28.7610   28.3820   13.8940 N   0  0  0  0  0  0
   30.0020   28.4950   13.4270 C   0  0  0  0  0  0
   30.9090   27.5630   13.6990 N   0  0  0  0  0  0
   30.3360   29.5370   12.6810 N   0  0  0  0  0  0
   27.1790   24.5460   18.8430 N   0  0  0  0  0  0
   25.7730   24.2390   18.5360 C   0  0  2  0  0  0
   24.8860   25.2960   19.1750 C   0  0  0  0  0  0
   25.0030   25.6780   20.3400 O   0  0  0  0  0  0
   25.5380   22.8650   19.1580 C   0  0  0  0  0  0
   26.4070   22.9230   20.3670 C   0  0  0  0  0  0
   27.6510   23.6480   19.9110 C   0  0  0  0  0  0
   23.9730   25.8150   18.3470 N   0  0  0  0  0  0
   23.0560   26.7710   18.8180 C   0  0  0  0  0  0
   21.6960   26.7870   18.1670 C   0  0  0  0  0  0
   21.0500   27.8350   18.3150 O   0  0  0  0  0  0
   21.2380   25.7330   17.4960 N   0  0  0  0  0  0
   19.8890   25.7310   16.9240 C   0  0  2  0  0  0
   19.0780   24.5120   17.3660 C   0  0  0  0  0  0
   19.1850   23.4360   16.7900 O   0  0  0  0  0  0
   19.9080   25.8480   15.3950 C   0  0  0  0  0  0
   20.7050   27.0920   15.0370 C   0  0  0  0  0  0
   20.2870   28.2230   15.2400 O   0  0  0  0  0  0
   21.9100   26.8450   14.5330 N   0  0  0  0  0  0
   18.2950   24.7570   18.4040 N   0  0  0  0  0  0
   17.5200   23.7200   19.0590 C   0  0  2  0  0  0
   16.0330   23.8990   18.7520 C   0  0  0  0  0  0
   17.8710   23.8390   20.5660 C   0  0  0  0  0  0
   19.3720   23.6310   20.7140 C   0  0  0  0  0  0
   20.2330   24.6220   21.1120 C   0  0  0  0  0  0
   19.9090   22.3850   20.4230 C   0  0  0  0  0  0
   21.5930   24.4030   21.2340 C   0  0  0  0  0  0
   21.2610   22.1570   20.5370 C   0  0  0  0  0  0
   22.1140   23.1600   20.9260 C   0  0  0  0  0  0
   15.7150   23.7580   17.4440 N   0  3  0  0  0  0
   14.7010   22.8650   16.8940 C   0  0  2  0  0  0
   14.7360   21.4920   17.5490 C   0  0  0  0  0  0
   15.7790   20.8620   17.6700 O   0  0  0  0  0  0
   14.9080   22.6050   15.3930 C   0  0  0  0  0  0
   14.0050   21.5660   14.7210 C   0  0  0  0  0  0
   12.5840   22.1250   14.7650 C   0  0  0  0  0  0
   14.4030   21.2880   13.2970 C   0  0  0  0  0  0
   13.5660   21.0300   18.0040 N   0  0  0  0  0  0
   13.4360   19.6440   18.4600 C   0  0  2  0  0  0
   12.0430   19.1510   18.0380 C   0  0  0  0  0  0
   11.0720   19.8770   18.2490 O   0  0  0  0  0  0
   13.6500   19.5150   19.9640 C   0  0  0  0  0  0
   13.6060   18.0580   20.4580 C   0  0  0  0  0  0
   12.1920   17.7140   20.9640 C   0  0  0  0  0  0
   11.4470   18.6220   21.3420 O   0  0  0  0  0  0
   11.7570   16.5040   20.8910 N   0  0  0  0  0  0
   11.9960   17.9290   17.4890 N   0  0  0  0  0  0
   10.7250   17.3740   17.0400 C   0  0  2  0  0  0
   10.4650   15.9850   17.6060 C   0  0  0  0  0  0
   11.3860   15.1440   17.6260 O   0  0  0  0  0  0
   10.7060   17.3080   15.5060 C   0  0  0  0  0  0
   10.8990   18.6080   14.9480 O   0  0  0  0  0  0
    9.2420   15.7250   18.0450 N   0  0  0  0  0  0
    8.8600   14.3870   18.5030 C   0  0  2  0  0  0
    8.9510   13.4100   17.3410 C   0  0  0  0  0  0
    8.9910   13.8500   16.2050 O   0  0  0  0  0  0
    7.4640   14.3690   19.1160 C   0  0  0  0  0  0
    6.3580   14.4430   18.0610 C   0  0  0  0  0  0
    5.0090   14.5190   18.7050 C   0  0  0  0  0  0
    4.7250   15.7930   19.3840 N   0  0  0  0  0  0
    4.2150   16.8490   18.7830 C   0  0  0  0  0  0
    4.0000   17.9300   19.5390 N   0  0  0  0  0  0
    3.9340   16.8710   17.4840 N   0  0  0  0  0  0
    9.0310   12.1010   17.5450 N   0  0  0  0  0  0
    9.0150   11.1430   16.4410 C   0  0  2  0  0  0
    7.7300   11.2600   15.6100 C   0  0  0  0  0  0
    6.7040   11.6480   16.1810 O   0  0  0  0  0  0
    9.0370    9.7720   17.1050 C   0  0  0  0  0  0
    8.9260    9.9740   18.5580 C   0  0  0  0  0  0
    9.1660   11.4220   18.8560 C   0  0  0  0  0  0
    7.7780   10.9390   14.3990 N   0  0  0  0  0  0
   29.8123   24.7496   19.7456 H   0  0  0  0  0  0
   31.1205   25.2386   18.6160 H   0  0  0  0  0  0
   29.9721   23.9378   18.1512 H   0  0  0  0  0  0
   29.3697   26.7519   18.7444 H   0  0  0  0  0  0
   30.6797   26.0397   16.5056 H   0  0  0  0  0  0
   29.1368   25.2665   16.0075 H   0  0  0  0  0  0
   28.3865   27.8467   16.7850 H   0  0  0  0  0  0
   29.9481   28.0772   15.9278 H   0  0  0  0  0  0
   28.6991   26.2902   14.2590 H   0  0  0  0  0  0
   27.2932   27.2132   14.8900 H   0  0  0  0  0  0
   28.0175   29.1558   13.6520 H   0  0  0  0  0  0
   30.6374   26.6953   14.3181 H   0  0  0  0  0  0
   31.9316   27.6591   13.3051 H   0  0  0  0  0  0
   29.5893   30.3118   12.4525 H   0  0  0  0  0  0
   25.5770   24.2459   17.4536 H   0  0  0  0  0  0
   24.4708   22.7489   19.3982 H   0  0  0  0  0  0
   25.8406   22.0834   18.4456 H   0  0  0  0  0  0
   25.8861   23.4693   21.1671 H   0  0  0  0  0  0
   26.6313   21.9011   20.7067 H   0  0  0  0  0  0
   28.4038   22.9573   19.5033 H   0  0  0  0  0  0
   28.0998   24.2439   20.7194 H   0  0  0  0  0  0
   23.9403   25.4927   17.2958 H   0  0  0  0  0  0
   22.8710   26.6049   19.8895 H   0  0  0  0  0  0
   23.4689   27.7796   18.6693 H   0  0  0  0  0  0
   21.8885   24.8545   17.3737 H   0  0  0  0  0  0
   19.4305   26.6365   17.3480 H   0  0  0  0  0  0
   20.3814   24.9532   14.9647 H   0  0  0  0  0  0
   18.8771   25.9332   15.0209 H   0  0  0  0  0  0
   22.2360   25.8071   14.3705 H   0  0  0  0  0  0
   22.5811   27.6785   14.2785 H   0  0  0  0  0  0
   18.2447   25.7939   18.7678 H   0  0  0  0  0  0
   17.7871   22.7321   18.6557 H   0  0  0  0  0  0
   15.4510   23.1492   19.3079 H   0  0  0  0  0  0
   15.7150   24.9078   19.0542 H   0  0  0  0  0  0
   17.5868   24.8370   20.9309 H   0  0  0  0  0  0
   17.3224   23.0717   21.1320 H   0  0  0  0  0  0
   19.8337   25.6106   21.3386 H   0  0  0  0  0  0
   19.2519   21.5774   20.1003 H   0  0  0  0  0  0
   22.2498   25.2051   21.5708 H   0  0  0  0  0  0
   21.6601   21.1672   20.3156 H   0  0  0  0  0  0
   23.1869   22.9789   20.9911 H   0  0  0  0  0  0
   15.3713   24.7234   17.0441 H   0  0  0  0  0  0
   16.6016   23.4243   16.8850 H   0  0  0  0  0  0
   13.7722   23.4122   17.1129 H   0  0  0  0  0  0
   14.7428   23.5374   14.8332 H   0  0  0  0  0  0
   15.9350   22.2508   15.2204 H   0  0  0  0  0  0
   14.0928   20.5997   15.2393 H   0  0  0  0  0  0
   12.3010   22.3254   15.8089 H   0  0  0  0  0  0
   11.8881   21.3922   14.3306 H   0  0  0  0  0  0
   12.5397   23.0600   14.1872 H   0  0  0  0  0  0
   15.4267   20.8861   13.2742 H   0  0  0  0  0  0
   14.3625   22.2212   12.7161 H   0  0  0  0  0  0
   13.7108   20.5535   12.8596 H   0  0  0  0  0  0
   12.6961   21.7026   18.0336 H   0  0  0  0  0  0
   14.2369   19.0607   17.9821 H   0  0  0  0  0  0
   14.6342   19.9275   20.2310 H   0  0  0  0  0  0
   12.8632   20.0706   20.4953 H   0  0  0  0  0  0
   13.8680   17.3822   19.6305 H   0  0  0  0  0  0
   14.3255   17.9275   21.2798 H   0  0  0  0  0  0
   12.4257   15.6986   20.5533 H   0  0  0  0  0  0
   10.7167   16.2760   21.1663 H   0  0  0  0  0  0
   12.9213   17.3446   17.3779 H   0  0  0  0  0  0
    9.9654   18.0632   17.4374 H   0  0  0  0  0  0
   11.5123   16.6459   15.1575 H   0  0  0  0  0  0
    9.7362   16.9141   15.1679 H   0  0  0  0  0  0
   10.9127   18.7414   13.8562 H   0  0  0  0  0  0
    8.5062   16.5425   18.0605 H   0  0  0  0  0  0
    9.5809   14.1191   19.2895 H   0  0  0  0  0  0
    7.3258   13.4384   19.6859 H   0  0  0  0  0  0
    7.3477   15.2316   19.7887 H   0  0  0  0  0  0
    6.5037   15.3387   17.4393 H   0  0  0  0  0  0
    6.3964   13.5456   17.4260 H   0  0  0  0  0  0
    4.2296   14.3847   17.9404 H   0  0  0  0  0  0
    4.9194   13.7269   19.4630 H   0  0  0  0  0  0
    4.9395   15.9040   20.4572 H   0  0  0  0  0  0
    4.2347   17.9053   20.6134 H   0  0  0  0  0  0
    3.5884   18.8444   19.0868 H   0  0  0  0  0  0
    4.1133   15.9779   16.8673 H   0  0  0  0  0  0
    9.8790   11.3481   15.7918 H   0  0  0  0  0  0
    8.1909    9.1729   16.7373 H   0  0  0  0  0  0
    9.9807    9.2618   16.8617 H   0  0  0  0  0  0
    7.9192    9.6836   18.8927 H   0  0  0  0  0  0
    9.6760    9.3554   19.0726 H   0  0  0  0  0  0
   10.1757   11.5956   19.2565 H   0  0  0  0  0  0
    8.4195   11.8250   19.5562 H   0  0  0  0  0  0
    8.7270   10.6020   13.9565 H   0  0  0  0  0  0
    6.8711   10.9943   13.7790 H   0  0  0  0  0  0
  1  2  1  0  0  0
  1 83  1  0  0  0
  1 84  1  0  0  0
  1 85  1  0  0  0
  2  3  1  0  0  0
  2  5  1  0  0  0
  2 86  1  0  0  0
  3  4  2  0  0  0
  3 12  1  0  0  0
  5  6  1  0  0  0
  5 87  1  0  0  0
  5 88  1  0  0  0
  6  7  1  0  0  0
  6 89  1  0  0  0
  6 90  1  0  0  0
  7  8  1  0  0  0
  7 91  1  0  0  0
  7 92  1  0  0  0
  8  9  1  0  0  0
  8 93  1  0  0  0
  9 10  1  0  0  0
  9 11  2  0  0  0
 10 94  1  0  0  0
 10 95  1  0  0  0
 11 96  1  0  0  0
 12 13  1  0  0  0
 12 18  1  0  0  0
 13 14  1  0  0  0
 13 16  1  0  0  0
 13 97  1  0  0  0
 14 15  2  0  0  0
 14 19  1  0  0  0
 16 17  1  0  0  0
 16 98  1  0  0  0
 16 99  1  0  0  0
 17 18  1  0  0  0
 17100  1  0  0  0
 17101  1  0  0  0
 18102  1  0  0  0
 18103  1  0  0  0
 19 20  1  0  0  0
 19104  1  0  0  0
 20 21  1  0  0  0
 20105  1  0  0  0
 20106  1  0  0  0
 21 22  2  0  0  0
 21 23  1  0  0  0
 23 24  1  0  0  0
 23107  1  0  0  0
 24 25  1  0  0  0
 24 27  1  0  0  0
 24108  1  0  0  0
 25 26  2  0  0  0
 25 31  1  0  0  0
 27 28  1  0  0  0
 27109  1  0  0  0
 27110  1  0  0  0
 28 29  2  0  0  0
 28 30  1  0  0  0
 30111  1  0  0  0
 30112  1  0  0  0
 31 32  1  0  0  0
 31113  1  0  0  0
 32 33  1  0  0  0
 32 34  1  0  0  0
 32114  1  0  0  0
 33 41  1  0  0  0
 33115  1  0  0  0
 33116  1  0  0  0
 34 35  1  0  0  0
 34117  1  0  0  0
 34118  1  0  0  0
 35 36  2  0  0  0
 35 37  1  0  0  0
 36 38  1  0  0  0
 36119  1  0  0  0
 37 39  2  0  0  0
 37120  1  0  0  0
 38 40  2  0  0  0
 38121  1  0  0  0
 39 40  1  0  0  0
 39122  1  0  0  0
 40123  1  0  0  0
 41 42  1  0  0  0
 41124  1  0  0  0
 41125  1  0  0  0
 42 43  1  0  0  0
 42 45  1  0  0  0
 42126  1  0  0  0
 43 44  2  0  0  0
 43 49  1  0  0  0
 45 46  1  0  0  0
 45127  1  0  0  0
 45128  1  0  0  0
 46 47  1  0  0  0
 46 48  1  0  0  0
 46129  1  0  0  0
 47130  1  0  0  0
 47131  1  0  0  0
 47132  1  0  0  0
 48133  1  0  0  0
 48134  1  0  0  0
 48135  1  0  0  0
 49 50  1  0  0  0
 49136  1  0  0  0
 50 51  1  0  0  0
 50 53  1  0  0  0
 50137  1  0  0  0
 51 52  2  0  0  0
 51 58  1  0  0  0
 53 54  1  0  0  0
 53138  1  0  0  0
 53139  1  0  0  0
 54 55  1  0  0  0
 54140  1  0  0  0
 54141  1  0  0  0
 55 56  2  0  0  0
 55 57  1  0  0  0
 57142  1  0  0  0
 57143  1  0  0  0
 58 59  1  0  0  0
 58144  1  0  0  0
 59 60  1  0  0  0
 59 62  1  0  0  0
 59145  1  0  0  0
 60 61  2  0  0  0
 60 64  1  0  0  0
 62 63  1  0  0  0
 62146  1  0  0  0
 62147  1  0  0  0
 63148  1  0  0  0
 64 65  1  0  0  0
 64149  1  0  0  0
 65 66  1  0  0  0
 65 68  1  0  0  0
 65150  1  0  0  0
 66 67  2  0  0  0
 66 75  1  0  0  0
 68 69  1  0  0  0
 68151  1  0  0  0
 68152  1  0  0  0
 69 70  1  0  0  0
 69153  1  0  0  0
 69154  1  0  0  0
 70 71  1  0  0  0
 70155  1  0  0  0
 70156  1  0  0  0
 71 72  1  0  0  0
 71157  1  0  0  0
 72 73  1  0  0  0
 72 74  2  0  0  0
 73158  1  0  0  0
 73159  1  0  0  0
 74160  1  0  0  0
 75 76  1  0  0  0
 75 81  1  0  0  0
 76 77  1  0  0  0
 76 79  1  0  0  0
 76161  1  0  0  0
 77 78  2  0  0  0
 77 82  1  0  0  0
 79 80  1  0  0  0
 79162  1  0  0  0
 79163  1  0  0  0
 80 81  1  0  0  0
 80164  1  0  0  0
 80165  1  0  0  0
 81166  1  0  0  0
 81167  1  0  0  0
 82168  1  0  0  0
 82169  1  0  0  0
M  CHG  2   1   1  41   1
M  END
> <s_m_source_file>
../2aoi_ligand.sdf

> <i_m_source_file_index>
1

> <s_epik_input>
W0hdL049QyhbTkgyXSlcW05IXVtDSDJdW0NIMl1bQ0gyXVtDQEhdKFtOSDMrXSlDKD1PKU4xW0NAQEhdKFtDSDJdW0NIMl1bQ0gyXTEpQyg9TylbTkhdW0NIMl1DKD1PKVtOSF1bQ0BASF0oW0NIMl1DKD1PKVtOSDJdKUMoPU8pW05IXVtDQEBIXShbQ0gyXWMyW2NIXVtjSF1bY0hdW2NIXVtjSF0yKVtDSDJdW05IMitdW0NAQEhdKFtDSDJdW0NIXShbQ0gzXSlbQ0gzXSlDKD1PKVtOSF1bQ0BASF0oW0NIMl1bQ0gyXUMoPU8pW05IMl0pQyg9TylbTkhdW0NAQEhdKFtDSDJdW09IXSlDKD1PKVtOSF1bQ0BIXShDKD1PKU4zW0NASF0oQyg9TylbTkgyXSlbQ0gyXVtDSDJdW0NIMl0zKVtDSDJdW0NIMl1bQ0gyXVtOSF0vQyhbTkgyXSk9TlxbSF0=

> <s_epik_cmdline>
J2VwaWtfYXBwJywgJy1pbWFlJywgJ2xpZ2FuZF9wcm8ubWFlJywgJy1vbWFlJywgJ2xpZ2FuZF9wcmVwLm1hZScsICctbXMnLCAnMScsICctcGgnLCAnNycsICctcGh0JywgJzAuNScsICctbnQn

> <s_epik_pKa_notes>
Molecule size exceeds maximum supported for generating protonation states

> <s_epik_Chemistry_Notes>
This compound has an imine and may undergo hydrolysis.

$$$$
