2aoj_ligand
                    3D
 Schrodinger Suite 2020-3.
172174  0  0  1  0            999 V2000
   27.9820   27.2200   14.9440 N   0  3  0  0  0  0
   28.7650   28.3540   15.4060 C   0  0  2  0  0  0
   28.2380   28.9960   16.6860 C   0  0  0  0  0  0
   28.9730   29.0200   17.6940 O   0  0  0  0  0  0
   28.8600   29.4880   14.3540 C   0  0  0  0  0  0
   29.5240   30.6850   15.0180 C   0  0  0  0  0  0
   29.6230   29.0710   13.1290 C   0  0  0  0  0  0
   27.0840   29.5540   16.7480 N   0  0  0  0  0  0
   25.7710   29.6370   16.2370 C   0  0  2  0  0  0
   25.1470   28.2200   16.3180 C   0  0  0  0  0  0
   25.5740   27.3280   15.5790 O   0  0  0  0  0  0
   25.6580   30.1230   14.7850 C   0  0  0  0  0  0
   24.7040   29.2380   14.1860 O   0  0  0  0  0  0
   24.2110   28.1240   17.2550 N   0  0  0  0  0  0
   23.4840   26.9090   17.5740 C   0  0  2  0  0  0
   21.9920   27.1670   17.4280 C   0  0  0  0  0  0
   21.4550   28.2230   17.7970 O   0  0  0  0  0  0
   23.7220   26.3890   18.9990 C   0  0  0  0  0  0
   24.9360   25.4640   19.0550 C   0  0  0  0  0  0
   26.2070   26.0150   19.0110 C   0  0  0  0  0  0
   24.7830   24.0930   19.1400 C   0  0  0  0  0  0
   27.3290   25.2040   19.0560 C   0  0  0  0  0  0
   25.8970   23.2720   19.1930 C   0  0  0  0  0  0
   27.1560   23.8360   19.1510 C   0  0  0  0  0  0
   21.3460   26.1910   16.8160 N   0  0  0  0  0  0
   19.9460   26.3470   16.4000 C   0  0  2  0  0  0
   19.1600   25.0980   16.7780 C   0  0  0  0  0  0
   19.4590   24.0610   16.1680 O   0  0  0  0  0  0
   19.9190   26.6060   14.8840 C   0  0  0  0  0  0
   20.6430   27.9120   14.5520 C   0  0  0  0  0  0
   20.0960   28.9750   14.8300 O   0  0  0  0  0  0
   21.8750   27.8450   14.0690 N   0  0  0  0  0  0
   18.2430   25.2060   17.7260 N   0  0  0  0  0  0
   17.5250   24.0930   18.3280 C   0  0  2  0  0  0
   16.0510   24.1550   17.9730 C   0  0  0  0  0  0
   17.7730   24.0910   19.8500 C   0  0  0  0  0  0
   19.2470   23.9700   20.2090 C   0  0  0  0  0  0
   19.9190   25.0110   20.8220 C   0  0  0  0  0  0
   19.9360   22.8100   19.9090 C   0  0  0  0  0  0
   21.2570   24.9060   21.1260 C   0  0  0  0  0  0
   21.2780   22.6970   20.2220 C   0  0  0  0  0  0
   21.9460   23.7390   20.8450 C   0  0  0  0  0  0
   15.6460   23.8260   16.7340 N   0  3  3  0  0  0
   14.4160   23.0540   16.5460 C   0  0  2  0  0  0
   14.5470   21.5860   16.9370 C   0  0  0  0  0  0
   15.5780   20.9240   16.8240 O   0  0  0  0  0  0
   14.1400   23.1390   15.0400 C   0  0  0  0  0  0
   15.4890   23.3970   14.4430 C   0  0  0  0  0  0
   16.2520   24.2070   15.4540 C   0  0  0  0  0  0
   13.4310   21.0340   17.4070 N   0  0  0  0  0  0
   13.4020   19.6030   17.7070 C   0  0  2  0  0  0
   12.0100   19.0440   17.4780 C   0  0  0  0  0  0
   11.0110   19.6830   17.8020 O   0  0  0  0  0  0
   13.8390   19.3870   19.1570 C   0  0  0  0  0  0
   13.7160   17.9790   19.6860 C   0  0  0  0  0  0
   12.4160   17.6680   20.4120 C   0  0  0  0  0  0
   11.7510   18.5520   20.9280 O   0  0  0  0  0  0
   12.0350   16.4010   20.3780 N   0  0  0  0  0  0
   11.9500   17.8050   16.9930 N   0  0  0  0  0  0
   10.7440   16.9910   16.9700 C   0  0  2  0  0  0
   10.9730   15.5220   17.3220 C   0  0  0  0  0  0
   12.0430   14.9240   17.1770 O   0  0  0  0  0  0
   10.0910   16.9840   15.5700 C   0  0  2  0  0  0
   10.8570   16.0430   14.6470 C   0  0  0  0  0  0
    9.9500   18.3820   15.0030 C   0  0  0  0  0  0
   10.2540   15.8840   13.2740 C   0  0  0  0  0  0
    9.8810   14.8850   17.8000 N   0  0  0  0  0  0
   10.0200   13.4760   18.1300 C   0  0  2  0  0  0
    9.8560   12.6210   16.8760 C   0  0  0  0  0  0
    8.9360   12.8970   16.1160 O   0  0  0  0  0  0
    8.9880   12.9620   19.1480 C   0  0  2  0  0  0
    9.3050   13.4530   20.4540 O   0  0  0  0  0  0
    9.0480   11.4420   19.2400 C   0  0  0  0  0  0
   10.7280   11.6580   16.7750 N   0  0  0  0  0  0
   10.7290   10.3370   16.2290 C   0  0  2  0  0  0
   11.2410   10.2930   14.7720 C   0  0  0  0  0  0
   12.3240   10.8530   14.5800 O   0  0  0  0  0  0
    9.3430    9.6830   16.2700 C   0  0  0  0  0  0
   10.4280    9.6570   13.9850 N   0  0  0  0  0  0
   10.1600    9.0830   12.7100 C   0  0  2  0  0  0
    9.2590    9.9030   11.7870 C   0  0  0  0  0  0
    8.9700   11.0760   12.0660 O   0  0  0  0  0  0
    9.4830    7.7200   12.9360 C   0  0  0  0  0  0
    8.8220    9.3530   10.7530 N   0  0  0  0  0  0
   27.9508   26.4513   15.7302 H   0  0  0  0  0  0
   28.4442   26.7999   14.0385 H   0  0  0  0  0  0
   26.9585   27.5506   14.7136 H   0  0  0  0  0  0
   29.7238   27.8474   15.5907 H   0  0  0  0  0  0
   27.8586   29.7541   13.9848 H   0  0  0  0  0  0
   28.9505   30.9736   15.9112 H   0  0  0  0  0  0
   29.5512   31.5278   14.3116 H   0  0  0  0  0  0
   30.5503   30.4190   15.3113 H   0  0  0  0  0  0
   29.1270   28.2057   12.6650 H   0  0  0  0  0  0
   30.6498   28.7966   13.4124 H   0  0  0  0  0  0
   29.6508   29.9053   12.4127 H   0  0  0  0  0  0
   27.3938   30.2070   17.5773 H   0  0  0  0  0  0
   25.3337   30.4068   16.8899 H   0  0  0  0  0  0
   25.3132   31.1675   14.7738 H   0  0  0  0  0  0
   26.6423   30.0565   14.2984 H   0  0  0  0  0  0
   24.4284   29.3608   13.1282 H   0  0  0  0  0  0
   24.0001   29.0520   17.8066 H   0  0  0  0  0  0
   23.8833   26.1869   16.8466 H   0  0  0  0  0  0
   23.8975   27.2389   19.6749 H   0  0  0  0  0  0
   22.8382   25.8281   19.3371 H   0  0  0  0  0  0
   26.3247   27.0963   18.9403 H   0  0  0  0  0  0
   23.7842   23.6574   19.1654 H   0  0  0  0  0  0
   28.3289   25.6362   19.0172 H   0  0  0  0  0  0
   25.7806   22.1908   19.2672 H   0  0  0  0  0  0
   28.0322   23.1890   19.1936 H   0  0  0  0  0  0
   21.8764   25.2476   16.6192 H   0  0  0  0  0  0
   19.5086   27.2009   16.9380 H   0  0  0  0  0  0
   20.4188   25.7770   14.3615 H   0  0  0  0  0  0
   18.8757   26.6786   14.5429 H   0  0  0  0  0  0
   22.3217   26.8673   13.8352 H   0  0  0  0  0  0
   22.4511   28.7670   13.9018 H   0  0  0  0  0  0
   18.0382   26.2353   18.0555 H   0  0  0  0  0  0
   17.9248   23.1698   17.8833 H   0  0  0  0  0  0
   15.4872   23.4742   18.6277 H   0  0  0  0  0  0
   15.6838   25.1829   18.1097 H   0  0  0  0  0  0
   17.3983   25.0298   20.2838 H   0  0  0  0  0  0
   17.2459   23.2402   20.3063 H   0  0  0  0  0  0
   19.3819   25.9271   21.0678 H   0  0  0  0  0  0
   19.4197   21.9815   19.4241 H   0  0  0  0  0  0
   21.7760   25.7449   21.5897 H   0  0  0  0  0  0
   21.8149   21.7807   19.9767 H   0  0  0  0  0  0
   22.9988   23.6410   21.1099 H   0  0  0  0  0  0
   16.3921   24.0372   17.5142 H   0  0  0  0  0  0
   13.6472   23.4869   17.2029 H   0  0  0  0  0  0
   13.7061   22.1898   14.6926 H   0  0  0  0  0  0
   13.4339   23.9590   14.8423 H   0  0  0  0  0  0
   15.9917   22.4388   14.2451 H   0  0  0  0  0  0
   15.3728   23.9516   13.5002 H   0  0  0  0  0  0
   16.1305   25.2891   15.2985 H   0  0  0  0  0  0
   17.3230   23.9564   15.4663 H   0  0  0  0  0  0
   12.5333   21.6484   17.5700 H   0  0  0  0  0  0
   14.0989   19.1093   17.0138 H   0  0  0  0  0  0
   14.8989   19.6608   19.2652 H   0  0  0  0  0  0
   13.2283   20.0157   19.8216 H   0  0  0  0  0  0
   13.7851   17.2663   18.8510 H   0  0  0  0  0  0
   14.5276   17.7843   20.4024 H   0  0  0  0  0  0
   12.6761   15.6465   19.8987 H   0  0  0  0  0  0
   11.0772   16.1024   20.8290 H   0  0  0  0  0  0
   12.8923   17.4034   16.5921 H   0  0  0  0  0  0
   10.1505   17.4935   17.7480 H   0  0  0  0  0  0
    9.0593   16.6094   15.6427 H   0  0  0  0  0  0
   11.8800   16.4214   14.5047 H   0  0  0  0  0  0
   10.8963   15.0399   15.0967 H   0  0  0  0  0  0
    9.3909   19.0105   15.7118 H   0  0  0  0  0  0
    9.4083   18.3369   14.0467 H   0  0  0  0  0  0
   10.9484   18.8135   14.8389 H   0  0  0  0  0  0
   10.8696   15.1915   12.6811 H   0  0  0  0  0  0
   10.2181   16.8630   12.7737 H   0  0  0  0  0  0
    9.2344   15.4815   13.3657 H   0  0  0  0  0  0
    8.9145   15.3905   17.9426 H   0  0  0  0  0  0
   11.0324   13.4457   18.5592 H   0  0  0  0  0  0
    7.9865   13.3281   18.8779 H   0  0  0  0  0  0
    9.3266   14.5362   20.6441 H   0  0  0  0  0  0
    8.8114   11.0056   18.2584 H   0  0  0  0  0  0
    8.3173   11.0905   19.9833 H   0  0  0  0  0  0
   10.0587   11.1327   19.5447 H   0  0  0  0  0  0
   11.6362   12.0575   17.2499 H   0  0  0  0  0  0
   11.4253    9.8412   16.9213 H   0  0  0  0  0  0
    8.9583    9.7033   17.3003 H   0  0  0  0  0  0
    9.4193    8.6404   15.9276 H   0  0  0  0  0  0
    8.6570   10.2360   15.6115 H   0  0  0  0  0  0
    9.6684    9.6115   14.7793 H   0  0  0  0  0  0
   11.1662    9.0592   12.2661 H   0  0  0  0  0  0
   10.1095    7.1048   13.5987 H   0  0  0  0  0  0
    9.3579    7.2081   11.9704 H   0  0  0  0  0  0
    8.4976    7.8726   13.4005 H   0  0  0  0  0  0
    9.0931    8.3110   10.5278 H   0  0  0  0  0  0
    8.1664    9.9110   10.0683 H   0  0  0  0  0  0
  1  2  1  0  0  0
  1 85  1  0  0  0
  1 86  1  0  0  0
  1 87  1  0  0  0
  2  3  1  0  0  0
  2  5  1  0  0  0
  2 88  1  0  0  0
  3  4  2  0  0  0
  3  8  1  0  0  0
  5  6  1  0  0  0
  5  7  1  0  0  0
  5 89  1  0  0  0
  6 90  1  0  0  0
  6 91  1  0  0  0
  6 92  1  0  0  0
  7 93  1  0  0  0
  7 94  1  0  0  0
  7 95  1  0  0  0
  8  9  1  0  0  0
  8 96  1  0  0  0
  9 10  1  0  0  0
  9 12  1  0  0  0
  9 97  1  0  0  0
 10 11  2  0  0  0
 10 14  1  0  0  0
 12 13  1  0  0  0
 12 98  1  0  0  0
 12 99  1  0  0  0
 13100  1  0  0  0
 14 15  1  0  0  0
 14101  1  0  0  0
 15 16  1  0  0  0
 15 18  1  0  0  0
 15102  1  0  0  0
 16 17  2  0  0  0
 16 25  1  0  0  0
 18 19  1  0  0  0
 18103  1  0  0  0
 18104  1  0  0  0
 19 20  2  0  0  0
 19 21  1  0  0  0
 20 22  1  0  0  0
 20105  1  0  0  0
 21 23  2  0  0  0
 21106  1  0  0  0
 22 24  2  0  0  0
 22107  1  0  0  0
 23 24  1  0  0  0
 23108  1  0  0  0
 24109  1  0  0  0
 25 26  1  0  0  0
 25110  1  0  0  0
 26 27  1  0  0  0
 26 29  1  0  0  0
 26111  1  0  0  0
 27 28  2  0  0  0
 27 33  1  0  0  0
 29 30  1  0  0  0
 29112  1  0  0  0
 29113  1  0  0  0
 30 31  2  0  0  0
 30 32  1  0  0  0
 32114  1  0  0  0
 32115  1  0  0  0
 33 34  1  0  0  0
 33116  1  0  0  0
 34 35  1  0  0  0
 34 36  1  0  0  0
 34117  1  0  0  0
 35 43  1  0  0  0
 35118  1  0  0  0
 35119  1  0  0  0
 36 37  1  0  0  0
 36120  1  0  0  0
 36121  1  0  0  0
 37 38  2  0  0  0
 37 39  1  0  0  0
 38 40  1  0  0  0
 38122  1  0  0  0
 39 41  2  0  0  0
 39123  1  0  0  0
 40 42  2  0  0  0
 40124  1  0  0  0
 41 42  1  0  0  0
 41125  1  0  0  0
 42126  1  0  0  0
 43 44  1  0  0  0
 43 49  1  0  0  0
 43127  1  0  0  0
 44 45  1  0  0  0
 44 47  1  0  0  0
 44128  1  0  0  0
 45 46  2  0  0  0
 45 50  1  0  0  0
 47 48  1  0  0  0
 47129  1  0  0  0
 47130  1  0  0  0
 48 49  1  0  0  0
 48131  1  0  0  0
 48132  1  0  0  0
 49133  1  0  0  0
 49134  1  0  0  0
 50 51  1  0  0  0
 50135  1  0  0  0
 51 52  1  0  0  0
 51 54  1  0  0  0
 51136  1  0  0  0
 52 53  2  0  0  0
 52 59  1  0  0  0
 54 55  1  0  0  0
 54137  1  0  0  0
 54138  1  0  0  0
 55 56  1  0  0  0
 55139  1  0  0  0
 55140  1  0  0  0
 56 57  2  0  0  0
 56 58  1  0  0  0
 58141  1  0  0  0
 58142  1  0  0  0
 59 60  1  0  0  0
 59143  1  0  0  0
 60 61  1  0  0  0
 60 63  1  0  0  0
 60144  1  0  0  0
 61 62  2  0  0  0
 61 67  1  0  0  0
 63 64  1  0  0  0
 63 65  1  0  0  0
 63145  1  0  0  0
 64 66  1  0  0  0
 64146  1  0  0  0
 64147  1  0  0  0
 65148  1  0  0  0
 65149  1  0  0  0
 65150  1  0  0  0
 66151  1  0  0  0
 66152  1  0  0  0
 66153  1  0  0  0
 67 68  1  0  0  0
 67154  1  0  0  0
 68 69  1  0  0  0
 68 71  1  0  0  0
 68155  1  0  0  0
 69 70  2  0  0  0
 69 74  1  0  0  0
 71 72  1  0  0  0
 71 73  1  0  0  0
 71156  1  0  0  0
 72157  1  0  0  0
 73158  1  0  0  0
 73159  1  0  0  0
 73160  1  0  0  0
 74 75  1  0  0  0
 74161  1  0  0  0
 75 76  1  0  0  0
 75 78  1  0  0  0
 75162  1  0  0  0
 76 77  2  0  0  0
 76 79  1  0  0  0
 78163  1  0  0  0
 78164  1  0  0  0
 78165  1  0  0  0
 79 80  1  0  0  0
 79166  1  0  0  0
 80 81  1  0  0  0
 80 83  1  0  0  0
 80167  1  0  0  0
 81 82  2  0  0  0
 81 84  1  0  0  0
 83168  1  0  0  0
 83169  1  0  0  0
 83170  1  0  0  0
 84171  1  0  0  0
 84172  1  0  0  0
M  CHG  2   1   1  43   1
M  END
> <s_m_source_file>
../2aoj_ligand.sdf

> <i_m_source_file_index>
1

> <s_epik_input>
W0NIM11bQ0hdKFtDSDNdKVtDQEhdKFtOSDMrXSlDKD1PKVtOSF1bQ0BASF0oW0NIMl1bT0hdKUMoPU8pW05IXVtDQEBIXShbQ0gyXWMxW2NIXVtjSF1bY0hdW2NIXVtjSF0xKUMoPU8pW05IXVtDQEBIXShbQ0gyXUMoPU8pW05IMl0pQyg9TylbTkhdW0NAQEhdKFtDSDJdYzJbY0hdW2NIXVtjSF1bY0hdW2NIXTIpW0NIMl1bTkgrXTNbQ0BASF0oW0NIMl1bQ0gyXVtDSDJdMylDKD1PKVtOSF1bQ0BASF0oW0NIMl1bQ0gyXUMoPU8pW05IMl0pQyg9TylbTkhdW0NAQEhdKFtDQEBIXShbQ0gzXSlbQ0gyXVtDSDNdKUMoPU8pW05IXVtDQEBIXShbQ0BIXShbT0hdKVtDSDNdKUMoPU8pW05IXVtDQEBIXShbQ0gzXSlDKD1PKVtOSF1bQ0BASF0oW0NIM10pQyg9TylbTkgyXQ==

> <s_epik_cmdline>
J2VwaWtfYXBwJywgJy1pbWFlJywgJ2xpZ2FuZF9wcm8ubWFlJywgJy1vbWFlJywgJ2xpZ2FuZF9wcmVwLm1hZScsICctbXMnLCAnMScsICctcGgnLCAnNycsICctcGh0JywgJzAuNScsICctbnQn

> <s_epik_pKa_notes>
Molecule size exceeds maximum supported for generating protonation states

$$$$
