2aou_ligand
                    3D
 Schrodinger Suite 2020-3.
 48 50  0  0  1  0            999 V2000
   53.0060   -5.0200   36.6160 C   0  0  0  0  0  0
   52.0880   -4.6520   35.5600 C   0  0  0  0  0  0
   51.8960   -5.5390   34.4320 C   0  0  0  0  0  0
   52.6270   -6.7900   34.3590 C   0  0  0  0  0  0
   53.5510   -7.1500   35.4350 C   0  0  0  0  0  0
   53.7320   -6.2600   36.5550 C   0  0  0  0  0  0
   52.4820   -7.7080   33.2470 C   0  0  0  0  0  0
   53.2650   -8.9400   33.2630 C   0  0  0  0  0  0
   54.1470   -9.2070   34.3510 C   0  0  0  0  0  0
   54.2820   -8.3310   35.4110 N   0  0  0  0  0  0
   53.2780   -4.0030   37.9660 Cl  0  0  0  0  0  0
   51.5570   -7.3920   32.1290 N   0  0  0  0  0  0
   51.7620   -7.9990   30.8030 C   0  0  0  0  0  0
   52.2390   -7.1460   29.7490 C   0  0  0  0  0  0
   52.3870   -7.6880   28.4230 C   0  0  0  0  0  0
   52.0850   -9.0710   28.1240 C   0  0  0  0  0  0
   51.6220   -9.9360   29.2160 C   0  0  0  0  0  0
   51.4580   -9.3700   30.5100 C   0  0  0  0  0  0
   52.2610   -9.5310   26.6840 O   0  0  0  0  0  0
   51.5420  -11.3140   28.6290 C   0  0  0  0  0  0
   52.4700  -12.4260   28.6670 N   0  3  0  0  0  0
   52.6450  -12.4780   27.2420 C   0  0  0  0  0  0
   52.1520  -13.0520   25.9320 C   0  0  0  0  0  0
   51.6370  -13.4900   29.1610 C   0  0  0  0  0  0
   50.9020  -14.3070   30.2070 C   0  0  0  0  0  0
   51.5426   -3.7098   35.6135 H   0  0  0  0  0  0
   51.2017   -5.2667   33.6370 H   0  0  0  0  0  0
   54.4202   -6.5275   37.3568 H   0  0  0  0  0  0
   53.1755   -9.6545   32.4447 H   0  0  0  0  0  0
   54.7308  -10.1275   34.3464 H   0  0  0  0  0  0
   50.7152   -6.7024   32.2898 H   0  0  0  0  0  0
   52.4853   -6.1035   29.9505 H   0  0  0  0  0  0
   52.7367   -7.0374   27.6214 H   0  0  0  0  0  0
   51.0853  -10.0050   31.3137 H   0  0  0  0  0  0
   52.6130   -8.8227   25.9195 H   0  0  0  0  0  0
   50.6675  -11.8382   29.0418 H   0  0  0  0  0  0
   51.4438  -11.2417   27.5358 H   0  0  0  0  0  0
   53.4087  -12.4236   29.2405 H   0  0  0  0  0  0
   52.5301  -11.4681   26.8214 H   0  0  0  0  0  0
   53.6501  -12.8598   27.0097 H   0  0  0  0  0  0
   52.7696  -12.6666   25.1073 H   0  0  0  0  0  0
   51.1040  -12.7575   25.7739 H   0  0  0  0  0  0
   52.2240  -14.1492   25.9623 H   0  0  0  0  0  0
   50.6408  -13.4200   28.6998 H   0  0  0  0  0  0
   52.0912  -14.4592   28.9073 H   0  0  0  0  0  0
   50.3752  -15.1398   29.7182 H   0  0  0  0  0  0
   50.1737  -13.6672   30.7268 H   0  0  0  0  0  0
   51.6242  -14.7063   30.9343 H   0  0  0  0  0  0
  1  2  2  0  0  0
  1  6  1  0  0  0
  1 11  1  0  0  0
  2  3  1  0  0  0
  2 26  1  0  0  0
  3  4  2  0  0  0
  3 27  1  0  0  0
  4  5  1  0  0  0
  4  7  1  0  0  0
  5  6  2  0  0  0
  5 10  1  0  0  0
  6 28  1  0  0  0
  7  8  2  0  0  0
  7 12  1  0  0  0
  8  9  1  0  0  0
  8 29  1  0  0  0
  9 10  2  0  0  0
  9 30  1  0  0  0
 12 13  1  0  0  0
 12 31  1  0  0  0
 13 14  2  0  0  0
 13 18  1  0  0  0
 14 15  1  0  0  0
 14 32  1  0  0  0
 15 16  2  0  0  0
 15 33  1  0  0  0
 16 17  1  0  0  0
 16 19  1  0  0  0
 17 18  2  0  0  0
 17 20  1  0  0  0
 18 34  1  0  0  0
 19 35  1  0  0  0
 20 21  1  0  0  0
 20 36  1  0  0  0
 20 37  1  0  0  0
 21 22  1  0  0  0
 21 24  1  0  0  0
 21 38  1  0  0  0
 22 23  1  0  0  0
 22 39  1  0  0  0
 22 40  1  0  0  0
 23 41  1  0  0  0
 23 42  1  0  0  0
 23 43  1  0  0  0
 24 25  1  0  0  0
 24 44  1  0  0  0
 24 45  1  0  0  0
 25 46  1  0  0  0
 25 47  1  0  0  0
 25 48  1  0  0  0
M  CHG  1  21   1
M  END
> <s_m_source_file>
../2aou_ligand.sdf

> <i_m_source_file_index>
1

> <s_epik_input>
W2NIXTFbY0hdYyhDbClbY0hdYyhjMTIpbltjSF1bY0hdYzJbTkhdYzNbY0hdW2NIXWMoW09IXSljKFtjSF0zKVtDSDJdW05IK10oW0NIMl1bQ0gzXSlbQ0gyXVtDSDNd

> <s_epik_cmdline>
J2VwaWtfYXBwJywgJy1pbWFlJywgJ2xpZ2FuZF9wcm8ubWFlJywgJy1vbWFlJywgJ2xpZ2FuZF9wcmVwLm1hZScsICctbXMnLCAnMScsICctcGgnLCAnNycsICctcGh0JywgJzAuNScsICctbnQn

> <r_epik_Ionization_Penalty>
  0.3072

> <r_epik_Ionization_Penalty_Charging>
  0.0160

> <r_epik_Ionization_Penalty_Neutral>
  0.2912

> <r_epik_State_Penalty>
  0.2783

> <r_epik_Charging_Adjusted_Penalty>
0.294335271044158

> <i_epik_Tot_Q>
1

> <i_epik_Tot_abs_Q>
1

$$$$
