2aov_ligand
                    3D
 Schrodinger Suite 2020-3.
 28 29  0  0  1  0            999 V2000
   43.5450  -32.7960   -5.1450 N   0  3  0  0  0  0
   43.7500  -31.8430   -4.1540 C   0  0  0  0  0  0
   43.3610  -32.1760   -2.8850 N   0  0  0  0  0  0
   42.7850  -33.3930   -2.5640 C   0  0  0  0  0  0
   42.5230  -34.4560   -3.5710 C   0  0  0  0  0  0
   42.9590  -34.0470   -4.8990 C   0  0  0  0  0  0
   41.8980  -35.7450   -3.2280 C   0  0  0  0  0  0
   40.4320  -35.7700   -3.0100 C   0  0  0  0  0  0
   39.7500  -37.0130   -2.6520 C   0  0  0  0  0  0
   40.5580  -38.3030   -2.4970 C   0  0  0  0  0  0
   42.0170  -38.2860   -2.7190 C   0  0  0  0  0  0
   42.6820  -37.0100   -3.0840 C   0  0  0  0  0  0
   44.3390  -30.5340   -4.4350 N   0  0  0  0  0  0
   42.4460  -33.5760   -1.1910 N   0  0  0  0  0  0
   42.8540  -34.8450   -6.1550 C   0  0  0  0  0  0
   39.8860  -39.7840   -2.0590 Cl  0  0  0  0  0  0
   38.0910  -36.8700   -2.4440 Cl  0  0  0  0  0  0
   39.8557  -34.8511   -3.1178 H   0  0  0  0  0  0
   42.6003  -39.2010   -2.6160 H   0  0  0  0  0  0
   43.7592  -36.9950   -3.2497 H   0  0  0  0  0  0
   44.6477  -30.2782   -5.4593 H   0  0  0  0  0  0
   44.4733  -29.8053   -3.6220 H   0  0  0  0  0  0
   42.6487  -32.7765   -0.4632 H   0  0  0  0  0  0
   41.9818  -34.5166   -0.8597 H   0  0  0  0  0  0
   43.2693  -34.2660   -6.9930 H   0  0  0  0  0  0
   41.7972  -35.0748   -6.3561 H   0  0  0  0  0  0
   43.4181  -35.7826   -6.0419 H   0  0  0  0  0  0
   43.8474  -32.5855   -6.1815 H   0  0  0  0  0  0
  1  2  2  0  0  0
  1  6  1  0  0  0
  1 28  1  0  0  0
  2  3  1  0  0  0
  2 13  1  0  0  0
  3  4  2  0  0  0
  4  5  1  0  0  0
  4 14  1  0  0  0
  5  6  2  0  0  0
  5  7  1  0  0  0
  6 15  1  0  0  0
  7  8  2  0  0  0
  7 12  1  0  0  0
  8  9  1  0  0  0
  8 18  1  0  0  0
  9 10  2  0  0  0
  9 17  1  0  0  0
 10 11  1  0  0  0
 10 16  1  0  0  0
 11 12  2  0  0  0
 11 19  1  0  0  0
 12 20  1  0  0  0
 13 21  1  0  0  0
 13 22  1  0  0  0
 14 23  1  0  0  0
 14 24  1  0  0  0
 15 25  1  0  0  0
 15 26  1  0  0  0
 15 27  1  0  0  0
M  CHG  1   1   1
M  END
> <s_m_source_file>
../2aov_ligand.sdf

> <i_m_source_file_index>
1

> <s_epik_input>
W05IMl1jMW5jKFtDSDNdKWMoYyhuMSlbTkgyXSktYzJbY0hdYyhDbCljKENsKVtjSF1bY0hdMg==

> <s_epik_cmdline>
J2VwaWtfYXBwJywgJy1pbWFlJywgJ2xpZ2FuZF9wcm8ubWFlJywgJy1vbWFlJywgJ2xpZ2FuZF9wcmVwLm1hZScsICctbXMnLCAnMScsICctcGgnLCAnNycsICctcGh0JywgJzAuNScsICctbnQn

> <r_lp_tautomer_probability>
0.575010577011949

> <r_epik_Ionization_Penalty>
  0.2610

> <r_epik_Ionization_Penalty_Charging>
  0.2609

> <r_epik_Ionization_Penalty_Neutral>
  0.0000

> <r_epik_State_Penalty>
  0.4790

> <r_epik_Charging_Adjusted_Penalty>
0.73988671352115

> <i_epik_Tot_Q>
1

> <i_epik_Tot_abs_Q>
1

$$$$
