2aow_ligand
                    3D
 Schrodinger Suite 2020-3.
 30 32  0  0  1  0            999 V2000
   52.1450   -6.0350   31.2170 C   0  0  0  0  0  0
   51.9390   -7.5870   31.5160 C   0  0  0  0  0  0
   52.5520   -8.5520   30.4780 C   0  0  0  0  0  0
   53.2010   -8.0970   29.1830 C   0  0  0  0  0  0
   53.2760   -6.5890   28.9050 C   0  0  0  0  0  0
   52.3210   -5.6420   29.7310 C   0  0  0  0  0  0
   52.4600   -9.8980   30.8010 N   0  3  0  0  0  0
   52.9120  -10.9630   29.8790 C   0  0  0  0  0  0
   53.5860  -10.5440   28.5470 C   0  0  0  0  0  0
   53.7380   -9.1000   28.2080 C   0  0  0  0  0  0
   52.7100  -12.3470   30.2650 C   0  0  0  0  0  0
   53.1610  -13.3640   29.3680 C   0  0  0  0  0  0
   53.8300  -12.9660   28.0750 C   0  0  0  0  0  0
   54.0470  -11.5890   27.6510 C   0  0  0  0  0  0
   54.3850   -8.7090   26.9110 N   0  0  0  0  0  0
   51.2708   -5.4730   31.5775 H   0  0  0  0  0  0
   53.0485   -5.6788   31.7336 H   0  0  0  0  0  0
   52.3997   -7.8384   32.4827 H   0  0  0  0  0  0
   50.8632   -7.8138   31.5524 H   0  0  0  0  0  0
   54.2934   -6.2275   29.1155 H   0  0  0  0  0  0
   53.0299   -6.3979   27.8500 H   0  0  0  0  0  0
   51.3428   -5.6614   29.2283 H   0  0  0  0  0  0
   52.7459   -4.6294   29.6674 H   0  0  0  0  0  0
   52.2295  -12.6029   31.2093 H   0  0  0  0  0  0
   53.0232  -14.4166   29.6152 H   0  0  0  0  0  0
   54.1738  -13.7618   27.4142 H   0  0  0  0  0  0
   54.5333  -11.3542   26.7042 H   0  0  0  0  0  0
   54.5012   -7.6461   26.6528 H   0  0  0  0  0  0
   54.7428   -9.4854   26.2188 H   0  0  0  0  0  0
   52.0397  -10.2035   31.7706 H   0  0  0  0  0  0
  1  2  1  0  0  0
  1  6  1  0  0  0
  1 16  1  0  0  0
  1 17  1  0  0  0
  2  3  1  0  0  0
  2 18  1  0  0  0
  2 19  1  0  0  0
  3  4  2  0  0  0
  3  7  1  0  0  0
  4  5  1  0  0  0
  4 10  1  0  0  0
  5  6  1  0  0  0
  5 20  1  0  0  0
  5 21  1  0  0  0
  6 22  1  0  0  0
  6 23  1  0  0  0
  7  8  2  0  0  0
  7 30  1  0  0  0
  8  9  1  0  0  0
  8 11  1  0  0  0
  9 10  2  0  0  0
  9 14  1  0  0  0
 10 15  1  0  0  0
 11 12  2  0  0  0
 11 24  1  0  0  0
 12 13  1  0  0  0
 12 25  1  0  0  0
 13 14  2  0  0  0
 13 26  1  0  0  0
 14 27  1  0  0  0
 15 28  1  0  0  0
 15 29  1  0  0  0
M  CHG  1   7   1
M  END
> <s_m_source_file>
../2aow_ligand.sdf

> <i_m_source_file_index>
1

> <s_epik_input>
W0NIMl0xW0NIMl1bQ0gyXVtDSDJdYyhjMTIpYyhbTkgyXSljM2MobjIpW2NIXVtjSF1bY0hdW2NIXTM=

> <s_epik_cmdline>
J2VwaWtfYXBwJywgJy1pbWFlJywgJ2xpZ2FuZF9wcm8ubWFlJywgJy1vbWFlJywgJ2xpZ2FuZF9wcmVwLm1hZScsICctbXMnLCAnMScsICctcGgnLCAnNycsICctcGh0JywgJzAuNScsICctbnQn

> <r_lp_tautomer_probability>
1

> <r_epik_Ionization_Penalty>
  0.0007

> <r_epik_Ionization_Penalty_Charging>
  0.0007

> <r_epik_Ionization_Penalty_Neutral>
  0.0000

> <r_epik_State_Penalty>
 -0.0000

> <r_epik_Charging_Adjusted_Penalty>
0.000692850471966659

> <i_epik_Tot_Q>
1

> <i_epik_Tot_abs_Q>
1

$$$$
