2aox_ligand
                    3D
 Schrodinger Suite 2020-3.
 30 32  0  0  1  0            999 V2000
   51.8020   -5.6770   30.6340 C   0  0  0  0  0  0
   51.6420   -7.1800   31.2170 C   0  0  0  0  0  0
   52.0990   -8.2670   30.2830 C   0  0  0  0  0  0
   52.8870   -7.9830   29.0650 C   0  0  0  0  0  0
   53.2950   -6.5630   28.6640 C   0  0  0  0  0  0
   52.9660   -5.3990   29.6420 C   0  0  0  0  0  0
   51.7520   -9.5340   30.6130 N   0  3  0  0  0  0
   52.1910  -10.7210   29.7860 C   0  0  0  0  0  0
   52.9800  -10.4410   28.5340 C   0  0  0  0  0  0
   53.3020   -9.0660   28.1970 C   0  0  0  0  0  0
   51.8670  -12.1120   30.1510 C   0  0  0  0  0  0
   52.3090  -13.1960   29.3010 C   0  0  0  0  0  0
   53.0730  -12.8760   28.0910 C   0  0  0  0  0  0
   53.4090  -11.5310   27.7040 C   0  0  0  0  0  0
   54.0600   -8.7480   26.9680 N   0  0  0  0  0  0
   50.8888   -5.3960   30.0889 H   0  0  0  0  0  0
   51.9624   -4.9760   31.4664 H   0  0  0  0  0  0
   52.2352   -7.2812   32.1378 H   0  0  0  0  0  0
   50.5828   -7.3761   31.4398 H   0  0  0  0  0  0
   54.3857   -6.5194   28.5283 H   0  0  0  0  0  0
   52.7971   -6.2907   27.7217 H   0  0  0  0  0  0
   52.7164   -4.5276   29.0188 H   0  0  0  0  0  0
   53.8877   -5.1943   30.2063 H   0  0  0  0  0  0
   51.2976  -12.3226   31.0563 H   0  0  0  0  0  0
   52.0786  -14.2306   29.5551 H   0  0  0  0  0  0
   53.4025  -13.6966   27.4537 H   0  0  0  0  0  0
   53.9803  -11.3430   26.7949 H   0  0  0  0  0  0
   54.2978   -7.7022   26.7236 H   0  0  0  0  0  0
   54.3861   -9.5572   26.2981 H   0  0  0  0  0  0
   51.1344   -9.7208   31.5039 H   0  0  0  0  0  0
  1  2  1  0  0  0
  1  6  1  0  0  0
  1 16  1  0  0  0
  1 17  1  0  0  0
  2  3  1  0  0  0
  2 18  1  0  0  0
  2 19  1  0  0  0
  3  4  2  0  0  0
  3  7  1  0  0  0
  4  5  1  0  0  0
  4 10  1  0  0  0
  5  6  1  0  0  0
  5 20  1  0  0  0
  5 21  1  0  0  0
  6 22  1  0  0  0
  6 23  1  0  0  0
  7  8  2  0  0  0
  7 30  1  0  0  0
  8  9  1  0  0  0
  8 11  1  0  0  0
  9 10  2  0  0  0
  9 14  1  0  0  0
 10 15  1  0  0  0
 11 12  2  0  0  0
 11 24  1  0  0  0
 12 13  1  0  0  0
 12 25  1  0  0  0
 13 14  2  0  0  0
 13 26  1  0  0  0
 14 27  1  0  0  0
 15 28  1  0  0  0
 15 29  1  0  0  0
M  CHG  1   7   1
M  END
> <s_m_source_file>
../2aox_ligand.sdf

> <i_m_source_file_index>
1

> <s_epik_input>
W0NIMl0xW0NIMl1bQ0gyXVtDSDJdYyhjMTIpYyhbTkgyXSljM2MobjIpW2NIXVtjSF1bY0hdW2NIXTM=

> <s_epik_cmdline>
J2VwaWtfYXBwJywgJy1pbWFlJywgJ2xpZ2FuZF9wcm8ubWFlJywgJy1vbWFlJywgJ2xpZ2FuZF9wcmVwLm1hZScsICctbXMnLCAnMScsICctcGgnLCAnNycsICctcGh0JywgJzAuNScsICctbnQn

> <r_lp_tautomer_probability>
1

> <r_epik_Ionization_Penalty>
  0.0007

> <r_epik_Ionization_Penalty_Charging>
  0.0007

> <r_epik_Ionization_Penalty_Neutral>
  0.0000

> <r_epik_State_Penalty>
 -0.0000

> <r_epik_Charging_Adjusted_Penalty>
0.000692850471966659

> <i_epik_Tot_Q>
1

> <i_epik_Tot_abs_Q>
1

$$$$
