2aq7_ligand
                    3D
 Schrodinger Suite 2020-3.
 30 30  0  0  1  0            999 V2000
   22.1480   87.6940    0.9150 O   0  0  0  0  0  0
   22.9200   88.6240    1.0870 C   0  0  0  0  0  0
   23.2540   89.0800    2.2900 C   0  0  0  0  0  0
   22.6340   88.5620    3.5550 C   0  0  0  0  0  0
   23.6250   89.4110   -0.2000 S   0  0  0  0  0  0
   24.4690   90.5370    0.8680 C   0  0  2  0  0  0
   24.1710   90.0360    2.2570 C   0  0  0  0  0  0
   24.7800   90.5040    3.3460 O   0  5  0  0  0  0
   23.9290   91.9580    0.7290 C   0  0  0  0  0  0
   25.9640   90.4880    0.6030 C   0  0  0  0  0  0
   26.5520   90.7770   -0.5790 C   0  0  0  0  0  0
   25.8180   91.2110   -1.8240 C   0  0  0  0  0  0
   28.0250   90.6920   -0.6220 C   0  0  0  0  0  0
   28.7210   91.0360   -1.7040 C   0  0  0  0  0  0
   30.2190   90.9570   -1.6720 C   0  0  0  0  0  0
   21.9056   87.7747    3.3107 H   0  0  0  0  0  0
   22.1234   89.3848    4.0767 H   0  0  0  0  0  0
   23.4186   88.1468    4.2046 H   0  0  0  0  0  0
   22.8469   91.9599    0.9264 H   0  0  0  0  0  0
   24.1162   92.3232   -0.2916 H   0  0  0  0  0  0
   24.4348   92.6148    1.4520 H   0  0  0  0  0  0
   26.5790   90.1901    1.4650 H   0  0  0  0  0  0
   24.7359   91.2222   -1.6266 H   0  0  0  0  0  0
   26.0344   90.5073   -2.6413 H   0  0  0  0  0  0
   26.1487   92.2199   -2.1116 H   0  0  0  0  0  0
   28.5474   90.3313    0.2763 H   0  0  0  0  0  0
   28.1973   91.3743   -2.6103 H   0  0  0  0  0  0
   30.6238   91.2759   -2.6438 H   0  0  0  0  0  0
   30.5272   89.9208   -1.4686 H   0  0  0  0  0  0
   30.6041   91.6163   -0.8801 H   0  0  0  0  0  0
  1  2  2  0  0  0
  2  3  1  0  0  0
  2  5  1  0  0  0
  3  4  1  0  0  0
  3  7  2  0  0  0
  4 16  1  0  0  0
  4 17  1  0  0  0
  4 18  1  0  0  0
  5  6  1  0  0  0
  6  7  1  0  0  0
  6  9  1  0  0  0
  6 10  1  0  0  0
  7  8  1  0  0  0
  9 19  1  0  0  0
  9 20  1  0  0  0
  9 21  1  0  0  0
 10 11  2  0  0  0
 10 22  1  0  0  0
 11 12  1  0  0  0
 11 13  1  0  0  0
 12 23  1  0  0  0
 12 24  1  0  0  0
 12 25  1  0  0  0
 13 14  2  0  0  0
 13 26  1  0  0  0
 14 15  1  0  0  0
 14 27  1  0  0  0
 15 28  1  0  0  0
 15 29  1  0  0  0
 15 30  1  0  0  0
M  CHG  1   8  -1
M  END
> <s_m_source_file>
../2aq7_ligand.sdf

> <i_m_source_file_index>
1

> <s_epik_input>
W09IXUMxPUMoW0NIM10pQyg9TylTW0NAXTEoW0NIM10pL1tDSF09QyhcW0NIM10pL1tDSF09W0NIXS9bQ0gzXQ==

> <s_epik_cmdline>
J2VwaWtfYXBwJywgJy1pbWFlJywgJ2xpZ2FuZF9wcm8ubWFlJywgJy1vbWFlJywgJ2xpZ2FuZF9wcmVwLm1hZScsICctbXMnLCAnMScsICctcGgnLCAnNycsICctcGh0JywgJzAuNScsICctbnQn

> <r_lp_tautomer_probability>
1

> <r_epik_Ionization_Penalty>
  0.0002

> <r_epik_Ionization_Penalty_Charging>
  0.0002

> <r_epik_Ionization_Penalty_Neutral>
  0.0000

> <r_epik_State_Penalty>
 -0.0000

> <r_epik_Charging_Adjusted_Penalty>
0.000156058272939021

> <i_epik_Tot_Q>
-1

> <i_epik_Tot_abs_Q>
1

$$$$
