2aq9_ligand
                    3D
 Schrodinger Suite 2020-3.
198202  0  0  1  0            999 V2000
   55.3680   65.9800   65.1030 N   0  3  0  0  0  0
   54.8240   67.3080   65.5100 C   0  0  2  0  0  0
   54.8590   68.3110   64.3680 C   0  0  0  0  0  0
   55.8170   68.3560   63.5950 O   0  0  0  0  0  0
   55.6140   67.8710   66.6900 C   0  0  0  0  0  0
   55.3640   67.1610   67.9750 C   0  0  0  0  0  0
   56.2680   66.4500   68.7090 C   0  0  0  0  0  0
   54.1240   67.0960   68.6900 C   0  0  0  0  0  0
   55.6680   65.9440   69.8390 N   0  0  0  0  0  0
   54.3520   66.3270   69.8520 C   0  0  0  0  0  0
   52.8410   67.6150   68.4620 C   0  0  0  0  0  0
   53.3440   66.0620   70.7850 C   0  0  0  0  0  0
   51.8390   67.3510   69.3900 C   0  0  0  0  0  0
   52.0980   66.5820   70.5370 C   0  0  0  0  0  0
   53.8080   69.1150   64.2730 N   0  0  0  0  0  0
   53.7060   70.1280   63.2330 C   0  0  2  0  0  0
   52.9030   71.3090   63.7550 C   0  0  0  0  0  0
   51.7830   71.1430   64.2340 O   0  0  0  0  0  0
   53.0280   69.5450   61.9970 C   0  0  0  0  0  0
   53.4820   72.5000   63.6710 N   0  0  0  0  0  0
   52.7900   73.6990   64.1210 C   0  0  2  0  0  0
   51.9940   74.2720   62.9550 C   0  0  0  0  0  0
   52.5340   74.4750   61.8700 O   0  0  0  0  0  0
   53.7940   74.7450   64.6150 C   0  0  0  0  0  0
   53.2140   76.1210   64.9610 C   0  0  0  0  0  0
   52.1860   75.9900   66.0770 C   0  0  0  0  0  0
   54.3390   77.0540   65.3790 C   0  0  0  0  0  0
   50.7090   74.5210   63.1880 N   0  0  0  0  0  0
   49.8200   75.0860   62.1750 C   0  0  2  0  0  0
   49.3510   76.4360   62.7380 C   0  0  0  0  0  0
   48.3420   76.5000   63.4430 O   0  0  0  0  0  0
   48.6180   74.1520   61.9680 C   0  0  0  0  0  0
   47.7970   74.5130   60.7460 C   0  0  0  0  0  0
   47.7790   75.7050   60.3760 O   0  0  0  0  0  0
   47.1570   73.6070   60.1650 O   0  0  0  0  0  0
   50.0800   77.5310   62.4400 N   0  0  0  0  0  0
   49.7040   78.8590   62.9460 C   0  0  2  0  0  0
   48.3150   79.3200   62.5270 C   0  0  0  0  0  0
   47.5670   79.8580   63.3450 O   0  0  0  0  0  0
   50.8080   79.7680   62.4030 C   0  0  0  0  0  0
   51.9870   78.8440   62.3170 C   0  0  0  0  0  0
   51.3560   77.6080   61.7070 C   0  0  0  0  0  0
   47.9680   79.1100   61.2600 N   0  0  0  0  0  0
   46.6550   79.5150   60.7730 C   0  0  2  0  0  0
   45.5510   78.7800   61.5340 C   0  0  0  0  0  0
   44.5210   79.3670   61.8810 O   0  0  0  0  0  0
   46.5180   79.2530   59.2530 C   0  0  2  0  0  0
   47.3940   80.2550   58.4910 C   0  0  0  0  0  0
   45.0490   79.3580   58.8350 C   0  0  0  0  0  0
   47.4550   80.0340   56.9920 C   0  0  0  0  0  0
   45.7670   77.4970   61.8000 N   0  0  0  0  0  0
   44.7880   76.7150   62.5400 C   0  0  2  0  0  0
   44.9050   77.0730   64.0200 C   0  0  0  0  0  0
   43.9250   76.9960   64.7680 O   0  0  0  0  0  0
   45.0420   75.2220   62.3420 C   0  0  0  0  0  0
   46.1100   77.4680   64.4270 N   0  0  0  0  0  0
   46.3640   77.8280   65.8120 C   0  0  0  0  0  0
   46.4740   76.5950   66.6860 C   0  0  0  0  0  0
   46.0370   76.6030   67.8400 O   0  0  0  0  0  0
   47.0750   75.5360   66.1470 N   0  0  0  0  0  0
   47.2060   74.2780   66.8770 C   0  0  2  0  0  0
   48.4870   73.5160   66.5550 C   0  0  0  0  0  0
   49.1360   73.7600   65.5360 O   0  0  0  0  0  0
   46.0270   73.3630   66.5330 C   0  0  0  0  0  0
   46.0580   72.8990   65.0770 C   0  0  0  0  0  0
   44.8980   71.9900   64.7010 C   0  0  0  0  0  0
   44.9930   71.5840   63.2300 C   0  0  0  0  0  0
   43.8240   70.7800   62.7790 N   0  3  0  0  0  0
   48.8420   72.5910   67.4430 N   0  0  0  0  0  0
   49.9920   71.7230   67.2340 C   0  0  2  0  0  0
   49.3510   70.4590   66.6840 C   0  0  0  0  0  0
   48.4670   69.8880   67.3220 O   0  0  0  0  0  0
   50.7020   71.3990   68.5510 C   0  0  0  0  0  0
   51.5810   72.4920   69.0510 C   0  0  0  0  0  0
   51.2860   73.4040   70.0200 C   0  0  0  0  0  0
   52.9010   72.8030   68.5920 C   0  0  0  0  0  0
   52.3410   74.2680   70.1940 N   0  0  0  0  0  0
   53.3450   73.9220   69.3290 C   0  0  0  0  0  0
   53.7510   72.2470   67.6260 C   0  0  0  0  0  0
   54.6040   74.4970   69.1320 C   0  0  0  0  0  0
   55.0060   72.8200   67.4310 C   0  0  0  0  0  0
   55.4180   73.9340   68.1820 C   0  0  0  0  0  0
   49.7700   70.0310   65.4990 N   0  0  0  0  0  0
   49.1920   68.8370   64.8990 C   0  0  2  0  0  0
   50.1340   67.6430   64.9510 C   0  0  0  0  0  0
   51.3500   67.7980   65.0850 O   0  0  0  0  0  0
   48.7960   69.1170   63.4470 C   0  0  0  0  0  0
   48.0750   68.0270   62.9010 O   0  0  0  0  0  0
   49.5540   66.4510   64.8470 N   0  0  0  0  0  0
   50.3100   65.2050   64.8750 C   0  0  2  0  0  0
   49.9570   64.3440   63.6680 C   0  0  0  0  0  0
   50.4350   64.6650   62.5590 O   0  0  0  0  0  0
   50.0010   64.4400   66.1660 C   0  0  0  0  0  0
   51.0810   64.5550   67.2230 C   0  0  0  0  0  0
   52.2120   63.5990   66.9190 C   0  0  0  0  0  0
   53.4610   64.0060   67.5480 N   0  0  0  0  0  0
   54.5840   63.3010   67.4870 C   0  0  0  0  0  0
   54.6090   62.1490   66.8280 N   0  0  0  0  0  0
   55.6830   63.7500   68.0730 N   0  0  0  0  0  0
   49.1950   63.3700   63.8430 O   0  0  0  0  0  0
   54.7876   65.5908   64.2535 H   0  0  0  0  0  0
   55.2957   65.2796   65.9481 H   0  0  0  0  0  0
   56.4218   66.0904   64.8073 H   0  0  0  0  0  0
   53.7766   67.1259   65.7923 H   0  0  0  0  0  0
   56.6910   67.7953   66.4797 H   0  0  0  0  0  0
   55.3434   68.9263   66.8424 H   0  0  0  0  0  0
   57.3140   66.3040   68.4393 H   0  0  0  0  0  0
   52.6332   68.2135   67.5750 H   0  0  0  0  0  0
   53.5405   65.4650   71.6755 H   0  0  0  0  0  0
   50.8370   67.7470   69.2247 H   0  0  0  0  0  0
   51.2915   66.3941   71.2458 H   0  0  0  0  0  0
   52.9991   68.9994   65.0095 H   0  0  0  0  0  0
   54.7333   70.4372   62.9901 H   0  0  0  0  0  0
   53.6143   68.6917   61.6254 H   0  0  0  0  0  0
   52.9662   70.3159   61.2148 H   0  0  0  0  0  0
   52.0147   69.2071   62.2597 H   0  0  0  0  0  0
   54.4976   72.5745   63.2551 H   0  0  0  0  0  0
   52.1293   73.3907   64.9447 H   0  0  0  0  0  0
   54.2828   74.3803   65.5304 H   0  0  0  0  0  0
   54.5534   74.9198   63.8386 H   0  0  0  0  0  0
   52.7118   76.5468   64.0798 H   0  0  0  0  0  0
   51.3812   75.3122   65.7564 H   0  0  0  0  0  0
   51.7631   76.9798   66.3040 H   0  0  0  0  0  0
   52.6712   75.5835   66.9766 H   0  0  0  0  0  0
   55.0703   77.1358   64.5614 H   0  0  0  0  0  0
   54.8344   76.6525   66.2753 H   0  0  0  0  0  0
   53.9263   78.0488   65.6027 H   0  0  0  0  0  0
   50.3212   74.2846   64.1899 H   0  0  0  0  0  0
   50.3632   75.1895   61.2241 H   0  0  0  0  0  0
   48.9740   73.1191   61.8403 H   0  0  0  0  0  0
   47.9564   74.2060   62.8451 H   0  0  0  0  0  0
   46.5536   73.8431   59.2761 H   0  0  0  0  0  0
   49.6360   78.8276   64.0434 H   0  0  0  0  0  0
   50.5071   80.1645   61.4221 H   0  0  0  0  0  0
   50.9725   80.6022   63.1009 H   0  0  0  0  0  0
   52.7619   79.2966   61.6809 H   0  0  0  0  0  0
   52.3935   78.6734   63.3248 H   0  0  0  0  0  0
   51.9374   76.6915   61.8857 H   0  0  0  0  0  0
   51.1548   77.7105   60.6304 H   0  0  0  0  0  0
   48.6823   78.6259   60.5778 H   0  0  0  0  0  0
   46.5996   80.5935   60.9822 H   0  0  0  0  0  0
   46.8564   78.2372   59.0007 H   0  0  0  0  0  0
   47.0067   81.2728   58.6461 H   0  0  0  0  0  0
   48.4275   80.1954   58.8628 H   0  0  0  0  0  0
   44.4536   78.6264   59.4009 H   0  0  0  0  0  0
   44.9584   79.1504   57.7586 H   0  0  0  0  0  0
   44.6796   80.3726   59.0452 H   0  0  0  0  0  0
   48.1029   80.7965   56.5350 H   0  0  0  0  0  0
   46.4427   80.1113   56.5685 H   0  0  0  0  0  0
   47.8636   79.0339   56.7852 H   0  0  0  0  0  0
   46.6990   77.0262   61.4539 H   0  0  0  0  0  0
   43.7960   76.9744   62.1417 H   0  0  0  0  0  0
   44.9556   74.9739   61.2738 H   0  0  0  0  0  0
   44.3002   74.6449   62.9136 H   0  0  0  0  0  0
   46.0530   74.9720   62.6959 H   0  0  0  0  0  0
   46.9229   77.5185   63.6876 H   0  0  0  0  0  0
   47.3071   78.3904   65.8776 H   0  0  0  0  0  0
   45.5385   78.4514   66.1861 H   0  0  0  0  0  0
   47.4777   75.6246   65.1272 H   0  0  0  0  0  0
   47.2279   74.5942   67.9304 H   0  0  0  0  0  0
   46.0559   72.4706   67.1754 H   0  0  0  0  0  0
   45.0832   73.9033   66.6982 H   0  0  0  0  0  0
   46.0172   73.7745   64.4122 H   0  0  0  0  0  0
   46.9866   72.3397   64.8901 H   0  0  0  0  0  0
   44.9248   71.0843   65.3247 H   0  0  0  0  0  0
   43.9484   72.5203   64.8653 H   0  0  0  0  0  0
   45.0431   72.4865   62.6031 H   0  0  0  0  0  0
   45.8982   70.9787   63.0744 H   0  0  0  0  0  0
   43.9468   70.5179   61.7178 H   0  0  0  0  0  0
   42.9032   71.3679   62.9073 H   0  0  0  0  0  0
   43.7583   69.8602   63.3787 H   0  0  0  0  0  0
   48.2376   72.4927   68.3568 H   0  0  0  0  0  0
   50.7239   72.2105   66.5732 H   0  0  0  0  0  0
   49.9532   71.2020   69.3324 H   0  0  0  0  0  0
   51.3350   70.5094   68.4171 H   0  0  0  0  0  0
   50.3494   73.4427   70.5763 H   0  0  0  0  0  0
   53.4366   71.3839   67.0393 H   0  0  0  0  0  0
   54.9271   75.3613   69.7122 H   0  0  0  0  0  0
   55.6786   72.3977   66.6844 H   0  0  0  0  0  0
   56.4057   74.3600   68.0059 H   0  0  0  0  0  0
   50.5595   70.5852   64.9702 H   0  0  0  0  0  0
   48.3137   68.6182   65.5241 H   0  0  0  0  0  0
   48.1630   70.0157   63.4064 H   0  0  0  0  0  0
   49.7020   69.2791   62.8446 H   0  0  0  0  0  0
   47.7163   68.0700   61.8620 H   0  0  0  0  0  0
   48.4598   66.4281   64.7363 H   0  0  0  0  0  0
   51.3717   65.4895   64.8331 H   0  0  0  0  0  0
   50.2020   64.0669   61.6657 H   0  0  0  0  0  0
   49.0711   64.8272   66.6080 H   0  0  0  0  0  0
   49.8813   63.3704   65.9387 H   0  0  0  0  0  0
   51.4722   65.5830   67.2372 H   0  0  0  0  0  0
   50.6574   64.3103   68.2082 H   0  0  0  0  0  0
   51.9539   62.5960   67.2897 H   0  0  0  0  0  0
   52.3748   63.5574   65.8319 H   0  0  0  0  0  0
   53.5103   64.9477   68.1144 H   0  0  0  0  0  0
   53.6969   61.7743   66.3405 H   0  0  0  0  0  0
   55.5418   61.5690   66.7694 H   0  0  0  0  0  0
   55.6642   64.7044   68.6195 H   0  0  0  0  0  0
  1  2  1  0  0  0
  1101  1  0  0  0
  1102  1  0  0  0
  1103  1  0  0  0
  2  3  1  0  0  0
  2  5  1  0  0  0
  2104  1  0  0  0
  3  4  2  0  0  0
  3 15  1  0  0  0
  5  6  1  0  0  0
  5105  1  0  0  0
  5106  1  0  0  0
  6  7  2  0  0  0
  6  8  1  0  0  0
  7  9  1  0  0  0
  7107  1  0  0  0
  8 10  2  0  0  0
  8 11  1  0  0  0
  9 10  1  0  0  0
 10 12  1  0  0  0
 11 13  2  0  0  0
 11108  1  0  0  0
 12 14  2  0  0  0
 12109  1  0  0  0
 13 14  1  0  0  0
 13110  1  0  0  0
 14111  1  0  0  0
 15 16  1  0  0  0
 15112  1  0  0  0
 16 17  1  0  0  0
 16 19  1  0  0  0
 16113  1  0  0  0
 17 18  2  0  0  0
 17 20  1  0  0  0
 19114  1  0  0  0
 19115  1  0  0  0
 19116  1  0  0  0
 20 21  1  0  0  0
 20117  1  0  0  0
 21 22  1  0  0  0
 21 24  1  0  0  0
 21118  1  0  0  0
 22 23  2  0  0  0
 22 28  1  0  0  0
 24 25  1  0  0  0
 24119  1  0  0  0
 24120  1  0  0  0
 25 26  1  0  0  0
 25 27  1  0  0  0
 25121  1  0  0  0
 26122  1  0  0  0
 26123  1  0  0  0
 26124  1  0  0  0
 27125  1  0  0  0
 27126  1  0  0  0
 27127  1  0  0  0
 28 29  1  0  0  0
 28128  1  0  0  0
 29 30  1  0  0  0
 29 32  1  0  0  0
 29129  1  0  0  0
 30 31  2  0  0  0
 30 36  1  0  0  0
 32 33  1  0  0  0
 32130  1  0  0  0
 32131  1  0  0  0
 33 34  2  0  0  0
 33 35  1  0  0  0
 35132  1  0  0  0
 36 37  1  0  0  0
 36 42  1  0  0  0
 37 38  1  0  0  0
 37 40  1  0  0  0
 37133  1  0  0  0
 38 39  2  0  0  0
 38 43  1  0  0  0
 40 41  1  0  0  0
 40134  1  0  0  0
 40135  1  0  0  0
 41 42  1  0  0  0
 41136  1  0  0  0
 41137  1  0  0  0
 42138  1  0  0  0
 42139  1  0  0  0
 43 44  1  0  0  0
 43140  1  0  0  0
 44 45  1  0  0  0
 44 47  1  0  0  0
 44141  1  0  0  0
 45 46  2  0  0  0
 45 51  1  0  0  0
 47 48  1  0  0  0
 47 49  1  0  0  0
 47142  1  0  0  0
 48 50  1  0  0  0
 48143  1  0  0  0
 48144  1  0  0  0
 49145  1  0  0  0
 49146  1  0  0  0
 49147  1  0  0  0
 50148  1  0  0  0
 50149  1  0  0  0
 50150  1  0  0  0
 51 52  1  0  0  0
 51151  1  0  0  0
 52 53  1  0  0  0
 52 55  1  0  0  0
 52152  1  0  0  0
 53 54  2  0  0  0
 53 56  1  0  0  0
 55153  1  0  0  0
 55154  1  0  0  0
 55155  1  0  0  0
 56 57  1  0  0  0
 56156  1  0  0  0
 57 58  1  0  0  0
 57157  1  0  0  0
 57158  1  0  0  0
 58 59  2  0  0  0
 58 60  1  0  0  0
 60 61  1  0  0  0
 60159  1  0  0  0
 61 62  1  0  0  0
 61 64  1  0  0  0
 61160  1  0  0  0
 62 63  2  0  0  0
 62 69  1  0  0  0
 64 65  1  0  0  0
 64161  1  0  0  0
 64162  1  0  0  0
 65 66  1  0  0  0
 65163  1  0  0  0
 65164  1  0  0  0
 66 67  1  0  0  0
 66165  1  0  0  0
 66166  1  0  0  0
 67 68  1  0  0  0
 67167  1  0  0  0
 67168  1  0  0  0
 68169  1  0  0  0
 68170  1  0  0  0
 68171  1  0  0  0
 69 70  1  0  0  0
 69172  1  0  0  0
 70 71  1  0  0  0
 70 73  1  0  0  0
 70173  1  0  0  0
 71 72  2  0  0  0
 71 83  1  0  0  0
 73 74  1  0  0  0
 73174  1  0  0  0
 73175  1  0  0  0
 74 75  2  0  0  0
 74 76  1  0  0  0
 75 77  1  0  0  0
 75176  1  0  0  0
 76 78  2  0  0  0
 76 79  1  0  0  0
 77 78  1  0  0  0
 78 80  1  0  0  0
 79 81  2  0  0  0
 79177  1  0  0  0
 80 82  2  0  0  0
 80178  1  0  0  0
 81 82  1  0  0  0
 81179  1  0  0  0
 82180  1  0  0  0
 83 84  1  0  0  0
 83181  1  0  0  0
 84 85  1  0  0  0
 84 87  1  0  0  0
 84182  1  0  0  0
 85 86  2  0  0  0
 85 89  1  0  0  0
 87 88  1  0  0  0
 87183  1  0  0  0
 87184  1  0  0  0
 88185  1  0  0  0
 89 90  1  0  0  0
 89186  1  0  0  0
 90 91  1  0  0  0
 90 93  1  0  0  0
 90187  1  0  0  0
 91 92  1  0  0  0
 91100  2  0  0  0
 92188  1  0  0  0
 93 94  1  0  0  0
 93189  1  0  0  0
 93190  1  0  0  0
 94 95  1  0  0  0
 94191  1  0  0  0
 94192  1  0  0  0
 95 96  1  0  0  0
 95193  1  0  0  0
 95194  1  0  0  0
 96 97  1  0  0  0
 96195  1  0  0  0
 97 98  1  0  0  0
 97 99  2  0  0  0
 98196  1  0  0  0
 98197  1  0  0  0
 99198  1  0  0  0
M  CHG  2   1   1  68   1
M  END
> <s_m_source_file>
../2aq9_ligand.sdf

> <i_m_source_file_index>
1

> <s_epik_input>
W2NIXTFbY0hdW2NIXVtjSF1jKGMxMilbbkhdW2NIXWMyW0NIMl1bQ0BIXShbTkgzK10pQyg9TylbTkhdW0NAQEhdKFtDSDNdKUMoPU8pW05IXVtDQEBIXShbQ0gyXVtDSF0oW0NIM10pW0NIM10pQyg9TylbTkhdW0NAQEhdKFtDSDJdQyg9TylbT0hdKUMoPU8pTjNbQ0BASF0oW0NIMl1bQ0gyXVtDSDJdMylDKD1PKVtOSF1bQ0BASF0oW0NAQEhdKFtDSDNdKVtDSDJdW0NIM10pQyg9TylbTkhdW0NAQEhdKFtDSDNdKUMoPU8pW05IXVtDSDJdQyg9TylbTkhdW0NAQEhdKFtDSDJdW0NIMl1bQ0gyXVtDSDJdW05IMytdKUMoPU8pW05IXVtDQEBIXShbQ0gyXWM0W2NIXVtuSF1jKGM0NSlbY0hdW2NIXVtjSF1bY0hdNSlDKD1PKVtOSF1bQ0BASF0oW0NIMl1bT0hdKUMoPU8pW05IXVtDQEhdKEMoPU8pW09IXSlbQ0gyXVtDSDJdW0NIMl1bTkhdL0MoW05IMl0pPU5cW0hd

> <s_epik_cmdline>
J2VwaWtfYXBwJywgJy1pbWFlJywgJ2xpZ2FuZF9wcm8ubWFlJywgJy1vbWFlJywgJ2xpZ2FuZF9wcmVwLm1hZScsICctbXMnLCAnMScsICctcGgnLCAnNycsICctcGh0JywgJzAuNScsICctbnQn

> <s_epik_pKa_notes>
Molecule size exceeds maximum supported for generating protonation states

> <s_epik_Chemistry_Notes>
This compound has an imine and may undergo hydrolysis.

$$$$
