2aqb_ligand
                    3D
 Schrodinger Suite 2020-3.
 24 24  0  0  1  0            999 V2000
   22.2660   88.0160    1.1160 O   0  0  0  0  0  0
   23.0760   88.9270    1.1820 C   0  0  0  0  0  0
   23.8050   89.5290   -0.1930 S   0  0  0  0  0  0
   24.6930   90.7300    0.7510 C   0  0  1  0  0  0
   24.1800   92.1180    0.3990 C   0  0  0  0  0  0
   24.3800   90.4160    2.1900 C   0  0  0  0  0  0
   25.0050   91.0010    3.2170 O   0  5  0  0  0  0
   23.4360   89.4940    2.3300 C   0  0  0  0  0  0
   22.8240   89.1300    3.6500 C   0  0  0  0  0  0
   26.1890   90.6170    0.5240 C   0  0  0  0  0  0
   26.7320   90.4520   -0.6830 C   0  0  0  0  0  0
   28.1870   90.3500   -0.8030 C   0  0  0  0  0  0
   28.8330   90.9270   -1.8010 C   0  0  0  0  0  0
   23.0952   92.1635    0.5752 H   0  0  0  0  0  0
   24.3886   92.3282   -0.6604 H   0  0  0  0  0  0
   24.6853   92.8660    1.0276 H   0  0  0  0  0  0
   22.0697   88.3435    3.5000 H   0  0  0  0  0  0
   22.3457   90.0177    4.0896 H   0  0  0  0  0  0
   23.6077   88.7619    4.3284 H   0  0  0  0  0  0
   26.8334   90.6772    1.4134 H   0  0  0  0  0  0
   26.0877   90.3942   -1.5727 H   0  0  0  0  0  0
   28.7433   89.7807   -0.0438 H   0  0  0  0  0  0
   28.2767   91.4963   -2.5602 H   0  0  0  0  0  0
   29.9271   90.8380   -1.8725 H   0  0  0  0  0  0
  1  2  2  0  0  0
  2  3  1  0  0  0
  2  8  1  0  0  0
  3  4  1  0  0  0
  4  5  1  0  0  0
  4  6  1  0  0  0
  4 10  1  0  0  0
  5 14  1  0  0  0
  5 15  1  0  0  0
  5 16  1  0  0  0
  6  7  1  0  0  0
  6  8  2  0  0  0
  8  9  1  0  0  0
  9 17  1  0  0  0
  9 18  1  0  0  0
  9 19  1  0  0  0
 10 11  2  0  0  0
 10 20  1  0  0  0
 11 12  1  0  0  0
 11 21  1  0  0  0
 12 13  2  0  0  0
 12 22  1  0  0  0
 13 23  1  0  0  0
 13 24  1  0  0  0
M  CHG  1   7  -1
M  END
> <s_m_source_file>
../2aqb_ligand.sdf

> <i_m_source_file_index>
1

> <s_epik_input>
W09IXUMxPUMoW0NIM10pQyg9TylTW0NAXTEoW0NIM10pL1tDSF09W0NIXS9bQ0hdPVtDSDJd

> <s_epik_cmdline>
J2VwaWtfYXBwJywgJy1pbWFlJywgJ2xpZ2FuZF9wcm8ubWFlJywgJy1vbWFlJywgJ2xpZ2FuZF9wcmVwLm1hZScsICctbXMnLCAnMScsICctcGgnLCAnNycsICctcGh0JywgJzAuNScsICctbnQn

> <r_lp_tautomer_probability>
1

> <r_epik_Ionization_Penalty>
  0.0001

> <r_epik_Ionization_Penalty_Charging>
  0.0001

> <r_epik_Ionization_Penalty_Neutral>
  0.0000

> <r_epik_State_Penalty>
 -0.0000

> <r_epik_Charging_Adjusted_Penalty>
0.00010201495768529

> <i_epik_Tot_Q>
-1

> <i_epik_Tot_abs_Q>
1

$$$$
