2aqu_ligand
                    3D
 Schrodinger Suite 2020-3.
103105  0  0  1  0            999 V2000
  -45.0210   66.8550   34.7460 C   0  0  0  0  0  0
  -43.8670   66.7520   33.9760 O   0  0  0  0  0  0
  -43.1830   67.9500   33.6470 C   0  0  0  0  0  0
  -43.6320   68.9740   34.0370 O   0  0  0  0  0  0
  -41.8900   67.7960   32.8730 N   0  0  0  0  0  0
  -41.4390   69.1780   32.8030 C   0  0  1  0  0  0
  -40.1190   69.3160   33.4190 C   0  0  0  0  0  0
  -39.3070   68.0220   33.5070 C   0  0  0  0  0  0
  -40.4890   69.7990   34.7420 C   0  0  0  0  0  0
  -39.2710   70.4060   32.8270 C   0  0  0  0  0  0
  -41.0630   68.9260   31.1660 C   0  0  0  0  0  0
  -40.2980   68.1220   30.8040 O   0  0  0  0  0  0
  -41.7600   69.6930   30.3810 N   0  0  0  0  0  0
  -41.7920   69.7640   28.9370 C   0  0  1  0  0  0
  -43.1110   69.1810   28.5780 C   0  0  0  0  0  0
  -43.4340   67.8420   29.1750 C   0  0  0  0  0  0
  -42.9210   66.6620   28.7080 C   0  0  0  0  0  0
  -43.2470   65.4620   29.3210 C   0  0  0  0  0  0
  -44.1050   65.4320   30.4300 C   0  0  0  0  0  0
  -44.6220   66.5990   30.8970 C   0  0  0  0  0  0
  -44.2820   67.7960   30.2760 C   0  0  0  0  0  0
  -41.7090   71.1310   28.3130 C   0  0  1  0  0  0
  -42.5190   72.0820   28.8920 O   0  0  0  0  0  0
  -40.5340   71.9140   28.4970 C   0  0  0  0  0  0
  -39.3690   71.4510   27.7980 N   0  0  3  0  0  0
  -39.3260   70.9700   26.4690 N   0  0  0  0  0  0
  -39.1420   69.8930   25.7680 C   0  0  0  0  0  0
  -38.9260   68.8230   26.1450 O   0  0  0  0  0  0
  -39.1960   70.2620   24.3010 C   0  0  2  0  0  0
  -40.0060   69.3460   23.3680 C   0  0  0  0  0  0
  -40.1780   70.0150   22.0300 C   0  0  0  0  0  0
  -41.3840   69.1140   23.9010 C   0  0  0  0  0  0
  -39.3070   68.0320   23.1910 C   0  0  0  0  0  0
  -37.8290   70.4700   23.8110 N   0  0  0  0  0  0
  -37.3500   71.4990   23.1780 C   0  0  0  0  0  0
  -37.9470   72.4590   22.8800 O   0  0  0  0  0  0
  -35.9760   71.4210   22.8170 O   0  0  0  0  0  0
  -35.3470   72.5670   22.3190 C   0  0  0  0  0  0
  -38.0910   71.6970   28.4680 C   0  0  0  0  0  0
  -36.8610   71.4480   27.6420 C   0  0  0  0  0  0
  -36.2500   72.3820   26.7990 C   0  0  0  0  0  0
  -35.0870   72.0460   26.0900 C   0  0  0  0  0  0
  -36.3230   70.1990   27.7600 C   0  0  0  0  0  0
  -35.2010   69.8820   27.0650 C   0  0  0  0  0  0
  -34.5660   70.7800   26.2330 C   0  0  0  0  0  0
  -33.4380   70.2880   25.6040 C   0  0  0  0  0  0
  -33.0370   68.9280   25.8390 C   0  0  0  0  0  0
  -31.9230   68.3400   25.2540 C   0  0  0  0  0  0
  -31.1850   69.0980   24.4140 C   0  0  0  0  0  0
  -31.5720   70.4110   24.1770 C   0  0  0  0  0  0
  -32.6590   70.9930   24.7430 N   0  0  0  0  0  0
  -45.4374   65.8516   34.9186 H   0  0  0  0  0  0
  -45.7611   67.4731   34.2166 H   0  0  0  0  0  0
  -44.7770   67.3218   35.7117 H   0  0  0  0  0  0
  -41.2897   66.9976   32.4124 H   0  0  0  0  0  0
  -42.0712   69.9377   33.2859 H   0  0  0  0  0  0
  -39.9308   67.2265   33.9407 H   0  0  0  0  0  0
  -38.4253   68.1851   34.1442 H   0  0  0  0  0  0
  -38.9813   67.7243   32.4994 H   0  0  0  0  0  0
  -41.1173   69.0484   35.2439 H   0  0  0  0  0  0
  -41.0493   70.7406   34.6451 H   0  0  0  0  0  0
  -39.5799   69.9728   35.3364 H   0  0  0  0  0  0
  -38.9492   70.1125   31.8169 H   0  0  0  0  0  0
  -38.3868   70.5678   33.4610 H   0  0  0  0  0  0
  -39.8563   71.3356   32.7697 H   0  0  0  0  0  0
  -42.3975   70.3611   30.9788 H   0  0  0  0  0  0
  -40.8930   69.2316   28.5928 H   0  0  0  0  0  0
  -43.9129   69.8586   28.9062 H   0  0  0  0  0  0
  -43.1679   69.0465   27.4877 H   0  0  0  0  0  0
  -42.2514   66.6658   27.8480 H   0  0  0  0  0  0
  -42.8315   64.5306   28.9364 H   0  0  0  0  0  0
  -44.3538   64.4859   30.9107 H   0  0  0  0  0  0
  -45.2981   66.5967   31.7520 H   0  0  0  0  0  0
  -44.6933   68.7276   30.6647 H   0  0  0  0  0  0
  -41.9211   70.8549   27.2696 H   0  0  0  0  0  0
  -43.6009   71.9036   28.9794 H   0  0  0  0  0  0
  -40.7189   72.9404   28.1473 H   0  0  0  0  0  0
  -40.2691   71.9325   29.5645 H   0  0  0  0  0  0
  -39.4936   71.6598   25.6287 H   0  0  0  0  0  0
  -39.7384   71.2182   24.2619 H   0  0  0  0  0  0
  -40.6912   70.9785   22.1651 H   0  0  0  0  0  0
  -40.7776   69.3693   21.3716 H   0  0  0  0  0  0
  -39.1908   70.1859   21.5759 H   0  0  0  0  0  0
  -41.8947   70.0797   24.0299 H   0  0  0  0  0  0
  -41.3200   68.6006   24.8717 H   0  0  0  0  0  0
  -41.9508   68.4911   23.1934 H   0  0  0  0  0  0
  -38.2940   68.2055   22.7990 H   0  0  0  0  0  0
  -39.8724   67.4084   22.4829 H   0  0  0  0  0  0
  -39.2417   67.5178   24.1612 H   0  0  0  0  0  0
  -37.0647   69.6945   23.9673 H   0  0  0  0  0  0
  -34.2956   72.3382   22.0904 H   0  0  0  0  0  0
  -35.3927   73.3671   23.0725 H   0  0  0  0  0  0
  -35.8581   72.8968   21.4025 H   0  0  0  0  0  0
  -38.0401   72.7489   28.7856 H   0  0  0  0  0  0
  -38.0070   71.0435   29.3489 H   0  0  0  0  0  0
  -36.6804   73.3777   26.6922 H   0  0  0  0  0  0
  -34.6048   72.7742   25.4378 H   0  0  0  0  0  0
  -36.7922   69.4598   28.4092 H   0  0  0  0  0  0
  -34.7860   68.8794   27.1684 H   0  0  0  0  0  0
  -33.6417   68.3235   26.5150 H   0  0  0  0  0  0
  -31.6541   67.3050   25.4649 H   0  0  0  0  0  0
  -30.2997   68.6859   23.9297 H   0  0  0  0  0  0
  -30.9665   71.0090   23.4960 H   0  0  0  0  0  0
  1  2  1  0  0  0
  1 52  1  0  0  0
  1 53  1  0  0  0
  1 54  1  0  0  0
  2  3  1  0  0  0
  3  4  2  0  0  0
  3  5  1  0  0  0
  5  6  1  0  0  0
  5 55  1  0  0  0
  6  7  1  0  0  0
  6 11  1  0  0  0
  6 56  1  0  0  0
  7  8  1  0  0  0
  7  9  1  0  0  0
  7 10  1  0  0  0
  8 57  1  0  0  0
  8 58  1  0  0  0
  8 59  1  0  0  0
  9 60  1  0  0  0
  9 61  1  0  0  0
  9 62  1  0  0  0
 10 63  1  0  0  0
 10 64  1  0  0  0
 10 65  1  0  0  0
 11 12  2  0  0  0
 11 13  1  0  0  0
 13 14  1  0  0  0
 13 66  1  0  0  0
 14 15  1  0  0  0
 14 22  1  0  0  0
 14 67  1  0  0  0
 15 16  1  0  0  0
 15 68  1  0  0  0
 15 69  1  0  0  0
 16 17  2  0  0  0
 16 21  1  0  0  0
 17 18  1  0  0  0
 17 70  1  0  0  0
 18 19  2  0  0  0
 18 71  1  0  0  0
 19 20  1  0  0  0
 19 72  1  0  0  0
 20 21  2  0  0  0
 20 73  1  0  0  0
 21 74  1  0  0  0
 22 23  1  0  0  0
 22 24  1  0  0  0
 22 75  1  0  0  0
 23 76  1  0  0  0
 24 25  1  0  0  0
 24 77  1  0  0  0
 24 78  1  0  0  0
 25 26  1  0  0  0
 25 39  1  0  0  0
 26 27  1  0  0  0
 26 79  1  0  0  0
 27 28  2  0  0  0
 27 29  1  0  0  0
 29 30  1  0  0  0
 29 34  1  0  0  0
 29 80  1  0  0  0
 30 31  1  0  0  0
 30 32  1  0  0  0
 30 33  1  0  0  0
 31 81  1  0  0  0
 31 82  1  0  0  0
 31 83  1  0  0  0
 32 84  1  0  0  0
 32 85  1  0  0  0
 32 86  1  0  0  0
 33 87  1  0  0  0
 33 88  1  0  0  0
 33 89  1  0  0  0
 34 35  1  0  0  0
 34 90  1  0  0  0
 35 36  2  0  0  0
 35 37  1  0  0  0
 37 38  1  0  0  0
 38 91  1  0  0  0
 38 92  1  0  0  0
 38 93  1  0  0  0
 39 40  1  0  0  0
 39 94  1  0  0  0
 39 95  1  0  0  0
 40 41  2  0  0  0
 40 43  1  0  0  0
 41 42  1  0  0  0
 41 96  1  0  0  0
 42 45  2  0  0  0
 42 97  1  0  0  0
 43 44  2  0  0  0
 43 98  1  0  0  0
 44 45  1  0  0  0
 44 99  1  0  0  0
 45 46  1  0  0  0
 46 47  2  0  0  0
 46 51  1  0  0  0
 47 48  1  0  0  0
 47100  1  0  0  0
 48 49  2  0  0  0
 48101  1  0  0  0
 49 50  1  0  0  0
 49102  1  0  0  0
 50 51  2  0  0  0
 50103  1  0  0  0
M  END
> <s_m_source_file>
../2aqu_ligand.sdf

> <i_m_source_file_index>
1

> <s_epik_input>
W0NIM11PQyg9TylbTkhdW0NAQEhdKEMoW0NIM10pKFtDSDNdKVtDSDNdKUMoPU8pW05IXVtDQEBIXShbQ0gyXWMxW2NIXVtjSF1bY0hdW2NIXVtjSF0xKVtDQEBIXShbT0hdKVtDSDJdW05AQEgrXShbTkhdQyg9TylbQ0BIXShDKFtDSDNdKShbQ0gzXSlbQ0gzXSlbTkhdQyg9TylPW0NIM10pW0NIMl1jMltjSF1bY0hdYyhbY0hdW2NIXTIpLWMzW2NIXVtjSF1bY0hdW2NIXW4z

> <s_epik_cmdline>
J2VwaWtfYXBwJywgJy1pbWFlJywgJ2xpZ2FuZF9wcm8ubWFlJywgJy1vbWFlJywgJ2xpZ2FuZF9wcmVwLm1hZScsICctbXMnLCAnMScsICctcGgnLCAnNycsICctcGh0JywgJzAuNScsICctbnQn

> <r_epik_Ionization_Penalty>
  0.0101

> <r_epik_Ionization_Penalty_Charging>
  0.0000

> <r_epik_Ionization_Penalty_Neutral>
  0.0101

> <r_epik_State_Penalty>
  0.0077

> <r_epik_Charging_Adjusted_Penalty>
0.0077056098726133

> <i_epik_Tot_Q>
0

> <i_epik_Tot_abs_Q>
0

> <s_epik_Chemistry_Notes>
This compound has an ester and may undergo hydrolysis at high or low pH.

$$$$
