2arm_ligand
                    3D
 Schrodinger Suite 2020-3.
 45 47  0  0  1  0            999 V2000
   14.3500   22.8900    1.4090 C   0  0  0  0  0  0
   13.9530   23.7980    0.3230 N   0  3  2  0  0  0
   14.2440   25.1580    0.3700 C   0  0  1  0  0  0
   13.9740   25.5840   -1.0310 C   0  0  0  0  0  0
   12.6670   24.8070   -1.2000 C   0  0  0  0  0  0
   12.6310   24.1650    0.1470 C   0  0  2  0  0  0
   11.7730   24.6900    1.2640 C   0  0  0  0  0  0
   12.4120   25.9400    1.7980 C   0  0  2  0  0  0
   13.9180   26.0490    1.5450 C   0  0  0  0  0  0
   11.5720   26.8250    2.6270 O   0  0  0  0  0  0
   10.3380   26.1920    3.1490 C   0  0  0  0  0  0
   10.4440   25.4730    4.1360 O   0  0  0  0  0  0
    8.9630   26.4510    2.5290 C   0  0  2  0  0  0
    7.8550   26.2850    3.5610 C   0  0  0  0  0  0
    7.9420   27.2370    4.6070 O   0  0  0  0  0  0
    8.6980   25.6100    1.3170 C   0  0  0  0  0  0
    8.3620   26.2330    0.1210 C   0  0  0  0  0  0
    8.1380   25.4890   -1.0280 C   0  0  0  0  0  0
    8.2400   24.1100   -0.9950 C   0  0  0  0  0  0
    8.5780   23.4790    0.1870 C   0  0  0  0  0  0
    8.8000   24.2230    1.3380 C   0  0  0  0  0  0
   15.4374   22.7281    1.3725 H   0  0  0  0  0  0
   13.8317   21.9271    1.2898 H   0  0  0  0  0  0
   14.0779   23.3355    2.3773 H   0  0  0  0  0  0
   14.4476   23.1591   -0.4235 H   0  0  0  0  0  0
   15.2942   25.2089    0.6932 H   0  0  0  0  0  0
   13.8821   26.6795   -1.0699 H   0  0  0  0  0  0
   14.8032   25.2624   -1.6783 H   0  0  0  0  0  0
   11.8452   25.5107   -1.3990 H   0  0  0  0  0  0
   12.7628   24.1073   -2.0433 H   0  0  0  0  0  0
   12.0490   23.2337    0.2099 H   0  0  0  0  0  0
   10.7671   24.9140    0.8794 H   0  0  0  0  0  0
   11.7015   23.9326    2.0585 H   0  0  0  0  0  0
   12.2981   27.0197    1.6209 H   0  0  0  0  0  0
   14.4822   25.7131    2.4275 H   0  0  0  0  0  0
   14.1944   27.0866    1.3062 H   0  0  0  0  0  0
    8.9614   27.4900    2.1679 H   0  0  0  0  0  0
    6.8772   26.4070    3.0720 H   0  0  0  0  0  0
    7.9184   25.2824    4.0090 H   0  0  0  0  0  0
    7.2017   27.2294    5.4206 H   0  0  0  0  0  0
    8.2735   27.3188    0.0855 H   0  0  0  0  0  0
    7.8808   25.9926   -1.9598 H   0  0  0  0  0  0
    8.0549   23.5247   -1.8957 H   0  0  0  0  0  0
    8.6707   22.3933    0.2158 H   0  0  0  0  0  0
    9.0568   23.7150    2.2675 H   0  0  0  0  0  0
  1  2  1  0  0  0
  1 22  1  0  0  0
  1 23  1  0  0  0
  1 24  1  0  0  0
  2  3  1  0  0  0
  2  6  1  0  0  0
  2 25  1  0  0  0
  3  4  1  0  0  0
  3  9  1  0  0  0
  3 26  1  0  0  0
  4  5  1  0  0  0
  4 27  1  0  0  0
  4 28  1  0  0  0
  5  6  1  0  0  0
  5 29  1  0  0  0
  5 30  1  0  0  0
  6  7  1  0  0  0
  6 31  1  0  0  0
  7  8  1  0  0  0
  7 32  1  0  0  0
  7 33  1  0  0  0
  8  9  1  0  0  0
  8 10  1  0  0  0
  8 34  1  0  0  0
  9 35  1  0  0  0
  9 36  1  0  0  0
 10 11  1  0  0  0
 11 12  2  0  0  0
 11 13  1  0  0  0
 13 14  1  0  0  0
 13 16  1  0  0  0
 13 37  1  0  0  0
 14 15  1  0  0  0
 14 38  1  0  0  0
 14 39  1  0  0  0
 15 40  1  0  0  0
 16 17  2  0  0  0
 16 21  1  0  0  0
 17 18  1  0  0  0
 17 41  1  0  0  0
 18 19  2  0  0  0
 18 42  1  0  0  0
 19 20  1  0  0  0
 19 43  1  0  0  0
 20 21  2  0  0  0
 20 44  1  0  0  0
 21 45  1  0  0  0
M  CHG  1   2   1
M  END
> <s_m_source_file>
../2arm_ligand.sdf

> <i_m_source_file_index>
1

> <s_epik_input>
W0NIM11bTkBIK10oW0NAQEhdMTIpW0NASF0oW0NIMl1bQ0gyXTEpW0NIMl1bQ0BIXShbQ0gyXTIpT0MoPU8pW0NASF0oW0NIMl1bT0hdKWMzW2NIXVtjSF1bY0hdW2NIXVtjSF0z

> <s_epik_cmdline>
J2VwaWtfYXBwJywgJy1pbWFlJywgJ2xpZ2FuZF9wcm8ubWFlJywgJy1vbWFlJywgJ2xpZ2FuZF9wcmVwLm1hZScsICctbXMnLCAnMScsICctcGgnLCAnNycsICctcGh0JywgJzAuNScsICctbnQn

> <r_lp_tautomer_probability>
1

> <r_epik_Ionization_Penalty>
  0.0037

> <r_epik_Ionization_Penalty_Charging>
  0.0037

> <r_epik_Ionization_Penalty_Neutral>
  0.0000

> <r_epik_State_Penalty>
 -0.0000

> <r_epik_Charging_Adjusted_Penalty>
0.00366370258336889

> <i_epik_Tot_Q>
1

> <i_epik_Tot_abs_Q>
1

> <s_epik_Chemistry_Notes>
This compound has an ester and may undergo hydrolysis at high or low pH.

$$$$
