2asu_ligand
                    3D
 Schrodinger Suite 2020-3.
 55 54  0  0  1  0            999 V2000
   61.7140   49.4090    5.4320 N   0  3  0  0  0  0
   62.1450   50.8680    5.5070 C   0  0  2  0  0  0
   61.1570   51.7600    6.2430 C   0  0  0  0  0  0
   59.9520   51.5170    6.2730 O   0  0  0  0  0  0
   62.3710   51.4280    4.1020 C   0  0  0  0  0  0
   60.8800   51.7320    3.1200 S   0  0  0  0  0  0
   61.6690   52.8270    6.8320 N   0  0  0  0  0  0
   60.8250   53.9360    7.2450 C   0  0  0  0  0  0
   60.0620   53.6540    8.5200 C   0  0  0  0  0  0
   58.9850   54.1720    8.7290 O   0  0  0  0  0  0
   60.6230   52.8010    9.3700 N   0  0  0  0  0  0
   60.0690   52.5870   10.6960 C   0  0  2  0  0  0
   61.0970   53.0670   11.7340 C   0  0  0  0  0  0
   62.3290   52.8440   11.6100 O   0  0  0  0  0  0
   59.6940   51.1060   10.8840 C   0  0  0  0  0  0
   60.6040   53.7520   12.7470 N   0  0  0  0  0  0
   61.4450   54.2110   13.8500 C   0  0  2  0  0  0
   60.9120   53.6470   15.1560 C   0  0  0  0  0  0
   59.8030   53.1250   15.1560 O   0  0  0  0  0  0
   61.4490   55.7260   13.9270 C   0  0  0  0  0  0
   62.4250   56.2530   14.9280 C   0  0  0  0  0  0
   62.9700   57.5950   14.5740 C   0  0  0  0  0  0
   61.9440   58.6280   14.6430 N   0  0  0  0  0  0
   62.1670   59.9150   14.4240 C   0  0  0  0  0  0
   63.3890   60.3260   14.1140 N   0  3  0  0  0  0
   61.1680   60.7930   14.5350 N   0  0  0  0  0  0
   61.6314   53.7179   16.2724 O   0  5  0  0  0  0
   62.4746   48.8295    4.8883 H   0  0  0  0  0  0
   60.7518   49.3376    4.9038 H   0  0  0  0  0  0
   61.6043   49.0063    6.4497 H   0  0  0  0  0  0
   63.0784   50.8735    6.0891 H   0  0  0  0  0  0
   62.8931   52.3937    4.1718 H   0  0  0  0  0  0
   62.9817   50.7222    3.5198 H   0  0  0  0  0  0
   60.9659   52.1345    2.0999 H   0  0  0  0  0  0
   62.7541   52.8664    7.0081 H   0  0  0  0  0  0
   61.4478   54.8261    7.4179 H   0  0  0  0  0  0
   60.0895   54.1508    6.4557 H   0  0  0  0  0  0
   61.5225   52.2520    9.0546 H   0  0  0  0  0  0
   59.1498   53.1864   10.7722 H   0  0  0  0  0  0
   58.9589   50.8140   10.1195 H   0  0  0  0  0  0
   59.2597   50.9619   11.8843 H   0  0  0  0  0  0
   60.5954   50.4838   10.7825 H   0  0  0  0  0  0
   59.5270   53.9759   12.7465 H   0  0  0  0  0  0
   62.4616   53.8459   13.6422 H   0  0  0  0  0  0
   61.7176   56.1423   12.9449 H   0  0  0  0  0  0
   60.4484   56.0812   14.2146 H   0  0  0  0  0  0
   61.9325   56.3444   15.9073 H   0  0  0  0  0  0
   63.2767   55.5615   15.0090 H   0  0  0  0  0  0
   63.7759   57.8598   15.2743 H   0  0  0  0  0  0
   63.3684   57.5703   13.5490 H   0  0  0  0  0  0
   60.9069   58.3574   14.8902 H   0  0  0  0  0  0
   64.2081   59.5973   14.0240 H   0  0  0  0  0  0
   60.1565   60.4456   14.7924 H   0  0  0  0  0  0
   61.3561   61.8640   14.3691 H   0  0  0  0  0  0
   63.5836   61.3957   13.9468 H   0  0  0  0  0  0
  1  2  1  0  0  0
  1 28  1  0  0  0
  1 29  1  0  0  0
  1 30  1  0  0  0
  2  5  1  0  0  0
  2  3  1  0  0  0
  2 31  1  0  0  0
  3  4  2  0  0  0
  3  7  1  0  0  0
  5  6  1  0  0  0
  5 32  1  0  0  0
  5 33  1  0  0  0
  6 34  1  0  0  0
  7  8  1  0  0  0
  7 35  1  0  0  0
  8  9  1  0  0  0
  8 36  1  0  0  0
  8 37  1  0  0  0
  9 10  2  0  0  0
  9 11  1  0  0  0
 11 12  1  0  0  0
 11 38  1  0  0  0
 12 15  1  0  0  0
 12 13  1  0  0  0
 12 39  1  0  0  0
 13 14  2  0  0  0
 13 16  1  0  0  0
 15 40  1  0  0  0
 15 41  1  0  0  0
 15 42  1  0  0  0
 16 17  1  0  0  0
 16 43  1  0  0  0
 17 20  1  0  0  0
 17 18  1  0  0  0
 17 44  1  0  0  0
 18 19  2  0  0  0
 18 27  1  0  0  0
 20 21  1  0  0  0
 20 45  1  0  0  0
 20 46  1  0  0  0
 21 22  1  0  0  0
 21 47  1  0  0  0
 21 48  1  0  0  0
 22 23  1  0  0  0
 22 49  1  0  0  0
 22 50  1  0  0  0
 23 24  1  0  0  0
 23 51  1  0  0  0
 24 26  1  0  0  0
 24 25  2  0  0  0
 25 52  1  0  0  0
 25 55  1  0  0  0
 26 53  1  0  0  0
 26 54  1  0  0  0
M  CHG  3   1   1  25   1  27  -1
M  END
> <s_m_source_file>
../2asu_ligand.sdf

> <i_m_source_file_index>
1

> <s_epik_input>
W1NIXVtDSDJdW0NASF0oW05IMytdKUMoPU8pW05IXVtDSDJdQyg9TylbTkhdW0NAQEhdKFtDSDNdKUMoPU8pW05IXVtDQEhdKEMoPU8pW09IXSlbQ0gyXVtDSDJdW0NIMl1bTkhdL0MoPU5cW0hdKVtOSDJd

> <s_epik_cmdline>
J2VwaWtfYXBwJywgJy1pbWFlJywgJ2xpZ2FuZF9wcm8ubWFlJywgJy1vbWFlJywgJ2xpZ2FuZF9wcmVwLm1hZScsICctbXMnLCAnMScsICctcGgnLCAnNycsICctcGh0JywgJzAuNScsICctbnQn

> <r_epik_Ionization_Penalty>
  0.3688

> <r_epik_Ionization_Penalty_Charging>
  0.3318

> <r_epik_Ionization_Penalty_Neutral>
  0.0370

> <r_epik_State_Penalty>
  0.3267

> <r_epik_Charging_Adjusted_Penalty>
0.658483832666911

> <i_epik_Tot_Q>
1

> <i_epik_Tot_abs_Q>
3

> <s_epik_Chemistry_Notes>
This compound has an imine and may undergo hydrolysis.

$$$$
