2ate_ligand
                    3D
 Schrodinger Suite 2020-3.
 33 34  0  0  1  0            999 V2000
   16.2770  -12.9410   -9.1810 O   0  5  0  0  0  0
   15.6010  -11.6670   -9.5890 P   0  0  0  0  0  0
   14.5900  -11.1600   -8.6160 O   0  0  0  0  0  0
   16.5360  -10.5850  -10.0750 O   0  5  0  0  0  0
   14.7810  -12.1400  -10.9050 O   0  0  0  0  0  0
   14.0440  -11.1490  -11.5930 C   0  0  0  0  0  0
   13.3480  -11.7800  -12.7670 C   0  0  2  0  0  0
   12.5380  -13.0770  -12.5060 C   0  0  1  0  0  0
   11.1500  -12.8610  -12.8190 O   0  0  0  0  0  0
   13.2140  -14.0920  -13.4400 C   0  0  1  0  0  0
   12.3060  -15.0670  -14.0600 O   0  0  0  0  0  0
   14.4050  -12.0710  -13.7150 O   0  0  0  0  0  0
   13.9730  -13.1750  -14.4620 C   0  0  1  0  0  0
   14.8740  -14.0730  -15.1540 N   0  0  0  0  0  0
   14.7770  -14.2880  -16.4840 C   0  0  0  0  0  0
   13.9150  -13.6410  -17.3160 N   0  0  0  0  0  0
   15.5890  -15.3600  -16.7720 C   0  0  0  0  0  0
   15.7740  -15.9710  -17.9580 N   0  3  0  0  0  0
   14.9890  -15.7490  -18.9130 O   0  0  0  0  0  0
   16.4850  -17.0040  -17.9670 O   0  5  0  0  0  0
   16.2440  -15.7410  -15.6520 N   0  0  0  0  0  0
   15.7600  -14.9580  -14.6630 C   0  0  0  0  0  0
   13.2990  -10.7086  -10.9140 H   0  0  0  0  0  0
   14.7276  -10.3631  -11.9467 H   0  0  0  0  0  0
   12.6221  -11.0434  -13.1419 H   0  0  0  0  0  0
   12.4702  -13.4213  -11.4635 H   0  0  0  0  0  0
   10.5547  -12.1552  -12.2211 H   0  0  0  0  0  0
   13.8406  -14.8188  -12.9023 H   0  0  0  0  0  0
   11.7265  -15.7573  -13.4294 H   0  0  0  0  0  0
   13.5260  -12.6213  -15.3008 H   0  0  0  0  0  0
   13.3245  -12.7910  -16.9433 H   0  0  0  0  0  0
   13.8091  -13.9683  -18.3608 H   0  0  0  0  0  0
   16.0472  -15.0330  -13.6142 H   0  0  0  0  0  0
  1  2  1  0  0  0
  2  3  2  0  0  0
  2  4  1  0  0  0
  2  5  1  0  0  0
  5  6  1  0  0  0
  6  7  1  0  0  0
  6 23  1  0  0  0
  6 24  1  0  0  0
  7  8  1  0  0  0
  7 12  1  0  0  0
  7 25  1  0  0  0
  8  9  1  0  0  0
  8 10  1  0  0  0
  8 26  1  0  0  0
  9 27  1  0  0  0
 10 11  1  0  0  0
 10 13  1  0  0  0
 10 28  1  0  0  0
 11 29  1  0  0  0
 12 13  1  0  0  0
 13 14  1  0  0  0
 13 30  1  0  0  0
 14 15  1  0  0  0
 14 22  1  0  0  0
 15 16  1  0  0  0
 15 17  2  0  0  0
 16 31  1  0  0  0
 16 32  1  0  0  0
 17 18  1  0  0  0
 17 21  1  0  0  0
 18 19  2  0  0  0
 18 20  1  0  0  0
 21 22  2  0  0  0
 22 33  1  0  0  0
M  CHG  4   1  -1   4  -1  18   1  20  -1
M  END
> <s_m_source_file>
../2ate_ligand.sdf

> <i_m_source_file_index>
1

> <s_epik_input>
W09IXVAoPU8pKFtPSF0pT1tDSDJdW0NAQEhdMVtDQEBIXShbT0hdKVtDQEBIXShbT0hdKVtDQEBIXShPMSluMmMoW05IMl0pYyhbTitdKD1PKVtPLV0pbltjSF0y

> <s_epik_cmdline>
J2VwaWtfYXBwJywgJy1pbWFlJywgJ2xpZ2FuZF9wcm8ubWFlJywgJy1vbWFlJywgJ2xpZ2FuZF9wcmVwLm1hZScsICctbXMnLCAnMScsICctcGgnLCAnNycsICctcGh0JywgJzAuNScsICctbnQn

> <r_lp_tautomer_probability>
0.998748136107444

> <r_epik_Ionization_Penalty>
  0.1048

> <r_epik_Ionization_Penalty_Charging>
  0.1044

> <r_epik_Ionization_Penalty_Neutral>
  0.0004

> <r_epik_State_Penalty>
  0.0920

> <r_epik_Charging_Adjusted_Penalty>
0.196376695481468

> <i_epik_Tot_Q>
-2

> <i_epik_Tot_abs_Q>
4

> <s_epik_Chemistry_Notes>
This compound contains an acetal/aminal-like group ( X-CH(R)-Y where X, Y are N, S, or O) that may be acid/base labile, releasing an aldehyde.

$$$$
