2auc_ligand
                    3D
 Schrodinger Suite 2020-3.
242242  0  0  1  0            999 V2000
   63.7390   18.3230   -5.2190 C   0  0  0  0  0  0
   64.1500   17.9240   -6.6040 C   0  0  0  0  0  0
   62.6170   18.0750   -4.8070 O   0  0  0  0  0  0
   64.6470   18.9500   -4.4680 N   0  0  0  0  0  0
   65.9960   19.2680   -4.9260 C   0  0  2  0  0  0
   67.0760   18.6660   -4.0530 C   0  0  0  0  0  0
   66.7910   18.0780   -3.0200 O   0  0  0  0  0  0
   66.0510   20.7920   -4.8660 C   0  0  0  0  0  0
   65.8640   21.2550   -3.5200 O   0  0  0  0  0  0
   68.3270   18.8180   -4.4770 N   0  0  0  0  0  0
   69.4730   18.3470   -3.6980 C   0  0  2  0  0  0
   69.6460   19.1480   -2.4060 C   0  0  0  0  0  0
   70.1020   18.6060   -1.3960 O   0  0  0  0  0  0
   70.7550   18.3990   -4.5360 C   0  0  0  0  0  0
   72.0640   17.9330   -3.8890 C   0  0  0  0  0  0
   72.0120   16.4510   -3.5220 C   0  0  0  0  0  0
   73.2370   18.2210   -4.8060 C   0  0  0  0  0  0
   69.2810   20.4310   -2.4610 N   0  0  0  0  0  0
   69.2700   21.3330   -1.3050 C   0  0  2  0  0  0
   68.4370   20.7640   -0.1480 C   0  0  0  0  0  0
   68.8230   20.8720    1.0170 O   0  0  0  0  0  0
   68.7290   22.7010   -1.7300 C   0  0  0  0  0  0
   69.0880   23.8580   -0.8080 C   0  0  0  0  0  0
   69.0380   25.4810   -1.6220 S   0  0  0  0  0  0
   67.2800   25.6830   -1.9380 C   0  0  0  0  0  0
   67.3000   20.1590   -0.4850 N   0  0  0  0  0  0
   66.4360   19.4910    0.4840 C   0  0  2  0  0  0
   67.1460   18.2980    1.1290 C   0  0  0  0  0  0
   67.1420   18.1630    2.3530 O   0  0  0  0  0  0
   65.1450   19.0280   -0.2000 C   0  0  0  0  0  0
   64.0470   18.5710    0.7420 C   0  0  0  0  0  0
   62.8570   18.0220   -0.0300 C   0  0  0  0  0  0
   62.0140   19.0690   -0.6090 N   0  0  0  0  0  0
   60.9610   19.6120   -0.0020 C   0  0  0  0  0  0
   60.6140   19.2220    1.2160 N   0  0  0  0  0  0
   60.2530   20.5530   -0.6130 N   0  0  0  0  0  0
   67.7550   17.4500    0.2960 N   0  0  0  0  0  0
   68.4590   16.2440    0.7490 C   0  0  2  0  0  0
   69.5690   16.5800    1.7500 C   0  0  0  0  0  0
   69.6890   15.9260    2.7920 O   0  0  0  0  0  0
   69.0330   15.4280   -0.4480 C   0  0  0  0  0  0
   69.9170   14.2780    0.0300 C   0  0  0  0  0  0
   67.9150   14.8980   -1.3210 C   0  0  0  0  0  0
   70.3570   17.6050    1.4260 N   0  0  0  0  0  0
   71.4540   18.0750    2.2770 C   0  0  2  0  0  0
   70.9740   18.6150    3.6260 C   0  0  0  0  0  0
   71.6000   18.3570    4.6590 O   0  0  0  0  0  0
   72.2790   19.1410    1.5440 C   0  0  0  0  0  0
   73.0880   18.5880    0.3740 C   0  0  0  0  0  0
   73.5960   19.6630   -0.5670 C   0  0  0  0  0  0
   72.9670   20.7100   -0.7370 O   0  0  0  0  0  0
   74.7370   19.4020   -1.1950 N   0  0  0  0  0  0
   69.8650   19.3540    3.6100 N   0  0  0  0  0  0
   69.2960   19.9470    4.8220 C   0  0  2  0  0  0
   68.7240   18.8890    5.7650 C   0  0  0  0  0  0
   68.7750   19.0450    6.9880 O   0  0  0  0  0  0
   68.2350   20.9780    4.4670 C   0  0  0  0  0  0
   68.1850   17.8180    5.1880 N   0  0  0  0  0  0
   67.6460   16.7050    5.9620 C   0  0  2  0  0  0
   68.7590   15.8540    6.5640 C   0  0  0  0  0  0
   68.6560   15.4220    7.7120 O   0  0  0  0  0  0
   66.7120   15.8550    5.1010 C   0  0  0  0  0  0
   65.3830   16.4970    4.8370 C   0  0  0  0  0  0
   64.1870   15.8760    5.1280 N   0  0  0  0  0  0
   65.0610   17.7090    4.3250 C   0  0  0  0  0  0
   63.1870   16.6720    4.7950 C   0  0  0  0  0  0
   63.6900   17.7910    4.3060 N   0  0  0  0  0  0
   69.8170   15.6250    5.7870 N   0  0  0  0  0  0
   71.0040   14.9140    6.2600 C   0  0  2  0  0  0
   71.6060   15.6170    7.4800 C   0  0  0  0  0  0
   71.9480   14.9730    8.4730 O   0  0  0  0  0  0
   72.0640   14.7740    5.1370 C   0  0  2  0  0  0
   71.6560   13.6710    4.1560 C   0  0  0  0  0  0
   73.4500   14.4780    5.7190 C   0  0  0  0  0  0
   72.4410   13.6750    2.8480 C   0  0  0  0  0  0
   71.7140   16.9400    7.3950 N   0  0  0  0  0  0
   72.2480   17.7580    8.4780 C   0  0  2  0  0  0
   71.3560   17.7470    9.7210 C   0  0  0  0  0  0
   71.8560   17.8250   10.8440 O   0  0  0  0  0  0
   72.4540   19.1960    8.0000 C   0  0  0  0  0  0
   73.6820   19.4150    7.1410 C   0  0  0  0  0  0
   73.9230   20.8960    6.9020 C   0  0  0  0  0  0
   75.1880   21.1310    6.2100 N   0  0  0  0  0  0
   75.3040   21.4060    4.9140 C   0  0  0  0  0  0
   74.2280   21.4940    4.1400 N   0  0  0  0  0  0
   76.5050   21.5980    4.3880 N   0  0  0  0  0  0
   70.0420   17.6450    9.5150 N   0  0  0  0  0  0
   69.0810   17.6080   10.6230 C   0  0  2  0  0  0
   69.2070   16.3300   11.4580 C   0  0  0  0  0  0
   68.8090   16.3040   12.6220 O   0  0  0  0  0  0
   67.6450   17.7790   10.1170 C   0  0  0  0  0  0
   66.6990   18.3440   11.1700 C   0  0  0  0  0  0
   65.2380   18.0840   10.8430 C   0  0  0  0  0  0
   64.3530   18.4590   12.0270 C   0  0  0  0  0  0
   62.9100   18.1950   11.7730 N   0  3  0  0  0  0
   69.7600   15.2780   10.8570 N   0  0  0  0  0  0
   70.0880   14.0460   11.5750 C   0  0  2  0  0  0
   71.4070   14.1750   12.3450 C   0  0  0  0  0  0
   72.0630   13.1700   12.6340 O   0  0  0  0  0  0
   70.1540   12.8580   10.6060 C   0  0  0  0  0  0
   68.8720   12.0430   10.5030 C   0  0  0  0  0  0
   67.8810   12.6440    9.5180 C   0  0  0  0  0  0
   66.7130   11.7840    9.3310 N   0  0  0  0  0  0
   66.6410   10.7800    8.4590 C   0  0  0  0  0  0
   67.6730   10.4880    7.6760 N   0  0  0  0  0  0
   65.5300   10.0620    8.3690 N   0  0  0  0  0  0
   71.7720   15.4150   12.6790 N   0  0  0  0  0  0
   73.0280   15.7510   13.3670 C   0  0  2  0  0  0
   74.2580   15.1590   12.6670 C   0  0  0  0  0  0
   75.0700   14.4640   13.2840 O   0  0  0  0  0  0
   72.9840   15.3460   14.8500 C   0  0  0  0  0  0
   72.0670   16.1990   15.7270 C   0  0  0  0  0  0
   70.3110   15.8250   15.5300 S   0  0  0  0  0  0
   69.6150   16.6850   16.9410 C   0  0  0  0  0  0
   74.3820   15.4400   11.3740 N   0  0  0  0  0  0
   63.3100   17.4206   -7.1050 H   0  0  0  0  0  0
   65.0081   17.2380   -6.5485 H   0  0  0  0  0  0
   64.4335   18.8205   -7.1749 H   0  0  0  0  0  0
   64.3308   19.2296   -3.4522 H   0  0  0  0  0  0
   66.1497   18.8342   -5.9251 H   0  0  0  0  0  0
   67.0305   21.1381   -5.2277 H   0  0  0  0  0  0
   65.2566   21.2128   -5.4998 H   0  0  0  0  0  0
   65.8761   22.3332   -3.3026 H   0  0  0  0  0  0
   68.4870   19.3152   -5.4451 H   0  0  0  0  0  0
   69.2298   17.3051   -3.4423 H   0  0  0  0  0  0
   70.6372   17.7637   -5.4262 H   0  0  0  0  0  0
   70.9470   19.4361   -4.8485 H   0  0  0  0  0  0
   72.2103   18.4995   -2.9575 H   0  0  0  0  0  0
   71.1546   16.2676   -2.8577 H   0  0  0  0  0  0
   72.9419   16.1680   -3.0071 H   0  0  0  0  0  0
   71.9021   15.8503   -4.4369 H   0  0  0  0  0  0
   73.2529   19.2922   -5.0555 H   0  0  0  0  0  0
   73.1345   17.6310   -5.7287 H   0  0  0  0  0  0
   74.1743   17.9486   -4.2988 H   0  0  0  0  0  0
   68.9754   20.8015   -3.4506 H   0  0  0  0  0  0
   70.3176   21.4122   -0.9791 H   0  0  0  0  0  0
   69.1247   22.9593   -2.7233 H   0  0  0  0  0  0
   67.6304   22.6642   -1.7712 H   0  0  0  0  0  0
   68.3790   23.8907    0.0324 H   0  0  0  0  0  0
   70.1082   23.7162   -0.4218 H   0  0  0  0  0  0
   67.1059   26.6467   -2.4390 H   0  0  0  0  0  0
   66.7312   25.6608   -0.9849 H   0  0  0  0  0  0
   66.9271   24.8651   -2.5834 H   0  0  0  0  0  0
   67.0216   20.1777   -1.5490 H   0  0  0  0  0  0
   66.2198   20.2460    1.2542 H   0  0  0  0  0  0
   64.7270   19.8552   -0.7924 H   0  0  0  0  0  0
   65.3654   18.1777   -0.8621 H   0  0  0  0  0  0
   64.4347   17.7797    1.4005 H   0  0  0  0  0  0
   63.7088   19.4221    1.3513 H   0  0  0  0  0  0
   63.2156   17.3894   -0.8553 H   0  0  0  0  0  0
   62.2273   17.4229    0.6442 H   0  0  0  0  0  0
   62.2343   19.4598   -1.6134 H   0  0  0  0  0  0
   61.1951   18.4424    1.7303 H   0  0  0  0  0  0
   60.5336   20.8830   -1.6241 H   0  0  0  0  0  0
   59.3854   21.0032   -0.1085 H   0  0  0  0  0  0
   67.7113   17.6912   -0.7763 H   0  0  0  0  0  0
   67.6787   15.6660    1.2657 H   0  0  0  0  0  0
   69.6549   16.0930   -1.0653 H   0  0  0  0  0  0
   70.7247   14.6749    0.6626 H   0  0  0  0  0  0
   70.3516   13.7636   -0.8398 H   0  0  0  0  0  0
   69.3114   13.5673    0.6115 H   0  0  0  0  0  0
   67.2857   15.7345   -1.6589 H   0  0  0  0  0  0
   67.3035   14.1891   -0.7435 H   0  0  0  0  0  0
   68.3437   14.3854   -2.1948 H   0  0  0  0  0  0
   70.1517   18.1043    0.4676 H   0  0  0  0  0  0
   72.0523   17.1711    2.4640 H   0  0  0  0  0  0
   71.6064   19.9134    1.1428 H   0  0  0  0  0  0
   72.9892   19.6020    2.2462 H   0  0  0  0  0  0
   73.9635   18.0441    0.7582 H   0  0  0  0  0  0
   72.4601   17.9030   -0.2147 H   0  0  0  0  0  0
   75.2619   18.4532   -1.0102 H   0  0  0  0  0  0
   75.1569   20.1347   -1.8998 H   0  0  0  0  0  0
   69.3746   19.5117    2.6381 H   0  0  0  0  0  0
   70.1438   20.4410    5.3192 H   0  0  0  0  0  0
   68.6661   21.7291    3.7888 H   0  0  0  0  0  0
   67.8822   21.4718    5.3844 H   0  0  0  0  0  0
   67.3897   20.4784    3.9711 H   0  0  0  0  0  0
   68.1540   17.7895    4.0888 H   0  0  0  0  0  0
   67.0772   17.1708    6.7803 H   0  0  0  0  0  0
   67.1834   15.6660    4.1253 H   0  0  0  0  0  0
   66.5179   14.8973    5.6061 H   0  0  0  0  0  0
   65.6675   18.5509    3.9597 H   0  0  0  0  0  0
   62.1268   16.4441    4.9051 H   0  0  0  0  0  0
   69.7734   15.9948    4.7519 H   0  0  0  0  0  0
   70.6336   13.9206    6.5532 H   0  0  0  0  0  0
   72.1260   15.7261    4.5895 H   0  0  0  0  0  0
   71.8134   12.6878    4.6236 H   0  0  0  0  0  0
   70.5937   13.7870    3.8949 H   0  0  0  0  0  0
   73.7310   15.2767    6.4212 H   0  0  0  0  0  0
   74.1873   14.4301    4.9041 H   0  0  0  0  0  0
   73.4268   13.5147    6.2496 H   0  0  0  0  0  0
   72.0866   12.8557    2.2052 H   0  0  0  0  0  0
   73.5110   13.5365    3.0621 H   0  0  0  0  0  0
   72.2914   14.6357    2.3335 H   0  0  0  0  0  0
   71.3807   17.4145    6.4603 H   0  0  0  0  0  0
   73.2065   17.2795    8.7278 H   0  0  0  0  0  0
   71.5884   19.5099    7.3982 H   0  0  0  0  0  0
   72.5557   19.8608    8.8705 H   0  0  0  0  0  0
   74.5628   18.9915    7.6458 H   0  0  0  0  0  0
   73.5428   18.9192    6.1690 H   0  0  0  0  0  0
   73.1091   21.3051    6.2854 H   0  0  0  0  0  0
   73.9524   21.4231    7.8670 H   0  0  0  0  0  0
   76.1359   21.0861    6.7663 H   0  0  0  0  0  0
   73.2275   21.3360    4.5690 H   0  0  0  0  0  0
   74.3375   21.7249    3.0701 H   0  0  0  0  0  0
   77.4010   21.5269    5.0222 H   0  0  0  0  0  0
   69.6858   17.5880    8.4758 H   0  0  0  0  0  0
   69.3615   18.4679   11.2490 H   0  0  0  0  0  0
   67.6378   18.4690    9.2604 H   0  0  0  0  0  0
   67.2476   16.8021    9.8042 H   0  0  0  0  0  0
   66.9148   17.8798   12.1436 H   0  0  0  0  0  0
   66.8400   19.4325   11.2434 H   0  0  0  0  0  0
   64.9444   18.6872    9.9713 H   0  0  0  0  0  0
   65.0976   17.0172   10.6147 H   0  0  0  0  0  0
   64.6523   17.8731   12.9085 H   0  0  0  0  0  0
   64.4659   19.5315   12.2440 H   0  0  0  0  0  0
   62.3232   18.4835   12.6576 H   0  0  0  0  0  0
   62.7635   17.1240   11.5692 H   0  0  0  0  0  0
   62.5771   18.7824   10.9046 H   0  0  0  0  0  0
   69.9697   15.3595    9.7802 H   0  0  0  0  0  0
   69.2634   13.9110   12.2904 H   0  0  0  0  0  0
   70.3786   13.2232    9.5930 H   0  0  0  0  0  0
   70.9443   12.1645   10.9294 H   0  0  0  0  0  0
   69.1115   11.0240   10.1650 H   0  0  0  0  0  0
   68.3861   11.9976   11.4888 H   0  0  0  0  0  0
   67.5360   13.6186    9.8936 H   0  0  0  0  0  0
   68.3703   12.7794    8.5422 H   0  0  0  0  0  0
   65.8083   11.9460    9.9354 H   0  0  0  0  0  0
   68.5989   11.0781    7.7435 H   0  0  0  0  0  0
   67.6020    9.6561    6.9599 H   0  0  0  0  0  0
   64.6699   10.2964    9.0135 H   0  0  0  0  0  0
   71.0639   16.2115   12.4068 H   0  0  0  0  0  0
   73.0855   16.8467   13.2889 H   0  0  0  0  0  0
   72.6268   14.3092   14.9365 H   0  0  0  0  0  0
   73.9929   15.4234   15.2813 H   0  0  0  0  0  0
   72.3176   16.0371   16.7858 H   0  0  0  0  0  0
   72.2038   17.2612   15.4762 H   0  0  0  0  0  0
   68.5241   16.5446   16.9544 H   0  0  0  0  0  0
   69.8457   17.7580   16.8668 H   0  0  0  0  0  0
   70.0482   16.2800   17.8674 H   0  0  0  0  0  0
   73.6286   16.0651   10.8723 H   0  0  0  0  0  0
   75.2380   15.0475   10.8055 H   0  0  0  0  0  0
  1  2  1  0  0  0
  1  3  2  0  0  0
  1  4  1  0  0  0
  2116  1  0  0  0
  2117  1  0  0  0
  2118  1  0  0  0
  4  5  1  0  0  0
  4119  1  0  0  0
  5  6  1  0  0  0
  5  8  1  0  0  0
  5120  1  0  0  0
  6  7  2  0  0  0
  6 10  1  0  0  0
  8  9  1  0  0  0
  8121  1  0  0  0
  8122  1  0  0  0
  9123  1  0  0  0
 10 11  1  0  0  0
 10124  1  0  0  0
 11 12  1  0  0  0
 11 14  1  0  0  0
 11125  1  0  0  0
 12 13  2  0  0  0
 12 18  1  0  0  0
 14 15  1  0  0  0
 14126  1  0  0  0
 14127  1  0  0  0
 15 16  1  0  0  0
 15 17  1  0  0  0
 15128  1  0  0  0
 16129  1  0  0  0
 16130  1  0  0  0
 16131  1  0  0  0
 17132  1  0  0  0
 17133  1  0  0  0
 17134  1  0  0  0
 18 19  1  0  0  0
 18135  1  0  0  0
 19 20  1  0  0  0
 19 22  1  0  0  0
 19136  1  0  0  0
 20 21  2  0  0  0
 20 26  1  0  0  0
 22 23  1  0  0  0
 22137  1  0  0  0
 22138  1  0  0  0
 23 24  1  0  0  0
 23139  1  0  0  0
 23140  1  0  0  0
 24 25  1  0  0  0
 25141  1  0  0  0
 25142  1  0  0  0
 25143  1  0  0  0
 26 27  1  0  0  0
 26144  1  0  0  0
 27 28  1  0  0  0
 27 30  1  0  0  0
 27145  1  0  0  0
 28 29  2  0  0  0
 28 37  1  0  0  0
 30 31  1  0  0  0
 30146  1  0  0  0
 30147  1  0  0  0
 31 32  1  0  0  0
 31148  1  0  0  0
 31149  1  0  0  0
 32 33  1  0  0  0
 32150  1  0  0  0
 32151  1  0  0  0
 33 34  1  0  0  0
 33152  1  0  0  0
 34 35  2  0  0  0
 34 36  1  0  0  0
 35153  1  0  0  0
 36154  1  0  0  0
 36155  1  0  0  0
 37 38  1  0  0  0
 37156  1  0  0  0
 38 39  1  0  0  0
 38 41  1  0  0  0
 38157  1  0  0  0
 39 40  2  0  0  0
 39 44  1  0  0  0
 41 42  1  0  0  0
 41 43  1  0  0  0
 41158  1  0  0  0
 42159  1  0  0  0
 42160  1  0  0  0
 42161  1  0  0  0
 43162  1  0  0  0
 43163  1  0  0  0
 43164  1  0  0  0
 44 45  1  0  0  0
 44165  1  0  0  0
 45 46  1  0  0  0
 45 48  1  0  0  0
 45166  1  0  0  0
 46 47  2  0  0  0
 46 53  1  0  0  0
 48 49  1  0  0  0
 48167  1  0  0  0
 48168  1  0  0  0
 49 50  1  0  0  0
 49169  1  0  0  0
 49170  1  0  0  0
 50 51  2  0  0  0
 50 52  1  0  0  0
 52171  1  0  0  0
 52172  1  0  0  0
 53 54  1  0  0  0
 53173  1  0  0  0
 54 55  1  0  0  0
 54 57  1  0  0  0
 54174  1  0  0  0
 55 56  2  0  0  0
 55 58  1  0  0  0
 57175  1  0  0  0
 57176  1  0  0  0
 57177  1  0  0  0
 58 59  1  0  0  0
 58178  1  0  0  0
 59 60  1  0  0  0
 59 62  1  0  0  0
 59179  1  0  0  0
 60 61  2  0  0  0
 60 68  1  0  0  0
 62 63  1  0  0  0
 62180  1  0  0  0
 62181  1  0  0  0
 63 64  2  0  0  0
 63 65  1  0  0  0
 64 66  1  0  0  0
 65 67  2  0  0  0
 65182  1  0  0  0
 66 67  1  0  0  0
 66183  1  0  0  0
 68 69  1  0  0  0
 68184  1  0  0  0
 69 70  1  0  0  0
 69 72  1  0  0  0
 69185  1  0  0  0
 70 71  2  0  0  0
 70 76  1  0  0  0
 72 73  1  0  0  0
 72 74  1  0  0  0
 72186  1  0  0  0
 73 75  1  0  0  0
 73187  1  0  0  0
 73188  1  0  0  0
 74189  1  0  0  0
 74190  1  0  0  0
 74191  1  0  0  0
 75192  1  0  0  0
 75193  1  0  0  0
 75194  1  0  0  0
 76 77  1  0  0  0
 76195  1  0  0  0
 77 78  1  0  0  0
 77 80  1  0  0  0
 77196  1  0  0  0
 78 79  2  0  0  0
 78 87  1  0  0  0
 80 81  1  0  0  0
 80197  1  0  0  0
 80198  1  0  0  0
 81 82  1  0  0  0
 81199  1  0  0  0
 81200  1  0  0  0
 82 83  1  0  0  0
 82201  1  0  0  0
 82202  1  0  0  0
 83 84  1  0  0  0
 83203  1  0  0  0
 84 85  1  0  0  0
 84 86  2  0  0  0
 85204  1  0  0  0
 85205  1  0  0  0
 86206  1  0  0  0
 87 88  1  0  0  0
 87207  1  0  0  0
 88 89  1  0  0  0
 88 91  1  0  0  0
 88208  1  0  0  0
 89 90  2  0  0  0
 89 96  1  0  0  0
 91 92  1  0  0  0
 91209  1  0  0  0
 91210  1  0  0  0
 92 93  1  0  0  0
 92211  1  0  0  0
 92212  1  0  0  0
 93 94  1  0  0  0
 93213  1  0  0  0
 93214  1  0  0  0
 94 95  1  0  0  0
 94215  1  0  0  0
 94216  1  0  0  0
 95217  1  0  0  0
 95218  1  0  0  0
 95219  1  0  0  0
 96 97  1  0  0  0
 96220  1  0  0  0
 97 98  1  0  0  0
 97100  1  0  0  0
 97221  1  0  0  0
 98 99  2  0  0  0
 98107  1  0  0  0
100101  1  0  0  0
100222  1  0  0  0
100223  1  0  0  0
101102  1  0  0  0
101224  1  0  0  0
101225  1  0  0  0
102103  1  0  0  0
102226  1  0  0  0
102227  1  0  0  0
103104  1  0  0  0
103228  1  0  0  0
104105  1  0  0  0
104106  2  0  0  0
105229  1  0  0  0
105230  1  0  0  0
106231  1  0  0  0
107108  1  0  0  0
107232  1  0  0  0
108109  1  0  0  0
108111  1  0  0  0
108233  1  0  0  0
109110  2  0  0  0
109115  1  0  0  0
111112  1  0  0  0
111234  1  0  0  0
111235  1  0  0  0
112113  1  0  0  0
112236  1  0  0  0
112237  1  0  0  0
113114  1  0  0  0
114238  1  0  0  0
114239  1  0  0  0
114240  1  0  0  0
115241  1  0  0  0
115242  1  0  0  0
M  CHG  1  95   1
M  END
> <s_m_source_file>
../2auc_ligand.sdf

> <i_m_source_file_index>
1

> <s_epik_input>
W0NIM11DKD1PKVtOSF1bQ0BASF0oW0NIMl1bT0hdKUMoPU8pW05IXVtDQEBIXShbQ0gyXVtDSF0oW0NIM10pW0NIM10pQyg9TylbTkhdW0NAQEhdKFtDSDJdW0NIMl1TW0NIM10pQyg9TylbTkhdW0NAQEhdKFtDSDJdW0NIMl1bQ0gyXVtOSF0vQyg9TlxbSF0pW05IMl0pQyg9TylbTkhdW0NAQEhdKFtDSF0oW0NIM10pW0NIM10pQyg9TylbTkhdW0NAQEhdKFtDSDJdW0NIMl1DKD1PKVtOSDJdKUMoPU8pW05IXVtDQEBIXShbQ0gzXSlDKD1PKVtOSF1bQ0BASF0oW0NIMl1DMT1OW0NIMl1OPVtDSF0xKUMoPU8pW05IXVtDQEBIXShbQ0BASF0oW0NIM10pW0NIMl1bQ0gzXSlDKD1PKVtOSF1bQ0BASF0oW0NIMl1bQ0gyXVtDSDJdW05IXS9DKFtOSDJdKT1OXFtIXSlDKD1PKVtOSF1bQ0BASF0oW0NIMl1bQ0gyXVtDSDJdW0NIMl1bTkgzK10pQyg9TylbTkhdW0NAQEhdKFtDSDJdW0NIMl1bQ0gyXVtOSF0vQyhbTkgyXSk9TlxbSF0pQyg9TylbTkhdW0NASF0oQyg9TylbTkgyXSlbQ0gyXVtDSDJdU1tDSDNd

> <s_epik_cmdline>
J2VwaWtfYXBwJywgJy1pbWFlJywgJ2xpZ2FuZF9wcm8ubWFlJywgJy1vbWFlJywgJ2xpZ2FuZF9wcmVwLm1hZScsICctbXMnLCAnMScsICctcGgnLCAnNycsICctcGh0JywgJzAuNScsICctbnQn

> <s_epik_pKa_notes>
Molecule size exceeds maximum supported for generating protonation states

> <s_epik_Chemistry_Notes>
This compound has an imine and may undergo hydrolysis.

$$$$
