2aux_ligand
                    3D
 Schrodinger Suite 2020-3.
 51 51  0  0  1  0            999 V2000
   13.3290   60.2210   73.6160 C   0  0  0  0  0  0
   12.9760   61.7130   73.6700 C   0  0  0  0  0  0
   13.1170   62.2380   75.1410 C   0  0  0  0  0  0
   14.5180   62.8720   75.3340 C   0  0  0  0  0  0
   16.8320   63.6100   76.4650 O   0  0  0  0  0  0
   13.5090   65.0180   75.9410 N   0  0  0  0  0  0
   12.6350   65.5680   76.7950 C   0  0  0  0  0  0
   12.5200   65.1160   77.9140 O   0  0  0  0  0  0
   11.8930   66.6090   76.4110 O   0  0  0  0  0  0
   11.0120   67.0890   77.4360 C   0  0  2  0  0  0
    9.5350   67.0000   76.9360 C   0  0  0  0  0  0
    9.1450   65.5580   76.5790 C   0  0  0  0  0  0
    8.5670   64.7380   77.5400 C   0  0  0  0  0  0
    8.2130   63.4300   77.2120 C   0  0  0  0  0  0
    8.4410   62.9470   75.9280 C   0  0  0  0  0  0
    9.0160   63.7610   74.9670 C   0  0  0  0  0  0
    9.3690   65.0660   75.2890 C   0  0  0  0  0  0
   11.3380   68.5900   77.7110 C   0  0  0  0  0  0
   11.4350   69.3290   76.3860 C   0  0  0  0  0  0
   12.6550   68.7240   78.4560 C   0  0  0  0  0  0
   15.8720   64.6270   76.5270 C   0  0  0  0  0  0
   14.4540   63.9950   76.4030 C   0  0  2  0  0  0
   13.2286   59.8577   72.5826 H   0  0  0  0  0  0
   12.6465   59.6588   74.2703 H   0  0  0  0  0  0
   14.3650   60.0768   73.9564 H   0  0  0  0  0  0
   13.6585   62.2752   73.0157 H   0  0  0  0  0  0
   11.9400   61.8573   73.3296 H   0  0  0  0  0  0
   12.3430   62.9949   75.3359 H   0  0  0  0  0  0
   12.9951   61.3998   75.8428 H   0  0  0  0  0  0
   15.2277   62.0994   75.6649 H   0  0  0  0  0  0
   14.8609   63.3008   74.3808 H   0  0  0  0  0  0
   17.9014   63.8580   76.5354 H   0  0  0  0  0  0
   13.5154   65.3374   74.8884 H   0  0  0  0  0  0
   11.1997   66.4411   78.3049 H   0  0  0  0  0  0
    8.8583   67.3572   77.7262 H   0  0  0  0  0  0
    9.4133   67.6248   76.0389 H   0  0  0  0  0  0
    8.3909   65.1160   78.5471 H   0  0  0  0  0  0
    7.7569   62.7850   77.9630 H   0  0  0  0  0  0
    8.1657   61.9226   75.6770 H   0  0  0  0  0  0
    9.1913   63.3795   73.9611 H   0  0  0  0  0  0
    9.8219   65.7083   74.5337 H   0  0  0  0  0  0
   10.5504   69.0446   78.3299 H   0  0  0  0  0  0
   10.4831   69.2345   75.8430 H   0  0  0  0  0  0
   12.2460   68.8950   75.7827 H   0  0  0  0  0  0
   11.6462   70.3921   76.5737 H   0  0  0  0  0  0
   12.5893   68.1905   79.4157 H   0  0  0  0  0  0
   12.8648   69.7878   78.6414 H   0  0  0  0  0  0
   13.4646   68.2907   77.8503 H   0  0  0  0  0  0
   15.9595   65.1557   77.4876 H   0  0  0  0  0  0
   16.0352   65.3361   75.7021 H   0  0  0  0  0  0
   14.0842   63.6286   77.3720 H   0  0  0  0  0  0
  1  2  1  0  0  0
  1 23  1  0  0  0
  1 24  1  0  0  0
  1 25  1  0  0  0
  2  3  1  0  0  0
  2 26  1  0  0  0
  2 27  1  0  0  0
  3  4  1  0  0  0
  3 28  1  0  0  0
  3 29  1  0  0  0
  4 22  1  0  0  0
  4 30  1  0  0  0
  4 31  1  0  0  0
  5 21  1  0  0  0
  5 32  1  0  0  0
  6  7  1  0  0  0
  6 22  1  0  0  0
  6 33  1  0  0  0
  7  8  2  0  0  0
  7  9  1  0  0  0
  9 10  1  0  0  0
 10 11  1  0  0  0
 10 18  1  0  0  0
 10 34  1  0  0  0
 11 12  1  0  0  0
 11 35  1  0  0  0
 11 36  1  0  0  0
 12 13  2  0  0  0
 12 17  1  0  0  0
 13 14  1  0  0  0
 13 37  1  0  0  0
 14 15  2  0  0  0
 14 38  1  0  0  0
 15 16  1  0  0  0
 15 39  1  0  0  0
 16 17  2  0  0  0
 16 40  1  0  0  0
 17 41  1  0  0  0
 18 19  1  0  0  0
 18 20  1  0  0  0
 18 42  1  0  0  0
 19 43  1  0  0  0
 19 44  1  0  0  0
 19 45  1  0  0  0
 20 46  1  0  0  0
 20 47  1  0  0  0
 20 48  1  0  0  0
 21 22  1  0  0  0
 21 49  1  0  0  0
 21 50  1  0  0  0
 22 51  1  0  0  0
M  END
> <s_m_source_file>
../2aux_ligand.sdf

> <i_m_source_file_index>
1

> <s_epik_input>
W0NIM11bQ0gyXVtDSDJdW0NIMl1bQ0BASF0oW0NIMl1bT0hdKVtOSF1DKD1PKU9bQ0BASF0oW0NIXShbQ0gzXSlbQ0gzXSlbQ0gyXWMxW2NIXVtjSF1bY0hdW2NIXVtjSF0x

> <s_epik_cmdline>
J2VwaWtfYXBwJywgJy1pbWFlJywgJ2xpZ2FuZF9wcm8ubWFlJywgJy1vbWFlJywgJ2xpZ2FuZF9wcmVwLm1hZScsICctbXMnLCAnMScsICctcGgnLCAnNycsICctcGh0JywgJzAuNScsICctbnQn

> <r_lp_tautomer_probability>
1

> <r_epik_Ionization_Penalty>
  0.0000

> <r_epik_Ionization_Penalty_Charging>
  0.0000

> <r_epik_Ionization_Penalty_Neutral>
  0.0000

> <r_epik_State_Penalty>
 -0.0000

> <r_epik_Charging_Adjusted_Penalty>
0

> <i_epik_Tot_Q>
0

> <i_epik_Tot_abs_Q>
0

> <s_epik_Chemistry_Notes>
This compound has an ester and may undergo hydrolysis at high or low pH.

$$$$
