2auz_ligand
                    3D
 Schrodinger Suite 2020-3.
 50 51  0  0  1  0            999 V2000
   71.9310  -11.3600  130.4030 C   0  0  0  0  0  0
   73.3270  -11.5240  130.9980 C   0  0  0  0  0  0
   73.3640  -10.8950  132.4040 C   0  0  0  0  0  0
   74.6660  -10.0610  132.5640 C   0  0  0  0  0  0
   74.9410   -9.8250  134.0420 C   0  0  2  0  0  0
   74.0240   -8.8620  134.5190 N   0  0  0  0  0  0
   73.2030   -9.1470  135.5170 C   0  0  0  0  0  0
   73.2990  -10.2430  136.0990 O   0  0  0  0  0  0
   72.2320   -8.2170  135.8480 O   0  0  0  0  0  0
   71.6550   -8.3240  137.1690 C   0  0  0  0  0  0
   70.6200   -9.5330  137.2620 C   0  0  0  0  0  0
   69.5960   -9.4640  136.1260 C   0  0  0  0  0  0
   69.8410  -10.1250  134.9260 C   0  0  0  0  0  0
   68.9100  -10.0650  133.8860 C   0  0  0  0  0  0
   67.7300   -9.3400  134.0470 C   0  0  0  0  0  0
   67.4800   -8.6810  135.2410 C   0  0  0  0  0  0
   68.4120   -8.7410  136.2850 C   0  0  0  0  0  0
   72.7530   -8.4540  138.2370 C   0  0  0  0  0  0
   73.0030   -7.0620  138.7920 C   0  0  0  0  0  0
   71.8870   -6.1460  138.2580 C   0  0  0  0  0  0
   70.9370   -7.0090  137.4520 C   0  0  0  0  0  0
   76.3760   -9.2660  134.2280 C   0  0  0  0  0  0
   77.2820  -10.0010  133.3910 O   0  0  0  0  0  0
   71.9052  -11.8092  129.3992 H   0  0  0  0  0  0
   71.6860  -10.2900  130.3323 H   0  0  0  0  0  0
   71.1959  -11.8626  131.0487 H   0  0  0  0  0  0
   73.5720  -12.5940  131.0687 H   0  0  0  0  0  0
   74.0622  -11.0214  130.3523 H   0  0  0  0  0  0
   72.4902  -10.2399  132.5357 H   0  0  0  0  0  0
   73.3429  -11.6913  133.1626 H   0  0  0  0  0  0
   75.5093  -10.6084  132.1177 H   0  0  0  0  0  0
   74.5465   -9.0933  132.0549 H   0  0  0  0  0  0
   74.7676  -10.7425  134.6235 H   0  0  0  0  0  0
   73.9872   -7.8629  134.0602 H   0  0  0  0  0  0
   71.1632  -10.4869  137.1910 H   0  0  0  0  0  0
   70.0862   -9.4856  138.2226 H   0  0  0  0  0  0
   70.7630  -10.6918  134.7970 H   0  0  0  0  0  0
   69.1062  -10.5852  132.9484 H   0  0  0  0  0  0
   67.0046   -9.2913  133.2349 H   0  0  0  0  0  0
   66.5569   -8.1154  135.3675 H   0  0  0  0  0  0
   68.2127   -8.2226  137.2229 H   0  0  0  0  0  0
   72.4123   -9.1333  139.0323 H   0  0  0  0  0  0
   73.6666   -8.8578  137.7763 H   0  0  0  0  0  0
   72.9803   -7.0960  139.8912 H   0  0  0  0  0  0
   73.9878   -6.7049  138.4565 H   0  0  0  0  0  0
   71.3597   -5.6795  139.1032 H   0  0  0  0  0  0
   72.3276   -5.3629  137.6235 H   0  0  0  0  0  0
   70.6807   -6.5192  136.5010 H   0  0  0  0  0  0
   70.0171   -7.2086  138.0212 H   0  0  0  0  0  0
   76.7526   -8.4508  134.8633 H   0  0  0  0  0  0
  1  2  1  0  0  0
  1 24  1  0  0  0
  1 25  1  0  0  0
  1 26  1  0  0  0
  2  3  1  0  0  0
  2 27  1  0  0  0
  2 28  1  0  0  0
  3  4  1  0  0  0
  3 29  1  0  0  0
  3 30  1  0  0  0
  4  5  1  0  0  0
  4 31  1  0  0  0
  4 32  1  0  0  0
  5  6  1  0  0  0
  5 22  1  0  0  0
  5 33  1  0  0  0
  6  7  1  0  0  0
  6 34  1  0  0  0
  7  8  2  0  0  0
  7  9  1  0  0  0
  9 10  1  0  0  0
 10 11  1  0  0  0
 10 18  1  0  0  0
 10 21  1  0  0  0
 11 12  1  0  0  0
 11 35  1  0  0  0
 11 36  1  0  0  0
 12 13  2  0  0  0
 12 17  1  0  0  0
 13 14  1  0  0  0
 13 37  1  0  0  0
 14 15  2  0  0  0
 14 38  1  0  0  0
 15 16  1  0  0  0
 15 39  1  0  0  0
 16 17  2  0  0  0
 16 40  1  0  0  0
 17 41  1  0  0  0
 18 19  1  0  0  0
 18 42  1  0  0  0
 18 43  1  0  0  0
 19 20  1  0  0  0
 19 44  1  0  0  0
 19 45  1  0  0  0
 20 21  1  0  0  0
 20 46  1  0  0  0
 20 47  1  0  0  0
 21 48  1  0  0  0
 21 49  1  0  0  0
 22 23  2  0  0  0
 22 50  1  0  0  0
M  END
> <s_m_source_file>
../2auz_ligand.sdf

> <i_m_source_file_index>
1

> <s_epik_input>
W0NIM11bQ0gyXVtDSDJdW0NIMl1bQ0BASF0oW0NIXT1PKVtOSF1DKD1PKU9DMShbQ0gyXVtDSDJdW0NIMl1bQ0gyXTEpW0NIMl1jMltjSF1bY0hdW2NIXVtjSF1bY0hdMg==

> <s_epik_cmdline>
J2VwaWtfYXBwJywgJy1pbWFlJywgJ2xpZ2FuZF9wcm8ubWFlJywgJy1vbWFlJywgJ2xpZ2FuZF9wcmVwLm1hZScsICctbXMnLCAnMScsICctcGgnLCAnNycsICctcGh0JywgJzAuNScsICctbnQn

> <r_lp_tautomer_probability>
1

> <r_epik_Ionization_Penalty>
  0.0001

> <r_epik_Ionization_Penalty_Charging>
  0.0000

> <r_epik_Ionization_Penalty_Neutral>
  0.0001

> <r_epik_State_Penalty>
 -0.0000

> <r_epik_Charging_Adjusted_Penalty>
0

> <i_epik_Tot_Q>
0

> <i_epik_Tot_abs_Q>
0

> <s_epik_Chemistry_Notes>
This compound has an ester and may undergo hydrolysis at high or low pH.

$$$$
