2avi_ligand
                    3D
 Schrodinger Suite 2020-3.
 31 32  0  0  1  0            999 V2000
   -4.6980   31.2410   28.7030 C   0  0  0  0  0  0
   -3.5320   31.3720   29.1320 O   0  5  0  0  0  0
   -5.5990   32.0690   28.9260 O   0  0  0  0  0  0
   -4.9930   30.0780   27.7910 C   0  0  0  0  0  0
   -3.7060   29.3480   27.3630 C   0  0  0  0  0  0
   -3.5810   29.2170   25.8660 C   0  0  0  0  0  0
   -2.1950   28.8230   25.5090 C   0  0  0  0  0  0
   -1.6430   29.5840   24.3010 C   0  0  2  0  0  0
   -2.7540   29.8010   22.8610 S   0  0  0  0  0  0
   -1.3920   29.8320   21.6660 C   0  0  0  0  0  0
   -0.0570   29.3690   22.3540 C   0  0  2  0  0  0
    0.4530   28.1070   21.8110 N   0  0  0  0  0  0
    0.1210   27.0650   22.5340 C   0  0  0  0  0  0
    0.1560   25.8660   22.2020 O   0  0  0  0  0  0
   -0.3290   27.5180   23.7250 N   0  0  0  0  0  0
   -0.3240   28.9530   23.8050 C   0  0  2  0  0  0
   -5.6417   29.3586   28.3123 H   0  0  0  0  0  0
   -5.5017   30.4415   26.8860 H   0  0  0  0  0  0
   -2.8301   29.9055   27.7265 H   0  0  0  0  0  0
   -3.6994   28.3348   27.7913 H   0  0  0  0  0  0
   -4.2814   28.4493   25.5054 H   0  0  0  0  0  0
   -3.8182   30.1811   25.3925 H   0  0  0  0  0  0
   -1.5267   29.0215   26.3599 H   0  0  0  0  0  0
   -2.1699   27.7506   25.2654 H   0  0  0  0  0  0
   -1.3773   30.4914   24.8632 H   0  0  0  0  0  0
   -1.6213   29.1535   20.8311 H   0  0  0  0  0  0
   -1.2638   30.8550   21.2825 H   0  0  0  0  0  0
    0.6717   30.1798   22.2072 H   0  0  0  0  0  0
    1.0479   28.1068   20.8857 H   0  0  0  0  0  0
   -0.6756   26.9206   24.5811 H   0  0  0  0  0  0
    0.4362   29.2321   24.5494 H   0  0  0  0  0  0
  1  2  1  0  0  0
  1  3  2  0  0  0
  1  4  1  0  0  0
  4  5  1  0  0  0
  4 17  1  0  0  0
  4 18  1  0  0  0
  5  6  1  0  0  0
  5 19  1  0  0  0
  5 20  1  0  0  0
  6  7  1  0  0  0
  6 21  1  0  0  0
  6 22  1  0  0  0
  7  8  1  0  0  0
  7 23  1  0  0  0
  7 24  1  0  0  0
  8  9  1  0  0  0
  8 16  1  0  0  0
  8 25  1  0  0  0
  9 10  1  0  0  0
 10 11  1  0  0  0
 10 26  1  0  0  0
 10 27  1  0  0  0
 11 12  1  0  0  0
 11 16  1  0  0  0
 11 28  1  0  0  0
 12 13  1  0  0  0
 12 29  1  0  0  0
 13 14  2  0  0  0
 13 15  1  0  0  0
 15 16  1  0  0  0
 15 30  1  0  0  0
 16 31  1  0  0  0
M  CHG  1   2  -1
M  END
> <s_m_source_file>
../2avi_ligand.sdf

> <i_m_source_file_index>
1

> <s_epik_input>
W09IXUMoPU8pW0NIMl1bQ0gyXVtDSDJdW0NIMl1bQ0BIXShTW0NIMl0xKVtDQEhdKFtDQEhdMTIpW05IXUMoPU8pW05IXTI=

> <s_epik_cmdline>
J2VwaWtfYXBwJywgJy1pbWFlJywgJ2xpZ2FuZF9wcm8ubWFlJywgJy1vbWFlJywgJ2xpZ2FuZF9wcmVwLm1hZScsICctbXMnLCAnMScsICctcGgnLCAnNycsICctcGh0JywgJzAuNScsICctbnQn

> <r_lp_tautomer_probability>
1

> <r_epik_Ionization_Penalty>
  0.0045

> <r_epik_Ionization_Penalty_Charging>
  0.0044

> <r_epik_Ionization_Penalty_Neutral>
  0.0000

> <r_epik_State_Penalty>
 -0.0000

> <r_epik_Charging_Adjusted_Penalty>
0.00443833021372702

> <i_epik_Tot_Q>
-1

> <i_epik_Tot_abs_Q>
1

$$$$
