2avq_ligand
                    3D
 Schrodinger Suite 2020-3.
123122  0  0  1  0            999 V2000
   23.5580   24.5790   19.7610 C   0  0  0  0  0  0
   23.2670   25.0870   20.8620 O   0  0  0  0  0  0
   24.1610   23.2070   19.6680 C   0  0  0  0  0  0
   23.3920   25.2520   18.6220 N   0  0  0  0  0  0
   22.8170   26.5620   18.6360 C   0  0  2  0  0  0
   21.4400   26.7120   17.9630 C   0  0  0  0  0  0
   20.8100   27.7580   18.0500 O   0  0  0  0  0  0
   23.7610   27.5430   17.9290 C   0  0  2  0  0  0
   23.9560   27.0880   16.5660 O   0  0  0  0  0  0
   25.1160   27.6310   18.6560 C   0  0  0  0  0  0
   20.9640   25.6690   17.3200 N   0  0  0  0  0  0
   19.6920   25.6970   16.6240 C   0  0  2  0  0  0
   18.8220   24.6430   17.2440 C   0  0  0  0  0  0
   18.7750   23.4840   16.7760 O   0  0  0  0  0  0
   19.8410   25.5230   15.0930 C   0  0  2  0  0  0
   20.9050   26.4130   14.4720 C   0  0  0  0  0  0
   18.5060   25.6550   14.3690 C   0  0  0  0  0  0
   20.6910   27.9020   14.6000 C   0  0  0  0  0  0
   18.1060   24.9680   18.2900 N   0  0  0  0  0  0
   17.3510   23.9520   19.0390 C   0  0  2  0  0  0
   15.8460   23.9720   18.7540 C   0  0  0  0  0  0
   17.6470   24.1130   20.5130 C   0  0  0  0  0  0
   19.0980   24.1520   20.9060 C   0  0  0  0  0  0
   19.8940   22.9600   20.5290 C   0  0  0  0  0  0
   19.3270   21.6460   21.0710 C   0  0  0  0  0  0
   15.4870   23.8340   17.4440 N   0  3  0  0  0  0
   14.2850   23.1190   16.9940 C   0  0  2  0  0  0
   14.2990   21.6830   17.4460 C   0  0  0  0  0  0
   15.3140   20.9660   17.3610 O   0  0  0  0  0  0
   14.0900   23.1570   15.4890 C   0  0  0  0  0  0
   12.9590   22.4730   14.7820 C   0  0  0  0  0  0
   13.2960   21.0570   14.3400 C   0  0  0  0  0  0
   14.3160   21.0710   13.1950 C   0  0  0  0  0  0
   13.1710   21.1970   17.9050 N   0  0  0  0  0  0
   13.0710   19.7800   18.3030 C   0  0  2  0  0  0
   11.6490   19.3230   17.9850 C   0  0  0  0  0  0
   10.6390   19.9610   18.3190 O   0  0  0  0  0  0
   13.4760   19.5890   19.7410 C   0  0  0  0  0  0
   13.2950   18.2280   20.3160 C   0  0  0  0  0  0
   11.8920   17.9480   20.8690 C   0  0  0  0  0  0
   11.2640   18.8560   21.3440 O   0  0  0  0  0  0
   11.4170   16.7280   20.7700 N   0  0  0  0  0  0
   11.5760   18.1240   17.4730 N   0  0  0  0  0  0
   10.3000   17.5320   17.1300 C   0  0  2  0  0  0
   10.2270   16.1610   17.7550 C   0  0  0  0  0  0
   11.1820   15.4110   17.7590 O   0  0  0  0  0  0
   10.1990   17.3930   15.6200 C   0  0  0  0  0  0
    9.9380   18.7310   14.9330 C   0  0  0  0  0  0
   10.4720   18.7770   13.5090 C   0  0  0  0  0  0
    9.6990   17.9290   12.6000 N   0  0  0  0  0  0
    8.5130   18.2320   12.0840 C   0  0  0  0  0  0
    7.9660   19.3970   12.4150 N   0  3  0  0  0  0
    7.8740   17.4050   11.2580 N   0  0  0  0  0  0
    9.4690   15.8580   18.1430 N   0  0  0  0  0  0
   24.2388   22.7716   20.6752 H   0  0  0  0  0  0
   25.1633   23.2766   19.2202 H   0  0  0  0  0  0
   23.5226   22.5677   19.0405 H   0  0  0  0  0  0
   23.6991   24.7963   17.6691 H   0  0  0  0  0  0
   22.7064   26.7014   19.7215 H   0  0  0  0  0  0
   23.3105   28.5451   17.8762 H   0  0  0  0  0  0
   23.0909   26.9667   15.8976 H   0  0  0  0  0  0
   24.9566   27.9768   19.6880 H   0  0  0  0  0  0
   25.7698   28.3410   18.1283 H   0  0  0  0  0  0
   25.5893   26.6381   18.6709 H   0  0  0  0  0  0
   21.5694   24.7506   17.3226 H   0  0  0  0  0  0
   19.2554   26.6922   16.7944 H   0  0  0  0  0  0
   20.2016   24.4961   14.9333 H   0  0  0  0  0  0
   21.8771   26.2059   14.9434 H   0  0  0  0  0  0
   20.9698   26.2088   13.3931 H   0  0  0  0  0  0
   17.7638   24.9979   14.8458 H   0  0  0  0  0  0
   18.6300   25.3643   13.3154 H   0  0  0  0  0  0
   18.1610   26.6981   14.4234 H   0  0  0  0  0  0
   21.5220   28.4349   14.1147 H   0  0  0  0  0  0
   20.6512   28.1765   15.6644 H   0  0  0  0  0  0
   19.7439   28.1794   14.1141 H   0  0  0  0  0  0
   18.0745   26.0210   18.6066 H   0  0  0  0  0  0
   17.7199   22.9793   18.6815 H   0  0  0  0  0  0
   15.3595   23.1466   19.2943 H   0  0  0  0  0  0
   15.4220   24.9300   19.0893 H   0  0  0  0  0  0
   17.2128   25.0573   20.8731 H   0  0  0  0  0  0
   17.2077   23.2718   21.0692 H   0  0  0  0  0  0
   19.5847   25.0141   20.4265 H   0  0  0  0  0  0
   19.1795   24.2461   21.9989 H   0  0  0  0  0  0
   19.9292   22.8743   19.4329 H   0  0  0  0  0  0
   20.9163   23.0625   20.9218 H   0  0  0  0  0  0
   19.9678   20.8108   20.7518 H   0  0  0  0  0  0
   18.3093   21.4972   20.6809 H   0  0  0  0  0  0
   19.2964   21.6855   22.1699 H   0  0  0  0  0  0
   15.3382   24.8284   16.9979 H   0  0  0  0  0  0
   16.2821   23.3033   16.8998 H   0  0  0  0  0  0
   13.4643   23.6680   17.4787 H   0  0  0  0  0  0
   13.9679   24.1999   15.1613 H   0  0  0  0  0  0
   14.9687   22.7177   14.9942 H   0  0  0  0  0  0
   12.0897   22.4130   15.4534 H   0  0  0  0  0  0
   12.6888   23.0458   13.8826 H   0  0  0  0  0  0
   13.7224   20.5001   15.1874 H   0  0  0  0  0  0
   12.3814   20.5536   13.9934 H   0  0  0  0  0  0
   14.5431   20.0378   12.8936 H   0  0  0  0  0  0
   15.2388   21.5659   13.5320 H   0  0  0  0  0  0
   13.8978   21.6194   12.3381 H   0  0  0  0  0  0
   12.2945   21.8559   17.9921 H   0  0  0  0  0  0
   13.7927   19.1748   17.7348 H   0  0  0  0  0  0
   14.5457   19.8192   19.8543 H   0  0  0  0  0  0
   12.8863   20.2622   20.3806 H   0  0  0  0  0  0
   13.4873   17.4733   19.5392 H   0  0  0  0  0  0
   13.9995   18.0850   21.1486 H   0  0  0  0  0  0
   12.0334   15.9321   20.3267 H   0  0  0  0  0  0
   10.4026   16.5018   21.1304 H   0  0  0  0  0  0
   12.5064   17.5622   17.3033 H   0  0  0  0  0  0
    9.5094   18.1906   17.5188 H   0  0  0  0  0  0
   11.1413   16.9849   15.2255 H   0  0  0  0  0  0
    9.3714   16.7133   15.3689 H   0  0  0  0  0  0
    8.8546   18.9167   14.8916 H   0  0  0  0  0  0
   10.4266   19.5363   15.5011 H   0  0  0  0  0  0
   10.4266   19.8100   13.1336 H   0  0  0  0  0  0
   11.5151   18.4281   13.4971 H   0  0  0  0  0  0
   10.0945   16.9501   12.2912 H   0  0  0  0  0  0
    8.4948   20.0789   13.0972 H   0  0  0  0  0  0
    8.3280   16.4410   10.9849 H   0  0  0  0  0  0
    6.8923   17.6861   10.8490 H   0  0  0  0  0  0
    8.5721   16.4943   18.1689 H   0  0  0  0  0  0
    9.4434   14.8529   18.5893 H   0  0  0  0  0  0
    6.9844   19.6795   12.0068 H   0  0  0  0  0  0
  1  2  2  0  0  0
  1  3  1  0  0  0
  1  4  1  0  0  0
  3 55  1  0  0  0
  3 56  1  0  0  0
  3 57  1  0  0  0
  4  5  1  0  0  0
  4 58  1  0  0  0
  5  6  1  0  0  0
  5  8  1  0  0  0
  5 59  1  0  0  0
  6  7  2  0  0  0
  6 11  1  0  0  0
  8  9  1  0  0  0
  8 10  1  0  0  0
  8 60  1  0  0  0
  9 61  1  0  0  0
 10 62  1  0  0  0
 10 63  1  0  0  0
 10 64  1  0  0  0
 11 12  1  0  0  0
 11 65  1  0  0  0
 12 13  1  0  0  0
 12 15  1  0  0  0
 12 66  1  0  0  0
 13 14  2  0  0  0
 13 19  1  0  0  0
 15 16  1  0  0  0
 15 17  1  0  0  0
 15 67  1  0  0  0
 16 18  1  0  0  0
 16 68  1  0  0  0
 16 69  1  0  0  0
 17 70  1  0  0  0
 17 71  1  0  0  0
 17 72  1  0  0  0
 18 73  1  0  0  0
 18 74  1  0  0  0
 18 75  1  0  0  0
 19 20  1  0  0  0
 19 76  1  0  0  0
 20 21  1  0  0  0
 20 22  1  0  0  0
 20 77  1  0  0  0
 21 26  1  0  0  0
 21 78  1  0  0  0
 21 79  1  0  0  0
 22 23  1  0  0  0
 22 80  1  0  0  0
 22 81  1  0  0  0
 23 24  1  0  0  0
 23 82  1  0  0  0
 23 83  1  0  0  0
 24 25  1  0  0  0
 24 84  1  0  0  0
 24 85  1  0  0  0
 25 86  1  0  0  0
 25 87  1  0  0  0
 25 88  1  0  0  0
 26 27  1  0  0  0
 26 89  1  0  0  0
 26 90  1  0  0  0
 27 28  1  0  0  0
 27 30  1  0  0  0
 27 91  1  0  0  0
 28 29  2  0  0  0
 28 34  1  0  0  0
 30 31  1  0  0  0
 30 92  1  0  0  0
 30 93  1  0  0  0
 31 32  1  0  0  0
 31 94  1  0  0  0
 31 95  1  0  0  0
 32 33  1  0  0  0
 32 96  1  0  0  0
 32 97  1  0  0  0
 33 98  1  0  0  0
 33 99  1  0  0  0
 33100  1  0  0  0
 34 35  1  0  0  0
 34101  1  0  0  0
 35 36  1  0  0  0
 35 38  1  0  0  0
 35102  1  0  0  0
 36 37  2  0  0  0
 36 43  1  0  0  0
 38 39  1  0  0  0
 38103  1  0  0  0
 38104  1  0  0  0
 39 40  1  0  0  0
 39105  1  0  0  0
 39106  1  0  0  0
 40 41  2  0  0  0
 40 42  1  0  0  0
 42107  1  0  0  0
 42108  1  0  0  0
 43 44  1  0  0  0
 43109  1  0  0  0
 44 45  1  0  0  0
 44 47  1  0  0  0
 44110  1  0  0  0
 45 46  2  0  0  0
 45 54  1  0  0  0
 47 48  1  0  0  0
 47111  1  0  0  0
 47112  1  0  0  0
 48 49  1  0  0  0
 48113  1  0  0  0
 48114  1  0  0  0
 49 50  1  0  0  0
 49115  1  0  0  0
 49116  1  0  0  0
 50 51  1  0  0  0
 50117  1  0  0  0
 51 52  2  0  0  0
 51 53  1  0  0  0
 52118  1  0  0  0
 52123  1  0  0  0
 53119  1  0  0  0
 53120  1  0  0  0
 54121  1  0  0  0
 54122  1  0  0  0
M  CHG  2  26   1  52   1
M  END
> <s_m_source_file>
../2avq_ligand.sdf

> <i_m_source_file_index>
1

> <s_epik_input>
Tz1DKFtDSDNdKVtOSF1bQ0BASF0oW0NASF0oW09IXSlbQ0gzXSlDKD1PKVtOSF1bQ0BASF0oW0NAQEhdKFtDSDNdKVtDSDJdW0NIM10pQyg9TylbTkhdW0NAQEhdKFtDSDJdW0NIMl1bQ0gyXVtDSDNdKVtDSDJdW05IMitdW0NAQEhdKFtDSDJdW0NIMl1bQ0gyXVtDSDNdKUMoPU8pW05IXVtDQEBIXShbQ0gyXVtDSDJdQyg9TylbTkgyXSlDKD1PKVtOSF1bQ0BIXShDKD1PKVtOSDJdKVtDSDJdW0NIMl1bQ0gyXVtOSF0vQyg9TlxbSF0pW05IMl0=

> <s_epik_cmdline>
J2VwaWtfYXBwJywgJy1pbWFlJywgJ2xpZ2FuZF9wcm8ubWFlJywgJy1vbWFlJywgJ2xpZ2FuZF9wcmVwLm1hZScsICctbXMnLCAnMScsICctcGgnLCAnNycsICctcGh0JywgJzAuNScsICctbnQn

> <r_epik_Ionization_Penalty>
  0.1922

> <r_epik_Ionization_Penalty_Charging>
  0.1922

> <r_epik_Ionization_Penalty_Neutral>
  0.0000

> <r_epik_State_Penalty>
  0.1818

> <r_epik_Charging_Adjusted_Penalty>
0.373976833447039

> <i_epik_Tot_Q>
2

> <i_epik_Tot_abs_Q>
2

> <s_epik_Chemistry_Notes>
This compound has an imine and may undergo hydrolysis.

$$$$
