2avv_ligand
                    3D
 Schrodinger Suite 2020-3.
 93 97  0  0  1  0            999 V2000
   43.7120   -1.4230   31.4980 N   0  0  1  0  0  0
   42.3520   -1.4540   30.9100 C   0  0  0  0  0  0
   41.4790   -2.6770   31.0670 C   0  0  1  0  0  0
   40.1260   -2.3580   30.5280 C   0  0  0  0  0  0
   39.9420   -2.1880   29.3280 O   0  0  0  0  0  0
   39.1570   -2.2680   31.4390 N   0  0  0  0  0  0
   37.7760   -2.0120   31.1500 C   0  0  0  0  0  0
   37.0010   -1.9000   32.4660 C   0  0  0  0  0  0
   37.2200   -2.9710   30.3140 C   0  0  0  0  0  0
   37.6100   -0.7030   30.5250 C   0  0  0  0  0  0
   42.2790   -3.7570   30.3990 N   0  3  1  0  0  0
   43.7330   -3.7770   30.7560 C   0  0  0  0  0  0
   44.4420   -2.4460   30.8830 C   0  0  0  0  0  0
   41.7500   -5.1150   30.5270 C   0  0  0  0  0  0
   41.6310   -5.8090   29.1750 C   0  0  1  0  0  0
   41.4230   -7.0990   29.6660 O   0  0  0  0  0  0
   40.4730   -5.4600   28.2090 C   0  0  0  0  0  0
   40.5120   -6.0430   26.7850 C   0  0  1  0  0  0
   39.2630   -5.6280   25.9800 C   0  0  0  0  0  0
   39.2850   -6.2760   24.6440 C   0  0  0  0  0  0
   39.2760   -7.6640   24.4820 C   0  0  0  0  0  0
   39.3360   -8.2140   23.2130 C   0  0  0  0  0  0
   39.3930   -7.3520   22.1240 C   0  0  0  0  0  0
   39.3970   -5.9670   22.2830 C   0  0  0  0  0  0
   39.3420   -5.4240   23.5580 C   0  0  0  0  0  0
   41.7430   -5.5970   26.0060 C   0  0  0  0  0  0
   42.0670   -4.3990   25.9790 O   0  0  0  0  0  0
   42.4210   -6.5740   25.3980 N   0  0  0  0  0  0
   43.3660   -6.3050   24.3360 C   0  0  2  0  0  0
   43.2430   -7.2870   23.1720 C   0  0  2  0  0  0
   43.2270   -8.6020   23.7050 O   0  0  0  0  0  0
   44.4930   -6.9930   22.3560 C   0  0  0  0  0  0
   45.6480   -6.8310   23.3350 C   0  0  0  0  0  0
   47.0150   -6.9770   23.3500 C   0  0  0  0  0  0
   47.6590   -6.7450   24.5630 C   0  0  0  0  0  0
   46.9760   -6.3750   25.7240 C   0  0  0  0  0  0
   45.6030   -6.1970   25.7540 C   0  0  0  0  0  0
   44.8830   -6.4030   24.6200 C   0  0  0  0  0  0
   44.3910   -0.1400   31.6170 C   0  0  0  0  0  0
   43.7530    1.0810   32.2830 C   0  0  0  0  0  0
   43.2840    1.0650   33.6030 C   0  0  0  0  0  0
   42.7200    2.1460   34.3060 N   0  0  0  0  0  0
   42.6800    3.2960   33.5120 C   0  0  0  0  0  0
   43.1230    3.3780   32.1890 C   0  0  0  0  0  0
   43.6570    2.2530   31.5730 C   0  0  0  0  0  0
   41.7471   -0.6433   31.3423 H   0  0  0  0  0  0
   42.4204   -1.3194   29.8204 H   0  0  0  0  0  0
   41.2404   -3.0215   32.0841 H   0  0  0  0  0  0
   39.4845   -2.4070   32.4799 H   0  0  0  0  0  0
   37.0696   -2.8513   33.0140 H   0  0  0  0  0  0
   35.9457   -1.6753   32.2520 H   0  0  0  0  0  0
   37.4311   -1.0929   33.0772 H   0  0  0  0  0  0
   37.3358   -3.9657   30.7691 H   0  0  0  0  0  0
   37.7328   -2.9510   29.3411 H   0  0  0  0  0  0
   36.1509   -2.7560   30.1695 H   0  0  0  0  0  0
   38.0453    0.0711   31.1741 H   0  0  0  0  0  0
   36.5389   -0.4995   30.3793 H   0  0  0  0  0  0
   38.1208   -0.6944   29.5508 H   0  0  0  0  0  0
   42.1642   -3.4832   29.3398 H   0  0  0  0  0  0
   43.8645   -4.2695   31.7308 H   0  0  0  0  0  0
   44.2918   -4.3307   29.9871 H   0  0  0  0  0  0
   44.7096   -2.1417   29.8603 H   0  0  0  0  0  0
   45.3586   -2.6400   31.4594 H   0  0  0  0  0  0
   42.4212   -5.7116   31.1623 H   0  0  0  0  0  0
   40.7501   -5.0775   30.9839 H   0  0  0  0  0  0
   42.5192   -5.6331   28.5504 H   0  0  0  0  0  0
   42.1397   -7.5401   30.3744 H   0  0  0  0  0  0
   39.5219   -5.8133   28.6340 H   0  0  0  0  0  0
   40.4291   -4.3700   28.0679 H   0  0  0  0  0  0
   40.5551   -7.1355   26.9060 H   0  0  0  0  0  0
   38.3576   -5.9413   26.5205 H   0  0  0  0  0  0
   39.2547   -4.5353   25.8534 H   0  0  0  0  0  0
   39.2217   -8.3140   25.3553 H   0  0  0  0  0  0
   39.3385   -9.2948   23.0715 H   0  0  0  0  0  0
   39.4357   -7.7703   21.1184 H   0  0  0  0  0  0
   39.4431   -5.3150   21.4107 H   0  0  0  0  0  0
   39.3437   -4.3434   23.7008 H   0  0  0  0  0  0
   42.2433   -7.6085   25.7271 H   0  0  0  0  0  0
   43.0214   -5.2697   24.1963 H   0  0  0  0  0  0
   42.3207   -7.2605   22.5732 H   0  0  0  0  0  0
   42.3755   -8.9379   24.3149 H   0  0  0  0  0  0
   44.6861   -7.8286   21.6672 H   0  0  0  0  0  0
   44.3449   -6.0686   21.7785 H   0  0  0  0  0  0
   47.5686   -7.2609   22.4550 H   0  0  0  0  0  0
   48.7423   -6.8569   24.6083 H   0  0  0  0  0  0
   47.5451   -6.2206   26.6407 H   0  0  0  0  0  0
   45.1059   -5.8953   26.6759 H   0  0  0  0  0  0
   45.3170   -0.2676   32.1968 H   0  0  0  0  0  0
   44.6358    0.2397   30.6141 H   0  0  0  0  0  0
   43.3640    0.1198   34.1399 H   0  0  0  0  0  0
   42.2706    4.2011   33.9607 H   0  0  0  0  0  0
   43.0500    4.3190   31.6437 H   0  0  0  0  0  0
   43.9959    2.2998   30.5381 H   0  0  0  0  0  0
  1  2  1  0  0  0
  1 13  1  0  0  0
  1 39  1  0  0  0
  2  3  1  0  0  0
  2 46  1  0  0  0
  2 47  1  0  0  0
  3  4  1  0  0  0
  3 11  1  0  0  0
  3 48  1  0  0  0
  4  5  2  0  0  0
  4  6  1  0  0  0
  6  7  1  0  0  0
  6 49  1  0  0  0
  7  8  1  0  0  0
  7  9  1  0  0  0
  7 10  1  0  0  0
  8 50  1  0  0  0
  8 51  1  0  0  0
  8 52  1  0  0  0
  9 53  1  0  0  0
  9 54  1  0  0  0
  9 55  1  0  0  0
 10 56  1  0  0  0
 10 57  1  0  0  0
 10 58  1  0  0  0
 11 12  1  0  0  0
 11 14  1  0  0  0
 11 59  1  0  0  0
 12 13  1  0  0  0
 12 60  1  0  0  0
 12 61  1  0  0  0
 13 62  1  0  0  0
 13 63  1  0  0  0
 14 15  1  0  0  0
 14 64  1  0  0  0
 14 65  1  0  0  0
 15 16  1  0  0  0
 15 17  1  0  0  0
 15 66  1  0  0  0
 16 67  1  0  0  0
 17 18  1  0  0  0
 17 68  1  0  0  0
 17 69  1  0  0  0
 18 19  1  0  0  0
 18 26  1  0  0  0
 18 70  1  0  0  0
 19 20  1  0  0  0
 19 71  1  0  0  0
 19 72  1  0  0  0
 20 21  2  0  0  0
 20 25  1  0  0  0
 21 22  1  0  0  0
 21 73  1  0  0  0
 22 23  2  0  0  0
 22 74  1  0  0  0
 23 24  1  0  0  0
 23 75  1  0  0  0
 24 25  2  0  0  0
 24 76  1  0  0  0
 25 77  1  0  0  0
 26 27  2  0  0  0
 26 28  1  0  0  0
 28 29  1  0  0  0
 28 78  1  0  0  0
 29 30  1  0  0  0
 29 38  1  0  0  0
 29 79  1  0  0  0
 30 31  1  0  0  0
 30 32  1  0  0  0
 30 80  1  0  0  0
 31 81  1  0  0  0
 32 33  1  0  0  0
 32 82  1  0  0  0
 32 83  1  0  0  0
 33 34  2  0  0  0
 33 38  1  0  0  0
 34 35  1  0  0  0
 34 84  1  0  0  0
 35 36  2  0  0  0
 35 85  1  0  0  0
 36 37  1  0  0  0
 36 86  1  0  0  0
 37 38  2  0  0  0
 37 87  1  0  0  0
 39 40  1  0  0  0
 39 88  1  0  0  0
 39 89  1  0  0  0
 40 41  2  0  0  0
 40 45  1  0  0  0
 41 42  1  0  0  0
 41 90  1  0  0  0
 42 43  2  0  0  0
 43 44  1  0  0  0
 43 91  1  0  0  0
 44 45  2  0  0  0
 44 92  1  0  0  0
 45 93  1  0  0  0
M  CHG  1  11   1
M  END
> <s_m_source_file>
../2avv_ligand.sdf

> <i_m_source_file_index>
1

> <s_epik_input>
W2NIXTFbY0hdW2NIXW5bY0hdYzFbQ0gyXVtOQEgrXTJbQ0gyXVtDQEBIXShDKD1PKVtOSF1DKFtDSDNdKShbQ0gzXSlbQ0gzXSlbTkBASCtdKFtDSDJdW0NIMl0yKVtDSDJdW0NAQEhdKFtPSF0pW0NIMl1bQ0BASF0oW0NIMl1jM1tjSF1bY0hdW2NIXVtjSF1bY0hdMylDKD1PKVtOSF1bQ0BIXShbQ0BIXShbT0hdKVtDSDJdNCljKGM0NSlbY0hdW2NIXVtjSF1bY0hdNQ==

> <s_epik_cmdline>
J2VwaWtfYXBwJywgJy1pbWFlJywgJ2xpZ2FuZF9wcm8ubWFlJywgJy1vbWFlJywgJ2xpZ2FuZF9wcmVwLm1hZScsICctbXMnLCAnMScsICctcGgnLCAnNycsICctcGh0JywgJzAuNScsICctbnQn

> <r_epik_Ionization_Penalty>
  0.1676

> <r_epik_Ionization_Penalty_Charging>
  0.1567

> <r_epik_Ionization_Penalty_Neutral>
  0.0108

> <r_epik_State_Penalty>
  0.3908

> <r_epik_Charging_Adjusted_Penalty>
0.547583055920383

> <i_epik_Tot_Q>
1

> <i_epik_Tot_abs_Q>
1

$$$$
