2aw1_ligand
                    3D
 Schrodinger Suite 2020-3.
 36 38  0  0  1  0            999 V2000
   -5.7340    0.9590   16.4520 S   0  0  0  0  0  0
   -7.2960    1.0600   16.2460 O   0  0  0  0  0  0
   -5.1630    1.1480   17.9040 O   0  0  0  0  0  0
   -5.1870   -0.5400   15.8630 N   0  0  0  0  0  0
   -5.0120    2.2420   15.5120 C   0  0  0  0  0  0
   -5.8510    3.1310   14.7850 C   0  0  0  0  0  0
   -5.2550    4.1820   14.0460 C   0  0  0  0  0  0
   -3.8200    4.3800   14.0120 C   0  0  0  0  0  0
   -3.0190    3.4480   14.7660 C   0  0  0  0  0  0
   -3.6040    2.3910   15.5050 C   0  0  0  0  0  0
   -3.2270    5.4750   13.2660 C   0  0  0  0  0  0
   -2.0250    5.4500   12.4870 C   0  0  0  0  0  0
   -1.0300    4.3420   12.1790 C   0  0  0  0  0  0
   -1.7770    6.6960   11.9560 O   0  0  0  0  0  0
   -2.7450    7.4750   12.3470 N   0  0  0  0  0  0
   -3.6830    6.8460   13.1400 C   0  0  0  0  0  0
   -4.8610    7.5220   13.6350 C   0  0  0  0  0  0
   -5.8290    8.0660   12.7240 C   0  0  0  0  0  0
   -6.9920    8.7250   13.1870 C   0  0  0  0  0  0
   -7.2180    8.8560   14.5800 C   0  0  0  0  0  0
   -6.2850    8.3340   15.5100 C   0  0  0  0  0  0
   -5.1220    7.6750   15.0470 C   0  0  0  0  0  0
   -5.6387   -1.3521   16.4516 H   0  0  0  0  0  0
   -4.0915   -0.5902   15.9492 H   0  0  0  0  0  0
   -6.9337    3.0057   14.7964 H   0  0  0  0  0  0
   -5.8956    4.8629   13.4855 H   0  0  0  0  0  0
   -1.9348    3.5599   14.7673 H   0  0  0  0  0  0
   -2.9754    1.6978   16.0639 H   0  0  0  0  0  0
   -1.3557    3.4110   12.6659 H   0  0  0  0  0  0
   -0.0368    4.6256   12.5573 H   0  0  0  0  0  0
   -0.9778    4.1881   11.0911 H   0  0  0  0  0  0
   -5.6637    7.9688   11.6510 H   0  0  0  0  0  0
   -7.7113    9.1303   12.4754 H   0  0  0  0  0  0
   -8.1149    9.3613   14.9381 H   0  0  0  0  0  0
   -6.4631    8.4400   16.5801 H   0  0  0  0  0  0
   -4.4100    7.2755   15.7692 H   0  0  0  0  0  0
  1  2  2  0  0  0
  1  3  2  0  0  0
  1  4  1  0  0  0
  1  5  1  0  0  0
  4 23  1  0  0  0
  4 24  1  0  0  0
  5  6  2  0  0  0
  5 10  1  0  0  0
  6  7  1  0  0  0
  6 25  1  0  0  0
  7  8  2  0  0  0
  7 26  1  0  0  0
  8  9  1  0  0  0
  8 11  1  0  0  0
  9 10  2  0  0  0
  9 27  1  0  0  0
 10 28  1  0  0  0
 11 12  2  0  0  0
 11 16  1  0  0  0
 12 13  1  0  0  0
 12 14  1  0  0  0
 13 29  1  0  0  0
 13 30  1  0  0  0
 13 31  1  0  0  0
 14 15  1  0  0  0
 15 16  2  0  0  0
 16 17  1  0  0  0
 17 18  2  0  0  0
 17 22  1  0  0  0
 18 19  1  0  0  0
 18 32  1  0  0  0
 19 20  2  0  0  0
 19 33  1  0  0  0
 20 21  1  0  0  0
 20 34  1  0  0  0
 21 22  2  0  0  0
 21 35  1  0  0  0
 22 36  1  0  0  0
M  END
> <s_m_source_file>
../2aw1_ligand.sdf

> <i_m_source_file_index>
1

> <s_epik_input>
Tz1TKD1PKShbTkgyXSljMVtjSF1bY0hdYyhbY0hdW2NIXTEpLWMyYyhbQ0gzXSlvbmMyLWMzW2NIXVtjSF1bY0hdW2NIXVtjSF0z

> <s_epik_cmdline>
J2VwaWtfYXBwJywgJy1pbWFlJywgJ2xpZ2FuZF9wcm8ubWFlJywgJy1vbWFlJywgJ2xpZ2FuZF9wcmVwLm1hZScsICctbXMnLCAnMScsICctcGgnLCAnNycsICctcGh0JywgJzAuNScsICctbnQn

> <r_lp_tautomer_probability>
1

> <r_epik_Ionization_Penalty>
  0.0006

> <r_epik_Ionization_Penalty_Charging>
  0.0000

> <r_epik_Ionization_Penalty_Neutral>
  0.0006

> <r_epik_State_Penalty>
 -0.0000

> <r_epik_Charging_Adjusted_Penalty>
0

> <i_epik_Tot_Q>
0

> <i_epik_Tot_abs_Q>
0

$$$$
