2ax6_ligand
                    3D
 Schrodinger Suite 2020-3.
 31 31  0  0  1  0            999 V2000
   23.7050    2.4100    4.2940 F   0  0  0  0  0  0
   23.8630    3.7240    4.4200 C   0  0  0  0  0  0
   23.4930    4.0350    5.6590 F   0  0  0  0  0  0
   23.0170    4.2710    3.5520 F   0  0  0  0  0  0
   25.3210    4.1520    4.1660 C   0  0  0  0  0  0
   26.3200    3.1750    4.1560 C   0  0  0  0  0  0
   25.6930    5.4710    3.8920 C   0  0  0  0  0  0
   24.8750    6.5160    4.0200 N   0  3  0  0  0  0
   25.3250    7.8050    3.6280 O   0  0  0  0  0  0
   23.5390    6.4050    4.4870 O   0  5  0  0  0  0
   27.0210    5.7700    3.5990 C   0  0  0  0  0  0
   27.9990    4.7820    3.5890 C   0  0  0  0  0  0
   27.6520    3.4670    3.8750 C   0  0  0  0  0  0
   28.6290    2.5590    3.8920 N   0  0  0  0  0  0
   28.5070    1.2640    4.1760 C   0  0  0  0  0  0
   27.4530    0.7050    4.4780 O   0  0  0  0  0  0
   29.8200    0.4790    4.1130 C   0  0  0  0  0  0
   30.1840    0.0020    5.5200 C   0  0  0  0  0  0
   29.6390   -0.7210    3.1810 C   0  0  0  0  0  0
   30.8470    1.3380    3.6120 O   0  0  0  0  0  0
   26.0456    2.1435    4.3769 H   0  0  0  0  0  0
   27.2994    6.7993    3.3729 H   0  0  0  0  0  0
   29.0331    5.0375    3.3579 H   0  0  0  0  0  0
   29.6609    2.8569    3.6546 H   0  0  0  0  0  0
   29.3905   -0.6582    5.9000 H   0  0  0  0  0  0
   30.2883    0.8711    6.1862 H   0  0  0  0  0  0
   31.1349   -0.5498    5.4855 H   0  0  0  0  0  0
   28.8473   -1.3752    3.5751 H   0  0  0  0  0  0
   30.5825   -1.2832    3.1197 H   0  0  0  0  0  0
   29.3571   -0.3672    2.1783 H   0  0  0  0  0  0
   31.1124    2.2549    4.1587 H   0  0  0  0  0  0
  1  2  1  0  0  0
  2  3  1  0  0  0
  2  4  1  0  0  0
  2  5  1  0  0  0
  5  6  2  0  0  0
  5  7  1  0  0  0
  6 13  1  0  0  0
  6 21  1  0  0  0
  7  8  1  0  0  0
  7 11  2  0  0  0
  8  9  2  0  0  0
  8 10  1  0  0  0
 11 12  1  0  0  0
 11 22  1  0  0  0
 12 13  2  0  0  0
 12 23  1  0  0  0
 13 14  1  0  0  0
 14 15  1  0  0  0
 14 24  1  0  0  0
 15 16  2  0  0  0
 15 17  1  0  0  0
 17 18  1  0  0  0
 17 19  1  0  0  0
 17 20  1  0  0  0
 18 25  1  0  0  0
 18 26  1  0  0  0
 18 27  1  0  0  0
 19 28  1  0  0  0
 19 29  1  0  0  0
 19 30  1  0  0  0
 20 31  1  0  0  0
M  CHG  2   8   1  10  -1
M  END
> <s_m_source_file>
../2ax6_ligand.sdf

> <i_m_source_file_index>
1

> <s_epik_input>
RkMoRikoRiljMVtjSF1jKFtjSF1bY0hdYzFbTitdKD1PKVtPLV0pW05IXUMoPU8pQyhbQ0gzXSkoW0NIM10pW09IXQ==

> <s_epik_cmdline>
J2VwaWtfYXBwJywgJy1pbWFlJywgJ2xpZ2FuZF9wcm8ubWFlJywgJy1vbWFlJywgJ2xpZ2FuZF9wcmVwLm1hZScsICctbXMnLCAnMScsICctcGgnLCAnNycsICctcGh0JywgJzAuNScsICctbnQn

> <r_lp_tautomer_probability>
1

> <r_epik_Ionization_Penalty>
  0.0000

> <r_epik_Ionization_Penalty_Charging>
  0.0000

> <r_epik_Ionization_Penalty_Neutral>
  0.0000

> <r_epik_State_Penalty>
 -0.0000

> <r_epik_Charging_Adjusted_Penalty>
0

> <i_epik_Tot_Q>
0

> <i_epik_Tot_abs_Q>
2

$$$$
