2axi_ligand
                    3D
 Schrodinger Suite 2020-3.
 28 28  0  0  1  0            999 V2000
   12.1600   -1.6760    8.0270 S   0  0  0  0  0  0
   13.6000   -1.9860    7.9940 O   0  0  0  0  0  0
   11.5960   -1.7730    9.4150 O   0  5  0  0  0  0
   12.4490   -4.2800    1.2060 O   0  0  0  0  0  0
   13.1450   -3.2960    3.7400 N   0  3  0  0  0  0
   11.2940   -2.9410    7.0090 C   0  0  0  0  0  0
   11.9150   -0.3410    7.4610 O   0  0  0  0  0  0
   11.5660   -2.5730    5.5400 C   0  0  0  0  0  0
   12.9640   -2.9840    5.2100 C   0  0  0  0  0  0
   12.2720   -2.4730    2.8080 C   0  0  0  0  0  0
   12.6760   -2.9110    1.4050 C   0  0  0  0  0  0
   13.1620   -5.1340    2.1060 C   0  0  0  0  0  0
   12.7530   -4.7400    3.5160 C   0  0  0  0  0  0
   14.1972   -3.0711    3.5115 H   0  0  0  0  0  0
   11.6926   -3.9384    7.2465 H   0  0  0  0  0  0
   10.2167   -2.9146    7.2297 H   0  0  0  0  0  0
   10.8523   -3.1019    4.8913 H   0  0  0  0  0  0
   11.4484   -1.4875    5.4061 H   0  0  0  0  0  0
   13.2042   -3.8764    5.8065 H   0  0  0  0  0  0
   13.6352   -2.1606    5.4955 H   0  0  0  0  0  0
   11.2128   -2.6882    3.0124 H   0  0  0  0  0  0
   12.4671   -1.4030    2.9724 H   0  0  0  0  0  0
   13.7454   -2.6929    1.2678 H   0  0  0  0  0  0
   12.0876   -2.3322    0.6778 H   0  0  0  0  0  0
   12.8968   -6.1823    1.9043 H   0  0  0  0  0  0
   14.2439   -4.9955    1.9634 H   0  0  0  0  0  0
   13.2679   -5.3777    4.2496 H   0  0  0  0  0  0
   11.6649   -4.8475    3.6365 H   0  0  0  0  0  0
  1  2  2  0  0  0
  1  3  1  0  0  0
  1  6  1  0  0  0
  1  7  2  0  0  0
  4 11  1  0  0  0
  4 12  1  0  0  0
  5  9  1  0  0  0
  5 10  1  0  0  0
  5 13  1  0  0  0
  5 14  1  0  0  0
  6  8  1  0  0  0
  6 15  1  0  0  0
  6 16  1  0  0  0
  8  9  1  0  0  0
  8 17  1  0  0  0
  8 18  1  0  0  0
  9 19  1  0  0  0
  9 20  1  0  0  0
 10 11  1  0  0  0
 10 21  1  0  0  0
 10 22  1  0  0  0
 11 23  1  0  0  0
 11 24  1  0  0  0
 12 13  1  0  0  0
 12 25  1  0  0  0
 12 26  1  0  0  0
 13 27  1  0  0  0
 13 28  1  0  0  0
M  CHG  2   3  -1   5   1
M  END
> <s_m_source_file>
../2axi_ligand.sdf

> <i_m_source_file_index>
1

> <s_epik_input>
Tz1TKD1PKShbT0hdKVtDSDJdW0NIMl1bQ0gyXVtOSCtdMVtDSDJdW0NIMl1PW0NIMl1bQ0gyXTE=

> <s_epik_cmdline>
J2VwaWtfYXBwJywgJy1pbWFlJywgJ2xpZ2FuZF9wcm8ubWFlJywgJy1vbWFlJywgJ2xpZ2FuZF9wcmVwLm1hZScsICctbXMnLCAnMScsICctcGgnLCAnNycsICctcGh0JywgJzAuNScsICctbnQn

> <r_epik_Ionization_Penalty>
  0.2355

> <r_epik_Ionization_Penalty_Charging>
  0.2355

> <r_epik_Ionization_Penalty_Neutral>
  0.0000

> <r_epik_State_Penalty>
  0.2263

> <r_epik_Charging_Adjusted_Penalty>
0.461860148694258

> <i_epik_Tot_Q>
0

> <i_epik_Tot_abs_Q>
2

$$$$
