2ay1_ligand
                    3D
 Schrodinger Suite 2020-3.
 22 22  0  0  1  0            999 V2000
  103.3630   46.4480   11.7040 C   0  0  0  0  0  0
  102.8860   47.1490   12.9620 C   0  0  0  0  0  0
  103.3400   46.7700   14.0560 O   0  0  0  0  0  0
  102.0590   48.0820   12.8670 O   0  5  0  0  0  0
  102.2290   46.0930   10.7440 C   0  0  0  0  0  0
  101.3440   44.9730   11.2260 C   0  0  0  0  0  0
  101.5430   43.6680   10.7840 C   0  0  0  0  0  0
  100.2990   45.2240   12.1010 C   0  0  0  0  0  0
  100.7100   42.6340   11.2120 C   0  0  0  0  0  0
   99.4690   44.1960   12.5300 C   0  0  0  0  0  0
   99.6640   42.8910   12.0890 C   0  0  0  0  0  0
   98.7690   41.7920   12.5580 N   0  0  0  0  0  0
  104.0629   47.1017   11.1630 H   0  0  0  0  0  0
  103.8720   45.5117   11.9765 H   0  0  0  0  0  0
  101.5859   46.9729   10.5949 H   0  0  0  0  0  0
  102.6511   45.7795    9.7778 H   0  0  0  0  0  0
  102.3595   43.4515   10.0952 H   0  0  0  0  0  0
  100.1264   46.2398   12.4567 H   0  0  0  0  0  0
  100.8811   41.6181   10.8560 H   0  0  0  0  0  0
   98.6547   44.4146   13.2208 H   0  0  0  0  0  0
   98.9300   40.7629   12.2045 H   0  0  0  0  0  0
   97.9485   42.0114   13.2571 H   0  0  0  0  0  0
  1  2  1  0  0  0
  1  5  1  0  0  0
  1 13  1  0  0  0
  1 14  1  0  0  0
  2  3  2  0  0  0
  2  4  1  0  0  0
  5  6  1  0  0  0
  5 15  1  0  0  0
  5 16  1  0  0  0
  6  7  2  0  0  0
  6  8  1  0  0  0
  7  9  1  0  0  0
  7 17  1  0  0  0
  8 10  2  0  0  0
  8 18  1  0  0  0
  9 11  2  0  0  0
  9 19  1  0  0  0
 10 11  1  0  0  0
 10 20  1  0  0  0
 11 12  1  0  0  0
 12 21  1  0  0  0
 12 22  1  0  0  0
M  CHG  1   4  -1
M  END
> <s_m_source_file>
../2ay1_ligand.sdf

> <i_m_source_file_index>
1

> <s_epik_input>
Tz1DKFtPSF0pW0NIMl1bQ0gyXWMxW2NIXVtjSF1jKFtOSDJdKVtjSF1bY0hdMQ==

> <s_epik_cmdline>
J2VwaWtfYXBwJywgJy1pbWFlJywgJ2xpZ2FuZF9wcm8ubWFlJywgJy1vbWFlJywgJ2xpZ2FuZF9wcmVwLm1hZScsICctbXMnLCAnMScsICctcGgnLCAnNycsICctcGh0JywgJzAuNScsICctbnQn

> <r_lp_tautomer_probability>
1

> <r_epik_Ionization_Penalty>
  0.0088

> <r_epik_Ionization_Penalty_Charging>
  0.0028

> <r_epik_Ionization_Penalty_Neutral>
  0.0060

> <r_epik_State_Penalty>
 -0.0000

> <r_epik_Charging_Adjusted_Penalty>
0.0028388148940478

> <i_epik_Tot_Q>
-1

> <i_epik_Tot_abs_Q>
1

$$$$
