2ay2_ligand
                    3D
 Schrodinger Suite 2020-3.
 26 26  0  0  1  0            999 V2000
  101.0710   44.8070   11.6360 C   0  0  0  0  0  0
   99.9520   45.4070   12.4900 C   0  0  0  0  0  0
   99.1340   44.3550   13.2350 C   0  0  0  0  0  0
   98.5830   43.3040   12.2700 C   0  0  0  0  0  0
   99.7010   42.6700   11.4360 C   0  0  0  0  0  0
  100.4930   43.7440   10.7020 C   0  0  0  0  0  0
  101.9090   45.8550   10.8950 C   0  0  0  0  0  0
  103.1460   46.3530   11.6580 C   0  0  0  0  0  0
  102.8110   47.1200   12.9290 C   0  0  0  0  0  0
  102.1190   48.1570   12.8460 O   0  5  0  0  0  0
  103.2200   46.6910   14.0230 O   0  0  0  0  0  0
  101.7844   44.3211   12.3179 H   0  0  0  0  0  0
  100.3864   46.0832   13.2411 H   0  0  0  0  0  0
   99.2608   45.9702   11.8457 H   0  0  0  0  0  0
   99.7718   43.8524   13.9770 H   0  0  0  0  0  0
   98.2900   44.8411   13.7462 H   0  0  0  0  0  0
   98.0803   42.5096   12.8411 H   0  0  0  0  0  0
   97.8623   43.7761   11.5861 H   0  0  0  0  0  0
  100.3813   42.1135   12.0974 H   0  0  0  0  0  0
   99.2628   41.9819   10.6980 H   0  0  0  0  0  0
   99.8158   44.2210    9.9782 H   0  0  0  0  0  0
  101.3119   43.2444   10.1637 H   0  0  0  0  0  0
  102.2724   45.4307    9.9474 H   0  0  0  0  0  0
  101.2893   46.7397   10.6869 H   0  0  0  0  0  0
  103.7685   45.4937   11.9479 H   0  0  0  0  0  0
  103.7285   47.0266   11.0123 H   0  0  0  0  0  0
  1  2  1  0  0  0
  1  6  1  0  0  0
  1  7  1  0  0  0
  1 12  1  0  0  0
  2  3  1  0  0  0
  2 13  1  0  0  0
  2 14  1  0  0  0
  3  4  1  0  0  0
  3 15  1  0  0  0
  3 16  1  0  0  0
  4  5  1  0  0  0
  4 17  1  0  0  0
  4 18  1  0  0  0
  5  6  1  0  0  0
  5 19  1  0  0  0
  5 20  1  0  0  0
  6 21  1  0  0  0
  6 22  1  0  0  0
  7  8  1  0  0  0
  7 23  1  0  0  0
  7 24  1  0  0  0
  8  9  1  0  0  0
  8 25  1  0  0  0
  8 26  1  0  0  0
  9 10  1  0  0  0
  9 11  2  0  0  0
M  CHG  1  10  -1
M  END
> <s_m_source_file>
../2ay2_ligand.sdf

> <i_m_source_file_index>
1

> <s_epik_input>
W09IXUMoPU8pW0NIMl1bQ0gyXVtDSF0xW0NIMl1bQ0gyXVtDSDJdW0NIMl1bQ0gyXTE=

> <s_epik_cmdline>
J2VwaWtfYXBwJywgJy1pbWFlJywgJ2xpZ2FuZF9wcm8ubWFlJywgJy1vbWFlJywgJ2xpZ2FuZF9wcmVwLm1hZScsICctbXMnLCAnMScsICctcGgnLCAnNycsICctcGh0JywgJzAuNScsICctbnQn

> <r_lp_tautomer_probability>
1

> <r_epik_Ionization_Penalty>
  0.0055

> <r_epik_Ionization_Penalty_Charging>
  0.0055

> <r_epik_Ionization_Penalty_Neutral>
  0.0000

> <r_epik_State_Penalty>
 -0.0000

> <r_epik_Charging_Adjusted_Penalty>
0.00548339074846511

> <i_epik_Tot_Q>
-1

> <i_epik_Tot_abs_Q>
1

$$$$
