2ay3_ligand
                    3D
 Schrodinger Suite 2020-3.
 28 28  0  0  1  0            999 V2000
   92.0080   16.8320   -4.2230 C   0  0  0  0  0  0
   92.1300   15.3500   -3.9350 C   0  0  0  0  0  0
   91.2610   14.7920   -3.2330 O   0  0  0  0  0  0
   93.1080   14.7260   -4.3990 O   0  5  0  0  0  0
   93.3610   17.5360   -4.2810 C   0  0  0  0  0  0
   94.0380   17.7460   -2.9390 C   0  0  0  0  0  0
   93.9850   18.9910   -2.2980 C   0  0  0  0  0  0
   94.7680   16.7190   -2.3280 C   0  0  0  0  0  0
   94.6760   19.2180   -1.0970 C   0  0  0  0  0  0
   94.6880   20.4440   -0.4440 O   0  0  0  0  0  0
   93.9380   21.3280   -1.0440 C   0  0  0  0  0  0
   95.4350   16.9250   -1.1170 C   0  0  0  0  0  0
   95.3980   18.1790   -0.5160 C   0  0  0  0  0  0
   96.0770   18.4080    0.6580 O   0  0  0  0  0  0
   97.3640   18.2390    0.4810 C   0  0  0  0  0  0
   91.5116   16.9772   -5.1938 H   0  0  0  0  0  0
   91.4132   17.3116   -3.4317 H   0  0  0  0  0  0
   94.0566   16.9435   -4.8934 H   0  0  0  0  0  0
   93.2366   18.5332   -4.7285 H   0  0  0  0  0  0
   93.3977   19.7964   -2.7390 H   0  0  0  0  0  0
   94.8170   15.7405   -2.8058 H   0  0  0  0  0  0
   93.9793   22.2788   -0.4924 H   0  0  0  0  0  0
   92.8994   20.9670   -1.0753 H   0  0  0  0  0  0
   94.3033   21.4831   -2.0699 H   0  0  0  0  0  0
   95.9811   16.1076   -0.6462 H   0  0  0  0  0  0
   97.8919   18.4256    1.4278 H   0  0  0  0  0  0
   97.7243   18.9421   -0.2844 H   0  0  0  0  0  0
   97.5564   17.2074    0.1510 H   0  0  0  0  0  0
  1  2  1  0  0  0
  1  5  1  0  0  0
  1 16  1  0  0  0
  1 17  1  0  0  0
  2  3  2  0  0  0
  2  4  1  0  0  0
  5  6  1  0  0  0
  5 18  1  0  0  0
  5 19  1  0  0  0
  6  7  2  0  0  0
  6  8  1  0  0  0
  7  9  1  0  0  0
  7 20  1  0  0  0
  8 12  2  0  0  0
  8 21  1  0  0  0
  9 10  1  0  0  0
  9 13  2  0  0  0
 10 11  1  0  0  0
 11 22  1  0  0  0
 11 23  1  0  0  0
 11 24  1  0  0  0
 12 13  1  0  0  0
 12 25  1  0  0  0
 13 14  1  0  0  0
 14 15  1  0  0  0
 15 26  1  0  0  0
 15 27  1  0  0  0
 15 28  1  0  0  0
M  CHG  1   4  -1
M  END
> <s_m_source_file>
../2ay3_ligand.sdf

> <i_m_source_file_index>
1

> <s_epik_input>
Tz1DKFtPSF0pW0NIMl1bQ0gyXWMxW2NIXWMoT1tDSDNdKWMoW2NIXVtjSF0xKU9bQ0gzXQ==

> <s_epik_cmdline>
J2VwaWtfYXBwJywgJy1pbWFlJywgJ2xpZ2FuZF9wcm8ubWFlJywgJy1vbWFlJywgJ2xpZ2FuZF9wcmVwLm1hZScsICctbXMnLCAnMScsICctcGgnLCAnNycsICctcGh0JywgJzAuNScsICctbnQn

> <r_lp_tautomer_probability>
1

> <r_epik_Ionization_Penalty>
  0.0032

> <r_epik_Ionization_Penalty_Charging>
  0.0032

> <r_epik_Ionization_Penalty_Neutral>
  0.0000

> <r_epik_State_Penalty>
 -0.0000

> <r_epik_Charging_Adjusted_Penalty>
0.00321808826895807

> <i_epik_Tot_Q>
-1

> <i_epik_Tot_abs_Q>
1

$$$$
