2ay4_ligand
                    3D
 Schrodinger Suite 2020-3.
 23 23  0  0  1  0            999 V2000
  103.4200   46.1910   11.9400 C   0  0  0  0  0  0
  102.9880   47.1070   13.0690 C   0  0  0  0  0  0
  103.3660   46.8430   14.2270 O   0  0  0  0  0  0
  102.2590   48.0890   12.8100 O   0  5  0  0  0  0
  102.3090   45.9170   10.9250 C   0  0  0  0  0  0
  101.2300   44.9780   11.4230 C   0  0  0  0  0  0
  101.0550   43.7260   10.8390 C   0  0  0  0  0  0
  100.3730   45.3580   12.4490 C   0  0  0  0  0  0
  100.0430   42.8790   11.2700 C   0  0  0  0  0  0
   99.3640   44.5150   12.8790 C   0  0  0  0  0  0
   99.1840   43.2680   12.2940 C   0  0  0  0  0  0
   98.0570   42.3740   12.7330 C   0  0  0  0  0  0
  104.2595   46.6494   11.3968 H   0  0  0  0  0  0
  103.7366   45.2224   12.3544 H   0  0  0  0  0  0
  101.8151   46.8629   10.6577 H   0  0  0  0  0  0
  102.7415   45.4613   10.0221 H   0  0  0  0  0  0
  101.7192   43.4079   10.0355 H   0  0  0  0  0  0
  100.4975   46.3327   12.9209 H   0  0  0  0  0  0
   99.9201   41.9018   10.8030 H   0  0  0  0  0  0
   98.7031   44.8327   13.6855 H   0  0  0  0  0  0
   98.0843   41.4387   12.1546 H   0  0  0  0  0  0
   97.0971   42.8832   12.5617 H   0  0  0  0  0  0
   98.1654   42.1463   13.8037 H   0  0  0  0  0  0
  1  2  1  0  0  0
  1  5  1  0  0  0
  1 13  1  0  0  0
  1 14  1  0  0  0
  2  3  2  0  0  0
  2  4  1  0  0  0
  5  6  1  0  0  0
  5 15  1  0  0  0
  5 16  1  0  0  0
  6  7  2  0  0  0
  6  8  1  0  0  0
  7  9  1  0  0  0
  7 17  1  0  0  0
  8 10  2  0  0  0
  8 18  1  0  0  0
  9 11  2  0  0  0
  9 19  1  0  0  0
 10 11  1  0  0  0
 10 20  1  0  0  0
 11 12  1  0  0  0
 12 21  1  0  0  0
 12 22  1  0  0  0
 12 23  1  0  0  0
M  CHG  1   4  -1
M  END
> <s_m_source_file>
../2ay4_ligand.sdf

> <i_m_source_file_index>
1

> <s_epik_input>
Tz1DKFtPSF0pW0NIMl1bQ0gyXWMxW2NIXVtjSF1jKFtDSDNdKVtjSF1bY0hdMQ==

> <s_epik_cmdline>
J2VwaWtfYXBwJywgJy1pbWFlJywgJ2xpZ2FuZF9wcm8ubWFlJywgJy1vbWFlJywgJ2xpZ2FuZF9wcmVwLm1hZScsICctbXMnLCAnMScsICctcGgnLCAnNycsICctcGh0JywgJzAuNScsICctbnQn

> <r_lp_tautomer_probability>
1

> <r_epik_Ionization_Penalty>
  0.0030

> <r_epik_Ionization_Penalty_Charging>
  0.0030

> <r_epik_Ionization_Penalty_Neutral>
  0.0000

> <r_epik_State_Penalty>
 -0.0000

> <r_epik_Charging_Adjusted_Penalty>
0.00302252352680986

> <i_epik_Tot_Q>
-1

> <i_epik_Tot_abs_Q>
1

$$$$
