2ay5_ligand
                    3D
 Schrodinger Suite 2020-3.
 23 24  0  0  1  0            999 V2000
  102.7500   47.2000   13.0140 C   0  0  0  0  0  0
  103.1190   46.6940   14.0900 O   0  0  0  0  0  0
  102.1640   48.3010   12.9540 O   0  5  0  0  0  0
  102.9580   46.4340   11.7300 C   0  0  0  0  0  0
  101.6630   46.2530   10.9590 C   0  0  0  0  0  0
   99.0480   44.9850   13.2310 N   0  0  0  0  0  0
   99.8030   45.9970   12.6880 C   0  0  0  0  0  0
  100.6350   45.5030   11.7270 C   0  0  3  0  0  0
  100.3750   44.0950   11.6520 C   0  0  0  0  0  0
  100.8880   43.0560   10.8750 C   0  0  0  0  0  0
  100.4030   41.7710   11.0750 C   0  0  0  0  0  0
   99.4160   41.5110   12.0370 C   0  0  0  0  0  0
   98.8920   42.5130   12.8140 C   0  0  0  0  0  0
   99.3810   43.8080   12.6110 C   0  0  0  0  0  0
  103.6661   46.9791   11.0885 H   0  0  0  0  0  0
  103.3632   45.4374   11.9591 H   0  0  0  0  0  0
  101.2434   47.2390   10.7104 H   0  0  0  0  0  0
  101.8629   45.6953   10.0322 H   0  0  0  0  0  0
   99.6790   47.0293   13.0473 H   0  0  0  0  0  0
  101.6550   43.2497   10.1252 H   0  0  0  0  0  0
  100.7956   40.9504   10.4746 H   0  0  0  0  0  0
   99.0574   40.4904   12.1702 H   0  0  0  0  0  0
   98.1246   42.3081   13.5604 H   0  0  0  0  0  0
  1  2  2  0  0  0
  1  3  1  0  0  0
  1  4  1  0  0  0
  4  5  1  0  0  0
  4 15  1  0  0  0
  4 16  1  0  0  0
  5  8  1  0  0  0
  5 17  1  0  0  0
  5 18  1  0  0  0
  6  7  2  0  0  0
  6 14  1  0  0  0
  7  8  1  0  0  0
  7 19  1  0  0  0
  8  9  1  0  0  0
  9 10  1  0  0  0
  9 14  2  0  0  0
 10 11  2  0  0  0
 10 20  1  0  0  0
 11 12  1  0  0  0
 11 21  1  0  0  0
 12 13  2  0  0  0
 12 22  1  0  0  0
 13 14  1  0  0  0
 13 23  1  0  0  0
M  CHG  1   3  -1
M  END
> <s_m_source_file>
../2ay5_ligand.sdf

> <i_m_source_file_index>
1

> <s_epik_input>
Tz1DKFtPSF0pW0NIMl1bQ0gyXVtDSF0xW0NIXT1OYyhjMTIpW2NIXVtjSF1bY0hdW2NIXTI=

> <s_epik_cmdline>
J2VwaWtfYXBwJywgJy1pbWFlJywgJ2xpZ2FuZF9wcm8ubWFlJywgJy1vbWFlJywgJ2xpZ2FuZF9wcmVwLm1hZScsICctbXMnLCAnMScsICctcGgnLCAnNycsICctcGh0JywgJzAuNScsICctbnQn

> <r_epik_Ionization_Penalty>
  0.0445

> <r_epik_Ionization_Penalty_Charging>
  0.0022

> <r_epik_Ionization_Penalty_Neutral>
  0.0424

> <r_epik_State_Penalty>
  0.0358

> <r_epik_Charging_Adjusted_Penalty>
0.0379620720269393

> <i_epik_Tot_Q>
-1

> <i_epik_Tot_abs_Q>
1

> <s_epik_Chemistry_Notes>
This compound has an imine and may undergo hydrolysis.

$$$$
