2ay6_ligand
                    3D
 Schrodinger Suite 2020-3.
 26 27  0  0  1  0            999 V2000
  100.4040   42.3310   10.8140 N   0  0  0  0  0  0
  100.9530   43.4760   10.2900 C   0  0  0  0  0  0
  100.5870   44.5620   11.0390 C   0  0  0  0  0  0
   99.0940   44.6580   13.1670 C   0  0  0  0  0  0
   98.3690   43.8550   14.0220 C   0  0  0  0  0  0
   98.2950   42.4640   13.8310 C   0  0  0  0  0  0
   98.9370   41.8500   12.7870 C   0  0  0  0  0  0
   99.6700   42.6600   11.9230 C   0  0  0  0  0  0
   99.7620   44.0590   12.0920 C   0  0  0  0  0  0
  100.9800   45.9940   10.8120 C   0  0  0  0  0  0
  102.4890   46.2260   10.7960 C   0  0  0  0  0  0
  103.1290   46.0350   12.1730 C   0  0  0  0  0  0
  102.7800   47.1430   13.1550 C   0  0  0  0  0  0
  103.0070   46.9670   14.3710 O   0  5  0  0  0  0
  102.2670   48.1950   12.7220 O   0  0  0  0  0  0
  101.5845   43.4216    9.3909 H   0  0  0  0  0  0
   99.1382   45.7438   13.3373 H   0  0  0  0  0  0
   97.8339   44.3004   14.8737 H   0  0  0  0  0  0
   97.7143   41.8605   14.5285 H   0  0  0  0  0  0
   98.8909   40.7642   12.6167 H   0  0  0  0  0  0
  100.5882   46.3323    9.8414 H   0  0  0  0  0  0
  100.5627   46.6203   11.6142 H   0  0  0  0  0  0
  102.9619   45.5151   10.1025 H   0  0  0  0  0  0
  102.6984   47.2543   10.4662 H   0  0  0  0  0  0
  102.7856   45.0850   12.6084 H   0  0  0  0  0  0
  104.2239   46.0160   12.0690 H   0  0  0  0  0  0
  1  2  2  0  0  0
  1  8  1  0  0  0
  2  3  1  0  0  0
  2 16  1  0  0  0
  3  9  2  0  0  0
  3 10  1  0  0  0
  4  5  2  0  0  0
  4  9  1  0  0  0
  4 17  1  0  0  0
  5  6  1  0  0  0
  5 18  1  0  0  0
  6  7  1  0  0  0
  6 19  1  0  0  0
  7  8  2  0  0  0
  7 20  1  0  0  0
  8  9  1  0  0  0
 10 11  1  0  0  0
 10 21  1  0  0  0
 10 22  1  0  0  0
 11 12  1  0  0  0
 11 23  1  0  0  0
 11 24  1  0  0  0
 12 13  1  0  0  0
 12 25  1  0  0  0
 12 26  1  0  0  0
 13 14  1  0  0  0
 13 15  2  0  0  0
M  CHG  1  14  -1
M  END
> <s_m_source_file>
../2ay6_ligand.sdf

> <i_m_source_file_index>
1

> <s_epik_input>
W09IXUMoPU8pW0NIMl1bQ0gyXVtDSDJdQyhbQ0hdPU4xKT1DKEMxMilbQ0hdPVtDSF1bQ0gyXVtDSF09Mg==

> <s_epik_cmdline>
J2VwaWtfYXBwJywgJy1pbWFlJywgJ2xpZ2FuZF9wcm8ubWFlJywgJy1vbWFlJywgJ2xpZ2FuZF9wcmVwLm1hZScsICctbXMnLCAnMScsICctcGgnLCAnNycsICctcGh0JywgJzAuNScsICctbnQn

> <r_lp_tautomer_probability>
1

> <r_epik_Ionization_Penalty>
  0.0019

> <r_epik_Ionization_Penalty_Charging>
  0.0019

> <r_epik_Ionization_Penalty_Neutral>
  0.0000

> <r_epik_State_Penalty>
 -0.0000

> <r_epik_Charging_Adjusted_Penalty>
0.00187825375449303

> <i_epik_Tot_Q>
-1

> <i_epik_Tot_abs_Q>
1

> <s_epik_Chemistry_Notes>
This compound has an imine and may undergo hydrolysis.

$$$$
