2ay9_ligand
                    3D
 Schrodinger Suite 2020-3.
 26 26  0  0  1  0            999 V2000
   94.9910   18.5800   -1.6300 C   0  0  0  0  0  0
   94.1730   19.6790   -1.2980 C   0  0  0  0  0  0
   94.0930   20.1500    0.0020 C   0  0  0  0  0  0
   94.8250   19.5370    0.9950 C   0  0  0  0  0  0
   95.6520   18.4540    0.6830 C   0  0  0  0  0  0
   95.7290   17.9750   -0.6300 C   0  0  0  0  0  0
   95.0690   18.0720   -3.0400 C   0  0  0  0  0  0
   93.9580   17.1070   -3.4040 C   0  0  0  0  0  0
   92.5280   17.6700   -3.2480 C   0  0  0  0  0  0
   91.5320   16.8440   -4.0830 C   0  0  0  0  0  0
   91.6960   15.3390   -3.8720 C   0  0  0  0  0  0
   91.3100   14.8270   -2.8040 O   0  5  0  0  0  0
   92.2100   14.6570   -4.7770 O   0  0  0  0  0  0
   93.5919   20.1678   -2.0800 H   0  0  0  0  0  0
   93.4543   21.0011    0.2381 H   0  0  0  0  0  0
   94.7595   19.8958    2.0222 H   0  0  0  0  0  0
   96.2410   17.9792    1.4677 H   0  0  0  0  0  0
   96.3706   17.1254   -0.8638 H   0  0  0  0  0  0
   95.0080   18.9193   -3.7389 H   0  0  0  0  0  0
   96.0223   17.5433   -3.1871 H   0  0  0  0  0  0
   94.0649   16.8049   -4.4563 H   0  0  0  0  0  0
   94.0188   16.2178   -2.7593 H   0  0  0  0  0  0
   92.2305   17.6271   -2.1899 H   0  0  0  0  0  0
   92.5053   18.7142   -3.5932 H   0  0  0  0  0  0
   90.5039   17.1149   -3.8008 H   0  0  0  0  0  0
   91.6864   17.0544   -5.1516 H   0  0  0  0  0  0
  1  2  2  0  0  0
  1  6  1  0  0  0
  1  7  1  0  0  0
  2  3  1  0  0  0
  2 14  1  0  0  0
  3  4  2  0  0  0
  3 15  1  0  0  0
  4  5  1  0  0  0
  4 16  1  0  0  0
  5  6  2  0  0  0
  5 17  1  0  0  0
  6 18  1  0  0  0
  7  8  1  0  0  0
  7 19  1  0  0  0
  7 20  1  0  0  0
  8  9  1  0  0  0
  8 21  1  0  0  0
  8 22  1  0  0  0
  9 10  1  0  0  0
  9 23  1  0  0  0
  9 24  1  0  0  0
 10 11  1  0  0  0
 10 25  1  0  0  0
 10 26  1  0  0  0
 11 12  1  0  0  0
 11 13  2  0  0  0
M  CHG  1  12  -1
M  END
> <s_m_source_file>
../2ay9_ligand.sdf

> <i_m_source_file_index>
1

> <s_epik_input>
W2NIXTFbY0hdW2NIXVtjSF1bY0hdYzFbQ0gyXVtDSDJdW0NIMl1bQ0gyXUMoPU8pW09IXQ==

> <s_epik_cmdline>
J2VwaWtfYXBwJywgJy1pbWFlJywgJ2xpZ2FuZF9wcm8ubWFlJywgJy1vbWFlJywgJ2xpZ2FuZF9wcmVwLm1hZScsICctbXMnLCAnMScsICctcGgnLCAnNycsICctcGh0JywgJzAuNScsICctbnQn

> <r_lp_tautomer_probability>
1

> <r_epik_Ionization_Penalty>
  0.0044

> <r_epik_Ionization_Penalty_Charging>
  0.0044

> <r_epik_Ionization_Penalty_Neutral>
  0.0000

> <r_epik_State_Penalty>
 -0.0000

> <r_epik_Charging_Adjusted_Penalty>
0.00437796616152837

> <i_epik_Tot_Q>
-1

> <i_epik_Tot_abs_Q>
1

$$$$
