2ayr_ligand
                    3D
 Schrodinger Suite 2020-3.
 69 73  0  0  1  0            999 V2000
   32.2070    0.4660   28.2400 C   0  0  0  0  0  0
   29.8570    1.3550   28.2530 C   0  0  0  0  0  0
   27.9180   -0.0290   27.6560 C   0  0  0  0  0  0
   28.2180   -2.4130   27.0040 C   0  0  0  0  0  0
   32.8720    1.6290   27.7200 C   0  0  0  0  0  0
   26.5200   -0.1610   27.4720 C   0  0  0  0  0  0
   32.6480   -3.1980   25.8070 C   0  0  0  0  0  0
   34.2670    1.8030   27.9250 C   0  0  0  0  0  0
   33.2880   -3.2900   24.5500 C   0  0  0  0  0  0
   31.9560   -1.3950   23.7080 C   0  0  0  0  0  0
   35.0090    0.8240   28.6360 C   0  0  0  0  0  0
   32.9480   -2.3840   23.4780 C   0  0  0  0  0  0
   30.2020   -1.0240   27.5980 C   0  0  0  0  0  0
   30.7510    0.2590   28.0310 C   0  0  0  0  0  0
   28.7900   -1.1620   27.4180 C   0  0  0  0  0  0
   31.0320   -2.1570   27.3520 O   0  0  0  0  0  0
   31.6570   -2.2140   26.0460 C   0  0  0  0  0  0
   32.9800   -0.5030   28.9590 C   0  0  0  0  0  0
   28.4600    1.2130   28.0670 C   0  0  0  0  0  0
   26.8220   -2.5290   26.8260 C   0  0  0  0  0  0
   31.3180   -1.3050   24.9650 C   0  0  0  0  0  0
   34.3670   -0.3240   29.1540 C   0  0  0  0  0  0
   25.9730   -1.4110   27.0580 C   0  0  0  0  0  0
   24.6510   -1.5330   26.8790 O   0  0  0  0  0  0
   36.7580    1.0300   28.9080 S   0  0  0  0  0  0
   33.5370   -2.4060   22.1890 O   0  0  0  0  0  0
   38.0420   -0.2180   28.5040 C   0  0  0  0  0  0
   36.9320    1.3850   30.3880 O   0  0  0  0  0  0
   37.1800    2.3840   28.3060 O   0  0  0  0  0  0
   34.2630   -3.5730   21.7600 C   0  0  0  0  0  0
   33.2780   -4.5520   21.0860 C   0  0  0  0  0  0
   32.5200   -4.1440   19.9020 N   0  3  0  0  0  0
   33.4010   -3.4750   18.9190 C   0  0  0  0  0  0
   31.3630   -3.2510   20.2030 C   0  0  0  0  0  0
   32.6540   -3.3240   17.5790 C   0  0  0  0  0  0
   30.4990   -3.0460   18.9390 C   0  0  0  0  0  0
   31.3680   -2.4930   17.7890 C   0  0  0  0  0  0
   30.2590    2.3169   28.5712 H   0  0  0  0  0  0
   28.8626   -3.2740   26.8270 H   0  0  0  0  0  0
   32.3054    2.3786   27.1676 H   0  0  0  0  0  0
   25.8634    0.6914   27.6465 H   0  0  0  0  0  0
   32.9201   -3.8924   26.6019 H   0  0  0  0  0  0
   34.7680    2.6893   27.5358 H   0  0  0  0  0  0
   34.0478   -4.0545   24.3877 H   0  0  0  0  0  0
   31.6855   -0.7021   22.9112 H   0  0  0  0  0  0
   32.4907   -1.3903   29.3608 H   0  0  0  0  0  0
   27.7998    2.0627   28.2408 H   0  0  0  0  0  0
   26.3927   -3.4796   26.5094 H   0  0  0  0  0  0
   30.5582   -0.5403   25.1266 H   0  0  0  0  0  0
   34.9418   -1.0698   29.7031 H   0  0  0  0  0  0
   23.9901   -0.6719   27.0569 H   0  0  0  0  0  0
   37.7537   -1.1912   28.9281 H   0  0  0  0  0  0
   39.0060    0.0966   28.9302 H   0  0  0  0  0  0
   38.1357   -0.3073   27.4116 H   0  0  0  0  0  0
   35.0430   -3.2766   21.0432 H   0  0  0  0  0  0
   34.7300   -4.0552   22.6314 H   0  0  0  0  0  0
   33.8222   -5.4477   20.7519 H   0  0  0  0  0  0
   32.4998   -4.8434   21.8067 H   0  0  0  0  0  0
   32.1266   -5.0860   19.4922 H   0  0  0  0  0  0
   33.6825   -2.4807   19.2960 H   0  0  0  0  0  0
   34.3072   -4.0798   18.7676 H   0  0  0  0  0  0
   30.7440   -3.7057   20.9905 H   0  0  0  0  0  0
   31.7336   -2.2739   20.5463 H   0  0  0  0  0  0
   33.3033   -2.8131   16.8528 H   0  0  0  0  0  0
   32.3859   -4.3191   17.1945 H   0  0  0  0  0  0
   30.0633   -4.0085   18.6326 H   0  0  0  0  0  0
   29.6920   -2.3315   19.1584 H   0  0  0  0  0  0
   31.6380   -1.4549   18.0330 H   0  0  0  0  0  0
   30.7668   -2.5087   16.8680 H   0  0  0  0  0  0
  1  5  2  0  0  0
  1 14  1  0  0  0
  1 18  1  0  0  0
  2 14  2  0  0  0
  2 19  1  0  0  0
  2 38  1  0  0  0
  3  6  1  0  0  0
  3 15  1  0  0  0
  3 19  2  0  0  0
  4 15  1  0  0  0
  4 20  2  0  0  0
  4 39  1  0  0  0
  5  8  1  0  0  0
  5 40  1  0  0  0
  6 23  2  0  0  0
  6 41  1  0  0  0
  7  9  2  0  0  0
  7 17  1  0  0  0
  7 42  1  0  0  0
  8 11  2  0  0  0
  8 43  1  0  0  0
  9 12  1  0  0  0
  9 44  1  0  0  0
 10 12  2  0  0  0
 10 21  1  0  0  0
 10 45  1  0  0  0
 11 22  1  0  0  0
 11 25  1  0  0  0
 12 26  1  0  0  0
 13 14  1  0  0  0
 13 15  2  0  0  0
 13 16  1  0  0  0
 16 17  1  0  0  0
 17 21  2  0  0  0
 18 22  2  0  0  0
 18 46  1  0  0  0
 19 47  1  0  0  0
 20 23  1  0  0  0
 20 48  1  0  0  0
 21 49  1  0  0  0
 22 50  1  0  0  0
 23 24  1  0  0  0
 24 51  1  0  0  0
 25 27  1  0  0  0
 25 28  2  0  0  0
 25 29  2  0  0  0
 26 30  1  0  0  0
 27 52  1  0  0  0
 27 53  1  0  0  0
 27 54  1  0  0  0
 30 31  1  0  0  0
 30 55  1  0  0  0
 30 56  1  0  0  0
 31 32  1  0  0  0
 31 57  1  0  0  0
 31 58  1  0  0  0
 32 33  1  0  0  0
 32 34  1  0  0  0
 32 59  1  0  0  0
 33 35  1  0  0  0
 33 60  1  0  0  0
 33 61  1  0  0  0
 34 36  1  0  0  0
 34 62  1  0  0  0
 34 63  1  0  0  0
 35 37  1  0  0  0
 35 64  1  0  0  0
 35 65  1  0  0  0
 36 37  1  0  0  0
 36 66  1  0  0  0
 36 67  1  0  0  0
 37 68  1  0  0  0
 37 69  1  0  0  0
M  CHG  1  32   1
M  END
> <s_m_source_file>
../2ayr_ligand.sdf

> <i_m_source_file_index>
1

> <s_epik_input>
W2NIXTFbY0hdYyhTKD1PKSg9TylbQ0gzXSlbY0hdW2NIXWMxLWMoW2NIXVtjSF0yKWMoYyhjMjMpW2NIXVtjSF1jKFtjSF0zKVtPSF0pT2MoW2NIXVtjSF00KVtjSF1bY0hdYzRPW0NIMl1bQ0gyXVtOSCtdNVtDSDJdW0NIMl1bQ0gyXVtDSDJdW0NIMl01

> <s_epik_cmdline>
J2VwaWtfYXBwJywgJy1pbWFlJywgJ2xpZ2FuZF9wcm8ubWFlJywgJy1vbWFlJywgJ2xpZ2FuZF9wcmVwLm1hZScsICctbXMnLCAnMScsICctcGgnLCAnNycsICctcGh0JywgJzAuNScsICctbnQn

> <r_lp_tautomer_probability>
1

> <r_epik_Ionization_Penalty>
  0.0170

> <r_epik_Ionization_Penalty_Charging>
  0.0122

> <r_epik_Ionization_Penalty_Neutral>
  0.0048

> <r_epik_State_Penalty>
  0.0095

> <r_epik_Charging_Adjusted_Penalty>
0.0216736986220823

> <i_epik_Tot_Q>
1

> <i_epik_Tot_abs_Q>
1

$$$$
