2az5_ligand
                    3D
 Schrodinger Suite 2020-3.
 73 77  0  0  1  0            999 V2000
  -16.5600   70.3360   36.1580 F   0  0  0  0  0  0
  -15.8540   71.4690   36.2620 C   0  0  0  0  0  0
  -14.6290   71.0840   35.9370 F   0  0  0  0  0  0
  -15.8090   71.9650   37.4750 F   0  0  0  0  0  0
  -16.3390   72.4100   35.1830 C   0  0  0  0  0  0
  -17.6590   72.3880   34.7240 C   0  0  0  0  0  0
  -15.4290   73.2600   34.5740 C   0  0  0  0  0  0
  -15.8650   74.0760   33.5430 C   0  0  0  0  0  0
  -17.1950   74.0420   33.1310 C   0  0  0  0  0  0
  -18.1670   73.2040   33.6900 C   0  0  0  0  0  0
  -19.4480   73.2000   33.2410 N   0  0  0  0  0  0
  -19.8930   73.9820   32.2240 C   0  0  0  0  0  0
  -20.4260   72.4410   33.7610 C   0  0  0  0  0  0
  -20.6080   71.4650   34.8110 C   0  0  0  0  0  0
  -21.8750   70.8890   35.0210 C   0  0  0  0  0  0
  -22.9880   71.2370   34.2500 C   0  0  0  0  0  0
  -21.5420   72.7650   33.0240 C   0  0  0  0  0  0
  -22.8480   72.1890   33.2380 C   0  0  0  0  0  0
  -21.2710   73.7390   32.0880 C   0  0  0  0  0  0
  -22.3050   74.2100   31.0930 C   0  0  0  0  0  0
  -22.8040   75.5370   30.8910 N   0  0  3  0  0  0
  -23.6960   76.1190   31.8770 C   0  0  0  0  0  0
  -22.5030   76.1330   29.5960 C   0  0  0  0  0  0
  -22.0110   77.5610   29.7640 C   0  0  0  0  0  0
  -20.6990   77.5470   30.4010 N   0  3  3  0  0  0
  -19.6370   76.6140   30.0370 C   0  0  0  0  0  0
  -20.5150   78.5670   31.3990 C   0  0  0  0  0  0
  -19.7610   78.0520   32.5940 C   0  0  0  0  0  0
  -18.4910   78.4640   32.7370 C   0  0  0  0  0  0
  -17.8540   78.3100   34.0250 O   0  0  0  0  0  0
  -18.3170   77.3690   34.8990 C   0  0  0  0  0  0
  -19.5420   76.7720   34.6710 C   0  0  0  0  0  0
  -20.0470   75.8310   35.5590 C   0  0  0  0  0  0
  -20.3280   77.2140   33.4790 C   0  0  0  0  0  0
  -21.4920   76.8530   33.3840 O   0  0  0  0  0  0
  -17.5680   77.0260   36.0140 C   0  0  0  0  0  0
  -18.0570   76.0750   36.8950 C   0  0  0  0  0  0
  -17.1800   75.7460   38.0770 C   0  0  0  0  0  0
  -19.2940   75.4650   36.6610 C   0  0  0  0  0  0
  -19.8780   74.4240   37.5940 C   0  0  0  0  0  0
  -18.3471   71.6891   35.1996 H   0  0  0  0  0  0
  -14.3893   73.2858   34.9004 H   0  0  0  0  0  0
  -15.1627   74.7490   33.0511 H   0  0  0  0  0  0
  -17.4976   74.7089   32.3237 H   0  0  0  0  0  0
  -19.2944   74.6689   31.6257 H   0  0  0  0  0  0
  -19.7657   71.1754   35.4392 H   0  0  0  0  0  0
  -21.9922   70.1471   35.8109 H   0  0  0  0  0  0
  -23.9551   70.7701   34.4368 H   0  0  0  0  0  0
  -23.7000   72.4883   32.6276 H   0  0  0  0  0  0
  -21.9577   73.9919   30.0723 H   0  0  0  0  0  0
  -23.2553   73.6873   31.2765 H   0  0  0  0  0  0
  -23.7429   75.4650   32.7603 H   0  0  0  0  0  0
  -24.7020   76.2240   31.4446 H   0  0  0  0  0  0
  -23.3191   77.1090   32.1734 H   0  0  0  0  0  0
  -21.7211   75.5441   29.0942 H   0  0  0  0  0  0
  -23.4114   76.1404   28.9757 H   0  0  0  0  0  0
  -21.9362   78.0415   28.7773 H   0  0  0  0  0  0
  -22.7193   78.1214   30.3920 H   0  0  0  0  0  0
  -20.0975   76.6265   30.4283 H   0  0  0  0  0  0
  -20.0023   75.9283   29.2583 H   0  0  0  0  0  0
  -19.3372   76.0358   30.9235 H   0  0  0  0  0  0
  -18.7713   77.1748   29.6550 H   0  0  0  0  0  0
  -19.9466   79.4040   30.9673 H   0  0  0  0  0  0
  -21.4966   78.9276   31.7401 H   0  0  0  0  0  0
  -17.9517   78.9055   31.8989 H   0  0  0  0  0  0
  -21.0270   75.3850   35.3896 H   0  0  0  0  0  0
  -16.6035   77.5000   36.1959 H   0  0  0  0  0  0
  -16.2659   76.3566   38.0366 H   0  0  0  0  0  0
  -16.9104   74.6799   38.0480 H   0  0  0  0  0  0
  -17.7240   75.9615   39.0084 H   0  0  0  0  0  0
  -20.8520   74.0900   37.2070 H   0  0  0  0  0  0
  -20.0114   74.8618   38.5943 H   0  0  0  0  0  0
  -19.1946   73.5644   37.6581 H   0  0  0  0  0  0
  1  2  1  0  0  0
  2  3  1  0  0  0
  2  4  1  0  0  0
  2  5  1  0  0  0
  5  6  2  0  0  0
  5  7  1  0  0  0
  6 10  1  0  0  0
  6 41  1  0  0  0
  7  8  2  0  0  0
  7 42  1  0  0  0
  8  9  1  0  0  0
  8 43  1  0  0  0
  9 10  2  0  0  0
  9 44  1  0  0  0
 10 11  1  0  0  0
 11 12  1  0  0  0
 11 13  1  0  0  0
 12 19  2  0  0  0
 12 45  1  0  0  0
 13 14  1  0  0  0
 13 17  2  0  0  0
 14 15  2  0  0  0
 14 46  1  0  0  0
 15 16  1  0  0  0
 15 47  1  0  0  0
 16 18  2  0  0  0
 16 48  1  0  0  0
 17 18  1  0  0  0
 17 19  1  0  0  0
 18 49  1  0  0  0
 19 20  1  0  0  0
 20 21  1  0  0  0
 20 50  1  0  0  0
 20 51  1  0  0  0
 21 22  1  0  0  0
 21 23  1  0  0  0
 22 52  1  0  0  0
 22 53  1  0  0  0
 22 54  1  0  0  0
 23 24  1  0  0  0
 23 55  1  0  0  0
 23 56  1  0  0  0
 24 25  1  0  0  0
 24 57  1  0  0  0
 24 58  1  0  0  0
 25 26  1  0  0  0
 25 27  1  0  0  0
 25 59  1  0  0  0
 26 60  1  0  0  0
 26 61  1  0  0  0
 26 62  1  0  0  0
 27 28  1  0  0  0
 27 63  1  0  0  0
 27 64  1  0  0  0
 28 29  2  0  0  0
 28 34  1  0  0  0
 29 30  1  0  0  0
 29 65  1  0  0  0
 30 31  1  0  0  0
 31 32  2  0  0  0
 31 36  1  0  0  0
 32 33  1  0  0  0
 32 34  1  0  0  0
 33 39  2  0  0  0
 33 66  1  0  0  0
 34 35  2  0  0  0
 36 37  2  0  0  0
 36 67  1  0  0  0
 37 38  1  0  0  0
 37 39  1  0  0  0
 38 68  1  0  0  0
 38 69  1  0  0  0
 38 70  1  0  0  0
 39 40  1  0  0  0
 40 71  1  0  0  0
 40 72  1  0  0  0
 40 73  1  0  0  0
M  CHG  1  25   1
M  END
> <s_m_source_file>
../2az5_ligand.sdf

> <i_m_source_file_index>
1

> <s_epik_input>
RkMoRikoRiljMVtjSF1jKFtjSF1bY0hdW2NIXTEpLW4yW2NIXWMoYyhjMjMpW2NIXVtjSF1bY0hdW2NIXTMpW0NIMl1bTkBIK10oW0NIM10pW0NIMl1bQ0gyXVtOSCtdKFtDSDNdKVtDSDJdYyhbY0hdbzQpYyg9TyljKGM0NSlbY0hdYyhbQ0gzXSljKFtjSF01KVtDSDNd

> <s_epik_cmdline>
J2VwaWtfYXBwJywgJy1pbWFlJywgJ2xpZ2FuZF9wcm8ubWFlJywgJy1vbWFlJywgJ2xpZ2FuZF9wcmVwLm1hZScsICctbXMnLCAnMScsICctcGgnLCAnNycsICctcGh0JywgJzAuNScsICctbnQn

> <r_epik_Ionization_Penalty>
  0.0492

> <r_epik_Ionization_Penalty_Charging>
  0.0458

> <r_epik_Ionization_Penalty_Neutral>
  0.0033

> <r_epik_State_Penalty>
  0.2163

> <r_epik_Charging_Adjusted_Penalty>
0.262114488367022

> <i_epik_Tot_Q>
1

> <i_epik_Tot_abs_Q>
1

$$$$
