2az8_ligand
                    3D
 Schrodinger Suite 2020-3.
 66 67  0  0  1  0            999 V2000
  -27.1160   38.0960   19.2660 C   0  0  0  0  0  0
  -27.2050   39.3340   19.2570 O   0  0  0  0  0  0
  -27.3250   37.5400   18.0500 O   0  0  0  0  0  0
  -28.2130   38.1180   17.1260 C   0  0  0  0  0  0
  -29.6130   38.4910   17.3220 C   0  0  0  0  0  0
  -29.9660   39.7100   16.5430 C   0  0  0  0  0  0
  -31.2700   40.1690   16.6460 C   0  0  0  0  0  0
  -32.2020   39.4300   17.5070 C   0  0  0  0  0  0
  -31.8590   38.2020   18.2980 C   0  0  0  0  0  0
  -30.4980   37.7100   18.1980 C   0  0  0  0  0  0
  -26.8780   37.1090   20.1170 N   0  0  0  0  0  0
  -26.6230   37.2710   21.4170 C   0  0  2  0  0  0
  -25.1420   37.0150   21.7730 C   0  0  0  0  0  0
  -24.5030   36.0030   21.3890 O   0  0  0  0  0  0
  -27.6020   36.2060   22.0180 C   0  0  0  0  0  0
  -24.6950   37.9970   22.5700 N   0  0  0  0  0  0
  -23.3420   38.1000   23.1880 C   0  0  2  0  0  0
  -23.5470   38.4730   24.6480 C   0  0  0  0  0  0
  -23.7860   39.5560   25.1520 O   0  0  0  0  0  0
  -22.4330   39.0530   22.3770 C   0  0  0  0  0  0
  -21.0950   39.1160   23.0460 C   0  0  0  0  0  0
  -22.2220   38.6210   20.9060 C   0  0  0  0  0  0
  -23.4030   37.4180   25.4500 N   0  0  0  0  0  0
  -23.5000   37.3670   26.9690 C   0  0  2  0  0  0
  -22.3020   36.4660   27.2640 C   0  0  0  0  0  0
  -22.0650   35.2140   26.8080 O   0  0  0  0  0  0
  -24.7470   36.8200   27.4780 C   0  0  0  0  0  0
  -26.0620   37.1720   27.0740 C   0  0  0  0  0  0
  -26.8090   36.5680   25.9410 C   0  0  0  0  0  0
  -26.5890   38.1760   27.8800 C   0  0  0  0  0  0
  -28.1640   37.0350   25.6160 C   0  0  0  0  0  0
  -27.8830   38.6540   27.6130 C   0  0  0  0  0  0
  -28.6690   38.0830   26.4860 C   0  0  0  0  0  0
  -27.8152   39.0878   16.7924 H   0  0  0  0  0  0
  -28.3261   37.4504   16.2591 H   0  0  0  0  0  0
  -29.2313   40.2191   15.9192 H   0  0  0  0  0  0
  -31.5951   41.0557   16.1018 H   0  0  0  0  0  0
  -33.2238   39.8030   17.5771 H   0  0  0  0  0  0
  -32.6003   37.7013   18.9208 H   0  0  0  0  0  0
  -30.1561   36.8246   18.7340 H   0  0  0  0  0  0
  -26.9010   36.0986   19.6828 H   0  0  0  0  0  0
  -26.7992   38.3289   21.6617 H   0  0  0  0  0  0
  -28.6339   36.4501   21.7254 H   0  0  0  0  0  0
  -27.5209   36.2113   23.1150 H   0  0  0  0  0  0
  -27.3386   35.2088   21.6356 H   0  0  0  0  0  0
  -25.4446   38.7809   22.7535 H   0  0  0  0  0  0
  -22.8265   37.1286   23.1634 H   0  0  0  0  0  0
  -22.9123   40.0431   22.3703 H   0  0  0  0  0  0
  -21.2235   39.4220   24.0948 H   0  0  0  0  0  0
  -20.4591   39.8475   22.5259 H   0  0  0  0  0  0
  -20.6195   38.1248   23.0088 H   0  0  0  0  0  0
  -23.1952   38.5686   20.3960 H   0  0  0  0  0  0
  -21.7406   37.6323   20.8797 H   0  0  0  0  0  0
  -21.5802   39.3550   20.3968 H   0  0  0  0  0  0
  -23.1889   36.5010   24.8815 H   0  0  0  0  0  0
  -23.5336   38.3457   27.4699 H   0  0  0  0  0  0
  -21.3795   36.9600   26.9250 H   0  0  0  0  0  0
  -22.2414   36.2791   28.3463 H   0  0  0  0  0  0
  -21.1497   34.6832   27.1088 H   0  0  0  0  0  0
  -24.7725   35.7353   27.2969 H   0  0  0  0  0  0
  -24.8181   37.0131   28.5586 H   0  0  0  0  0  0
  -26.3507   35.7759   25.3488 H   0  0  0  0  0  0
  -26.0071   38.5854   28.7058 H   0  0  0  0  0  0
  -28.7440   36.6274   24.7880 H   0  0  0  0  0  0
  -28.3110   39.4430   28.2314 H   0  0  0  0  0  0
  -29.6718   38.4696   26.3045 H   0  0  0  0  0  0
  1  2  2  0  0  0
  1  3  1  0  0  0
  1 11  1  0  0  0
  3  4  1  0  0  0
  4  5  1  0  0  0
  4 34  1  0  0  0
  4 35  1  0  0  0
  5  6  2  0  0  0
  5 10  1  0  0  0
  6  7  1  0  0  0
  6 36  1  0  0  0
  7  8  2  0  0  0
  7 37  1  0  0  0
  8  9  1  0  0  0
  8 38  1  0  0  0
  9 10  2  0  0  0
  9 39  1  0  0  0
 10 40  1  0  0  0
 11 12  1  0  0  0
 11 41  1  0  0  0
 12 13  1  0  0  0
 12 15  1  0  0  0
 12 42  1  0  0  0
 13 14  2  0  0  0
 13 16  1  0  0  0
 15 43  1  0  0  0
 15 44  1  0  0  0
 15 45  1  0  0  0
 16 17  1  0  0  0
 16 46  1  0  0  0
 17 18  1  0  0  0
 17 20  1  0  0  0
 17 47  1  0  0  0
 18 19  2  0  0  0
 18 23  1  0  0  0
 20 21  1  0  0  0
 20 22  1  0  0  0
 20 48  1  0  0  0
 21 49  1  0  0  0
 21 50  1  0  0  0
 21 51  1  0  0  0
 22 52  1  0  0  0
 22 53  1  0  0  0
 22 54  1  0  0  0
 23 24  1  0  0  0
 23 55  1  0  0  0
 24 25  1  0  0  0
 24 27  1  0  0  0
 24 56  1  0  0  0
 25 26  1  0  0  0
 25 57  1  0  0  0
 25 58  1  0  0  0
 26 59  1  0  0  0
 27 28  1  0  0  0
 27 60  1  0  0  0
 27 61  1  0  0  0
 28 29  2  0  0  0
 28 30  1  0  0  0
 29 31  1  0  0  0
 29 62  1  0  0  0
 30 32  2  0  0  0
 30 63  1  0  0  0
 31 33  2  0  0  0
 31 64  1  0  0  0
 32 33  1  0  0  0
 32 65  1  0  0  0
 33 66  1  0  0  0
M  END
> <s_m_source_file>
../2az8_ligand.sdf

> <i_m_source_file_index>
1

> <s_epik_input>
W2NIXTFbY0hdW2NIXVtjSF1bY0hdYzFbQ0gyXU9DKD1PKVtOSF1bQ0BASF0oW0NIM10pQyg9TylbTkhdW0NAQEhdKFtDSF0oW0NIM10pW0NIM10pQyg9TylbTkhdW0NASF0oW0NIMl1bT0hdKVtDSDJdYzJbY0hdW2NIXVtjSF1bY0hdW2NIXTI=

> <s_epik_cmdline>
J2VwaWtfYXBwJywgJy1pbWFlJywgJ2xpZ2FuZF9wcm8ubWFlJywgJy1vbWFlJywgJ2xpZ2FuZF9wcmVwLm1hZScsICctbXMnLCAnMScsICctcGgnLCAnNycsICctcGh0JywgJzAuNScsICctbnQn

> <r_lp_tautomer_probability>
1

> <r_epik_Ionization_Penalty>
  0.0000

> <r_epik_Ionization_Penalty_Charging>
  0.0000

> <r_epik_Ionization_Penalty_Neutral>
  0.0000

> <r_epik_State_Penalty>
 -0.0000

> <r_epik_Charging_Adjusted_Penalty>
0

> <i_epik_Tot_Q>
0

> <i_epik_Tot_abs_Q>
0

> <s_epik_Chemistry_Notes>
This compound has an ester and may undergo hydrolysis at high or low pH.

$$$$
