2az9_ligand
                    3D
 Schrodinger Suite 2020-3.
 66 67  0  0  1  0            999 V2000
   15.5740   58.5820   33.2330 C   0  0  0  0  0  0
   16.7050   58.1020   33.4310 O   0  0  0  0  0  0
   15.3550   58.8660   31.9460 O   0  0  0  0  0  0
   15.6170   60.1340   31.4390 C   0  0  0  0  0  0
   16.8830   60.8280   31.3730 C   0  0  0  0  0  0
   17.8180   60.1720   30.4060 C   0  0  0  0  0  0
   19.0660   60.7600   30.2560 C   0  0  0  0  0  0
   19.3720   61.9730   31.0520 C   0  0  0  0  0  0
   18.4380   62.6350   32.0250 C   0  0  0  0  0  0
   17.1300   62.0340   32.1940 C   0  0  0  0  0  0
   14.4730   58.9200   33.8900 N   0  0  0  0  0  0
   14.2600   58.8090   35.1890 C   0  0  2  0  0  0
   13.3200   57.6450   35.5450 C   0  0  0  0  0  0
   12.0910   57.5550   35.2170 O   0  0  0  0  0  0
   13.7480   60.2410   35.4820 C   0  0  0  0  0  0
   14.0300   56.7730   36.2460 N   0  0  0  0  0  0
   13.5790   55.4990   36.8190 C   0  0  2  0  0  0
   13.9890   55.5170   38.2860 C   0  0  0  0  0  0
   15.0550   55.2180   38.8420 O   0  0  0  0  0  0
   14.0730   54.3160   35.9300 C   0  0  0  0  0  0
   13.6250   52.9860   36.4700 C   0  0  0  0  0  0
   13.6040   54.3760   34.4520 C   0  0  0  0  0  0
   12.9910   55.9290   39.0480 N   0  0  0  0  0  0
   12.9760   56.0840   40.5510 C   0  0  2  0  0  0
   11.6590   55.3810   40.8920 C   0  0  0  0  0  0
   10.4790   55.8270   40.4000 O   0  0  0  0  0  0
   13.4360   57.3960   41.0890 C   0  0  0  0  0  0
   13.7000   58.6390   40.3910 C   0  0  0  0  0  0
   12.6690   59.5670   39.8100 C   0  0  0  0  0  0
   15.0810   58.9140   40.3170 C   0  0  0  0  0  0
   13.0640   60.8350   39.1240 C   0  0  0  0  0  0
   15.5040   60.1200   39.6650 C   0  0  0  0  0  0
   14.5040   61.0810   39.0700 C   0  0  0  0  0  0
   15.3372   60.1687   30.3757 H   0  0  0  0  0  0
   15.0318   60.8800   31.9967 H   0  0  0  0  0  0
   17.5337   59.2793   29.8488 H   0  0  0  0  0  0
   19.8025   60.3408   29.5705 H   0  0  0  0  0  0
   20.3565   62.4218   30.9203 H   0  0  0  0  0  0
   18.7309   63.5270   32.5788 H   0  0  0  0  0  0
   16.3831   62.4406   32.8758 H   0  0  0  0  0  0
   13.6883   59.3297   33.2370 H   0  0  0  0  0  0
   15.2002   58.5214   35.6822 H   0  0  0  0  0  0
   14.5129   60.9724   35.1820 H   0  0  0  0  0  0
   13.5438   60.3444   36.5579 H   0  0  0  0  0  0
   12.8237   60.4232   34.9142 H   0  0  0  0  0  0
   15.0721   57.0984   36.3807 H   0  0  0  0  0  0
   12.4825   55.4108   36.8150 H   0  0  0  0  0  0
   15.1703   54.3837   35.9681 H   0  0  0  0  0  0
   13.9352   52.8938   37.5213 H   0  0  0  0  0  0
   14.0827   52.1779   35.8805 H   0  0  0  0  0  0
   12.5294   52.9134   36.4032 H   0  0  0  0  0  0
   13.9093   55.3355   34.0091 H   0  0  0  0  0  0
   12.5085   54.2852   34.4110 H   0  0  0  0  0  0
   14.0618   53.5498   33.8882 H   0  0  0  0  0  0
   12.0932   56.1727   38.4610 H   0  0  0  0  0  0
   13.7869   55.6467   41.1520 H   0  0  0  0  0  0
   11.7002   54.3375   40.5464 H   0  0  0  0  0  0
   11.5040   55.4008   41.9808 H   0  0  0  0  0  0
    9.5442   55.3074   40.6573 H   0  0  0  0  0  0
   12.7047   57.7687   41.8213 H   0  0  0  0  0  0
   14.4130   57.2694   41.5783 H   0  0  0  0  0  0
   11.6128   59.3099   39.8907 H   0  0  0  0  0  0
   15.8103   58.2263   40.7452 H   0  0  0  0  0  0
   12.3345   61.5232   38.6969 H   0  0  0  0  0  0
   16.5681   60.3465   39.5981 H   0  0  0  0  0  0
   14.8669   61.9870   38.5847 H   0  0  0  0  0  0
  1  2  2  0  0  0
  1  3  1  0  0  0
  1 11  1  0  0  0
  3  4  1  0  0  0
  4  5  1  0  0  0
  4 34  1  0  0  0
  4 35  1  0  0  0
  5  6  2  0  0  0
  5 10  1  0  0  0
  6  7  1  0  0  0
  6 36  1  0  0  0
  7  8  2  0  0  0
  7 37  1  0  0  0
  8  9  1  0  0  0
  8 38  1  0  0  0
  9 10  2  0  0  0
  9 39  1  0  0  0
 10 40  1  0  0  0
 11 12  1  0  0  0
 11 41  1  0  0  0
 12 13  1  0  0  0
 12 15  1  0  0  0
 12 42  1  0  0  0
 13 14  2  0  0  0
 13 16  1  0  0  0
 15 43  1  0  0  0
 15 44  1  0  0  0
 15 45  1  0  0  0
 16 17  1  0  0  0
 16 46  1  0  0  0
 17 18  1  0  0  0
 17 20  1  0  0  0
 17 47  1  0  0  0
 18 19  2  0  0  0
 18 23  1  0  0  0
 20 21  1  0  0  0
 20 22  1  0  0  0
 20 48  1  0  0  0
 21 49  1  0  0  0
 21 50  1  0  0  0
 21 51  1  0  0  0
 22 52  1  0  0  0
 22 53  1  0  0  0
 22 54  1  0  0  0
 23 24  1  0  0  0
 23 55  1  0  0  0
 24 25  1  0  0  0
 24 27  1  0  0  0
 24 56  1  0  0  0
 25 26  1  0  0  0
 25 57  1  0  0  0
 25 58  1  0  0  0
 26 59  1  0  0  0
 27 28  1  0  0  0
 27 60  1  0  0  0
 27 61  1  0  0  0
 28 29  2  0  0  0
 28 30  1  0  0  0
 29 31  1  0  0  0
 29 62  1  0  0  0
 30 32  2  0  0  0
 30 63  1  0  0  0
 31 33  2  0  0  0
 31 64  1  0  0  0
 32 33  1  0  0  0
 32 65  1  0  0  0
 33 66  1  0  0  0
M  END
> <s_m_source_file>
../2az9_ligand.sdf

> <i_m_source_file_index>
1

> <s_epik_input>
W2NIXTFbY0hdW2NIXVtjSF1bY0hdYzFbQ0gyXU9DKD1PKVtOSF1bQ0BASF0oW0NIM10pQyg9TylbTkhdW0NAQEhdKFtDSF0oW0NIM10pW0NIM10pQyg9TylbTkhdW0NASF0oW0NIMl1bT0hdKVtDSDJdYzJbY0hdW2NIXVtjSF1bY0hdW2NIXTI=

> <s_epik_cmdline>
J2VwaWtfYXBwJywgJy1pbWFlJywgJ2xpZ2FuZF9wcm8ubWFlJywgJy1vbWFlJywgJ2xpZ2FuZF9wcmVwLm1hZScsICctbXMnLCAnMScsICctcGgnLCAnNycsICctcGh0JywgJzAuNScsICctbnQn

> <r_lp_tautomer_probability>
1

> <r_epik_Ionization_Penalty>
  0.0000

> <r_epik_Ionization_Penalty_Charging>
  0.0000

> <r_epik_Ionization_Penalty_Neutral>
  0.0000

> <r_epik_State_Penalty>
 -0.0000

> <r_epik_Charging_Adjusted_Penalty>
0

> <i_epik_Tot_Q>
0

> <i_epik_Tot_abs_Q>
0

> <s_epik_Chemistry_Notes>
This compound has an ester and may undergo hydrolysis at high or low pH.

$$$$
