2azb_ligand
                    3D
 Schrodinger Suite 2020-3.
 66 67  0  0  1  0            999 V2000
  -26.8470   37.2260   19.4730 C   0  0  0  0  0  0
  -26.7550   38.4970   19.6010 O   0  0  0  0  0  0
  -27.1880   36.6440   18.0940 O   0  0  0  0  0  0
  -27.9010   37.4160   17.1510 C   0  0  0  0  0  0
  -29.3770   37.6270   17.4000 C   0  0  0  0  0  0
  -29.8650   38.9920   17.4440 C   0  0  0  0  0  0
  -31.2670   39.2600   17.6770 C   0  0  0  0  0  0
  -32.1800   38.1470   17.8660 C   0  0  0  0  0  0
  -31.6770   36.7670   17.8200 C   0  0  0  0  0  0
  -30.2470   36.4850   17.5820 C   0  0  0  0  0  0
  -26.7100   36.2950   20.3820 N   0  0  0  0  0  0
  -26.4330   36.5970   21.6140 C   0  0  2  0  0  0
  -24.9340   36.4930   21.9900 C   0  0  0  0  0  0
  -24.2950   35.4450   21.6920 O   0  0  0  0  0  0
  -27.3800   35.6640   22.2700 C   0  0  0  0  0  0
  -24.5090   37.5580   22.6650 N   0  0  0  0  0  0
  -23.1720   37.7500   23.2530 C   0  0  2  0  0  0
  -23.3400   37.9860   24.7700 C   0  0  0  0  0  0
  -23.7300   39.0530   25.1190 O   0  0  0  0  0  0
  -22.3990   38.8580   22.4950 C   0  0  0  0  0  0
  -21.0300   39.0390   23.0890 C   0  0  0  0  0  0
  -22.3120   38.4580   21.0360 C   0  0  0  0  0  0
  -23.0240   36.9680   25.5520 N   0  0  0  0  0  0
  -23.0060   36.7260   27.0160 C   0  0  2  0  0  0
  -21.6650   36.0700   27.3160 C   0  0  0  0  0  0
  -21.3930   34.8410   26.7420 O   0  0  0  0  0  0
  -24.1590   36.2340   27.7960 C   0  0  0  0  0  0
  -25.5180   36.2230   27.2610 C   0  0  0  0  0  0
  -26.0690   35.0290   26.5620 C   0  0  0  0  0  0
  -26.2090   37.4310   27.4880 C   0  0  0  0  0  0
  -27.4110   35.0030   26.0280 C   0  0  0  0  0  0
  -27.5480   37.3780   26.9480 C   0  0  0  0  0  0
  -28.1250   36.2200   26.2480 C   0  0  0  0  0  0
  -27.4662   38.4251   17.0994 H   0  0  0  0  0  0
  -27.8369   36.9382   16.1623 H   0  0  0  0  0  0
  -29.1713   39.8205   17.3007 H   0  0  0  0  0  0
  -31.6340   40.2858   17.7103 H   0  0  0  0  0  0
  -33.2391   38.3351   18.0421 H   0  0  0  0  0  0
  -32.3704   35.9384   17.9638 H   0  0  0  0  0  0
  -29.8649   35.4648   17.5452 H   0  0  0  0  0  0
  -26.8333   35.2422   20.0882 H   0  0  0  0  0  0
  -26.6520   37.6632   21.7732 H   0  0  0  0  0  0
  -28.3989   35.8582   21.9039 H   0  0  0  0  0  0
  -27.3470   35.8138   23.3593 H   0  0  0  0  0  0
  -27.0967   34.6277   22.0336 H   0  0  0  0  0  0
  -25.2719   38.3442   22.7650 H   0  0  0  0  0  0
  -22.5866   36.8288   23.1163 H   0  0  0  0  0  0
  -22.9011   39.8336   22.5737 H   0  0  0  0  0  0
  -21.1243   39.3284   24.1460 H   0  0  0  0  0  0
  -20.4932   39.8265   22.5397 H   0  0  0  0  0  0
  -20.4708   38.0946   23.0159 H   0  0  0  0  0  0
  -23.3263   38.3330   20.6290 H   0  0  0  0  0  0
  -21.7621   37.5094   20.9481 H   0  0  0  0  0  0
  -21.7845   39.2413   20.4719 H   0  0  0  0  0  0
  -22.7181   36.1705   24.8589 H   0  0  0  0  0  0
  -23.1933   37.7240   27.4390 H   0  0  0  0  0  0
  -20.8511   36.7272   26.9759 H   0  0  0  0  0  0
  -21.5728   35.9027   28.3993 H   0  0  0  0  0  0
  -20.4329   34.3420   26.9398 H   0  0  0  0  0  0
  -23.9968   35.1798   28.0649 H   0  0  0  0  0  0
  -24.2649   36.8339   28.7119 H   0  0  0  0  0  0
  -25.4394   34.1463   26.4497 H   0  0  0  0  0  0
  -25.7874   38.2935   28.0042 H   0  0  0  0  0  0
  -27.8351   34.1427   25.5102 H   0  0  0  0  0  0
  -28.1765   38.2604   27.0680 H   0  0  0  0  0  0
  -29.1479   36.2945   25.8791 H   0  0  0  0  0  0
  1  2  2  0  0  0
  1  3  1  0  0  0
  1 11  1  0  0  0
  3  4  1  0  0  0
  4  5  1  0  0  0
  4 34  1  0  0  0
  4 35  1  0  0  0
  5  6  2  0  0  0
  5 10  1  0  0  0
  6  7  1  0  0  0
  6 36  1  0  0  0
  7  8  2  0  0  0
  7 37  1  0  0  0
  8  9  1  0  0  0
  8 38  1  0  0  0
  9 10  2  0  0  0
  9 39  1  0  0  0
 10 40  1  0  0  0
 11 12  1  0  0  0
 11 41  1  0  0  0
 12 13  1  0  0  0
 12 15  1  0  0  0
 12 42  1  0  0  0
 13 14  2  0  0  0
 13 16  1  0  0  0
 15 43  1  0  0  0
 15 44  1  0  0  0
 15 45  1  0  0  0
 16 17  1  0  0  0
 16 46  1  0  0  0
 17 18  1  0  0  0
 17 20  1  0  0  0
 17 47  1  0  0  0
 18 19  2  0  0  0
 18 23  1  0  0  0
 20 21  1  0  0  0
 20 22  1  0  0  0
 20 48  1  0  0  0
 21 49  1  0  0  0
 21 50  1  0  0  0
 21 51  1  0  0  0
 22 52  1  0  0  0
 22 53  1  0  0  0
 22 54  1  0  0  0
 23 24  1  0  0  0
 23 55  1  0  0  0
 24 25  1  0  0  0
 24 27  1  0  0  0
 24 56  1  0  0  0
 25 26  1  0  0  0
 25 57  1  0  0  0
 25 58  1  0  0  0
 26 59  1  0  0  0
 27 28  1  0  0  0
 27 60  1  0  0  0
 27 61  1  0  0  0
 28 29  2  0  0  0
 28 30  1  0  0  0
 29 31  1  0  0  0
 29 62  1  0  0  0
 30 32  2  0  0  0
 30 63  1  0  0  0
 31 33  2  0  0  0
 31 64  1  0  0  0
 32 33  1  0  0  0
 32 65  1  0  0  0
 33 66  1  0  0  0
M  END
> <s_m_source_file>
../2azb_ligand.sdf

> <i_m_source_file_index>
1

> <s_epik_input>
W2NIXTFbY0hdW2NIXVtjSF1bY0hdYzFbQ0gyXU9DKD1PKVtOSF1bQ0BASF0oW0NIM10pQyg9TylbTkhdW0NAQEhdKFtDSF0oW0NIM10pW0NIM10pQyg9TylbTkhdW0NASF0oW0NIMl1bT0hdKVtDSDJdYzJbY0hdW2NIXVtjSF1bY0hdW2NIXTI=

> <s_epik_cmdline>
J2VwaWtfYXBwJywgJy1pbWFlJywgJ2xpZ2FuZF9wcm8ubWFlJywgJy1vbWFlJywgJ2xpZ2FuZF9wcmVwLm1hZScsICctbXMnLCAnMScsICctcGgnLCAnNycsICctcGh0JywgJzAuNScsICctbnQn

> <r_lp_tautomer_probability>
1

> <r_epik_Ionization_Penalty>
  0.0000

> <r_epik_Ionization_Penalty_Charging>
  0.0000

> <r_epik_Ionization_Penalty_Neutral>
  0.0000

> <r_epik_State_Penalty>
 -0.0000

> <r_epik_Charging_Adjusted_Penalty>
0

> <i_epik_Tot_Q>
0

> <i_epik_Tot_abs_Q>
0

> <s_epik_Chemistry_Notes>
This compound has an ester and may undergo hydrolysis at high or low pH.

$$$$
