2azm_ligand
                    3D
 Schrodinger Suite 2020-3.
 80 80  0  0  1  0            999 V2000
   38.9600   86.8870   98.7730 N   0  3  0  0  0  0
   40.1370   86.6910   97.8820 C   0  0  2  0  0  0
   40.1350   85.3090   97.2150 C   0  0  0  0  0  0
   39.5900   84.3310   97.7620 O   0  0  0  0  0  0
   41.4270   86.9080   98.6520 C   0  0  0  0  0  0
   40.7430   85.2430   96.0340 N   0  0  0  0  0  0
   40.8910   83.9940   95.2940 C   0  0  1  0  0  0
   41.5250   84.2450   93.9260 C   0  0  0  0  0  0
   40.6100   84.8830   93.0690 O   0  0  0  0  0  0
   41.7170   82.9620   96.0510 C   0  0  0  0  0  0
   42.8060   83.2470   96.5450 O   0  0  0  0  0  0
   41.3810   85.6860   91.9300 P   0  0  0  0  0  0
   42.3830   84.6970   91.1690 O   0  0  0  0  0  0
   42.2750   86.9160   92.4750 O   0  5  0  0  0  0
   40.2220   86.2500   90.9790 O   0  5  0  0  0  0
   41.1720   81.7580   96.1080 N   0  0  0  0  0  0
   41.7870   80.6420   96.7780 C   0  0  2  0  0  0
   43.1350   80.2600   96.1660 C   0  0  0  0  0  0
   43.2500   80.1080   94.9470 O   0  0  0  0  0  0
   40.8460   79.4520   96.6880 C   0  0  0  0  0  0
   41.2700   78.2970   97.5500 C   0  0  0  0  0  0
   40.4070   78.1640   98.7660 C   0  0  0  0  0  0
   39.1750   78.0460   98.6630 O   0  0  0  0  0  0
   41.0390   78.1740   99.9330 N   0  0  0  0  0  0
   44.1470   80.1200   97.0200 N   0  0  0  0  0  0
   45.4390   79.5580   96.6210 C   0  0  2  0  0  0
   45.4850   78.0850   96.9880 C   0  0  0  0  0  0
   44.9250   77.6770   98.0000 O   0  0  0  0  0  0
   46.5890   80.2860   97.2990 C   0  0  0  0  0  0
   46.6910   81.7400   96.9320 C   0  0  0  0  0  0
   47.9170   82.4050   97.5300 C   0  0  0  0  0  0
   49.0160   81.8010   97.4870 O   0  5  0  0  0  0
   47.7780   83.5430   98.0330 O   0  0  0  0  0  0
   46.1590   77.2880   96.1730 N   0  0  0  0  0  0
   46.1900   75.8450   96.4000 C   0  0  2  0  0  0
   47.5990   75.3020   96.6570 C   0  0  0  0  0  0
   47.7560   74.2000   97.1930 O   0  5  0  0  0  0
   45.4800   75.1060   95.2550 C   0  0  0  0  0  0
   44.0030   75.4420   95.1690 C   0  0  0  0  0  0
   43.5510   76.4840   94.3570 C   0  0  0  0  0  0
   43.0600   74.7400   95.9210 C   0  0  0  0  0  0
   42.1950   76.8050   94.2820 C   0  0  0  0  0  0
   41.7080   75.0480   95.8550 C   0  0  0  0  0  0
   41.2830   76.0740   95.0280 C   0  0  0  0  0  0
   39.9470   76.3920   94.9550 O   0  0  0  0  0  0
   48.6110   75.9410   96.3630 O   0  0  0  0  0  0
   38.0352   86.7261   98.1995 H   0  0  0  0  0  0
   38.9697   87.9115   99.1733 H   0  0  0  0  0  0
   39.0057   86.1681   99.6043 H   0  0  0  0  0  0
   40.0493   87.4564   97.0968 H   0  0  0  0  0  0
   41.4104   87.9022   99.1225 H   0  0  0  0  0  0
   42.2812   86.8431   97.9620 H   0  0  0  0  0  0
   41.5242   86.1360   99.4295 H   0  0  0  0  0  0
   41.1425   86.1796   95.6177 H   0  0  0  0  0  0
   39.8594   83.6260   95.1926 H   0  0  0  0  0  0
   42.4108   84.8864   94.0445 H   0  0  0  0  0  0
   41.8243   83.2855   93.4789 H   0  0  0  0  0  0
   40.1995   81.6323   95.6095 H   0  0  0  0  0  0
   41.9436   80.9854   97.8112 H   0  0  0  0  0  0
   39.8391   79.7556   97.0104 H   0  0  0  0  0  0
   40.8058   79.0941   95.6486 H   0  0  0  0  0  0
   41.1992   77.3633   96.9727 H   0  0  0  0  0  0
   42.3089   78.4469   97.8788 H   0  0  0  0  0  0
   42.1333   78.2815   99.9650 H   0  0  0  0  0  0
   40.4685   78.0748  100.8683 H   0  0  0  0  0  0
   43.9856   80.4447   98.0585 H   0  0  0  0  0  0
   45.5114   79.6960   95.5321 H   0  0  0  0  0  0
   46.4631   80.2341   98.3905 H   0  0  0  0  0  0
   47.5405   79.8117   97.0167 H   0  0  0  0  0  0
   46.7516   81.8387   95.8381 H   0  0  0  0  0  0
   45.8025   82.2742   97.2996 H   0  0  0  0  0  0
   46.6989   77.7221   95.3185 H   0  0  0  0  0  0
   45.6290   75.7098   97.3365 H   0  0  0  0  0  0
   45.9448   75.3816   94.2969 H   0  0  0  0  0  0
   45.5704   74.0204   95.4075 H   0  0  0  0  0  0
   44.2700   77.0569   93.7713 H   0  0  0  0  0  0
   43.3920   73.9328   96.5739 H   0  0  0  0  0  0
   41.8565   77.6214   93.6440 H   0  0  0  0  0  0
   40.9869   74.4868   96.4493 H   0  0  0  0  0  0
   39.6108   77.2073   94.2976 H   0  0  0  0  0  0
  1  2  1  0  0  0
  1 47  1  0  0  0
  1 48  1  0  0  0
  1 49  1  0  0  0
  2  3  1  0  0  0
  2  5  1  0  0  0
  2 50  1  0  0  0
  3  4  2  0  0  0
  3  6  1  0  0  0
  5 51  1  0  0  0
  5 52  1  0  0  0
  5 53  1  0  0  0
  6  7  1  0  0  0
  6 54  1  0  0  0
  7  8  1  0  0  0
  7 10  1  0  0  0
  7 55  1  0  0  0
  8  9  1  0  0  0
  8 56  1  0  0  0
  8 57  1  0  0  0
  9 12  1  0  0  0
 10 11  2  0  0  0
 10 16  1  0  0  0
 12 13  2  0  0  0
 12 14  1  0  0  0
 12 15  1  0  0  0
 16 17  1  0  0  0
 16 58  1  0  0  0
 17 18  1  0  0  0
 17 20  1  0  0  0
 17 59  1  0  0  0
 18 19  2  0  0  0
 18 25  1  0  0  0
 20 21  1  0  0  0
 20 60  1  0  0  0
 20 61  1  0  0  0
 21 22  1  0  0  0
 21 62  1  0  0  0
 21 63  1  0  0  0
 22 23  2  0  0  0
 22 24  1  0  0  0
 24 64  1  0  0  0
 24 65  1  0  0  0
 25 26  1  0  0  0
 25 66  1  0  0  0
 26 27  1  0  0  0
 26 29  1  0  0  0
 26 67  1  0  0  0
 27 28  2  0  0  0
 27 34  1  0  0  0
 29 30  1  0  0  0
 29 68  1  0  0  0
 29 69  1  0  0  0
 30 31  1  0  0  0
 30 70  1  0  0  0
 30 71  1  0  0  0
 31 32  1  0  0  0
 31 33  2  0  0  0
 34 35  1  0  0  0
 34 72  1  0  0  0
 35 36  1  0  0  0
 35 38  1  0  0  0
 35 73  1  0  0  0
 36 37  1  0  0  0
 36 46  2  0  0  0
 38 39  1  0  0  0
 38 74  1  0  0  0
 38 75  1  0  0  0
 39 40  2  0  0  0
 39 41  1  0  0  0
 40 42  1  0  0  0
 40 76  1  0  0  0
 41 43  2  0  0  0
 41 77  1  0  0  0
 42 44  2  0  0  0
 42 78  1  0  0  0
 43 44  1  0  0  0
 43 79  1  0  0  0
 44 45  1  0  0  0
 45 80  1  0  0  0
M  CHG  5   1   1  14  -1  15  -1  32  -1  37  -1
M  END
> <s_m_source_file>
../2azm_ligand.sdf

> <i_m_source_file_index>
1

> <s_epik_input>
W05IMytdW0NAQEhdKFtDSDNdKUMoPU8pW05IXVtDQEBIXShbQ0gyXU9QKD1PKShbT0hdKVtPSF0pQyg9TylbTkhdW0NAQEhdKFtDSDJdW0NIMl1DKD1PKVtOSDJdKUMoPU8pW05IXVtDQEBIXShbQ0gyXVtDSDJdQyg9TylbT0hdKUMoPU8pW05IXVtDQEhdKEMoPU8pW09IXSlbQ0gyXWMxW2NIXVtjSF1jKFtPSF0pW2NIXVtjSF0x

> <s_epik_cmdline>
J2VwaWtfYXBwJywgJy1pbWFlJywgJ2xpZ2FuZF9wcm8ubWFlJywgJy1vbWFlJywgJ2xpZ2FuZF9wcmVwLm1hZScsICctbXMnLCAnMScsICctcGgnLCAnNycsICctcGh0JywgJzAuNScsICctbnQn

> <r_lp_tautomer_probability>
0.999999999997365

> <r_epik_Ionization_Penalty>
  0.2291

> <r_epik_Ionization_Penalty_Charging>
  0.2284

> <r_epik_Ionization_Penalty_Neutral>
  0.0006

> <r_epik_State_Penalty>
  0.1920

> <r_epik_Charging_Adjusted_Penalty>
0.420391796938032

> <i_epik_Tot_Q>
-3

> <i_epik_Tot_abs_Q>
5

$$$$
