2b07_ligand
                    3D
 Schrodinger Suite 2020-3.
 59 63  0  0  1  0            999 V2000
   44.3620   14.1180    0.5200 S   0  0  0  0  0  0
   44.6830   15.3340    1.6850 C   0  0  0  0  0  0
   45.5910   14.9690    2.6490 C   0  0  0  0  0  0
   46.0140   13.6290    2.4370 C   0  0  0  0  0  0
   45.4390   13.0490    1.3430 C   0  0  0  0  0  0
   43.9670   16.7160    1.5230 C   0  0  0  0  0  0
   44.0370   17.5620    2.4670 O   0  5  0  0  0  0
   43.3800   16.8410    0.4120 O   0  0  0  0  0  0
   46.0220   15.7410    3.6790 O   0  0  0  0  0  0
   47.2680   16.4150    3.4510 C   0  0  0  0  0  0
   47.5720   17.1990    4.7270 C   0  0  0  0  0  0
   46.6960   17.1600    5.6320 O   0  5  0  0  0  0
   48.6730   17.7860    4.7440 O   0  0  0  0  0  0
   47.1170   12.5550    3.2310 S   0  0  0  0  0  0
   46.7620   11.3250    2.0640 C   0  0  0  0  0  0
   45.8400   11.7110    1.0930 C   0  0  0  0  0  0
   47.3100   10.0270    2.0140 C   0  0  0  0  0  0
   46.9340    9.1100    1.0050 C   0  0  0  0  0  0
   46.0130    9.5230    0.0360 C   0  0  0  0  0  0
   45.4590   10.8140    0.0650 C   0  0  0  0  0  0
   47.5160    7.8510    1.0300 N   0  0  0  0  0  0
   48.5720    7.4510    1.9440 C   0  0  0  0  0  0
   47.9410    6.9520    3.2650 C   0  0  0  0  0  0
   49.0190    6.4840    4.2370 C   0  0  0  0  0  0
   49.8400    5.4300    3.5400 N   0  0  1  0  0  0
   50.5370    5.9320    2.2970 C   0  0  0  0  0  0
   49.4680    6.3810    1.3030 C   0  0  0  0  0  0
   50.6720    4.2940    4.5480 S   0  0  0  0  0  0
   49.6580    2.8300    4.3100 C   0  0  0  0  0  0
   49.3150    2.6740    2.8490 C   0  0  0  0  0  0
   48.0250    2.9940    2.3820 C   0  0  0  0  0  0
   47.6950    2.8550    1.0240 C   0  0  0  0  0  0
   48.6570    2.3980    0.1190 C   0  0  0  0  0  0
   49.9480    2.0760    0.5670 C   0  0  0  0  0  0
   50.2760    2.2120    1.9250 C   0  0  0  0  0  0
   50.5680    4.7260    5.9280 O   0  0  0  0  0  0
   51.9810    4.0690    3.9540 O   0  0  0  0  0  0
   48.0542   15.6732    3.2469 H   0  0  0  0  0  0
   47.1675   17.0895    2.5879 H   0  0  0  0  0  0
   48.0373    9.7244    2.7673 H   0  0  0  0  0  0
   45.7204    8.8318   -0.7544 H   0  0  0  0  0  0
   44.7427   11.1224   -0.6965 H   0  0  0  0  0  0
   47.1254    7.1337    0.2931 H   0  0  0  0  0  0
   49.1801    8.3498    2.1239 H   0  0  0  0  0  0
   47.3733    7.7702    3.7322 H   0  0  0  0  0  0
   47.2647    6.1106    3.0535 H   0  0  0  0  0  0
   49.6531    7.3372    4.5198 H   0  0  0  0  0  0
   48.5447    6.0656    5.1370 H   0  0  0  0  0  0
   51.1902    6.7774    2.5590 H   0  0  0  0  0  0
   51.1418    5.1220    1.8633 H   0  0  0  0  0  0
   48.8551    5.5144    1.0143 H   0  0  0  0  0  0
   49.9563    6.7985    0.4101 H   0  0  0  0  0  0
   50.2111    1.9418    4.6494 H   0  0  0  0  0  0
   48.7297    2.9284    4.8918 H   0  0  0  0  0  0
   47.2730    3.3543    3.0840 H   0  0  0  0  0  0
   46.6919    3.1027    0.6770 H   0  0  0  0  0  0
   48.4046    2.2914   -0.9360 H   0  0  0  0  0  0
   50.6966    1.7199   -0.1407 H   0  0  0  0  0  0
   51.2793    1.9591    2.2678 H   0  0  0  0  0  0
  1  2  1  0  0  0
  1  5  1  0  0  0
  2  3  2  0  0  0
  2  6  1  0  0  0
  3  4  1  0  0  0
  3  9  1  0  0  0
  4  5  2  0  0  0
  4 14  1  0  0  0
  5 16  1  0  0  0
  6  7  1  0  0  0
  6  8  2  0  0  0
  9 10  1  0  0  0
 10 11  1  0  0  0
 10 38  1  0  0  0
 10 39  1  0  0  0
 11 12  1  0  0  0
 11 13  2  0  0  0
 14 15  1  0  0  0
 15 16  2  0  0  0
 15 17  1  0  0  0
 16 20  1  0  0  0
 17 18  2  0  0  0
 17 40  1  0  0  0
 18 19  1  0  0  0
 18 21  1  0  0  0
 19 20  2  0  0  0
 19 41  1  0  0  0
 20 42  1  0  0  0
 21 22  1  0  0  0
 21 43  1  0  0  0
 22 23  1  0  0  0
 22 27  1  0  0  0
 22 44  1  0  0  0
 23 24  1  0  0  0
 23 45  1  0  0  0
 23 46  1  0  0  0
 24 25  1  0  0  0
 24 47  1  0  0  0
 24 48  1  0  0  0
 25 26  1  0  0  0
 25 28  1  0  0  0
 26 27  1  0  0  0
 26 49  1  0  0  0
 26 50  1  0  0  0
 27 51  1  0  0  0
 27 52  1  0  0  0
 28 29  1  0  0  0
 28 36  2  0  0  0
 28 37  2  0  0  0
 29 30  1  0  0  0
 29 53  1  0  0  0
 29 54  1  0  0  0
 30 31  2  0  0  0
 30 35  1  0  0  0
 31 32  1  0  0  0
 31 55  1  0  0  0
 32 33  2  0  0  0
 32 56  1  0  0  0
 33 34  1  0  0  0
 33 57  1  0  0  0
 34 35  2  0  0  0
 34 58  1  0  0  0
 35 59  1  0  0  0
M  CHG  2   7  -1  12  -1
M  END
> <s_m_source_file>
../2b07_ligand.sdf

> <i_m_source_file_index>
1

> <s_epik_input>
W09IXUMoPU8pW0NIMl1PYzFjKEMoPU8pW09IXSlzYyhjMTIpYzNjKHMyKVtjSF1jKFtjSF1bY0hdMylbTkhdW0NIXTRbQ0gyXVtDSDJdTihbQ0gyXVtDSDJdNClTKD1PKSg9TylbQ0gyXWM1W2NIXVtjSF1bY0hdW2NIXVtjSF01

> <s_epik_cmdline>
J2VwaWtfYXBwJywgJy1pbWFlJywgJ2xpZ2FuZF9wcm8ubWFlJywgJy1vbWFlJywgJ2xpZ2FuZF9wcmVwLm1hZScsICctbXMnLCAnMScsICctcGgnLCAnNycsICctcGh0JywgJzAuNScsICctbnQn

> <r_lp_tautomer_probability>
1

> <r_epik_Ionization_Penalty>
  0.0013

> <r_epik_Ionization_Penalty_Charging>
  0.0003

> <r_epik_Ionization_Penalty_Neutral>
  0.0010

> <r_epik_State_Penalty>
 -0.0000

> <r_epik_Charging_Adjusted_Penalty>
0.000334635979225205

> <i_epik_Tot_Q>
-2

> <i_epik_Tot_abs_Q>
2

$$$$
