2b17_ligand
                    3D
 Schrodinger Suite 2020-3.
 29 30  0  0  1  0            999 V2000
   46.0450   30.9760    8.1150 C   0  0  0  0  0  0
   47.2610   31.5090    7.6630 C   0  0  0  0  0  0
   48.4390   31.4850    8.9130 Cl  0  0  0  0  0  0
   47.6170   32.0470    6.2880 C   0  0  0  0  0  0
   46.4100   31.9200    5.4760 C   0  0  0  0  0  0
   46.7450   32.5270    3.8490 Cl  0  0  0  0  0  0
   45.2040   31.3760    5.9730 C   0  0  0  0  0  0
   44.9990   30.9120    7.2720 C   0  0  0  0  0  0
   48.7070   32.6310    5.5770 N   0  0  0  0  0  0
   50.7180   34.1630    5.1120 C   0  0  0  0  0  0
   49.6120   33.6010    5.9490 C   0  0  0  0  0  0
   49.5030   34.1340    7.2060 C   0  0  0  0  0  0
   50.4010   35.1210    7.6220 C   0  0  0  0  0  0
   51.4420   35.6340    6.8260 C   0  0  0  0  0  0
   51.5960   35.1450    5.5640 C   0  0  0  0  0  0
   50.9140   33.8470    3.7240 C   0  0  0  0  0  0
   52.0730   33.7410    2.8890 C   0  0  0  0  0  0
   52.7050   34.8160    2.7790 O   0  0  0  0  0  0
   52.2530   32.5980    2.4000 O   0  5  0  0  0  0
   45.9486   30.6171    9.1397 H   0  0  0  0  0  0
   44.3629   31.3139    5.2825 H   0  0  0  0  0  0
   44.0347   30.5154    7.5897 H   0  0  0  0  0  0
   48.9306   32.3066    4.5500 H   0  0  0  0  0  0
   48.7185   33.7896    7.8798 H   0  0  0  0  0  0
   50.2874   35.5199    8.6300 H   0  0  0  0  0  0
   52.1097   36.4050    7.2105 H   0  0  0  0  0  0
   52.3926   35.5159    4.9191 H   0  0  0  0  0  0
   50.5223   32.8399    3.5184 H   0  0  0  0  0  0
   50.3816   34.5816    3.1020 H   0  0  0  0  0  0
  1  2  2  0  0  0
  1  8  1  0  0  0
  1 20  1  0  0  0
  2  3  1  0  0  0
  2  4  1  0  0  0
  4  5  2  0  0  0
  4  9  1  0  0  0
  5  6  1  0  0  0
  5  7  1  0  0  0
  7  8  2  0  0  0
  7 21  1  0  0  0
  8 22  1  0  0  0
  9 11  1  0  0  0
  9 23  1  0  0  0
 10 11  2  0  0  0
 10 15  1  0  0  0
 10 16  1  0  0  0
 11 12  1  0  0  0
 12 13  2  0  0  0
 12 24  1  0  0  0
 13 14  1  0  0  0
 13 25  1  0  0  0
 14 15  2  0  0  0
 14 26  1  0  0  0
 15 27  1  0  0  0
 16 17  1  0  0  0
 16 28  1  0  0  0
 16 29  1  0  0  0
 17 18  2  0  0  0
 17 19  1  0  0  0
M  CHG  1  19  -1
M  END
> <s_m_source_file>
../2b17_ligand.sdf

> <i_m_source_file_index>
1

> <s_epik_input>
Q2xjMVtjSF1bY0hdW2NIXWMoQ2wpYzFbTkhdYyhjMltDSDJdQyg9TylbT0hdKVtjSF1bY0hdW2NIXVtjSF0y

> <s_epik_cmdline>
J2VwaWtfYXBwJywgJy1pbWFlJywgJ2xpZ2FuZF9wcm8ubWFlJywgJy1vbWFlJywgJ2xpZ2FuZF9wcmVwLm1hZScsICctbXMnLCAnMScsICctcGgnLCAnNycsICctcGh0JywgJzAuNScsICctbnQn

> <r_lp_tautomer_probability>
1

> <r_epik_Ionization_Penalty>
  0.0022

> <r_epik_Ionization_Penalty_Charging>
  0.0022

> <r_epik_Ionization_Penalty_Neutral>
  0.0000

> <r_epik_State_Penalty>
 -0.0000

> <r_epik_Charging_Adjusted_Penalty>
0.00220440833793221

> <i_epik_Tot_Q>
-1

> <i_epik_Tot_abs_Q>
1

$$$$
