2b1p_ligand
                    3D
 Schrodinger Suite 2020-3.
 60 63  0  0  1  0            999 V2000
   45.7220    6.4840   32.0660 C   0  0  0  0  0  0
   45.6460    7.9320   32.2730 C   0  0  0  0  0  0
   46.8300    5.6890   31.4860 C   0  0  0  0  0  0
   44.6280    5.9480   32.5600 N   0  0  0  0  0  0
   44.3930    8.1450   32.8870 C   0  0  0  0  0  0
   46.4620    9.0510   31.9890 C   0  0  0  0  0  0
   46.9660    4.3850   31.9290 C   0  0  0  0  0  0
   47.7210    6.2260   30.5690 C   0  0  0  0  0  0
   43.7890    6.9330   33.0530 N   0  0  0  0  0  0
   44.0000    9.4390   33.2040 C   0  0  0  0  0  0
   46.0470   10.3240   32.3210 C   0  0  0  0  0  0
   47.9790    3.5700   31.4590 C   0  0  0  0  0  0
   48.7570    5.4230   30.0860 C   0  0  0  0  0  0
   44.7990   10.5270   32.9300 C   0  0  3  0  0  0
   48.8740    4.0930   30.5230 C   0  0  0  0  0  0
   47.9960    2.2470   31.9700 N   0  0  0  0  0  0
   49.6970    6.0200   29.1120 C   0  0  0  0  0  0
   44.3980   11.8100   33.2990 N   0  0  0  0  0  0
   49.0820    1.4400   32.1310 C   0  0  0  0  0  0
   49.4940    7.1480   28.7070 O   0  0  0  0  0  0
   43.6260   12.0370   34.4410 C   0  0  0  0  0  0
   48.8880    0.0440   32.7070 C   0  0  0  0  0  0
   50.1890    1.8470   31.8120 O   0  0  0  0  0  0
   42.7140   13.0760   34.3970 C   0  0  0  0  0  0
   43.7280   11.2290   35.5920 C   0  0  0  0  0  0
   49.9380   -0.9740   32.2210 C   0  0  0  0  0  0
   41.8940   13.3420   35.4870 C   0  0  0  0  0  0
   42.6150   14.0580   32.9770 Cl  0  0  0  0  0  0
   42.9070   11.4940   36.6730 C   0  0  0  0  0  0
   50.0290   -2.1980   33.1690 C   0  0  0  0  0  0
   41.9760   12.5380   36.6210 C   0  0  0  0  0  0
   51.2860   -2.9830   33.0080 N   0  3  0  0  0  0
   51.7120   -3.4410   34.3450 C   0  0  0  0  0  0
   50.9810   -4.2090   32.2370 C   0  0  0  0  0  0
   50.7790    5.3300   28.6630 O   0  5  0  0  0  0
   47.4352    8.9000   31.4990 H   0  0  0  0  0  0
   46.2612    3.9931   32.6623 H   0  0  0  0  0  0
   47.6148    7.2568   30.2310 H   0  0  0  0  0  0
   43.0276    9.6158   33.6870 H   0  0  0  0  0  0
   46.6954   11.1868   32.1086 H   0  0  0  0  0  0
   49.6710    3.4631   30.1278 H   0  0  0  0  0  0
   47.0581    1.7679   32.2873 H   0  0  0  0  0  0
   44.6893   12.6751   32.6852 H   0  0  0  0  0  0
   48.9552    0.0874   33.8041 H   0  0  0  0  0  0
   47.8990   -0.3389   32.4151 H   0  0  0  0  0  0
   44.4434   10.4075   35.6293 H   0  0  0  0  0  0
   49.6645   -1.3320   31.2175 H   0  0  0  0  0  0
   50.9258   -0.4915   32.1816 H   0  0  0  0  0  0
   41.1912   14.1746   35.4545 H   0  0  0  0  0  0
   42.9856   10.8846   37.5733 H   0  0  0  0  0  0
   49.9857   -1.8566   34.2138 H   0  0  0  0  0  0
   49.1881   -2.8788   32.9706 H   0  0  0  0  0  0
   41.3152   12.7216   37.4682 H   0  0  0  0  0  0
   52.0569   -2.3729   32.5146 H   0  0  0  0  0  0
   51.9547   -2.5696   34.9710 H   0  0  0  0  0  0
   52.6011   -4.0812   34.2472 H   0  0  0  0  0  0
   50.8977   -4.0134   34.8132 H   0  0  0  0  0  0
   50.6552   -3.9330   31.2233 H   0  0  0  0  0  0
   50.1789   -4.7686   32.7404 H   0  0  0  0  0  0
   51.8823   -4.8365   32.1744 H   0  0  0  0  0  0
  1  2  2  0  0  0
  1  3  1  0  0  0
  1  4  1  0  0  0
  2  5  1  0  0  0
  2  6  1  0  0  0
  3  7  2  0  0  0
  3  8  1  0  0  0
  4  9  2  0  0  0
  5  9  1  0  0  0
  5 10  2  0  0  0
  6 11  2  0  0  0
  6 36  1  0  0  0
  7 12  1  0  0  0
  7 37  1  0  0  0
  8 13  2  0  0  0
  8 38  1  0  0  0
 10 14  1  0  0  0
 10 39  1  0  0  0
 11 14  1  0  0  0
 11 40  1  0  0  0
 12 15  2  0  0  0
 12 16  1  0  0  0
 13 15  1  0  0  0
 13 17  1  0  0  0
 14 18  1  0  0  0
 15 41  1  0  0  0
 16 19  1  0  0  0
 16 42  1  0  0  0
 17 20  2  0  0  0
 17 35  1  0  0  0
 18 21  1  0  0  0
 18 43  1  0  0  0
 19 22  1  0  0  0
 19 23  2  0  0  0
 21 24  2  0  0  0
 21 25  1  0  0  0
 22 26  1  0  0  0
 22 44  1  0  0  0
 22 45  1  0  0  0
 24 27  1  0  0  0
 24 28  1  0  0  0
 25 29  2  0  0  0
 25 46  1  0  0  0
 26 30  1  0  0  0
 26 47  1  0  0  0
 26 48  1  0  0  0
 27 31  2  0  0  0
 27 49  1  0  0  0
 29 31  1  0  0  0
 29 50  1  0  0  0
 30 32  1  0  0  0
 30 51  1  0  0  0
 30 52  1  0  0  0
 31 53  1  0  0  0
 32 33  1  0  0  0
 32 34  1  0  0  0
 32 54  1  0  0  0
 33 55  1  0  0  0
 33 56  1  0  0  0
 33 57  1  0  0  0
 34 58  1  0  0  0
 34 59  1  0  0  0
 34 60  1  0  0  0
M  CHG  2  32   1  35  -1
M  END
> <s_m_source_file>
../2b1p_ligand.sdf

> <i_m_source_file_index>
1

> <s_epik_input>
W0NIM11bTkgrXShbQ0gzXSlbQ0gyXVtDSDJdW0NIMl1DKD1PKVtOSF1jKFtjSF1jKFtjSF0xKUMoPU8pW09IXSlbY0hdYzFDPTJOPU5DKEMyMyk9W0NIXVtDSF0oW0NIXT1bQ0hdMylbTkhdYzRjKENsKVtjSF1bY0hdW2NIXVtjSF00

> <s_epik_cmdline>
J2VwaWtfYXBwJywgJy1pbWFlJywgJ2xpZ2FuZF9wcm8ubWFlJywgJy1vbWFlJywgJ2xpZ2FuZF9wcmVwLm1hZScsICctbXMnLCAnMScsICctcGgnLCAnNycsICctcGh0JywgJzAuNScsICctbnQn

> <r_lp_tautomer_probability>
1

> <r_epik_Ionization_Penalty>
  0.0033

> <r_epik_Ionization_Penalty_Charging>
  0.0032

> <r_epik_Ionization_Penalty_Neutral>
  0.0000

> <r_epik_State_Penalty>
 -0.0000

> <r_epik_Charging_Adjusted_Penalty>
0.00324769176967453

> <i_epik_Tot_Q>
0

> <i_epik_Tot_abs_Q>
2

$$$$
