2b1q_ligand
                    3D
 Schrodinger Suite 2020-3.
 45 46  0  0  1  0            999 V2000
   45.7210    1.4390   95.4410 C   0  0  1  0  0  0
   44.8050    1.7230   94.2200 C   0  0  1  0  0  0
   45.1410    0.6560   93.1350 C   0  0  2  0  0  0
   46.6210    0.8970   92.7430 C   0  0  1  0  0  0
   47.5470    0.6710   93.9890 C   0  0  1  0  0  0
   49.0150    0.9020   93.7600 C   0  0  0  0  0  0
   45.3590    0.1600   95.8730 O   0  0  0  0  0  0
   43.4830    1.5880   94.6420 O   0  0  0  0  0  0
   44.3320    0.8730   92.0230 O   0  0  0  0  0  0
   47.0540   -0.0010   91.7860 O   0  0  0  0  0  0
   47.1670    1.5390   95.0760 O   0  0  0  0  0  0
   49.1670    2.1530   93.0900 O   0  0  0  0  0  0
   45.9820   -0.4870   96.9840 C   0  0  2  0  0  0
   45.9320   -1.8380   97.7020 C   0  0  1  0  0  0
   44.4770   -1.9430   98.3430 C   0  0  2  0  0  0
   44.4250   -0.8410   99.4200 C   0  0  1  0  0  0
   44.5890    0.5730   98.7230 C   0  0  1  0  0  0
   44.5850    1.6960   99.7440 C   0  0  0  0  0  0
   46.0470   -2.7960   96.7240 O   0  0  0  0  0  0
   44.3390   -3.1600   98.9980 O   0  0  0  0  0  0
   43.1740   -0.8420  100.0820 O   0  0  0  0  0  0
   45.8560    0.5680   98.0210 O   0  0  0  0  0  0
   45.7530    1.5770  100.5310 O   0  0  0  0  0  0
   45.5953    2.1087   96.3045 H   0  0  0  0  0  0
   44.8535    2.7518   93.8337 H   0  0  0  0  0  0
   44.9131   -0.3817   93.4201 H   0  0  0  0  0  0
   46.7080    1.8782   92.2535 H   0  0  0  0  0  0
   47.4188   -0.3775   94.2960 H   0  0  0  0  0  0
   49.5380    0.9239   94.7275 H   0  0  0  0  0  0
   49.4221    0.0886   93.1415 H   0  0  0  0  0  0
   43.0786    2.2650   95.4088 H   0  0  0  0  0  0
   43.2418    0.7502   92.1036 H   0  0  0  0  0  0
   46.5579   -0.0412   90.8050 H   0  0  0  0  0  0
   50.1708    2.5166   92.8251 H   0  0  0  0  0  0
   46.7924   -0.8430   96.3309 H   0  0  0  0  0  0
   46.7711   -2.0253   98.3882 H   0  0  0  0  0  0
   43.6440   -1.9364   97.6246 H   0  0  0  0  0  0
   45.1592   -1.0616  100.2088 H   0  0  0  0  0  0
   43.7966    0.7864   97.9905 H   0  0  0  0  0  0
   44.5756    2.6649   99.2233 H   0  0  0  0  0  0
   43.6901    1.6118  100.3782 H   0  0  0  0  0  0
   46.9835   -2.8914   96.1550 H   0  0  0  0  0  0
   44.3470   -4.0979   98.4233 H   0  0  0  0  0  0
   42.8473   -1.7324  100.6391 H   0  0  0  0  0  0
   45.9481    2.2983  101.3383 H   0  0  0  0  0  0
  1  2  1  0  0  0
  1  7  1  0  0  0
  1 11  1  0  0  0
  1 24  1  0  0  0
  2  3  1  0  0  0
  2  8  1  0  0  0
  2 25  1  0  0  0
  3  4  1  0  0  0
  3  9  1  0  0  0
  3 26  1  0  0  0
  4  5  1  0  0  0
  4 10  1  0  0  0
  4 27  1  0  0  0
  5  6  1  0  0  0
  5 11  1  0  0  0
  5 28  1  0  0  0
  6 12  1  0  0  0
  6 29  1  0  0  0
  6 30  1  0  0  0
  7 13  1  0  0  0
  8 31  1  0  0  0
  9 32  1  0  0  0
 10 33  1  0  0  0
 12 34  1  0  0  0
 13 14  1  0  0  0
 13 22  1  0  0  0
 13 35  1  0  0  0
 14 15  1  0  0  0
 14 19  1  0  0  0
 14 36  1  0  0  0
 15 16  1  0  0  0
 15 20  1  0  0  0
 15 37  1  0  0  0
 16 17  1  0  0  0
 16 21  1  0  0  0
 16 38  1  0  0  0
 17 18  1  0  0  0
 17 22  1  0  0  0
 17 39  1  0  0  0
 18 23  1  0  0  0
 18 40  1  0  0  0
 18 41  1  0  0  0
 19 42  1  0  0  0
 20 43  1  0  0  0
 21 44  1  0  0  0
 23 45  1  0  0  0
M  END
> <s_m_source_file>
../2b1q_ligand.sdf

> <i_m_source_file_index>
1

> <s_epik_input>
W09IXVtDSDJdW0NAQEhdKE8xKVtDQEBIXShbT0hdKVtDQEhdKFtPSF0pW0NAQEhdKFtPSF0pW0NASF0xT1tDQEBIXTJbQ0BIXShbT0hdKVtDQEBIXShbT0hdKVtDQEhdKFtPSF0pW0NASF0oTzIpW0NIMl1bT0hd

> <s_epik_cmdline>
J2VwaWtfYXBwJywgJy1pbWFlJywgJ2xpZ2FuZF9wcm8ubWFlJywgJy1vbWFlJywgJ2xpZ2FuZF9wcmVwLm1hZScsICctbXMnLCAnMScsICctcGgnLCAnNycsICctcGh0JywgJzAuNScsICctbnQn

> <r_lp_tautomer_probability>
1

> <r_epik_Ionization_Penalty>
  0.0000

> <r_epik_Ionization_Penalty_Charging>
  0.0000

> <r_epik_Ionization_Penalty_Neutral>
  0.0000

> <r_epik_State_Penalty>
 -0.0000

> <r_epik_Charging_Adjusted_Penalty>
0

> <i_epik_Tot_Q>
0

> <i_epik_Tot_abs_Q>
0

> <s_epik_Chemistry_Notes>
This compound contains an acetal/aminal-like group ( X-CH(R)-Y where X, Y are N, S, or O) that may be acid/base labile, releasing an aldehyde.

$$$$
