2b1r_ligand
                    3D
 Schrodinger Suite 2020-3.
 45 46  0  0  1  0            999 V2000
   45.7290    1.5490   95.4550 C   0  0  1  0  0  0
   44.8060    1.8090   94.2280 C   0  0  1  0  0  0
   45.1740    0.7740   93.1490 C   0  0  2  0  0  0
   46.6390    0.9740   92.7770 C   0  0  1  0  0  0
   47.5290    0.7800   94.0210 C   0  0  1  0  0  0
   49.0070    1.0060   93.7360 C   0  0  0  0  0  0
   43.4360    1.6480   94.6050 O   0  0  0  0  0  0
   44.3470    0.9780   92.0030 O   0  0  0  0  0  0
   47.0230    0.0310   91.7920 O   0  0  0  0  0  0
   47.1380    1.6990   95.0830 O   0  0  0  0  0  0
   49.2380    2.2590   93.0900 O   0  0  0  0  0  0
   44.5260    0.6180  100.3880 C   0  0  1  0  0  0
   43.3780    1.0620   99.4300 C   0  0  1  0  0  0
   43.7270    0.8800   97.9360 C   0  0  2  0  0  0
   45.0850    1.5050   97.5720 C   0  0  3  0  0  0
   46.1610    0.8650   98.5160 C   0  0  1  0  0  0
   47.5980    1.3360   98.3330 C   0  0  0  0  0  0
   44.5830   -0.7450  100.3340 O   0  0  0  0  0  0
   42.2120    0.2960   99.7070 O   0  0  0  0  0  0
   42.7170    1.4600   97.1180 O   0  0  0  0  0  0
   45.4480    2.4450   96.4980 O   0  0  0  0  0  0
   45.8190    1.0960   99.9270 O   0  0  0  0  0  0
   47.7470    2.7370   98.5750 O   0  0  0  0  0  0
   45.5718    0.5473   95.8815 H   0  0  0  0  0  0
   44.8621    2.8424   93.8554 H   0  0  0  0  0  0
   44.9797   -0.2616   93.4649 H   0  0  0  0  0  0
   46.7799    1.9606   92.3114 H   0  0  0  0  0  0
   47.3776   -0.2488   94.3798 H   0  0  0  0  0  0
   49.5684    0.9969   94.6819 H   0  0  0  0  0  0
   49.3805    0.2057   93.0802 H   0  0  0  0  0  0
   42.9950    2.3050   95.3691 H   0  0  0  0  0  0
   43.2552    0.8741   92.0871 H   0  0  0  0  0  0
   46.5041    0.0062   90.8224 H   0  0  0  0  0  0
   50.2617    2.5590   92.8217 H   0  0  0  0  0  0
   44.3827    0.9308  101.4328 H   0  0  0  0  0  0
   43.1276    2.1150   99.6259 H   0  0  0  0  0  0
   43.7278   -0.1932   97.6946 H   0  0  0  0  0  0
   44.8669    2.3800   96.9420 H   0  0  0  0  0  0
   46.1458   -0.2111   98.2883 H   0  0  0  0  0  0
   48.2523    0.7985   99.0352 H   0  0  0  0  0  0
   47.9219    1.1331   97.3015 H   0  0  0  0  0  0
   43.7121   -1.3444  100.6378 H   0  0  0  0  0  0
   41.7895    0.2852  100.7226 H   0  0  0  0  0  0
   41.6699    1.1416   97.2282 H   0  0  0  0  0  0
   48.7354    3.2099   98.4779 H   0  0  0  0  0  0
  1  2  1  0  0  0
  1 10  1  0  0  0
  1 21  1  0  0  0
  1 24  1  0  0  0
  2  3  1  0  0  0
  2  7  1  0  0  0
  2 25  1  0  0  0
  3  4  1  0  0  0
  3  8  1  0  0  0
  3 26  1  0  0  0
  4  5  1  0  0  0
  4  9  1  0  0  0
  4 27  1  0  0  0
  5  6  1  0  0  0
  5 10  1  0  0  0
  5 28  1  0  0  0
  6 11  1  0  0  0
  6 29  1  0  0  0
  6 30  1  0  0  0
  7 31  1  0  0  0
  8 32  1  0  0  0
  9 33  1  0  0  0
 11 34  1  0  0  0
 12 13  1  0  0  0
 12 18  1  0  0  0
 12 22  1  0  0  0
 12 35  1  0  0  0
 13 14  1  0  0  0
 13 19  1  0  0  0
 13 36  1  0  0  0
 14 15  1  0  0  0
 14 20  1  0  0  0
 14 37  1  0  0  0
 15 16  1  0  0  0
 15 21  1  0  0  0
 15 38  1  0  0  0
 16 17  1  0  0  0
 16 22  1  0  0  0
 16 39  1  0  0  0
 17 23  1  0  0  0
 17 40  1  0  0  0
 17 41  1  0  0  0
 18 42  1  0  0  0
 19 43  1  0  0  0
 20 44  1  0  0  0
 23 45  1  0  0  0
M  END
> <s_m_source_file>
../2b1r_ligand.sdf

> <i_m_source_file_index>
1

> <s_epik_input>
W09IXVtDQEBIXTFbQ0BIXShbT0hdKVtDQEBIXShbT0hdKVtDSF0oW0NASF0oTzEpW0NIMl1bT0hdKU9bQ0BIXTJbQ0BIXShbT0hdKVtDQEBIXShbT0hdKVtDQEhdKFtPSF0pW0NASF0oTzIpW0NIMl1bT0hd

> <s_epik_cmdline>
J2VwaWtfYXBwJywgJy1pbWFlJywgJ2xpZ2FuZF9wcm8ubWFlJywgJy1vbWFlJywgJ2xpZ2FuZF9wcmVwLm1hZScsICctbXMnLCAnMScsICctcGgnLCAnNycsICctcGh0JywgJzAuNScsICctbnQn

> <r_lp_tautomer_probability>
1

> <r_epik_Ionization_Penalty>
  0.0000

> <r_epik_Ionization_Penalty_Charging>
  0.0000

> <r_epik_Ionization_Penalty_Neutral>
  0.0000

> <r_epik_State_Penalty>
 -0.0000

> <r_epik_Charging_Adjusted_Penalty>
0

> <i_epik_Tot_Q>
0

> <i_epik_Tot_abs_Q>
0

> <s_epik_Chemistry_Notes>
This compound contains an acetal/aminal-like group ( X-CH(R)-Y where X, Y are N, S, or O) that may be acid/base labile, releasing an aldehyde.

$$$$
