2b1v_ligand
                    3D
 Schrodinger Suite 2020-3.
 39 41  0  0  1  0            999 V2000
    2.1150    4.0230   -4.2710 C   0  0  0  0  0  0
    3.5080    3.6610   -4.8110 C   0  0  1  0  0  0
    3.2480    2.6880   -5.9270 C   0  0  0  0  0  0
    4.0960    1.4270   -6.1080 C   0  0  0  0  0  0
    2.2020    3.0030   -6.7840 C   0  0  0  0  0  0
    1.3760    4.1240   -6.6950 C   0  0  0  0  0  0
    1.4580    4.8860   -5.3520 C   0  0  1  0  0  0
    0.0490    5.3320   -4.9360 C   0  0  0  0  0  0
   -0.8400    4.2120   -5.0490 O   0  0  0  0  0  0
    2.3300    6.1110   -5.5310 C   0  0  0  0  0  0
    3.4740    5.6640   -6.2770 O   0  0  0  0  0  0
    4.2680    4.8790   -5.4150 C   0  0  2  0  0  0
    5.5890    4.4580   -6.1500 C   0  0  0  0  0  0
    5.6220    4.2760   -7.5510 C   0  0  0  0  0  0
    6.8360    3.9030   -8.1690 C   0  0  0  0  0  0
    7.9890    3.7430   -7.3780 C   0  0  0  0  0  0
    9.1530    3.3990   -7.9790 O   0  0  0  0  0  0
    7.9650    3.9430   -5.9810 C   0  0  0  0  0  0
    6.7490    4.3020   -5.3680 C   0  0  0  0  0  0
    1.5404    3.1022   -4.0924 H   0  0  0  0  0  0
    2.2205    4.5783   -3.3273 H   0  0  0  0  0  0
    4.1221    3.2435   -3.9995 H   0  0  0  0  0  0
    4.8610    1.3832   -5.3188 H   0  0  0  0  0  0
    4.5859    1.4528   -7.0925 H   0  0  0  0  0  0
    3.4506    0.5386   -6.0428 H   0  0  0  0  0  0
    1.9625    2.3383   -7.6271 H   0  0  0  0  0  0
    1.6461    4.8419   -7.4834 H   0  0  0  0  0  0
    0.3272    3.8176   -6.8217 H   0  0  0  0  0  0
    0.0697    5.6892   -3.8958 H   0  0  0  0  0  0
   -0.2882    6.1448   -5.5961 H   0  0  0  0  0  0
   -1.9040    4.3265   -4.7944 H   0  0  0  0  0  0
    1.7699    6.8828   -6.0794 H   0  0  0  0  0  0
    2.6216    6.5009   -4.5446 H   0  0  0  0  0  0
    4.4607    5.5852   -4.5939 H   0  0  0  0  0  0
    4.7214    4.4217   -8.1475 H   0  0  0  0  0  0
    6.8794    3.7409   -9.2460 H   0  0  0  0  0  0
    9.1843    3.2404   -9.0671 H   0  0  0  0  0  0
    8.8711    3.8218   -5.3874 H   0  0  0  0  0  0
    6.7062    4.4587   -4.2902 H   0  0  0  0  0  0
  1  2  1  0  0  0
  1  7  1  0  0  0
  1 20  1  0  0  0
  1 21  1  0  0  0
  2  3  1  0  0  0
  2 12  1  0  0  0
  2 22  1  0  0  0
  3  4  1  0  0  0
  3  5  2  0  0  0
  4 23  1  0  0  0
  4 24  1  0  0  0
  4 25  1  0  0  0
  5  6  1  0  0  0
  5 26  1  0  0  0
  6  7  1  0  0  0
  6 27  1  0  0  0
  6 28  1  0  0  0
  7  8  1  0  0  0
  7 10  1  0  0  0
  8  9  1  0  0  0
  8 29  1  0  0  0
  8 30  1  0  0  0
  9 31  1  0  0  0
 10 11  1  0  0  0
 10 32  1  0  0  0
 10 33  1  0  0  0
 11 12  1  0  0  0
 12 13  1  0  0  0
 12 34  1  0  0  0
 13 14  2  0  0  0
 13 19  1  0  0  0
 14 15  1  0  0  0
 14 35  1  0  0  0
 15 16  2  0  0  0
 15 36  1  0  0  0
 16 17  1  0  0  0
 16 18  1  0  0  0
 17 37  1  0  0  0
 18 19  2  0  0  0
 18 38  1  0  0  0
 19 39  1  0  0  0
M  END
> <s_m_source_file>
../2b1v_ligand.sdf

> <i_m_source_file_index>
1

> <s_epik_input>
W09IXVtDSDJdW0NAQF0xMltDSDJdW0NAQEhdKEMoW0NIM10pPVtDSF1bQ0gyXTEpW0NASF0oT1tDSDJdMiljM1tjSF1bY0hdYyhbT0hdKVtjSF1bY0hdMw==

> <s_epik_cmdline>
J2VwaWtfYXBwJywgJy1pbWFlJywgJ2xpZ2FuZF9wcm8ubWFlJywgJy1vbWFlJywgJ2xpZ2FuZF9wcmVwLm1hZScsICctbXMnLCAnMScsICctcGgnLCAnNycsICctcGh0JywgJzAuNScsICctbnQn

> <r_lp_tautomer_probability>
1

> <r_epik_Ionization_Penalty>
  0.0010

> <r_epik_Ionization_Penalty_Charging>
  0.0000

> <r_epik_Ionization_Penalty_Neutral>
  0.0010

> <r_epik_State_Penalty>
 -0.0000

> <r_epik_Charging_Adjusted_Penalty>
0

> <i_epik_Tot_Q>
0

> <i_epik_Tot_abs_Q>
0

$$$$
