2b1z_ligand
                    3D
 Schrodinger Suite 2020-3.
 43 46  0  0  1  0            999 V2000
    2.0560    2.2620   -5.4180 C   0  0  0  0  0  0
    1.9420    3.7380   -5.8200 C   0  0  2  0  0  0
    2.1170    3.9360   -7.3300 C   0  0  0  0  0  0
    3.5500    3.5740   -7.8020 C   0  0  0  0  0  0
    4.6750    3.9070   -6.7960 C   0  0  0  0  0  0
    6.0170    3.7490   -7.1750 C   0  0  0  0  0  0
    6.3010    3.2900   -8.4550 C   0  0  0  0  0  0
    7.6190    3.1200   -8.8720 C   0  0  0  0  0  0
    8.6670    3.4030   -8.0040 C   0  0  0  0  0  0
    9.9510    3.2350   -8.4210 O   0  0  0  0  0  0
    8.3900    3.8640   -6.7130 C   0  0  0  0  0  0
    7.0660    4.0380   -6.3040 C   0  0  0  0  0  0
    6.7790    4.4960   -5.0250 C   0  0  0  0  0  0
    5.4530    4.6610   -4.6280 C   0  0  0  0  0  0
    4.4140    4.3510   -5.5000 C   0  0  0  0  0  0
    2.9430    4.5980   -5.0880 C   0  0  2  0  0  0
    2.5580    4.4350   -3.6200 C   0  0  0  0  0  0
    1.0090    4.5140   -3.7260 C   0  0  0  0  0  0
    0.6680    4.3840   -5.2360 C   0  0  2  0  0  0
   -0.5630    3.5350   -5.4630 C   0  0  0  0  0  0
    0.4330    5.6830   -5.7920 O   0  0  0  0  0  0
    2.9727    1.8341   -5.8500 H   0  0  0  0  0  0
    1.1814    1.7109   -5.7942 H   0  0  0  0  0  0
    2.0956    2.1826   -4.3216 H   0  0  0  0  0  0
    1.4055    3.2932   -7.8690 H   0  0  0  0  0  0
    1.9269    4.9887   -7.5863 H   0  0  0  0  0  0
    3.6105    2.4926   -7.9943 H   0  0  0  0  0  0
    3.7817    4.1242   -8.7259 H   0  0  0  0  0  0
    5.4845    3.0607   -9.1397 H   0  0  0  0  0  0
    7.8289    2.7644   -9.8808 H   0  0  0  0  0  0
   10.1556    2.8717   -9.4389 H   0  0  0  0  0  0
    9.2068    4.0873   -6.0266 H   0  0  0  0  0  0
    7.5889    4.7261   -4.3328 H   0  0  0  0  0  0
    5.2288    5.0349   -3.6290 H   0  0  0  0  0  0
    2.8718    5.6616   -5.3594 H   0  0  0  0  0  0
    2.9288    3.4682   -3.2489 H   0  0  0  0  0  0
    3.0048    5.2496   -3.0311 H   0  0  0  0  0  0
    0.5596    3.6933   -3.1477 H   0  0  0  0  0  0
    0.6627    5.4778   -3.3246 H   0  0  0  0  0  0
   -0.3996    2.5322   -5.0415 H   0  0  0  0  0  0
   -0.7570    3.4518   -6.5425 H   0  0  0  0  0  0
   -1.4276    4.0036   -4.9701 H   0  0  0  0  0  0
    1.2126    6.4566   -5.7310 H   0  0  0  0  0  0
  1  2  1  0  0  0
  1 22  1  0  0  0
  1 23  1  0  0  0
  1 24  1  0  0  0
  2  3  1  0  0  0
  2 16  1  0  0  0
  2 19  1  0  0  0
  3  4  1  0  0  0
  3 25  1  0  0  0
  3 26  1  0  0  0
  4  5  1  0  0  0
  4 27  1  0  0  0
  4 28  1  0  0  0
  5  6  2  0  0  0
  5 15  1  0  0  0
  6  7  1  0  0  0
  6 12  1  0  0  0
  7  8  2  0  0  0
  7 29  1  0  0  0
  8  9  1  0  0  0
  8 30  1  0  0  0
  9 10  1  0  0  0
  9 11  2  0  0  0
 10 31  1  0  0  0
 11 12  1  0  0  0
 11 32  1  0  0  0
 12 13  2  0  0  0
 13 14  1  0  0  0
 13 33  1  0  0  0
 14 15  2  0  0  0
 14 34  1  0  0  0
 15 16  1  0  0  0
 16 17  1  0  0  0
 16 35  1  0  0  0
 17 18  1  0  0  0
 17 36  1  0  0  0
 17 37  1  0  0  0
 18 19  1  0  0  0
 18 38  1  0  0  0
 18 39  1  0  0  0
 19 20  1  0  0  0
 19 21  1  0  0  0
 20 40  1  0  0  0
 20 41  1  0  0  0
 20 42  1  0  0  0
 21 43  1  0  0  0
M  END
> <s_m_source_file>
../2b1z_ligand.sdf

> <i_m_source_file_index>
1

> <s_epik_input>
W0NIM11bQ0BAXTEoW09IXSlbQ0gyXVtDSDJdW0NASF0oW0NAQF0xMltDSDNdKWMzYyhbQ0gyXVtDSDJdMiljNGMoW2NIXVtjSF0zKVtjSF1jKFtPSF0pW2NIXVtjSF00

> <s_epik_cmdline>
J2VwaWtfYXBwJywgJy1pbWFlJywgJ2xpZ2FuZF9wcm8ubWFlJywgJy1vbWFlJywgJ2xpZ2FuZF9wcmVwLm1hZScsICctbXMnLCAnMScsICctcGgnLCAnNycsICctcGh0JywgJzAuNScsICctbnQn

> <r_lp_tautomer_probability>
1

> <r_epik_Ionization_Penalty>
  0.0006

> <r_epik_Ionization_Penalty_Charging>
  0.0000

> <r_epik_Ionization_Penalty_Neutral>
  0.0006

> <r_epik_State_Penalty>
 -0.0000

> <r_epik_Charging_Adjusted_Penalty>
0

> <i_epik_Tot_Q>
0

> <i_epik_Tot_abs_Q>
0

$$$$
