2b2v_ligand
                    3D
 Schrodinger Suite 2020-3.
107106  0  0  1  0            999 V2000
  -36.0120   -1.8120   -8.4380 N   0  3  0  0  0  0
  -36.0570   -3.0380   -7.6010 C   0  0  2  0  0  0
  -34.7090   -3.6760   -7.7110 C   0  0  0  0  0  0
  -33.8850   -3.2020   -8.4600 O   0  0  0  0  0  0
  -37.1500   -3.9930   -8.0890 C   0  0  0  0  0  0
  -34.4820   -4.7480   -6.9700 N   0  0  0  0  0  0
  -33.2020   -5.4780   -7.0020 C   0  0  2  0  0  0
  -31.9850   -4.6000   -6.7000 C   0  0  0  0  0  0
  -31.5070   -3.8640   -7.5760 O   0  0  0  0  0  0
  -33.0130   -6.1860   -8.3490 C   0  0  0  0  0  0
  -34.0420   -5.8010   -9.3920 C   0  0  0  0  0  0
  -33.4540   -5.7490  -10.7710 C   0  0  0  0  0  0
  -32.6960   -6.9590  -11.1100 N   0  0  0  0  0  0
  -31.4480   -6.9750  -11.5900 C   0  0  0  0  0  0
  -30.8680   -8.1310  -11.8700 N   0  0  0  0  0  0
  -30.7930   -5.8420  -11.7650 N   0  3  0  0  0  0
  -31.5180   -4.6400   -5.4410 N   0  0  0  0  0  0
  -30.2160   -4.0650   -5.1220 C   0  0  2  0  0  0
  -29.3710   -5.1960   -4.5650 C   0  0  0  0  0  0
  -29.8050   -6.3440   -4.5280 O   0  0  0  0  0  0
  -30.2940   -2.9690   -4.0610 C   0  0  2  0  0  0
  -30.6260   -3.5570   -2.8050 O   0  0  0  0  0  0
  -31.3310   -1.9570   -4.4000 C   0  0  0  0  0  0
  -28.1670   -4.8790   -4.1190 N   0  0  0  0  0  0
  -27.3550   -5.8600   -3.4310 C   0  0  1  0  0  0
  -25.9200   -5.8180   -3.9510 C   0  0  0  0  0  0
  -25.8870   -6.3590   -5.3770 C   0  0  0  0  0  0
  -24.6020   -6.0470   -6.1520 C   0  0  0  0  0  0
  -24.3610   -7.1280   -7.2120 C   0  0  0  0  0  0
  -24.5850   -8.4790   -6.6960 N   0  3  0  0  0  0
  -24.4510   -9.6480   -7.5440 C   0  0  0  0  0  0
  -27.4680   -5.6160   -1.9530 C   0  0  0  0  0  0
  -26.7340   -6.1870   -1.1600 O   0  0  0  0  0  0
  -28.4200   -4.7700   -1.5710 N   0  0  0  0  0  0
  -28.5580   -4.3360   -0.1800 C   0  0  2  0  0  0
  -28.8180   -5.5400    0.7380 C   0  0  0  0  0  0
  -29.8950   -5.7110    1.3160 O   0  0  0  0  0  0
  -29.6360   -3.2410   -0.0450 C   0  0  0  0  0  0
  -29.6230   -2.4750    1.2870 C   0  0  0  0  0  0
  -28.3810   -1.5950    1.4900 C   0  0  0  0  0  0
  -28.1650   -0.6130    0.7630 O   0  0  0  0  0  0
  -27.5780   -1.9350    2.5060 N   0  0  0  0  0  0
  -27.7990   -6.3870    0.8180 N   0  0  0  0  0  0
  -27.6450   -7.3870    1.8710 C   0  0  2  0  0  0
  -28.0270   -6.7900    3.2510 C   0  0  0  0  0  0
  -28.4400   -7.4890    4.1890 O   0  0  0  0  0  0
  -26.1510   -7.8600    1.8860 C   0  0  2  0  0  0
  -26.0480   -9.2270    2.2850 O   0  0  0  0  0  0
  -25.3050   -6.9900    2.8170 C   0  0  0  0  0  0
  -27.9071   -5.4783    3.4356 O   0  5  0  0  0  0
  -36.9850   -1.3010   -8.3923 H   0  0  0  0  0  0
  -35.7909   -2.0872   -9.4798 H   0  0  0  0  0  0
  -35.2268   -1.1398   -8.0617 H   0  0  0  0  0  0
  -36.2754   -2.7709   -6.5565 H   0  0  0  0  0  0
  -38.1312   -3.5038   -7.9992 H   0  0  0  0  0  0
  -37.1385   -4.9069   -7.4769 H   0  0  0  0  0  0
  -36.9655   -4.2543   -9.1415 H   0  0  0  0  0  0
  -35.2941   -5.0903   -6.3117 H   0  0  0  0  0  0
  -33.3038   -6.2055   -6.1832 H   0  0  0  0  0  0
  -32.0234   -5.9359   -8.7590 H   0  0  0  0  0  0
  -33.0858   -7.2741   -8.2048 H   0  0  0  0  0  0
  -34.8563   -6.5405   -9.3941 H   0  0  0  0  0  0
  -34.4498   -4.8072   -9.1554 H   0  0  0  0  0  0
  -34.2614   -5.6394  -11.5100 H   0  0  0  0  0  0
  -32.7697   -4.8910  -10.8457 H   0  0  0  0  0  0
  -33.1528   -7.9504  -10.9738 H   0  0  0  0  0  0
  -31.4179   -9.0722  -11.7225 H   0  0  0  0  0  0
  -29.8360   -8.1507  -12.2502 H   0  0  0  0  0  0
  -31.2795   -4.8836  -11.5308 H   0  0  0  0  0  0
  -32.1212   -5.1085   -4.6494 H   0  0  0  0  0  0
  -29.8318   -3.6269   -6.0550 H   0  0  0  0  0  0
  -29.3230   -2.4636   -3.9527 H   0  0  0  0  0  0
  -29.9790   -4.3352   -2.3738 H   0  0  0  0  0  0
  -31.0886   -1.4937   -5.3678 H   0  0  0  0  0  0
  -31.3568   -1.1827   -3.6191 H   0  0  0  0  0  0
  -32.3140   -2.4465   -4.4637 H   0  0  0  0  0  0
  -27.7840   -3.8597   -4.2748 H   0  0  0  0  0  0
  -27.7580   -6.8611   -3.6443 H   0  0  0  0  0  0
  -25.5569   -4.7797   -3.9416 H   0  0  0  0  0  0
  -25.2782   -6.4367   -3.3066 H   0  0  0  0  0  0
  -25.9871   -7.4542   -5.3560 H   0  0  0  0  0  0
  -26.7181   -5.9258   -5.9529 H   0  0  0  0  0  0
  -24.6997   -5.0687   -6.6452 H   0  0  0  0  0  0
  -23.7506   -6.0233   -5.4559 H   0  0  0  0  0  0
  -25.0460   -6.9709   -8.0582 H   0  0  0  0  0  0
  -23.3212   -7.0690   -7.5661 H   0  0  0  0  0  0
  -23.8774   -8.6812   -5.8784 H   0  0  0  0  0  0
  -25.6149   -8.5612   -6.3184 H   0  0  0  0  0  0
  -24.6624  -10.5535   -6.9563 H   0  0  0  0  0  0
  -23.4258   -9.6985   -7.9394 H   0  0  0  0  0  0
  -25.1632   -9.5785   -8.3794 H   0  0  0  0  0  0
  -29.1160   -4.3949   -2.3358 H   0  0  0  0  0  0
  -27.5873   -3.8967    0.0934 H   0  0  0  0  0  0
  -29.4997   -2.4924   -0.8394 H   0  0  0  0  0  0
  -30.6336   -3.6953   -0.1366 H   0  0  0  0  0  0
  -30.5008   -1.8140    1.3384 H   0  0  0  0  0  0
  -29.6535   -3.1906    2.1218 H   0  0  0  0  0  0
  -27.8131   -2.8156    3.1219 H   0  0  0  0  0  0
  -26.6832   -1.3338    2.7248 H   0  0  0  0  0  0
  -27.0415   -6.3024    0.0249 H   0  0  0  0  0  0
  -28.3401   -8.2026    1.6228 H   0  0  0  0  0  0
  -25.7299   -7.8415    0.8700 H   0  0  0  0  0  0
  -26.5919  -10.0048    1.7289 H   0  0  0  0  0  0
  -25.3853   -5.9372    2.5085 H   0  0  0  0  0  0
  -24.2537   -7.3090    2.7622 H   0  0  0  0  0  0
  -25.6676   -7.0981    3.8499 H   0  0  0  0  0  0
  -29.7608   -5.8565  -12.1450 H   0  0  0  0  0  0
  1  2  1  0  0  0
  1 51  1  0  0  0
  1 52  1  0  0  0
  1 53  1  0  0  0
  2  5  1  0  0  0
  2  3  1  0  0  0
  2 54  1  0  0  0
  3  4  2  0  0  0
  3  6  1  0  0  0
  5 55  1  0  0  0
  5 56  1  0  0  0
  5 57  1  0  0  0
  6  7  1  0  0  0
  6 58  1  0  0  0
  7 10  1  0  0  0
  7  8  1  0  0  0
  7 59  1  0  0  0
  8  9  2  0  0  0
  8 17  1  0  0  0
 10 11  1  0  0  0
 10 60  1  0  0  0
 10 61  1  0  0  0
 11 12  1  0  0  0
 11 62  1  0  0  0
 11 63  1  0  0  0
 12 13  1  0  0  0
 12 64  1  0  0  0
 12 65  1  0  0  0
 13 14  1  0  0  0
 13 66  1  0  0  0
 14 16  2  0  0  0
 14 15  1  0  0  0
 15 67  1  0  0  0
 15 68  1  0  0  0
 16 69  1  0  0  0
 16107  1  0  0  0
 17 18  1  0  0  0
 17 70  1  0  0  0
 18 21  1  0  0  0
 18 19  1  0  0  0
 18 71  1  0  0  0
 19 20  2  0  0  0
 19 24  1  0  0  0
 21 23  1  0  0  0
 21 22  1  0  0  0
 21 72  1  0  0  0
 22 73  1  0  0  0
 23 74  1  0  0  0
 23 75  1  0  0  0
 23 76  1  0  0  0
 24 25  1  0  0  0
 24 77  1  0  0  0
 25 26  1  0  0  0
 25 32  1  0  0  0
 25 78  1  0  0  0
 26 27  1  0  0  0
 26 79  1  0  0  0
 26 80  1  0  0  0
 27 28  1  0  0  0
 27 81  1  0  0  0
 27 82  1  0  0  0
 28 29  1  0  0  0
 28 83  1  0  0  0
 28 84  1  0  0  0
 29 30  1  0  0  0
 29 85  1  0  0  0
 29 86  1  0  0  0
 30 31  1  0  0  0
 30 87  1  0  0  0
 30 88  1  0  0  0
 31 89  1  0  0  0
 31 90  1  0  0  0
 31 91  1  0  0  0
 32 33  2  0  0  0
 32 34  1  0  0  0
 34 35  1  0  0  0
 34 92  1  0  0  0
 35 38  1  0  0  0
 35 36  1  0  0  0
 35 93  1  0  0  0
 36 37  2  0  0  0
 36 43  1  0  0  0
 38 39  1  0  0  0
 38 94  1  0  0  0
 38 95  1  0  0  0
 39 40  1  0  0  0
 39 96  1  0  0  0
 39 97  1  0  0  0
 40 42  1  0  0  0
 40 41  2  0  0  0
 42 98  1  0  0  0
 42 99  1  0  0  0
 43 44  1  0  0  0
 43100  1  0  0  0
 44 47  1  0  0  0
 44 45  1  0  0  0
 44101  1  0  0  0
 45 46  2  0  0  0
 45 50  1  0  0  0
 47 49  1  0  0  0
 47 48  1  0  0  0
 47102  1  0  0  0
 48103  1  0  0  0
 49104  1  0  0  0
 49105  1  0  0  0
 49106  1  0  0  0
M  CHG  4   1   1  16   1  30   1  50  -1
M  END
> <s_m_source_file>
../2b2v_ligand.sdf

> <i_m_source_file_index>
1

> <s_epik_input>
W0hdL049QyhbTkgyXSlcW05IXVtDSDJdW0NIMl1bQ0gyXVtDQEhdKFtOSF1DKD1PKVtDQEBIXShbTkgzK10pW0NIM10pQyg9TylbTkhdW0NAQEhdKFtDQEhdKFtPSF0pW0NIM10pQyg9TylbTkhdW0NAQEhdKFtDSDJdW0NIMl1bQ0gyXVtDSDJdW05IMitdW0NIM10pQyg9TylbTkhdW0NAQEhdKFtDSDJdW0NIMl1DKD1PKVtOSDJdKUMoPU8pW05IXVtDQEhdKEMoPU8pW09IXSlbQ0BIXShbT0hdKVtDSDNd

> <s_epik_cmdline>
J2VwaWtfYXBwJywgJy1pbWFlJywgJ2xpZ2FuZF9wcm8ubWFlJywgJy1vbWFlJywgJ2xpZ2FuZF9wcmVwLm1hZScsICctbXMnLCAnMScsICctcGgnLCAnNycsICctcGh0JywgJzAuNScsICctbnQn

> <r_epik_Ionization_Penalty>
  0.1254

> <r_epik_Ionization_Penalty_Charging>
  0.1254

> <r_epik_Ionization_Penalty_Neutral>
  0.0000

> <r_epik_State_Penalty>
  0.1145

> <r_epik_Charging_Adjusted_Penalty>
0.239963974887699

> <i_epik_Tot_Q>
2

> <i_epik_Tot_abs_Q>
4

> <s_epik_Chemistry_Notes>
This compound has an imine and may undergo hydrolysis.

$$$$
