2b4l_ligand
                    3D
 Schrodinger Suite 2020-3.
 19 18  0  0  1  0            999 V2000
   10.2210   10.6700   16.6320 N   0  3  0  0  0  0
   10.2590   10.0020   17.9510 C   0  0  0  0  0  0
   10.7700    8.5840   17.9790 C   0  0  0  0  0  0
   10.9560    8.0820   19.1070 O   0  0  0  0  0  0
   10.9730    7.9470   16.9210 O   0  5  0  0  0  0
   11.5510   10.6550   15.9670 C   0  0  0  0  0  0
    9.1800   10.0520   15.7810 C   0  0  0  0  0  0
    9.8730   12.0910   16.8830 C   0  0  0  0  0  0
   10.9136   10.5681   18.6300 H   0  0  0  0  0  0
    9.2430    9.9610   18.3707 H   0  0  0  0  0  0
   11.8471    9.6155   15.7627 H   0  0  0  0  0  0
   12.2957   11.1256   16.6258 H   0  0  0  0  0  0
   11.4941   11.2128   15.0206 H   0  0  0  0  0  0
    9.4367    8.9988   15.5942 H   0  0  0  0  0  0
    9.1217   10.5906   14.8236 H   0  0  0  0  0  0
    8.2078   10.1073   16.2926 H   0  0  0  0  0  0
   10.6461   12.5516   17.5156 H   0  0  0  0  0  0
    8.9005   12.1455   17.3942 H   0  0  0  0  0  0
    9.8145   12.6288   15.9252 H   0  0  0  0  0  0
  1  2  1  0  0  0
  1  6  1  0  0  0
  1  7  1  0  0  0
  1  8  1  0  0  0
  2  3  1  0  0  0
  2  9  1  0  0  0
  2 10  1  0  0  0
  3  4  2  0  0  0
  3  5  1  0  0  0
  6 11  1  0  0  0
  6 12  1  0  0  0
  6 13  1  0  0  0
  7 14  1  0  0  0
  7 15  1  0  0  0
  7 16  1  0  0  0
  8 17  1  0  0  0
  8 18  1  0  0  0
  8 19  1  0  0  0
M  CHG  2   1   1   5  -1
M  END
> <s_m_source_file>
../2b4l_ligand.sdf

> <i_m_source_file_index>
1

> <s_epik_input>
W0NIM11bTitdKFtDSDNdKShbQ0gzXSlbQ0gyXUMoPU8pW09IXQ==

> <s_epik_cmdline>
J2VwaWtfYXBwJywgJy1pbWFlJywgJ2xpZ2FuZF9wcm8ubWFlJywgJy1vbWFlJywgJ2xpZ2FuZF9wcmVwLm1hZScsICctbXMnLCAnMScsICctcGgnLCAnNycsICctcGh0JywgJzAuNScsICctbnQn

> <r_lp_tautomer_probability>
1

> <r_epik_Ionization_Penalty>
  0.0000

> <r_epik_Ionization_Penalty_Charging>
  0.0000

> <r_epik_Ionization_Penalty_Neutral>
  0.0000

> <r_epik_State_Penalty>
 -0.0000

> <r_epik_Charging_Adjusted_Penalty>
3.58242089253719e-06

> <i_epik_Tot_Q>
0

> <i_epik_Tot_abs_Q>
2

$$$$
