2b4m_ligand
                    3D
 Schrodinger Suite 2020-3.
 23 23  0  0  1  0            999 V2000
   27.3760    2.2320   11.2260 N   0  3  0  0  0  0
   27.0400    1.9110    9.8180 C   0  0  0  0  0  0
   26.0840    2.7050   11.7840 C   0  0  1  0  0  0
   25.0810    1.6940   11.2330 C   0  0  0  0  0  0
   25.5410    1.5640    9.7800 C   0  0  0  0  0  0
   27.9780    1.0350   11.8400 C   0  0  0  0  0  0
   28.3500    3.3390   11.2790 C   0  0  0  0  0  0
   26.0200    2.8290   13.3270 C   0  0  0  0  0  0
   27.0030    2.6260   14.0330 O   0  0  0  0  0  0
   24.9760    3.1630   13.8860 O   0  5  0  0  0  0
   27.2530    2.7830    9.1823 H   0  0  0  0  0  0
   27.6452    1.0560    9.4824 H   0  0  0  0  0  0
   25.9127    3.7402   11.4537 H   0  0  0  0  0  0
   25.1595    0.7540   11.7989 H   0  0  0  0  0  0
   24.0623    2.0972   11.3313 H   0  0  0  0  0  0
   25.0177    2.2707    9.1192 H   0  0  0  0  0  0
   25.4111    0.5405    9.3985 H   0  0  0  0  0  0
   27.2584    0.2037   11.8050 H   0  0  0  0  0  0
   28.2379    1.2512   12.8868 H   0  0  0  0  0  0
   28.8869    0.7567   11.2865 H   0  0  0  0  0  0
   27.9091    4.2375   10.8226 H   0  0  0  0  0  0
   29.2580    3.0552   10.7268 H   0  0  0  0  0  0
   28.6090    3.5496   12.3271 H   0  0  0  0  0  0
  1  2  1  0  0  0
  1  3  1  0  0  0
  1  6  1  0  0  0
  1  7  1  0  0  0
  2  5  1  0  0  0
  2 11  1  0  0  0
  2 12  1  0  0  0
  3  4  1  0  0  0
  3  8  1  0  0  0
  3 13  1  0  0  0
  4  5  1  0  0  0
  4 14  1  0  0  0
  4 15  1  0  0  0
  5 16  1  0  0  0
  5 17  1  0  0  0
  6 18  1  0  0  0
  6 19  1  0  0  0
  6 20  1  0  0  0
  7 21  1  0  0  0
  7 22  1  0  0  0
  7 23  1  0  0  0
  8  9  2  0  0  0
  8 10  1  0  0  0
M  CHG  2   1   1  10  -1
M  END
> <s_m_source_file>
../2b4m_ligand.sdf

> <i_m_source_file_index>
1

> <s_epik_input>
W0NIM11bTitdMShbQ0gzXSlbQ0gyXVtDSDJdW0NIMl1bQ0BIXTFDKD1PKVtPSF0=

> <s_epik_cmdline>
J2VwaWtfYXBwJywgJy1pbWFlJywgJ2xpZ2FuZF9wcm8ubWFlJywgJy1vbWFlJywgJ2xpZ2FuZF9wcmVwLm1hZScsICctbXMnLCAnMScsICctcGgnLCAnNycsICctcGh0JywgJzAuNScsICctbnQn

> <r_lp_tautomer_probability>
1

> <r_epik_Ionization_Penalty>
  0.0007

> <r_epik_Ionization_Penalty_Charging>
  0.0007

> <r_epik_Ionization_Penalty_Neutral>
  0.0000

> <r_epik_State_Penalty>
 -0.0000

> <r_epik_Charging_Adjusted_Penalty>
0.000745426268619281

> <i_epik_Tot_Q>
0

> <i_epik_Tot_abs_Q>
2

$$$$
