2b52_ligand
                    3D
 Schrodinger Suite 2020-3.
 54 58  0  0  1  0            999 V2000
   75.6190   64.7320   14.8060 C   0  0  0  0  0  0
   76.3040   63.4150   15.1330 C   0  0  0  0  0  0
   77.7720   63.5740   15.2490 N   0  0  2  0  0  0
   78.3910   64.1570   14.0390 C   0  0  0  0  0  0
   77.7060   65.4640   13.6240 C   0  0  0  0  0  0
   76.2200   65.3620   13.6070 N   0  3  2  0  0  0
   75.4370   66.5040   13.1310 C   0  0  0  0  0  0
   78.4260   62.6350   16.2350 N   0  0  0  0  0  0
   78.6650   61.3390   16.0070 C   0  0  0  0  0  0
   79.4940   60.9990   15.0190 N   0  0  0  0  0  0
   80.0790   59.7270   14.7950 C   0  0  0  0  0  0
   79.8030   58.5000   15.5770 C   0  0  0  0  0  0
   80.5270   57.2710   15.2030 C   0  0  0  0  0  0
   81.4990   57.2740   14.0910 C   0  0  0  0  0  0
   81.7490   58.5080   13.3400 C   0  0  0  0  0  0
   81.0380   59.7460   13.6750 C   0  0  0  0  0  0
   82.5440   58.8350   12.1750 C   0  0  0  0  0  0
   82.3160   60.2160   11.8070 C   0  0  0  0  0  0
   81.3720   60.8130   12.7420 C   0  0  0  0  0  0
   83.4000   58.1540   11.2830 N   0  0  0  0  0  0
   83.7040   59.2640   10.2960 N   0  0  0  0  0  0
   83.0550   60.4840   10.5850 C   0  0  3  0  0  0
   83.0830   61.5800    9.6250 C   0  0  0  0  0  0
   81.6960   62.7390    9.4520 S   0  0  0  0  0  0
   82.5480   63.5920    8.0860 C   0  0  0  0  0  0
   83.8100   63.0100    7.7980 N   0  0  0  0  0  0
   84.1070   61.9050    8.6340 C   0  0  0  0  0  0
   85.4030   61.1880    8.3990 C   0  0  0  0  0  0
   81.9750   64.7820    7.3280 C   0  0  0  0  0  0
   78.1330   60.4710   16.7090 O   0  0  0  0  0  0
   80.8540   61.9310   12.7390 O   0  0  0  0  0  0
   74.5515   64.5516   14.6111 H   0  0  0  0  0  0
   75.7250   65.4215   15.6565 H   0  0  0  0  0  0
   75.9212   63.0303   16.0898 H   0  0  0  0  0  0
   76.0970   62.6861   14.3356 H   0  0  0  0  0  0
   79.4519   64.3702   14.2363 H   0  0  0  0  0  0
   78.3092   63.4439   13.2054 H   0  0  0  0  0  0
   77.9782   66.2613   14.3313 H   0  0  0  0  0  0
   78.0333   65.7443   12.6119 H   0  0  0  0  0  0
   76.1040   64.6635   12.7652 H   0  0  0  0  0  0
   74.3654   66.2617   13.1847 H   0  0  0  0  0  0
   75.7107   66.7275   12.0893 H   0  0  0  0  0  0
   75.6467   67.3807   13.7615 H   0  0  0  0  0  0
   78.7422   63.0060   17.2211 H   0  0  0  0  0  0
   79.7901   61.7461   14.2679 H   0  0  0  0  0  0
   79.0892   58.5052   16.4007 H   0  0  0  0  0  0
   80.3425   56.3488   15.7541 H   0  0  0  0  0  0
   82.0303   56.3591   13.8288 H   0  0  0  0  0  0
   85.4986   60.3591    9.1158 H   0  0  0  0  0  0
   86.2397   61.8889    8.5352 H   0  0  0  0  0  0
   85.4212   60.7901    7.3736 H   0  0  0  0  0  0
   80.9890   65.0400    7.7418 H   0  0  0  0  0  0
   81.8698   64.5229    6.2641 H   0  0  0  0  0  0
   82.6523   65.6426    7.4305 H   0  0  0  0  0  0
  1  2  1  0  0  0
  1  6  1  0  0  0
  1 32  1  0  0  0
  1 33  1  0  0  0
  2  3  1  0  0  0
  2 34  1  0  0  0
  2 35  1  0  0  0
  3  4  1  0  0  0
  3  8  1  0  0  0
  4  5  1  0  0  0
  4 36  1  0  0  0
  4 37  1  0  0  0
  5  6  1  0  0  0
  5 38  1  0  0  0
  5 39  1  0  0  0
  6  7  1  0  0  0
  6 40  1  0  0  0
  7 41  1  0  0  0
  7 42  1  0  0  0
  7 43  1  0  0  0
  8  9  1  0  0  0
  8 44  1  0  0  0
  9 10  1  0  0  0
  9 30  2  0  0  0
 10 11  1  0  0  0
 10 45  1  0  0  0
 11 12  2  0  0  0
 11 16  1  0  0  0
 12 13  1  0  0  0
 12 46  1  0  0  0
 13 14  2  0  0  0
 13 47  1  0  0  0
 14 15  1  0  0  0
 14 48  1  0  0  0
 15 16  2  0  0  0
 15 17  1  0  0  0
 16 19  1  0  0  0
 17 18  2  0  0  0
 17 20  1  0  0  0
 18 19  1  0  0  0
 18 22  1  0  0  0
 19 31  2  0  0  0
 20 21  2  0  0  0
 21 22  1  0  0  0
 22 23  1  0  0  0
 23 24  1  0  0  0
 23 27  2  0  0  0
 24 25  1  0  0  0
 25 26  2  0  0  0
 25 29  1  0  0  0
 26 27  1  0  0  0
 27 28  1  0  0  0
 28 49  1  0  0  0
 28 50  1  0  0  0
 28 51  1  0  0  0
 29 52  1  0  0  0
 29 53  1  0  0  0
 29 54  1  0  0  0
M  CHG  1   6   1
M  END
> <s_m_source_file>
../2b52_ligand.sdf

> <i_m_source_file_index>
1

> <s_epik_input>
W0NIMl0xW0NIMl1bTkBIK10oW0NIM10pW0NIMl1bQ0gyXVtOQEgrXTFbTkhdQyg9TylbTkhdYyhbY0hdW2NIXVtjSF0yKWMoYzIzKUMoPU8pQzQ9QzNOPU5bQ0hdNGM1c2MoW0NIM10pbmM1W0NIM10=

> <s_epik_cmdline>
J2VwaWtfYXBwJywgJy1pbWFlJywgJ2xpZ2FuZF9wcm8ubWFlJywgJy1vbWFlJywgJ2xpZ2FuZF9wcmVwLm1hZScsICctbXMnLCAnMScsICctcGgnLCAnNycsICctcGh0JywgJzAuNScsICctbnQn

> <r_lp_tautomer_probability>
1

> <r_epik_Ionization_Penalty>
  0.1346

> <r_epik_Ionization_Penalty_Charging>
  0.1345

> <r_epik_Ionization_Penalty_Neutral>
  0.0001

> <r_epik_State_Penalty>
 -0.0000

> <r_epik_Charging_Adjusted_Penalty>
0.134529419389329

> <i_epik_Tot_Q>
1

> <i_epik_Tot_abs_Q>
1

$$$$
