2b53_ligand
                    3D
 Schrodinger Suite 2020-3.
 45 47  0  0  1  0            999 V2000
   82.4300   65.0130   59.3270 C   0  0  0  0  0  0
   83.3220   65.2760   60.4460 C   0  0  0  0  0  0
   83.5370   66.5950   61.0380 C   0  0  0  0  0  0
   82.8550   67.7220   60.4330 C   0  0  0  0  0  0
   81.9850   67.4520   59.2960 C   0  0  0  0  0  0
   81.7040   66.1150   58.7130 C   0  0  0  0  0  0
   84.0230   64.1860   60.9370 N   0  0  0  0  0  0
   80.7080   65.8880   57.5900 C   0  0  0  0  0  0
   79.4870   66.7300   57.5590 C   0  0  0  0  0  0
   78.5350   66.6590   56.4760 C   0  0  0  0  0  0
   78.7520   65.7190   55.3740 C   0  0  0  0  0  0
   79.9610   64.8020   55.3300 C   0  0  0  0  0  0
   80.9060   64.9230   56.4510 C   0  0  0  0  0  0
   77.8500   65.6320   54.3280 N   0  0  0  0  0  0
   77.9960   64.7770   53.2800 C   0  0  0  0  0  0
   79.0650   63.9280   53.1600 N   0  0  0  0  0  0
   80.0260   63.9220   54.1480 C   0  0  0  0  0  0
   80.9900   62.9060   53.8270 N   0  0  0  0  0  0
   81.2110   61.7530   52.9140 C   0  0  0  0  0  0
   80.0050   60.7700   53.0640 C   0  0  0  0  0  0
   81.2260   62.2460   51.4510 C   0  0  0  0  0  0
   82.5690   61.1050   53.2740 C   0  0  0  0  0  0
   76.8960   64.7290   52.2720 C   0  0  0  0  0  0
   76.6800   63.4730   51.9710 F   0  0  0  0  0  0
   75.8050   65.3020   52.7650 F   0  0  0  0  0  0
   77.3410   65.3750   51.2510 F   0  0  0  0  0  0
   82.3063   63.9974   58.9510 H   0  0  0  0  0  0
   84.1868   66.7264   61.9032 H   0  0  0  0  0  0
   82.9882   68.7343   60.8147 H   0  0  0  0  0  0
   81.4962   68.3083   58.8313 H   0  0  0  0  0  0
   83.8681   63.1893   60.4981 H   0  0  0  0  0  0
   84.7344   64.3175   61.7657 H   0  0  0  0  0  0
   79.3029   67.4238   58.3793 H   0  0  0  0  0  0
   77.6562   67.3039   56.4785 H   0  0  0  0  0  0
   81.7898   64.2851   56.4574 H   0  0  0  0  0  0
   81.7606   63.1810   54.5622 H   0  0  0  0  0  0
   79.0733   61.2890   52.7946 H   0  0  0  0  0  0
   79.9429   60.4221   54.1057 H   0  0  0  0  0  0
   80.1501   59.9072   52.3973 H   0  0  0  0  0  0
   80.2557   62.7040   51.2085 H   0  0  0  0  0  0
   81.4077   61.3943   50.7790 H   0  0  0  0  0  0
   82.0252   62.9909   51.3233 H   0  0  0  0  0  0
   82.5447   60.7585   54.3177 H   0  0  0  0  0  0
   83.3726   61.8462   53.1523 H   0  0  0  0  0  0
   82.7551   60.2496   52.6079 H   0  0  0  0  0  0
  1  2  2  0  0  0
  1  6  1  0  0  0
  1 27  1  0  0  0
  2  3  1  0  0  0
  2  7  1  0  0  0
  3  4  2  0  0  0
  3 28  1  0  0  0
  4  5  1  0  0  0
  4 29  1  0  0  0
  5  6  2  0  0  0
  5 30  1  0  0  0
  6  8  1  0  0  0
  7 31  1  0  0  0
  7 32  1  0  0  0
  8  9  2  0  0  0
  8 13  1  0  0  0
  9 10  1  0  0  0
  9 33  1  0  0  0
 10 11  2  0  0  0
 10 34  1  0  0  0
 11 12  1  0  0  0
 11 14  1  0  0  0
 12 13  2  0  0  0
 12 17  1  0  0  0
 13 35  1  0  0  0
 14 15  2  0  0  0
 15 16  1  0  0  0
 15 23  1  0  0  0
 16 17  2  0  0  0
 17 18  1  0  0  0
 18 19  1  0  0  0
 18 36  1  0  0  0
 19 20  1  0  0  0
 19 21  1  0  0  0
 19 22  1  0  0  0
 20 37  1  0  0  0
 20 38  1  0  0  0
 20 39  1  0  0  0
 21 40  1  0  0  0
 21 41  1  0  0  0
 21 42  1  0  0  0
 22 43  1  0  0  0
 22 44  1  0  0  0
 22 45  1  0  0  0
 23 24  1  0  0  0
 23 25  1  0  0  0
 23 26  1  0  0  0
M  END
> <s_m_source_file>
../2b53_ligand.sdf

> <i_m_source_file_index>
1

> <s_epik_input>
W2NIXTFbY0hdW2NIXWMoW2NIXWMxW05IMl0pLWMoW2NIXVtjSF0yKVtjSF1jKGMyMyljKG5jKG4zKUMoRikoRilGKVtOSF1DKFtDSDNdKShbQ0gzXSlbQ0gzXQ==

> <s_epik_cmdline>
J2VwaWtfYXBwJywgJy1pbWFlJywgJ2xpZ2FuZF9wcm8ubWFlJywgJy1vbWFlJywgJ2xpZ2FuZF9wcmVwLm1hZScsICctbXMnLCAnMScsICctcGgnLCAnNycsICctcGh0JywgJzAuNScsICctbnQn

> <r_lp_tautomer_probability>
1

> <r_epik_Ionization_Penalty>
  0.0011

> <r_epik_Ionization_Penalty_Charging>
  0.0000

> <r_epik_Ionization_Penalty_Neutral>
  0.0011

> <r_epik_State_Penalty>
 -0.0000

> <r_epik_Charging_Adjusted_Penalty>
0

> <i_epik_Tot_Q>
0

> <i_epik_Tot_abs_Q>
0

$$$$
