2b54_ligand
                    3D
 Schrodinger Suite 2020-3.
 45 48  0  0  1  0            999 V2000
  120.4880  -84.9370   91.8640 N   0  0  0  0  0  0
  119.8170  -83.7510   91.7590 C   0  0  0  0  0  0
  119.0250  -83.2370   92.7230 N   0  0  0  0  0  0
  118.9100  -83.9470   93.8720 C   0  0  0  0  0  0
  119.5950  -85.1780   94.0530 C   0  0  0  0  0  0
  120.3910  -85.6520   93.0220 C   0  0  0  0  0  0
  118.1280  -83.6850   94.9940 N   0  0  0  0  0  0
  118.3150  -84.6860   95.9240 N   0  0  0  0  0  0
  119.1800  -85.5810   95.3970 C   0  0  0  0  0  0
  120.9500  -86.7440   93.1570 O   0  0  0  0  0  0
  117.1590  -82.6290   95.1030 C   0  0  0  0  0  0
  115.8170  -82.9780   95.0730 C   0  0  0  0  0  0
  117.4390  -81.2680   95.3240 C   0  0  0  0  0  0
  114.7870  -82.0250   95.2710 C   0  0  0  0  0  0
  116.4300  -80.3100   95.5160 C   0  0  0  0  0  0
  115.0850  -80.6670   95.5030 C   0  0  0  0  0  0
  113.8350  -79.4270   95.8390 Cl  0  0  0  0  0  0
  119.4830  -86.8030   96.2130 C   0  0  0  0  0  0
  118.5470  -87.9520   95.8440 C   0  0  0  0  0  0
  119.8960  -82.9560   90.4600 C   0  0  0  0  0  0
  115.4420  -84.6380   94.6820 Cl  0  0  0  0  0  0
  119.0390  -80.6500   95.3620 Cl  0  0  0  0  0  0
  121.1780  -82.1590   90.2770 C   0  0  0  0  0  0
  121.2510  -80.7890   90.6320 C   0  0  0  0  0  0
  122.4970  -80.1090   90.5020 C   0  0  0  0  0  0
  123.6280  -80.7940   90.0260 C   0  0  0  0  0  0
  123.5380  -82.1500   89.6390 C   0  0  0  0  0  0
  122.3090  -82.8190   89.7670 C   0  0  0  0  0  0
  122.6550  -78.7760   90.8720 O   0  0  0  0  0  0
  124.8550  -80.1440   89.9950 O   0  0  0  0  0  0
  121.0949  -85.3020   91.0223 H   0  0  0  0  0  0
  113.7462  -82.3478   95.2434 H   0  0  0  0  0  0
  116.7055  -79.2679   95.6781 H   0  0  0  0  0  0
  120.5202  -87.1193   96.0284 H   0  0  0  0  0  0
  119.3547  -86.5720   97.2808 H   0  0  0  0  0  0
  118.7900  -88.8336   96.4554 H   0  0  0  0  0  0
  118.6713  -88.1986   94.7792 H   0  0  0  0  0  0
  117.5057  -87.6513   96.0317 H   0  0  0  0  0  0
  119.8255  -83.6437   89.6044 H   0  0  0  0  0  0
  119.0662  -82.2350   90.4203 H   0  0  0  0  0  0
  120.3689  -80.2639   90.9984 H   0  0  0  0  0  0
  124.4112  -82.6707   89.2460 H   0  0  0  0  0  0
  122.2318  -83.8640   89.4667 H   0  0  0  0  0  0
  121.7944  -78.2043   91.2496 H   0  0  0  0  0  0
  124.9260  -79.0884   90.2961 H   0  0  0  0  0  0
  1  2  1  0  0  0
  1  6  1  0  0  0
  1 31  1  0  0  0
  2  3  2  0  0  0
  2 20  1  0  0  0
  3  4  1  0  0  0
  4  5  2  0  0  0
  4  7  1  0  0  0
  5  6  1  0  0  0
  5  9  1  0  0  0
  6 10  2  0  0  0
  7  8  1  0  0  0
  7 11  1  0  0  0
  8  9  2  0  0  0
  9 18  1  0  0  0
 11 12  2  0  0  0
 11 13  1  0  0  0
 12 14  1  0  0  0
 12 21  1  0  0  0
 13 15  2  0  0  0
 13 22  1  0  0  0
 14 16  2  0  0  0
 14 32  1  0  0  0
 15 16  1  0  0  0
 15 33  1  0  0  0
 16 17  1  0  0  0
 18 19  1  0  0  0
 18 34  1  0  0  0
 18 35  1  0  0  0
 19 36  1  0  0  0
 19 37  1  0  0  0
 19 38  1  0  0  0
 20 23  1  0  0  0
 20 39  1  0  0  0
 20 40  1  0  0  0
 23 24  2  0  0  0
 23 28  1  0  0  0
 24 25  1  0  0  0
 24 41  1  0  0  0
 25 26  2  0  0  0
 25 29  1  0  0  0
 26 27  1  0  0  0
 26 30  1  0  0  0
 27 28  2  0  0  0
 27 42  1  0  0  0
 28 43  1  0  0  0
 29 44  1  0  0  0
 30 45  1  0  0  0
M  END
> <s_m_source_file>
../2b54_ligand.sdf

> <i_m_source_file_index>
1

> <s_epik_input>
W2NIXTFbY0hdYyhbT0hdKWMoW09IXSlbY0hdYzFbQ0gyXWMobjIpW25IXWMoPU8pYyhjMjMpYyhbQ0gyXVtDSDNdKW5uMy1jNGMoQ2wpW2NIXWMoQ2wpW2NIXWM0Q2w=

> <s_epik_cmdline>
J2VwaWtfYXBwJywgJy1pbWFlJywgJ2xpZ2FuZF9wcm8ubWFlJywgJy1vbWFlJywgJ2xpZ2FuZF9wcmVwLm1hZScsICctbXMnLCAnMScsICctcGgnLCAnNycsICctcGh0JywgJzAuNScsICctbnQn

> <r_lp_tautomer_probability>
0.999999999999776

> <r_epik_Ionization_Penalty>
  0.0576

> <r_epik_Ionization_Penalty_Charging>
  0.0562

> <r_epik_Ionization_Penalty_Neutral>
  0.0015

> <r_epik_State_Penalty>
  0.0484

> <r_epik_Charging_Adjusted_Penalty>
0.104575763733521

> <i_epik_Tot_Q>
0

> <i_epik_Tot_abs_Q>
0

$$$$
