2b55_ligand
                    3D
 Schrodinger Suite 2020-3.
 63 67  0  0  1  0            999 V2000
   29.0940    7.5150   10.4310 N   0  3  0  0  0  0
   28.5320    7.1900   11.7590 C   0  0  0  0  0  0
   29.5590    6.5260   12.6850 C   0  0  2  0  0  0
   28.9150    6.1700   14.0290 C   0  0  0  0  0  0
   28.5540    7.3900   14.8760 C   0  0  0  0  0  0
   29.7120    8.2970   15.0290 N   0  3  1  0  0  0
   30.3730    8.7020   13.7720 C   0  0  0  0  0  0
   30.7340    7.4800   12.9320 C   0  0  0  0  0  0
   29.9930    8.9990   16.2910 C   0  0  0  0  0  0
   29.5990   10.4670   16.2590 C   0  0  0  0  0  0
   28.7400   10.8700   15.3220 N   0  0  0  0  0  0
   28.1710   12.1580   15.1560 C   0  0  0  0  0  0
   28.4790   13.3430   15.9850 C   0  0  0  0  0  0
   27.8610   14.6350   15.6430 C   0  0  0  0  0  0
   26.9420   14.7280   14.4930 C   0  0  0  0  0  0
   26.6440   13.5430   13.6800 C   0  0  0  0  0  0
   27.2550   12.2490   14.0050 C   0  0  0  0  0  0
   25.8850   13.3310   12.4660 C   0  0  0  0  0  0
   26.0540   11.9570   12.0580 C   0  0  0  0  0  0
   26.8850   11.2530   13.0140 C   0  0  0  0  0  0
   24.7720   13.0240   10.4910 N   0  0  0  0  0  0
   25.3550   11.7750   10.8020 C   0  0  3  0  0  0
   25.2020   10.5260    9.9530 C   0  0  0  0  0  0
   24.1450   10.5800    8.8460 C   0  0  0  0  0  0
   23.9080    9.2260    8.1800 C   0  0  0  0  0  0
   25.2220    8.6290    7.6830 C   0  0  0  0  0  0
   26.2400    8.4840    8.8260 C   0  0  0  0  0  0
   26.4920    9.8370    9.5020 C   0  0  0  0  0  0
   30.0260   11.2660   17.0910 O   0  0  0  0  0  0
   27.1960   10.0670   13.0090 O   0  0  0  0  0  0
   25.1060   14.0640   11.5440 N   0  0  0  0  0  0
   28.3183    7.9870    9.8101 H   0  0  0  0  0  0
   29.4419    6.5920    9.9442 H   0  0  0  0  0  0
   29.9400    8.2078   10.5505 H   0  0  0  0  0  0
   28.1841    8.1130   12.2458 H   0  0  0  0  0  0
   27.6860    6.4972   11.6396 H   0  0  0  0  0  0
   29.9203    5.6068   12.2006 H   0  0  0  0  0  0
   27.9872    5.6059   13.8530 H   0  0  0  0  0  0
   29.6116    5.5554   14.6181 H   0  0  0  0  0  0
   27.7364    7.9438   14.3914 H   0  0  0  0  0  0
   28.2321    7.0606   15.8750 H   0  0  0  0  0  0
   30.4331    7.6293   15.5231 H   0  0  0  0  0  0
   29.6943    9.3438   13.1911 H   0  0  0  0  0  0
   31.2937    9.2574   14.0043 H   0  0  0  0  0  0
   31.5351    6.9452   13.4633 H   0  0  0  0  0  0
   31.1157    7.8488   11.9685 H   0  0  0  0  0  0
   29.4326    8.5220   17.1086 H   0  0  0  0  0  0
   31.0705    8.9484   16.5067 H   0  0  0  0  0  0
   28.3917   10.1631   14.5545 H   0  0  0  0  0  0
   29.1538   13.2613   16.8371 H   0  0  0  0  0  0
   28.0822   15.5208   16.2384 H   0  0  0  0  0  0
   26.4807   15.6840   14.2451 H   0  0  0  0  0  0
   24.7834    9.8601   10.7220 H   0  0  0  0  0  0
   23.1871   10.9159    9.2698 H   0  0  0  0  0  0
   24.4675   11.2843    8.0651 H   0  0  0  0  0  0
   23.4565    8.5342    8.9063 H   0  0  0  0  0  0
   23.2296    9.3524    7.3234 H   0  0  0  0  0  0
   25.0337    7.6334    7.2549 H   0  0  0  0  0  0
   25.6539    9.2839    6.9119 H   0  0  0  0  0  0
   25.8516    7.7789    9.5756 H   0  0  0  0  0  0
   27.1911    8.1048    8.4240 H   0  0  0  0  0  0
   27.0179   10.4795    8.7805 H   0  0  0  0  0  0
   27.1379    9.6606   10.3747 H   0  0  0  0  0  0
  1  2  1  0  0  0
  1 32  1  0  0  0
  1 33  1  0  0  0
  1 34  1  0  0  0
  2  3  1  0  0  0
  2 35  1  0  0  0
  2 36  1  0  0  0
  3  4  1  0  0  0
  3  8  1  0  0  0
  3 37  1  0  0  0
  4  5  1  0  0  0
  4 38  1  0  0  0
  4 39  1  0  0  0
  5  6  1  0  0  0
  5 40  1  0  0  0
  5 41  1  0  0  0
  6  7  1  0  0  0
  6  9  1  0  0  0
  6 42  1  0  0  0
  7  8  1  0  0  0
  7 43  1  0  0  0
  7 44  1  0  0  0
  8 45  1  0  0  0
  8 46  1  0  0  0
  9 10  1  0  0  0
  9 47  1  0  0  0
  9 48  1  0  0  0
 10 11  1  0  0  0
 10 29  2  0  0  0
 11 12  1  0  0  0
 11 49  1  0  0  0
 12 13  2  0  0  0
 12 17  1  0  0  0
 13 14  1  0  0  0
 13 50  1  0  0  0
 14 15  2  0  0  0
 14 51  1  0  0  0
 15 16  1  0  0  0
 15 52  1  0  0  0
 16 17  2  0  0  0
 16 18  1  0  0  0
 17 20  1  0  0  0
 18 19  2  0  0  0
 18 31  1  0  0  0
 19 20  1  0  0  0
 19 22  1  0  0  0
 20 30  2  0  0  0
 21 22  1  0  0  0
 21 31  2  0  0  0
 22 23  1  0  0  0
 23 24  1  0  0  0
 23 28  1  0  0  0
 23 53  1  0  0  0
 24 25  1  0  0  0
 24 54  1  0  0  0
 24 55  1  0  0  0
 25 26  1  0  0  0
 25 56  1  0  0  0
 25 57  1  0  0  0
 26 27  1  0  0  0
 26 58  1  0  0  0
 26 59  1  0  0  0
 27 28  1  0  0  0
 27 60  1  0  0  0
 27 61  1  0  0  0
 28 62  1  0  0  0
 28 63  1  0  0  0
M  CHG  2   1   1   6   1
M  END
> <s_m_source_file>
../2b55_ligand.sdf

> <i_m_source_file_index>
1

> <s_epik_input>
W05IMytdW0NIMl1bQ0BASF0xW0NIMl1bQ0gyXVtOQEBIK10oW0NIMl1bQ0gyXTEpW0NIMl1DKD1PKVtOSF1jKFtjSF1bY0hdW2NIXTIpYyhjMjMpQyg9TylDND1DM049TltDSF00W0NIXTVbQ0gyXVtDSDJdW0NIMl1bQ0gyXVtDSDJdNQ==

> <s_epik_cmdline>
J2VwaWtfYXBwJywgJy1pbWFlJywgJ2xpZ2FuZF9wcm8ubWFlJywgJy1vbWFlJywgJ2xpZ2FuZF9wcmVwLm1hZScsICctbXMnLCAnMScsICctcGgnLCAnNycsICctcGh0JywgJzAuNScsICctbnQn

> <r_epik_Ionization_Penalty>
  0.0792

> <r_epik_Ionization_Penalty_Charging>
  0.0791

> <r_epik_Ionization_Penalty_Neutral>
  0.0001

> <r_epik_State_Penalty>
  0.0684

> <r_epik_Charging_Adjusted_Penalty>
0.147488430131709

> <i_epik_Tot_Q>
2

> <i_epik_Tot_abs_Q>
2

$$$$
