2b5j_ligand
                    3D
 Schrodinger Suite 2020-3.
 39 40  0  0  1  0            999 V2000
  143.9380  -26.8740   74.2660 O   0  0  0  0  0  0
  142.9420  -26.9140   73.2820 C   0  0  0  0  0  0
  143.1970  -26.3650   72.0000 C   0  0  0  0  0  0
  144.9900  -25.5300   71.5430 I   0  0  0  0  0  0
  142.2060  -26.4060   71.0180 C   0  0  0  0  0  0
  142.4540  -25.8640   69.7600 O   0  0  0  0  0  0
  141.0010  -26.9680   71.2860 N   0  0  0  0  0  0
  140.6990  -27.5170   72.5000 C   0  0  0  0  0  0
  139.3210  -28.1240   72.6840 C   0  0  0  0  0  0
  141.6590  -27.5070   73.5590 C   0  0  0  0  0  0
  141.3260  -28.1240   74.9490 C   0  0  0  0  0  0
  142.1940  -29.3710   75.2500 C   0  0  0  0  0  0
  143.9300  -25.9070   75.3140 C   0  0  0  0  0  0
  142.9310  -24.8830   75.4700 C   0  0  0  0  0  0
  143.0000  -23.9680   76.5600 C   0  0  0  0  0  0
  144.0660  -24.0720   77.5080 C   0  0  0  0  0  0
  145.0610  -25.0890   77.3550 C   0  0  0  0  0  0
  144.9820  -25.9880   76.2660 C   0  0  0  0  0  0
  146.2160  -25.2190   78.3500 C   0  0  0  0  0  0
  145.8820  -26.1070   79.5040 C   0  0  0  0  0  0
  147.1000  -25.7440   81.7860 N   0  0  0  0  0  0
  146.5620  -25.9040   80.7650 C   0  0  0  0  0  0
  138.7488  -28.0246   71.7498 H   0  0  0  0  0  0
  138.7942  -27.5987   73.4943 H   0  0  0  0  0  0
  139.4208  -29.1888   72.9413 H   0  0  0  0  0  0
  141.5111  -27.3774   75.7354 H   0  0  0  0  0  0
  140.2687  -28.4265   74.9721 H   0  0  0  0  0  0
  141.9270  -29.7738   76.2382 H   0  0  0  0  0  0
  143.2569  -29.0879   75.2444 H   0  0  0  0  0  0
  142.0145  -30.1369   74.4811 H   0  0  0  0  0  0
  142.1164  -24.8069   74.7498 H   0  0  0  0  0  0
  142.2431  -23.1915   76.6710 H   0  0  0  0  0  0
  144.1204  -23.3773   78.3462 H   0  0  0  0  0  0
  145.7441  -26.7593   76.1546 H   0  0  0  0  0  0
  147.0934  -25.6433   77.8399 H   0  0  0  0  0  0
  146.4690  -24.2260   78.7499 H   0  0  0  0  0  0
  144.8140  -26.0061   79.7472 H   0  0  0  0  0  0
  146.1003  -27.1518   79.2379 H   0  0  0  0  0  0
  140.2215  -26.9938   70.5103 H   0  0  0  0  0  0
  1  2  1  0  0  0
  1 13  1  0  0  0
  2  3  2  0  0  0
  2 10  1  0  0  0
  3  4  1  0  0  0
  3  5  1  0  0  0
  5  6  2  0  0  0
  5  7  1  0  0  0
  7  8  1  0  0  0
  7 39  1  0  0  0
  8  9  1  0  0  0
  8 10  2  0  0  0
  9 23  1  0  0  0
  9 24  1  0  0  0
  9 25  1  0  0  0
 10 11  1  0  0  0
 11 12  1  0  0  0
 11 26  1  0  0  0
 11 27  1  0  0  0
 12 28  1  0  0  0
 12 29  1  0  0  0
 12 30  1  0  0  0
 13 14  2  0  0  0
 13 18  1  0  0  0
 14 15  1  0  0  0
 14 31  1  0  0  0
 15 16  2  0  0  0
 15 32  1  0  0  0
 16 17  1  0  0  0
 16 33  1  0  0  0
 17 18  2  0  0  0
 17 19  1  0  0  0
 18 34  1  0  0  0
 19 20  1  0  0  0
 19 35  1  0  0  0
 19 36  1  0  0  0
 20 22  1  0  0  0
 20 37  1  0  0  0
 20 38  1  0  0  0
 21 22  3  0  0  0
M  END
> <s_m_source_file>
../2b5j_ligand.sdf

> <i_m_source_file_index>
1

> <s_epik_input>
W0NIM11bQ0gyXWMxYyhbQ0gzXSluYyhbT0hdKWMoSSljMU9jMltjSF1bY0hdW2NIXWMoW2NIXTIpW0NIMl1bQ0gyXUMjTg==

> <s_epik_cmdline>
J2VwaWtfYXBwJywgJy1pbWFlJywgJ2xpZ2FuZF9wcm8ubWFlJywgJy1vbWFlJywgJ2xpZ2FuZF9wcmVwLm1hZScsICctbXMnLCAnMScsICctcGgnLCAnNycsICctcGh0JywgJzAuNScsICctbnQn

> <r_lp_tautomer_probability>
1

> <r_epik_Ionization_Penalty>
  0.0000

> <r_epik_Ionization_Penalty_Charging>
  0.0000

> <r_epik_Ionization_Penalty_Neutral>
  0.0000

> <r_epik_State_Penalty>
 -0.0000

> <r_epik_Charging_Adjusted_Penalty>
1.79921960298655e-06

> <i_epik_Tot_Q>
0

> <i_epik_Tot_abs_Q>
0

$$$$
