2b7f_ligand
                    3D
 Schrodinger Suite 2020-3.
154156  0  0  1  0            999 V2000
   79.9990   66.6450   48.2050 C   0  0  0  0  0  0
   79.0330   66.6900   48.9620 O   0  0  0  0  0  0
   80.6940   67.9330   47.7350 C   0  0  0  0  0  0
   80.4810   65.5020   47.7240 N   0  0  0  0  0  0
   80.1500   64.1910   48.2400 C   0  0  2  0  0  0
   80.3760   64.0820   49.7650 C   0  0  0  0  0  0
   81.2790   64.7330   50.3180 O   0  0  0  0  0  0
   81.0370   63.2290   47.5630 C   0  0  0  0  0  0
   79.6030   63.2180   50.4570 N   0  0  0  0  0  0
   80.1790   62.9150   51.7640 C   0  0  2  0  0  0
   81.5090   62.1240   51.6100 C   0  0  0  0  0  0
   81.7290   61.4690   50.5880 O   0  0  0  0  0  0
   79.0770   62.0880   52.4390 C   0  0  0  0  0  0
   78.3270   61.4860   51.3300 C   0  0  0  0  0  0
   78.3430   62.4850   50.2140 C   0  0  0  0  0  0
   82.3980   62.2070   52.5930 N   0  0  0  0  0  0
   83.6750   61.4480   52.5880 C   0  0  2  0  0  0
   83.6090   60.2030   53.4440 C   0  0  0  0  0  0
   83.0260   60.2250   54.5260 O   0  0  0  0  0  0
   84.8100   62.2870   53.1480 C   0  0  0  0  0  0
   85.4820   63.1930   52.1780 C   0  0  0  0  0  0
   86.3750   64.1540   52.9080 C   0  0  0  0  0  0
   86.8720   63.8190   53.9910 O   0  0  0  0  0  0
   86.5730   65.3670   52.3430 N   0  0  0  0  0  0
   84.2160   59.1350   52.9630 N   0  0  0  0  0  0
   84.3320   57.9200   53.7270 C   0  0  2  0  0  0
   85.7520   57.3890   53.6080 C   0  0  0  0  0  0
   86.1270   56.8540   52.5740 O   0  0  0  0  0  0
   83.3050   56.8310   53.2940 C   0  0  0  0  0  0
   83.5080   55.5270   54.0940 C   0  0  0  0  0  0
   81.9030   57.3410   53.4610 C   0  0  0  0  0  0
   86.4380   57.3840   54.7480 N   0  0  0  0  0  0
   87.8440   57.1050   54.7640 C   0  0  1  0  0  0
   88.6130   58.4200   55.0020 C   0  0  0  0  0  0
   88.9110   59.4230   53.8600 C   0  0  0  0  0  0
   87.9020   60.5630   53.8170 C   0  0  0  0  0  0
   89.2550   58.8930   52.4400 C   0  0  0  0  0  0
   88.2300   55.9800   55.8230 C   0  0  1  0  0  0
   87.6220   56.2410   57.0800 O   0  0  0  0  0  0
   87.9770   54.4870   55.4220 C   0  0  0  0  0  0
   89.1890   53.9590   54.6210 C   0  0  0  0  0  0
   89.2650   54.1650   53.4310 O   0  0  0  0  0  0
   90.1920   53.4180   55.3050 N   0  0  0  0  0  0
   91.4130   52.9360   54.6040 C   0  0  2  0  0  0
   91.8860   51.6070   55.1760 C   0  0  0  0  0  0
   92.2050   51.4910   56.3510 O   0  0  0  0  0  0
   92.5980   53.9360   54.7040 C   0  0  0  0  0  0
   93.7740   53.4190   53.9680 C   0  0  0  0  0  0
   92.2080   55.3010   54.1930 C   0  0  0  0  0  0
   91.9620   50.5920   54.3410 N   0  0  0  0  0  0
   92.3780   49.2590   54.7980 C   0  0  2  0  0  0
   93.6340   48.7400   54.1040 C   0  0  0  0  0  0
   93.8980   49.0590   52.9520 O   0  0  0  0  0  0
   91.2210   48.2760   54.6200 C   0  0  0  0  0  0
   89.8820   48.9150   54.8140 C   0  0  0  0  0  0
   88.8540   48.0090   55.9760 S   0  0  0  0  0  0
   88.2480   46.6010   55.0240 C   0  0  0  0  0  0
   94.3890   47.8970   54.7950 N   0  0  0  0  0  0
   95.5420   47.2470   54.1580 C   0  0  2  0  0  0
   95.2180   46.0670   53.2320 C   0  0  0  0  0  0
   94.0570   45.9210   52.8030 O   0  0  0  0  0  0
   96.6050   46.8960   55.1620 C   0  0  0  0  0  0
   97.9700   47.3620   54.7410 C   0  0  0  0  0  0
   99.1020   46.5530   54.8050 N   0  0  0  0  0  0
   98.3860   48.5530   54.2280 C   0  0  0  0  0  0
  100.1590   47.2390   54.3830 C   0  0  0  0  0  0
   99.7500   48.4490   54.0210 N   0  0  0  0  0  0
   96.1930   45.1660   52.9510 N   0  0  0  0  0  0
   96.1650   44.5530   51.6070 C   0  0  2  0  0  0
   95.0290   45.0510   50.6620 C   0  0  0  0  0  0
   94.1100   44.3270   50.2000 O   0  0  0  0  0  0
   96.0820   43.0490   51.9480 C   0  0  0  0  0  0
   96.9450   42.9630   53.3060 C   0  0  0  0  0  0
   97.1620   44.4300   53.7880 C   0  0  0  0  0  0
   95.0270   46.2390   50.3340 O   0  0  0  0  0  0
   80.2068   68.8030   48.1995 H   0  0  0  0  0  0
   80.6189   68.0117   46.6404 H   0  0  0  0  0  0
   81.7537   67.9060   48.0288 H   0  0  0  0  0  0
   81.1753   65.6003   46.8765 H   0  0  0  0  0  0
   79.0918   64.0151   47.9967 H   0  0  0  0  0  0
   80.8873   63.2950   46.4752 H   0  0  0  0  0  0
   80.8016   62.2102   47.9044 H   0  0  0  0  0  0
   82.0843   63.4636   47.8039 H   0  0  0  0  0  0
   80.4227   63.8357   52.3143 H   0  0  0  0  0  0
   79.5352   61.3235   53.0837 H   0  0  0  0  0  0
   78.4433   62.7493   53.0481 H   0  0  0  0  0  0
   78.8136   60.5479   51.0248 H   0  0  0  0  0  0
   77.2973   61.2761   51.6550 H   0  0  0  0  0  0
   77.4967   63.1863   50.2573 H   0  0  0  0  0  0
   78.3785   62.0140   49.2206 H   0  0  0  0  0  0
   82.1567   62.8719   53.4354 H   0  0  0  0  0  0
   83.8297   61.1854   51.5311 H   0  0  0  0  0  0
   84.4277   62.9288   53.9554 H   0  0  0  0  0  0
   85.5936   61.6252   53.5455 H   0  0  0  0  0  0
   86.0863   62.5974   51.4780 H   0  0  0  0  0  0
   84.7228   63.7583   51.6177 H   0  0  0  0  0  0
   86.1041   65.6071   51.3774 H   0  0  0  0  0  0
   87.2030   66.1133   52.8492 H   0  0  0  0  0  0
   84.6398   59.1899   51.9494 H   0  0  0  0  0  0
   84.1151   58.2372   54.7577 H   0  0  0  0  0  0
   83.4363   56.6058   52.2253 H   0  0  0  0  0  0
   84.5398   55.1705   53.9585 H   0  0  0  0  0  0
   82.8052   54.7619   53.7325 H   0  0  0  0  0  0
   83.3237   55.7192   55.1613 H   0  0  0  0  0  0
   81.7794   58.2693   52.8839 H   0  0  0  0  0  0
   81.7104   57.5423   54.5251 H   0  0  0  0  0  0
   81.1920   56.5851   53.0963 H   0  0  0  0  0  0
   85.9091   57.5986   55.6883 H   0  0  0  0  0  0
   88.0431   56.7331   53.7481 H   0  0  0  0  0  0
   88.0669   59.0374   55.7304 H   0  0  0  0  0  0
   89.6158   58.1928   55.3928 H   0  0  0  0  0  0
   89.8842   59.8201   54.1844 H   0  0  0  0  0  0
   87.6902   60.9040   54.8411 H   0  0  0  0  0  0
   86.9713   60.2114   53.3478 H   0  0  0  0  0  0
   88.3157   61.3969   53.2310 H   0  0  0  0  0  0
   89.9845   58.0737   52.5212 H   0  0  0  0  0  0
   89.6842   59.7079   51.8385 H   0  0  0  0  0  0
   88.3397   58.5223   51.9553 H   0  0  0  0  0  0
   89.3118   56.0728   55.9991 H   0  0  0  0  0  0
   87.6935   57.2431   57.5281 H   0  0  0  0  0  0
   87.8443   53.8808   56.3303 H   0  0  0  0  0  0
   87.0704   54.4223   54.8024 H   0  0  0  0  0  0
   90.1140   53.3280   56.3985 H   0  0  0  0  0  0
   91.0812   52.8198   53.5617 H   0  0  0  0  0  0
   92.9086   54.0543   55.7526 H   0  0  0  0  0  0
   94.0411   52.4248   54.3556 H   0  0  0  0  0  0
   94.6226   54.1056   54.1040 H   0  0  0  0  0  0
   93.5321   53.3425   52.8977 H   0  0  0  0  0  0
   91.3339   55.6659   54.7523 H   0  0  0  0  0  0
   91.9576   55.2345   53.1239 H   0  0  0  0  0  0
   93.0481   55.9977   54.3302 H   0  0  0  0  0  0
   91.7070   50.7562   53.2836 H   0  0  0  0  0  0
   92.6313   49.3940   55.8599 H   0  0  0  0  0  0
   91.2491   47.8569   53.6033 H   0  0  0  0  0  0
   91.3146   47.4626   55.3546 H   0  0  0  0  0  0
   90.0155   49.9355   55.2021 H   0  0  0  0  0  0
   89.3520   48.9554   53.8509 H   0  0  0  0  0  0
   87.6007   45.9795   55.6602 H   0  0  0  0  0  0
   89.1008   46.0018   54.6724 H   0  0  0  0  0  0
   87.6731   46.9634   54.1591 H   0  0  0  0  0  0
   94.1502   47.6848   55.8476 H   0  0  0  0  0  0
   95.9190   48.0494   53.5068 H   0  0  0  0  0  0
   96.3684   47.3684   56.1268 H   0  0  0  0  0  0
   96.6439   45.8040   55.2883 H   0  0  0  0  0  0
   97.8615   49.4872   53.9786 H   0  0  0  0  0  0
  101.1844   46.8717   54.3413 H   0  0  0  0  0  0
   97.0647   44.8499   51.0480 H   0  0  0  0  0  0
   93.3469   44.7624   49.5381 H   0  0  0  0  0  0
   95.0293   42.7624   52.0882 H   0  0  0  0  0  0
   96.5153   42.4619   51.1248 H   0  0  0  0  0  0
   96.3902   42.3811   54.0567 H   0  0  0  0  0  0
   97.9070   42.4715   53.0986 H   0  0  0  0  0  0
   98.1768   44.8057   53.5905 H   0  0  0  0  0  0
   96.9163   44.5784   54.8499 H   0  0  0  0  0  0
  1  2  2  0  0  0
  1  3  1  0  0  0
  1  4  1  0  0  0
  3 76  1  0  0  0
  3 77  1  0  0  0
  3 78  1  0  0  0
  4  5  1  0  0  0
  4 79  1  0  0  0
  5  6  1  0  0  0
  5  8  1  0  0  0
  5 80  1  0  0  0
  6  7  2  0  0  0
  6  9  1  0  0  0
  8 81  1  0  0  0
  8 82  1  0  0  0
  8 83  1  0  0  0
  9 10  1  0  0  0
  9 15  1  0  0  0
 10 11  1  0  0  0
 10 13  1  0  0  0
 10 84  1  0  0  0
 11 12  2  0  0  0
 11 16  1  0  0  0
 13 14  1  0  0  0
 13 85  1  0  0  0
 13 86  1  0  0  0
 14 15  1  0  0  0
 14 87  1  0  0  0
 14 88  1  0  0  0
 15 89  1  0  0  0
 15 90  1  0  0  0
 16 17  1  0  0  0
 16 91  1  0  0  0
 17 18  1  0  0  0
 17 20  1  0  0  0
 17 92  1  0  0  0
 18 19  2  0  0  0
 18 25  1  0  0  0
 20 21  1  0  0  0
 20 93  1  0  0  0
 20 94  1  0  0  0
 21 22  1  0  0  0
 21 95  1  0  0  0
 21 96  1  0  0  0
 22 23  2  0  0  0
 22 24  1  0  0  0
 24 97  1  0  0  0
 24 98  1  0  0  0
 25 26  1  0  0  0
 25 99  1  0  0  0
 26 27  1  0  0  0
 26 29  1  0  0  0
 26100  1  0  0  0
 27 28  2  0  0  0
 27 32  1  0  0  0
 29 30  1  0  0  0
 29 31  1  0  0  0
 29101  1  0  0  0
 30102  1  0  0  0
 30103  1  0  0  0
 30104  1  0  0  0
 31105  1  0  0  0
 31106  1  0  0  0
 31107  1  0  0  0
 32 33  1  0  0  0
 32108  1  0  0  0
 33 34  1  0  0  0
 33 38  1  0  0  0
 33109  1  0  0  0
 34 35  1  0  0  0
 34110  1  0  0  0
 34111  1  0  0  0
 35 36  1  0  0  0
 35 37  1  0  0  0
 35112  1  0  0  0
 36113  1  0  0  0
 36114  1  0  0  0
 36115  1  0  0  0
 37116  1  0  0  0
 37117  1  0  0  0
 37118  1  0  0  0
 38 39  1  0  0  0
 38 40  1  0  0  0
 38119  1  0  0  0
 39120  1  0  0  0
 40 41  1  0  0  0
 40121  1  0  0  0
 40122  1  0  0  0
 41 42  2  0  0  0
 41 43  1  0  0  0
 43 44  1  0  0  0
 43123  1  0  0  0
 44 45  1  0  0  0
 44 47  1  0  0  0
 44124  1  0  0  0
 45 46  2  0  0  0
 45 50  1  0  0  0
 47 48  1  0  0  0
 47 49  1  0  0  0
 47125  1  0  0  0
 48126  1  0  0  0
 48127  1  0  0  0
 48128  1  0  0  0
 49129  1  0  0  0
 49130  1  0  0  0
 49131  1  0  0  0
 50 51  1  0  0  0
 50132  1  0  0  0
 51 52  1  0  0  0
 51 54  1  0  0  0
 51133  1  0  0  0
 52 53  2  0  0  0
 52 58  1  0  0  0
 54 55  1  0  0  0
 54134  1  0  0  0
 54135  1  0  0  0
 55 56  1  0  0  0
 55136  1  0  0  0
 55137  1  0  0  0
 56 57  1  0  0  0
 57138  1  0  0  0
 57139  1  0  0  0
 57140  1  0  0  0
 58 59  1  0  0  0
 58141  1  0  0  0
 59 60  1  0  0  0
 59 62  1  0  0  0
 59142  1  0  0  0
 60 61  2  0  0  0
 60 68  1  0  0  0
 62 63  1  0  0  0
 62143  1  0  0  0
 62144  1  0  0  0
 63 64  2  0  0  0
 63 65  1  0  0  0
 64 66  1  0  0  0
 65 67  2  0  0  0
 65145  1  0  0  0
 66 67  1  0  0  0
 66146  1  0  0  0
 68 69  1  0  0  0
 68 74  1  0  0  0
 69 70  1  0  0  0
 69 72  1  0  0  0
 69147  1  0  0  0
 70 71  1  0  0  0
 70 75  2  0  0  0
 71148  1  0  0  0
 72 73  1  0  0  0
 72149  1  0  0  0
 72150  1  0  0  0
 73 74  1  0  0  0
 73151  1  0  0  0
 73152  1  0  0  0
 74153  1  0  0  0
 74154  1  0  0  0
M  END
> <s_m_source_file>
../2b7f_ligand.sdf

> <i_m_source_file_index>
1

> <s_epik_input>
Tz1DKFtDSDNdKVtOSF1bQ0BASF0oW0NIM10pQyg9TylOMVtDQEBIXShbQ0gyXVtDSDJdW0NIMl0xKUMoPU8pW05IXVtDQEBIXShbQ0gyXVtDSDJdQyg9TylbTkgyXSlDKD1PKVtOSF1bQ0BASF0oW0NIXShbQ0gzXSlbQ0gzXSlDKD1PKVtOSF1bQ0BASF0oW0NIMl1bQ0hdKFtDSDNdKVtDSDNdKVtDQEBIXShbT0hdKVtDSDJdQyg9TylbTkhdW0NAQEhdKFtDSF0oW0NIM10pW0NIM10pQyg9TylbTkhdW0NAQEhdKFtDSDJdW0NIMl1TW0NIM10pQyg9TylbTkhdW0NASF0oQyg9TylOMltDQEhdKEMoPU8pW09IXSlbQ0gyXVtDSDJdW0NIMl0yKVtDSDJdQzM9TltDSDJdTj1bQ0hdMw==

> <s_epik_cmdline>
J2VwaWtfYXBwJywgJy1pbWFlJywgJ2xpZ2FuZF9wcm8ubWFlJywgJy1vbWFlJywgJ2xpZ2FuZF9wcmVwLm1hZScsICctbXMnLCAnMScsICctcGgnLCAnNycsICctcGh0JywgJzAuNScsICctbnQn

> <s_epik_pKa_notes>
Molecule size exceeds maximum supported for generating protonation states

> <s_epik_Chemistry_Notes>
This compound has an imine and may undergo hydrolysis.

$$$$
