2b8l_ligand
                    3D
 Schrodinger Suite 2020-3.
 80 83  0  0  1  0            999 V2000
   26.3510   36.1890    2.5230 C   0  0  0  0  0  0
   27.6740   35.5740    2.2480 C   0  0  0  0  0  0
   26.6870   34.8080    3.0100 C   0  0  0  0  0  0
   28.7390   36.1050    3.1150 N   0  3  0  0  0  0
   29.4720   37.1040    2.3060 C   0  0  0  0  0  0
   30.8030   37.5220    2.9770 C   0  0  2  0  0  0
   31.5650   38.4160    2.0240 C   0  0  1  0  0  0
   30.8790   39.7120    2.0350 N   0  0  0  0  0  0
   30.1950   40.1720    0.9560 C   0  0  0  0  0  0
   29.8870   39.4610    0.0010 O   0  0  0  0  0  0
   31.4810   36.2790    3.1410 O   0  0  0  0  0  0
   33.0760   38.5650    2.3680 C   0  0  0  0  0  0
   29.8320   41.5880    1.0060 C   0  0  0  0  0  0
   30.7330   42.5670    1.4570 C   0  0  0  0  0  0
   30.3830   43.9310    1.5110 C   0  0  0  0  0  0
   29.0920   44.2990    1.0720 C   0  0  0  0  0  0
   28.1320   43.3290    0.6230 C   0  0  0  0  0  0
   28.5300   41.9660    0.5900 C   0  0  0  0  0  0
   31.3360   44.9360    2.0430 C   0  0  0  0  0  0
   26.7880   43.6240    0.3260 N   0  0  0  0  0  0
   31.4420   46.0700    1.6050 O   0  0  0  0  0  0
   26.1150   42.9320   -0.8000 C   0  0  0  0  0  0
   25.9620   44.8620    1.0060 S   0  0  0  0  0  0
   26.3100   46.3310    0.0220 C   0  0  0  0  0  0
   24.5520   44.5630    0.9080 O   0  0  0  0  0  0
   26.4980   45.1150    2.3010 O   0  0  0  0  0  0
   33.7200   40.0050    0.3100 C   0  0  0  0  0  0
   34.4600   41.0710   -0.2550 C   0  0  0  0  0  0
   35.2490   41.8810    0.5760 C   0  0  0  0  0  0
   35.3150   41.6660    1.9560 C   0  0  0  0  0  0
   34.5650   40.5900    2.5280 C   0  0  0  0  0  0
   33.7790   39.7520    1.7110 C   0  0  0  0  0  0
   32.1030   44.5090    3.0840 N   0  0  0  0  0  0
   33.0780   45.2910    3.8410 C   0  0  2  0  0  0
   34.4390   44.5080    3.8880 C   0  0  0  0  0  0
   32.5470   45.6460    5.1880 C   0  0  0  0  0  0
   32.1710   44.6650    6.1520 C   0  0  0  0  0  0
   31.7740   45.0460    7.4420 C   0  0  0  0  0  0
   31.6940   46.4230    7.7970 C   0  0  0  0  0  0
   31.9930   47.3820    6.8210 C   0  0  0  0  0  0
   32.4230   47.0030    5.5410 C   0  0  0  0  0  0
   26.4901   37.1154    3.0995 H   0  0  0  0  0  0
   25.8496   36.4209    1.5718 H   0  0  0  0  0  0
   28.2678   35.3928    1.3399 H   0  0  0  0  0  0
   26.6188   34.7796    4.1075 H   0  0  0  0  0  0
   25.9784   34.0850    2.5798 H   0  0  0  0  0  0
   28.2896   36.5699    4.0049 H   0  0  0  0  0  0
   29.4023   35.2843    3.4255 H   0  0  0  0  0  0
   29.7020   36.6784    1.3181 H   0  0  0  0  0  0
   28.8504   38.0030    2.1822 H   0  0  0  0  0  0
   30.7305   38.0325    3.9487 H   0  0  0  0  0  0
   31.5162   37.9894    1.0113 H   0  0  0  0  0  0
   30.9094   40.3427    2.9357 H   0  0  0  0  0  0
   31.0623   35.5074    3.8038 H   0  0  0  0  0  0
   33.1938   38.6934    3.4541 H   0  0  0  0  0  0
   33.6164   37.6631    2.0447 H   0  0  0  0  0  0
   31.7306   42.2631    1.7740 H   0  0  0  0  0  0
   28.8150   45.3532    1.0739 H   0  0  0  0  0  0
   27.8303   41.2057    0.2428 H   0  0  0  0  0  0
   26.7617   42.1241   -1.1730 H   0  0  0  0  0  0
   25.9226   43.6511   -1.6098 H   0  0  0  0  0  0
   25.1616   42.5076   -0.4523 H   0  0  0  0  0  0
   25.9162   46.1924   -0.9957 H   0  0  0  0  0  0
   27.3971   46.4922   -0.0243 H   0  0  0  0  0  0
   25.8291   47.2051    0.4854 H   0  0  0  0  0  0
   33.1021   39.3747   -0.3295 H   0  0  0  0  0  0
   34.4174   41.2613   -1.3274 H   0  0  0  0  0  0
   35.8233   42.6961    0.1358 H   0  0  0  0  0  0
   35.9289   42.3088    2.5870 H   0  0  0  0  0  0
   34.6017   40.4169    3.6035 H   0  0  0  0  0  0
   31.9275   43.4534    3.3388 H   0  0  0  0  0  0
   33.1940   46.2589    3.3314 H   0  0  0  0  0  0
   34.7673   44.2815    2.8628 H   0  0  0  0  0  0
   34.3029   43.5694    4.4452 H   0  0  0  0  0  0
   35.1997   45.1248    4.3888 H   0  0  0  0  0  0
   32.1923   43.6087    5.8837 H   0  0  0  0  0  0
   31.5247   44.2823    8.1787 H   0  0  0  0  0  0
   31.4068   46.7235    8.8046 H   0  0  0  0  0  0
   31.8898   48.4404    7.0602 H   0  0  0  0  0  0
   32.6652   47.7719    4.8074 H   0  0  0  0  0  0
  1  2  1  0  0  0
  1  3  1  0  0  0
  1 42  1  0  0  0
  1 43  1  0  0  0
  2  3  1  0  0  0
  2  4  1  0  0  0
  2 44  1  0  0  0
  3 45  1  0  0  0
  3 46  1  0  0  0
  4  5  1  0  0  0
  4 47  1  0  0  0
  4 48  1  0  0  0
  5  6  1  0  0  0
  5 49  1  0  0  0
  5 50  1  0  0  0
  6  7  1  0  0  0
  6 11  1  0  0  0
  6 51  1  0  0  0
  7  8  1  0  0  0
  7 12  1  0  0  0
  7 52  1  0  0  0
  8  9  1  0  0  0
  8 53  1  0  0  0
  9 10  2  0  0  0
  9 13  1  0  0  0
 11 54  1  0  0  0
 12 32  1  0  0  0
 12 55  1  0  0  0
 12 56  1  0  0  0
 13 14  2  0  0  0
 13 18  1  0  0  0
 14 15  1  0  0  0
 14 57  1  0  0  0
 15 16  2  0  0  0
 15 19  1  0  0  0
 16 17  1  0  0  0
 16 58  1  0  0  0
 17 18  2  0  0  0
 17 20  1  0  0  0
 18 59  1  0  0  0
 19 21  2  0  0  0
 19 33  1  0  0  0
 20 22  1  0  0  0
 20 23  1  0  0  0
 22 60  1  0  0  0
 22 61  1  0  0  0
 22 62  1  0  0  0
 23 24  1  0  0  0
 23 25  2  0  0  0
 23 26  2  0  0  0
 24 63  1  0  0  0
 24 64  1  0  0  0
 24 65  1  0  0  0
 27 28  2  0  0  0
 27 32  1  0  0  0
 27 66  1  0  0  0
 28 29  1  0  0  0
 28 67  1  0  0  0
 29 30  2  0  0  0
 29 68  1  0  0  0
 30 31  1  0  0  0
 30 69  1  0  0  0
 31 32  2  0  0  0
 31 70  1  0  0  0
 33 34  1  0  0  0
 33 71  1  0  0  0
 34 35  1  0  0  0
 34 36  1  0  0  0
 34 72  1  0  0  0
 35 73  1  0  0  0
 35 74  1  0  0  0
 35 75  1  0  0  0
 36 37  2  0  0  0
 36 41  1  0  0  0
 37 38  1  0  0  0
 37 76  1  0  0  0
 38 39  2  0  0  0
 38 77  1  0  0  0
 39 40  1  0  0  0
 39 78  1  0  0  0
 40 41  2  0  0  0
 40 79  1  0  0  0
 41 80  1  0  0  0
M  CHG  1   4   1
M  END
> <s_m_source_file>
../2b8l_ligand.sdf

> <i_m_source_file_index>
1

> <s_epik_input>
W2NIXTFbY0hdW2NIXVtjSF1bY0hdYzFbQ0gyXVtDQEBIXShbQ0BIXShbT0hdKVtDSDJdW05IMitdW0NIXTJbQ0gyXVtDSDJdMilbTkhdQyg9TyljM1tjSF1jKFtjSF1jKFtjSF0zKU4oW0NIM10pUyg9TykoPU8pW0NIM10pQyg9TylbTkhdW0NASF0oW0NIM10pYzRbY0hdW2NIXVtjSF1bY0hdW2NIXTQ=

> <s_epik_cmdline>
J2VwaWtfYXBwJywgJy1pbWFlJywgJ2xpZ2FuZF9wcm8ubWFlJywgJy1vbWFlJywgJ2xpZ2FuZF9wcmVwLm1hZScsICctbXMnLCAnMScsICctcGgnLCAnNycsICctcGh0JywgJzAuNScsICctbnQn

> <r_lp_tautomer_probability>
1

> <r_epik_Ionization_Penalty>
  0.0021

> <r_epik_Ionization_Penalty_Charging>
  0.0021

> <r_epik_Ionization_Penalty_Neutral>
  0.0000

> <r_epik_State_Penalty>
 -0.0000

> <r_epik_Charging_Adjusted_Penalty>
0.00208216025952337

> <i_epik_Tot_Q>
1

> <i_epik_Tot_abs_Q>
1

$$$$
