2b8v_ligand
                    3D
 Schrodinger Suite 2020-3.
 72 75  0  0  1  0            999 V2000
   26.7390   36.0650    2.7320 C   0  0  0  0  0  0
   28.0150   35.2090    2.6140 C   0  0  0  0  0  0
   26.7110   34.6590    3.1270 C   0  0  0  0  0  0
   28.7740   36.2310    3.1570 N   0  3  0  0  0  0
   29.5950   37.1820    2.4740 C   0  0  0  0  0  0
   31.0020   37.4510    3.0310 C   0  0  2  0  0  0
   31.7630   38.4030    2.0850 C   0  0  1  0  0  0
   31.0740   39.6990    2.0660 N   0  0  0  0  0  0
   30.3750   40.1420    1.0100 C   0  0  0  0  0  0
   30.0950   39.4110    0.0510 O   0  0  0  0  0  0
   31.7010   36.3200    3.1110 O   0  0  0  0  0  0
   33.2020   38.6230    2.5760 C   0  0  0  0  0  0
   29.9760   41.5550    1.1000 C   0  0  0  0  0  0
   30.8890   42.6020    1.4720 C   0  0  0  0  0  0
   30.4740   43.9840    1.5270 C   0  0  0  0  0  0
   29.1110   44.2850    1.1950 C   0  0  0  0  0  0
   28.1560   43.2540    0.8260 C   0  0  0  0  0  0
   28.6300   41.8950    0.7870 C   0  0  0  0  0  0
   31.3850   45.1240    1.8380 C   0  0  0  0  0  0
   26.8220   43.5060    0.5190 N   0  0  0  0  0  0
   31.2360   46.2030    1.2640 O   0  0  0  0  0  0
   26.1510   42.7980   -0.6070 C   0  0  0  0  0  0
   32.3570   44.2730    4.0630 C   0  0  0  0  0  0
   33.5360   44.0570    4.8720 C   0  0  0  0  0  0
   34.7950   44.6010    4.3970 C   0  0  0  0  0  0
   34.9050   45.4720    3.2410 C   0  0  0  0  0  0
   33.7210   45.6780    2.4320 C   0  0  0  0  0  0
   32.4780   45.0090    2.8100 C   0  0  0  0  0  0
   25.9900   44.7670    1.1370 S   0  0  0  0  0  0
   26.3160   46.1850    0.0880 C   0  0  0  0  0  0
   24.6060   44.4540    1.0320 O   0  0  0  0  0  0
   26.5170   45.0760    2.4240 O   0  0  0  0  0  0
   33.9150   39.7060    0.2790 C   0  0  0  0  0  0
   34.6130   40.7760   -0.4050 C   0  0  0  0  0  0
   35.3000   41.7660    0.3950 C   0  0  0  0  0  0
   35.3550   41.7400    1.8520 C   0  0  0  0  0  0
   34.6370   40.6790    2.5310 C   0  0  0  0  0  0
   33.9280   39.6770    1.7550 C   0  0  0  0  0  0
   26.9254   36.9092    3.4121 H   0  0  0  0  0  0
   26.4616   36.4485    1.7390 H   0  0  0  0  0  0
   28.8032   34.6342    2.1058 H   0  0  0  0  0  0
   26.4350   34.5820    4.1890 H   0  0  0  0  0  0
   25.9712   34.1211    2.5160 H   0  0  0  0  0  0
   28.1186   36.9212    3.7085 H   0  0  0  0  0  0
   29.5215   35.8075    3.8440 H   0  0  0  0  0  0
   29.7562   36.8500    1.4378 H   0  0  0  0  0  0
   29.0960   38.1623    2.4715 H   0  0  0  0  0  0
   30.9629   37.7811    4.0796 H   0  0  0  0  0  0
   31.7709   37.9965    1.0629 H   0  0  0  0  0  0
   31.1168   40.3576    2.9460 H   0  0  0  0  0  0
   31.3384   35.4926    3.7386 H   0  0  0  0  0  0
   33.1849   38.9554    3.6244 H   0  0  0  0  0  0
   33.7637   37.6804    2.4994 H   0  0  0  0  0  0
   31.9195   42.3461    1.7185 H   0  0  0  0  0  0
   28.7804   45.3233    1.2205 H   0  0  0  0  0  0
   27.9361   41.1017    0.5090 H   0  0  0  0  0  0
   26.7880   41.9698   -0.9509 H   0  0  0  0  0  0
   25.9854   43.5019   -1.4360 H   0  0  0  0  0  0
   25.1842   42.3996   -0.2655 H   0  0  0  0  0  0
   31.3890   43.8901    4.3861 H   0  0  0  0  0  0
   33.4809   43.5030    5.8091 H   0  0  0  0  0  0
   35.7058   44.3419    4.9367 H   0  0  0  0  0  0
   35.8488   45.9559    2.9895 H   0  0  0  0  0  0
   33.7568   46.3228    1.5539 H   0  0  0  0  0  0
   25.9248   45.9917   -0.9218 H   0  0  0  0  0  0
   27.4007   46.3593    0.0338 H   0  0  0  0  0  0
   25.8224   47.0735    0.5087 H   0  0  0  0  0  0
   33.3897   38.9362   -0.2863 H   0  0  0  0  0  0
   34.6201   40.8333   -1.4935 H   0  0  0  0  0  0
   35.8071   42.5805   -0.1223 H   0  0  0  0  0  0
   35.9151   42.4904    2.4099 H   0  0  0  0  0  0
   34.6294   40.6336    3.6200 H   0  0  0  0  0  0
  1  2  1  0  0  0
  1  3  1  0  0  0
  1 39  1  0  0  0
  1 40  1  0  0  0
  2  3  1  0  0  0
  2  4  1  0  0  0
  2 41  1  0  0  0
  3 42  1  0  0  0
  3 43  1  0  0  0
  4  5  1  0  0  0
  4 44  1  0  0  0
  4 45  1  0  0  0
  5  6  1  0  0  0
  5 46  1  0  0  0
  5 47  1  0  0  0
  6  7  1  0  0  0
  6 11  1  0  0  0
  6 48  1  0  0  0
  7  8  1  0  0  0
  7 12  1  0  0  0
  7 49  1  0  0  0
  8  9  1  0  0  0
  8 50  1  0  0  0
  9 10  2  0  0  0
  9 13  1  0  0  0
 11 51  1  0  0  0
 12 38  1  0  0  0
 12 52  1  0  0  0
 12 53  1  0  0  0
 13 14  2  0  0  0
 13 18  1  0  0  0
 14 15  1  0  0  0
 14 54  1  0  0  0
 15 16  2  0  0  0
 15 19  1  0  0  0
 16 17  1  0  0  0
 16 55  1  0  0  0
 17 18  2  0  0  0
 17 20  1  0  0  0
 18 56  1  0  0  0
 19 21  2  0  0  0
 19 28  1  0  0  0
 20 22  1  0  0  0
 20 29  1  0  0  0
 22 57  1  0  0  0
 22 58  1  0  0  0
 22 59  1  0  0  0
 23 24  2  0  0  0
 23 28  1  0  0  0
 23 60  1  0  0  0
 24 25  1  0  0  0
 24 61  1  0  0  0
 25 26  2  0  0  0
 25 62  1  0  0  0
 26 27  1  0  0  0
 26 63  1  0  0  0
 27 28  2  0  0  0
 27 64  1  0  0  0
 29 30  1  0  0  0
 29 31  2  0  0  0
 29 32  2  0  0  0
 30 65  1  0  0  0
 30 66  1  0  0  0
 30 67  1  0  0  0
 33 34  2  0  0  0
 33 38  1  0  0  0
 33 68  1  0  0  0
 34 35  1  0  0  0
 34 69  1  0  0  0
 35 36  2  0  0  0
 35 70  1  0  0  0
 36 37  1  0  0  0
 36 71  1  0  0  0
 37 38  2  0  0  0
 37 72  1  0  0  0
M  CHG  1   4   1
M  END
> <s_m_source_file>
../2b8v_ligand.sdf

> <i_m_source_file_index>
1

> <s_epik_input>
W2NIXTFbY0hdW2NIXVtjSF1bY0hdYzFbQ0gyXVtDQEBIXShbQ0BIXShbT0hdKVtDSDJdW05IMitdW0NIXTJbQ0gyXVtDSDJdMilbTkhdQyg9TyljM1tjSF1jKFtjSF1jKFtjSF0zKU4oW0NIM10pUyg9TykoPU8pW0NIM10pQyg9TyljNFtjSF1bY0hdW2NIXVtjSF1bY0hdNA==

> <s_epik_cmdline>
J2VwaWtfYXBwJywgJy1pbWFlJywgJ2xpZ2FuZF9wcm8ubWFlJywgJy1vbWFlJywgJ2xpZ2FuZF9wcmVwLm1hZScsICctbXMnLCAnMScsICctcGgnLCAnNycsICctcGh0JywgJzAuNScsICctbnQn

> <r_lp_tautomer_probability>
1

> <r_epik_Ionization_Penalty>
  0.0021

> <r_epik_Ionization_Penalty_Charging>
  0.0021

> <r_epik_Ionization_Penalty_Neutral>
  0.0000

> <r_epik_State_Penalty>
 -0.0000

> <r_epik_Charging_Adjusted_Penalty>
0.00208216025952337

> <i_epik_Tot_Q>
1

> <i_epik_Tot_abs_Q>
1

$$$$
