2b9a_ligand
                    3D
 Schrodinger Suite 2020-3.
 24 25  0  0  1  0            999 V2000
   22.7340   82.8840   59.9470 F   0  0  0  0  0  0
   22.0950   83.8580   59.2630 C   0  0  0  0  0  0
   21.4220   84.8600   59.9560 C   0  0  0  0  0  0
   20.7760   85.8670   59.2660 C   0  0  0  0  0  0
   20.1340   86.8450   59.9490 F   0  0  0  0  0  0
   20.7900   85.8590   57.8660 C   0  0  0  0  0  0
   22.0990   83.8580   57.8580 C   0  0  0  0  0  0
   21.4450   84.8600   57.1350 C   0  0  0  0  0  0
   21.4350   84.8890   55.7250 C   0  0  0  0  0  0
   21.4260   86.1190   55.0720 C   0  0  0  0  0  0
   21.4250   86.2080   53.6830 C   0  0  0  0  0  0
   21.4240   83.7290   54.9180 C   0  0  0  0  0  0
   21.3970   83.8130   53.5140 C   0  0  0  0  0  0
   21.4070   85.0670   52.8960 C   0  0  0  0  0  0
   21.4230   85.2230   51.3940 C   0  0  0  0  0  0
   20.4420   85.7630   50.8460 O   0  0  0  0  0  0
   22.3720   84.7990   50.6870 O   0  5  0  0  0  0
   21.4047   84.8499   61.0458 H   0  0  0  0  0  0
   20.2751   86.6551   57.3282 H   0  0  0  0  0  0
   22.6203   83.0641   57.3232 H   0  0  0  0  0  0
   21.4196   87.0347   55.6633 H   0  0  0  0  0  0
   21.4386   87.1887   53.2074 H   0  0  0  0  0  0
   21.4367   82.7483   55.3935 H   0  0  0  0  0  0
   21.3684   82.9053   52.9112 H   0  0  0  0  0  0
  1  2  1  0  0  0
  2  3  2  0  0  0
  2  7  1  0  0  0
  3  4  1  0  0  0
  3 18  1  0  0  0
  4  5  1  0  0  0
  4  6  2  0  0  0
  6  8  1  0  0  0
  6 19  1  0  0  0
  7  8  2  0  0  0
  7 20  1  0  0  0
  8  9  1  0  0  0
  9 10  2  0  0  0
  9 12  1  0  0  0
 10 11  1  0  0  0
 10 21  1  0  0  0
 11 14  2  0  0  0
 11 22  1  0  0  0
 12 13  2  0  0  0
 12 23  1  0  0  0
 13 14  1  0  0  0
 13 24  1  0  0  0
 14 15  1  0  0  0
 15 16  2  0  0  0
 15 17  1  0  0  0
M  CHG  1  17  -1
M  END
> <s_m_source_file>
../2b9a_ligand.sdf

> <i_m_source_file_index>
1

> <s_epik_input>
RmMxW2NIXWMoRilbY0hdYyhbY0hdMSktYzJbY0hdW2NIXWMoW2NIXVtjSF0yKUMoPU8pW09IXQ==

> <s_epik_cmdline>
J2VwaWtfYXBwJywgJy1pbWFlJywgJ2xpZ2FuZF9wcm8ubWFlJywgJy1vbWFlJywgJ2xpZ2FuZF9wcmVwLm1hZScsICctbXMnLCAnMScsICctcGgnLCAnNycsICctcGh0JywgJzAuNScsICctbnQn

> <r_lp_tautomer_probability>
1

> <r_epik_Ionization_Penalty>
  0.0008

> <r_epik_Ionization_Penalty_Charging>
  0.0008

> <r_epik_Ionization_Penalty_Neutral>
  0.0000

> <r_epik_State_Penalty>
 -0.0000

> <r_epik_Charging_Adjusted_Penalty>
0.000764535556354292

> <i_epik_Tot_Q>
-1

> <i_epik_Tot_abs_Q>
1

$$$$
