2baj_ligand
                    3D
 Schrodinger Suite 2020-3.
 47 49  0  0  1  0            999 V2000
   13.8160   -0.5000   29.2140 O   0  0  0  0  0  0
   13.2860   -1.2990   29.9740 C   0  0  0  0  0  0
   13.8730   -2.4580   30.2840 N   0  0  0  0  0  0
   15.0720   -2.8530   29.7870 C   0  0  0  0  0  0
   15.2190   -4.1800   29.4920 C   0  0  0  0  0  0
   13.8770   -5.3050   29.7430 Cl  0  0  0  0  0  0
   16.4860   -4.7090   28.9280 C   0  0  0  0  0  0
   16.5830   -6.4680   28.6080 Cl  0  0  0  0  0  0
   17.5510   -3.8320   28.7160 C   0  0  0  0  0  0
   17.3600   -2.4730   29.0370 C   0  0  0  0  0  0
   16.1470   -1.9880   29.5490 C   0  0  0  0  0  0
   12.1000   -1.0550   30.5370 N   0  0  0  0  0  0
   11.3770    0.0560   30.3120 C   0  0  0  0  0  0
   11.1570    0.7740   29.1300 C   0  0  0  0  0  0
   10.2720    1.7720   29.5650 C   0  0  0  0  0  0
    9.6910    2.8450   28.6660 C   0  0  0  0  0  0
    8.6200    2.1560   27.8200 C   0  0  0  0  0  0
   10.8080    3.4610   27.8240 C   0  0  0  0  0  0
    9.0550    3.9330   29.5310 C   0  0  0  0  0  0
    9.9100    1.7040   30.8550 N   0  0  0  0  0  0
   10.6260    0.5800   31.3080 N   0  0  0  0  0  0
   10.5510    0.2340   32.6440 C   0  0  0  0  0  0
   11.6520   -0.1180   33.4260 C   0  0  0  0  0  0
    9.3470    0.2210   33.3770 C   0  0  0  0  0  0
    9.2290   -0.1010   34.7700 C   0  0  0  0  0  0
   10.3760   -0.4190   35.5210 C   0  0  0  0  0  0
   11.6060   -0.3870   34.8280 C   0  0  0  0  0  0
   13.3819   -3.1546   30.9794 H   0  0  0  0  0  0
   18.5003   -4.1869   28.3149 H   0  0  0  0  0  0
   18.1827   -1.7749   28.8822 H   0  0  0  0  0  0
   16.0402   -0.9248   29.7641 H   0  0  0  0  0  0
   11.6598   -1.7861   31.2311 H   0  0  0  0  0  0
   11.5657    0.6026   28.1342 H   0  0  0  0  0  0
    9.0872    1.3754   27.2016 H   0  0  0  0  0  0
    8.1338    2.8975   27.1690 H   0  0  0  0  0  0
    7.8684    1.6994   28.4808 H   0  0  0  0  0  0
   11.2689    2.6815   27.1996 H   0  0  0  0  0  0
   11.5693    3.8971   28.4875 H   0  0  0  0  0  0
   10.3896    4.2477   27.1790 H   0  0  0  0  0  0
    8.2502    3.4942   30.1390 H   0  0  0  0  0  0
    8.6387    4.7192   28.8840 H   0  0  0  0  0  0
    9.8184    4.3685   30.1924 H   0  0  0  0  0  0
   12.6195   -0.1933   32.9297 H   0  0  0  0  0  0
    8.4320    0.4761   32.8424 H   0  0  0  0  0  0
    8.2492   -0.0994   35.2476 H   0  0  0  0  0  0
   10.3181   -0.6757   36.5788 H   0  0  0  0  0  0
   12.5334   -0.5702   35.3707 H   0  0  0  0  0  0
  1  2  2  0  0  0
  2  3  1  0  0  0
  2 12  1  0  0  0
  3  4  1  0  0  0
  3 28  1  0  0  0
  4  5  2  0  0  0
  4 11  1  0  0  0
  5  6  1  0  0  0
  5  7  1  0  0  0
  7  8  1  0  0  0
  7  9  2  0  0  0
  9 10  1  0  0  0
  9 29  1  0  0  0
 10 11  2  0  0  0
 10 30  1  0  0  0
 11 31  1  0  0  0
 12 13  1  0  0  0
 12 32  1  0  0  0
 13 14  2  0  0  0
 13 21  1  0  0  0
 14 15  1  0  0  0
 14 33  1  0  0  0
 15 16  1  0  0  0
 15 20  2  0  0  0
 16 17  1  0  0  0
 16 18  1  0  0  0
 16 19  1  0  0  0
 17 34  1  0  0  0
 17 35  1  0  0  0
 17 36  1  0  0  0
 18 37  1  0  0  0
 18 38  1  0  0  0
 18 39  1  0  0  0
 19 40  1  0  0  0
 19 41  1  0  0  0
 19 42  1  0  0  0
 20 21  1  0  0  0
 21 22  1  0  0  0
 22 23  2  0  0  0
 22 24  1  0  0  0
 23 27  1  0  0  0
 23 43  1  0  0  0
 24 25  2  0  0  0
 24 44  1  0  0  0
 25 26  1  0  0  0
 25 45  1  0  0  0
 26 27  2  0  0  0
 26 46  1  0  0  0
 27 47  1  0  0  0
M  END
> <s_m_source_file>
../2baj_ligand.sdf

> <i_m_source_file_index>
1

> <s_epik_input>
W2NIXTFbY0hdW2NIXWMoQ2wpYyhDbCljMVtOSF1DKD1PKVtOSF1jMltjSF1jKEMoW0NIM10pKFtDSDNdKVtDSDNdKW5uMi1jM1tjSF1bY0hdW2NIXVtjSF1bY0hdMw==

> <s_epik_cmdline>
J2VwaWtfYXBwJywgJy1pbWFlJywgJ2xpZ2FuZF9wcm8ubWFlJywgJy1vbWFlJywgJ2xpZ2FuZF9wcmVwLm1hZScsICctbXMnLCAnMScsICctcGgnLCAnNycsICctcGh0JywgJzAuNScsICctbnQn

> <r_lp_tautomer_probability>
1

> <r_epik_Ionization_Penalty>
  0.0000

> <r_epik_Ionization_Penalty_Charging>
  0.0000

> <r_epik_Ionization_Penalty_Neutral>
  0.0000

> <r_epik_State_Penalty>
 -0.0000

> <r_epik_Charging_Adjusted_Penalty>
0

> <i_epik_Tot_Q>
0

> <i_epik_Tot_abs_Q>
0

$$$$
