2bal_ligand
                    3D
 Schrodinger Suite 2020-3.
 50 53  0  0  1  0            999 V2000
   -3.4720   -1.8760   19.8050 N   0  0  0  0  0  0
   -3.2090   -0.7670   20.5380 C   0  0  0  0  0  0
   -2.7450   -0.6820   21.8380 C   0  0  0  0  0  0
   -2.6450    0.7020   22.0820 C   0  0  0  0  0  0
   -3.0140    1.4410   21.0360 N   0  0  0  0  0  0
   -3.3480    0.5360   20.0700 N   0  0  0  0  0  0
   -3.8560    0.9580   18.8210 C   0  0  0  0  0  0
   -3.1310    1.5570   17.7900 C   0  0  0  0  0  0
   -3.7900    1.9150   16.6150 C   0  0  0  0  0  0
   -5.1490    1.6710   16.4640 C   0  0  0  0  0  0
   -5.7650    2.0290   15.3300 F   0  0  0  0  0  0
   -5.8820    1.0610   17.4730 C   0  0  0  0  0  0
   -5.2360    0.7080   18.6530 C   0  0  0  0  0  0
   -2.4700   -1.8390   22.6650 C   0  0  0  0  0  0
   -2.8650   -2.9540   22.3220 O   0  0  0  0  0  0
   -1.7400   -1.7020   23.9480 C   0  0  0  0  0  0
   -0.6230   -0.8560   24.0650 C   0  0  0  0  0  0
    0.0410   -0.7510   25.2950 C   0  0  0  0  0  0
   -0.4020   -1.4910   26.3870 C   0  0  0  0  0  0
   -1.5050   -2.3350   26.2710 C   0  0  0  0  0  0
   -1.8710   -3.0090   27.4110 O   0  0  0  0  0  0
   -3.2360   -2.8040   27.8010 C   0  0  0  0  0  0
   -3.7740   -4.1230   28.3590 C   0  0  0  0  0  0
   -3.2380   -4.4370   29.7580 C   0  0  0  0  0  0
   -2.2840   -3.4430   30.2770 N   0  3  0  0  0  0
   -2.7700   -2.0620   30.2230 C   0  0  0  0  0  0
   -3.2870   -1.6700   28.8380 C   0  0  0  0  0  0
   -2.1810   -2.4520   25.0530 C   0  0  0  0  0  0
   -3.3368   -2.8734   20.2487 H   0  0  0  0  0  0
   -3.8207   -1.7788   18.7663 H   0  0  0  0  0  0
   -2.3020    1.1239   23.0267 H   0  0  0  0  0  0
   -2.0628    1.7426   17.9021 H   0  0  0  0  0  0
   -3.2337    2.3908   15.8073 H   0  0  0  0  0  0
   -6.9457    0.8621   17.3426 H   0  0  0  0  0  0
   -5.8002    0.2338   19.4560 H   0  0  0  0  0  0
   -0.2754   -0.2850   23.2040 H   0  0  0  0  0  0
    0.9026   -0.0910   25.3959 H   0  0  0  0  0  0
    0.1182   -1.4099   27.3414 H   0  0  0  0  0  0
   -3.8107   -2.5152   26.9086 H   0  0  0  0  0  0
   -4.8711   -4.0739   28.4225 H   0  0  0  0  0  0
   -3.4818   -4.9489   27.6938 H   0  0  0  0  0  0
   -4.0754   -4.4823   30.4698 H   0  0  0  0  0  0
   -2.7173   -5.4058   29.7423 H   0  0  0  0  0  0
   -2.0591   -3.6659   31.3304 H   0  0  0  0  0  0
   -1.3561   -3.4827   29.6876 H   0  0  0  0  0  0
   -3.5961   -1.9358   30.9383 H   0  0  0  0  0  0
   -1.9515   -1.3748   30.4832 H   0  0  0  0  0  0
   -2.6710   -0.8275   28.4906 H   0  0  0  0  0  0
   -4.3273   -1.3357   28.9650 H   0  0  0  0  0  0
   -3.0399   -3.1168   24.9608 H   0  0  0  0  0  0
  1  2  1  0  0  0
  1 29  1  0  0  0
  1 30  1  0  0  0
  2  3  2  0  0  0
  2  6  1  0  0  0
  3  4  1  0  0  0
  3 14  1  0  0  0
  4  5  2  0  0  0
  4 31  1  0  0  0
  5  6  1  0  0  0
  6  7  1  0  0  0
  7  8  2  0  0  0
  7 13  1  0  0  0
  8  9  1  0  0  0
  8 32  1  0  0  0
  9 10  2  0  0  0
  9 33  1  0  0  0
 10 11  1  0  0  0
 10 12  1  0  0  0
 12 13  2  0  0  0
 12 34  1  0  0  0
 13 35  1  0  0  0
 14 15  2  0  0  0
 14 16  1  0  0  0
 16 17  2  0  0  0
 16 28  1  0  0  0
 17 18  1  0  0  0
 17 36  1  0  0  0
 18 19  2  0  0  0
 18 37  1  0  0  0
 19 20  1  0  0  0
 19 38  1  0  0  0
 20 21  1  0  0  0
 20 28  2  0  0  0
 21 22  1  0  0  0
 22 23  1  0  0  0
 22 27  1  0  0  0
 22 39  1  0  0  0
 23 24  1  0  0  0
 23 40  1  0  0  0
 23 41  1  0  0  0
 24 25  1  0  0  0
 24 42  1  0  0  0
 24 43  1  0  0  0
 25 26  1  0  0  0
 25 44  1  0  0  0
 25 45  1  0  0  0
 26 27  1  0  0  0
 26 46  1  0  0  0
 26 47  1  0  0  0
 27 48  1  0  0  0
 27 49  1  0  0  0
 28 50  1  0  0  0
M  CHG  1  25   1
M  END
> <s_m_source_file>
../2bal_ligand.sdf

> <i_m_source_file_index>
1

> <s_epik_input>
W2NIXTFbY0hdYyhGKVtjSF1bY0hdYzEtbjJuW2NIXWMoYzJbTkgyXSlDKD1PKWMzW2NIXVtjSF1bY0hdYyhbY0hdMylPW0NIXTRbQ0gyXVtDSDJdW05IMitdW0NIMl1bQ0gyXTQ=

> <s_epik_cmdline>
J2VwaWtfYXBwJywgJy1pbWFlJywgJ2xpZ2FuZF9wcm8ubWFlJywgJy1vbWFlJywgJ2xpZ2FuZF9wcmVwLm1hZScsICctbXMnLCAnMScsICctcGgnLCAnNycsICctcGh0JywgJzAuNScsICctbnQn

> <r_lp_tautomer_probability>
1

> <r_epik_Ionization_Penalty>
  0.0025

> <r_epik_Ionization_Penalty_Charging>
  0.0023

> <r_epik_Ionization_Penalty_Neutral>
  0.0002

> <r_epik_State_Penalty>
 -0.0000

> <r_epik_Charging_Adjusted_Penalty>
0.00233358860961355

> <i_epik_Tot_Q>
1

> <i_epik_Tot_abs_Q>
1

$$$$
