2ban_ligand
                    3D
 Schrodinger Suite 2020-3.
 52 53  0  0  1  0            999 V2000
  144.0250  -25.4270   70.8470 C   0  0  0  0  0  0
  144.9720  -25.0850   71.8610 C   0  0  0  0  0  0
  144.7620  -25.5750   73.1950 C   0  0  0  0  0  0
  143.6280  -26.4190   73.4760 C   0  0  0  0  0  0
  144.1700  -25.0110   69.6430 O   0  0  0  0  0  0
  143.3770  -26.9830   74.8940 C   0  0  0  0  0  0
  142.3510  -26.1440   75.6740 C   0  0  0  0  0  0
  145.2800  -24.1140   75.2780 C   0  0  0  0  0  0
  145.7880  -25.1930   74.2870 C   0  0  0  0  0  0
  142.7250  -26.7080   72.3990 C   0  0  0  0  0  0
  141.4920  -27.5790   72.5940 C   0  0  0  0  0  0
  142.9620  -26.2170   71.1440 N   0  0  0  0  0  0
  146.1040  -24.2510   71.5790 N   0  0  0  0  0  0
  147.1980  -24.8890   70.8460 C   0  0  0  0  0  0
  145.8580  -22.9620   70.8520 C   0  0  0  0  0  0
  144.9630  -22.0110   71.6780 C   0  0  0  0  0  0
  144.7620  -20.8920   71.0080 O   0  0  0  0  0  0
  144.0650  -19.8170   71.3260 C   0  0  0  0  0  0
  145.8380  -24.0870   76.5740 C   0  0  0  0  0  0
  145.4230  -23.1300   77.5330 C   0  0  0  0  0  0
  144.4290  -22.1790   77.1940 C   0  0  0  0  0  0
  143.8520  -22.1890   75.8990 C   0  0  0  0  0  0
  142.7870  -21.1680   75.5380 C   0  0  0  0  0  0
  144.2730  -23.1510   74.9380 C   0  0  0  0  0  0
  142.9929  -28.0109   74.8171 H   0  0  0  0  0  0
  144.3202  -26.9854   75.4599 H   0  0  0  0  0  0
  142.2042  -26.5803   76.6731 H   0  0  0  0  0  0
  141.3938  -26.1386   75.1320 H   0  0  0  0  0  0
  142.7211  -25.1131   75.7748 H   0  0  0  0  0  0
  146.0422  -26.0845   74.8792 H   0  0  0  0  0  0
  146.6977  -24.7963   73.8127 H   0  0  0  0  0  0
  141.4313  -27.8986   73.6448 H   0  0  0  0  0  0
  141.5621  -28.4643   71.9449 H   0  0  0  0  0  0
  140.5916  -27.0035   72.3332 H   0  0  0  0  0  0
  142.2429  -26.4899   70.3576 H   0  0  0  0  0  0
  147.4439  -25.8513   71.3187 H   0  0  0  0  0  0
  148.0822  -24.2349   70.8643 H   0  0  0  0  0  0
  146.8902  -25.0604   69.8039 H   0  0  0  0  0  0
  146.8179  -22.4599   70.6609 H   0  0  0  0  0  0
  145.3564  -23.1704   69.8955 H   0  0  0  0  0  0
  143.9955  -22.4962   71.8742 H   0  0  0  0  0  0
  145.4574  -21.7794   72.6330 H   0  0  0  0  0  0
  144.1306  -19.0828   70.5096 H   0  0  0  0  0  0
  144.4708  -19.3766   72.2487 H   0  0  0  0  0  0
  143.0129  -20.0959   71.4847 H   0  0  0  0  0  0
  146.6026  -24.8160   76.8423 H   0  0  0  0  0  0
  145.8671  -23.1255   78.5284 H   0  0  0  0  0  0
  144.1081  -21.4402   77.9283 H   0  0  0  0  0  0
  142.5966  -20.5154   76.4028 H   0  0  0  0  0  0
  141.8588  -21.6889   75.2604 H   0  0  0  0  0  0
  143.1343  -20.5603   74.6894 H   0  0  0  0  0  0
  143.8295  -23.1558   73.9423 H   0  0  0  0  0  0
  1  2  1  0  0  0
  1  5  2  0  0  0
  1 12  1  0  0  0
  2  3  2  0  0  0
  2 13  1  0  0  0
  3  4  1  0  0  0
  3  9  1  0  0  0
  4  6  1  0  0  0
  4 10  2  0  0  0
  6  7  1  0  0  0
  6 25  1  0  0  0
  6 26  1  0  0  0
  7 27  1  0  0  0
  7 28  1  0  0  0
  7 29  1  0  0  0
  8  9  1  0  0  0
  8 19  2  0  0  0
  8 24  1  0  0  0
  9 30  1  0  0  0
  9 31  1  0  0  0
 10 11  1  0  0  0
 10 12  1  0  0  0
 11 32  1  0  0  0
 11 33  1  0  0  0
 11 34  1  0  0  0
 12 35  1  0  0  0
 13 14  1  0  0  0
 13 15  1  0  0  0
 14 36  1  0  0  0
 14 37  1  0  0  0
 14 38  1  0  0  0
 15 16  1  0  0  0
 15 39  1  0  0  0
 15 40  1  0  0  0
 16 17  1  0  0  0
 16 41  1  0  0  0
 16 42  1  0  0  0
 17 18  1  0  0  0
 18 43  1  0  0  0
 18 44  1  0  0  0
 18 45  1  0  0  0
 19 20  1  0  0  0
 19 46  1  0  0  0
 20 21  2  0  0  0
 20 47  1  0  0  0
 21 22  1  0  0  0
 21 48  1  0  0  0
 22 23  1  0  0  0
 22 24  2  0  0  0
 23 49  1  0  0  0
 23 50  1  0  0  0
 23 51  1  0  0  0
 24 52  1  0  0  0
M  END
> <s_m_source_file>
../2ban_ligand.sdf

> <i_m_source_file_index>
1

> <s_epik_input>
W0NIM11PW0NIMl1bQ0gyXU4oW0NIM10pYyhjMT1PKWMoYyhbQ0gyXVtDSDNdKWMoW0NIM10pW25IXTEpW0NIMl1jMltjSF1bY0hdW2NIXWMoW0NIM10pW2NIXTI=

> <s_epik_cmdline>
J2VwaWtfYXBwJywgJy1pbWFlJywgJ2xpZ2FuZF9wcm8ubWFlJywgJy1vbWFlJywgJ2xpZ2FuZF9wcmVwLm1hZScsICctbXMnLCAnMScsICctcGgnLCAnNycsICctcGh0JywgJzAuNScsICctbnQn

> <r_lp_tautomer_probability>
1

> <r_epik_Ionization_Penalty>
  0.0035

> <r_epik_Ionization_Penalty_Charging>
  0.0000

> <r_epik_Ionization_Penalty_Neutral>
  0.0035

> <r_epik_State_Penalty>
 -0.0000

> <r_epik_Charging_Adjusted_Penalty>
2.44834416906943e-05

> <i_epik_Tot_Q>
0

> <i_epik_Tot_abs_Q>
0

$$$$
