2bb7_ligand
                    3D
 Schrodinger Suite 2020-3.
 25 26  0  0  1  0            999 V2000
   -2.8350    1.5100   10.7030 O   0  0  0  0  0  0
   -4.0670    1.0680   10.0430 S   0  0  0  0  0  0
   -4.9790    0.6440   11.0990 O   0  0  0  0  0  0
   -4.7920    2.2890    9.2690 C   0  0  0  0  0  0
   -3.6400   -0.1290    9.0770 N   0  0  0  0  0  0
   -4.4000   -0.6850    8.1030 C   0  0  0  0  0  0
   -5.7230   -0.2570    7.9080 C   0  0  0  0  0  0
   -3.8470   -1.7050    7.3170 C   0  0  0  0  0  0
   -2.5570   -2.1500    7.4830 N   0  0  0  0  0  0
   -2.0470   -3.1180    6.7060 C   0  0  0  0  0  0
   -2.8090   -3.7120    5.6910 C   0  0  0  0  0  0
   -4.1150   -3.2830    5.4940 C   0  0  0  0  0  0
   -4.6430   -2.2790    6.3080 C   0  0  0  0  0  0
   -5.9560   -1.8430    6.1210 C   0  0  0  0  0  0
   -6.5020   -0.8510    6.9200 C   0  0  0  0  0  0
   -5.0578    3.0748    9.9914 H   0  0  0  0  0  0
   -5.7037    1.9207    8.7759 H   0  0  0  0  0  0
   -4.1076    2.7020    8.5133 H   0  0  0  0  0  0
   -2.6418   -0.5817    9.1703 H   0  0  0  0  0  0
   -6.1381    0.5375    8.5282 H   0  0  0  0  0  0
   -1.0209   -3.4484    6.8674 H   0  0  0  0  0  0
   -2.3837   -4.4977    5.0665 H   0  0  0  0  0  0
   -4.7249   -3.7279    4.7078 H   0  0  0  0  0  0
   -6.5620   -2.2904    5.3332 H   0  0  0  0  0  0
   -7.5360   -0.5379    6.7752 H   0  0  0  0  0  0
  1  2  2  0  0  0
  2  3  2  0  0  0
  2  4  1  0  0  0
  2  5  1  0  0  0
  4 16  1  0  0  0
  4 17  1  0  0  0
  4 18  1  0  0  0
  5  6  1  0  0  0
  5 19  1  0  0  0
  6  7  2  0  0  0
  6  8  1  0  0  0
  7 15  1  0  0  0
  7 20  1  0  0  0
  8  9  2  0  0  0
  8 13  1  0  0  0
  9 10  1  0  0  0
 10 11  2  0  0  0
 10 21  1  0  0  0
 11 12  1  0  0  0
 11 22  1  0  0  0
 12 13  2  0  0  0
 12 23  1  0  0  0
 13 14  1  0  0  0
 14 15  2  0  0  0
 14 24  1  0  0  0
 15 25  1  0  0  0
M  END
> <s_m_source_file>
../2bb7_ligand.sdf

> <i_m_source_file_index>
1

> <s_epik_input>
Tz1TKD1PKShbQ0gzXSlbTkhdYzFbY0hdW2NIXVtjSF1jKGMxMilbY0hdW2NIXVtjSF1uMg==

> <s_epik_cmdline>
J2VwaWtfYXBwJywgJy1pbWFlJywgJ2xpZ2FuZF9wcm8ubWFlJywgJy1vbWFlJywgJ2xpZ2FuZF9wcmVwLm1hZScsICctbXMnLCAnMScsICctcGgnLCAnNycsICctcGh0JywgJzAuNScsICctbnQn

> <r_epik_Ionization_Penalty>
  0.2153

> <r_epik_Ionization_Penalty_Charging>
  0.0000

> <r_epik_Ionization_Penalty_Neutral>
  0.2153

> <r_epik_State_Penalty>
  0.2644

> <r_epik_Charging_Adjusted_Penalty>
0.264414270122281

> <i_epik_Tot_Q>
0

> <i_epik_Tot_abs_Q>
0

$$$$
