2bba_ligand
                    3D
 Schrodinger Suite 2020-3.
223228  0  0  1  0            999 V2000
   43.1640    4.3520   44.0850 N   0  3  0  0  0  0
   42.1320    5.3150   44.4800 C   0  0  2  0  0  0
   40.7510    4.6480   44.1420 C   0  0  0  0  0  0
   40.3220    4.5560   42.9720 O   0  0  0  0  0  0
   42.3560    6.6960   43.8090 C   0  0  0  0  0  0
   41.4590    7.8470   44.4170 C   0  0  0  0  0  0
   41.3130    8.9300   43.8050 O   0  0  0  0  0  0
   40.9060    7.6210   45.6250 N   0  0  0  0  0  0
   40.1020    4.1380   45.1740 N   0  0  0  0  0  0
   38.7680    3.5920   45.0470 C   0  0  2  0  0  0
   37.7700    4.6960   44.6180 C   0  0  0  0  0  0
   37.6350    5.7180   45.3090 O   0  0  0  0  0  0
   38.3210    3.0120   46.4100 C   0  0  0  0  0  0
   36.9780    2.3670   46.3450 C   0  0  0  0  0  0
   36.8340    1.0150   45.9830 C   0  0  0  0  0  0
   35.8500    3.0720   46.6170 C   0  0  0  0  0  0
   35.6090    0.4120   45.8870 C   0  0  0  0  0  0
   34.5780    2.4670   46.5350 C   0  0  0  0  0  0
   34.4660    1.1530   46.1360 C   0  0  0  0  0  0
   33.2030    0.6110   46.0800 O   0  0  0  0  0  0
   37.0690    4.4700   43.5180 N   0  0  0  0  0  0
   36.0580    5.4230   43.0180 C   0  0  2  0  0  0
   34.6440    4.8420   43.1200 C   0  0  0  0  0  0
   33.7220    5.5670   43.4080 O   0  0  0  0  0  0
   36.3580    5.8440   41.5760 C   0  0  0  0  0  0
   37.7060    6.5660   41.4000 C   0  0  0  0  0  0
   38.0710    6.8590   39.9250 C   0  0  0  0  0  0
   37.7400    7.8220   42.1730 C   0  0  0  0  0  0
   34.4680    3.5500   42.8280 N   0  0  0  0  0  0
   33.1960    2.8700   42.8690 C   0  0  2  0  0  0
   33.4090    1.3540   42.8400 C   0  0  0  0  0  0
   34.5430    0.8590   42.6650 O   0  0  0  0  0  0
   32.2610    3.3200   41.7400 C   0  0  0  0  0  0
   32.8040    3.1250   40.3410 C   0  0  0  0  0  0
   32.7320    1.8990   39.7070 C   0  0  0  0  0  0
   33.3930    4.1780   39.6760 C   0  0  0  0  0  0
   33.2050    1.7310   38.4330 C   0  0  0  0  0  0
   33.8590    4.0260   38.3980 C   0  0  0  0  0  0
   33.7800    2.7820   37.7600 C   0  0  0  0  0  0
   32.3130    0.6340   43.0500 N   0  0  0  0  0  0
   32.3540   -0.8150   43.2830 C   0  0  2  0  0  0
   32.3610   -1.5690   41.9750 C   0  0  0  0  0  0
   31.7160   -1.1630   41.0150 O   0  0  0  0  0  0
   31.1300   -1.2720   44.0710 C   0  0  0  0  0  0
   30.9980   -2.6800   44.1180 O   0  0  0  0  0  0
   33.0720   -2.6970   41.9330 N   0  0  0  0  0  0
   32.9370   -3.5290   40.7400 C   0  0  2  0  0  0
   31.5800   -4.2130   40.5960 C   0  0  0  0  0  0
   31.2740   -4.7460   39.5170 O   0  0  0  0  0  0
   34.0240   -4.5710   40.9120 C   0  0  0  0  0  0
   34.3040   -4.6200   42.3590 C   0  0  0  0  0  0
   33.9860   -3.2660   42.9370 C   0  0  0  0  0  0
   30.7750   -4.1920   41.6490 N   0  0  0  0  0  0
   29.4920   -4.9320   41.7310 C   0  0  2  0  0  0
   28.2370   -4.0870   41.8340 C   0  0  0  0  0  0
   27.1680   -4.6300   42.1270 O   0  0  0  0  0  0
   29.5230   -5.7720   43.0050 C   0  0  0  0  0  0
   30.7150   -6.7020   43.0610 C   0  0  0  0  0  0
   31.1480   -7.2250   42.0450 O   0  0  0  0  0  0
   31.2400   -6.9270   44.2630 N   0  0  0  0  0  0
   28.3530   -2.7800   41.6020 N   0  0  0  0  0  0
   27.2400   -1.8670   41.7870 C   0  0  0  0  0  0
   26.6340   -1.3270   40.5000 C   0  0  0  0  0  0
   26.9760   -1.7860   39.4150 O   0  0  0  0  0  0
   25.6680   -0.3720   40.6480 N   0  0  0  0  0  0
   24.9220    0.1500   39.4950 C   0  0  2  0  0  0
   25.7850    0.9750   38.5460 C   0  0  0  0  0  0
   25.4650    1.1060   37.3270 O   0  0  0  0  0  0
   23.8320    1.0390   40.1230 C   0  0  0  0  0  0
   24.2070    1.2500   41.4920 C   0  0  0  0  0  0
   25.1680    0.1790   41.9190 C   0  0  0  0  0  0
   26.8790    1.5150   39.0800 N   0  0  0  0  0  0
   27.8090    2.2450   38.2330 C   0  0  2  0  0  0
   28.5370    1.2920   37.2740 C   0  0  0  0  0  0
   28.5410    1.4820   36.0480 O   0  0  0  0  0  0
   28.8240    3.0710   39.0670 C   0  0  2  0  0  0
   28.0680    4.1390   39.8720 C   0  0  0  0  0  0
   29.7990    3.7610   38.1360 C   0  0  0  0  0  0
   28.8700    4.8200   40.9430 C   0  0  0  0  0  0
   29.1400    0.2390   37.8260 N   0  0  0  0  0  0
   29.7800   -0.7690   36.9940 C   0  0  2  0  0  0
   28.8240   -1.3460   35.9600 C   0  0  0  0  0  0
   29.2250   -1.6300   34.8320 O   0  0  0  0  0  0
   30.3870   -1.8710   37.8470 C   0  0  0  0  0  0
   27.5610   -1.5170   36.3270 N   0  0  0  0  0  0
   26.5610   -2.0760   35.4200 C   0  0  2  0  0  0
   26.2300   -1.1610   34.2400 C   0  0  0  0  0  0
   25.6530   -1.6390   33.2300 O   0  0  0  0  0  0
   25.2820   -2.4280   36.2090 C   0  0  0  0  0  0
   25.4520   -3.6690   37.0740 C   0  0  0  0  0  0
   24.1110   -4.2360   37.5380 C   0  0  0  0  0  0
   23.4490   -3.3700   38.5090 N   0  0  0  0  0  0
   23.6390   -3.3910   39.8190 C   0  0  0  0  0  0
   24.5280   -4.1910   40.3800 N   0  0  0  0  0  0
   22.9560   -2.5470   40.5800 N   0  0  0  0  0  0
   26.6040    0.1190   34.3200 N   0  0  0  0  0  0
   26.3790    1.0270   33.2070 C   0  0  2  0  0  0
   27.1160    0.5450   31.9450 C   0  0  0  0  0  0
   26.7390    0.9280   30.8310 O   0  0  0  0  0  0
   26.7900    2.4470   33.5340 C   0  0  0  0  0  0
   28.2010   -0.2100   32.1130 N   0  0  0  0  0  0
   29.0290   -0.6630   30.9610 C   0  0  2  0  0  0
   28.7890   -2.1290   30.6530 C   0  0  0  0  0  0
   27.8860   -2.7190   31.2460 O   0  0  0  0  0  0
   30.5120   -0.3770   31.2240 C   0  0  0  0  0  0
   30.7350    1.0860   31.4540 C   0  0  0  0  0  0
   30.6440    2.0820   30.5370 C   0  0  0  0  0  0
   31.0540    1.7120   32.6870 C   0  0  0  0  0  0
   30.8780    3.2970   31.1300 N   0  0  0  0  0  0
   31.1570    3.1010   32.4410 C   0  0  0  0  0  0
   31.3240    1.2380   33.9660 C   0  0  0  0  0  0
   31.4360    4.0210   33.4470 C   0  0  0  0  0  0
   31.6300    2.1550   34.9740 C   0  0  0  0  0  0
   31.6840    3.5310   34.7070 C   0  0  0  0  0  0
   29.4550   -2.7300   29.7800 O   0  0  0  0  0  0
   42.9735    3.3875   44.5784 H   0  0  0  0  0  0
   44.1523    4.7293   44.3866 H   0  0  0  0  0  0
   43.1406    4.2166   42.9936 H   0  0  0  0  0  0
   42.2281    5.5064   45.5590 H   0  0  0  0  0  0
   43.4065    6.9978   43.9329 H   0  0  0  0  0  0
   42.1187    6.6257   42.7372 H   0  0  0  0  0  0
   41.0594    6.6549   46.1281 H   0  0  0  0  0  0
   40.3012    8.4027   46.1080 H   0  0  0  0  0  0
   40.6061    4.1366   46.1517 H   0  0  0  0  0  0
   38.8488    2.8130   44.2746 H   0  0  0  0  0  0
   39.0450    2.2527   46.7406 H   0  0  0  0  0  0
   38.2721    3.8205   47.1543 H   0  0  0  0  0  0
   37.7280    0.4281   45.7719 H   0  0  0  0  0  0
   35.9282    4.1209   46.9030 H   0  0  0  0  0  0
   35.5339   -0.6414   45.6171 H   0  0  0  0  0  0
   33.6848    3.0386   46.7871 H   0  0  0  0  0  0
   33.0666   -0.4346   45.7667 H   0  0  0  0  0  0
   37.2607    3.5346   42.9718 H   0  0  0  0  0  0
   36.1390    6.2986   43.6788 H   0  0  0  0  0  0
   36.3812    4.9531   40.9312 H   0  0  0  0  0  0
   35.5743    6.5310   41.2240 H   0  0  0  0  0  0
   38.4712    5.8992   41.8241 H   0  0  0  0  0  0
   38.0458    5.9227   39.3481 H   0  0  0  0  0  0
   39.0808    7.2926   39.8763 H   0  0  0  0  0  0
   37.3459    7.5699   39.5021 H   0  0  0  0  0  0
   37.4806    7.6143   43.2216 H   0  0  0  0  0  0
   37.0149    8.5327   41.7498 H   0  0  0  0  0  0
   38.7498    8.2555   42.1240 H   0  0  0  0  0  0
   35.3766    3.0002   42.5414 H   0  0  0  0  0  0
   32.7558    3.1789   43.8286 H   0  0  0  0  0  0
   31.3208    2.7516   41.7941 H   0  0  0  0  0  0
   32.0470    4.3937   41.8471 H   0  0  0  0  0  0
   32.2909    1.0508   40.2304 H   0  0  0  0  0  0
   33.4890    5.1432   40.1733 H   0  0  0  0  0  0
   33.1249    0.7573   37.9496 H   0  0  0  0  0  0
   34.2937    4.8774   37.8744 H   0  0  0  0  0  0
   34.1669    2.6500   36.7496 H   0  0  0  0  0  0
   31.3487    1.1632   43.0450 H   0  0  0  0  0  0
   33.2856   -0.9913   43.8407 H   0  0  0  0  0  0
   31.2038   -0.9082   45.1065 H   0  0  0  0  0  0
   30.2206   -0.8662   43.6038 H   0  0  0  0  0  0
   30.1544   -3.1356   44.6572 H   0  0  0  0  0  0
   33.0347   -2.8817   39.8560 H   0  0  0  0  0  0
   33.6633   -5.5418   40.5412 H   0  0  0  0  0  0
   34.9150   -4.2689   40.3421 H   0  0  0  0  0  0
   33.6760   -5.3917   42.8280 H   0  0  0  0  0  0
   35.3647   -4.8633   42.5192 H   0  0  0  0  0  0
   34.8735   -2.6230   43.0310 H   0  0  0  0  0  0
   33.4725   -3.3264   43.9079 H   0  0  0  0  0  0
   31.1105   -3.5771   42.4972 H   0  0  0  0  0  0
   29.4486   -5.4801   40.7783 H   0  0  0  0  0  0
   29.5717   -5.1082   43.8808 H   0  0  0  0  0  0
   28.6126   -6.3868   43.0611 H   0  0  0  0  0  0
   30.8159   -6.4330   45.1496 H   0  0  0  0  0  0
   32.0980   -7.6070   44.3699 H   0  0  0  0  0  0
   29.3267   -2.3983   41.2611 H   0  0  0  0  0  0
   26.4304   -2.3804   42.3265 H   0  0  0  0  0  0
   27.5736   -0.9954   42.3693 H   0  0  0  0  0  0
   24.5521   -0.6995   38.9021 H   0  0  0  0  0  0
   23.7806    1.9945   39.5805 H   0  0  0  0  0  0
   22.8600    0.5281   40.0586 H   0  0  0  0  0  0
   24.6870    2.2346   41.5931 H   0  0  0  0  0  0
   23.3102    1.2123   42.1278 H   0  0  0  0  0  0
   24.6741   -0.6175   42.4949 H   0  0  0  0  0  0
   26.0101    0.5832   42.4999 H   0  0  0  0  0  0
   27.0808    1.4110   40.1563 H   0  0  0  0  0  0
   27.1630    2.9259   37.6593 H   0  0  0  0  0  0
   29.3864    2.4125   39.7453 H   0  0  0  0  0  0
   27.7175    4.9302   39.1929 H   0  0  0  0  0  0
   27.2047    3.6773   40.3736 H   0  0  0  0  0  0
   30.3469    3.0056   37.5536 H   0  0  0  0  0  0
   30.5111    4.3562   38.7265 H   0  0  0  0  0  0
   29.2472    4.4223   37.4518 H   0  0  0  0  0  0
   28.2406    5.5616   41.4567 H   0  0  0  0  0  0
   29.7349    5.3251   40.4882 H   0  0  0  0  0  0
   29.2221    4.0722   41.6688 H   0  0  0  0  0  0
   29.1509    0.1361   38.9211 H   0  0  0  0  0  0
   30.5794   -0.2267   36.4678 H   0  0  0  0  0  0
   31.0725   -1.4282   38.5846 H   0  0  0  0  0  0
   30.9421   -2.5692   37.2033 H   0  0  0  0  0  0
   29.5856   -2.4130   38.3704 H   0  0  0  0  0  0
   27.2749   -1.2240   37.3479 H   0  0  0  0  0  0
   27.0481   -2.9720   35.0079 H   0  0  0  0  0  0
   25.0161   -1.5894   36.8694 H   0  0  0  0  0  0
   24.4575   -2.6165   35.5057 H   0  0  0  0  0  0
   25.9723   -4.4487   36.4983 H   0  0  0  0  0  0
   26.0434   -3.4159   37.9662 H   0  0  0  0  0  0
   23.4421   -4.3505   36.6723 H   0  0  0  0  0  0
   24.2711   -5.2166   38.0099 H   0  0  0  0  0  0
   22.7207   -2.6189   38.1694 H   0  0  0  0  0  0
   25.1017   -4.8961   39.7605 H   0  0  0  0  0  0
   22.2127   -1.8752   40.1260 H   0  0  0  0  0  0
   23.1327   -2.5186   41.6653 H   0  0  0  0  0  0
   27.0862    0.4841   35.2388 H   0  0  0  0  0  0
   25.2884    1.0032   33.0656 H   0  0  0  0  0  0
   26.2591    2.7837   34.4367 H   0  0  0  0  0  0
   26.5345    3.1060   32.6911 H   0  0  0  0  0  0
   27.8749    2.4830   33.7118 H   0  0  0  0  0  0
   28.4794   -0.4981   33.1374 H   0  0  0  0  0  0
   28.7001   -0.0868   30.0836 H   0  0  0  0  0  0
   30.8398   -0.9315   32.1156 H   0  0  0  0  0  0
   31.1066   -0.6954   30.3550 H   0  0  0  0  0  0
   30.4175    1.9376   29.4806 H   0  0  0  0  0  0
   31.2973    0.1692   34.1783 H   0  0  0  0  0  0
   31.4571    5.0916   33.2432 H   0  0  0  0  0  0
   31.8299    1.7959   35.9836 H   0  0  0  0  0  0
   31.9269    4.2237   35.5128 H   0  0  0  0  0  0
   29.2613   -3.7934   29.5757 H   0  0  0  0  0  0
  1  2  1  0  0  0
  1116  1  0  0  0
  1117  1  0  0  0
  1118  1  0  0  0
  2  3  1  0  0  0
  2  5  1  0  0  0
  2119  1  0  0  0
  3  4  2  0  0  0
  3  9  1  0  0  0
  5  6  1  0  0  0
  5120  1  0  0  0
  5121  1  0  0  0
  6  7  2  0  0  0
  6  8  1  0  0  0
  8122  1  0  0  0
  8123  1  0  0  0
  9 10  1  0  0  0
  9124  1  0  0  0
 10 11  1  0  0  0
 10 13  1  0  0  0
 10125  1  0  0  0
 11 12  2  0  0  0
 11 21  1  0  0  0
 13 14  1  0  0  0
 13126  1  0  0  0
 13127  1  0  0  0
 14 15  2  0  0  0
 14 16  1  0  0  0
 15 17  1  0  0  0
 15128  1  0  0  0
 16 18  2  0  0  0
 16129  1  0  0  0
 17 19  2  0  0  0
 17130  1  0  0  0
 18 19  1  0  0  0
 18131  1  0  0  0
 19 20  1  0  0  0
 20132  1  0  0  0
 21 22  1  0  0  0
 21133  1  0  0  0
 22 23  1  0  0  0
 22 25  1  0  0  0
 22134  1  0  0  0
 23 24  2  0  0  0
 23 29  1  0  0  0
 25 26  1  0  0  0
 25135  1  0  0  0
 25136  1  0  0  0
 26 27  1  0  0  0
 26 28  1  0  0  0
 26137  1  0  0  0
 27138  1  0  0  0
 27139  1  0  0  0
 27140  1  0  0  0
 28141  1  0  0  0
 28142  1  0  0  0
 28143  1  0  0  0
 29 30  1  0  0  0
 29144  1  0  0  0
 30 31  1  0  0  0
 30 33  1  0  0  0
 30145  1  0  0  0
 31 32  2  0  0  0
 31 40  1  0  0  0
 33 34  1  0  0  0
 33146  1  0  0  0
 33147  1  0  0  0
 34 35  2  0  0  0
 34 36  1  0  0  0
 35 37  1  0  0  0
 35148  1  0  0  0
 36 38  2  0  0  0
 36149  1  0  0  0
 37 39  2  0  0  0
 37150  1  0  0  0
 38 39  1  0  0  0
 38151  1  0  0  0
 39152  1  0  0  0
 40 41  1  0  0  0
 40153  1  0  0  0
 41 42  1  0  0  0
 41 44  1  0  0  0
 41154  1  0  0  0
 42 43  2  0  0  0
 42 46  1  0  0  0
 44 45  1  0  0  0
 44155  1  0  0  0
 44156  1  0  0  0
 45157  1  0  0  0
 46 47  1  0  0  0
 46 52  1  0  0  0
 47 48  1  0  0  0
 47 50  1  0  0  0
 47158  1  0  0  0
 48 49  2  0  0  0
 48 53  1  0  0  0
 50 51  1  0  0  0
 50159  1  0  0  0
 50160  1  0  0  0
 51 52  1  0  0  0
 51161  1  0  0  0
 51162  1  0  0  0
 52163  1  0  0  0
 52164  1  0  0  0
 53 54  1  0  0  0
 53165  1  0  0  0
 54 55  1  0  0  0
 54 57  1  0  0  0
 54166  1  0  0  0
 55 56  2  0  0  0
 55 61  1  0  0  0
 57 58  1  0  0  0
 57167  1  0  0  0
 57168  1  0  0  0
 58 59  2  0  0  0
 58 60  1  0  0  0
 60169  1  0  0  0
 60170  1  0  0  0
 61 62  1  0  0  0
 61171  1  0  0  0
 62 63  1  0  0  0
 62172  1  0  0  0
 62173  1  0  0  0
 63 64  2  0  0  0
 63 65  1  0  0  0
 65 66  1  0  0  0
 65 71  1  0  0  0
 66 67  1  0  0  0
 66 69  1  0  0  0
 66174  1  0  0  0
 67 68  2  0  0  0
 67 72  1  0  0  0
 69 70  1  0  0  0
 69175  1  0  0  0
 69176  1  0  0  0
 70 71  1  0  0  0
 70177  1  0  0  0
 70178  1  0  0  0
 71179  1  0  0  0
 71180  1  0  0  0
 72 73  1  0  0  0
 72181  1  0  0  0
 73 74  1  0  0  0
 73 76  1  0  0  0
 73182  1  0  0  0
 74 75  2  0  0  0
 74 80  1  0  0  0
 76 77  1  0  0  0
 76 78  1  0  0  0
 76183  1  0  0  0
 77 79  1  0  0  0
 77184  1  0  0  0
 77185  1  0  0  0
 78186  1  0  0  0
 78187  1  0  0  0
 78188  1  0  0  0
 79189  1  0  0  0
 79190  1  0  0  0
 79191  1  0  0  0
 80 81  1  0  0  0
 80192  1  0  0  0
 81 82  1  0  0  0
 81 84  1  0  0  0
 81193  1  0  0  0
 82 83  2  0  0  0
 82 85  1  0  0  0
 84194  1  0  0  0
 84195  1  0  0  0
 84196  1  0  0  0
 85 86  1  0  0  0
 85197  1  0  0  0
 86 87  1  0  0  0
 86 89  1  0  0  0
 86198  1  0  0  0
 87 88  2  0  0  0
 87 96  1  0  0  0
 89 90  1  0  0  0
 89199  1  0  0  0
 89200  1  0  0  0
 90 91  1  0  0  0
 90201  1  0  0  0
 90202  1  0  0  0
 91 92  1  0  0  0
 91203  1  0  0  0
 91204  1  0  0  0
 92 93  1  0  0  0
 92205  1  0  0  0
 93 94  2  0  0  0
 93 95  1  0  0  0
 94206  1  0  0  0
 95207  1  0  0  0
 95208  1  0  0  0
 96 97  1  0  0  0
 96209  1  0  0  0
 97 98  1  0  0  0
 97100  1  0  0  0
 97210  1  0  0  0
 98 99  2  0  0  0
 98101  1  0  0  0
100211  1  0  0  0
100212  1  0  0  0
100213  1  0  0  0
101102  1  0  0  0
101214  1  0  0  0
102103  1  0  0  0
102105  1  0  0  0
102215  1  0  0  0
103104  2  0  0  0
103115  1  0  0  0
105106  1  0  0  0
105216  1  0  0  0
105217  1  0  0  0
106107  2  0  0  0
106108  1  0  0  0
107109  1  0  0  0
107218  1  0  0  0
108110  2  0  0  0
108111  1  0  0  0
109110  1  0  0  0
110112  1  0  0  0
111113  2  0  0  0
111219  1  0  0  0
112114  2  0  0  0
112220  1  0  0  0
113114  1  0  0  0
113221  1  0  0  0
114222  1  0  0  0
115223  1  0  0  0
M  CHG  1   1   1
M  END
> <s_m_source_file>
../2bba_ligand.sdf

> <i_m_source_file_index>
1

> <s_epik_input>
W2NIXTFbY0hdYyhbT0hdKVtjSF1bY0hdYzFbQ0gyXVtDQEhdKFtOSF1DKD1PKVtDQEBIXShbTkgzK10pW0NIMl1DKD1PKVtOSDJdKUMoPU8pW05IXVtDQEBIXShbQ0gyXVtDSF0oW0NIM10pW0NIM10pQyg9TylbTkhdW0NAQEhdKFtDSDJdYzJbY0hdW2NIXVtjSF1bY0hdW2NIXTIpQyg9TylbTkhdW0NAQEhdKFtDSDJdW09IXSlDKD1PKU4zW0NAQEhdKFtDSDJdW0NIMl1bQ0gyXTMpQyg9TylbTkhdW0NAQEhdKFtDSDJdQyg9TylbTkgyXSlDKD1PKVtOSF1bQ0gyXUMoPU8pTjRbQ0BASF0oW0NIMl1bQ0gyXVtDSDJdNClDKD1PKVtOSF1bQ0BASF0oW0NAQEhdKFtDSDNdKVtDSDJdW0NIM10pQyg9TylbTkhdW0NAQEhdKFtDSDNdKUMoPU8pW05IXVtDQEBIXShbQ0gyXVtDSDJdW0NIMl1bTkhdL0MoPU5cW0hdKVtOSDJdKUMoPU8pW05IXVtDQEBIXShbQ0gzXSlDKD1PKVtOSF1bQ0BIXShDKD1PKVtPSF0pW0NIMl1jNVtjSF1bbkhdYyhjNTYpW2NIXVtjSF1bY0hdW2NIXTY=

> <s_epik_cmdline>
J2VwaWtfYXBwJywgJy1pbWFlJywgJ2xpZ2FuZF9wcm8ubWFlJywgJy1vbWFlJywgJ2xpZ2FuZF9wcmVwLm1hZScsICctbXMnLCAnMScsICctcGgnLCAnNycsICctcGh0JywgJzAuNScsICctbnQn

> <s_epik_pKa_notes>
Molecule size exceeds maximum supported for generating protonation states

> <s_epik_Chemistry_Notes>
This compound has an imine and may undergo hydrolysis.

$$$$
