2bcd_ligand
                    3D
 Schrodinger Suite 2020-3.
112113  0  0  1  0            999 V2000
   87.2070   54.4500   23.7770 N   0  0  0  0  0  0
   86.6930   55.7060   23.1800 C   0  0  1  0  0  0
   85.1660   55.6720   22.8970 C   0  0  0  0  0  0
   84.7940   56.2680   21.8580 O   0  0  0  0  0  0
   87.0220   56.9230   24.0930 C   0  0  0  0  0  0
   86.1940   56.8640   25.3920 C   0  0  0  0  0  0
   86.2170   58.0520   26.3710 C   0  0  0  0  0  0
   86.9360   59.0310   26.1400 O   0  0  0  0  0  0
   84.3960   55.0890   23.7150 O   0  5  0  0  0  0
   85.3580   57.9160   27.4240 N   0  0  0  0  0  0
   83.9740   58.3600   27.1000 C   0  0  0  0  0  0
   85.5630   57.2160   28.5970 C   0  0  2  0  0  0
   86.6070   56.1050   28.7950 C   0  0  0  0  0  0
   86.2800   55.1450   29.4910 O   0  0  0  0  0  0
   84.5280   56.6470   29.3770 C   0  0  0  0  0  0
   83.0900   56.9530   29.8430 C   0  0  0  0  0  0
   88.3560   53.8380   27.6460 C   0  0  0  0  0  0
   87.7590   54.0900   26.5630 O   0  5  0  0  0  0
   88.6510   52.7140   28.0970 O   0  0  0  0  0  0
   88.7390   55.0460   28.5100 C   0  0  2  0  0  0
   87.8090   56.1720   28.2650 N   0  0  0  0  0  0
   90.1860   55.4360   28.2200 C   0  0  1  0  0  0
   90.3290   55.9480   26.7970 C   0  0  0  0  0  0
   89.8420   57.0170   26.4160 O   0  0  0  0  0  0
   90.7280   56.4510   29.2400 C   0  0  0  0  0  0
   91.3150   55.2940   24.6180 C   0  0  2  0  0  0
   90.6160   54.2490   23.6720 C   0  0  0  0  0  0
   90.4460   54.4850   22.4720 O   0  0  0  0  0  0
   92.8570   55.2330   24.7680 C   0  0  0  0  0  0
   93.5680   56.5320   24.3810 C   0  0  0  0  0  0
   93.5210   53.9680   24.2400 C   0  0  0  0  0  0
   90.9810   55.0850   26.0400 N   0  0  0  0  0  0
   87.4370   53.3660   23.0430 C   0  0  0  0  0  0
   87.2490   53.3230   21.8390 O   0  0  0  0  0  0
   87.9820   52.1350   23.7680 C   0  0  1  0  0  0
   87.1960   50.8670   23.3390 C   0  0  0  0  0  0
   89.5110   52.0460   23.5050 C   0  0  1  0  0  0
   90.1880   53.1260   24.2470 N   0  0  0  0  0  0
   90.0080   50.6620   23.9220 C   0  0  0  0  0  0
   90.9220   49.9030   23.1980 C   0  0  0  0  0  0
   91.3110   48.6290   23.6400 C   0  0  0  0  0  0
   90.6970   48.0150   24.9250 C   0  0  0  0  0  0
   92.2440   47.9010   22.8950 C   0  0  0  0  0  0
   92.6930   46.4780   23.3160 C   0  0  2  0  0  0
   94.2370   46.4670   23.3310 C   0  0  0  0  0  0
   91.8840   45.3630   22.4850 C   0  0  1  0  0  0
   92.0840   45.3580   21.0190 O   0  0  0  0  0  0
   93.2750   44.9230   20.3980 C   0  0  0  0  0  0
   91.6500   43.8540   23.0960 C   0  0  0  0  0  0
   91.2670   42.6350   22.1260 C   0  0  0  0  0  0
   90.5530   42.7320   20.9050 C   0  0  0  0  0  0
   90.2940   41.5890   20.1200 C   0  0  0  0  0  0
   90.6990   40.3160   20.5290 C   0  0  0  0  0  0
   91.3980   40.1860   21.7270 C   0  0  0  0  0  0
   91.6380   41.3290   22.4980 C   0  0  0  0  0  0
   87.4091   54.3968   24.8570 H   0  0  0  0  0  0
   87.2279   55.7631   22.2205 H   0  0  0  0  0  0
   88.0914   56.9098   24.3504 H   0  0  0  0  0  0
   86.7846   57.8557   23.5604 H   0  0  0  0  0  0
   85.1293   56.7439   25.1430 H   0  0  0  0  0  0
   86.5268   56.0102   26.0005 H   0  0  0  0  0  0
   83.9770   58.8998   26.1415 H   0  0  0  0  0  0
   83.6071   59.0261   27.8948 H   0  0  0  0  0  0
   83.3156   57.4821   27.0243 H   0  0  0  0  0  0
   85.7747   58.2747   28.8077 H   0  0  0  0  0  0
   84.2361   55.6773   28.9476 H   0  0  0  0  0  0
   84.8841   56.4995   30.4073 H   0  0  0  0  0  0
   82.7244   56.1269   30.4706 H   0  0  0  0  0  0
   82.4360   57.0640   28.9655 H   0  0  0  0  0  0
   83.0840   57.8863   30.4252 H   0  0  0  0  0  0
   88.6365   54.8105   29.5796 H   0  0  0  0  0  0
   88.1317   57.0293   27.6559 H   0  0  0  0  0  0
   90.7963   54.5253   28.3105 H   0  0  0  0  0  0
   90.6087   56.0484   30.2567 H   0  0  0  0  0  0
   90.1690   57.3942   29.1511 H   0  0  0  0  0  0
   91.7940   56.6364   29.0418 H   0  0  0  0  0  0
   90.9521   56.2316   24.1717 H   0  0  0  0  0  0
   93.0267   55.1364   25.8505 H   0  0  0  0  0  0
   93.0219   57.3886   24.8029 H   0  0  0  0  0  0
   93.5989   56.6206   23.2850 H   0  0  0  0  0  0
   94.5942   56.5203   24.7770 H   0  0  0  0  0  0
   92.9454   53.0888   24.5649 H   0  0  0  0  0  0
   94.5462   53.9007   24.6329 H   0  0  0  0  0  0
   93.5509   54.0010   23.1409 H   0  0  0  0  0  0
   91.2797   54.1540   26.5440 H   0  0  0  0  0  0
   87.8304   52.2315   24.8532 H   0  0  0  0  0  0
   86.1269   51.0073   23.5564 H   0  0  0  0  0  0
   87.5723   49.9964   23.8961 H   0  0  0  0  0  0
   87.3319   50.6988   22.2605 H   0  0  0  0  0  0
   89.7746   52.2057   22.4491 H   0  0  0  0  0  0
   90.3609   53.0256   25.3287 H   0  0  0  0  0  0
   89.5931   50.2725   24.8634 H   0  0  0  0  0  0
   91.3501   50.2997   22.2656 H   0  0  0  0  0  0
   89.9899   48.7298   25.3711 H   0  0  0  0  0  0
   91.4987   47.7943   25.6451 H   0  0  0  0  0  0
   90.1670   47.0854   24.6701 H   0  0  0  0  0  0
   92.6800   48.3360   21.9836 H   0  0  0  0  0  0
   92.4517   46.2274   24.3596 H   0  0  0  0  0  0
   94.6036   47.3003   23.9485 H   0  0  0  0  0  0
   94.6144   46.5781   22.3038 H   0  0  0  0  0  0
   94.5928   45.5148   23.7514 H   0  0  0  0  0  0
   90.9064   45.8663   22.5153 H   0  0  0  0  0  0
   93.1748   45.0167   19.3066 H   0  0  0  0  0  0
   93.4621   43.8712   20.6601 H   0  0  0  0  0  0
   94.1160   45.5422   20.7436 H   0  0  0  0  0  0
   92.5700   43.5131   23.5934 H   0  0  0  0  0  0
   90.8262   43.8771   23.8246 H   0  0  0  0  0  0
   90.1984   43.7058   20.5673 H   0  0  0  0  0  0
   89.7660   41.7015   19.1731 H   0  0  0  0  0  0
   90.4721   39.4399   19.9214 H   0  0  0  0  0  0
   91.7522   39.2099   22.0585 H   0  0  0  0  0  0
   92.1475   41.1990   23.4528 H   0  0  0  0  0  0
  1  2  1  0  0  0
  1 33  1  0  0  0
  1 56  1  0  0  0
  2  3  1  0  0  0
  2  5  1  0  0  0
  2 57  1  0  0  0
  3  4  2  0  0  0
  3  9  1  0  0  0
  5  6  1  0  0  0
  5 58  1  0  0  0
  5 59  1  0  0  0
  6  7  1  0  0  0
  6 60  1  0  0  0
  6 61  1  0  0  0
  7  8  2  0  0  0
  7 10  1  0  0  0
 10 11  1  0  0  0
 10 12  1  0  0  0
 11 62  1  0  0  0
 11 63  1  0  0  0
 11 64  1  0  0  0
 12 13  1  0  0  0
 12 15  1  0  0  0
 12 65  1  0  0  0
 13 14  2  0  0  0
 13 21  1  0  0  0
 15 16  1  0  0  0
 15 66  1  0  0  0
 15 67  1  0  0  0
 16 68  1  0  0  0
 16 69  1  0  0  0
 16 70  1  0  0  0
 17 18  1  0  0  0
 17 19  2  0  0  0
 17 20  1  0  0  0
 20 21  1  0  0  0
 20 22  1  0  0  0
 20 71  1  0  0  0
 21 72  1  0  0  0
 22 23  1  0  0  0
 22 25  1  0  0  0
 22 73  1  0  0  0
 23 24  2  0  0  0
 23 32  1  0  0  0
 25 74  1  0  0  0
 25 75  1  0  0  0
 25 76  1  0  0  0
 26 27  1  0  0  0
 26 29  1  0  0  0
 26 32  1  0  0  0
 26 77  1  0  0  0
 27 28  2  0  0  0
 27 38  1  0  0  0
 29 30  1  0  0  0
 29 31  1  0  0  0
 29 78  1  0  0  0
 30 79  1  0  0  0
 30 80  1  0  0  0
 30 81  1  0  0  0
 31 82  1  0  0  0
 31 83  1  0  0  0
 31 84  1  0  0  0
 32 85  1  0  0  0
 33 34  2  0  0  0
 33 35  1  0  0  0
 35 36  1  0  0  0
 35 37  1  0  0  0
 35 86  1  0  0  0
 36 87  1  0  0  0
 36 88  1  0  0  0
 36 89  1  0  0  0
 37 38  1  0  0  0
 37 39  1  0  0  0
 37 90  1  0  0  0
 38 91  1  0  0  0
 39 40  2  0  0  0
 39 92  1  0  0  0
 40 41  1  0  0  0
 40 93  1  0  0  0
 41 42  1  0  0  0
 41 43  2  0  0  0
 42 94  1  0  0  0
 42 95  1  0  0  0
 42 96  1  0  0  0
 43 44  1  0  0  0
 43 97  1  0  0  0
 44 45  1  0  0  0
 44 46  1  0  0  0
 44 98  1  0  0  0
 45 99  1  0  0  0
 45100  1  0  0  0
 45101  1  0  0  0
 46 47  1  0  0  0
 46 49  1  0  0  0
 46102  1  0  0  0
 47 48  1  0  0  0
 48103  1  0  0  0
 48104  1  0  0  0
 48105  1  0  0  0
 49 50  1  0  0  0
 49106  1  0  0  0
 49107  1  0  0  0
 50 51  2  0  0  0
 50 55  1  0  0  0
 51 52  1  0  0  0
 51108  1  0  0  0
 52 53  2  0  0  0
 52109  1  0  0  0
 53 54  1  0  0  0
 53110  1  0  0  0
 54 55  2  0  0  0
 54111  1  0  0  0
 55112  1  0  0  0
M  CHG  2   9  -1  18  -1
M  END
> <s_m_source_file>
../2bcd_ligand.sdf

> <i_m_source_file_index>
1

> <s_epik_input>
W2NIXTFbY0hdW2NIXVtjSF1bY0hdYzFbQ0gyXVtDQEhdKE9bQ0gzXSlbQ0BASF0oW0NIM10pXFtDSF09QyhbQ0gzXSlcW0NIXT1bQ0hdXFtDQEBIXShbQ0BIXShbQ0gzXSlDKD1PKVtOSF1bQ0BIXTJDKD1PKVtPSF0pW05IXUMoPU8pW0NASF0oW0NIXShbQ0gzXSlbQ0gzXSlbTkhdQyg9TylbQ0BASF0oW0NIM10pW0NASF0oQyg9TylbT0hdKVtOSF1DKD1PKVtDQEhdKFtDSDJdW0NIM10pTihbQ0gzXSlDKD1PKVtDSDJdW0NIMl0y

> <s_epik_cmdline>
J2VwaWtfYXBwJywgJy1pbWFlJywgJ2xpZ2FuZF9wcm8ubWFlJywgJy1vbWFlJywgJ2xpZ2FuZF9wcmVwLm1hZScsICctbXMnLCAnMScsICctcGgnLCAnNycsICctcGh0JywgJzAuNScsICctbnQn

> <r_lp_tautomer_probability>
1

> <r_epik_Ionization_Penalty>
  0.0004

> <r_epik_Ionization_Penalty_Charging>
  0.0004

> <r_epik_Ionization_Penalty_Neutral>
  0.0000

> <r_epik_State_Penalty>
 -0.0000

> <r_epik_Charging_Adjusted_Penalty>
0.000442174825017023

> <i_epik_Tot_Q>
-2

> <i_epik_Tot_abs_Q>
2

$$$$
