2bdf_ligand
                    3D
 Schrodinger Suite 2020-3.
 60 63  0  0  1  0            999 V2000
    8.6020   18.6840   -6.7830 C   0  0  0  0  0  0
    8.9730   17.5690   -5.8340 C   0  0  0  0  0  0
   10.3010   17.0590   -6.1720 N   0  0  0  0  0  0
   10.4900   16.3270   -7.2360 C   0  0  0  0  0  0
    9.7260   15.8550   -8.2220 N   0  0  0  0  0  0
   10.3260   15.1250   -9.1640 C   0  0  0  0  0  0
   11.6440   14.8620   -9.1460 N   0  0  0  0  0  0
   12.5050   15.2970   -8.1920 C   0  0  0  0  0  0
   11.8560   16.0660   -7.2050 C   0  0  0  0  0  0
   12.4190   16.6300   -6.1420 N   0  0  0  0  0  0
   11.4240   17.2610   -5.4890 C   0  0  0  0  0  0
   13.8420   15.0240   -8.2340 N   0  0  0  0  0  0
   14.5680   14.3750   -9.1980 C   0  0  0  0  0  0
   15.9510   14.5140   -9.1220 C   0  0  0  0  0  0
   16.8080   13.8560  -10.0380 C   0  0  0  0  0  0
   16.2850   13.0500  -11.0500 C   0  0  0  0  0  0
   14.9000   12.9110  -11.1360 C   0  0  0  0  0  0
   14.0490   13.5710  -10.2160 C   0  0  0  0  0  0
   17.2610   12.3270  -12.0670 P   0  0  2  0  0  0
   18.5680   12.9570  -12.4000 O   0  0  0  0  0  0
   16.6500   11.8840  -13.4900 O   0  5  0  0  0  0
   17.7680   10.9400  -11.6400 C   0  0  0  0  0  0
   18.7620    9.8300  -12.1310 P   0  0  0  0  0  0
   18.0670    8.7510  -12.9150 O   0  0  0  0  0  0
   19.3920    9.1770  -10.7720 O   0  5  0  0  0  0
   20.0440   10.5320  -12.9000 O   0  0  0  0  0  0
    8.1110   12.1160  -13.4640 N   0  3  0  0  0  0
    9.0130   12.8280  -12.5800 C   0  0  1  0  0  0
    9.1440   14.3530  -12.7560 C   0  0  0  0  0  0
   10.0040   14.9720  -11.6430 C   0  0  0  0  0  0
    9.4530   14.5780  -10.2630 C   0  0  1  0  0  0
    9.3150   13.0630  -10.1150 C   0  0  0  0  0  0
    8.4280   12.4880  -11.2130 C   0  0  0  0  0  0
    7.6028   19.0661   -6.5270 H   0  0  0  0  0  0
    8.5949   18.3008   -7.8141 H   0  0  0  0  0  0
    9.3381   19.4971   -6.6991 H   0  0  0  0  0  0
    8.9801   17.9522   -4.8029 H   0  0  0  0  0  0
    8.2369   16.7559   -5.9179 H   0  0  0  0  0  0
   11.5218   17.8339   -4.5669 H   0  0  0  0  0  0
   14.4944   15.3416   -7.4073 H   0  0  0  0  0  0
   16.3829   15.1415   -8.3424 H   0  0  0  0  0  0
   17.8874   13.9806   -9.9515 H   0  0  0  0  0  0
   14.4680   12.2881  -11.9192 H   0  0  0  0  0  0
   12.9694   13.4494  -10.3038 H   0  0  0  0  0  0
   18.2456   11.0125  -10.6517 H   0  0  0  0  0  0
   16.9210   10.2401  -11.5875 H   0  0  0  0  0  0
   19.8935   11.0517  -13.8577 H   0  0  0  0  0  0
    8.4193   12.2749  -14.5079 H   0  0  0  0  0  0
    7.0868   12.4917  -13.3229 H   0  0  0  0  0  0
    8.1426   11.0412  -13.2319 H   0  0  0  0  0  0
   10.0287   12.4737  -12.8100 H   0  0  0  0  0  0
    9.6164   14.5710  -13.7252 H   0  0  0  0  0  0
    8.1454   14.8130  -12.7232 H   0  0  0  0  0  0
   11.0384   14.6090  -11.7341 H   0  0  0  0  0  0
    9.9906   16.0680  -11.7359 H   0  0  0  0  0  0
    8.4530   15.0244  -10.1596 H   0  0  0  0  0  0
   10.3087   12.5960  -10.1823 H   0  0  0  0  0  0
    8.8655   12.8294   -9.1386 H   0  0  0  0  0  0
    7.4192   12.9183  -11.1286 H   0  0  0  0  0  0
    8.3711   11.3953  -11.1000 H   0  0  0  0  0  0
  1  2  1  0  0  0
  1 34  1  0  0  0
  1 35  1  0  0  0
  1 36  1  0  0  0
  2  3  1  0  0  0
  2 37  1  0  0  0
  2 38  1  0  0  0
  3  4  1  0  0  0
  3 11  1  0  0  0
  4  5  1  0  0  0
  4  9  2  0  0  0
  5  6  2  0  0  0
  6  7  1  0  0  0
  6 31  1  0  0  0
  7  8  2  0  0  0
  8  9  1  0  0  0
  8 12  1  0  0  0
  9 10  1  0  0  0
 10 11  2  0  0  0
 11 39  1  0  0  0
 12 13  1  0  0  0
 12 40  1  0  0  0
 13 14  2  0  0  0
 13 18  1  0  0  0
 14 15  1  0  0  0
 14 41  1  0  0  0
 15 16  2  0  0  0
 15 42  1  0  0  0
 16 17  1  0  0  0
 16 19  1  0  0  0
 17 18  2  0  0  0
 17 43  1  0  0  0
 18 44  1  0  0  0
 19 20  2  0  0  0
 19 21  1  0  0  0
 19 22  1  0  0  0
 22 23  1  0  0  0
 22 45  1  0  0  0
 22 46  1  0  0  0
 23 24  2  0  0  0
 23 25  1  0  0  0
 23 26  1  0  0  0
 26 47  1  0  0  0
 27 28  1  0  0  0
 27 48  1  0  0  0
 27 49  1  0  0  0
 27 50  1  0  0  0
 28 29  1  0  0  0
 28 33  1  0  0  0
 28 51  1  0  0  0
 29 30  1  0  0  0
 29 52  1  0  0  0
 29 53  1  0  0  0
 30 31  1  0  0  0
 30 54  1  0  0  0
 30 55  1  0  0  0
 31 32  1  0  0  0
 31 56  1  0  0  0
 32 33  1  0  0  0
 32 57  1  0  0  0
 32 58  1  0  0  0
 33 59  1  0  0  0
 33 60  1  0  0  0
M  CHG  3  21  -1  25  -1  27   1
M  END
> <s_m_source_file>
../2bdf_ligand.sdf

> <i_m_source_file_index>
1

> <s_epik_input>
W05IMytdW0NASF0xW0NIMl1bQ0gyXVtDQEBIXShbQ0gyXVtDSDJdMSljKG4yKW5jKGMoYzIzKW5bY0hdbjNbQ0gyXVtDSDNdKVtOSF1jNFtjSF1bY0hdYyhbY0hdW2NIXTQpW1BAXSg9TykoW09IXSlbQ0gyXVAoPU8pKFtPSF0pW09IXQ==

> <s_epik_cmdline>
J2VwaWtfYXBwJywgJy1pbWFlJywgJ2xpZ2FuZF9wcm8ubWFlJywgJy1vbWFlJywgJ2xpZ2FuZF9wcmVwLm1hZScsICctbXMnLCAnMScsICctcGgnLCAnNycsICctcGh0JywgJzAuNScsICctbnQn

> <r_lp_tautomer_probability>
0.999997216410988

> <r_epik_Ionization_Penalty>
  0.1209

> <r_epik_Ionization_Penalty_Charging>
  0.0005

> <r_epik_Ionization_Penalty_Neutral>
  0.1204

> <r_epik_State_Penalty>
  0.1090

> <r_epik_Charging_Adjusted_Penalty>
0.109513687711492

> <i_epik_Tot_Q>
-1

> <i_epik_Tot_abs_Q>
3

$$$$
