2bdj_ligand
                    3D
 Schrodinger Suite 2020-3.
 64 68  0  0  1  0            999 V2000
   17.0690    2.1400   26.1050 N   0  0  0  0  0  0
   18.1970    1.4350   26.2480 C   0  0  0  0  0  0
   19.1170    2.2550   25.7630 N   0  0  0  0  0  0
   18.6500    3.5300   25.2770 C   0  0  0  0  0  0
   19.1210    4.7110   24.7170 C   0  0  0  0  0  0
   20.4280    4.8380   24.5160 N   0  0  0  0  0  0
   18.2230    5.6640   24.4230 N   0  0  0  0  0  0
   16.8940    5.6030   24.6160 C   0  0  0  0  0  0
   16.3710    4.4830   25.1720 N   0  0  0  0  0  0
   17.1600    3.4380   25.5180 C   0  0  0  0  0  0
   15.7220    1.7180   26.5030 C   0  0  0  0  0  0
   15.0720    2.6080   27.4620 C   0  0  0  0  0  0
   13.6770    2.0520   27.8160 C   0  0  0  0  0  0
   13.4000    1.7130   29.1920 C   0  0  0  0  0  0
   12.1030    1.1830   29.5460 C   0  0  0  0  0  0
   11.1000    0.9980   28.5230 C   0  0  0  0  0  0
   11.3660    1.3330   27.1510 C   0  0  0  0  0  0
   12.6510    1.8590   26.7930 C   0  0  0  0  0  0
   10.4090    1.1500   26.2080 O   0  0  0  0  0  0
   21.1460    5.7590   24.0730 C   0  0  0  0  0  0
   22.5510    5.7410   23.9120 C   0  0  0  0  0  0
   23.2150    6.8620   23.4240 C   0  0  0  0  0  0
   22.4780    8.0230   23.0910 C   0  0  0  0  0  0
   21.0780    8.0720   23.2360 C   0  0  0  0  0  0
   20.4090    6.9450   23.7270 C   0  0  0  0  0  0
   23.3330    9.4870   22.4770 P   0  0  0  0  0  0
   24.3630    9.7910   23.5950 O   0  0  0  0  0  0
   23.9430    8.9390   21.1580 C   0  0  0  0  0  0
   22.3830   10.6100   22.1840 C   0  0  0  0  0  0
   15.9510    6.6860   24.2550 C   0  0  0  0  0  0
   16.2520    7.1620   22.7930 C   0  0  0  0  0  0
   16.2990    8.6980   22.7830 C   0  0  0  0  0  0
   16.0220    9.1620   24.2130 C   0  0  0  0  0  0
   16.0690    7.9310   25.1540 C   0  0  0  0  0  0
   18.3266    0.4346   26.6609 H   0  0  0  0  0  0
   21.1056    4.0072   24.7621 H   0  0  0  0  0  0
   15.0743    1.6737   25.6150 H   0  0  0  0  0  0
   15.7724    0.7234   26.9701 H   0  0  0  0  0  0
   15.6831    2.6731   28.3743 H   0  0  0  0  0  0
   14.9661    3.6094   27.0194 H   0  0  0  0  0  0
   14.1629    1.8557   29.9574 H   0  0  0  0  0  0
   11.8823    0.9237   30.5814 H   0  0  0  0  0  0
   10.1240    0.5972   28.7966 H   0  0  0  0  0  0
   12.8633    2.1156   25.7551 H   0  0  0  0  0  0
    9.4264    0.7459   26.4928 H   0  0  0  0  0  0
   23.1158    4.8455   24.1712 H   0  0  0  0  0  0
   24.2977    6.8459   23.2988 H   0  0  0  0  0  0
   20.5247    8.9727   22.9702 H   0  0  0  0  0  0
   19.3259    6.9660   23.8476 H   0  0  0  0  0  0
   24.6367    8.1171   21.3886 H   0  0  0  0  0  0
   24.4871    9.7446   20.6432 H   0  0  0  0  0  0
   23.1372    8.5673   20.5080 H   0  0  0  0  0  0
   21.9595   10.9873   23.1265 H   0  0  0  0  0  0
   21.5714   10.2445   21.5377 H   0  0  0  0  0  0
   22.9214   11.4218   21.6729 H   0  0  0  0  0  0
   14.9637    6.2235   24.4014 H   0  0  0  0  0  0
   17.2198    6.7538   22.4664 H   0  0  0  0  0  0
   15.4579    6.8054   22.1205 H   0  0  0  0  0  0
   17.2931    9.0322   22.4512 H   0  0  0  0  0  0
   15.5335    9.0838   22.0937 H   0  0  0  0  0  0
   16.7864    9.8927   24.5159 H   0  0  0  0  0  0
   15.0278    9.6303   24.2605 H   0  0  0  0  0  0
   15.2311    7.9495   25.8665 H   0  0  0  0  0  0
   17.0195    7.8955   25.7066 H   0  0  0  0  0  0
  1  2  1  0  0  0
  1 10  1  0  0  0
  1 11  1  0  0  0
  2  3  2  0  0  0
  2 35  1  0  0  0
  3  4  1  0  0  0
  4  5  2  0  0  0
  4 10  1  0  0  0
  5  6  1  0  0  0
  5  7  1  0  0  0
  6 20  1  0  0  0
  6 36  1  0  0  0
  7  8  2  0  0  0
  8  9  1  0  0  0
  8 30  1  0  0  0
  9 10  2  0  0  0
 11 12  1  0  0  0
 11 37  1  0  0  0
 11 38  1  0  0  0
 12 13  1  0  0  0
 12 39  1  0  0  0
 12 40  1  0  0  0
 13 14  2  0  0  0
 13 18  1  0  0  0
 14 15  1  0  0  0
 14 41  1  0  0  0
 15 16  2  0  0  0
 15 42  1  0  0  0
 16 17  1  0  0  0
 16 43  1  0  0  0
 17 18  2  0  0  0
 17 19  1  0  0  0
 18 44  1  0  0  0
 19 45  1  0  0  0
 20 21  2  0  0  0
 20 25  1  0  0  0
 21 22  1  0  0  0
 21 46  1  0  0  0
 22 23  2  0  0  0
 22 47  1  0  0  0
 23 24  1  0  0  0
 23 26  1  0  0  0
 24 25  2  0  0  0
 24 48  1  0  0  0
 25 49  1  0  0  0
 26 27  2  0  0  0
 26 28  1  0  0  0
 26 29  1  0  0  0
 28 50  1  0  0  0
 28 51  1  0  0  0
 28 52  1  0  0  0
 29 53  1  0  0  0
 29 54  1  0  0  0
 29 55  1  0  0  0
 30 31  1  0  0  0
 30 34  1  0  0  0
 30 56  1  0  0  0
 31 32  1  0  0  0
 31 57  1  0  0  0
 31 58  1  0  0  0
 32 33  1  0  0  0
 32 59  1  0  0  0
 32 60  1  0  0  0
 33 34  1  0  0  0
 33 61  1  0  0  0
 33 62  1  0  0  0
 34 63  1  0  0  0
 34 64  1  0  0  0
M  END
> <s_m_source_file>
../2bdj_ligand.sdf

> <i_m_source_file_index>
1

> <s_epik_input>
W2NIXTFjKFtPSF0pW2NIXVtjSF1bY0hdYzFbQ0gyXVtDSDJdbihbY0hdbjIpYyhjMjMpbmMoW0NIXTRbQ0gyXVtDSDJdW0NIMl1bQ0gyXTQpbmMzW05IXWM1W2NIXVtjSF1jKFtjSF1bY0hdNSlQKD1PKShbQ0gzXSlbQ0gzXQ==

> <s_epik_cmdline>
J2VwaWtfYXBwJywgJy1pbWFlJywgJ2xpZ2FuZF9wcm8ubWFlJywgJy1vbWFlJywgJ2xpZ2FuZF9wcmVwLm1hZScsICctbXMnLCAnMScsICctcGgnLCAnNycsICctcGh0JywgJzAuNScsICctbnQn

> <r_lp_tautomer_probability>
1

> <r_epik_Ionization_Penalty>
  0.0027

> <r_epik_Ionization_Penalty_Charging>
  0.0000

> <r_epik_Ionization_Penalty_Neutral>
  0.0027

> <r_epik_State_Penalty>
 -0.0000

> <r_epik_Charging_Adjusted_Penalty>
0

> <i_epik_Tot_Q>
0

> <i_epik_Tot_abs_Q>
0

$$$$
