2bdl_ligand
                    3D
 Schrodinger Suite 2020-3.
 80 82  0  0  1  0            999 V2000
   73.6880   93.3360  163.1710 C   0  0  0  0  0  0
   74.8140   94.2470  162.7650 C   0  0  0  0  0  0
   75.4970   94.7630  164.0060 C   0  0  0  0  0  0
   76.9670   94.4400  163.9220 C   0  0  0  0  0  0
   77.7540   95.2610  164.9210 C   0  0  2  0  0  0
   77.8600   96.5960  164.3880 N   0  0  0  0  0  0
   77.3860   97.6910  165.0670 C   0  0  0  0  0  0
   76.7810   97.6850  166.1280 O   0  0  0  0  0  0
   77.7080   98.8080  164.3680 O   0  0  0  0  0  0
   77.2310  100.0130  164.9500 C   0  0  2  0  0  0
   75.8370  100.2550  164.4240 C   0  0  0  0  0  0
   76.0300  101.1070  163.2860 N   0  0  0  0  0  0
   77.3380  101.7040  163.2270 C   0  0  0  0  0  0
   78.0740  101.1610  164.4330 C   0  0  0  0  0  0
   78.2030  102.2490  165.4760 C   0  0  0  0  0  0
   79.4580  100.6890  164.0530 C   0  0  0  0  0  0
   74.9900  101.4140  162.4370 C   0  0  0  0  0  0
   73.8350  101.0580  162.6400 O   0  0  0  0  0  0
   75.3870  102.1560  161.3500 N   0  0  0  0  0  0
   74.7040  102.0470  160.1560 C   0  0  0  0  0  0
   74.6450  100.9520  159.2600 C   0  0  0  0  0  0
   75.3000   99.6420  159.3680 C   0  0  0  0  0  0
   73.8750  101.2310  158.2020 N   0  0  0  0  0  0
   73.4180  102.5330  158.4030 O   0  0  0  0  0  0
   73.9200  103.0140  159.5740 C   0  0  0  0  0  0
   73.5430  104.3850  159.9520 C   0  0  0  0  0  0
   79.1750   94.7640  164.9490 C   0  0  2  0  0  0
   80.0290   95.1870  163.9000 O   0  0  0  0  0  0
   79.2640   93.2730  165.1390 C   0  0  0  0  0  0
   78.8120   92.7640  166.1540 O   0  0  0  0  0  0
   79.8630   92.6270  164.0760 N   0  0  0  0  0  0
   80.0080   91.1840  164.0450 C   0  0  2  0  0  0
   80.8940   90.7620  162.8960 C   0  0  0  0  0  0
   78.7020   90.4690  163.9270 C   0  0  0  0  0  0
   78.5010   89.2980  164.6270 C   0  0  0  0  0  0
   77.3040   88.6240  164.5300 C   0  0  0  0  0  0
   76.2970   89.1200  163.7330 C   0  0  0  0  0  0
   76.4930   90.2870  163.0320 C   0  0  0  0  0  0
   77.6910   90.9590  163.1270 C   0  0  0  0  0  0
   73.1830   92.9540  162.2716 H   0  0  0  0  0  0
   72.9678   93.8951  163.7864 H   0  0  0  0  0  0
   74.0899   92.4928  163.7519 H   0  0  0  0  0  0
   75.5342   93.6879  162.1496 H   0  0  0  0  0  0
   74.4122   95.0902  162.1841 H   0  0  0  0  0  0
   75.3582   95.8520  164.0750 H   0  0  0  0  0  0
   75.0597   94.2808  164.8927 H   0  0  0  0  0  0
   77.1209   93.3728  164.1396 H   0  0  0  0  0  0
   77.3345   94.6645  162.9098 H   0  0  0  0  0  0
   77.2684   95.2498  165.9079 H   0  0  0  0  0  0
   78.3323   96.7612  163.4084 H   0  0  0  0  0  0
   77.2807   99.8887  166.0418 H   0  0  0  0  0  0
   75.3781   99.2947  164.1462 H   0  0  0  0  0  0
   75.2301  100.7397  165.2030 H   0  0  0  0  0  0
   77.8311  101.4146  162.2873 H   0  0  0  0  0  0
   77.2435  102.7991  163.2693 H   0  0  0  0  0  0
   77.2016  102.6027  165.7626 H   0  0  0  0  0  0
   78.7833  103.0868  165.0620 H   0  0  0  0  0  0
   78.7179  101.8486  166.3618 H   0  0  0  0  0  0
   79.3796   99.8966  163.2941 H   0  0  0  0  0  0
   79.9683  100.2943  164.9440 H   0  0  0  0  0  0
   80.0337  101.5325  163.6443 H   0  0  0  0  0  0
   76.2481  102.8355  161.4327 H   0  0  0  0  0  0
   75.8855   99.6004  160.2983 H   0  0  0  0  0  0
   75.9686   99.4943  158.5071 H   0  0  0  0  0  0
   74.5365   98.8502  159.3795 H   0  0  0  0  0  0
   74.0145  104.6435  160.9116 H   0  0  0  0  0  0
   72.4494  104.4504  160.0514 H   0  0  0  0  0  0
   73.8832  105.0861  159.1756 H   0  0  0  0  0  0
   79.6290   95.3063  165.7915 H   0  0  0  0  0  0
   80.0834   96.2521  163.6307 H   0  0  0  0  0  0
   80.2350   93.2353  163.2384 H   0  0  0  0  0  0
   80.4541   90.9424  165.0210 H   0  0  0  0  0  0
   81.8612   91.2809  162.9690 H   0  0  0  0  0  0
   80.4088   91.0229  161.9439 H   0  0  0  0  0  0
   81.0569   89.6750  162.9387 H   0  0  0  0  0  0
   79.2948   88.9033  165.2612 H   0  0  0  0  0  0
   77.1538   87.6976  165.0844 H   0  0  0  0  0  0
   75.3477   88.5897  163.6578 H   0  0  0  0  0  0
   75.6976   90.6810  162.3994 H   0  0  0  0  0  0
   77.8411   91.8823  162.5675 H   0  0  0  0  0  0
  1  2  1  0  0  0
  1 40  1  0  0  0
  1 41  1  0  0  0
  1 42  1  0  0  0
  2  3  1  0  0  0
  2 43  1  0  0  0
  2 44  1  0  0  0
  3  4  1  0  0  0
  3 45  1  0  0  0
  3 46  1  0  0  0
  4  5  1  0  0  0
  4 47  1  0  0  0
  4 48  1  0  0  0
  5  6  1  0  0  0
  5 27  1  0  0  0
  5 49  1  0  0  0
  6  7  1  0  0  0
  6 50  1  0  0  0
  7  8  2  0  0  0
  7  9  1  0  0  0
  9 10  1  0  0  0
 10 11  1  0  0  0
 10 14  1  0  0  0
 10 51  1  0  0  0
 11 12  1  0  0  0
 11 52  1  0  0  0
 11 53  1  0  0  0
 12 13  1  0  0  0
 12 17  1  0  0  0
 13 14  1  0  0  0
 13 54  1  0  0  0
 13 55  1  0  0  0
 14 15  1  0  0  0
 14 16  1  0  0  0
 15 56  1  0  0  0
 15 57  1  0  0  0
 15 58  1  0  0  0
 16 59  1  0  0  0
 16 60  1  0  0  0
 16 61  1  0  0  0
 17 18  2  0  0  0
 17 19  1  0  0  0
 19 20  1  0  0  0
 19 62  1  0  0  0
 20 21  1  0  0  0
 20 25  2  0  0  0
 21 22  1  0  0  0
 21 23  2  0  0  0
 22 63  1  0  0  0
 22 64  1  0  0  0
 22 65  1  0  0  0
 23 24  1  0  0  0
 24 25  1  0  0  0
 25 26  1  0  0  0
 26 66  1  0  0  0
 26 67  1  0  0  0
 26 68  1  0  0  0
 27 28  1  0  0  0
 27 29  1  0  0  0
 27 69  1  0  0  0
 28 70  1  0  0  0
 29 30  2  0  0  0
 29 31  1  0  0  0
 31 32  1  0  0  0
 31 71  1  0  0  0
 32 33  1  0  0  0
 32 34  1  0  0  0
 32 72  1  0  0  0
 33 73  1  0  0  0
 33 74  1  0  0  0
 33 75  1  0  0  0
 34 35  2  0  0  0
 34 39  1  0  0  0
 35 36  1  0  0  0
 35 76  1  0  0  0
 36 37  2  0  0  0
 36 77  1  0  0  0
 37 38  1  0  0  0
 37 78  1  0  0  0
 38 39  2  0  0  0
 38 79  1  0  0  0
 39 80  1  0  0  0
M  END
> <s_m_source_file>
../2bdl_ligand.sdf

> <i_m_source_file_index>
1

> <s_epik_input>
W2NIXTFbY0hdW2NIXVtjSF1bY0hdYzFbQ0BASF0oW0NIM10pW05IXUMoPU8pW0NAQEhdKFtPSF0pW0NASF0oW0NIMl1bQ0gyXVtDSDJdW0NIM10pW05IXUMoPU8pT1tDQEBIXShDMihbQ0gzXSlbQ0gzXSlbQ0gyXU4oW0NIMl0yKUMoPU8pW05IXWMzYyhbQ0gzXSlub2MzW0NIM10=

> <s_epik_cmdline>
J2VwaWtfYXBwJywgJy1pbWFlJywgJ2xpZ2FuZF9wcm8ubWFlJywgJy1vbWFlJywgJ2xpZ2FuZF9wcmVwLm1hZScsICctbXMnLCAnMScsICctcGgnLCAnNycsICctcGh0JywgJzAuNScsICctbnQn

> <r_lp_tautomer_probability>
1

> <r_epik_Ionization_Penalty>
  0.0000

> <r_epik_Ionization_Penalty_Charging>
  0.0000

> <r_epik_Ionization_Penalty_Neutral>
  0.0000

> <r_epik_State_Penalty>
 -0.0000

> <r_epik_Charging_Adjusted_Penalty>
0

> <i_epik_Tot_Q>
0

> <i_epik_Tot_abs_Q>
0

> <s_epik_Chemistry_Notes>
This compound has an ester and may undergo hydrolysis at high or low pH.

$$$$
