2bdy_ligand
                    3D
 Schrodinger Suite 2020-3.
 63 66  0  0  1  0            999 V2000
   20.7730  -15.7630   25.1970 C   0  0  0  0  0  0
   19.7560  -14.7970   25.2590 C   0  0  0  0  0  0
   22.0820  -15.3890   25.5670 C   0  0  0  0  0  0
   20.4800  -17.0900   24.7620 C   0  0  0  0  0  0
   18.1500  -15.2810   24.7380 S   0  0  0  0  0  0
   20.0510  -13.5120   25.6510 C   0  0  0  0  0  0
   22.3460  -14.0680   25.9880 C   0  0  0  0  0  0
   23.0970  -16.3770   25.5030 C   0  0  0  0  0  0
   21.4850  -18.0050   24.7050 C   0  0  0  0  0  0
   18.2180  -15.5590   23.1080 N   0  0  0  0  0  0
   17.7240  -16.5010   25.3350 O   0  0  0  0  0  0
   17.3620  -14.0810   24.8500 O   0  0  0  0  0  0
   21.3500  -13.1390   26.0200 C   0  0  0  0  0  0
   22.7840  -17.6480   25.0760 C   0  0  0  0  0  0
   18.9290  -14.6790   22.2620 C   0  0  0  0  0  0
   18.3360  -13.4950   21.8220 C   0  0  0  0  0  0
   20.2390  -14.9730   21.8500 C   0  0  0  0  0  0
   19.0350  -12.6410   20.9820 C   0  0  0  0  0  0
   17.0700  -13.1930   22.2140 O   0  0  0  0  0  0
   20.9530  -14.1300   21.0190 C   0  0  0  0  0  0
   20.3370  -12.9520   20.5700 C   0  0  0  0  0  0
   18.3560  -11.3540   20.5110 C   0  0  0  0  0  0
   21.1040  -12.0310   19.6640 C   0  0  0  0  0  0
   17.0430  -11.6320   19.8090 C   0  0  0  0  0  0
   16.0100  -10.8010   20.0620 N   0  0  0  0  0  0
   16.9330  -12.5650   19.0390 O   0  0  0  0  0  0
   14.6970  -10.9980   19.4510 C   0  0  0  0  0  0
   13.7410  -10.8880   20.5970 C   0  0  0  0  0  0
   13.2000   -9.6630   20.9560 C   0  0  0  0  0  0
   13.4110  -12.0140   21.3230 C   0  0  0  0  0  0
   12.3390   -9.5790   22.0380 C   0  0  0  0  0  0
   12.5430  -11.9540   22.3940 C   0  0  0  0  0  0
   11.9680  -10.7180   22.7430 C   0  0  0  0  0  0
   11.0290  -10.6170   23.8790 C   0  0  0  0  0  0
   10.3170  -11.7390   24.2800 N   0  0  0  0  0  0
   10.8500   -9.4770   24.4980 N   0  3  0  0  0  0
   19.4644  -17.3668   24.4791 H   0  0  0  0  0  0
   19.2559  -12.7668   25.6751 H   0  0  0  0  0  0
   23.3554  -13.7887   26.2901 H   0  0  0  0  0  0
   24.1194  -16.1317   25.7903 H   0  0  0  0  0  0
   21.2762  -19.0206   24.3686 H   0  0  0  0  0  0
   17.7077  -16.4332   22.6774 H   0  0  0  0  0  0
   21.5617  -12.1156   26.3297 H   0  0  0  0  0  0
   23.5732  -18.3982   25.0259 H   0  0  0  0  0  0
   20.7073  -15.8944   22.1962 H   0  0  0  0  0  0
   16.5229  -13.8761   22.8804 H   0  0  0  0  0  0
   21.9719  -14.3750   20.7192 H   0  0  0  0  0  0
   18.1529  -10.7082   21.3780 H   0  0  0  0  0  0
   19.0174  -10.8266   19.8079 H   0  0  0  0  0  0
   20.4786  -11.1627   19.4092 H   0  0  0  0  0  0
   21.3793  -12.5673   18.7439 H   0  0  0  0  0  0
   22.0156  -11.6888   20.1757 H   0  0  0  0  0  0
   16.1763   -9.9577   20.7484 H   0  0  0  0  0  0
   14.5249  -10.2198   18.6928 H   0  0  0  0  0  0
   14.6592  -11.9888   18.9746 H   0  0  0  0  0  0
   13.4517   -8.7675   20.3878 H   0  0  0  0  0  0
   13.8462  -12.9736   21.0439 H   0  0  0  0  0  0
   11.9476   -8.6076   22.3402 H   0  0  0  0  0  0
   12.3056  -12.8531   22.9627 H   0  0  0  0  0  0
   10.4648  -12.6982   23.7623 H   0  0  0  0  0  0
    9.6049  -11.6689   25.1155 H   0  0  0  0  0  0
   11.4125   -8.5858   24.1829 H   0  0  0  0  0  0
   10.1371   -9.4106   25.3331 H   0  0  0  0  0  0
  1  2  2  0  0  0
  1  3  1  0  0  0
  1  4  1  0  0  0
  2  5  1  0  0  0
  2  6  1  0  0  0
  3  7  2  0  0  0
  3  8  1  0  0  0
  4  9  2  0  0  0
  4 37  1  0  0  0
  5 10  1  0  0  0
  5 11  2  0  0  0
  5 12  2  0  0  0
  6 13  2  0  0  0
  6 38  1  0  0  0
  7 13  1  0  0  0
  7 39  1  0  0  0
  8 14  2  0  0  0
  8 40  1  0  0  0
  9 14  1  0  0  0
  9 41  1  0  0  0
 10 15  1  0  0  0
 10 42  1  0  0  0
 13 43  1  0  0  0
 14 44  1  0  0  0
 15 16  2  0  0  0
 15 17  1  0  0  0
 16 18  1  0  0  0
 16 19  1  0  0  0
 17 20  2  0  0  0
 17 45  1  0  0  0
 18 21  2  0  0  0
 18 22  1  0  0  0
 19 46  1  0  0  0
 20 21  1  0  0  0
 20 47  1  0  0  0
 21 23  1  0  0  0
 22 24  1  0  0  0
 22 48  1  0  0  0
 22 49  1  0  0  0
 23 50  1  0  0  0
 23 51  1  0  0  0
 23 52  1  0  0  0
 24 25  1  0  0  0
 24 26  2  0  0  0
 25 27  1  0  0  0
 25 53  1  0  0  0
 27 28  1  0  0  0
 27 54  1  0  0  0
 27 55  1  0  0  0
 28 29  2  0  0  0
 28 30  1  0  0  0
 29 31  1  0  0  0
 29 56  1  0  0  0
 30 32  2  0  0  0
 30 57  1  0  0  0
 31 33  2  0  0  0
 31 58  1  0  0  0
 32 33  1  0  0  0
 32 59  1  0  0  0
 33 34  1  0  0  0
 34 35  1  0  0  0
 34 36  2  0  0  0
 35 60  1  0  0  0
 35 61  1  0  0  0
 36 62  1  0  0  0
 36 63  1  0  0  0
M  CHG  1  36   1
M  END
> <s_m_source_file>
../2bdy_ligand.sdf

> <i_m_source_file_index>
1

> <s_epik_input>
W2NIXTFbY0hdW2NIXVtjSF1jKGMxMilbY0hdW2NIXVtjSF1jMlMoPU8pKD1PKVtOSF1jM2MoW09IXSljKGMoW0NIM10pW2NIXVtjSF0zKVtDSDJdQyg9TylbTkhdW0NIMl1jNFtjSF1bY0hdYyhbY0hdW2NIXTQpL0MoW05IMl0pPU5cW0hd

> <s_epik_cmdline>
J2VwaWtfYXBwJywgJy1pbWFlJywgJ2xpZ2FuZF9wcm8ubWFlJywgJy1vbWFlJywgJ2xpZ2FuZF9wcmVwLm1hZScsICctbXMnLCAnMScsICctcGgnLCAnNycsICctcGh0JywgJzAuNScsICctbnQn

> <r_epik_Ionization_Penalty>
  0.2474

> <r_epik_Ionization_Penalty_Charging>
  0.0002

> <r_epik_Ionization_Penalty_Neutral>
  0.2472

> <r_epik_State_Penalty>
  0.2365

> <r_epik_Charging_Adjusted_Penalty>
0.23661661394207

> <i_epik_Tot_Q>
1

> <i_epik_Tot_abs_Q>
1

> <s_epik_Chemistry_Notes>
This compound has an imine and may undergo hydrolysis.

$$$$
