2be2_ligand
                    3D
 Schrodinger Suite 2020-3.
 46 48  0  0  1  0            999 V2000
   50.0430  -24.8530   26.3340 C   0  0  0  0  0  0
   49.3600  -25.1490   25.1100 C   0  0  0  0  0  0
   49.4690  -24.2870   23.9850 C   0  0  0  0  0  0
   50.2670  -23.1040   24.0700 C   0  0  0  0  0  0
   50.9590  -22.7960   25.2790 C   0  0  0  0  0  0
   50.8530  -23.6580   26.3950 C   0  0  0  0  0  0
   49.8920  -25.7870   27.3890 O   0  0  0  0  0  0
   48.7290  -24.6270   22.7140 C   0  0  0  0  0  0
   51.7990  -21.5620   25.3650 C   0  0  0  0  0  0
   52.8340  -25.8690   30.3150 N   0  0  0  0  0  0
   51.6990  -25.1870   30.6560 C   0  0  0  0  0  0
   50.6190  -25.1700   29.6130 C   0  0  0  0  0  0
   50.8530  -25.8090   28.4020 C   0  0  0  0  0  0
   52.0430  -26.4910   28.1310 C   0  0  0  0  0  0
   53.0060  -26.5300   29.0760 C   0  0  0  0  0  0
   54.3560  -27.2340   28.9890 C   0  0  0  0  0  0
   51.6780  -24.6730   31.7770 O   0  0  0  0  0  0
   48.8480  -24.2680   30.0000 I   0  0  0  0  0  0
   52.3150  -27.2160   26.8530 C   0  0  0  0  0  0
   50.9560  -27.8230   25.7860 S   0  0  0  0  0  0
   51.3110  -29.5310   25.4540 C   0  0  0  0  0  0
   51.1490  -30.3590   26.6820 C   0  0  0  0  0  0
   50.6650  -31.5950   26.4330 O   0  0  0  0  0  0
   50.5870  -32.2040   27.6500 C   0  0  0  0  0  0
   51.0170  -31.3780   28.6480 C   0  0  0  0  0  0
   51.3830  -30.1690   28.0130 C   0  0  0  0  0  0
   48.7479  -26.0482   25.0404 H   0  0  0  0  0  0
   50.3468  -22.4374   23.2113 H   0  0  0  0  0  0
   51.3892  -23.4179   27.3131 H   0  0  0  0  0  0
   48.1777  -25.5689   22.8515 H   0  0  0  0  0  0
   49.4487  -24.7403   21.8899 H   0  0  0  0  0  0
   48.0214  -23.8195   22.4745 H   0  0  0  0  0  0
   51.7585  -21.0234   24.4067 H   0  0  0  0  0  0
   52.8399  -21.8416   25.5848 H   0  0  0  0  0  0
   51.4165  -20.9132   26.1667 H   0  0  0  0  0  0
   53.6756  -25.9242   31.0212 H   0  0  0  0  0  0
   54.9123  -27.0771   29.9249 H   0  0  0  0  0  0
   54.9311  -26.8213   28.1470 H   0  0  0  0  0  0
   54.1983  -28.3113   28.8323 H   0  0  0  0  0  0
   52.8908  -26.5658   26.1780 H   0  0  0  0  0  0
   52.8925  -28.1280   27.0645 H   0  0  0  0  0  0
   50.6218  -29.9055   24.6828 H   0  0  0  0  0  0
   52.3472  -29.6276   25.0978 H   0  0  0  0  0  0
   50.2271  -33.2209   27.8063 H   0  0  0  0  0  0
   51.0677  -31.6036   29.7132 H   0  0  0  0  0  0
   51.7724  -29.2692   28.4892 H   0  0  0  0  0  0
  1  2  2  0  0  0
  1  6  1  0  0  0
  1  7  1  0  0  0
  2  3  1  0  0  0
  2 27  1  0  0  0
  3  4  2  0  0  0
  3  8  1  0  0  0
  4  5  1  0  0  0
  4 28  1  0  0  0
  5  6  2  0  0  0
  5  9  1  0  0  0
  6 29  1  0  0  0
  7 13  1  0  0  0
  8 30  1  0  0  0
  8 31  1  0  0  0
  8 32  1  0  0  0
  9 33  1  0  0  0
  9 34  1  0  0  0
  9 35  1  0  0  0
 10 11  1  0  0  0
 10 15  1  0  0  0
 10 36  1  0  0  0
 11 12  1  0  0  0
 11 17  2  0  0  0
 12 13  2  0  0  0
 12 18  1  0  0  0
 13 14  1  0  0  0
 14 15  2  0  0  0
 14 19  1  0  0  0
 15 16  1  0  0  0
 16 37  1  0  0  0
 16 38  1  0  0  0
 16 39  1  0  0  0
 19 20  1  0  0  0
 19 40  1  0  0  0
 19 41  1  0  0  0
 20 21  1  0  0  0
 21 22  1  0  0  0
 21 42  1  0  0  0
 21 43  1  0  0  0
 22 23  1  0  0  0
 22 26  2  0  0  0
 23 24  1  0  0  0
 24 25  2  0  0  0
 24 44  1  0  0  0
 25 26  1  0  0  0
 25 45  1  0  0  0
 26 46  1  0  0  0
M  END
> <s_m_source_file>
../2be2_ligand.sdf

> <i_m_source_file_index>
1

> <s_epik_input>
W2NIXTFjKFtDSDNdKVtjSF1jKFtDSDNdKVtjSF1jMU9jKGMySSljKGMoW0NIM10pW25IXWMyPU8pW0NIMl1TW0NIMl1jM29bY0hdW2NIXVtjSF0z

> <s_epik_cmdline>
J2VwaWtfYXBwJywgJy1pbWFlJywgJ2xpZ2FuZF9wcm8ubWFlJywgJy1vbWFlJywgJ2xpZ2FuZF9wcmVwLm1hZScsICctbXMnLCAnMScsICctcGgnLCAnNycsICctcGh0JywgJzAuNScsICctbnQn

> <r_lp_tautomer_probability>
1

> <r_epik_Ionization_Penalty>
  0.0000

> <r_epik_Ionization_Penalty_Charging>
  0.0000

> <r_epik_Ionization_Penalty_Neutral>
  0.0000

> <r_epik_State_Penalty>
 -0.0000

> <r_epik_Charging_Adjusted_Penalty>
7.60676958032945e-06

> <i_epik_Tot_Q>
0

> <i_epik_Tot_abs_Q>
0

$$$$
