2bfq_ligand
                    3D
 Schrodinger Suite 2020-3.
 57 60  0  0  1  0            999 V2000
  -17.0360   22.4650   -3.0910 N   0  0  0  0  0  0
  -17.3730   23.6940   -2.5390 C   0  0  0  0  0  0
  -17.8700   23.7660   -1.2860 N   0  0  0  0  0  0
  -18.0480   22.6270   -0.5560 C   0  0  0  0  0  0
  -17.7330   21.3880   -1.0610 C   0  0  0  0  0  0
  -17.1930   21.2810   -2.3940 C   0  0  0  0  0  0
  -16.8650   20.1390   -2.9290 N   0  0  0  0  0  0
  -18.0330   20.4760   -0.0870 N   0  0  0  0  0  0
  -18.4960   21.2080    0.9360 C   0  0  0  0  0  0
  -18.5320   22.5600    0.7100 N   0  0  0  0  0  0
  -18.9090   23.7480    1.4920 C   0  0  1  0  0  0
  -19.8950   23.4750    2.6420 C   0  0  2  0  0  0
  -21.2320   23.2180    2.2070 O   0  0  0  0  0  0
  -19.6580   24.7330    3.4660 C   0  0  2  0  0  0
  -20.5180   25.7920    3.0810 O   0  0  0  0  0  0
  -17.7690   24.2400    2.1470 O   0  0  0  0  0  0
  -18.1760   25.1190    3.2160 C   0  0  2  0  0  0
  -17.2120   24.8410    4.3610 C   0  0  0  0  0  0
  -17.6350   23.6340    5.0940 O   0  0  0  0  0  0
  -16.5640   22.7600    5.7830 P   0  0  2  0  0  0
  -15.9130   21.8950    4.7200 O   0  0  0  0  0  0
  -17.2800   21.9220    6.8630 O   0  5  0  0  0  0
  -15.4700   23.6450    6.4100 O   0  0  0  0  0  0
  -15.3710   24.4280    7.7770 P   0  0  2  0  0  0
  -16.7180   24.9310    8.3250 O   0  5  0  0  0  0
  -14.3440   25.5040    7.6190 O   0  0  0  0  0  0
  -14.7710   23.3110    8.6910 O   0  0  0  0  0  0
  -13.3660   22.9760    8.5760 C   0  0  0  0  0  0
  -14.0120   20.6410    8.3610 O   0  0  0  0  0  0
  -13.5440   18.3540    8.2770 O   0  0  0  0  0  0
  -13.2650   19.6370    7.6740 C   0  0  2  0  0  0
  -10.8080   19.0940    7.6950 O   0  0  0  0  0  0
  -11.8270   20.0940    7.7990 C   0  0  2  0  0  0
  -11.6770   20.0010   10.2650 O   0  0  0  0  0  0
  -11.8960   20.8270    9.1270 C   0  0  2  0  0  0
  -13.2210   21.5790    9.1540 C   0  0  1  0  0  0
  -17.2354   24.6055   -3.1207 H   0  0  0  0  0  0
  -16.4565   20.1070   -3.9498 H   0  0  0  0  0  0
  -16.9966   19.2070   -2.3598 H   0  0  0  0  0  0
  -18.8195   20.7622    1.8766 H   0  0  0  0  0  0
  -19.2969   24.4559    0.7447 H   0  0  0  0  0  0
  -19.8107   22.5334    3.2044 H   0  0  0  0  0  0
  -21.4531   22.3216    1.6090 H   0  0  0  0  0  0
  -19.9365   24.5977    4.5215 H   0  0  0  0  0  0
  -21.6071   25.6842    3.1921 H   0  0  0  0  0  0
  -18.0988   26.1926    2.9892 H   0  0  0  0  0  0
  -16.2003   24.6842    3.9586 H   0  0  0  0  0  0
  -17.2038   25.6986    5.0498 H   0  0  0  0  0  0
  -13.0685   23.0012    7.5173 H   0  0  0  0  0  0
  -12.7677   23.7048    9.1424 H   0  0  0  0  0  0
  -14.5613   17.9373    8.2376 H   0  0  0  0  0  0
  -13.5703   19.5051    6.6255 H   0  0  0  0  0  0
  -10.6943   18.5194    6.7639 H   0  0  0  0  0  0
  -11.4446   20.6614    6.9377 H   0  0  0  0  0  0
  -10.7510   19.4130   10.3478 H   0  0  0  0  0  0
  -11.0345   21.4974    9.2624 H   0  0  0  0  0  0
  -13.5100   21.7967   10.1928 H   0  0  0  0  0  0
  1  2  1  0  0  0
  1  6  2  0  0  0
  2  3  2  0  0  0
  2 37  1  0  0  0
  3  4  1  0  0  0
  4  5  2  0  0  0
  4 10  1  0  0  0
  5  6  1  0  0  0
  5  8  1  0  0  0
  6  7  1  0  0  0
  7 38  1  0  0  0
  7 39  1  0  0  0
  8  9  2  0  0  0
  9 10  1  0  0  0
  9 40  1  0  0  0
 10 11  1  0  0  0
 11 12  1  0  0  0
 11 16  1  0  0  0
 11 41  1  0  0  0
 12 13  1  0  0  0
 12 14  1  0  0  0
 12 42  1  0  0  0
 13 43  1  0  0  0
 14 15  1  0  0  0
 14 17  1  0  0  0
 14 44  1  0  0  0
 15 45  1  0  0  0
 16 17  1  0  0  0
 17 18  1  0  0  0
 17 46  1  0  0  0
 18 19  1  0  0  0
 18 47  1  0  0  0
 18 48  1  0  0  0
 19 20  1  0  0  0
 20 21  2  0  0  0
 20 22  1  0  0  0
 20 23  1  0  0  0
 23 24  1  0  0  0
 24 25  1  0  0  0
 24 26  2  0  0  0
 24 27  1  0  0  0
 27 28  1  0  0  0
 28 36  1  0  0  0
 28 49  1  0  0  0
 28 50  1  0  0  0
 29 31  1  0  0  0
 29 36  1  0  0  0
 30 31  1  0  0  0
 30 51  1  0  0  0
 31 33  1  0  0  0
 31 52  1  0  0  0
 32 33  1  0  0  0
 32 53  1  0  0  0
 33 35  1  0  0  0
 33 54  1  0  0  0
 34 35  1  0  0  0
 34 55  1  0  0  0
 35 36  1  0  0  0
 35 56  1  0  0  0
 36 57  1  0  0  0
M  CHG  2  22  -1  25  -1
M  END
> <s_m_source_file>
../2bfq_ligand.sdf

> <i_m_source_file_index>
1

> <s_epik_input>
bjFbY0hdbmMoW05IMl0pYyhjMTIpbltjSF1uMltDQEhdM1tDQEhdKFtPSF0pW0NASF0oW09IXSlbQ0BIXShPMylbQ0gyXU9bUEBdKD1PKShbT0hdKU9bUEBAXSg9TykoW09IXSlPW0NIMl1bQ0BASF0oT1tDQEBIXTRbT0hdKVtDQEBIXShbT0hdKVtDQEhdNFtPSF0=

> <s_epik_cmdline>
J2VwaWtfYXBwJywgJy1pbWFlJywgJ2xpZ2FuZF9wcm8ubWFlJywgJy1vbWFlJywgJ2xpZ2FuZF9wcmVwLm1hZScsICctbXMnLCAnMScsICctcGgnLCAnNycsICctcGh0JywgJzAuNScsICctbnQn

> <r_lp_tautomer_probability>
1

> <r_epik_Ionization_Penalty>
  0.0012

> <r_epik_Ionization_Penalty_Charging>
  0.0006

> <r_epik_Ionization_Penalty_Neutral>
  0.0006

> <r_epik_State_Penalty>
 -0.0000

> <r_epik_Charging_Adjusted_Penalty>
0.000554568258717467

> <i_epik_Tot_Q>
-2

> <i_epik_Tot_abs_Q>
2

> <s_epik_Chemistry_Notes>
This compound contains an acetal/aminal-like group ( X-CH(R)-Y where X, Y are N, S, or O) that may be acid/base labile, releasing an aldehyde.

$$$$
