2bfr_ligand
                    3D
 Schrodinger Suite 2020-3.
 39 41  0  0  1  0            999 V2000
   15.1820   76.9810   -7.6950 P   0  0  0  0  0  0
   14.5970   75.6860   -7.2680 O   0  0  0  0  0  0
   16.1960   76.8530   -8.8000 O   0  5  0  0  0  0
   14.0590   78.0470   -8.0200 O   0  5  0  0  0  0
   16.2010   78.9400   -5.8420 P   0  0  1  0  0  0
   17.0470   78.8450   -4.5930 O   0  5  0  0  0  0
   16.7290   79.8770   -6.9030 O   0  0  0  0  0  0
   16.0070   77.4940   -6.4250 O   0  0  0  0  0  0
   14.7550   79.3080   -5.2870 O   0  0  0  0  0  0
   14.0540   78.4510   -4.3280 C   0  0  0  0  0  0
   13.2980   79.2290   -3.2410 C   0  0  1  0  0  0
   14.1050   79.2530   -2.0290 O   0  0  0  0  0  0
   12.9920   80.7250   -3.5440 C   0  0  1  0  0  0
   11.5850   80.9580   -3.3020 O   0  0  0  0  0  0
   13.9690   81.4680   -2.6160 C   0  0  1  0  0  0
   13.4970   82.7600   -2.2000 O   0  0  0  0  0  0
   14.0800   80.5270   -1.4200 C   0  0  2  0  0  0
   15.3480   80.7210   -0.6060 N   0  0  0  0  0  0
   16.5010   81.3570   -0.9680 C   0  0  0  0  0  0
   17.4390   81.3520    0.0010 N   0  0  0  0  0  0
   16.8450   80.6760    1.0220 C   0  0  0  0  0  0
   17.3250   80.3260    2.3570 C   0  0  0  0  0  0
   18.4810   80.6110    2.8500 N   0  0  0  0  0  0
   16.4030   79.6180    3.1220 N   0  0  0  0  0  0
   15.1320   79.2690    2.6670 C   0  0  0  0  0  0
   14.6760   79.5830    1.4460 N   0  0  0  0  0  0
   15.5500   80.2760    0.6680 C   0  0  0  0  0  0
   13.3165   77.8322   -4.8601 H   0  0  0  0  0  0
   14.7800   77.7999   -3.8191 H   0  0  0  0  0  0
   12.3577   78.6739   -3.1078 H   0  0  0  0  0  0
   13.0790   81.0900   -4.5780 H   0  0  0  0  0  0
   10.8295   80.4597   -3.9272 H   0  0  0  0  0  0
   14.9167   81.7457   -3.1005 H   0  0  0  0  0  0
   13.3598   83.5605   -2.9419 H   0  0  0  0  0  0
   13.2405   80.6257   -0.7161 H   0  0  0  0  0  0
   16.6484   81.8222   -1.9427 H   0  0  0  0  0  0
   19.2127   81.1705    2.2486 H   0  0  0  0  0  0
   18.7361   80.2948    3.8722 H   0  0  0  0  0  0
   14.4765   78.7132    3.3374 H   0  0  0  0  0  0
  1  2  2  0  0  0
  1  3  1  0  0  0
  1  4  1  0  0  0
  1  8  1  0  0  0
  5  6  1  0  0  0
  5  7  2  0  0  0
  5  8  1  0  0  0
  5  9  1  0  0  0
  9 10  1  0  0  0
 10 11  1  0  0  0
 10 28  1  0  0  0
 10 29  1  0  0  0
 11 12  1  0  0  0
 11 13  1  0  0  0
 11 30  1  0  0  0
 12 17  1  0  0  0
 13 14  1  0  0  0
 13 15  1  0  0  0
 13 31  1  0  0  0
 14 32  1  0  0  0
 15 16  1  0  0  0
 15 17  1  0  0  0
 15 33  1  0  0  0
 16 34  1  0  0  0
 17 18  1  0  0  0
 17 35  1  0  0  0
 18 19  1  0  0  0
 18 27  1  0  0  0
 19 20  2  0  0  0
 19 36  1  0  0  0
 20 21  1  0  0  0
 21 22  2  0  0  0
 21 27  1  0  0  0
 22 23  1  0  0  0
 22 24  1  0  0  0
 23 37  1  0  0  0
 23 38  1  0  0  0
 24 25  2  0  0  0
 25 26  1  0  0  0
 25 39  1  0  0  0
 26 27  2  0  0  0
M  CHG  3   3  -1   4  -1   6  -1
M  END
> <s_m_source_file>
../2bfr_ligand.sdf

> <i_m_source_file_index>
1

> <s_epik_input>
Tz1QKFtPSF0pKFtPSF0pT1tQQF0oPU8pKFtPSF0pT1tDSDJdW0NASF0xT1tDQEhdKFtDQEhdKFtPSF0pW0NAQEhdMVtPSF0pbihbY0hdbjIpYyhjMjMpbltjSF1uYzNbTkgyXQ==

> <s_epik_cmdline>
J2VwaWtfYXBwJywgJy1pbWFlJywgJ2xpZ2FuZF9wcm8ubWFlJywgJy1vbWFlJywgJ2xpZ2FuZF9wcmVwLm1hZScsICctbXMnLCAnMScsICctcGgnLCAnNycsICctcGh0JywgJzAuNScsICctbnQn

> <r_lp_tautomer_probability>
0.999997216410988

> <r_epik_Ionization_Penalty>
  0.1037

> <r_epik_Ionization_Penalty_Charging>
  0.1033

> <r_epik_Ionization_Penalty_Neutral>
  0.0004

> <r_epik_State_Penalty>
  0.0922

> <r_epik_Charging_Adjusted_Penalty>
0.19546844050481

> <i_epik_Tot_Q>
-3

> <i_epik_Tot_abs_Q>
3

> <s_epik_Chemistry_Notes>
This compound contains an acetal/aminal-like group ( X-CH(R)-Y where X, Y are N, S, or O) that may be acid/base labile, releasing an aldehyde.

$$$$
