2bgn_ligand
                    3D
 Schrodinger Suite 2020-3.
100103  0  0  1  0            999 V2000
   24.3180   -4.0240  125.3380 N   0  3  0  0  0  0
   25.0840   -5.1400  124.7140 C   0  0  2  0  0  0
   25.0160   -6.3660  125.6010 C   0  0  0  0  0  0
   25.6930   -6.4290  126.6270 O   0  0  0  0  0  0
   26.5510   -4.7530  124.5410 C   0  0  0  0  0  0
   27.4440   -5.8470  124.0180 C   0  0  0  0  0  0
   27.2400   -6.1010  122.2660 S   0  0  0  0  0  0
   28.2330   -4.7700  121.6370 C   0  0  0  0  0  0
   24.2040   -7.3420  125.2090 N   0  0  0  0  0  0
   24.0920   -8.5630  125.9780 C   0  0  2  0  0  0
   24.0480   -9.7130  124.9960 C   0  0  0  0  0  0
   23.7290   -9.5180  123.8320 O   0  0  0  0  0  0
   22.8710   -8.5430  126.9070 C   0  0  0  0  0  0
   22.8460   -7.3540  127.8370 C   0  0  0  0  0  0
   22.3490   -6.1160  127.5590 C   0  0  0  0  0  0
   23.3490   -7.2790  129.1770 C   0  0  0  0  0  0
   22.4940   -5.2790  128.6380 N   0  3  0  0  0  0
   23.1080   -5.9680  129.6470 C   0  0  0  0  0  0
   23.9850   -8.1840  130.0320 C   0  0  0  0  0  0
   23.4750   -5.5430  130.9180 C   0  0  0  0  0  0
   24.3380   -7.7600  131.3000 C   0  0  0  0  0  0
   24.0830   -6.4520  131.7300 C   0  0  0  0  0  0
   24.4230  -10.8970  125.4660 N   0  0  0  0  0  0
   24.3330  -12.1080  124.6850 C   0  0  2  0  0  0
   23.0280  -12.3650  123.9510 C   0  0  0  0  0  0
   21.9420  -12.0480  124.4390 O   0  0  0  0  0  0
   24.5360  -13.2000  125.7370 C   0  0  0  0  0  0
   25.4160  -12.5900  126.7680 C   0  0  0  0  0  0
   25.0300  -11.1460  126.7890 C   0  0  0  0  0  0
   23.1690  -12.9390  122.7590 N   0  0  0  0  0  0
   22.0660  -13.6050  122.0660 C   0  0  2  0  0  0
   21.4300  -14.5840  123.0400 C   0  0  0  0  0  0
   22.0910  -15.4850  123.5790 O   0  0  0  0  0  0
   22.5010  -14.3860  120.7890 C   0  0  0  0  0  0
   22.8120  -13.4090  119.7240 C   0  0  0  0  0  0
   23.6870  -15.3810  121.0060 C   0  0  0  0  0  0
   20.1300  -14.4110  123.2500 N   0  0  0  0  0  0
   19.4720  -15.0170  124.3940 C   0  0  2  0  0  0
   18.6310  -16.2530  124.0930 C   0  0  0  0  0  0
   17.9840  -16.3490  123.0410 O   0  0  0  0  0  0
   18.5820  -13.9760  125.0610 C   0  0  0  0  0  0
   17.5150  -13.4800  124.1280 C   0  0  0  0  0  0
   17.8620  -12.7180  123.1930 O   0  5  0  0  0  0
   16.3240  -13.8500  124.2480 O   0  0  0  0  0  0
   18.6710  -17.2070  125.0230 N   0  0  0  0  0  0
   17.6780  -18.2850  125.0960 C   0  0  2  0  0  0
   16.4800  -17.9140  125.9930 C   0  0  0  0  0  0
   15.3160  -18.1990  125.6750 O   0  0  0  0  0  0
   18.4810  -19.4620  125.6960 C   0  0  0  0  0  0
   19.7030  -18.8480  126.3990 C   0  0  0  0  0  0
   19.7110  -17.3610  126.0630 C   0  0  0  0  0  0
   23.2654   -4.3217  125.4540 H   0  0  0  0  0  0
   24.3785   -3.1334  124.6952 H   0  0  0  0  0  0
   24.7448   -3.7934  126.3252 H   0  0  0  0  0  0
   24.6216   -5.3423  123.7366 H   0  0  0  0  0  0
   26.6284   -3.9179  123.8293 H   0  0  0  0  0  0
   26.9664   -4.4466  125.5124 H   0  0  0  0  0  0
   28.4953   -5.5830  124.2052 H   0  0  0  0  0  0
   27.2062   -6.7909  124.5304 H   0  0  0  0  0  0
   28.2129   -4.7855  120.5373 H   0  0  0  0  0  0
   29.2692   -4.8888  121.9865 H   0  0  0  0  0  0
   27.8320   -3.8113  121.9976 H   0  0  0  0  0  0
   23.6134   -7.2148  124.2897 H   0  0  0  0  0  0
   24.9858   -8.6335  126.6152 H   0  0  0  0  0  0
   21.9518   -8.5104  126.3037 H   0  0  0  0  0  0
   22.8690   -9.4499  127.5295 H   0  0  0  0  0  0
   21.9089   -5.9088  126.5724 H   0  0  0  0  0  0
   24.1981   -9.2021  129.7061 H   0  0  0  0  0  0
   23.2840   -4.5231  131.2518 H   0  0  0  0  0  0
   24.8253   -8.4592  131.9795 H   0  0  0  0  0  0
   24.3775   -6.1548  132.7365 H   0  0  0  0  0  0
   25.0750  -12.0068  123.8792 H   0  0  0  0  0  0
   23.5617  -13.4897  126.1575 H   0  0  0  0  0  0
   25.0087  -14.0763  125.2694 H   0  0  0  0  0  0
   25.2351  -13.0756  127.7383 H   0  0  0  0  0  0
   26.4686  -12.7276  126.4797 H   0  0  0  0  0  0
   25.9051  -10.4924  126.9198 H   0  0  0  0  0  0
   24.2924  -10.9331  127.5768 H   0  0  0  0  0  0
   24.1655  -12.8984  122.2950 H   0  0  0  0  0  0
   21.3913  -12.7867  121.7743 H   0  0  0  0  0  0
   21.6522  -14.9958  120.4461 H   0  0  0  0  0  0
   21.9609  -12.7242  119.5948 H   0  0  0  0  0  0
   23.0000  -13.9425  118.7806 H   0  0  0  0  0  0
   23.7065  -12.8334  120.0043 H   0  0  0  0  0  0
   23.4266  -16.0938  121.8023 H   0  0  0  0  0  0
   24.5877  -14.8201  121.2960 H   0  0  0  0  0  0
   23.8812  -15.9292  120.0723 H   0  0  0  0  0  0
   19.5509  -13.7989  122.5430 H   0  0  0  0  0  0
   20.3226  -15.3428  125.0107 H   0  0  0  0  0  0
   18.0940  -14.4205  125.9409 H   0  0  0  0  0  0
   19.1939  -13.1178  125.3756 H   0  0  0  0  0  0
   17.2585  -18.4758  124.0972 H   0  0  0  0  0  0
   16.6783  -17.3832  126.9358 H   0  0  0  0  0  0
   17.8503  -20.0086  126.4125 H   0  0  0  0  0  0
   18.7933  -20.1417  124.8895 H   0  0  0  0  0  0
   19.6162  -19.0004  127.4849 H   0  0  0  0  0  0
   20.6193  -19.3339  126.0327 H   0  0  0  0  0  0
   20.6825  -17.0378  125.6607 H   0  0  0  0  0  0
   19.4515  -16.7432  126.9354 H   0  0  0  0  0  0
   22.1345   -4.2409  128.5811 H   0  0  0  0  0  0
  1  2  1  0  0  0
  1 52  1  0  0  0
  1 53  1  0  0  0
  1 54  1  0  0  0
  2  3  1  0  0  0
  2  5  1  0  0  0
  2 55  1  0  0  0
  3  4  2  0  0  0
  3  9  1  0  0  0
  5  6  1  0  0  0
  5 56  1  0  0  0
  5 57  1  0  0  0
  6  7  1  0  0  0
  6 58  1  0  0  0
  6 59  1  0  0  0
  7  8  1  0  0  0
  8 60  1  0  0  0
  8 61  1  0  0  0
  8 62  1  0  0  0
  9 10  1  0  0  0
  9 63  1  0  0  0
 10 11  1  0  0  0
 10 13  1  0  0  0
 10 64  1  0  0  0
 11 12  2  0  0  0
 11 23  1  0  0  0
 13 14  1  0  0  0
 13 65  1  0  0  0
 13 66  1  0  0  0
 14 15  2  0  0  0
 14 16  1  0  0  0
 15 17  1  0  0  0
 15 67  1  0  0  0
 16 18  2  0  0  0
 16 19  1  0  0  0
 17 18  1  0  0  0
 17100  1  0  0  0
 18 20  1  0  0  0
 19 21  2  0  0  0
 19 68  1  0  0  0
 20 22  2  0  0  0
 20 69  1  0  0  0
 21 22  1  0  0  0
 21 70  1  0  0  0
 22 71  1  0  0  0
 23 24  1  0  0  0
 23 29  1  0  0  0
 24 25  1  0  0  0
 24 27  1  0  0  0
 24 72  1  0  0  0
 25 26  2  0  0  0
 25 30  1  0  0  0
 27 28  1  0  0  0
 27 73  1  0  0  0
 27 74  1  0  0  0
 28 29  1  0  0  0
 28 75  1  0  0  0
 28 76  1  0  0  0
 29 77  1  0  0  0
 29 78  1  0  0  0
 30 31  1  0  0  0
 30 79  1  0  0  0
 31 32  1  0  0  0
 31 34  1  0  0  0
 31 80  1  0  0  0
 32 33  2  0  0  0
 32 37  1  0  0  0
 34 35  1  0  0  0
 34 36  1  0  0  0
 34 81  1  0  0  0
 35 82  1  0  0  0
 35 83  1  0  0  0
 35 84  1  0  0  0
 36 85  1  0  0  0
 36 86  1  0  0  0
 36 87  1  0  0  0
 37 38  1  0  0  0
 37 88  1  0  0  0
 38 39  1  0  0  0
 38 41  1  0  0  0
 38 89  1  0  0  0
 39 40  2  0  0  0
 39 45  1  0  0  0
 41 42  1  0  0  0
 41 90  1  0  0  0
 41 91  1  0  0  0
 42 43  1  0  0  0
 42 44  2  0  0  0
 45 46  1  0  0  0
 45 51  1  0  0  0
 46 47  1  0  0  0
 46 49  1  0  0  0
 46 92  1  0  0  0
 47 48  2  0  0  0
 47 93  1  0  0  0
 49 50  1  0  0  0
 49 94  1  0  0  0
 49 95  1  0  0  0
 50 51  1  0  0  0
 50 96  1  0  0  0
 50 97  1  0  0  0
 51 98  1  0  0  0
 51 99  1  0  0  0
M  CHG  3   1   1  17   1  43  -1
M  END
> <s_m_source_file>
../2bgn_ligand.sdf

> <i_m_source_file_index>
1

> <s_epik_input>
W2NIXTFbY0hdW2NIXVtjSF1jKGMxMilbbkhdW2NIXWMyW0NIMl1bQ0BIXShbTkhdQyg9TylbQ0BASF0oW05IMytdKVtDSDJdW0NIMl1TW0NIM10pQyg9TylOM1tDQEBIXShbQ0gyXVtDSDJdW0NIMl0zKUMoPU8pW05IXVtDQEBIXShbQ0hdKFtDSDNdKVtDSDNdKUMoPU8pW05IXVtDQEBIXShbQ0gyXUMoPU8pW09IXSlDKD1PKU40W0NASF0oW0NIXT1PKVtDSDJdW0NIMl1bQ0gyXTQ=

> <s_epik_cmdline>
J2VwaWtfYXBwJywgJy1pbWFlJywgJ2xpZ2FuZF9wcm8ubWFlJywgJy1vbWFlJywgJ2xpZ2FuZF9wcmVwLm1hZScsICctbXMnLCAnMScsICctcGgnLCAnNycsICctcGh0JywgJzAuNScsICctbnQn

> <r_lp_tautomer_probability>
0.99990000499975

> <r_epik_Ionization_Penalty>
  0.1707

> <r_epik_Ionization_Penalty_Charging>
  0.1705

> <r_epik_Ionization_Penalty_Neutral>
  0.0002

> <r_epik_State_Penalty>
  0.1588

> <r_epik_Charging_Adjusted_Penalty>
0.32927285582393

> <i_epik_Tot_Q>
1

> <i_epik_Tot_abs_Q>
3

$$$$
