2bgr_ligand
                    3D
 Schrodinger Suite 2020-3.
 46 46  0  0  1  0            999 V2000
   38.5330   52.2340   34.2950 N   0  3  0  0  0  0
   38.2470   51.8580   35.7040 C   0  0  2  0  0  0
   39.2650   52.3190   36.7640 C   0  0  0  0  0  0
   40.2300   53.0630   36.4910 O   0  0  0  0  0  0
   38.0020   50.3430   35.8330 C   0  0  0  0  0  0
   36.5600   49.9690   35.6080 C   0  0  0  0  0  0
   35.9270   48.6170   36.5910 S   0  0  0  0  0  0
   34.6330   48.0300   35.5040 C   0  0  0  0  0  0
   38.9690   51.8700   37.9820 N   0  0  0  0  0  0
   39.6430   52.2240   39.2280 C   0  0  2  0  0  0
   41.1210   51.8240   39.2170 C   0  0  0  0  0  0
   41.4540   50.6890   38.8610 O   0  0  0  0  0  0
   38.9170   51.4940   40.3680 C   0  0  0  0  0  0
   37.4270   51.2740   40.0700 C   0  0  0  0  0  0
   36.6320   52.2370   40.2050 O   0  5  0  0  0  0
   36.9600   50.1860   39.6610 O   0  0  0  0  0  0
   42.0060   52.7260   39.6390 N   0  0  0  0  0  0
   43.4610   52.4960   39.5120 C   0  0  2  0  0  0
   43.9840   51.3480   40.3770 C   0  0  0  0  0  0
   44.2210   50.2490   39.8620 O   0  0  0  0  0  0
   44.0920   53.8200   39.9560 C   0  0  0  0  0  0
   43.0090   54.5680   40.7050 C   0  0  0  0  0  0
   41.6790   53.9960   40.3120 C   0  0  0  0  0  0
   38.7036   53.3189   34.2324 H   0  0  0  0  0  0
   37.6765   51.9603   33.6614 H   0  0  0  0  0  0
   39.4307   51.7011   33.9483 H   0  0  0  0  0  0
   37.3345   52.4422   35.8936 H   0  0  0  0  0  0
   38.6100   49.8085   35.0882 H   0  0  0  0  0  0
   38.2838   50.0107   36.8430 H   0  0  0  0  0  0
   35.9176   50.8328   35.8342 H   0  0  0  0  0  0
   36.4179   49.6712   34.5587 H   0  0  0  0  0  0
   34.1246   47.1724   35.9689 H   0  0  0  0  0  0
   35.0727   47.7197   34.5447 H   0  0  0  0  0  0
   33.9060   48.8370   35.3302 H   0  0  0  0  0  0
   38.1247   51.1650   37.9945 H   0  0  0  0  0  0
   39.5854   53.3191   39.3143 H   0  0  0  0  0  0
   39.3799   50.5087   40.5259 H   0  0  0  0  0  0
   38.9938   52.0874   41.2910 H   0  0  0  0  0  0
   43.6785   52.2026   38.4744 H   0  0  0  0  0  0
   44.1494   51.4978   41.4541 H   0  0  0  0  0  0
   44.9555   53.6149   40.6058 H   0  0  0  0  0  0
   44.4244   54.3827   39.0712 H   0  0  0  0  0  0
   43.1638   54.4504   41.7877 H   0  0  0  0  0  0
   43.0518   55.6353   40.4423 H   0  0  0  0  0  0
   41.1407   54.6532   39.6132 H   0  0  0  0  0  0
   41.0449   53.7942   41.1879 H   0  0  0  0  0  0
  1  2  1  0  0  0
  1 24  1  0  0  0
  1 25  1  0  0  0
  1 26  1  0  0  0
  2  3  1  0  0  0
  2  5  1  0  0  0
  2 27  1  0  0  0
  3  4  2  0  0  0
  3  9  1  0  0  0
  5  6  1  0  0  0
  5 28  1  0  0  0
  5 29  1  0  0  0
  6  7  1  0  0  0
  6 30  1  0  0  0
  6 31  1  0  0  0
  7  8  1  0  0  0
  8 32  1  0  0  0
  8 33  1  0  0  0
  8 34  1  0  0  0
  9 10  1  0  0  0
  9 35  1  0  0  0
 10 11  1  0  0  0
 10 13  1  0  0  0
 10 36  1  0  0  0
 11 12  2  0  0  0
 11 17  1  0  0  0
 13 14  1  0  0  0
 13 37  1  0  0  0
 13 38  1  0  0  0
 14 15  1  0  0  0
 14 16  2  0  0  0
 17 18  1  0  0  0
 17 23  1  0  0  0
 18 19  1  0  0  0
 18 21  1  0  0  0
 18 39  1  0  0  0
 19 20  2  0  0  0
 19 40  1  0  0  0
 21 22  1  0  0  0
 21 41  1  0  0  0
 21 42  1  0  0  0
 22 23  1  0  0  0
 22 43  1  0  0  0
 22 44  1  0  0  0
 23 45  1  0  0  0
 23 46  1  0  0  0
M  CHG  2   1   1  15  -1
M  END
> <s_m_source_file>
../2bgr_ligand.sdf

> <i_m_source_file_index>
1

> <s_epik_input>
W0NIM11TW0NIMl1bQ0gyXVtDQEhdKFtOSDMrXSlDKD1PKVtOSF1bQ0BASF0oW0NIMl1DKD1PKVtPSF0pQyg9TylOMVtDQEhdKFtDSF09TylbQ0gyXVtDSDJdW0NIMl0x

> <s_epik_cmdline>
J2VwaWtfYXBwJywgJy1pbWFlJywgJ2xpZ2FuZF9wcm8ubWFlJywgJy1vbWFlJywgJ2xpZ2FuZF9wcmVwLm1hZScsICctbXMnLCAnMScsICctcGgnLCAnNycsICctcGh0JywgJzAuNScsICctbnQn

> <r_lp_tautomer_probability>
0.99990000499975

> <r_epik_Ionization_Penalty>
  0.1635

> <r_epik_Ionization_Penalty_Charging>
  0.1633

> <r_epik_Ionization_Penalty_Neutral>
  0.0002

> <r_epik_State_Penalty>
  0.1517

> <r_epik_Charging_Adjusted_Penalty>
0.315000761333562

> <i_epik_Tot_Q>
0

> <i_epik_Tot_abs_Q>
2

$$$$
