2bj4_ligand
                    3D
 Schrodinger Suite 2020-3.
176179  0  0  1  0            999 V2000
   27.8240   52.7220   41.5290 N   0  3  0  0  0  0
   27.9500   52.5490   40.0550 C   0  0  2  0  0  0
   26.5820   52.3000   39.4490 C   0  0  0  0  0  0
   25.9050   51.3450   39.8450 O   0  0  0  0  0  0
   28.8610   51.3640   39.7720 C   0  0  0  0  0  0
   29.4450   51.2190   38.3690 C   0  0  0  0  0  0
   30.7090   52.0370   38.2040 C   0  0  0  0  0  0
   29.7460   49.7320   38.1240 C   0  0  0  0  0  0
   26.1620   53.1780   38.5250 N   0  0  0  0  0  0
   24.9360   52.9770   37.7390 C   0  0  2  0  0  0
   25.1930   53.3430   36.2860 C   0  0  0  0  0  0
   26.2980   53.7630   35.9140 O   0  0  0  0  0  0
   23.7660   53.8900   38.2260 C   0  0  2  0  0  0
   24.0930   55.2680   37.9630 O   0  0  0  0  0  0
   23.5650   53.8140   39.7080 C   0  0  0  0  0  0
   24.1360   53.2390   35.4910 N   0  0  0  0  0  0
   24.1550   53.6540   34.0840 C   0  0  2  0  0  0
   24.7130   55.0830   33.9020 C   0  0  0  0  0  0
   25.3470   55.4010   32.8870 O   0  0  0  0  0  0
   22.7300   53.5850   33.5270 C   0  0  0  0  0  0
   21.9070   54.5250   34.1940 O   0  0  0  0  0  0
   24.4560   55.9290   34.8880 N   0  0  0  0  0  0
   24.9750   57.3100   34.9170 C   0  0  2  0  0  0
   26.4940   57.4070   34.7640 C   0  0  0  0  0  0
   27.0140   58.3820   34.1980 O   0  0  0  0  0  0
   24.5210   58.0260   36.2000 C   0  0  0  0  0  0
   23.3660   58.9970   35.9800 C   0  0  0  0  0  0
   23.8170   60.2220   35.1920 C   0  0  0  0  0  0
   22.8490   61.3160   35.1180 N   0  0  0  0  0  0
   23.1750   62.5790   34.8250 C   0  0  0  0  0  0
   24.4430   62.9120   34.5900 N   0  0  0  0  0  0
   22.2370   63.5240   34.7750 N   0  0  0  0  0  0
   27.1970   56.3850   35.2440 N   0  0  0  0  0  0
   28.6490   56.3290   35.1360 C   0  0  2  0  0  0
   29.1190   55.8910   33.7450 C   0  0  0  0  0  0
   30.3050   55.8170   33.5030 O   0  0  0  0  0  0
   29.2100   55.3850   36.1940 C   0  0  0  0  0  0
   28.8880   55.8420   37.6030 C   0  0  0  0  0  0
   29.4120   56.9050   38.0130 O   0  0  0  0  0  0
   28.1140   55.2130   38.3620 O   0  0  0  0  0  0
   28.1900   55.6110   32.8350 N   0  0  0  0  0  0
   28.5370   55.1580   31.4880 C   0  0  2  0  0  0
   27.9380   56.0680   30.4390 C   0  0  0  0  0  0
   26.9120   56.6830   30.6720 O   0  0  0  0  0  0
   28.0150   53.7330   31.2630 C   0  0  0  0  0  0
   28.7480   52.6930   32.0620 C   0  0  0  0  0  0
   28.3730   52.4170   33.3830 C   0  0  0  0  0  0
   29.8200   52.0040   31.5040 C   0  0  0  0  0  0
   29.0290   51.4610   34.1210 C   0  0  0  0  0  0
   30.4970   51.0480   32.2320 C   0  0  0  0  0  0
   30.0900   50.7590   33.5570 C   0  0  0  0  0  0
   28.5940   56.1410   29.2830 N   0  0  0  0  0  0
   28.0540   56.8200   28.1130 C   0  0  0  0  0  0
   27.9090   58.3150   28.2530 C   0  0  0  0  0  0
   28.4070   58.9220   29.1990 O   0  0  0  0  0  0
   27.1980   58.8990   27.3000 N   0  0  0  0  0  0
   26.9900   60.3390   27.2600 C   0  0  2  0  0  0
   25.5980   60.6620   27.7800 C   0  0  0  0  0  0
   24.6660   59.8810   27.5850 O   0  0  0  0  0  0
   27.1420   60.8530   25.8230 C   0  0  0  0  0  0
   26.9130   62.2490   25.7600 O   0  0  0  0  0  0
   25.4680   61.8060   28.4530 N   0  0  0  0  0  0
   24.1650   62.2650   28.9630 C   0  0  2  0  0  0
   23.9570   63.6840   28.4380 C   0  0  0  0  0  0
   24.9210   64.4260   28.2620 O   0  0  0  0  0  0
   24.1210   62.1790   30.5050 C   0  0  0  0  0  0
   24.2390   60.7460   30.9510 C   0  0  0  0  0  0
   25.3520   59.9600   30.8840 C   0  0  0  0  0  0
   23.1890   59.9050   31.4340 C   0  0  0  0  0  0
   25.0640   58.6930   31.3220 N   0  0  0  0  0  0
   23.7390   58.6280   31.6570 C   0  0  0  0  0  0
   21.8450   60.1100   31.7400 C   0  0  0  0  0  0
   22.9870   57.5560   32.1490 C   0  0  0  0  0  0
   21.0950   59.0330   32.2200 C   0  0  0  0  0  0
   21.6690   57.7780   32.4160 C   0  0  0  0  0  0
   22.7110   64.0360   28.1250 N   0  0  0  0  0  0
   22.3960   65.4180   27.7490 C   0  0  2  0  0  0
   22.8130   66.3940   28.8640 C   0  0  0  0  0  0
   23.2900   67.4950   28.5770 O   0  0  0  0  0  0
   20.9060   65.5950   27.4580 C   0  0  0  0  0  0
   20.4540   65.1240   26.0940 C   0  0  0  0  0  0
   20.9950   65.6630   24.9330 C   0  0  0  0  0  0
   19.4670   64.1780   25.9620 C   0  0  0  0  0  0
   20.5530   65.2480   23.6750 C   0  0  0  0  0  0
   19.0280   63.7550   24.7070 C   0  0  0  0  0  0
   19.5800   64.2970   23.5650 C   0  0  0  0  0  0
   19.1460   63.8830   22.3120 O   0  0  0  0  0  0
   22.6380   65.9840   30.1190 N   0  0  0  0  0  0
   22.9600   66.8420   31.2590 C   0  0  2  0  0  0
   23.9600   66.1830   32.1900 C   0  0  0  0  0  0
   23.9180   64.9760   32.4770 O   0  0  0  0  0  0
   21.6980   67.1960   32.0250 C   0  0  0  0  0  0
   24.8380   66.8780   32.6900 O   0  0  0  0  0  0
   27.1664   53.5775   41.7429 H   0  0  0  0  0  0
   28.8179   52.9061   41.9628 H   0  0  0  0  0  0
   27.3946   51.8102   41.9698 H   0  0  0  0  0  0
   28.3754   53.4692   39.6281 H   0  0  0  0  0  0
   29.7347   51.4057   40.4390 H   0  0  0  0  0  0
   28.3103   50.4280   39.9472 H   0  0  0  0  0  0
   28.7212   51.6056   37.6364 H   0  0  0  0  0  0
   30.4841   53.0991   38.3811 H   0  0  0  0  0  0
   31.0974   51.9097   37.1827 H   0  0  0  0  0  0
   31.4634   51.6962   38.9284 H   0  0  0  0  0  0
   28.8230   49.1462   38.2459 H   0  0  0  0  0  0
   30.4982   49.3860   38.8482 H   0  0  0  0  0  0
   30.1322   49.5995   37.1026 H   0  0  0  0  0  0
   26.7758   54.0770   38.3665 H   0  0  0  0  0  0
   24.7100   51.9083   37.8690 H   0  0  0  0  0  0
   22.8393   53.6119   37.7026 H   0  0  0  0  0  0
   24.2921   55.5991   36.9331 H   0  0  0  0  0  0
   23.3094   52.7822   39.9909 H   0  0  0  0  0  0
   22.7471   54.4882   40.0021 H   0  0  0  0  0  0
   24.4909   54.1158   40.2195 H   0  0  0  0  0  0
   23.2176   52.8206   35.9287 H   0  0  0  0  0  0
   24.8237   52.9408   33.5798 H   0  0  0  0  0  0
   22.7453   53.8144   32.4513 H   0  0  0  0  0  0
   22.3248   52.5739   33.6806 H   0  0  0  0  0  0
   20.8449   54.6162   33.9228 H   0  0  0  0  0  0
   23.8248   55.5613   35.7104 H   0  0  0  0  0  0
   24.5314   57.7715   34.0224 H   0  0  0  0  0  0
   24.1881   57.2808   36.9375 H   0  0  0  0  0  0
   25.3608   58.6027   36.6149 H   0  0  0  0  0  0
   22.5658   58.4935   35.4177 H   0  0  0  0  0  0
   22.9765   59.3301   36.9533 H   0  0  0  0  0  0
   24.7235   60.6412   35.6530 H   0  0  0  0  0  0
   24.0348   59.9305   34.1539 H   0  0  0  0  0  0
   21.7834   61.1214   35.3092 H   0  0  0  0  0  0
   25.2294   62.1438   34.6274 H   0  0  0  0  0  0
   21.1851   63.2655   34.9666 H   0  0  0  0  0  0
   22.5145   64.5626   34.5421 H   0  0  0  0  0  0
   26.6499   55.5661   35.7341 H   0  0  0  0  0  0
   28.9776   57.3640   35.3116 H   0  0  0  0  0  0
   28.7805   54.3819   36.0551 H   0  0  0  0  0  0
   30.3043   55.3322   36.0952 H   0  0  0  0  0  0
   29.2001   57.2659   39.0303 H   0  0  0  0  0  0
   27.1343   55.7290   33.1207 H   0  0  0  0  0  0
   29.6347   55.2044   31.4334 H   0  0  0  0  0  0
   26.9543   53.6815   31.5499 H   0  0  0  0  0  0
   28.1208   53.4672   30.2009 H   0  0  0  0  0  0
   27.5478   52.9691   33.8328 H   0  0  0  0  0  0
   30.1280   52.2218   30.4813 H   0  0  0  0  0  0
   28.7191   51.2532   35.1452 H   0  0  0  0  0  0
   31.3406   50.5179   31.7898 H   0  0  0  0  0  0
   30.6054   49.9902   34.1326 H   0  0  0  0  0  0
   29.5827   55.6615   29.2331 H   0  0  0  0  0  0
   28.7153   56.6473   27.2511 H   0  0  0  0  0  0
   27.0513   56.4260   27.8906 H   0  0  0  0  0  0
   26.7581   58.2579   26.5218 H   0  0  0  0  0  0
   27.7557   60.7864   27.9107 H   0  0  0  0  0  0
   28.1611   60.6449   25.4650 H   0  0  0  0  0  0
   26.4142   60.3452   25.1730 H   0  0  0  0  0  0
   26.9838   62.7750   24.7965 H   0  0  0  0  0  0
   26.3699   62.4123   28.6234 H   0  0  0  0  0  0
   23.3720   61.6056   28.5805 H   0  0  0  0  0  0
   24.9556   62.7571   30.9284 H   0  0  0  0  0  0
   23.1680   62.5912   30.8682 H   0  0  0  0  0  0
   26.3293   60.2914   30.5329 H   0  0  0  0  0  0
   21.3880   61.0907   31.6076 H   0  0  0  0  0  0
   23.4390   56.5778   32.3130 H   0  0  0  0  0  0
   20.0385   59.1774   32.4460 H   0  0  0  0  0  0
   21.0531   56.9599   32.7893 H   0  0  0  0  0  0
   21.9145   63.2778   28.1506 H   0  0  0  0  0  0
   22.9760   65.5932   26.8309 H   0  0  0  0  0  0
   20.3186   65.0275   28.1948 H   0  0  0  0  0  0
   20.6439   66.6613   27.5229 H   0  0  0  0  0  0
   21.7754   66.4205   25.0053 H   0  0  0  0  0  0
   19.0170   63.7484   26.8570 H   0  0  0  0  0  0
   20.9873   65.6858   22.7762 H   0  0  0  0  0  0
   18.2491   62.9965   24.6290 H   0  0  0  0  0  0
   19.5897   64.3186   21.4046 H   0  0  0  0  0  0
   22.2405   64.9722   30.2871 H   0  0  0  0  0  0
   23.4138   67.7457   30.8262 H   0  0  0  0  0  0
   24.6675   64.5462   33.1578 H   0  0  0  0  0  0
   20.9776   67.6732   31.3443 H   0  0  0  0  0  0
   21.9470   67.8905   32.8409 H   0  0  0  0  0  0
   21.2550   66.2808   32.4448 H   0  0  0  0  0  0
  1  2  1  0  0  0
  1 94  1  0  0  0
  1 95  1  0  0  0
  1 96  1  0  0  0
  2  3  1  0  0  0
  2  5  1  0  0  0
  2 97  1  0  0  0
  3  4  2  0  0  0
  3  9  1  0  0  0
  5  6  1  0  0  0
  5 98  1  0  0  0
  5 99  1  0  0  0
  6  7  1  0  0  0
  6  8  1  0  0  0
  6100  1  0  0  0
  7101  1  0  0  0
  7102  1  0  0  0
  7103  1  0  0  0
  8104  1  0  0  0
  8105  1  0  0  0
  8106  1  0  0  0
  9 10  1  0  0  0
  9107  1  0  0  0
 10 11  1  0  0  0
 10 13  1  0  0  0
 10108  1  0  0  0
 11 12  2  0  0  0
 11 16  1  0  0  0
 13 14  1  0  0  0
 13 15  1  0  0  0
 13109  1  0  0  0
 14110  1  0  0  0
 15111  1  0  0  0
 15112  1  0  0  0
 15113  1  0  0  0
 16 17  1  0  0  0
 16114  1  0  0  0
 17 18  1  0  0  0
 17 20  1  0  0  0
 17115  1  0  0  0
 18 19  2  0  0  0
 18 22  1  0  0  0
 20 21  1  0  0  0
 20116  1  0  0  0
 20117  1  0  0  0
 21118  1  0  0  0
 22 23  1  0  0  0
 22119  1  0  0  0
 23 24  1  0  0  0
 23 26  1  0  0  0
 23120  1  0  0  0
 24 25  2  0  0  0
 24 33  1  0  0  0
 26 27  1  0  0  0
 26121  1  0  0  0
 26122  1  0  0  0
 27 28  1  0  0  0
 27123  1  0  0  0
 27124  1  0  0  0
 28 29  1  0  0  0
 28125  1  0  0  0
 28126  1  0  0  0
 29 30  1  0  0  0
 29127  1  0  0  0
 30 31  2  0  0  0
 30 32  1  0  0  0
 31128  1  0  0  0
 32129  1  0  0  0
 32130  1  0  0  0
 33 34  1  0  0  0
 33131  1  0  0  0
 34 35  1  0  0  0
 34 37  1  0  0  0
 34132  1  0  0  0
 35 36  2  0  0  0
 35 41  1  0  0  0
 37 38  1  0  0  0
 37133  1  0  0  0
 37134  1  0  0  0
 38 39  1  0  0  0
 38 40  2  0  0  0
 39135  1  0  0  0
 41 42  1  0  0  0
 41136  1  0  0  0
 42 43  1  0  0  0
 42 45  1  0  0  0
 42137  1  0  0  0
 43 44  2  0  0  0
 43 52  1  0  0  0
 45 46  1  0  0  0
 45138  1  0  0  0
 45139  1  0  0  0
 46 47  2  0  0  0
 46 48  1  0  0  0
 47 49  1  0  0  0
 47140  1  0  0  0
 48 50  2  0  0  0
 48141  1  0  0  0
 49 51  2  0  0  0
 49142  1  0  0  0
 50 51  1  0  0  0
 50143  1  0  0  0
 51144  1  0  0  0
 52 53  1  0  0  0
 52145  1  0  0  0
 53 54  1  0  0  0
 53146  1  0  0  0
 53147  1  0  0  0
 54 55  2  0  0  0
 54 56  1  0  0  0
 56 57  1  0  0  0
 56148  1  0  0  0
 57 58  1  0  0  0
 57 60  1  0  0  0
 57149  1  0  0  0
 58 59  2  0  0  0
 58 62  1  0  0  0
 60 61  1  0  0  0
 60150  1  0  0  0
 60151  1  0  0  0
 61152  1  0  0  0
 62 63  1  0  0  0
 62153  1  0  0  0
 63 64  1  0  0  0
 63 66  1  0  0  0
 63154  1  0  0  0
 64 65  2  0  0  0
 64 76  1  0  0  0
 66 67  1  0  0  0
 66155  1  0  0  0
 66156  1  0  0  0
 67 68  2  0  0  0
 67 69  1  0  0  0
 68 70  1  0  0  0
 68157  1  0  0  0
 69 71  2  0  0  0
 69 72  1  0  0  0
 70 71  1  0  0  0
 71 73  1  0  0  0
 72 74  2  0  0  0
 72158  1  0  0  0
 73 75  2  0  0  0
 73159  1  0  0  0
 74 75  1  0  0  0
 74160  1  0  0  0
 75161  1  0  0  0
 76 77  1  0  0  0
 76162  1  0  0  0
 77 78  1  0  0  0
 77 80  1  0  0  0
 77163  1  0  0  0
 78 79  2  0  0  0
 78 88  1  0  0  0
 80 81  1  0  0  0
 80164  1  0  0  0
 80165  1  0  0  0
 81 82  2  0  0  0
 81 83  1  0  0  0
 82 84  1  0  0  0
 82166  1  0  0  0
 83 85  2  0  0  0
 83167  1  0  0  0
 84 86  2  0  0  0
 84168  1  0  0  0
 85 86  1  0  0  0
 85169  1  0  0  0
 86 87  1  0  0  0
 87170  1  0  0  0
 88 89  1  0  0  0
 88171  1  0  0  0
 89 90  1  0  0  0
 89 92  1  0  0  0
 89172  1  0  0  0
 90 91  1  0  0  0
 90 93  2  0  0  0
 91173  1  0  0  0
 92174  1  0  0  0
 92175  1  0  0  0
 92176  1  0  0  0
M  CHG  1   1   1
M  END
> <s_m_source_file>
../2bj4_ligand.sdf

> <i_m_source_file_index>
1

> <s_epik_input>
W0NIM11bQ0hdKFtDSDNdKVtDSDJdW0NASF0oW05IMytdKUMoPU8pW05IXVtDQEBIXShbQ0BIXShbT0hdKVtDSDNdKUMoPU8pW05IXVtDQEBIXShbQ0gyXVtPSF0pQyg9TylbTkhdW0NAQEhdKFtDSDJdW0NIMl1bQ0gyXVtOSF0vQyg9TlxbSF0pW05IMl0pQyg9TylbTkhdW0NAQEhdKFtDSDJdQyg9TylbT0hdKUMoPU8pW05IXVtDQEBIXShbQ0gyXWMxW2NIXVtjSF1bY0hdW2NIXVtjSF0xKUMoPU8pW05IXVtDSDJdQyg9TylbTkhdW0NAQEhdKFtDSDJdW09IXSlDKD1PKVtOSF1bQ0BASF0oW0NIMl1jMltjSF1bbkhdYyhjMjMpW2NIXVtjSF1bY0hdW2NIXTMpQyg9TylbTkhdW0NASF0oQyg9TylbTkhdW0NAQEhdKFtDSDNdKUMoPU8pW09IXSlbQ0gyXWM0W2NIXVtjSF1jKFtPSF0pW2NIXVtjSF00

> <s_epik_cmdline>
J2VwaWtfYXBwJywgJy1pbWFlJywgJ2xpZ2FuZF9wcm8ubWFlJywgJy1vbWFlJywgJ2xpZ2FuZF9wcmVwLm1hZScsICctbXMnLCAnMScsICctcGgnLCAnNycsICctcGh0JywgJzAuNScsICctbnQn

> <s_epik_pKa_notes>
Molecule size exceeds maximum supported for generating protonation states

> <s_epik_Chemistry_Notes>
This compound has an imine and may undergo hydrolysis.

$$$$
