2bks_ligand
                    3D
 Schrodinger Suite 2020-3.
 86 90  0  0  1  0            999 V2000
  127.1510   17.5480   44.8250 C   0  0  0  0  0  0
  127.4520   18.9130   45.0260 O   0  0  0  0  0  0
  127.6720   19.2280   46.3770 C   0  0  0  0  0  0
  128.9870   19.0930   46.9720 C   0  0  0  0  0  0
  130.1470   18.5940   46.1010 C   0  0  0  0  0  0
  131.4120   18.4850   46.7310 O   0  0  0  0  0  0
  126.5680   19.6890   47.1560 C   0  0  0  0  0  0
  126.7510   20.0240   48.5460 C   0  0  0  0  0  0
  128.0420   19.8940   49.1390 C   0  0  0  0  0  0
  129.1470   19.4320   48.3590 C   0  0  0  0  0  0
  128.2660   17.0310   37.4140 C   0  0  1  0  0  0
  127.7750   16.9150   35.9610 C   0  0  0  0  0  0
  128.7820   16.4540   35.0250 N   0  0  1  0  0  0
  130.2270   16.6830   35.1560 C   0  0  0  0  0  0
  130.7300   17.1130   36.5590 C   0  0  0  0  0  0
  129.7930   17.2660   37.6010 N   0  0  0  0  0  0
  131.9330   17.2970   36.6850 O   0  0  0  0  0  0
  127.3630   18.1500   38.0070 C   0  0  0  0  0  0
  127.2200   17.9100   39.3960 O   0  0  0  0  0  0
  130.5030   19.0240   39.2390 C   0  0  0  0  0  0
  130.2890   17.6450   38.8640 C   0  0  0  0  0  0
  130.5940   16.6010   39.8370 C   0  0  0  0  0  0
  131.0860   16.9670   41.1360 C   0  0  0  0  0  0
  131.2850   18.3730   41.4870 C   0  0  0  0  0  0
  130.9890   19.3770   40.5230 C   0  0  0  0  0  0
  131.7330   18.8030   42.7460 O   0  0  0  0  0  0
  132.8430   18.1990   43.3620 C   0  0  0  0  0  0
  133.0530   18.8620   44.7420 C   0  0  0  0  0  0
  132.5130   17.9960   45.9110 C   0  0  0  0  0  0
  121.3260   16.2240   38.9270 C   0  0  0  0  0  0
  127.0410   19.6520   41.1010 C   0  0  0  0  0  0
  126.2160   20.5810   41.8120 C   0  0  0  0  0  0
  124.7950   20.6860   41.5290 C   0  0  0  0  0  0
  124.1770   19.8430   40.5120 C   0  0  0  0  0  0
  125.0460   18.9210   39.8190 C   0  0  0  0  0  0
  126.4410   18.8150   40.0920 C   0  0  0  0  0  0
  123.9930   21.6960   42.3280 C   0  0  0  0  0  0
  122.4680   21.7900   42.0100 C   0  0  0  0  0  0
  121.8560   20.8660   40.9150 C   0  0  0  0  0  0
  122.7590   19.9140   40.2000 N   0  0  0  0  0  0
  122.1450   19.0260   39.1470 C   0  0  0  0  0  0
  121.8940   17.5600   39.5340 C   0  0  0  0  0  0
  120.3860   14.9840   39.1130 O   0  0  0  0  0  0
  126.9895   17.3622   43.7529 H   0  0  0  0  0  0
  126.2400   17.2873   45.3837 H   0  0  0  0  0  0
  127.9891   16.9313   45.1819 H   0  0  0  0  0  0
  129.9139   17.5884   45.7209 H   0  0  0  0  0  0
  130.2920   19.2814   45.2546 H   0  0  0  0  0  0
  125.5837   19.7880   46.6983 H   0  0  0  0  0  0
  125.9076   20.3747   49.1408 H   0  0  0  0  0  0
  128.1860   20.1476   50.1893 H   0  0  0  0  0  0
  130.1279   19.3352   48.8244 H   0  0  0  0  0  0
  128.1626   16.0688   37.9370 H   0  0  0  0  0  0
  126.9398   16.2008   35.9121 H   0  0  0  0  0  0
  127.4359   17.9004   35.6088 H   0  0  0  0  0  0
  128.7457   15.3566   34.9585 H   0  0  0  0  0  0
  130.7686   15.7575   34.9110 H   0  0  0  0  0  0
  130.5357   17.4821   34.4659 H   0  0  0  0  0  0
  127.8343   19.1295   37.8381 H   0  0  0  0  0  0
  126.3794   18.1267   37.5150 H   0  0  0  0  0  0
  130.2856   19.8115   38.5174 H   0  0  0  0  0  0
  130.4496   15.5516   39.5800 H   0  0  0  0  0  0
  131.3130   16.1904   41.8664 H   0  0  0  0  0  0
  131.1373   20.4272   40.7742 H   0  0  0  0  0  0
  132.6530   17.1226   43.4858 H   0  0  0  0  0  0
  133.7347   18.3441   42.7344 H   0  0  0  0  0  0
  134.1278   19.0239   44.9113 H   0  0  0  0  0  0
  132.5281   19.8283   44.7682 H   0  0  0  0  0  0
  133.3952   17.8257   46.5455 H   0  0  0  0  0  0
  132.2200   17.0515   45.4292 H   0  0  0  0  0  0
  120.8013   16.4431   37.9854 H   0  0  0  0  0  0
  122.1554   15.5284   38.7313 H   0  0  0  0  0  0
  128.1064   19.5785   41.3191 H   0  0  0  0  0  0
  126.6602   21.2185   42.5764 H   0  0  0  0  0  0
  124.6156   18.2768   39.0523 H   0  0  0  0  0  0
  124.0602   21.4531   43.3987 H   0  0  0  0  0  0
  124.3968   22.7045   42.1548 H   0  0  0  0  0  0
  121.8895   21.5571   42.9161 H   0  0  0  0  0  0
  122.2260   22.8085   41.6721 H   0  0  0  0  0  0
  121.0775   20.2316   41.3638 H   0  0  0  0  0  0
  121.4125   21.4835   40.1200 H   0  0  0  0  0  0
  121.1635   19.4280   38.8552 H   0  0  0  0  0  0
  122.8036   18.9918   38.2666 H   0  0  0  0  0  0
  121.2987   17.8451   40.4140 H   0  0  0  0  0  0
  122.9419   17.4105   39.8331 H   0  0  0  0  0  0
  120.3115   14.2263   38.3191 H   0  0  0  0  0  0
  1  2  1  0  0  0
  1 44  1  0  0  0
  1 45  1  0  0  0
  1 46  1  0  0  0
  2  3  1  0  0  0
  3  4  2  0  0  0
  3  7  1  0  0  0
  4  5  1  0  0  0
  4 10  1  0  0  0
  5  6  1  0  0  0
  5 47  1  0  0  0
  5 48  1  0  0  0
  6 29  1  0  0  0
  7  8  2  0  0  0
  7 49  1  0  0  0
  8  9  1  0  0  0
  8 50  1  0  0  0
  9 10  2  0  0  0
  9 51  1  0  0  0
 10 52  1  0  0  0
 11 12  1  0  0  0
 11 16  1  0  0  0
 11 18  1  0  0  0
 11 53  1  0  0  0
 12 13  1  0  0  0
 12 54  1  0  0  0
 12 55  1  0  0  0
 13 14  1  0  0  0
 13 56  1  0  0  0
 14 15  1  0  0  0
 14 57  1  0  0  0
 14 58  1  0  0  0
 15 16  1  0  0  0
 15 17  2  0  0  0
 16 21  1  0  0  0
 18 19  1  0  0  0
 18 59  1  0  0  0
 18 60  1  0  0  0
 19 36  1  0  0  0
 20 21  2  0  0  0
 20 25  1  0  0  0
 20 61  1  0  0  0
 21 22  1  0  0  0
 22 23  2  0  0  0
 22 62  1  0  0  0
 23 24  1  0  0  0
 23 63  1  0  0  0
 24 25  2  0  0  0
 24 26  1  0  0  0
 25 64  1  0  0  0
 26 27  1  0  0  0
 27 28  1  0  0  0
 27 65  1  0  0  0
 27 66  1  0  0  0
 28 29  1  0  0  0
 28 67  1  0  0  0
 28 68  1  0  0  0
 29 69  1  0  0  0
 29 70  1  0  0  0
 30 42  1  0  0  0
 30 43  1  0  0  0
 30 71  1  0  0  0
 30 72  1  0  0  0
 31 32  2  0  0  0
 31 36  1  0  0  0
 31 73  1  0  0  0
 32 33  1  0  0  0
 32 74  1  0  0  0
 33 34  2  0  0  0
 33 37  1  0  0  0
 34 35  1  0  0  0
 34 40  1  0  0  0
 35 36  2  0  0  0
 35 75  1  0  0  0
 37 38  1  0  0  0
 37 76  1  0  0  0
 37 77  1  0  0  0
 38 39  1  0  0  0
 38 78  1  0  0  0
 38 79  1  0  0  0
 39 40  1  0  0  0
 39 80  1  0  0  0
 39 81  1  0  0  0
 40 41  1  0  0  0
 41 42  1  0  0  0
 41 82  1  0  0  0
 41 83  1  0  0  0
 42 84  1  0  0  0
 42 85  1  0  0  0
 43 86  1  0  0  0
M  END
> <s_m_source_file>
../2bks_ligand.sdf

> <i_m_source_file_index>
1

> <s_epik_input>
W2NIXTFbY0hdW2NIXVtjSF1jKGMxT1tDSDNdKVtDSDJdT1tDSDJdW0NIMl1bQ0gyXU9jKFtjSF1bY0hdMilbY0hdW2NIXWMyTjNDKD1PKVtDSDJdW05IMitdW0NIMl1bQ0BASF0zW0NIMl1PYyhbY0hdW2NIXTQpW2NIXWMoYzQ1KU4oW0NIMl1bQ0gyXVtDSDJdNSlbQ0gyXVtDSDJdW0NIMl1bT0hd

> <s_epik_cmdline>
J2VwaWtfYXBwJywgJy1pbWFlJywgJ2xpZ2FuZF9wcm8ubWFlJywgJy1vbWFlJywgJ2xpZ2FuZF9wcmVwLm1hZScsICctbXMnLCAnMScsICctcGgnLCAnNycsICctcGh0JywgJzAuNScsICctbnQn

> <r_lp_tautomer_probability>
1

> <r_epik_Ionization_Penalty>
  0.3311

> <r_epik_Ionization_Penalty_Charging>
  0.0000

> <r_epik_Ionization_Penalty_Neutral>
  0.3311

> <r_epik_State_Penalty>
  0.3211

> <r_epik_Charging_Adjusted_Penalty>
0.321125952303634

> <i_epik_Tot_Q>
0

> <i_epik_Tot_abs_Q>
0

$$$$
