2bmc_ligand
                    3D
 Schrodinger Suite 2020-3.
 73 77  0  0  1  0            999 V2000
    5.4620   -7.6020    6.9100 N   0  0  0  0  0  0
    8.1790   -8.7080    4.8710 N   0  0  0  0  0  0
    9.1120   -7.2530    6.1380 C   0  0  1  0  0  0
    9.3510   -8.1150    5.1290 N   0  0  1  0  0  0
   10.1430   -6.4490    6.6550 N   0  0  0  0  0  0
   10.0480   -5.4990    7.7180 C   0  0  0  0  0  0
   11.3070   -4.7070    8.0580 C   0  0  0  0  0  0
    9.0180   -5.2850    8.3390 O   0  0  0  0  0  0
   11.2790   -3.7180    9.0940 C   0  0  0  0  0  0
   12.3990   -2.9450    9.4360 C   0  0  0  0  0  0
   13.6890   -4.1080    7.7170 C   0  0  0  0  0  0
   12.5510   -4.8780    7.3830 C   0  0  0  0  0  0
    7.2120   -8.2420    5.6810 C   0  0  0  0  0  0
    7.7380   -7.3110    6.5130 C   0  0  0  0  0  0
    6.6320   -6.8430    7.3690 C   0  0  0  0  0  0
    5.7850   -8.5470    5.8020 C   0  0  0  0  0  0
   14.8130   -2.3000    9.1090 N   0  0  0  0  0  0
   14.7080   -1.1640   10.1050 C   0  0  0  0  0  0
   16.0730   -0.5970   10.5860 C   0  0  0  0  0  0
   17.0130   -0.2890    9.4800 N   0  3  0  0  0  0
   17.0220   -1.2560    8.3150 C   0  0  0  0  0  0
   16.1730   -2.5450    8.5180 C   0  0  0  0  0  0
   18.3550   -0.0600   10.0250 C   0  0  0  0  0  0
   13.6520   -3.1050    8.7590 C   0  0  0  0  0  0
    4.1360   -7.2370    7.1000 C   0  0  0  0  0  0
    3.2230   -7.8020    6.5190 O   0  0  0  0  0  0
    2.6370   -5.5130    8.2760 C   0  0  0  0  0  0
    2.1730   -4.5180    7.3180 C   0  0  0  0  0  0
    1.8450   -5.8060    9.4510 C   0  0  0  0  0  0
    3.8780   -6.1680    7.9940 N   0  0  0  0  0  0
    0.9360   -3.8550    7.5820 C   0  0  0  0  0  0
    2.9270   -4.1330    6.0340 C   0  0  0  0  0  0
    0.6230   -5.1030    9.6410 C   0  0  0  0  0  0
    2.2040   -6.8200   10.5230 C   0  0  0  0  0  0
    0.1660   -4.1390    8.7280 C   0  0  0  0  0  0
    4.1550   -3.2670    6.3460 C   0  0  0  0  0  0
    3.1710   -6.2410   11.5630 C   0  0  0  0  0  0
    8.1099   -9.4683    4.0791 H   0  0  0  0  0  0
    9.3587   -8.0385    6.8675 H   0  0  0  0  0  0
   10.0640   -8.7979    5.3853 H   0  0  0  0  0  0
   11.1567   -6.5160    6.2333 H   0  0  0  0  0  0
   10.3487   -3.5593    9.6394 H   0  0  0  0  0  0
   12.3142   -2.2070   10.2337 H   0  0  0  0  0  0
   14.6196   -4.2747    7.1745 H   0  0  0  0  0  0
   12.6268   -5.6212    6.5893 H   0  0  0  0  0  0
    6.6738   -6.0995    8.1649 H   0  0  0  0  0  0
    5.1548   -9.2468    5.2532 H   0  0  0  0  0  0
   14.1576   -0.3273    9.6501 H   0  0  0  0  0  0
   14.1730   -1.5106   11.0014 H   0  0  0  0  0  0
   15.9063    0.3362   11.1439 H   0  0  0  0  0  0
   16.5655   -1.3320   11.2397 H   0  0  0  0  0  0
   16.6438    0.6507    9.0434 H   0  0  0  0  0  0
   16.6232   -0.7557    7.4202 H   0  0  0  0  0  0
   18.0529   -1.5870    8.1212 H   0  0  0  0  0  0
   16.7470   -3.2084    9.1816 H   0  0  0  0  0  0
   16.0641   -3.0185    7.5311 H   0  0  0  0  0  0
   18.2936    0.6468   10.8656 H   0  0  0  0  0  0
   19.0028    0.3584    9.2406 H   0  0  0  0  0  0
   18.7752   -1.0135   10.3776 H   0  0  0  0  0  0
    4.6988   -5.7341    8.5840 H   0  0  0  0  0  0
    0.5764   -3.1066    6.8758 H   0  0  0  0  0  0
    3.2639   -5.0449    5.5193 H   0  0  0  0  0  0
    2.2573   -3.5644    5.3720 H   0  0  0  0  0  0
    0.0218   -5.3197   10.5240 H   0  0  0  0  0  0
    1.2904   -7.1404   11.0453 H   0  0  0  0  0  0
    2.6846   -7.6924   10.0563 H   0  0  0  0  0  0
   -0.7740   -3.6159    8.9036 H   0  0  0  0  0  0
    4.6701   -3.0100    5.4087 H   0  0  0  0  0  0
    4.8408   -3.8254    7.0001 H   0  0  0  0  0  0
    3.8342   -2.3450    6.8529 H   0  0  0  0  0  0
    3.4016   -7.0085   12.3165 H   0  0  0  0  0  0
    2.7053   -5.3736   12.0537 H   0  0  0  0  0  0
    4.0996   -5.9256   11.0647 H   0  0  0  0  0  0
  1 15  1  0  0  0
  1 16  1  0  0  0
  1 25  1  0  0  0
  2  4  1  0  0  0
  2 13  1  0  0  0
  2 38  1  0  0  0
  3  4  1  0  0  0
  3  5  1  0  0  0
  3 14  1  0  0  0
  3 39  1  0  0  0
  4 40  1  0  0  0
  5  6  1  0  0  0
  5 41  1  0  0  0
  6  7  1  0  0  0
  6  8  2  0  0  0
  7  9  2  0  0  0
  7 12  1  0  0  0
  9 10  1  0  0  0
  9 42  1  0  0  0
 10 24  2  0  0  0
 10 43  1  0  0  0
 11 12  2  0  0  0
 11 24  1  0  0  0
 11 44  1  0  0  0
 12 45  1  0  0  0
 13 14  1  0  0  0
 13 16  2  0  0  0
 14 15  2  0  0  0
 15 46  1  0  0  0
 16 47  1  0  0  0
 17 18  1  0  0  0
 17 22  1  0  0  0
 17 24  1  0  0  0
 18 19  1  0  0  0
 18 48  1  0  0  0
 18 49  1  0  0  0
 19 20  1  0  0  0
 19 50  1  0  0  0
 19 51  1  0  0  0
 20 21  1  0  0  0
 20 23  1  0  0  0
 20 52  1  0  0  0
 21 22  1  0  0  0
 21 53  1  0  0  0
 21 54  1  0  0  0
 22 55  1  0  0  0
 22 56  1  0  0  0
 23 57  1  0  0  0
 23 58  1  0  0  0
 23 59  1  0  0  0
 25 26  2  0  0  0
 25 30  1  0  0  0
 27 28  2  0  0  0
 27 29  1  0  0  0
 27 30  1  0  0  0
 28 31  1  0  0  0
 28 32  1  0  0  0
 29 33  2  0  0  0
 29 34  1  0  0  0
 30 60  1  0  0  0
 31 35  2  0  0  0
 31 61  1  0  0  0
 32 36  1  0  0  0
 32 62  1  0  0  0
 32 63  1  0  0  0
 33 35  1  0  0  0
 33 64  1  0  0  0
 34 37  1  0  0  0
 34 65  1  0  0  0
 34 66  1  0  0  0
 35 67  1  0  0  0
 36 68  1  0  0  0
 36 69  1  0  0  0
 36 70  1  0  0  0
 37 71  1  0  0  0
 37 72  1  0  0  0
 37 73  1  0  0  0
M  CHG  1  20   1
M  END
> <s_m_source_file>
../2bmc_ligand.sdf

> <i_m_source_file_index>
1

> <s_epik_input>
W0NIM11bQ0gyXWMxW2NIXVtjSF1bY0hdYyhbQ0gyXVtDSDNdKWMxW05IXUMoPU8pbihbY0hdMilbY0hdYyhjMjMpW0NIXShbTkgyK11bTkhdMylbTkhdQyg9TyljNFtjSF1bY0hdYyhbY0hdW2NIXTQpTjVbQ0gyXVtDSDJdW05IK10oW0NIM10pW0NIMl1bQ0gyXTU=

> <s_epik_cmdline>
J2VwaWtfYXBwJywgJy1pbWFlJywgJ2xpZ2FuZF9wcm8ubWFlJywgJy1vbWFlJywgJ2xpZ2FuZF9wcmVwLm1hZScsICctbXMnLCAnMScsICctcGgnLCAnNycsICctcGh0JywgJzAuNScsICctbnQn

> <r_epik_Ionization_Penalty>
  0.0648

> <r_epik_Ionization_Penalty_Charging>
  0.0647

> <r_epik_Ionization_Penalty_Neutral>
  0.0000

> <r_epik_State_Penalty>
  0.0564

> <r_epik_Charging_Adjusted_Penalty>
0.12117058248246

> <i_epik_Tot_Q>
1

> <i_epik_Tot_abs_Q>
1

> <s_epik_Chemistry_Notes>
This compound contains an acetal/aminal-like group ( X-CH(R)-Y where X, Y are N, S, or O) that may be acid/base labile, releasing an aldehyde.

$$$$
