2bmg_ligand
                    3D
 Schrodinger Suite 2020-3.
 65 68  0  0  1  0            999 V2000
    3.8120    7.9900   25.3070 C   0  0  0  0  0  0
    5.0280    7.5780   24.5880 C   0  0  0  0  0  0
    4.9910    6.4930   23.5850 C   0  0  0  0  0  0
    3.7460    5.7790   23.3140 C   0  0  0  0  0  0
    2.5260    6.1320   24.0590 C   0  0  0  0  0  0
    2.5660    7.2380   25.0340 C   0  0  0  0  0  0
    3.9280    9.0680   26.2040 O   0  0  0  0  0  0
    6.1620    8.2690   24.9070 O   0  0  0  0  0  0
    7.4030    7.5870   24.9370 C   0  0  0  0  0  0
    8.2520    8.6020   25.6600 C   0  0  0  0  0  0
    9.6650    8.1600   25.8450 C   0  0  0  0  0  0
   10.0950    7.5480   27.1060 C   0  0  0  0  0  0
   11.5060    7.2120   27.3490 C   0  0  0  0  0  0
   12.4930    7.4540   26.2900 C   0  0  0  0  0  0
   12.0680    8.0340   25.0290 C   0  0  0  0  0  0
   10.6740    8.3950   24.8240 C   0  0  0  0  0  0
   10.2970    9.1490   23.3750 Cl  0  0  0  0  0  0
   14.1310    7.0960   26.5020 Cl  0  0  0  0  0  0
    3.7170    4.8000   22.2570 C   0  0  0  0  0  0
    4.8490    4.0550   22.1330 N   0  0  0  0  0  0
    4.8180    3.1920   20.9580 C   0  0  0  0  0  0
    5.8570    3.6340   19.9300 C   0  0  0  0  0  0
    7.2640    3.3010   20.4130 C   0  0  0  0  0  0
    8.3510    3.5980   19.3810 C   0  0  0  0  0  0
    8.0230    2.8940   18.1060 N   0  0  0  0  0  0
    6.6890    3.2520   17.5610 C   0  0  0  0  0  0
    5.6490    2.8910   18.6090 C   0  0  0  0  0  0
    8.8170    1.8950   17.5260 C   0  0  0  0  0  0
   10.1620    1.6120   18.0440 C   0  0  0  0  0  0
   10.9040    0.4990   17.4880 C   0  0  0  0  0  0
   10.3010   -0.2430   16.4750 N   0  3  0  0  0  0
    9.0470   -0.0170   15.9140 C   0  0  0  0  0  0
    8.2690    1.0760   16.4330 C   0  0  0  0  0  0
    2.7340    4.6680   21.5270 O   0  0  0  0  0  0
    2.7830    9.9030   26.4380 C   0  0  0  0  0  0
    5.8984    6.2241   23.0443 H   0  0  0  0  0  0
    1.6009    5.5805   23.8913 H   0  0  0  0  0  0
    1.6548    7.5088   25.5674 H   0  0  0  0  0  0
    7.2865    6.6375   25.4800 H   0  0  0  0  0  0
    7.7341    7.3827   23.9081 H   0  0  0  0  0  0
    8.2695    9.5405   25.0866 H   0  0  0  0  0  0
    7.8289    8.7898   26.6579 H   0  0  0  0  0  0
    9.3548    7.3380   27.8781 H   0  0  0  0  0  0
   11.8152    6.7882   28.3044 H   0  0  0  0  0  0
   12.7951    8.1994   24.2340 H   0  0  0  0  0  0
    5.7256    4.0482   22.7974 H   0  0  0  0  0  0
    5.0356    2.1563   21.2579 H   0  0  0  0  0  0
    3.8210    3.2380   20.4955 H   0  0  0  0  0  0
    5.7426    4.7196   19.7941 H   0  0  0  0  0  0
    7.4931    3.8933   21.3112 H   0  0  0  0  0  0
    7.3247    2.2297   20.6550 H   0  0  0  0  0  0
    8.4001    4.6822   19.2019 H   0  0  0  0  0  0
    9.3217    3.2444   19.7588 H   0  0  0  0  0  0
    6.6578    4.3305   17.3470 H   0  0  0  0  0  0
    6.5086    2.6888   16.6335 H   0  0  0  0  0  0
    5.7107    1.8068   18.7845 H   0  0  0  0  0  0
    4.6588    3.1404   18.2000 H   0  0  0  0  0  0
   10.5940    2.2283   18.8325 H   0  0  0  0  0  0
   11.9014    0.2503   17.8504 H   0  0  0  0  0  0
    8.6678   -0.6467   15.1091 H   0  0  0  0  0  0
    7.2840    1.2953   16.0210 H   0  0  0  0  0  0
    3.0450   10.6908   27.1596 H   0  0  0  0  0  0
    1.9614    9.2937   26.8426 H   0  0  0  0  0  0
    2.4657   10.3640   25.4910 H   0  0  0  0  0  0
   10.8255   -1.1057   16.0384 H   0  0  0  0  0  0
  1  2  2  0  0  0
  1  6  1  0  0  0
  1  7  1  0  0  0
  2  3  1  0  0  0
  2  8  1  0  0  0
  3  4  2  0  0  0
  3 36  1  0  0  0
  4  5  1  0  0  0
  4 19  1  0  0  0
  5  6  2  0  0  0
  5 37  1  0  0  0
  6 38  1  0  0  0
  7 35  1  0  0  0
  8  9  1  0  0  0
  9 10  1  0  0  0
  9 39  1  0  0  0
  9 40  1  0  0  0
 10 11  1  0  0  0
 10 41  1  0  0  0
 10 42  1  0  0  0
 11 12  2  0  0  0
 11 16  1  0  0  0
 12 13  1  0  0  0
 12 43  1  0  0  0
 13 14  2  0  0  0
 13 44  1  0  0  0
 14 15  1  0  0  0
 14 18  1  0  0  0
 15 16  2  0  0  0
 15 45  1  0  0  0
 16 17  1  0  0  0
 19 20  1  0  0  0
 19 34  2  0  0  0
 20 21  1  0  0  0
 20 46  1  0  0  0
 21 22  1  0  0  0
 21 47  1  0  0  0
 21 48  1  0  0  0
 22 23  1  0  0  0
 22 27  1  0  0  0
 22 49  1  0  0  0
 23 24  1  0  0  0
 23 50  1  0  0  0
 23 51  1  0  0  0
 24 25  1  0  0  0
 24 52  1  0  0  0
 24 53  1  0  0  0
 25 26  1  0  0  0
 25 28  1  0  0  0
 26 27  1  0  0  0
 26 54  1  0  0  0
 26 55  1  0  0  0
 27 56  1  0  0  0
 27 57  1  0  0  0
 28 29  2  0  0  0
 28 33  1  0  0  0
 29 30  1  0  0  0
 29 58  1  0  0  0
 30 31  2  0  0  0
 30 59  1  0  0  0
 31 32  1  0  0  0
 31 65  1  0  0  0
 32 33  2  0  0  0
 32 60  1  0  0  0
 33 61  1  0  0  0
 35 62  1  0  0  0
 35 63  1  0  0  0
 35 64  1  0  0  0
M  CHG  1  31   1
M  END
> <s_m_source_file>
../2bmg_ligand.sdf

> <i_m_source_file_index>
1

> <s_epik_input>
Q2xjMVtjSF1jKENsKVtjSF1bY0hdYzFbQ0gyXVtDSDJdT2MoYzJPW0NIM10pW2NIXWMoW2NIXVtjSF0yKUMoPU8pW05IXVtDSDJdW0NIXTNbQ0gyXVtDSDJdTihbQ0gyXVtDSDJdMyljNFtjSF1bY0hdbltjSF1bY0hdNA==

> <s_epik_cmdline>
J2VwaWtfYXBwJywgJy1pbWFlJywgJ2xpZ2FuZF9wcm8ubWFlJywgJy1vbWFlJywgJ2xpZ2FuZF9wcmVwLm1hZScsICctbXMnLCAnMScsICctcGgnLCAnNycsICctcGh0JywgJzAuNScsICctbnQn

> <r_lp_tautomer_probability>
1

> <r_epik_Ionization_Penalty>
  0.0012

> <r_epik_Ionization_Penalty_Charging>
  0.0012

> <r_epik_Ionization_Penalty_Neutral>
  0.0000

> <r_epik_State_Penalty>
 -0.0000

> <r_epik_Charging_Adjusted_Penalty>
0.00124259305566068

> <i_epik_Tot_Q>
1

> <i_epik_Tot_abs_Q>
1

$$$$
