2bmk_ligand
                    3D
 Schrodinger Suite 2020-3.
 36 36  0  0  1  0            999 V2000
   75.6480   33.6140   62.1450 N   0  3  0  0  0  0
   74.6870   38.6070   62.4280 N   0  3  0  0  0  0
   74.5920   37.6720   63.4220 C   0  0  0  0  0  0
   73.8720   38.0430   64.6840 C   0  0  0  0  0  0
   75.1980   36.3860   63.1860 C   0  0  0  0  0  0
   75.1460   35.4160   64.1130 O   0  5  0  0  0  0
   75.8800   36.1380   61.9290 C   0  0  0  0  0  0
   76.5160   34.7620   61.7260 C   0  0  0  0  0  0
   75.9340   37.1950   60.9390 C   0  0  0  0  0  0
   76.6340   37.0420   59.5890 C   0  0  0  0  0  0
   77.3300   38.2750   59.2680 O   0  0  0  0  0  0
   77.6610   38.5710   57.7240 P   0  0  0  0  0  0
   76.4560   38.1500   56.9540 O   0  0  0  0  0  0
   78.9020   37.6990   57.3660 O   0  5  0  0  0  0
   78.0780   40.0160   57.6120 O   0  5  0  0  0  0
   75.3210   38.4110   61.2310 C   0  0  0  0  0  0
   76.4500   32.4810   62.7530 C   0  0  2  0  0  0
   77.5330   31.9780   61.7920 C   0  0  0  0  0  0
   75.4790   31.3420   63.1570 C   0  0  0  0  0  0
   75.5360   30.3060   62.2760 O   0  5  0  0  0  0
   74.6760   31.3870   64.2000 O   0  0  0  0  0  0
   74.9212   33.9587   62.8953 H   0  0  0  0  0  0
   75.1118   33.2208   61.2687 H   0  0  0  0  0  0
   73.5064   39.0776   64.6069 H   0  0  0  0  0  0
   74.5613   37.9603   65.5372 H   0  0  0  0  0  0
   73.0202   37.3632   64.8335 H   0  0  0  0  0  0
   77.4482   34.7489   62.3097 H   0  0  0  0  0  0
   76.7524   34.6713   60.6555 H   0  0  0  0  0  0
   77.3563   36.2141   59.6423 H   0  0  0  0  0  0
   75.8868   36.8272   58.8108 H   0  0  0  0  0  0
   75.3465   39.2166   60.4972 H   0  0  0  0  0  0
   76.9747   32.8681   63.6389 H   0  0  0  0  0  0
   78.2026   32.8094   61.5266 H   0  0  0  0  0  0
   77.0599   31.5830   60.8808 H   0  0  0  0  0  0
   78.1136   31.1806   62.2789 H   0  0  0  0  0  0
   74.2341   39.6004   62.5622 H   0  0  0  0  0  0
  1  8  1  0  0  0
  1 17  1  0  0  0
  1 22  1  0  0  0
  1 23  1  0  0  0
  2  3  2  0  0  0
  2 16  1  0  0  0
  2 36  1  0  0  0
  3  4  1  0  0  0
  3  5  1  0  0  0
  4 24  1  0  0  0
  4 25  1  0  0  0
  4 26  1  0  0  0
  5  6  1  0  0  0
  5  7  2  0  0  0
  7  8  1  0  0  0
  7  9  1  0  0  0
  8 27  1  0  0  0
  8 28  1  0  0  0
  9 10  1  0  0  0
  9 16  2  0  0  0
 10 11  1  0  0  0
 10 29  1  0  0  0
 10 30  1  0  0  0
 11 12  1  0  0  0
 12 13  2  0  0  0
 12 14  1  0  0  0
 12 15  1  0  0  0
 16 31  1  0  0  0
 17 18  1  0  0  0
 17 19  1  0  0  0
 17 32  1  0  0  0
 18 33  1  0  0  0
 18 34  1  0  0  0
 18 35  1  0  0  0
 19 20  1  0  0  0
 19 21  2  0  0  0
M  CHG  6   1   1   2   1   6  -1  14  -1  15  -1  20  -1
M  END
> <s_m_source_file>
../2bmk_ligand.sdf

> <i_m_source_file_index>
1

> <s_epik_input>
W09IXUMoPU8pW0NAQEhdKFtDSDNdKVtOSDIrXVtDSDJdYyhjMVtPSF0pYyhbQ0gyXU9QKD1PKShbT0hdKVtPSF0pW2NIXW5jMVtDSDNd

> <s_epik_cmdline>
J2VwaWtfYXBwJywgJy1pbWFlJywgJ2xpZ2FuZF9wcm8ubWFlJywgJy1vbWFlJywgJ2xpZ2FuZF9wcmVwLm1hZScsICctbXMnLCAnMScsICctcGgnLCAnNycsICctcGh0JywgJzAuNScsICctbnQn

> <r_lp_tautomer_probability>
0.56342

> <r_epik_Ionization_Penalty>
  0.1322

> <r_epik_Ionization_Penalty_Charging>
  0.1322

> <r_epik_Ionization_Penalty_Neutral>
  0.0000

> <r_epik_State_Penalty>
  0.3705

> <r_epik_Charging_Adjusted_Penalty>
0.502644632669618

> <i_epik_Tot_Q>
-2

> <i_epik_Tot_abs_Q>
6

$$$$
