2bmv_ligand
                    3D
 Schrodinger Suite 2020-3.
 18 18  0  0  1  0            999 V2000
   19.8070   36.4260   39.1770 C   0  0  0  0  0  0
   19.6100   37.2280   38.0720 C   0  0  0  0  0  0
   18.3360   37.3430   37.5360 C   0  0  0  0  0  0
   17.2580   36.6600   38.0930 C   0  0  0  0  0  0
   17.4730   35.8650   39.2050 C   0  0  0  0  0  0
   18.7420   35.7460   39.7510 C   0  0  0  0  0  0
   21.1680   36.2800   39.7800 C   0  0  0  0  0  0
   21.8730   37.2780   40.0710 N   0  3  0  0  0  0
   21.6360   35.0660   39.9750 N   0  0  0  0  0  0
   20.4464   37.7654   37.6251 H   0  0  0  0  0  0
   18.1761   37.9782   36.6648 H   0  0  0  0  0  0
   16.2616   36.7500   37.6604 H   0  0  0  0  0  0
   16.6381   35.3280   39.6553 H   0  0  0  0  0  0
   18.9027   35.1200   40.6287 H   0  0  0  0  0  0
   21.4826   38.2934   39.9083 H   0  0  0  0  0  0
   21.0194   34.1914   39.7205 H   0  0  0  0  0  0
   22.6439   34.9256   40.3926 H   0  0  0  0  0  0
   22.8808   37.1366   40.4885 H   0  0  0  0  0  0
  1  2  2  0  0  0
  1  6  1  0  0  0
  1  7  1  0  0  0
  2  3  1  0  0  0
  2 10  1  0  0  0
  3  4  2  0  0  0
  3 11  1  0  0  0
  4  5  1  0  0  0
  4 12  1  0  0  0
  5  6  2  0  0  0
  5 13  1  0  0  0
  6 14  1  0  0  0
  7  8  2  0  0  0
  7  9  1  0  0  0
  8 15  1  0  0  0
  8 18  1  0  0  0
  9 16  1  0  0  0
  9 17  1  0  0  0
M  CHG  1   8   1
M  END
> <s_m_source_file>
../2bmv_ligand.sdf

> <i_m_source_file_index>
1

> <s_epik_input>
W0hdXE49QyhbTkgyXSlcYzFbY0hdW2NIXVtjSF1bY0hdW2NIXTE=

> <s_epik_cmdline>
J2VwaWtfYXBwJywgJy1pbWFlJywgJ2xpZ2FuZF9wcm8ubWFlJywgJy1vbWFlJywgJ2xpZ2FuZF9wcmVwLm1hZScsICctbXMnLCAnMScsICctcGgnLCAnNycsICctcGh0JywgJzAuNScsICctbnQn

> <r_lp_tautomer_probability>
1

> <r_epik_Ionization_Penalty>
  0.0003

> <r_epik_Ionization_Penalty_Charging>
  0.0003

> <r_epik_Ionization_Penalty_Neutral>
  0.0000

> <r_epik_State_Penalty>
 -0.0000

> <r_epik_Charging_Adjusted_Penalty>
0.0003115973184836

> <i_epik_Tot_Q>
1

> <i_epik_Tot_abs_Q>
1

> <s_epik_Chemistry_Notes>
This compound has an imine and may undergo hydrolysis.

$$$$
