2bmz_ligand
                    3D
 Schrodinger Suite 2020-3.
 44 45  0  0  1  0            999 V2000
   10.7640   30.4300   44.9380 C   0  0  1  0  0  0
   11.2520   28.9740   44.9610 C   0  0  1  0  0  0
   12.3540   28.8310   46.0180 C   0  0  2  0  0  0
   13.5040   29.7960   45.6760 C   0  0  1  0  0  0
   12.9580   31.2570   45.6300 C   0  0  0  0  0  0
   10.1670   28.0910   45.2560 O   0  0  0  0  0  0
   12.8230   27.4810   46.0600 O   0  0  0  0  0  0
   14.5430   29.6870   46.6360 O   0  0  0  0  0  0
   11.8630   31.3500   44.6350 O   0  0  0  0  0  0
    6.8010   32.9380   44.0950 C   0  0  1  0  0  0
    7.6140   31.6220   44.2600 C   0  0  2  0  0  0
    9.1120   31.8510   43.9190 C   0  0  2  0  0  0
    9.2300   32.3960   42.5060 C   0  0  1  0  0  0
    8.4010   33.7030   42.3630 C   0  0  1  0  0  0
    8.4420   34.2480   40.9420 C   0  0  0  0  0  0
    6.5710   35.1690   45.0100 C   0  0  0  0  0  0
    7.2710   33.8840   45.0460 O   0  0  0  0  0  0
    7.1170   30.6460   43.3510 O   0  0  0  0  0  0
    9.7820   30.5600   43.9720 O   0  0  0  0  0  0
   10.5900   32.6250   42.1770 O   0  0  0  0  0  0
    6.9960   33.4420   42.7330 O   0  0  0  0  0  0
    8.0150   33.2620   40.0040 O   0  0  0  0  0  0
   10.3029   30.7394   45.8876 H   0  0  0  0  0  0
   11.6035   28.6531   43.9693 H   0  0  0  0  0  0
   11.9677   29.0118   47.0319 H   0  0  0  0  0  0
   13.9959   29.5063   44.7357 H   0  0  0  0  0  0
   12.5738   31.5363   46.6222 H   0  0  0  0  0  0
   13.7693   31.9428   45.3446 H   0  0  0  0  0  0
    9.2864   28.0626   44.5975 H   0  0  0  0  0  0
   12.1248   26.6632   46.2918 H   0  0  0  0  0  0
   15.0423   28.7204   46.7987 H   0  0  0  0  0  0
    5.7202   32.8400   44.2749 H   0  0  0  0  0  0
    7.4794   31.2147   45.2729 H   0  0  0  0  0  0
    9.6066   32.5302   44.6289 H   0  0  0  0  0  0
    8.9118   31.6324   41.7810 H   0  0  0  0  0  0
    8.8017   34.4692   43.0430 H   0  0  0  0  0  0
    7.7763   35.1203   40.8645 H   0  0  0  0  0  0
    9.4707   34.5486   40.6941 H   0  0  0  0  0  0
    6.9944   35.8386   45.7731 H   0  0  0  0  0  0
    5.5019   35.0100   45.2141 H   0  0  0  0  0  0
    6.6908   35.6240   44.0157 H   0  0  0  0  0  0
    6.0663   30.3254   43.4085 H   0  0  0  0  0  0
   11.3146   31.7989   42.2269 H   0  0  0  0  0  0
    7.9873   33.4998   38.9304 H   0  0  0  0  0  0
  1  2  1  0  0  0
  1  9  1  0  0  0
  1 19  1  0  0  0
  1 23  1  0  0  0
  2  3  1  0  0  0
  2  6  1  0  0  0
  2 24  1  0  0  0
  3  4  1  0  0  0
  3  7  1  0  0  0
  3 25  1  0  0  0
  4  5  1  0  0  0
  4  8  1  0  0  0
  4 26  1  0  0  0
  5  9  1  0  0  0
  5 27  1  0  0  0
  5 28  1  0  0  0
  6 29  1  0  0  0
  7 30  1  0  0  0
  8 31  1  0  0  0
 10 11  1  0  0  0
 10 17  1  0  0  0
 10 21  1  0  0  0
 10 32  1  0  0  0
 11 12  1  0  0  0
 11 18  1  0  0  0
 11 33  1  0  0  0
 12 13  1  0  0  0
 12 19  1  0  0  0
 12 34  1  0  0  0
 13 14  1  0  0  0
 13 20  1  0  0  0
 13 35  1  0  0  0
 14 15  1  0  0  0
 14 21  1  0  0  0
 14 36  1  0  0  0
 15 22  1  0  0  0
 15 37  1  0  0  0
 15 38  1  0  0  0
 16 17  1  0  0  0
 16 39  1  0  0  0
 16 40  1  0  0  0
 16 41  1  0  0  0
 18 42  1  0  0  0
 20 43  1  0  0  0
 22 44  1  0  0  0
M  END
> <s_m_source_file>
../2bmz_ligand.sdf

> <i_m_source_file_index>
1

> <s_epik_input>
TzFbQ0gyXVtDQEBIXShbT0hdKVtDQEhdKFtPSF0pW0NAQEhdKFtPSF0pW0NAQEhdMU9bQ0BIXShbQ0BIXShbT0hdKVtDQEhdMk9bQ0gzXSlbQ0BIXShbT0hdKVtDQEhdKE8yKVtDSDJdW09IXQ==

> <s_epik_cmdline>
J2VwaWtfYXBwJywgJy1pbWFlJywgJ2xpZ2FuZF9wcm8ubWFlJywgJy1vbWFlJywgJ2xpZ2FuZF9wcmVwLm1hZScsICctbXMnLCAnMScsICctcGgnLCAnNycsICctcGh0JywgJzAuNScsICctbnQn

> <r_lp_tautomer_probability>
1

> <r_epik_Ionization_Penalty>
  0.0000

> <r_epik_Ionization_Penalty_Charging>
  0.0000

> <r_epik_Ionization_Penalty_Neutral>
  0.0000

> <r_epik_State_Penalty>
 -0.0000

> <r_epik_Charging_Adjusted_Penalty>
0

> <i_epik_Tot_Q>
0

> <i_epik_Tot_abs_Q>
0

> <s_epik_Chemistry_Notes>
This compound contains an acetal/aminal-like group ( X-CH(R)-Y where X, Y are N, S, or O) that may be acid/base labile, releasing an aldehyde.

$$$$
