2bo4_ligand
                    3D
 Schrodinger Suite 2020-3.
 18 17  0  0  1  0            999 V2000
   87.9430   -2.3560   42.4440 C   0  0  0  0  0  0
   87.3510   -2.3750   41.0680 C   0  0  0  0  0  0
   85.8300   -2.1700   41.0840 C   0  0  0  0  0  0
   85.1930   -2.5880   42.4120 C   0  0  0  0  0  0
   85.4550   -0.7180   40.7060 C   0  0  0  0  0  0
   84.1510   -0.6060   39.9280 C   0  0  0  0  0  0
   88.7230   -3.2740   42.7910 O   0  5  0  0  0  0
   87.6140   -1.3980   43.1800 O   0  0  0  0  0  0
   84.7070   -1.7710   43.2570 O   0  5  0  0  0  0
   85.1790   -3.8180   42.6320 O   0  0  0  0  0  0
   83.3440    0.2770   40.2400 O   0  0  0  0  0  0
   83.9050   -1.3790   38.9820 O   0  5  0  0  0  0
   85.3820   -3.1190   40.1090 O   0  0  0  0  0  0
   87.7965   -1.5693   40.4660 H   0  0  0  0  0  0
   87.5585   -3.3452   40.5929 H   0  0  0  0  0  0
   85.3430   -0.1181   41.6212 H   0  0  0  0  0  0
   86.2487   -0.2857   40.0791 H   0  0  0  0  0  0
   85.5820   -4.1911   40.2526 H   0  0  0  0  0  0
  1  2  1  0  0  0
  1  7  1  0  0  0
  1  8  2  0  0  0
  2  3  1  0  0  0
  2 14  1  0  0  0
  2 15  1  0  0  0
  3  4  1  0  0  0
  3  5  1  0  0  0
  3 13  1  0  0  0
  4  9  1  0  0  0
  4 10  2  0  0  0
  5  6  1  0  0  0
  5 16  1  0  0  0
  5 17  1  0  0  0
  6 11  2  0  0  0
  6 12  1  0  0  0
 13 18  1  0  0  0
M  CHG  3   7  -1   9  -1  12  -1
M  END
> <s_m_source_file>
../2bo4_ligand.sdf

> <i_m_source_file_index>
1

> <s_epik_input>
W09IXUMoPU8pW0NIMl1DKFtPSF0pKEMoPU8pW09IXSlbQ0gyXUMoPU8pW09IXQ==

> <s_epik_cmdline>
J2VwaWtfYXBwJywgJy1pbWFlJywgJ2xpZ2FuZF9wcm8ubWFlJywgJy1vbWFlJywgJ2xpZ2FuZF9wcmVwLm1hZScsICctbXMnLCAnMScsICctcGgnLCAnNycsICctcGh0JywgJzAuNScsICctbnQn

> <r_lp_tautomer_probability>
1

> <r_epik_Ionization_Penalty>
  0.0046

> <r_epik_Ionization_Penalty_Charging>
  0.0046

> <r_epik_Ionization_Penalty_Neutral>
  0.0000

> <r_epik_State_Penalty>
 -0.0000

> <r_epik_Charging_Adjusted_Penalty>
0.0045906918398983

> <i_epik_Tot_Q>
-3

> <i_epik_Tot_abs_Q>
3

$$$$
