2bpm_ligand
                    3D
 Schrodinger Suite 2020-3.
 46 49  0  0  1  0            999 V2000
   -3.0630  202.6260  113.3500 N   0  0  0  0  0  0
   -2.6540  201.9980  114.6350 C   0  0  0  0  0  0
   -1.3800  201.2110  114.3000 C   0  0  0  0  0  0
   -1.2230  201.4860  112.8790 N   0  0  0  0  0  0
   -2.1620  202.2610  112.4030 C   0  0  0  0  0  0
  -12.2960  204.2660  109.2250 N   0  0  0  0  0  0
  -11.1480  204.9150  109.4510 N   0  3  0  0  0  0
  -10.8180  204.7010  110.7590 C   0  0  3  0  0  0
  -11.7870  203.8950  111.3530 C   0  0  0  0  0  0
  -12.7150  203.6320  110.3740 C   0  0  0  0  0  0
  -14.0020  202.8030  110.4920 C   0  0  0  0  0  0
  -14.1600  201.9880  111.7900 C   0  0  0  0  0  0
  -15.2290  203.0030  111.3220 C   0  0  0  0  0  0
   -9.6380  205.2810  111.3590 N   0  0  0  0  0  0
   -9.1350  205.2030  112.6030 C   0  0  0  0  0  0
   -7.8650  206.0490  112.8610 C   0  0  2  0  0  0
   -9.6490  204.5320  113.5130 O   0  0  0  0  0  0
   -6.6220  205.1560  113.0260 C   0  0  0  0  0  0
   -5.8220  204.9100  111.8750 C   0  0  0  0  0  0
   -4.6790  204.1010  111.9720 C   0  0  0  0  0  0
   -4.2900  203.5030  113.2230 C   0  0  0  0  0  0
   -5.1140  203.7670  114.3740 C   0  0  0  0  0  0
   -6.2540  204.5750  114.2810 C   0  0  0  0  0  0
   -2.1580  202.5840  111.2010 O   0  0  0  0  0  0
   -8.0950  206.9860  114.0850 C   0  0  0  0  0  0
   -2.4635  202.7825  115.3822 H   0  0  0  0  0  0
   -3.4581  201.3382  114.9930 H   0  0  0  0  0  0
   -0.5449  201.5891  114.9081 H   0  0  0  0  0  0
   -1.5395  200.1448  114.5187 H   0  0  0  0  0  0
   -0.3771  201.0528  112.3251 H   0  0  0  0  0  0
  -11.9199  203.4793  112.3627 H   0  0  0  0  0  0
  -13.9487  202.6867  109.3995 H   0  0  0  0  0  0
  -14.1576  200.9142  111.5513 H   0  0  0  0  0  0
  -13.3248  202.2145  112.4691 H   0  0  0  0  0  0
  -15.2865  204.0532  111.6442 H   0  0  0  0  0  0
  -16.1194  202.7529  110.7264 H   0  0  0  0  0  0
   -8.9718  205.9176  110.7583 H   0  0  0  0  0  0
   -7.6645  206.6746  111.9787 H   0  0  0  0  0  0
   -6.0972  205.3504  110.9167 H   0  0  0  0  0  0
   -4.0741  203.9219  111.0831 H   0  0  0  0  0  0
   -4.8454  203.3298  115.3356 H   0  0  0  0  0  0
   -6.8621  204.7617  115.1661 H   0  0  0  0  0  0
   -8.9924  207.5988  113.9141 H   0  0  0  0  0  0
   -7.2217  207.6424  114.2135 H   0  0  0  0  0  0
   -8.2333  206.3781  114.9913 H   0  0  0  0  0  0
  -10.6663  205.4795  108.6391 H   0  0  0  0  0  0
  1  2  1  0  0  0
  1  5  1  0  0  0
  1 21  1  0  0  0
  2  3  1  0  0  0
  2 26  1  0  0  0
  2 27  1  0  0  0
  3  4  1  0  0  0
  3 28  1  0  0  0
  3 29  1  0  0  0
  4  5  1  0  0  0
  4 30  1  0  0  0
  5 24  2  0  0  0
  6  7  2  0  0  0
  6 10  1  0  0  0
  7  8  1  0  0  0
  7 46  1  0  0  0
  8  9  1  0  0  0
  8 14  1  0  0  0
  9 10  2  0  0  0
  9 31  1  0  0  0
 10 11  1  0  0  0
 11 12  1  0  0  0
 11 13  1  0  0  0
 11 32  1  0  0  0
 12 13  1  0  0  0
 12 33  1  0  0  0
 12 34  1  0  0  0
 13 35  1  0  0  0
 13 36  1  0  0  0
 14 15  1  0  0  0
 14 37  1  0  0  0
 15 16  1  0  0  0
 15 17  2  0  0  0
 16 18  1  0  0  0
 16 25  1  0  0  0
 16 38  1  0  0  0
 18 19  2  0  0  0
 18 23  1  0  0  0
 19 20  1  0  0  0
 19 39  1  0  0  0
 20 21  2  0  0  0
 20 40  1  0  0  0
 21 22  1  0  0  0
 22 23  2  0  0  0
 22 41  1  0  0  0
 23 42  1  0  0  0
 25 43  1  0  0  0
 25 44  1  0  0  0
 25 45  1  0  0  0
M  CHG  1   7   1
M  END
> <s_m_source_file>
../2bpm_ligand.sdf

> <i_m_source_file_index>
1

> <s_epik_input>
Tz1DMVtOSF1bQ0gyXVtDSDJdTjFjKFtjSF1bY0hdMilbY0hdW2NIXWMyW0NASF0oW0NIM10pQyg9TylbTkhdW0NIXTNOPU5DKD1bQ0hdMylbQ0hdNFtDSDJdW0NIMl00

> <s_epik_cmdline>
J2VwaWtfYXBwJywgJy1pbWFlJywgJ2xpZ2FuZF9wcm8ubWFlJywgJy1vbWFlJywgJ2xpZ2FuZF9wcmVwLm1hZScsICctbXMnLCAnMScsICctcGgnLCAnNycsICctcGh0JywgJzAuNScsICctbnQn

> <r_lp_tautomer_probability>
1

> <r_epik_Ionization_Penalty>
  0.0000

> <r_epik_Ionization_Penalty_Charging>
  0.0000

> <r_epik_Ionization_Penalty_Neutral>
  0.0000

> <r_epik_State_Penalty>
 -0.0000

> <r_epik_Charging_Adjusted_Penalty>
7.44384891428498e-08

> <i_epik_Tot_Q>
1

> <i_epik_Tot_abs_Q>
1

$$$$
