2bpv_ligand
                    3D
 Schrodinger Suite 2020-3.
 94 97  0  0  1  0            999 V2000
    9.1790   24.0720    4.1940 C   0  0  0  0  0  0
   10.3520   24.9650    4.6250 C   0  0  1  0  0  0
   10.4030   24.9800    6.1450 C   0  0  0  0  0  0
   18.5740   19.9240    4.9050 O   0  0  0  0  0  0
    7.9940   24.6190    0.8360 O   0  0  0  0  0  0
    8.9360   25.3950    8.7340 C   0  0  0  0  0  0
   11.5130   24.4110    2.5520 C   0  0  0  0  0  0
   10.3200   23.6040    2.0830 C   0  0  0  0  0  0
   12.7820   25.3030    4.4560 C   0  0  0  0  0  0
   13.9320   24.3120    4.6850 C   0  0  2  0  0  0
   14.0160   23.8310    6.1350 C   0  0  0  0  0  0
   15.1810   22.8870    6.4560 C   0  0  1  0  0  0
   15.2650   22.7560    7.9780 C   0  0  0  0  0  0
   16.3790   21.8410    8.4250 C   0  0  0  0  0  0
   17.7130   22.1450    8.1520 C   0  0  0  0  0  0
   17.0270   19.8330    9.6040 C   0  0  0  0  0  0
   16.0300   20.6850    9.1320 C   0  0  0  0  0  0
   14.9790   21.5070    5.8020 C   0  0  0  0  0  0
   16.1910   19.5270    5.0220 C   0  0  2  0  0  0
   17.6090   17.7380    4.5580 C   0  0  0  0  0  0
    5.5540   25.1720    2.1490 C   0  0  0  0  0  0
   15.7440   19.0140    3.6240 C   0  0  2  0  0  0
    8.0320   24.5460    2.0640 C   0  0  0  0  0  0
    3.0940   24.9920    2.1330 C   0  0  0  0  0  0
    1.8720   24.9440    2.8110 C   0  0  0  0  0  0
    1.9020   24.9680    4.2130 C   0  0  0  0  0  0
    4.2320   25.0690    4.2470 C   0  0  0  0  0  0
    9.1250   24.1110    2.7380 N   0  0  0  0  0  0
   10.7290   23.9600    6.7590 O   0  0  0  0  0  0
   10.0420   26.1670    6.6910 N   0  0  0  0  0  0
    9.9590   26.3750    8.1290 C   0  0  0  0  0  0
    9.4660   27.8180    8.3590 C   0  0  0  0  0  0
   11.3400   26.2050    8.7790 C   0  0  0  0  0  0
   11.6290   24.5080    4.0130 N   0  0  1  0  0  0
   15.1430   24.9890    4.3710 O   0  0  0  0  0  0
   18.7140   21.2920    8.6110 C   0  0  0  0  0  0
   18.3710   20.1370    9.3370 C   0  0  0  0  0  0
   13.8740   20.9640    5.7880 O   0  0  0  0  0  0
   16.0820   20.9730    5.2500 N   0  0  0  0  0  0
   17.5960   19.0150    5.4040 C   0  0  1  0  0  0
   16.8530   18.0060    3.3020 C   0  0  0  0  0  0
   15.7270   20.1160    2.6030 C   0  0  0  0  0  0
    6.8300   24.9450    2.8330 C   0  0  0  0  0  0
    4.2870   25.0620    2.8540 C   0  0  0  0  0  0
    3.0610   25.0130    4.8690 N   0  0  0  0  0  0
    8.2316   24.4495    4.6063 H   0  0  0  0  0  0
    9.3369   23.0357    4.5275 H   0  0  0  0  0  0
   10.2324   25.9947    4.2571 H   0  0  0  0  0  0
   18.7124   20.9026    5.3879 H   0  0  0  0  0  0
    9.2792   24.3621    8.5748 H   0  0  0  0  0  0
    7.9601   25.5364    8.2465 H   0  0  0  0  0  0
    8.8382   25.5867    9.8127 H   0  0  0  0  0  0
   11.4121   25.4195    2.1245 H   0  0  0  0  0  0
   12.4132   23.9282    2.1439 H   0  0  0  0  0  0
   10.2172   23.7017    0.9922 H   0  0  0  0  0  0
   10.4677   22.5457    2.3440 H   0  0  0  0  0  0
   13.0431   26.0354    3.6779 H   0  0  0  0  0  0
   12.5272   25.8316    5.3864 H   0  0  0  0  0  0
   13.8257   23.4420    4.0203 H   0  0  0  0  0  0
   14.1286   24.6978    6.8029 H   0  0  0  0  0  0
   13.0967   23.2854    6.3942 H   0  0  0  0  0  0
   16.1184   23.3013    6.0564 H   0  0  0  0  0  0
   15.4448   23.7463    8.4219 H   0  0  0  0  0  0
   14.3192   22.3475    8.3636 H   0  0  0  0  0  0
   17.9692   23.0404    7.5856 H   0  0  0  0  0  0
   16.7660   18.9412   10.1737 H   0  0  0  0  0  0
   14.9809   20.4513    9.3132 H   0  0  0  0  0  0
   15.4333   19.1513    5.7253 H   0  0  0  0  0  0
   17.1279   16.9151    5.1070 H   0  0  0  0  0  0
   18.6436   17.4582    4.3106 H   0  0  0  0  0  0
    5.5415   25.4316    1.0801 H   0  0  0  0  0  0
   14.7213   18.6106    3.5875 H   0  0  0  0  0  0
    3.1148   24.9748    1.0433 H   0  0  0  0  0  0
    0.9282   24.8898    2.2684 H   0  0  0  0  0  0
    0.9666   24.9496    4.7723 H   0  0  0  0  0  0
    5.1535   25.1206    4.8270 H   0  0  0  0  0  0
    9.8070   26.9913    6.0016 H   0  0  0  0  0  0
    8.4767   27.9457    7.8954 H   0  0  0  0  0  0
   10.1770   28.5249    7.9065 H   0  0  0  0  0  0
    9.3926   28.0126    9.4392 H   0  0  0  0  0  0
   11.6969   25.1770    8.6181 H   0  0  0  0  0  0
   11.2639   26.4020    9.8585 H   0  0  0  0  0  0
   12.0483   26.9142    8.3259 H   0  0  0  0  0  0
   15.2898   25.4171    3.3684 H   0  0  0  0  0  0
   19.7606   21.5190    8.4081 H   0  0  0  0  0  0
   19.1564   19.4718    9.6956 H   0  0  0  0  0  0
   16.9113   21.6383    4.9678 H   0  0  0  0  0  0
   17.8516   18.9261    6.4702 H   0  0  0  0  0  0
   17.5351   18.4200    2.5448 H   0  0  0  0  0  0
   16.4172   17.0674    2.9289 H   0  0  0  0  0  0
   14.9269   20.8302    2.8476 H   0  0  0  0  0  0
   15.5451   19.6890    1.6057 H   0  0  0  0  0  0
   16.6965   20.6356    2.6082 H   0  0  0  0  0  0
    6.8994   25.0707    3.9236 H   0  0  0  0  0  0
  1 28  1  0  0  0
  1  2  1  0  0  0
  1 46  1  0  0  0
  1 47  1  0  0  0
  2 34  1  0  0  0
  2  3  1  0  0  0
  2 48  1  0  0  0
  3 30  1  0  0  0
  3 29  2  0  0  0
  4 40  1  0  0  0
  4 49  1  0  0  0
  5 23  2  0  0  0
  6 31  1  0  0  0
  6 50  1  0  0  0
  6 51  1  0  0  0
  6 52  1  0  0  0
  7 34  1  0  0  0
  7  8  1  0  0  0
  7 53  1  0  0  0
  7 54  1  0  0  0
  8 28  1  0  0  0
  8 55  1  0  0  0
  8 56  1  0  0  0
  9 34  1  0  0  0
  9 10  1  0  0  0
  9 57  1  0  0  0
  9 58  1  0  0  0
 10 35  1  0  0  0
 10 11  1  0  0  0
 10 59  1  0  0  0
 11 12  1  0  0  0
 11 60  1  0  0  0
 11 61  1  0  0  0
 12 18  1  0  0  0
 12 13  1  0  0  0
 12 62  1  0  0  0
 13 14  1  0  0  0
 13 63  1  0  0  0
 13 64  1  0  0  0
 14 17  2  0  0  0
 14 15  1  0  0  0
 15 36  2  0  0  0
 15 65  1  0  0  0
 16 37  2  0  0  0
 16 17  1  0  0  0
 16 66  1  0  0  0
 17 67  1  0  0  0
 18 38  2  0  0  0
 18 39  1  0  0  0
 19 39  1  0  0  0
 19 40  1  0  0  0
 19 22  1  0  0  0
 19 68  1  0  0  0
 20 41  1  0  0  0
 20 40  1  0  0  0
 20 69  1  0  0  0
 20 70  1  0  0  0
 21 43  2  0  0  0
 21 44  1  0  0  0
 21 71  1  0  0  0
 22 41  1  0  0  0
 22 42  1  0  0  0
 22 72  1  0  0  0
 23 28  1  0  0  0
 23 43  1  0  0  0
 24 44  2  0  0  0
 24 25  1  0  0  0
 24 73  1  0  0  0
 25 26  2  0  0  0
 25 74  1  0  0  0
 26 45  1  0  0  0
 26 75  1  0  0  0
 27 44  1  0  0  0
 27 45  2  0  0  0
 27 76  1  0  0  0
 30 31  1  0  0  0
 30 77  1  0  0  0
 31 33  1  0  0  0
 31 32  1  0  0  0
 32 78  1  0  0  0
 32 79  1  0  0  0
 32 80  1  0  0  0
 33 81  1  0  0  0
 33 82  1  0  0  0
 33 83  1  0  0  0
 35 84  1  0  0  0
 36 37  1  0  0  0
 36 85  1  0  0  0
 37 86  1  0  0  0
 39 87  1  0  0  0
 40 88  1  0  0  0
 41 89  1  0  0  0
 41 90  1  0  0  0
 42 91  1  0  0  0
 42 92  1  0  0  0
 42 93  1  0  0  0
 43 94  1  0  0  0
M  END
> <s_m_source_file>
../2bpv_ligand.sdf

> <i_m_source_file_index>
1

> <s_epik_input>
W2NIXTFuW2NIXVtjSF1bY0hdYzEvW0NIXT1bQ0hdL0MoPU8pTihbQ0gyXVtDQEhdMkMoPU8pW05IXUMoW0NIM10pKFtDSDNdKVtDSDNdKVtDSDJdW0NIMl1bTkBIK10yW0NIMl1bQ0BASF0oW09IXSlbQ0gyXVtDQEBIXShbQ0gyXWMzW2NIXVtjSF1bY0hdW2NIXVtjSF0zKUMoPU8pW05IXVtDQEhdNFtDQEBIXShbQ0gzXSlbQ0gyXVtDSDJdW0NASF00W09IXQ==

> <s_epik_cmdline>
J2VwaWtfYXBwJywgJy1pbWFlJywgJ2xpZ2FuZF9wcm8ubWFlJywgJy1vbWFlJywgJ2xpZ2FuZF9wcmVwLm1hZScsICctbXMnLCAnMScsICctcGgnLCAnNycsICctcGh0JywgJzAuNScsICctbnQn

> <r_epik_Ionization_Penalty>
  0.0797

> <r_epik_Ionization_Penalty_Charging>
  0.0000

> <r_epik_Ionization_Penalty_Neutral>
  0.0797

> <r_epik_State_Penalty>
  0.0696

> <r_epik_Charging_Adjusted_Penalty>
0.0696003031884609

> <i_epik_Tot_Q>
0

> <i_epik_Tot_abs_Q>
0

$$$$
