2bpx_ligand
                    3D
 Schrodinger Suite 2020-3.
 93 97  0  0  1  0            999 V2000
    9.3350   24.4680    3.1140 N   0  0  1  0  0  0
    9.4030   24.7380    4.5690 C   0  0  0  0  0  0
   10.7000   25.4630    4.9540 C   0  0  1  0  0  0
   10.7510   25.6770    6.4560 C   0  0  0  0  0  0
   11.1530   24.7800    7.1970 O   0  0  0  0  0  0
   10.3340   26.8990    6.8710 N   0  0  0  0  0  0
   10.0620   27.2130    8.2730 C   0  0  0  0  0  0
    9.4680   28.6120    8.3850 C   0  0  0  0  0  0
   11.3670   27.1240    9.1060 C   0  0  0  0  0  0
    8.9380   26.3030    8.7870 C   0  0  0  0  0  0
   11.8610   24.6450    4.5220 N   0  3  1  0  0  0
   11.7780   24.4290    3.0710 C   0  0  0  0  0  0
   10.5050   23.6980    2.6900 C   0  0  0  0  0  0
   13.0700   25.4950    4.5650 C   0  0  0  0  0  0
   14.3490   24.8390    5.1220 C   0  0  1  0  0  0
   15.3090   25.6670    4.8290 O   0  0  0  0  0  0
   14.4490   24.5420    6.6320 C   0  0  0  0  0  0
   15.6490   23.7130    7.1090 C   0  0  1  0  0  0
   15.7550   23.6090    8.6300 C   0  0  0  0  0  0
   16.9130   22.7260    9.0480 C   0  0  0  0  0  0
   18.2390   22.9930    8.6660 C   0  0  0  0  0  0
   19.2700   22.0890    8.9830 C   0  0  0  0  0  0
   18.9350   20.9140    9.6970 C   0  0  0  0  0  0
   17.6150   20.6460   10.1220 C   0  0  0  0  0  0
   16.6110   21.5740    9.7870 C   0  0  0  0  0  0
   15.5650   22.3400    6.5350 C   0  0  0  0  0  0
   14.5180   21.6910    6.5700 O   0  0  0  0  0  0
   16.7330   21.8940    6.0900 N   0  0  0  0  0  0
   16.8990   20.4760    5.8320 C   0  0  2  0  0  0
   18.3450   19.9970    6.0790 C   0  0  2  0  0  0
   19.2450   20.7140    5.4160 O   0  0  0  0  0  0
   18.4690   18.6210    5.4960 C   0  0  0  0  0  0
   17.6110   18.9380    4.2480 C   0  0  0  0  0  0
   17.5970   18.2200    3.0320 C   0  0  0  0  0  0
   16.6960   18.6660    2.0380 C   0  0  0  0  0  0
   15.8570   19.8020    2.2470 C   0  0  0  0  0  0
   15.8770   20.4950    3.4800 C   0  0  0  0  0  0
   16.7610   20.0340    4.4520 C   0  0  0  0  0  0
    8.2090   23.5460    2.9300 C   0  0  0  0  0  0
    6.8650   24.2590    2.8410 C   0  0  0  0  0  0
    6.6250   25.2420    1.8560 C   0  0  0  0  0  0
    5.4280   25.8340    1.7700 N   0  0  0  0  0  0
    4.4200   25.5290    2.6030 C   0  0  0  0  0  0
    4.5560   24.5550    3.6240 C   0  0  0  0  0  0
    5.8140   23.9240    3.7240 C   0  0  0  0  0  0
    8.5530   25.3705    4.8647 H   0  0  0  0  0  0
    9.3619   23.7872    5.1207 H   0  0  0  0  0  0
   10.7624   26.4392    4.4508 H   0  0  0  0  0  0
   10.2021   27.6712    6.0988 H   0  0  0  0  0  0
   10.2037   29.3517    8.0363 H   0  0  0  0  0  0
    9.2101   28.8179    9.4343 H   0  0  0  0  0  0
    8.5615   28.6761    7.7652 H   0  0  0  0  0  0
   12.1216   27.8008    8.6787 H   0  0  0  0  0  0
   11.7461   26.0916    9.0843 H   0  0  0  0  0  0
   11.1589   27.4165   10.1458 H   0  0  0  0  0  0
    8.0500   26.4209    8.1486 H   0  0  0  0  0  0
    8.6857   26.5804    9.8211 H   0  0  0  0  0  0
    9.2728   25.2556    8.7596 H   0  0  0  0  0  0
   11.8830   23.7323    5.1355 H   0  0  0  0  0  0
   11.7897   25.4001    2.5545 H   0  0  0  0  0  0
   12.6373   23.8273    2.7401 H   0  0  0  0  0  0
   10.4938   22.7138    3.1811 H   0  0  0  0  0  0
   10.4796   23.5635    1.5986 H   0  0  0  0  0  0
   13.3205   25.8279    3.5470 H   0  0  0  0  0  0
   12.8792   26.3720    5.2010 H   0  0  0  0  0  0
   14.5241   23.8899    4.5943 H   0  0  0  0  0  0
   15.4330   26.0217    3.7952 H   0  0  0  0  0  0
   14.5080   25.4888    7.1888 H   0  0  0  0  0  0
   13.5594   23.9814    6.9552 H   0  0  0  0  0  0
   16.5588   24.2135    6.7460 H   0  0  0  0  0  0
   15.9105   24.6111    9.0561 H   0  0  0  0  0  0
   14.8265   23.1790    9.0337 H   0  0  0  0  0  0
   18.4707   23.9075    8.1199 H   0  0  0  0  0  0
   20.2997   22.2887    8.6863 H   0  0  0  0  0  0
   19.7201   20.1934    9.9261 H   0  0  0  0  0  0
   17.3807   19.7472   10.6925 H   0  0  0  0  0  0
   15.5846   21.3942   10.1067 H   0  0  0  0  0  0
   17.5701   22.5863    5.9166 H   0  0  0  0  0  0
   16.0737   20.1168    6.4643 H   0  0  0  0  0  0
   18.6422   20.1238    7.1305 H   0  0  0  0  0  0
   19.3731   21.7825    5.6438 H   0  0  0  0  0  0
   19.5298   18.3943    5.3137 H   0  0  0  0  0  0
   18.0526   17.8855    6.2001 H   0  0  0  0  0  0
   18.2498   17.3627    2.8676 H   0  0  0  0  0  0
   16.6407   18.1302    1.0904 H   0  0  0  0  0  0
   15.1949   20.1384    1.4491 H   0  0  0  0  0  0
   15.2288   21.3523    3.6613 H   0  0  0  0  0  0
    8.3486   22.9781    1.9983 H   0  0  0  0  0  0
    8.1625   22.8497    3.7803 H   0  0  0  0  0  0
    7.4186   25.5199    1.1624 H   0  0  0  0  0  0
    3.4673   26.0465    2.4906 H   0  0  0  0  0  0
    3.7337   24.3071    4.2951 H   0  0  0  0  0  0
    5.9772   23.1683    4.4924 H   0  0  0  0  0  0
  1  2  1  0  0  0
  1 13  1  0  0  0
  1 39  1  0  0  0
  2  3  1  0  0  0
  2 46  1  0  0  0
  2 47  1  0  0  0
  3  4  1  0  0  0
  3 11  1  0  0  0
  3 48  1  0  0  0
  4  5  2  0  0  0
  4  6  1  0  0  0
  6  7  1  0  0  0
  6 49  1  0  0  0
  7  8  1  0  0  0
  7  9  1  0  0  0
  7 10  1  0  0  0
  8 50  1  0  0  0
  8 51  1  0  0  0
  8 52  1  0  0  0
  9 53  1  0  0  0
  9 54  1  0  0  0
  9 55  1  0  0  0
 10 56  1  0  0  0
 10 57  1  0  0  0
 10 58  1  0  0  0
 11 12  1  0  0  0
 11 14  1  0  0  0
 11 59  1  0  0  0
 12 13  1  0  0  0
 12 60  1  0  0  0
 12 61  1  0  0  0
 13 62  1  0  0  0
 13 63  1  0  0  0
 14 15  1  0  0  0
 14 64  1  0  0  0
 14 65  1  0  0  0
 15 16  1  0  0  0
 15 17  1  0  0  0
 15 66  1  0  0  0
 16 67  1  0  0  0
 17 18  1  0  0  0
 17 68  1  0  0  0
 17 69  1  0  0  0
 18 19  1  0  0  0
 18 26  1  0  0  0
 18 70  1  0  0  0
 19 20  1  0  0  0
 19 71  1  0  0  0
 19 72  1  0  0  0
 20 21  2  0  0  0
 20 25  1  0  0  0
 21 22  1  0  0  0
 21 73  1  0  0  0
 22 23  2  0  0  0
 22 74  1  0  0  0
 23 24  1  0  0  0
 23 75  1  0  0  0
 24 25  2  0  0  0
 24 76  1  0  0  0
 25 77  1  0  0  0
 26 27  2  0  0  0
 26 28  1  0  0  0
 28 29  1  0  0  0
 28 78  1  0  0  0
 29 30  1  0  0  0
 29 38  1  0  0  0
 29 79  1  0  0  0
 30 31  1  0  0  0
 30 32  1  0  0  0
 30 80  1  0  0  0
 31 81  1  0  0  0
 32 33  1  0  0  0
 32 82  1  0  0  0
 32 83  1  0  0  0
 33 34  2  0  0  0
 33 38  1  0  0  0
 34 35  1  0  0  0
 34 84  1  0  0  0
 35 36  2  0  0  0
 35 85  1  0  0  0
 36 37  1  0  0  0
 36 86  1  0  0  0
 37 38  2  0  0  0
 37 87  1  0  0  0
 39 40  1  0  0  0
 39 88  1  0  0  0
 39 89  1  0  0  0
 40 41  2  0  0  0
 40 45  1  0  0  0
 41 42  1  0  0  0
 41 90  1  0  0  0
 42 43  2  0  0  0
 43 44  1  0  0  0
 43 91  1  0  0  0
 44 45  2  0  0  0
 44 92  1  0  0  0
 45 93  1  0  0  0
M  CHG  1  11   1
M  END
> <s_m_source_file>
../2bpx_ligand.sdf

> <i_m_source_file_index>
1

> <s_epik_input>
W2NIXTFbY0hdW2NIXW5bY0hdYzFbQ0gyXVtOQEgrXTJbQ0gyXVtDQEBIXShDKD1PKVtOSF1DKFtDSDNdKShbQ0gzXSlbQ0gzXSlbTkBASCtdKFtDSDJdW0NIMl0yKVtDSDJdW0NAQEhdKFtPSF0pW0NIMl1bQ0BASF0oW0NIMl1jM1tjSF1bY0hdW2NIXVtjSF1bY0hdMylDKD1PKVtOSF1bQ0BIXShbQ0BIXShbT0hdKVtDSDJdNCljKGM0NSlbY0hdW2NIXVtjSF1bY0hdNQ==

> <s_epik_cmdline>
J2VwaWtfYXBwJywgJy1pbWFlJywgJ2xpZ2FuZF9wcm8ubWFlJywgJy1vbWFlJywgJ2xpZ2FuZF9wcmVwLm1hZScsICctbXMnLCAnMScsICctcGgnLCAnNycsICctcGh0JywgJzAuNScsICctbnQn

> <r_epik_Ionization_Penalty>
  0.1676

> <r_epik_Ionization_Penalty_Charging>
  0.1567

> <r_epik_Ionization_Penalty_Neutral>
  0.0108

> <r_epik_State_Penalty>
  0.3908

> <r_epik_Charging_Adjusted_Penalty>
0.547583055920383

> <i_epik_Tot_Q>
1

> <i_epik_Tot_abs_Q>
1

$$$$
