2bq7_ligand
                    3D
 Schrodinger Suite 2020-3.
 62 65  0  0  1  0            999 V2000
    2.9280   10.1710   25.6810 C   0  0  0  0  0  0
    4.1290    9.3140   25.6060 C   0  0  0  0  0  0
    4.5190    8.6980   24.3160 C   0  0  0  0  0  0
    3.6890    8.9150   23.0960 C   0  0  0  0  0  0
    2.5090    9.7940   23.1820 C   0  0  0  0  0  0
    2.1280   10.4270   24.4640 C   0  0  0  0  0  0
    5.5630    7.8600   23.9420 N   0  0  0  0  0  0
    5.4000    7.5430   22.6360 C   0  0  0  0  0  0
    4.2690    8.1570   22.0620 C   0  0  0  0  0  0
    6.2190    6.6620   21.9460 C   0  0  0  0  0  0
    5.6200    5.8960   21.0150 N   0  0  0  0  0  0
    6.5290    4.8740   20.5510 C   0  0  2  0  0  0
    7.1480    5.2740   19.2120 C   0  0  0  0  0  0
    6.6300    7.3370   24.8480 C   0  0  0  0  0  0
    7.9910    8.0540   24.9150 C   0  0  0  0  0  0
    8.4230    9.1450   23.9950 C   0  0  0  0  0  0
    9.7460    9.7500   24.1690 C   0  0  0  0  0  0
   10.6360    9.2850   25.2370 C   0  0  0  0  0  0
   10.2270    8.2260   26.1600 C   0  0  0  0  0  0
    8.9040    7.6040   25.9830 C   0  0  0  0  0  0
    8.1740    4.2590   18.7010 C   0  0  0  0  0  0
   11.1410    7.9520   27.1750 O   0  0  0  0  0  0
    7.4220    6.5950   22.2000 O   0  0  0  0  0  0
   11.1000    6.7610   27.9850 C   0  0  0  0  0  0
    5.8550    3.5200   20.3430 C   0  0  0  0  0  0
    6.8320    2.4410   19.8490 C   0  0  0  0  0  0
    7.5590    2.9000   18.6120 N   0  3  2  0  0  0
    8.5080    1.8250   18.2030 C   0  0  0  0  0  0
    9.5270    2.2250   17.1470 C   0  0  0  0  0  0
    7.7150    0.6220   17.7310 C   0  0  0  0  0  0
    2.6320   10.6139   26.6320 H   0  0  0  0  0  0
    4.7278    9.1349   26.4990 H   0  0  0  0  0  0
    1.9099    9.9799   22.2906 H   0  0  0  0  0  0
    1.2579   11.0818   24.5113 H   0  0  0  0  0  0
    3.9177    8.0644   21.0343 H   0  0  0  0  0  0
    4.6021    5.9553   20.6023 H   0  0  0  0  0  0
    7.2596    4.8225   21.3717 H   0  0  0  0  0  0
    6.3563    5.3600   18.4532 H   0  0  0  0  0  0
    7.6599    6.2417   19.3192 H   0  0  0  0  0  0
    6.2677    7.3493   25.8865 H   0  0  0  0  0  0
    6.8827    6.3059   24.5600 H   0  0  0  0  0  0
    7.7608    9.4892   23.2005 H   0  0  0  0  0  0
   10.0697   10.5489   23.5018 H   0  0  0  0  0  0
   11.6219    9.7371   25.3456 H   0  0  0  0  0  0
    8.5949    6.7997   26.6505 H   0  0  0  0  0  0
    8.5230    4.5613   17.7026 H   0  0  0  0  0  0
    9.0287    4.2218   19.3924 H   0  0  0  0  0  0
   11.9262    6.7827   28.7109 H   0  0  0  0  0  0
   11.2015    5.8755   27.3403 H   0  0  0  0  0  0
   10.1411    6.7157   28.5220 H   0  0  0  0  0  0
    5.4246    3.1747   21.2946 H   0  0  0  0  0  0
    5.0558    3.6195   19.5937 H   0  0  0  0  0  0
    7.5713    2.2282   20.6352 H   0  0  0  0  0  0
    6.2748    1.5228   19.6115 H   0  0  0  0  0  0
    6.8247    3.0535   17.8075 H   0  0  0  0  0  0
    9.0929    1.6050   19.1083 H   0  0  0  0  0  0
   10.0964    3.0978   17.4990 H   0  0  0  0  0  0
    9.0058    2.4798   16.2124 H   0  0  0  0  0  0
   10.2157    1.3866   16.9659 H   0  0  0  0  0  0
    6.9816    0.3411   18.5012 H   0  0  0  0  0  0
    8.3990   -0.2205   17.5514 H   0  0  0  0  0  0
    7.1891    0.8727   16.7980 H   0  0  0  0  0  0
  1  2  2  0  0  0
  1  6  1  0  0  0
  1 31  1  0  0  0
  2  3  1  0  0  0
  2 32  1  0  0  0
  3  4  2  0  0  0
  3  7  1  0  0  0
  4  5  1  0  0  0
  4  9  1  0  0  0
  5  6  2  0  0  0
  5 33  1  0  0  0
  6 34  1  0  0  0
  7  8  1  0  0  0
  7 14  1  0  0  0
  8  9  2  0  0  0
  8 10  1  0  0  0
  9 35  1  0  0  0
 10 11  1  0  0  0
 10 23  2  0  0  0
 11 12  1  0  0  0
 11 36  1  0  0  0
 12 13  1  0  0  0
 12 25  1  0  0  0
 12 37  1  0  0  0
 13 21  1  0  0  0
 13 38  1  0  0  0
 13 39  1  0  0  0
 14 15  1  0  0  0
 14 40  1  0  0  0
 14 41  1  0  0  0
 15 16  2  0  0  0
 15 20  1  0  0  0
 16 17  1  0  0  0
 16 42  1  0  0  0
 17 18  2  0  0  0
 17 43  1  0  0  0
 18 19  1  0  0  0
 18 44  1  0  0  0
 19 20  2  0  0  0
 19 22  1  0  0  0
 20 45  1  0  0  0
 21 27  1  0  0  0
 21 46  1  0  0  0
 21 47  1  0  0  0
 22 24  1  0  0  0
 24 48  1  0  0  0
 24 49  1  0  0  0
 24 50  1  0  0  0
 25 26  1  0  0  0
 25 51  1  0  0  0
 25 52  1  0  0  0
 26 27  1  0  0  0
 26 53  1  0  0  0
 26 54  1  0  0  0
 27 28  1  0  0  0
 27 55  1  0  0  0
 28 29  1  0  0  0
 28 30  1  0  0  0
 28 56  1  0  0  0
 29 57  1  0  0  0
 29 58  1  0  0  0
 29 59  1  0  0  0
 30 60  1  0  0  0
 30 61  1  0  0  0
 30 62  1  0  0  0
M  CHG  1  27   1
M  END
> <s_m_source_file>
../2bq7_ligand.sdf

> <i_m_source_file_index>
1

> <s_epik_input>
W0NIMl0xW0NIMl1bTkBIK10oW0NIXShbQ0gzXSlbQ0gzXSlbQ0gyXVtDSDJdW0NASF0xW05IXUMoPU8pYyhbY0hdYyhjMjMpW2NIXVtjSF1bY0hdW2NIXTIpbjNbQ0gyXWM0W2NIXVtjSF1bY0hdYyhbY0hdNClPW0NIM10=

> <s_epik_cmdline>
J2VwaWtfYXBwJywgJy1pbWFlJywgJ2xpZ2FuZF9wcm8ubWFlJywgJy1vbWFlJywgJ2xpZ2FuZF9wcmVwLm1hZScsICctbXMnLCAnMScsICctcGgnLCAnNycsICctcGh0JywgJzAuNScsICctbnQn

> <r_lp_tautomer_probability>
1

> <r_epik_Ionization_Penalty>
  0.0058

> <r_epik_Ionization_Penalty_Charging>
  0.0058

> <r_epik_Ionization_Penalty_Neutral>
  0.0000

> <r_epik_State_Penalty>
 -0.0000

> <r_epik_Charging_Adjusted_Penalty>
0.00575021675476827

> <i_epik_Tot_Q>
1

> <i_epik_Tot_abs_Q>
1

$$$$
