2bqv_ligand
                    3D
 Schrodinger Suite 2020-3.
 83 86  0  0  1  0            999 V2000
   11.2050   23.5680    3.2120 C   0  0  0  0  0  0
   10.9580   24.6870    2.3360 C   0  0  0  0  0  0
    9.6500   24.9000    1.7910 C   0  0  0  0  0  0
    8.5800   24.0050    2.1130 C   0  0  0  0  0  0
    8.8150   22.8880    2.9790 C   0  0  0  0  0  0
   10.1190   22.6700    3.5280 C   0  0  0  0  0  0
   16.3190   22.5150    8.1320 C   0  0  0  0  0  0
   17.6310   22.0230    8.4580 C   0  0  0  0  0  0
   17.7960   20.9570    9.3990 C   0  0  0  0  0  0
   16.6460   20.3730   10.0250 C   0  0  0  0  0  0
   15.3320   20.8570    9.7080 C   0  0  0  0  0  0
   15.1680   21.9240    8.7650 C   0  0  0  0  0  0
   16.2050   23.6620    7.1150 C   0  0  0  0  0  0
   19.9980   18.2300    7.3330 C   0  0  0  0  0  0
   13.9810   23.7580    6.1230 C   0  0  0  0  0  0
   19.1030   20.1170    5.4440 O   0  0  0  0  0  0
   17.0530   19.1780    5.4240 N   0  0  0  0  0  0
   12.6090   23.3500    3.8330 C   0  0  0  0  0  0
   13.4140   25.5240    4.5570 O   0  0  0  0  0  0
   18.6870   18.2930    6.7790 O   0  0  0  0  0  0
   11.6220   24.5080    5.9080 C   0  0  0  0  0  0
   11.2890   23.6920    6.7900 O   0  0  0  0  0  0
   10.8690   25.5990    5.6880 N   0  0  0  0  0  0
    9.6490   25.9060    6.4570 C   0  0  1  0  0  0
    9.8750   26.7030    7.7130 C   0  0  0  0  0  0
    8.7640   27.5470    7.9310 C   0  0  0  0  0  0
   10.9930   26.6900    8.6100 C   0  0  0  0  0  0
   10.9550   27.5670    9.7440 C   0  0  0  0  0  0
    9.8200   28.4300    9.9660 C   0  0  0  0  0  0
    8.5610   26.7340    5.6850 C   0  0  2  0  0  0
    9.1140   27.8490    4.9750 O   0  0  0  0  0  0
   18.3210   19.2340    5.8690 C   0  0  0  0  0  0
    8.7080   28.4260    9.0550 C   0  0  0  0  0  0
    7.7270   27.3590    6.8320 C   0  0  0  0  0  0
   16.4460   20.0700    4.4420 C   0  0  1  0  0  0
   15.8860   19.1680    3.2980 C   0  0  0  0  0  0
   16.9700   18.2640    2.6470 C   0  0  0  0  0  0
   12.9340   24.2830    5.0580 C   0  0  2  0  0  0
   15.2330   19.9660    2.1590 C   0  0  0  0  0  0
   15.4440   21.0340    5.1590 C   0  0  0  0  0  0
   15.4020   23.4710    5.8620 N   0  0  2  0  0  0
   14.4470   20.5980    5.7490 O   0  0  0  0  0  0
   15.7440   22.3610    5.0620 N   0  0  0  0  0  0
   11.7684   25.3724    2.0879 H   0  0  0  0  0  0
    9.4690   25.7466    1.1288 H   0  0  0  0  0  0
    7.5858   24.1735    1.6990 H   0  0  0  0  0  0
    8.0010   22.2043    3.2198 H   0  0  0  0  0  0
   10.2933   21.8208    4.1887 H   0  0  0  0  0  0
   18.5071   22.4658    7.9843 H   0  0  0  0  0  0
   18.7939   20.5900    9.6391 H   0  0  0  0  0  0
   16.7693   19.5612   10.7419 H   0  0  0  0  0  0
   14.4583   20.4127   10.1849 H   0  0  0  0  0  0
   14.1692   22.2893    8.5262 H   0  0  0  0  0  0
   15.7434   24.5358    7.5981 H   0  0  0  0  0  0
   17.2078   23.9310    6.7518 H   0  0  0  0  0  0
   20.0566   17.3909    8.0418 H   0  0  0  0  0  0
   20.2194   19.1704    7.8589 H   0  0  0  0  0  0
   20.7303   18.0801    6.5260 H   0  0  0  0  0  0
   14.0639   24.4846    6.9447 H   0  0  0  0  0  0
   13.6440   22.7900    6.5222 H   0  0  0  0  0  0
   16.4593   18.3676    5.8720 H   0  0  0  0  0  0
   12.6952   22.3130    4.1896 H   0  0  0  0  0  0
   13.3802   23.5414    3.0723 H   0  0  0  0  0  0
   14.3245   25.5531    3.9405 H   0  0  0  0  0  0
   11.2017   26.2789    4.8899 H   0  0  0  0  0  0
    9.3667   24.8668    6.6817 H   0  0  0  0  0  0
   11.8457   26.0338    8.4356 H   0  0  0  0  0  0
   11.7904   27.5818   10.4440 H   0  0  0  0  0  0
    9.8057   29.0911   10.8325 H   0  0  0  0  0  0
    8.0437   26.1494    4.9100 H   0  0  0  0  0  0
    9.7580   27.6790    4.0996 H   0  0  0  0  0  0
    7.8474   29.0749    9.2174 H   0  0  0  0  0  0
    6.9290   26.6925    7.1910 H   0  0  0  0  0  0
    7.2964   28.3349    6.5633 H   0  0  0  0  0  0
   17.2063   20.7308    4.0001 H   0  0  0  0  0  0
   15.1215   18.5539    3.7964 H   0  0  0  0  0  0
   17.4685   17.6697    3.4269 H   0  0  0  0  0  0
   17.7127   18.8932    2.1346 H   0  0  0  0  0  0
   16.4959   17.5895    1.9188 H   0  0  0  0  0  0
   14.4545   20.6243    2.5720 H   0  0  0  0  0  0
   14.7801   19.2707    1.4369 H   0  0  0  0  0  0
   15.9969   20.5743    1.6527 H   0  0  0  0  0  0
   16.3700   22.4993    4.1681 H   0  0  0  0  0  0
  1  2  2  0  0  0
  1  6  1  0  0  0
  1 18  1  0  0  0
  2  3  1  0  0  0
  2 44  1  0  0  0
  3  4  2  0  0  0
  3 45  1  0  0  0
  4  5  1  0  0  0
  4 46  1  0  0  0
  5  6  2  0  0  0
  5 47  1  0  0  0
  6 48  1  0  0  0
  7  8  2  0  0  0
  7 12  1  0  0  0
  7 13  1  0  0  0
  8  9  1  0  0  0
  8 49  1  0  0  0
  9 10  2  0  0  0
  9 50  1  0  0  0
 10 11  1  0  0  0
 10 51  1  0  0  0
 11 12  2  0  0  0
 11 52  1  0  0  0
 12 53  1  0  0  0
 13 41  1  0  0  0
 13 54  1  0  0  0
 13 55  1  0  0  0
 14 20  1  0  0  0
 14 56  1  0  0  0
 14 57  1  0  0  0
 14 58  1  0  0  0
 15 38  1  0  0  0
 15 41  1  0  0  0
 15 59  1  0  0  0
 15 60  1  0  0  0
 16 32  2  0  0  0
 17 32  1  0  0  0
 17 35  1  0  0  0
 17 61  1  0  0  0
 18 38  1  0  0  0
 18 62  1  0  0  0
 18 63  1  0  0  0
 19 38  1  0  0  0
 19 64  1  0  0  0
 20 32  1  0  0  0
 21 22  2  0  0  0
 21 23  1  0  0  0
 21 38  1  0  0  0
 23 24  1  0  0  0
 23 65  1  0  0  0
 24 25  1  0  0  0
 24 30  1  0  0  0
 24 66  1  0  0  0
 25 26  2  0  0  0
 25 27  1  0  0  0
 26 33  1  0  0  0
 26 34  1  0  0  0
 27 28  2  0  0  0
 27 67  1  0  0  0
 28 29  1  0  0  0
 28 68  1  0  0  0
 29 33  2  0  0  0
 29 69  1  0  0  0
 30 31  1  0  0  0
 30 34  1  0  0  0
 30 70  1  0  0  0
 31 71  1  0  0  0
 33 72  1  0  0  0
 34 73  1  0  0  0
 34 74  1  0  0  0
 35 36  1  0  0  0
 35 40  1  0  0  0
 35 75  1  0  0  0
 36 37  1  0  0  0
 36 39  1  0  0  0
 36 76  1  0  0  0
 37 77  1  0  0  0
 37 78  1  0  0  0
 37 79  1  0  0  0
 39 80  1  0  0  0
 39 81  1  0  0  0
 39 82  1  0  0  0
 40 42  2  0  0  0
 40 43  1  0  0  0
 41 43  1  0  0  0
 43 83  1  0  0  0
M  END
> <s_m_source_file>
../2bqv_ligand.sdf

> <i_m_source_file_index>
1

> <s_epik_input>
W2NIXTFbY0hdW2NIXVtjSF1bY0hdYzFbQ0gyXVtOQEBIK10oW05IXUMoPU8pW0NASF0oW0NIXShbQ0gzXSlbQ0gzXSlbTkhdQyg9TylPW0NIM10pW0NIMl1bQ0BAXShbT0hdKShbQ0gyXWMyW2NIXVtjSF1bY0hdW2NIXVtjSF0yKUMoPU8pW05IXVtDQEBIXTNbQ0BIXShbT0hdKVtDSDJdYyhjMzQpW2NIXVtjSF1bY0hdW2NIXTQ=

> <s_epik_cmdline>
J2VwaWtfYXBwJywgJy1pbWFlJywgJ2xpZ2FuZF9wcm8ubWFlJywgJy1vbWFlJywgJ2xpZ2FuZF9wcmVwLm1hZScsICctbXMnLCAnMScsICctcGgnLCAnNycsICctcGh0JywgJzAuNScsICctbnQn

> <r_lp_tautomer_probability>
1

> <r_epik_Ionization_Penalty>
  0.0000

> <r_epik_Ionization_Penalty_Charging>
  0.0000

> <r_epik_Ionization_Penalty_Neutral>
  0.0000

> <r_epik_State_Penalty>
 -0.0000

> <r_epik_Charging_Adjusted_Penalty>
0

> <i_epik_Tot_Q>
0

> <i_epik_Tot_abs_Q>
0

> <s_epik_Chemistry_Notes>
This compound has an ester and may undergo hydrolysis at high or low pH.

$$$$
