2bqw_ligand
                    3D
 Schrodinger Suite 2020-3.
 62 65  0  0  1  0            999 V2000
    3.3080   10.3150   25.1190 C   0  0  0  0  0  0
    4.3610    9.2950   25.1870 C   0  0  0  0  0  0
    4.8340    8.6550   23.9310 C   0  0  0  0  0  0
    4.2640    9.0330   22.6300 C   0  0  0  0  0  0
    3.2350   10.0650   22.5880 C   0  0  0  0  0  0
    2.7490   10.7040   23.8140 C   0  0  0  0  0  0
    5.7610    7.6690   23.6630 N   0  0  0  0  0  0
    5.7980    7.4410   22.3590 C   0  0  0  0  0  0
    4.8910    8.2390   21.6710 C   0  0  0  0  0  0
    6.7300    6.6690   21.7310 C   0  0  0  0  0  0
    6.2790    5.9310   20.7060 N   0  0  0  0  0  0
    7.2490    4.9750   20.1930 C   0  0  1  0  0  0
    6.6140    3.5920   20.3280 C   0  0  0  0  0  0
    7.4960    2.5350   19.6990 C   0  0  0  0  0  0
    7.7350    2.8910   18.2770 N   0  3  1  0  0  0
    8.4670    4.1860   18.1620 C   0  0  0  0  0  0
    7.5780    5.2820   18.7280 C   0  0  0  0  0  0
    8.3450    1.7110   17.6080 C   0  0  0  0  0  0
    9.7140    1.3050   18.2200 C   0  0  0  0  0  0
    8.4930    2.0220   16.1240 C   0  0  0  0  0  0
    6.5940    7.0300   24.6770 C   0  0  0  0  0  0
    7.7290    7.9920   24.9440 C   0  0  0  0  0  0
   10.3430    7.1570   27.4100 C   0  0  0  0  0  0
   11.7850    7.1400   27.6250 C   0  0  0  0  0  0
    9.7700    7.6550   26.1670 C   0  0  0  0  0  0
   12.6660    7.6150   26.5700 C   0  0  0  0  0  0
   12.1000    8.1340   25.3290 C   0  0  0  0  0  0
   10.6680    8.1520   25.1310 C   0  0  0  0  0  0
    8.4270    7.5680   26.0170 N   0  0  0  0  0  0
    7.9420    8.9770   24.2280 O   0  0  0  0  0  0
   14.3360    7.5000   26.7280 Cl  0  0  0  0  0  0
    7.9000    6.6950   22.1320 O   0  0  0  0  0  0
    2.9409   10.7832   26.0323 H   0  0  0  0  0  0
    4.7913    9.0099   26.1470 H   0  0  0  0  0  0
    2.8194   10.3669   21.6267 H   0  0  0  0  0  0
    1.9732   11.4677   23.7595 H   0  0  0  0  0  0
    4.7070    8.2430   20.5967 H   0  0  0  0  0  0
    5.2791    5.9971   20.2524 H   0  0  0  0  0  0
    8.1725    5.0618   20.7843 H   0  0  0  0  0  0
    6.4776    3.3536   21.3932 H   0  0  0  0  0  0
    5.6368    3.5863   19.8230 H   0  0  0  0  0  0
    8.4544    2.4897   20.2369 H   0  0  0  0  0  0
    6.9957    1.5572   19.7583 H   0  0  0  0  0  0
    6.7994    3.0954   17.7358 H   0  0  0  0  0  0
    9.4065    4.1279   18.7312 H   0  0  0  0  0  0
    8.6911    4.3879   17.1042 H   0  0  0  0  0  0
    6.6461    5.3327   18.1458 H   0  0  0  0  0  0
    8.1030    6.2466   18.6644 H   0  0  0  0  0  0
    7.6467    0.8756   17.7643 H   0  0  0  0  0  0
    9.5864    1.0848   19.2901 H   0  0  0  0  0  0
   10.4295    2.1316   18.0985 H   0  0  0  0  0  0
   10.0954    0.4112   17.7046 H   0  0  0  0  0  0
    7.5146    2.3069   15.7097 H   0  0  0  0  0  0
    8.8685    1.1316   15.5985 H   0  0  0  0  0  0
    9.2027    2.8521   15.9923 H   0  0  0  0  0  0
    5.9975    6.8550   25.5845 H   0  0  0  0  0  0
    6.9673    6.0693   24.2927 H   0  0  0  0  0  0
    9.6812    6.7900   28.1945 H   0  0  0  0  0  0
   12.1979    6.7755   28.5656 H   0  0  0  0  0  0
   12.7602    8.5100   24.5474 H   0  0  0  0  0  0
   10.2561    8.5403   24.1995 H   0  0  0  0  0  0
    7.9029    7.1058   26.8665 H   0  0  0  0  0  0
  1  2  2  0  0  0
  1  6  1  0  0  0
  1 33  1  0  0  0
  2  3  1  0  0  0
  2 34  1  0  0  0
  3  4  2  0  0  0
  3  7  1  0  0  0
  4  5  1  0  0  0
  4  9  1  0  0  0
  5  6  2  0  0  0
  5 35  1  0  0  0
  6 36  1  0  0  0
  7  8  1  0  0  0
  7 21  1  0  0  0
  8  9  2  0  0  0
  8 10  1  0  0  0
  9 37  1  0  0  0
 10 11  1  0  0  0
 10 32  2  0  0  0
 11 12  1  0  0  0
 11 38  1  0  0  0
 12 13  1  0  0  0
 12 17  1  0  0  0
 12 39  1  0  0  0
 13 14  1  0  0  0
 13 40  1  0  0  0
 13 41  1  0  0  0
 14 15  1  0  0  0
 14 42  1  0  0  0
 14 43  1  0  0  0
 15 16  1  0  0  0
 15 18  1  0  0  0
 15 44  1  0  0  0
 16 17  1  0  0  0
 16 45  1  0  0  0
 16 46  1  0  0  0
 17 47  1  0  0  0
 17 48  1  0  0  0
 18 19  1  0  0  0
 18 20  1  0  0  0
 18 49  1  0  0  0
 19 50  1  0  0  0
 19 51  1  0  0  0
 19 52  1  0  0  0
 20 53  1  0  0  0
 20 54  1  0  0  0
 20 55  1  0  0  0
 21 22  1  0  0  0
 21 56  1  0  0  0
 21 57  1  0  0  0
 22 29  1  0  0  0
 22 30  2  0  0  0
 23 24  2  0  0  0
 23 25  1  0  0  0
 23 58  1  0  0  0
 24 26  1  0  0  0
 24 59  1  0  0  0
 25 28  2  0  0  0
 25 29  1  0  0  0
 26 27  2  0  0  0
 26 31  1  0  0  0
 27 28  1  0  0  0
 27 60  1  0  0  0
 28 61  1  0  0  0
 29 62  1  0  0  0
M  CHG  1  15   1
M  END
> <s_m_source_file>
../2bqw_ligand.sdf

> <i_m_source_file_index>
1

> <s_epik_input>
W0NIMl0xW0NIMl1bTkBASCtdKFtDSF0oW0NIM10pW0NIM10pW0NIMl1bQ0gyXVtDQEBIXTFbTkhdQyg9TyljKFtjSF1jKGMyMylbY0hdW2NIXVtjSF1bY0hdMiluM1tDSDJdQyg9TylbTkhdYzRbY0hdW2NIXWMoQ2wpW2NIXVtjSF00

> <s_epik_cmdline>
J2VwaWtfYXBwJywgJy1pbWFlJywgJ2xpZ2FuZF9wcm8ubWFlJywgJy1vbWFlJywgJ2xpZ2FuZF9wcmVwLm1hZScsICctbXMnLCAnMScsICctcGgnLCAnNycsICctcGh0JywgJzAuNScsICctbnQn

> <r_lp_tautomer_probability>
1

> <r_epik_Ionization_Penalty>
  0.0058

> <r_epik_Ionization_Penalty_Charging>
  0.0058

> <r_epik_Ionization_Penalty_Neutral>
  0.0000

> <r_epik_State_Penalty>
 -0.0000

> <r_epik_Charging_Adjusted_Penalty>
0.00575021675476827

> <i_epik_Tot_Q>
1

> <i_epik_Tot_abs_Q>
1

$$$$
