2br6_ligand
                    3D
 Schrodinger Suite 2020-3.
 15 15  0  0  1  0            999 V2000
    9.0250   20.9090   13.5860 N   0  3  0  0  0  0
    8.6970   22.1290   13.4550 C   0  0  2  0  0  0
    9.2120   23.0850   12.5000 C   0  0  0  0  0  0
    9.4140   22.9260   11.2950 O   0  0  0  0  0  0
    8.0430   22.8740   14.6590 C   0  0  0  0  0  0
    8.7190   24.2340   14.5760 C   0  0  0  0  0  0
    9.4110   24.3440   13.2390 O   0  0  0  0  0  0
    9.4682   20.5456   12.6471 H   0  0  0  0  0  0
    8.1319   20.3128   13.8247 H   0  0  0  0  0  0
    9.7589   20.8120   14.3996 H   0  0  0  0  0  0
    8.3729   21.3042   12.8034 H   0  0  0  0  0  0
    6.9536   22.9197   14.5139 H   0  0  0  0  0  0
    8.2664   22.3328   15.5902 H   0  0  0  0  0  0
    7.9621   25.0262   14.6733 H   0  0  0  0  0  0
    9.4547   24.3280   15.3884 H   0  0  0  0  0  0
  1  2  1  0  0  0
  1  8  1  0  0  0
  1  9  1  0  0  0
  1 10  1  0  0  0
  2  3  1  0  0  0
  2  5  1  0  0  0
  2 11  1  0  0  0
  3  4  2  0  0  0
  3  7  1  0  0  0
  5  6  1  0  0  0
  5 12  1  0  0  0
  5 13  1  0  0  0
  6  7  1  0  0  0
  6 14  1  0  0  0
  6 15  1  0  0  0
M  CHG  1   1   1
M  END
> <s_m_source_file>
../2br6_ligand.sdf

> <i_m_source_file_index>
1

> <s_epik_input>
W05IMytdW0NAQEhdMUMoPU8pT1tDSDJdW0NIMl0x

> <s_epik_cmdline>
J2VwaWtfYXBwJywgJy1pbWFlJywgJ2xpZ2FuZF9wcm8ubWFlJywgJy1vbWFlJywgJ2xpZ2FuZF9wcmVwLm1hZScsICctbXMnLCAnMScsICctcGgnLCAnNycsICctcGh0JywgJzAuNScsICctbnQn

> <r_epik_Ionization_Penalty>
  0.2779

> <r_epik_Ionization_Penalty_Charging>
  0.2779

> <r_epik_Ionization_Penalty_Neutral>
  0.0000

> <r_epik_State_Penalty>
  0.2704

> <r_epik_Charging_Adjusted_Penalty>
0.548332435141714

> <i_epik_Tot_Q>
1

> <i_epik_Tot_abs_Q>
1

> <s_epik_Chemistry_Notes>
This compound has an ester and may undergo hydrolysis at high or low pH.

$$$$
