2br8_ligand
                    3D
 Schrodinger Suite 2020-3.
223228  0  0  1  0            999 V2000
   63.4380  113.4570   46.1300 N   0  3  0  0  0  0
   64.8100  114.0430   46.1390 C   0  0  0  0  0  0
   65.8900  113.1050   45.6350 C   0  0  0  0  0  0
   65.5930  112.0730   45.0000 O   0  0  0  0  0  0
   67.1470  113.4740   45.9300 N   0  0  0  0  0  0
   68.3380  112.8070   45.4010 C   0  0  2  0  0  0
   68.4630  111.3430   45.8060 C   0  0  0  0  0  0
   68.6910  110.4650   44.9600 O   0  0  0  0  0  0
   69.6050  113.5350   45.8540 C   0  0  0  0  0  0
   71.1240  112.6110   45.4730 S   0  0  0  0  0  0
   68.3200  111.0880   47.1010 N   0  0  0  0  0  0
   68.5750  109.7760   47.6610 C   0  0  2  0  0  0
   67.5080  108.7260   47.3030 C   0  0  0  0  0  0
   67.6530  107.5530   47.6510 O   0  0  0  0  0  0
   68.7470  109.8910   49.1820 C   0  0  0  0  0  0
   70.0170  111.0720   49.6800 S   0  0  0  0  0  0
   66.4450  109.1390   46.6200 N   0  0  0  0  0  0
   65.4520  108.1870   46.1030 C   0  0  2  0  0  0
   65.8690  107.6870   44.7340 C   0  0  0  0  0  0
   65.2640  106.7490   44.1880 O   0  0  0  0  0  0
   64.0920  108.8410   45.9880 C   0  0  0  0  0  0
   63.7160  109.3390   47.2450 O   0  0  0  0  0  0
   66.8860  108.3490   44.1810 N   0  0  0  0  0  0
   67.3790  108.0420   42.8630 C   0  0  2  0  0  0
   68.7510  107.4230   43.0260 C   0  0  0  0  0  0
   69.7120  108.1140   43.3640 O   0  0  0  0  0  0
   67.4270  109.3020   41.9900 C   0  0  0  0  0  0
   67.7850  109.1560   40.4990 C   0  0  0  0  0  0
   66.8040  108.2670   39.7190 C   0  0  0  0  0  0
   67.9330  110.5230   39.8440 C   0  0  0  0  0  0
   68.8290  106.1140   42.8060 N   0  0  0  0  0  0
   70.0530  105.3580   43.0320 C   0  0  2  0  0  0
   71.3370  105.9180   42.4000 C   0  0  0  0  0  0
   72.3650  105.9380   43.1040 O   0  0  0  0  0  0
   69.7050  103.9710   42.4890 C   0  0  0  0  0  0
   68.2500  103.8840   42.7000 C   0  0  0  0  0  0
   67.7330  105.2400   42.3450 C   0  0  0  0  0  0
   71.3240  106.3610   41.1320 N   0  0  0  0  0  0
   72.5440  106.9280   40.5320 C   0  0  2  0  0  0
   73.0410  108.1620   41.2730 C   0  0  0  0  0  0
   74.2620  108.3920   41.3370 O   0  0  0  0  0  0
   72.1230  107.2790   39.0960 C   0  0  0  0  0  0
   70.6320  107.2860   39.0990 C   0  0  0  0  0  0
   70.2110  106.3300   40.1610 C   0  0  0  0  0  0
   72.1000  108.9340   41.8280 N   0  0  0  0  0  0
   72.4140  110.0990   42.6610 C   0  0  2  0  0  0
   72.9010  109.6580   44.0480 C   0  0  0  0  0  0
   74.0050  110.0400   44.4830 O   0  0  0  0  0  0
   71.2130  111.0500   42.7530 C   0  0  0  0  0  0
   71.5700  112.6710   43.4820 S   0  0  0  0  0  0
   72.1020  108.8320   44.7190 N   0  0  0  0  0  0
   72.5290  108.1970   45.9620 C   0  0  2  0  0  0
   73.9590  107.6370   45.8560 C   0  0  0  0  0  0
   74.7930  107.9090   46.7130 O   0  0  0  0  0  0
   71.5410  107.1040   46.3690 C   0  0  0  0  0  0
   74.2360  106.8790   44.7940 N   0  0  0  0  0  0
   75.5600  106.2980   44.5490 C   0  0  2  0  0  0
   76.6710  107.3260   44.4140 C   0  0  0  0  0  0
   77.7910  107.1120   44.8960 O   0  0  0  0  0  0
   75.5620  105.4830   43.2610 C   0  0  0  0  0  0
   75.4100  103.9760   43.1800 C   0  0  0  0  0  0
   76.0910  103.5910   41.8940 C   0  0  0  0  0  0
   76.0150  103.2210   44.3600 C   0  0  0  0  0  0
   76.3750  108.4190   43.7200 N   0  0  0  0  0  0
   77.3490  109.4800   43.5110 C   0  0  2  0  0  0
   77.5450  110.3370   44.7480 C   0  0  0  0  0  0
   78.5410  111.0420   44.8770 O   0  0  0  0  0  0
   76.9360  110.3430   42.3260 C   0  0  0  0  0  0
   77.5190  109.8480   41.0190 C   0  0  0  0  0  0
   78.2920  110.5530   40.3740 O   0  0  0  0  0  0
   77.1650  108.6280   40.6260 N   0  0  0  0  0  0
   76.5930  110.2470   45.6690 N   0  0  0  0  0  0
   76.6090  111.0460   46.8920 C   0  0  2  0  0  0
   76.4780  110.2290   48.1820 C   0  0  0  0  0  0
   75.5290  110.4380   48.9420 O   0  0  0  0  0  0
   75.5160  112.1070   46.8090 C   0  0  0  0  0  0
   75.7490  113.0750   45.6670 C   0  0  0  0  0  0
   76.4620  114.0650   45.8210 O   0  0  0  0  0  0
   75.1530  112.7900   44.5080 N   0  0  0  0  0  0
   77.4270  109.3160   48.4310 N   0  0  0  0  0  0
   77.4160  108.4810   49.6340 C   0  0  2  0  0  0
   77.3180  109.2860   50.9290 C   0  0  0  0  0  0
   76.3870  109.0780   51.7080 O   0  0  0  0  0  0
   78.7750  107.7630   49.5740 C   0  0  0  0  0  0
   79.1190  107.7220   48.1400 C   0  0  0  0  0  0
   78.6010  109.0210   47.5870 C   0  0  0  0  0  0
   78.2710  110.1910   51.1540 N   0  0  0  0  0  0
   78.2890  110.9990   52.3670 C   0  0  2  0  0  0
   76.9360  111.6520   52.6530 C   0  0  0  0  0  0
   76.4640  111.6100   53.7920 O   0  0  0  0  0  0
   79.3930  112.0620   52.3110 C   0  0  0  0  0  0
   80.6790  111.6690   53.0240 C   0  0  0  0  0  0
   81.4200  112.9000   53.5020 C   0  0  0  0  0  0
   82.6160  112.5300   54.3790 C   0  0  0  0  0  0
   83.2650  113.7360   54.9540 N   0  3  0  0  0  0
   76.3170  112.2380   51.6240 N   0  0  0  0  0  0
   75.0270  112.9180   51.7800 C   0  0  2  0  0  0
   73.8820  111.9460   52.0580 C   0  0  0  0  0  0
   72.9620  112.2470   52.8220 O   0  0  0  0  0  0
   74.6850  113.7670   50.5440 C   0  0  0  0  0  0
   73.3700  114.5140   50.6920 C   0  0  0  0  0  0
   73.2480  115.5750   51.6060 C   0  0  0  0  0  0
   72.2420  114.1510   49.9410 C   0  0  0  0  0  0
   72.0410  116.2510   51.7650 C   0  0  0  0  0  0
   71.0310  114.8300   50.0850 C   0  0  0  0  0  0
   70.9410  115.8730   50.9990 C   0  0  0  0  0  0
   69.7570  116.5440   51.1670 O   0  0  0  0  0  0
   73.9410  110.7850   51.4200 N   0  0  0  0  0  0
   72.8450  109.8420   51.4620 C   0  0  2  0  0  0
   73.1490  108.7360   52.4570 C   0  0  0  0  0  0
   72.3340  107.8490   52.6800 O   0  0  0  0  0  0
   72.5730  109.2990   50.0540 C   0  0  0  0  0  0
   71.8610  110.5480   48.9400 S   0  0  0  0  0  0
   74.3159  108.7302   53.0951 O   0  0  0  0  0  0
   62.7198  114.1993   46.5084 H   0  0  0  0  0  0
   63.4162  112.5647   46.7729 H   0  0  0  0  0  0
   63.1665  113.1750   45.1020 H   0  0  0  0  0  0
   64.8318  114.9353   45.4961 H   0  0  0  0  0  0
   65.0815  114.3250   47.1670 H   0  0  0  0  0  0
   67.2535  114.3308   46.6116 H   0  0  0  0  0  0
   68.1804  112.8611   44.3137 H   0  0  0  0  0  0
   69.6689  114.5094   45.3476 H   0  0  0  0  0  0
   69.5700  113.6891   46.9426 H   0  0  0  0  0  0
   67.9968  111.9116   47.7546 H   0  0  0  0  0  0
   69.5106  109.4693   47.1704 H   0  0  0  0  0  0
   67.7993  110.2185   49.6344 H   0  0  0  0  0  0
   69.0307  108.9114   49.5940 H   0  0  0  0  0  0
   66.3166  110.2173   46.4445 H   0  0  0  0  0  0
   65.4146  107.3594   46.8266 H   0  0  0  0  0  0
   64.1421  109.6661   45.2623 H   0  0  0  0  0  0
   63.3554  108.0981   45.6482 H   0  0  0  0  0  0
   62.7511  109.8530   47.3668 H   0  0  0  0  0  0
   67.3511  109.1543   44.7684 H   0  0  0  0  0  0
   66.6799  107.3271   42.4045 H   0  0  0  0  0  0
   66.4403  109.7882   41.9933 H   0  0  0  0  0  0
   68.1796  109.9971   42.3905 H   0  0  0  0  0  0
   68.7585  108.6459   40.4532 H   0  0  0  0  0  0
   66.7197  107.2896   40.2167 H   0  0  0  0  0  0
   67.1740  108.1253   38.6928 H   0  0  0  0  0  0
   65.8160  108.7497   39.6891 H   0  0  0  0  0  0
   68.6400  111.1334   40.4251 H   0  0  0  0  0  0
   66.9540  111.0236   39.8151 H   0  0  0  0  0  0
   68.3120  110.3992   38.8188 H   0  0  0  0  0  0
   70.2742  105.4125   44.1081 H   0  0  0  0  0  0
   69.9809  103.9137   41.4257 H   0  0  0  0  0  0
   70.2593  103.2066   43.0534 H   0  0  0  0  0  0
   67.8310  103.1036   42.0478 H   0  0  0  0  0  0
   68.0463  103.6317   43.7511 H   0  0  0  0  0  0
   66.8067  105.5018   42.8773 H   0  0  0  0  0  0
   67.5855  105.3763   41.2635 H   0  0  0  0  0  0
   73.3642  106.1982   40.6001 H   0  0  0  0  0  0
   72.5258  108.2666   38.8269 H   0  0  0  0  0  0
   72.5168  106.5211   38.4028 H   0  0  0  0  0  0
   70.2706  108.3019   39.3167 H   0  0  0  0  0  0
   70.2618  106.9686   38.1130 H   0  0  0  0  0  0
   70.0905  105.3074   39.7739 H   0  0  0  0  0  0
   69.2819  106.6457   40.6580 H   0  0  0  0  0  0
   71.0517  108.6617   41.6359 H   0  0  0  0  0  0
   73.2337  110.6213   42.1459 H   0  0  0  0  0  0
   70.8173  111.2395   41.7443 H   0  0  0  0  0  0
   70.4293  110.5919   43.3742 H   0  0  0  0  0  0
   71.0983  108.6320   44.3157 H   0  0  0  0  0  0
   72.5171  109.0043   46.7091 H   0  0  0  0  0  0
   70.5295  107.5309   46.4370 H   0  0  0  0  0  0
   71.8318  106.6924   47.3468 H   0  0  0  0  0  0
   71.5507  106.3021   45.6161 H   0  0  0  0  0  0
   73.4155  106.6966   44.0844 H   0  0  0  0  0  0
   75.7216  105.6899   45.4512 H   0  0  0  0  0  0
   74.7353  105.8150   42.6158 H   0  0  0  0  0  0
   76.5178  105.6287   42.7364 H   0  0  0  0  0  0
   74.3443  103.7040   43.1985 H   0  0  0  0  0  0
   75.6391  104.1467   41.0592 H   0  0  0  0  0  0
   75.9697  102.5110   41.7239 H   0  0  0  0  0  0
   77.1619  103.8340   41.9592 H   0  0  0  0  0  0
   75.5025  103.5180   45.2869 H   0  0  0  0  0  0
   77.0854  103.4619   44.4395 H   0  0  0  0  0  0
   75.8932  102.1389   44.2042 H   0  0  0  0  0  0
   75.3632  108.5104   43.2983 H   0  0  0  0  0  0
   78.2943  108.9570   43.3039 H   0  0  0  0  0  0
   75.8400  110.3370   42.2324 H   0  0  0  0  0  0
   77.2849  111.3742   42.4841 H   0  0  0  0  0  0
   76.4696  108.0336   41.2368 H   0  0  0  0  0  0
   77.5676  108.2132   39.6901 H   0  0  0  0  0  0
   75.7713  109.5391   45.4852 H   0  0  0  0  0  0
   77.6130  111.4953   46.9050 H   0  0  0  0  0  0
   74.5426  111.6192   46.6521 H   0  0  0  0  0  0
   75.4911  112.6819   47.7465 H   0  0  0  0  0  0
   74.5240  111.8919   44.4192 H   0  0  0  0  0  0
   75.2905  113.4531   43.6412 H   0  0  0  0  0  0
   76.5255  107.8356   49.6116 H   0  0  0  0  0  0
   79.5163  108.3321   50.1542 H   0  0  0  0  0  0
   78.6750  106.7528   49.9976 H   0  0  0  0  0  0
   80.2097  107.6355   48.0269 H   0  0  0  0  0  0
   78.6318  106.8546   47.6707 H   0  0  0  0  0  0
   78.2846  108.9309   46.5373 H   0  0  0  0  0  0
   79.3339  109.8360   47.6804 H   0  0  0  0  0  0
   79.0572  110.3199   50.3956 H   0  0  0  0  0  0
   78.5042  110.2670   53.1594 H   0  0  0  0  0  0
   79.6557  112.2628   51.2619 H   0  0  0  0  0  0
   79.0342  112.9886   52.7829 H   0  0  0  0  0  0
   80.4387  111.0378   53.8923 H   0  0  0  0  0  0
   81.3258  111.1097   52.3320 H   0  0  0  0  0  0
   81.7876  113.4668   52.6339 H   0  0  0  0  0  0
   80.7392  113.5321   54.0911 H   0  0  0  0  0  0
   82.2792  111.8885   55.2067 H   0  0  0  0  0  0
   83.3599  111.9894   53.7755 H   0  0  0  0  0  0
   84.1187  113.4311   55.5771 H   0  0  0  0  0  0
   82.5381  114.2846   55.5710 H   0  0  0  0  0  0
   83.6188  114.3854   54.1397 H   0  0  0  0  0  0
   76.8030  112.2000   50.6379 H   0  0  0  0  0  0
   75.1832  113.5547   52.6633 H   0  0  0  0  0  0
   75.4785  114.5107   50.3791 H   0  0  0  0  0  0
   74.6048  113.1147   49.6619 H   0  0  0  0  0  0
   74.1120  115.8733   52.1998 H   0  0  0  0  0  0
   72.3124  113.3250   49.2333 H   0  0  0  0  0  0
   71.9579  117.0679   52.4819 H   0  0  0  0  0  0
   70.1653  114.5453   49.4870 H   0  0  0  0  0  0
   69.6903  117.3689   51.8916 H   0  0  0  0  0  0
   74.8505  110.5461   50.8493 H   0  0  0  0  0  0
   71.9627  110.3942   51.8179 H   0  0  0  0  0  0
   73.5156  108.9497   49.6073 H   0  0  0  0  0  0
   71.8634  108.4607   50.1150 H   0  0  0  0  0  0
   74.5438  107.9325   53.8174 H   0  0  0  0  0  0
  1  2  1  0  0  0
  1115  1  0  0  0
  1116  1  0  0  0
  1117  1  0  0  0
  2  3  1  0  0  0
  2118  1  0  0  0
  2119  1  0  0  0
  3  4  2  0  0  0
  3  5  1  0  0  0
  5  6  1  0  0  0
  5120  1  0  0  0
  6  9  1  0  0  0
  6  7  1  0  0  0
  6121  1  0  0  0
  7  8  2  0  0  0
  7 11  1  0  0  0
  9 10  1  0  0  0
  9122  1  0  0  0
  9123  1  0  0  0
 10 50  1  0  0  0
 11 12  1  0  0  0
 11124  1  0  0  0
 12 15  1  0  0  0
 12 13  1  0  0  0
 12125  1  0  0  0
 13 14  2  0  0  0
 13 17  1  0  0  0
 15 16  1  0  0  0
 15126  1  0  0  0
 15127  1  0  0  0
 16113  1  0  0  0
 17 18  1  0  0  0
 17128  1  0  0  0
 18 21  1  0  0  0
 18 19  1  0  0  0
 18129  1  0  0  0
 19 20  2  0  0  0
 19 23  1  0  0  0
 21 22  1  0  0  0
 21130  1  0  0  0
 21131  1  0  0  0
 22132  1  0  0  0
 23 24  1  0  0  0
 23133  1  0  0  0
 24 27  1  0  0  0
 24 25  1  0  0  0
 24134  1  0  0  0
 25 26  2  0  0  0
 25 31  1  0  0  0
 27 28  1  0  0  0
 27135  1  0  0  0
 27136  1  0  0  0
 28 29  1  0  0  0
 28 30  1  0  0  0
 28137  1  0  0  0
 29138  1  0  0  0
 29139  1  0  0  0
 29140  1  0  0  0
 30141  1  0  0  0
 30142  1  0  0  0
 30143  1  0  0  0
 31 32  1  0  0  0
 31 37  1  0  0  0
 32 33  1  0  0  0
 32 35  1  0  0  0
 32144  1  0  0  0
 33 34  2  0  0  0
 33 38  1  0  0  0
 35 36  1  0  0  0
 35145  1  0  0  0
 35146  1  0  0  0
 36 37  1  0  0  0
 36147  1  0  0  0
 36148  1  0  0  0
 37149  1  0  0  0
 37150  1  0  0  0
 38 39  1  0  0  0
 38 44  1  0  0  0
 39 40  1  0  0  0
 39 42  1  0  0  0
 39151  1  0  0  0
 40 41  2  0  0  0
 40 45  1  0  0  0
 42 43  1  0  0  0
 42152  1  0  0  0
 42153  1  0  0  0
 43 44  1  0  0  0
 43154  1  0  0  0
 43155  1  0  0  0
 44156  1  0  0  0
 44157  1  0  0  0
 45 46  1  0  0  0
 45158  1  0  0  0
 46 49  1  0  0  0
 46 47  1  0  0  0
 46159  1  0  0  0
 47 48  2  0  0  0
 47 51  1  0  0  0
 49 50  1  0  0  0
 49160  1  0  0  0
 49161  1  0  0  0
 51 52  1  0  0  0
 51162  1  0  0  0
 52 55  1  0  0  0
 52 53  1  0  0  0
 52163  1  0  0  0
 53 54  2  0  0  0
 53 56  1  0  0  0
 55164  1  0  0  0
 55165  1  0  0  0
 55166  1  0  0  0
 56 57  1  0  0  0
 56167  1  0  0  0
 57 60  1  0  0  0
 57 58  1  0  0  0
 57168  1  0  0  0
 58 59  2  0  0  0
 58 64  1  0  0  0
 60 61  1  0  0  0
 60169  1  0  0  0
 60170  1  0  0  0
 61 62  1  0  0  0
 61 63  1  0  0  0
 61171  1  0  0  0
 62172  1  0  0  0
 62173  1  0  0  0
 62174  1  0  0  0
 63175  1  0  0  0
 63176  1  0  0  0
 63177  1  0  0  0
 64 65  1  0  0  0
 64178  1  0  0  0
 65 68  1  0  0  0
 65 66  1  0  0  0
 65179  1  0  0  0
 66 67  2  0  0  0
 66 72  1  0  0  0
 68 69  1  0  0  0
 68180  1  0  0  0
 68181  1  0  0  0
 69 71  1  0  0  0
 69 70  2  0  0  0
 71182  1  0  0  0
 71183  1  0  0  0
 72 73  1  0  0  0
 72184  1  0  0  0
 73 76  1  0  0  0
 73 74  1  0  0  0
 73185  1  0  0  0
 74 75  2  0  0  0
 74 80  1  0  0  0
 76 77  1  0  0  0
 76186  1  0  0  0
 76187  1  0  0  0
 77 79  1  0  0  0
 77 78  2  0  0  0
 79188  1  0  0  0
 79189  1  0  0  0
 80 81  1  0  0  0
 80 86  1  0  0  0
 81 82  1  0  0  0
 81 84  1  0  0  0
 81190  1  0  0  0
 82 83  2  0  0  0
 82 87  1  0  0  0
 84 85  1  0  0  0
 84191  1  0  0  0
 84192  1  0  0  0
 85 86  1  0  0  0
 85193  1  0  0  0
 85194  1  0  0  0
 86195  1  0  0  0
 86196  1  0  0  0
 87 88  1  0  0  0
 87197  1  0  0  0
 88 91  1  0  0  0
 88 89  1  0  0  0
 88198  1  0  0  0
 89 90  2  0  0  0
 89 96  1  0  0  0
 91 92  1  0  0  0
 91199  1  0  0  0
 91200  1  0  0  0
 92 93  1  0  0  0
 92201  1  0  0  0
 92202  1  0  0  0
 93 94  1  0  0  0
 93203  1  0  0  0
 93204  1  0  0  0
 94 95  1  0  0  0
 94205  1  0  0  0
 94206  1  0  0  0
 95207  1  0  0  0
 95208  1  0  0  0
 95209  1  0  0  0
 96 97  1  0  0  0
 96210  1  0  0  0
 97100  1  0  0  0
 97 98  1  0  0  0
 97211  1  0  0  0
 98 99  2  0  0  0
 98108  1  0  0  0
100101  1  0  0  0
100212  1  0  0  0
100213  1  0  0  0
101102  2  0  0  0
101103  1  0  0  0
102104  1  0  0  0
102214  1  0  0  0
103105  2  0  0  0
103215  1  0  0  0
104106  2  0  0  0
104216  1  0  0  0
105106  1  0  0  0
105217  1  0  0  0
106107  1  0  0  0
107218  1  0  0  0
108109  1  0  0  0
108219  1  0  0  0
109112  1  0  0  0
109110  1  0  0  0
109220  1  0  0  0
110111  2  0  0  0
110114  1  0  0  0
112113  1  0  0  0
112221  1  0  0  0
112222  1  0  0  0
114223  1  0  0  0
M  CHG  2   1   1  95   1
M  END
> <s_m_source_file>
../2br8_ligand.sdf

> <i_m_source_file_index>
1

> <s_epik_input>
Tz1DMVtOSF1bQ0BASF0oW0NIMl1bT0hdKUMoPU8pW05IXVtDQEBIXShbQ0gyXVtDSF0oW0NIM10pW0NIM10pQyg9TylOKFtDSDJdW0NIMl1bQ0gyXTIpW0NAQEhdMkMoPU8pTihbQ0gyXVtDSDJdW0NIMl0zKVtDQEBIXTNDKD1PKVtOSF1bQ0BASF0oW0NIMl1TU1tDSDJdW0NAQEhdKEMoPU8pW05IXVtDQEhdMTQpW05IXUMoPU8pW0NIMl1bTkgzK10pQyg9TylbTkhdW0NAQEhdKFtDSDNdKUMoPU8pW05IXVtDQEBIXShbQ0gyXVtDSF0oW0NIM10pW0NIM10pQyg9TylbTkhdW0NAQEhdKFtDSDJdQyg9TylbTkgyXSlDKD1PKVtOSF1bQ0BASF0oW0NIMl1DKD1PKVtOSDJdKUMoPU8pTjVbQ0BASF0oW0NIMl1bQ0gyXVtDSDJdNSlDKD1PKVtOSF1bQ0BASF0oW0NIMl1bQ0gyXVtDSDJdW0NIMl1bTkgzK10pQyg9TylbTkhdW0NASF0oQyg9TylbTkhdW0NASF0oQyg9TylbT0hdKVtDSDJdU1NbQ0gyXTQpW0NIMl1jNltjSF1bY0hdYyhbT0hdKVtjSF1bY0hdNg==

> <s_epik_cmdline>
J2VwaWtfYXBwJywgJy1pbWFlJywgJ2xpZ2FuZF9wcm8ubWFlJywgJy1vbWFlJywgJ2xpZ2FuZF9wcmVwLm1hZScsICctbXMnLCAnMScsICctcGgnLCAnNycsICctcGh0JywgJzAuNScsICctbnQn

> <s_epik_pKa_notes>
Molecule size exceeds maximum supported for generating protonation states

$$$$
