2brc_ligand
                    3D
 Schrodinger Suite 2020-3.
 45 48  0  0  1  0            999 V2000
   15.8320   -3.9980   -6.2080 C   0  0  0  0  0  0
   14.5870   -4.4520   -5.7630 C   0  0  0  0  0  0
   14.3010   -5.7910   -5.6770 O   0  0  0  0  0  0
   12.3190   -3.9240   -4.9620 O   0  0  0  0  0  0
   13.5520   -3.4690   -5.4030 C   0  0  0  0  0  0
   13.8600   -2.1150   -5.5050 C   0  0  0  0  0  0
   15.1210   -1.6830   -5.9400 C   0  0  0  0  0  0
   16.1060   -2.6260   -6.2720 C   0  0  0  0  0  0
   17.4630   -2.2010   -6.7400 C   0  0  0  0  0  0
   17.7930   -1.3650   -7.8890 C   0  0  0  0  0  0
   16.8980   -0.6970   -8.8830 C   0  0  0  0  0  0
   19.1350   -1.3250   -7.8920 N   0  0  0  0  0  0
   18.7650   -2.5760   -6.1260 C   0  0  0  0  0  0
   19.7220   -2.0590   -6.8290 N   0  3  0  0  0  0
   18.7770   -3.4260   -4.9260 C   0  0  0  0  0  0
   17.8940   -3.1560   -3.9040 C   0  0  0  0  0  0
   17.9130   -3.9760   -2.8050 C   0  0  0  0  0  0
   16.9710   -3.7600   -1.6480 C   0  0  0  0  0  0
   15.6760   -3.0930   -2.0710 C   0  0  0  0  0  0
   18.8580   -5.0860   -2.7260 C   0  0  0  0  0  0
   12.9140   -6.1600   -5.7600 C   0  0  0  0  0  0
   18.7630   -5.8500   -1.6080 O   0  0  0  0  0  0
   19.7380   -5.3620   -3.7660 C   0  0  0  0  0  0
   12.1530   -5.3280   -4.7220 C   0  0  0  0  0  0
   19.7430   -4.5250   -4.8680 C   0  0  0  0  0  0
   20.5910   -4.6930   -5.8990 O   0  5  0  0  0  0
   16.5948   -4.7168   -6.5073 H   0  0  0  0  0  0
   13.1046   -1.3749   -5.2410 H   0  0  0  0  0  0
   15.3358   -0.6174   -6.0201 H   0  0  0  0  0  0
   15.8481   -0.9042   -8.6284 H   0  0  0  0  0  0
   17.1145   -1.0841   -9.8896 H   0  0  0  0  0  0
   17.0729    0.3888   -8.8623 H   0  0  0  0  0  0
   17.2016   -2.3166   -3.9668 H   0  0  0  0  0  0
   16.7200   -4.7298   -1.1936 H   0  0  0  0  0  0
   17.4538   -3.1172   -0.8972 H   0  0  0  0  0  0
   15.0281   -2.9597   -1.1921 H   0  0  0  0  0  0
   15.1635   -3.7241   -2.8120 H   0  0  0  0  0  0
   15.8973   -2.1115   -2.5156 H   0  0  0  0  0  0
   12.5384   -5.9489   -6.7721 H   0  0  0  0  0  0
   12.8067   -7.2336   -5.5456 H   0  0  0  0  0  0
   18.0469   -5.5813   -0.8175 H   0  0  0  0  0  0
   20.4095   -6.2191   -3.7146 H   0  0  0  0  0  0
   12.5373   -5.5770   -3.7218 H   0  0  0  0  0  0
   11.0852   -5.5860   -4.7792 H   0  0  0  0  0  0
   20.8166   -2.1031   -6.7298 H   0  0  0  0  0  0
  1  2  2  0  0  0
  1  8  1  0  0  0
  1 27  1  0  0  0
  2  3  1  0  0  0
  2  5  1  0  0  0
  3 21  1  0  0  0
  4  5  1  0  0  0
  4 24  1  0  0  0
  5  6  2  0  0  0
  6  7  1  0  0  0
  6 28  1  0  0  0
  7  8  2  0  0  0
  7 29  1  0  0  0
  8  9  1  0  0  0
  9 10  2  0  0  0
  9 13  1  0  0  0
 10 11  1  0  0  0
 10 12  1  0  0  0
 11 30  1  0  0  0
 11 31  1  0  0  0
 11 32  1  0  0  0
 12 14  1  0  0  0
 13 14  2  0  0  0
 13 15  1  0  0  0
 14 45  1  0  0  0
 15 16  2  0  0  0
 15 25  1  0  0  0
 16 17  1  0  0  0
 16 33  1  0  0  0
 17 18  1  0  0  0
 17 20  2  0  0  0
 18 19  1  0  0  0
 18 34  1  0  0  0
 18 35  1  0  0  0
 19 36  1  0  0  0
 19 37  1  0  0  0
 19 38  1  0  0  0
 20 22  1  0  0  0
 20 23  1  0  0  0
 21 24  1  0  0  0
 21 39  1  0  0  0
 21 40  1  0  0  0
 22 41  1  0  0  0
 23 25  2  0  0  0
 23 42  1  0  0  0
 24 43  1  0  0  0
 24 44  1  0  0  0
 25 26  1  0  0  0
M  CHG  2  14   1  26  -1
M  END
> <s_m_source_file>
../2brc_ligand.sdf

> <i_m_source_file_index>
1

> <s_epik_input>
TzFbQ0gyXVtDSDJdT2MoYzEyKVtjSF1bY0hdYyhbY0hdMiktYzNjKFtDSDNdKVtuSF1uYzMtYzRbY0hdYyhbQ0gyXVtDSDNdKWMoW09IXSlbY0hdYzRbT0hd

> <s_epik_cmdline>
J2VwaWtfYXBwJywgJy1pbWFlJywgJ2xpZ2FuZF9wcm8ubWFlJywgJy1vbWFlJywgJ2xpZ2FuZF9wcmVwLm1hZScsICctbXMnLCAnMScsICctcGgnLCAnNycsICctcGh0JywgJzAuNScsICctbnQn

> <r_lp_tautomer_probability>
1

> <r_epik_Ionization_Penalty>
  0.0004

> <r_epik_Ionization_Penalty_Charging>
  0.0004

> <r_epik_Ionization_Penalty_Neutral>
  0.0000

> <r_epik_State_Penalty>
 -0.0000

> <r_epik_Charging_Adjusted_Penalty>
0.000406793926500538

> <i_epik_Tot_Q>
0

> <i_epik_Tot_abs_Q>
2

$$$$
