2brg_ligand
                    3D
 Schrodinger Suite 2020-3.
 45 48  0  0  1  0            999 V2000
    5.8270   -2.0940   19.7640 C   0  0  0  0  0  0
    1.7960   -4.0850   19.9240 C   0  0  0  0  0  0
    0.4530   -4.4350   20.2240 C   0  0  0  0  0  0
    0.0010   -5.7760   20.2250 C   0  0  0  0  0  0
   -1.3200   -6.1150   20.5430 C   0  0  0  0  0  0
   -2.2050   -5.1090   20.9090 C   0  0  0  0  0  0
   -1.7550   -3.7890   20.9370 C   0  0  0  0  0  0
   -0.4470   -3.4320   20.6040 C   0  0  0  0  0  0
    1.4100   -6.0770   17.5750 C   0  0  0  0  0  0
    1.0450   -7.3070   17.0230 C   0  0  0  0  0  0
    1.6660   -8.4810   17.4410 C   0  0  0  0  0  0
    2.6700   -8.4080   18.4230 C   0  0  0  0  0  0
    4.5930   -1.9880   20.2900 N   0  0  0  0  0  0
    3.6720   -2.9120   20.0340 C   0  0  0  0  0  0
    2.3710   -2.9630   20.4590 O   0  0  0  0  0  0
    3.9750   -4.0330   19.2160 C   0  0  0  0  0  0
    5.8140   -5.0910   17.9060 N   0  0  0  0  0  0
    5.3040   -4.1040   18.6950 C   0  0  0  0  0  0
    6.1900   -3.1150   18.9920 N   0  0  0  0  0  0
    3.0350   -7.1790   18.9840 C   0  0  0  0  0  0
    2.7520   -4.7640   19.1520 C   0  0  0  0  0  0
    2.4230   -5.9920   18.5480 C   0  0  0  0  0  0
    7.8110   -4.2130   16.6610 C   0  0  0  0  0  0
    7.3060   -5.1480   17.8050 C   0  0  0  0  0  0
    8.2310   -2.9300   17.1550 O   0  0  0  0  0  0
    4.9330   -6.0480   17.2170 C   0  0  0  0  0  0
    6.5571   -1.3136   19.9786 H   0  0  0  0  0  0
    0.7031   -6.5699   19.9703 H   0  0  0  0  0  0
   -1.6490   -7.1534   20.5039 H   0  0  0  0  0  0
   -3.2359   -5.3475   21.1705 H   0  0  0  0  0  0
   -2.4526   -3.0047   21.2307 H   0  0  0  0  0  0
   -0.1315   -2.3892   20.6393 H   0  0  0  0  0  0
    0.9027   -5.1696   17.2473 H   0  0  0  0  0  0
    0.2683   -7.3481   16.2594 H   0  0  0  0  0  0
    1.3784   -9.4417   17.0138 H   0  0  0  0  0  0
    3.1698   -9.3194   18.7510 H   0  0  0  0  0  0
    3.7972   -7.1426   19.7624 H   0  0  0  0  0  0
    8.6680   -4.6821   16.1555 H   0  0  0  0  0  0
    7.0006   -4.0513   15.9349 H   0  0  0  0  0  0
    7.7506   -4.8215   18.7567 H   0  0  0  0  0  0
    7.6197   -6.1799   17.5887 H   0  0  0  0  0  0
    8.6110   -2.1694   16.4571 H   0  0  0  0  0  0
    3.8833   -5.8064   17.4403 H   0  0  0  0  0  0
    5.1565   -7.0676   17.5641 H   0  0  0  0  0  0
    5.1009   -5.9851   16.1317 H   0  0  0  0  0  0
  1 13  2  0  0  0
  1 19  1  0  0  0
  1 27  1  0  0  0
  2  3  1  0  0  0
  2 15  1  0  0  0
  2 21  2  0  0  0
  3  4  2  0  0  0
  3  8  1  0  0  0
  4  5  1  0  0  0
  4 28  1  0  0  0
  5  6  2  0  0  0
  5 29  1  0  0  0
  6  7  1  0  0  0
  6 30  1  0  0  0
  7  8  2  0  0  0
  7 31  1  0  0  0
  8 32  1  0  0  0
  9 10  2  0  0  0
  9 22  1  0  0  0
  9 33  1  0  0  0
 10 11  1  0  0  0
 10 34  1  0  0  0
 11 12  2  0  0  0
 11 35  1  0  0  0
 12 20  1  0  0  0
 12 36  1  0  0  0
 13 14  1  0  0  0
 14 15  1  0  0  0
 14 16  2  0  0  0
 16 18  1  0  0  0
 16 21  1  0  0  0
 17 18  1  0  0  0
 17 24  1  0  0  0
 17 26  1  0  0  0
 18 19  2  0  0  0
 20 22  2  0  0  0
 20 37  1  0  0  0
 21 22  1  0  0  0
 23 24  1  0  0  0
 23 25  1  0  0  0
 23 38  1  0  0  0
 23 39  1  0  0  0
 24 40  1  0  0  0
 24 41  1  0  0  0
 25 42  1  0  0  0
 26 43  1  0  0  0
 26 44  1  0  0  0
 26 45  1  0  0  0
M  END
> <s_m_source_file>
../2brg_ligand.sdf

> <i_m_source_file_index>
1

> <s_epik_input>
W2NIXTFbY0hdW2NIXVtjSF1bY0hdYzEtYyhjKGMyMyljKG5bY0hdbjIpTihbQ0gzXSlbQ0gyXVtDSDJdW09IXSljKG8zKS1jNFtjSF1bY0hdW2NIXVtjSF1bY0hdNA==

> <s_epik_cmdline>
J2VwaWtfYXBwJywgJy1pbWFlJywgJ2xpZ2FuZF9wcm8ubWFlJywgJy1vbWFlJywgJ2xpZ2FuZF9wcmVwLm1hZScsICctbXMnLCAnMScsICctcGgnLCAnNycsICctcGh0JywgJzAuNScsICctbnQn

> <r_lp_tautomer_probability>
1

> <r_epik_Ionization_Penalty>
  0.0000

> <r_epik_Ionization_Penalty_Charging>
  0.0000

> <r_epik_Ionization_Penalty_Neutral>
  0.0000

> <r_epik_State_Penalty>
 -0.0000

> <r_epik_Charging_Adjusted_Penalty>
0

> <i_epik_Tot_Q>
0

> <i_epik_Tot_abs_Q>
0

$$$$
