2brh_ligand
                    3D
 Schrodinger Suite 2020-3.
 40 43  0  0  1  0            999 V2000
   14.7740   -0.4920    9.4980 C   0  0  0  0  0  0
   18.9250   -2.3310    9.2240 C   0  0  0  0  0  0
   20.3690   -2.6180    8.8710 C   0  0  0  0  0  0
   21.1530   -1.5580    8.3760 C   0  0  0  0  0  0
   22.4750   -1.7610    8.0070 C   0  0  0  0  0  0
   23.0470   -3.0510    8.1200 C   0  0  0  0  0  0
   22.2760   -4.1310    8.5860 C   0  0  0  0  0  0
   20.9370   -3.9140    8.9420 C   0  0  0  0  0  0
   19.1910   -4.5630   11.5970 C   0  0  0  0  0  0
   19.3540   -5.7980   12.2630 C   0  0  0  0  0  0
   18.4310   -6.8340   12.0720 C   0  0  0  0  0  0
   17.3620   -6.6460   11.1730 C   0  0  0  0  0  0
   15.9700   -0.3250    8.9230 N   0  0  0  0  0  0
   16.9750   -1.2000    9.1640 C   0  0  0  0  0  0
   18.3070   -1.1970    8.7450 O   0  0  0  0  0  0
   16.7610   -2.3200    9.9480 C   0  0  0  0  0  0
   15.1070   -3.5830   11.2520 N   0  0  0  0  0  0
   15.4630   -2.5000   10.4850 C   0  0  0  0  0  0
   14.4970   -1.5810   10.2300 N   0  0  0  0  0  0
   17.2120   -5.4100   10.5090 C   0  0  0  0  0  0
   17.9570   -3.0430    9.9770 C   0  0  0  0  0  0
   18.1290   -4.3590   10.7130 C   0  0  0  0  0  0
   13.8760   -4.8900   12.8870 C   0  0  0  0  0  0
   13.7760   -3.7470   11.8920 C   0  0  0  0  0  0
   12.8460   -5.3340   13.4390 O   0  0  0  0  0  0
   14.9480   -5.6680   12.7710 O   0  5  0  0  0  0
   14.0084    0.2731    9.3689 H   0  0  0  0  0  0
   20.7152   -0.5643    8.2815 H   0  0  0  0  0  0
   23.0714   -0.9296    7.6312 H   0  0  0  0  0  0
   24.0899   -3.2080    7.8445 H   0  0  0  0  0  0
   22.7143   -5.1255    8.6695 H   0  0  0  0  0  0
   20.3261   -4.7522    9.2772 H   0  0  0  0  0  0
   19.9039   -3.7580   11.7754 H   0  0  0  0  0  0
   20.2035   -5.9457   12.9298 H   0  0  0  0  0  0
   18.5382   -7.7746   12.6123 H   0  0  0  0  0  0
   16.6528   -7.4535   10.9911 H   0  0  0  0  0  0
   15.8779   -4.3573   11.3797 H   0  0  0  0  0  0
   16.3737   -5.2656    9.8275 H   0  0  0  0  0  0
   13.4999   -2.8155   12.4078 H   0  0  0  0  0  0
   13.0246   -3.9763   11.1220 H   0  0  0  0  0  0
  1 13  2  0  0  0
  1 19  1  0  0  0
  1 27  1  0  0  0
  2  3  1  0  0  0
  2 15  1  0  0  0
  2 21  2  0  0  0
  3  4  2  0  0  0
  3  8  1  0  0  0
  4  5  1  0  0  0
  4 28  1  0  0  0
  5  6  2  0  0  0
  5 29  1  0  0  0
  6  7  1  0  0  0
  6 30  1  0  0  0
  7  8  2  0  0  0
  7 31  1  0  0  0
  8 32  1  0  0  0
  9 10  2  0  0  0
  9 22  1  0  0  0
  9 33  1  0  0  0
 10 11  1  0  0  0
 10 34  1  0  0  0
 11 12  2  0  0  0
 11 35  1  0  0  0
 12 20  1  0  0  0
 12 36  1  0  0  0
 13 14  1  0  0  0
 14 15  1  0  0  0
 14 16  2  0  0  0
 16 18  1  0  0  0
 16 21  1  0  0  0
 17 18  1  0  0  0
 17 24  1  0  0  0
 17 37  1  0  0  0
 18 19  2  0  0  0
 20 22  2  0  0  0
 20 38  1  0  0  0
 21 22  1  0  0  0
 23 24  1  0  0  0
 23 25  2  0  0  0
 23 26  1  0  0  0
 24 39  1  0  0  0
 24 40  1  0  0  0
M  CHG  1  26  -1
M  END
> <s_m_source_file>
../2brh_ligand.sdf

> <i_m_source_file_index>
1

> <s_epik_input>
W2NIXTFbY0hdW2NIXVtjSF1bY0hdYzEtYyhjKGMyMyljKG5bY0hdbjIpW05IXVtDSDJdQyg9TylbT0hdKWMobzMpLWM0W2NIXVtjSF1bY0hdW2NIXVtjSF00

> <s_epik_cmdline>
J2VwaWtfYXBwJywgJy1pbWFlJywgJ2xpZ2FuZF9wcm8ubWFlJywgJy1vbWFlJywgJ2xpZ2FuZF9wcmVwLm1hZScsICctbXMnLCAnMScsICctcGgnLCAnNycsICctcGh0JywgJzAuNScsICctbnQn

> <r_lp_tautomer_probability>
1

> <r_epik_Ionization_Penalty>
  0.0044

> <r_epik_Ionization_Penalty_Charging>
  0.0044

> <r_epik_Ionization_Penalty_Neutral>
  0.0000

> <r_epik_State_Penalty>
 -0.0000

> <r_epik_Charging_Adjusted_Penalty>
0.00440835185103972

> <i_epik_Tot_Q>
-1

> <i_epik_Tot_abs_Q>
1

$$$$
