2brn_ligand
                    3D
 Schrodinger Suite 2020-3.
 45 48  0  0  1  0            999 V2000
    3.8910   -6.9350   18.9340 C   0  0  0  0  0  0
    3.6840   -8.1800   18.3240 C   0  0  0  0  0  0
    2.7030   -8.3230   17.3390 C   0  0  0  0  0  0
    1.9290   -7.2240   16.9650 C   0  0  0  0  0  0
    2.1430   -5.9780   17.5700 C   0  0  0  0  0  0
    3.1260   -5.8340   18.5540 C   0  0  0  0  0  0
    3.3290   -4.5810   19.1610 C   0  0  0  0  0  0
    4.5210   -3.8420   19.1320 C   0  0  0  0  0  0
    5.8260   -4.1040   18.7420 C   0  0  0  0  0  0
    6.1610   -5.3000   18.1630 N   0  0  0  0  0  0
    6.6830   -5.3550   16.7670 C   0  0  0  0  0  0
    8.1110   -4.7500   16.8160 C   0  0  1  0  0  0
    9.0490   -5.4490   15.8290 C   0  0  0  0  0  0
    8.0840   -3.3060   16.6280 O   0  0  0  0  0  0
    6.7710   -3.1620   18.9380 N   0  0  0  0  0  0
    6.4590   -1.9940   19.5310 C   0  0  0  0  0  0
    5.2080   -1.7340   19.9080 N   0  0  0  0  0  0
    4.2360   -2.6300   19.7290 C   0  0  0  0  0  0
    2.9070   -2.6020   20.0530 N   0  0  0  0  0  0
    2.3100   -3.7530   19.6430 C   0  0  0  0  0  0
    0.9660   -4.0820   19.8800 C   0  0  0  0  0  0
    0.4520   -5.3440   19.5320 C   0  0  0  0  0  0
   -0.8860   -5.6480   19.8170 C   0  0  0  0  0  0
   -1.6660   -4.7510   20.5540 C   0  0  0  0  0  0
   -1.1180   -3.5360   20.9730 C   0  0  0  0  0  0
    0.1980   -3.2180   20.6430 C   0  0  0  0  0  0
    4.6519   -6.8279   19.7071 H   0  0  0  0  0  0
    4.2889   -9.0376   18.6183 H   0  0  0  0  0  0
    2.5429   -9.2909   16.8640 H   0  0  0  0  0  0
    1.1580   -7.3345   16.2024 H   0  0  0  0  0  0
    1.5416   -5.1189   17.2727 H   0  0  0  0  0  0
    6.0405   -6.2274   18.7421 H   0  0  0  0  0  0
    6.7072   -6.4004   16.4255 H   0  0  0  0  0  0
    6.0269   -4.7688   16.1068 H   0  0  0  0  0  0
    8.5367   -4.8653   17.8237 H   0  0  0  0  0  0
    9.0326   -6.5334   16.0129 H   0  0  0  0  0  0
   10.0725   -5.0695   15.9644 H   0  0  0  0  0  0
    8.7159   -5.2464   14.8004 H   0  0  0  0  0  0
    7.4497   -2.6793   17.2721 H   0  0  0  0  0  0
    7.2390   -1.2527   19.7046 H   0  0  0  0  0  0
    1.0901   -6.0807   19.0439 H   0  0  0  0  0  0
   -1.3190   -6.5840   19.4641 H   0  0  0  0  0  0
   -2.6983   -4.9991   20.8007 H   0  0  0  0  0  0
   -1.7185   -2.8384   21.5567 H   0  0  0  0  0  0
    0.6281   -2.2782   20.9894 H   0  0  0  0  0  0
  1  2  2  0  0  0
  1  6  1  0  0  0
  1 27  1  0  0  0
  2  3  1  0  0  0
  2 28  1  0  0  0
  3  4  2  0  0  0
  3 29  1  0  0  0
  4  5  1  0  0  0
  4 30  1  0  0  0
  5  6  2  0  0  0
  5 31  1  0  0  0
  6  7  1  0  0  0
  7  8  2  0  0  0
  7 20  1  0  0  0
  8  9  1  0  0  0
  8 18  1  0  0  0
  9 10  1  0  0  0
  9 15  2  0  0  0
 10 11  1  0  0  0
 10 32  1  0  0  0
 11 12  1  0  0  0
 11 33  1  0  0  0
 11 34  1  0  0  0
 12 13  1  0  0  0
 12 14  1  0  0  0
 12 35  1  0  0  0
 13 36  1  0  0  0
 13 37  1  0  0  0
 13 38  1  0  0  0
 14 39  1  0  0  0
 15 16  1  0  0  0
 16 17  1  0  0  0
 16 40  1  0  0  0
 17 18  2  0  0  0
 18 19  1  0  0  0
 19 20  2  0  0  0
 20 21  1  0  0  0
 21 22  2  0  0  0
 21 26  1  0  0  0
 22 23  1  0  0  0
 22 41  1  0  0  0
 23 24  2  0  0  0
 23 42  1  0  0  0
 24 25  1  0  0  0
 24 43  1  0  0  0
 25 26  2  0  0  0
 25 44  1  0  0  0
 26 45  1  0  0  0
M  END
> <s_m_source_file>
../2brn_ligand.sdf

> <i_m_source_file_index>
1

> <s_epik_input>
W2NIXTFbY0hdW2NIXVtjSF1bY0hdYzFDPTJDKGMzW2NIXVtjSF1bY0hdW2NIXVtjSF0zKT1OQyhDMjQpPU5bQ0gyXU49QzRbTkhdW0NIMl1bQ0BASF0oW0NIM10pW09IXQ==

> <s_epik_cmdline>
J2VwaWtfYXBwJywgJy1pbWFlJywgJ2xpZ2FuZF9wcm8ubWFlJywgJy1vbWFlJywgJ2xpZ2FuZF9wcmVwLm1hZScsICctbXMnLCAnMScsICctcGgnLCAnNycsICctcGh0JywgJzAuNScsICctbnQn

> <r_lp_tautomer_probability>
1

> <r_epik_Ionization_Penalty>
  0.0002

> <r_epik_Ionization_Penalty_Charging>
  0.0000

> <r_epik_Ionization_Penalty_Neutral>
  0.0002

> <r_epik_State_Penalty>
 -0.0000

> <r_epik_Charging_Adjusted_Penalty>
0

> <i_epik_Tot_Q>
0

> <i_epik_Tot_abs_Q>
0

> <s_epik_Chemistry_Notes>
This compound has an imine and may undergo hydrolysis.

$$$$
