2bro_ligand
                    3D
 Schrodinger Suite 2020-3.
 46 49  0  0  1  0            999 V2000
    6.0080   -2.2440   19.4940 C   0  0  0  0  0  0
    2.0170   -4.2580   19.5640 C   0  0  0  0  0  0
    0.6750   -4.5770   19.7620 C   0  0  0  0  0  0
    0.0310   -5.6330   19.1180 C   0  0  0  0  0  0
   -1.3250   -5.9030   19.3630 C   0  0  0  0  0  0
   -2.0480   -5.0900   20.2500 C   0  0  0  0  0  0
   -1.4140   -4.0250   20.8720 C   0  0  0  0  0  0
   -0.0610   -3.7700   20.6310 C   0  0  0  0  0  0
    2.4130   -6.5850   17.1240 C   0  0  0  0  0  0
    2.3890   -7.9450   16.7750 C   0  0  0  0  0  0
    2.8260   -8.9490   17.6610 C   0  0  0  0  0  0
    3.3390   -8.7590   18.9190 C   0  0  0  0  0  0
    4.7640   -2.1100   19.9200 N   0  0  0  0  0  0
    8.6480   -5.4600   15.6850 C   0  0  0  0  0  0
    3.8480   -3.0580   19.6860 C   0  0  3  0  0  0
    4.1910   -4.2270   19.0050 C   0  0  0  0  0  0
    7.8400   -6.5480   15.2260 O   0  0  0  0  0  0
    6.0290   -5.3850   17.9910 N   0  0  0  0  0  0
    5.5280   -4.3360   18.6050 C   0  0  0  0  0  0
    6.4000   -3.3520   18.8690 N   0  0  0  0  0  0
    2.5400   -3.1060   19.9750 N   0  0  0  0  0  0
    3.3500   -7.3800   19.1670 C   0  0  0  0  0  0
    3.0190   -4.9960   18.9380 C   0  0  0  0  0  0
    2.9050   -6.3050   18.3830 C   0  0  0  0  0  0
    7.7500   -4.5820   16.5380 C   0  0  1  0  0  0
    7.4670   -5.4010   17.8080 C   0  0  0  0  0  0
    8.3350   -3.2640   16.8360 O   0  0  0  0  0  0
    6.7345   -1.4338   19.6543 H   0  0  0  0  0  0
    0.5864   -6.2557   18.4167 H   0  0  0  0  0  0
   -1.8144   -6.7408   18.8663 H   0  0  0  0  0  0
   -3.1001   -5.2943   20.4484 H   0  0  0  0  0  0
   -1.9738   -3.3833   21.5525 H   0  0  0  0  0  0
    0.4253   -2.9305   21.1279 H   0  0  0  0  0  0
    2.0668   -5.8039   16.4471 H   0  0  0  0  0  0
    2.0215   -8.2320   15.7898 H   0  0  0  0  0  0
    2.7489   -9.9789   17.3125 H   0  0  0  0  0  0
    3.6766   -9.5389   19.6015 H   0  0  0  0  0  0
    9.4891   -5.8517   16.2759 H   0  0  0  0  0  0
    9.0360   -4.9012   14.8206 H   0  0  0  0  0  0
    8.2780   -7.3250   14.5822 H   0  0  0  0  0  0
    3.7751   -7.0950   20.1294 H   0  0  0  0  0  0
    6.8380   -4.2940   15.9946 H   0  0  0  0  0  0
    7.9533   -4.9495   18.6853 H   0  0  0  0  0  0
    7.8104   -6.4396   17.6925 H   0  0  0  0  0  0
    8.5865   -2.5757   16.0156 H   0  0  0  0  0  0
    7.4500   -3.4685   18.5627 H   0  0  0  0  0  0
  1 13  2  0  0  0
  1 20  1  0  0  0
  1 28  1  0  0  0
  2  3  1  0  0  0
  2 21  2  0  0  0
  2 23  1  0  0  0
  3  4  2  0  0  0
  3  8  1  0  0  0
  4  5  1  0  0  0
  4 29  1  0  0  0
  5  6  2  0  0  0
  5 30  1  0  0  0
  6  7  1  0  0  0
  6 31  1  0  0  0
  7  8  2  0  0  0
  7 32  1  0  0  0
  8 33  1  0  0  0
  9 10  2  0  0  0
  9 24  1  0  0  0
  9 34  1  0  0  0
 10 11  1  0  0  0
 10 35  1  0  0  0
 11 12  2  0  0  0
 11 36  1  0  0  0
 12 22  1  0  0  0
 12 37  1  0  0  0
 13 15  1  0  0  0
 14 17  1  0  0  0
 14 25  1  0  0  0
 14 38  1  0  0  0
 14 39  1  0  0  0
 15 16  1  0  0  0
 15 21  1  0  0  0
 16 19  1  0  0  0
 16 23  2  0  0  0
 17 40  1  0  0  0
 18 19  2  0  0  0
 18 26  1  0  0  0
 19 20  1  0  0  0
 20 46  1  0  0  0
 22 24  2  0  0  0
 22 41  1  0  0  0
 23 24  1  0  0  0
 25 26  1  0  0  0
 25 27  1  0  0  0
 25 42  1  0  0  0
 26 43  1  0  0  0
 26 44  1  0  0  0
 27 45  1  0  0  0
M  END
> <s_m_source_file>
../2bro_ligand.sdf

> <i_m_source_file_index>
1

> <s_epik_input>
W09IXVtDSDJdW0NASF0oW09IXSlbQ0gyXVtOSF1DKD1OW0NIXT1OMSlDKFtDSF0xMik9QyhjM1tjSF1bY0hdW2NIXVtjSF1bY0hdMylDKD1OMiljNFtjSF1bY0hdW2NIXVtjSF1bY0hdNA==

> <s_epik_cmdline>
J2VwaWtfYXBwJywgJy1pbWFlJywgJ2xpZ2FuZF9wcm8ubWFlJywgJy1vbWFlJywgJ2xpZ2FuZF9wcmVwLm1hZScsICctbXMnLCAnMScsICctcGgnLCAnNycsICctcGh0JywgJzAuNScsICctbnQn

> <r_lp_tautomer_probability>
1

> <r_epik_Ionization_Penalty>
  0.0002

> <r_epik_Ionization_Penalty_Charging>
  0.0000

> <r_epik_Ionization_Penalty_Neutral>
  0.0002

> <r_epik_State_Penalty>
 -0.0000

> <r_epik_Charging_Adjusted_Penalty>
0

> <i_epik_Tot_Q>
0

> <i_epik_Tot_abs_Q>
0

> <s_epik_Chemistry_Notes>
This compound has an imine and may undergo hydrolysis.

$$$$
