2brp_ligand
                    3D
 Schrodinger Suite 2020-3.
 68 70  0  0  1  0            999 V2000
   15.3520  -10.8030   33.6460 C   0  0  0  0  0  0
   16.1400  -11.9350   33.9780 C   0  0  0  0  0  0
   17.5700  -11.8280   34.2050 C   0  0  0  0  0  0
   18.2840  -10.5340   34.1050 C   0  0  0  0  0  0
   17.4220   -9.3020   33.7610 C   0  0  0  0  0  0
   15.9920   -9.4870   33.5400 C   0  0  0  0  0  0
   19.9090  -10.3910   34.3480 O   0  0  0  0  0  0
   20.4990   -9.1530   34.6280 S   0  0  0  0  0  0
   20.1980   -8.0870   33.6950 O   0  0  0  0  0  0
   20.0830   -8.8480   35.9290 O   0  0  0  0  0  0
   22.0030   -9.3470   34.6820 N   0  0  0  0  0  0
   12.8380  -11.9980   33.3800 N   0  0  0  0  0  0
   13.6640  -10.8730   33.3090 C   0  0  0  0  0  0
   12.9960   -9.7400   32.9910 C   0  0  0  0  0  0
   10.5000   -9.3730   32.5400 C   0  0  0  0  0  0
    9.2780  -10.0140   32.4820 C   0  0  0  0  0  0
    9.1470  -11.4080   32.7110 C   0  0  0  0  0  0
   10.2700  -12.2240   33.0260 C   0  0  0  0  0  0
   11.5380  -11.5570   33.0880 C   0  0  0  0  0  0
   11.6320  -10.1310   32.8570 C   0  0  0  0  0  0
   13.2000  -13.4090   33.7750 C   0  0  0  0  0  0
   14.1980  -14.0560   32.8290 C   0  0  0  0  0  0
   14.7750  -15.2990   33.4680 C   0  0  0  0  0  0
   16.2970  -15.2640   33.5420 C   0  0  0  0  0  0
   16.8780  -16.6450   33.8900 C   0  0  0  0  0  0
   16.2210  -17.2910   35.1260 C   0  0  0  0  0  0
   16.3460  -18.8180   35.0780 C   0  0  0  0  0  0
   15.9740  -19.3490   33.6900 C   0  0  0  0  0  0
   14.6860  -20.1440   33.7150 C   0  0  0  0  0  0
   13.9970  -20.1370   32.3600 C   0  0  0  0  0  0
    7.2000  -11.7610   34.8300 O   0  0  0  0  0  0
    6.6210  -12.0350   33.5920 S   0  0  0  0  0  0
    5.6300  -11.1150   33.0920 O   0  0  0  0  0  0
    7.6720  -12.1250   32.6160 O   0  0  0  0  0  0
    6.0080  -13.3990   33.6810 N   0  0  0  0  0  0
   15.6598  -12.9096   34.0649 H   0  0  0  0  0  0
   18.1346  -12.7259   34.4563 H   0  0  0  0  0  0
   17.8726   -8.3124   33.6845 H   0  0  0  0  0  0
   15.3800   -8.6208   33.2883 H   0  0  0  0  0  0
   22.4891   -8.3849   34.9013 H   0  0  0  0  0  0
   22.3590   -9.7251   33.7123 H   0  0  0  0  0  0
   13.4125   -8.7407   32.8643 H   0  0  0  0  0  0
   10.5802   -8.3038   32.3438 H   0  0  0  0  0  0
    8.3862   -9.4306   32.2531 H   0  0  0  0  0  0
   10.1718  -13.2940   33.2095 H   0  0  0  0  0  0
   13.6479  -13.4050   34.7797 H   0  0  0  0  0  0
   12.2937  -14.0323   33.7801 H   0  0  0  0  0  0
   13.6907  -14.3298   31.8921 H   0  0  0  0  0  0
   15.0106  -13.3470   32.6123 H   0  0  0  0  0  0
   14.3882  -15.3976   34.4930 H   0  0  0  0  0  0
   14.4846  -16.1821   32.8800 H   0  0  0  0  0  0
   16.7043  -14.9507   32.5694 H   0  0  0  0  0  0
   16.6101  -14.5498   34.3178 H   0  0  0  0  0  0
   16.7303  -17.3293   33.0415 H   0  0  0  0  0  0
   17.9534  -16.5481   34.1000 H   0  0  0  0  0  0
   16.7156  -16.9247   36.0377 H   0  0  0  0  0  0
   15.1541  -17.0247   35.1554 H   0  0  0  0  0  0
   17.3828  -19.1083   35.3033 H   0  0  0  0  0  0
   15.6703  -19.2648   35.8221 H   0  0  0  0  0  0
   15.8436  -18.5046   32.9972 H   0  0  0  0  0  0
   16.7762  -20.0052   33.3213 H   0  0  0  0  0  0
   14.9042  -21.1870   33.9879 H   0  0  0  0  0  0
   13.9998  -19.7071   34.4554 H   0  0  0  0  0  0
   13.0680  -20.7231   32.4181 H   0  0  0  0  0  0
   14.6644  -20.5814   31.6070 H   0  0  0  0  0  0
   13.7601  -19.1015   32.0745 H   0  0  0  0  0  0
    5.1923  -13.3869   34.4189 H   0  0  0  0  0  0
    6.7733  -14.1253   33.9922 H   0  0  0  0  0  0
  1  2  2  0  0  0
  1  6  1  0  0  0
  1 13  1  0  0  0
  2  3  1  0  0  0
  2 36  1  0  0  0
  3  4  2  0  0  0
  3 37  1  0  0  0
  4  5  1  0  0  0
  4  7  1  0  0  0
  5  6  2  0  0  0
  5 38  1  0  0  0
  6 39  1  0  0  0
  7  8  1  0  0  0
  8  9  2  0  0  0
  8 10  2  0  0  0
  8 11  1  0  0  0
 11 40  1  0  0  0
 11 41  1  0  0  0
 12 13  1  0  0  0
 12 19  1  0  0  0
 12 21  1  0  0  0
 13 14  2  0  0  0
 14 20  1  0  0  0
 14 42  1  0  0  0
 15 16  1  0  0  0
 15 20  2  0  0  0
 15 43  1  0  0  0
 16 17  2  0  0  0
 16 44  1  0  0  0
 17 18  1  0  0  0
 17 34  1  0  0  0
 18 19  2  0  0  0
 18 45  1  0  0  0
 19 20  1  0  0  0
 21 22  1  0  0  0
 21 46  1  0  0  0
 21 47  1  0  0  0
 22 23  1  0  0  0
 22 48  1  0  0  0
 22 49  1  0  0  0
 23 24  1  0  0  0
 23 50  1  0  0  0
 23 51  1  0  0  0
 24 25  1  0  0  0
 24 52  1  0  0  0
 24 53  1  0  0  0
 25 26  1  0  0  0
 25 54  1  0  0  0
 25 55  1  0  0  0
 26 27  1  0  0  0
 26 56  1  0  0  0
 26 57  1  0  0  0
 27 28  1  0  0  0
 27 58  1  0  0  0
 27 59  1  0  0  0
 28 29  1  0  0  0
 28 60  1  0  0  0
 28 61  1  0  0  0
 29 30  1  0  0  0
 29 62  1  0  0  0
 29 63  1  0  0  0
 30 64  1  0  0  0
 30 65  1  0  0  0
 30 66  1  0  0  0
 31 32  2  0  0  0
 32 33  2  0  0  0
 32 34  1  0  0  0
 32 35  1  0  0  0
 35 67  1  0  0  0
 35 68  1  0  0  0
M  END
> <s_m_source_file>
../2brp_ligand.sdf

> <i_m_source_file_index>
1

> <s_epik_input>
Tz1TKD1PKShbTkgyXSlPYyhbY0hdMSlbY0hdW2NIXWMoYzEyKVtjSF1jKC1jM1tjSF1bY0hdYyhbY0hdW2NIXTMpT1MoPU8pKD1PKVtOSDJdKW4yW0NIMl1bQ0gyXVtDSDJdW0NIMl1bQ0gyXVtDSDJdW0NIMl1bQ0gyXVtDSDJdW0NIM10=

> <s_epik_cmdline>
J2VwaWtfYXBwJywgJy1pbWFlJywgJ2xpZ2FuZF9wcm8ubWFlJywgJy1vbWFlJywgJ2xpZ2FuZF9wcmVwLm1hZScsICctbXMnLCAnMScsICctcGgnLCAnNycsICctcGh0JywgJzAuNScsICctbnQn

> <r_lp_tautomer_probability>
1

> <r_epik_Ionization_Penalty>
  0.0646

> <r_epik_Ionization_Penalty_Charging>
  0.0000

> <r_epik_Ionization_Penalty_Neutral>
  0.0646

> <r_epik_State_Penalty>
 -0.0000

> <r_epik_Charging_Adjusted_Penalty>
0

> <i_epik_Tot_Q>
0

> <i_epik_Tot_abs_Q>
0

$$$$
