2btr_ligand
                    3D
 Schrodinger Suite 2020-3.
 33 34  0  0  1  0            999 V2000
   10.8800   45.7130   25.9630 O   0  0  0  0  0  0
   10.0890   46.3610   25.2810 C   0  0  0  0  0  0
   10.3410   46.6840   24.0190 N   0  0  0  0  0  0
   11.6360   46.4270   23.2990 C   0  0  0  0  0  0
   11.8530   46.7380   21.9730 N   0  0  0  0  0  0
   13.0420   46.3410   21.6950 C   0  0  0  0  0  0
   12.8870   45.4920   24.0880 S   0  0  0  0  0  0
   13.7230   45.6730   22.6400 C   0  0  0  0  0  0
   15.1040   45.0970   22.3950 C   0  0  0  0  0  0
   14.9650   43.6330   21.9270 C   0  0  0  0  0  0
   16.0560   45.2310   23.5780 C   0  0  0  0  0  0
    8.7240   46.7220   25.8230 C   0  0  0  0  0  0
    8.7100   47.8760   26.7700 C   0  0  0  0  0  0
    8.9150   47.6790   28.1240 C   0  0  0  0  0  0
    8.9160   48.7900   28.9670 C   0  0  0  0  0  0
    8.7150   50.0330   28.4280 C   0  0  0  0  0  0
    8.5000   50.1830   27.1160 N   0  0  0  0  0  0
    8.4910   49.1420   26.2830 C   0  0  0  0  0  0
    9.5687   47.1813   23.4138 H   0  0  0  0  0  0
   13.4859   46.5405   20.7197 H   0  0  0  0  0  0
   15.5681   45.7130   21.6107 H   0  0  0  0  0  0
   14.2711   43.5848   21.0748 H   0  0  0  0  0  0
   14.5750   43.0196   22.7526 H   0  0  0  0  0  0
   15.9498   43.2511   21.6200 H   0  0  0  0  0  0
   16.1238   46.2876   23.8762 H   0  0  0  0  0  0
   17.0530   44.8668   23.2894 H   0  0  0  0  0  0
   15.6782   44.6353   24.4220 H   0  0  0  0  0  0
    8.0573   46.9885   24.9896 H   0  0  0  0  0  0
    8.3059   45.8617   26.3663 H   0  0  0  0  0  0
    9.0723   46.6770   28.5233 H   0  0  0  0  0  0
    9.0744   48.6709   30.0388 H   0  0  0  0  0  0
    8.7304   50.9099   29.0752 H   0  0  0  0  0  0
    8.3105   49.2948   25.2190 H   0  0  0  0  0  0
  1  2  2  0  0  0
  2  3  1  0  0  0
  2 12  1  0  0  0
  3  4  1  0  0  0
  3 19  1  0  0  0
  4  5  2  0  0  0
  4  7  1  0  0  0
  5  6  1  0  0  0
  6  8  2  0  0  0
  6 20  1  0  0  0
  7  8  1  0  0  0
  8  9  1  0  0  0
  9 10  1  0  0  0
  9 11  1  0  0  0
  9 21  1  0  0  0
 10 22  1  0  0  0
 10 23  1  0  0  0
 10 24  1  0  0  0
 11 25  1  0  0  0
 11 26  1  0  0  0
 11 27  1  0  0  0
 12 13  1  0  0  0
 12 28  1  0  0  0
 12 29  1  0  0  0
 13 14  2  0  0  0
 13 18  1  0  0  0
 14 15  1  0  0  0
 14 30  1  0  0  0
 15 16  2  0  0  0
 15 31  1  0  0  0
 16 17  1  0  0  0
 16 32  1  0  0  0
 17 18  2  0  0  0
 18 33  1  0  0  0
M  END
> <s_m_source_file>
../2btr_ligand.sdf

> <i_m_source_file_index>
1

> <s_epik_input>
W2NIXTFuW2NIXVtjSF1bY0hdYzFbQ0gyXUMoPU8pW05IXWMybltjSF1jKHMyKVtDSF0oW0NIM10pW0NIM10=

> <s_epik_cmdline>
J2VwaWtfYXBwJywgJy1pbWFlJywgJ2xpZ2FuZF9wcm8ubWFlJywgJy1vbWFlJywgJ2xpZ2FuZF9wcmVwLm1hZScsICctbXMnLCAnMScsICctcGgnLCAnNycsICctcGh0JywgJzAuNScsICctbnQn

> <r_lp_tautomer_probability>
1

> <r_epik_Ionization_Penalty>
  0.0031

> <r_epik_Ionization_Penalty_Charging>
  0.0000

> <r_epik_Ionization_Penalty_Neutral>
  0.0031

> <r_epik_State_Penalty>
 -0.0000

> <r_epik_Charging_Adjusted_Penalty>
0

> <i_epik_Tot_Q>
0

> <i_epik_Tot_abs_Q>
0

$$$$
