2bts_ligand
                    3D
 Schrodinger Suite 2020-3.
 34 35  0  0  1  0            999 V2000
    6.5100   11.9080   30.1620 O   0  0  0  0  0  0
    7.3070   10.6340   28.1420 O   0  0  0  0  0  0
    0.3210    4.1030   29.4100 C   0  0  0  0  0  0
   -0.3050    5.0280   28.6610 C   0  0  0  0  0  0
   -1.6110    4.6700   27.9470 C   0  0  0  0  0  0
   -2.6180    5.7970   28.1370 C   0  0  0  0  0  0
   -1.5320    4.2670   26.4850 C   0  0  0  0  0  0
    0.3970    6.5600   28.6870 S   0  0  0  0  0  0
    1.6150    5.8850   29.8150 C   0  0  0  0  0  0
    1.3730    4.4750   30.0180 N   0  0  0  0  0  0
    5.2210   12.1840   27.9270 N   0  0  0  0  0  0
    3.9780    9.5890   28.5170 C   0  0  0  0  0  0
    5.1310    9.9070   29.2370 C   0  0  0  0  0  0
    2.8450    6.5290   30.3300 N   0  0  0  0  0  0
    5.4840    9.0940   30.3140 C   0  0  0  0  0  0
    4.7120    7.9690   30.6220 C   0  0  0  0  0  0
    3.5420    7.6390   29.9030 C   0  0  0  0  0  0
    3.1910    8.4640   28.8330 C   0  0  0  0  0  0
    6.0360   11.2020   28.8570 S   0  0  0  0  0  0
   -0.0558    3.0835   29.4916 H   0  0  0  0  0  0
   -1.9372    3.7363   28.4285 H   0  0  0  0  0  0
   -2.6611    6.0747   29.2005 H   0  0  0  0  0  0
   -3.6114    5.4608   27.8052 H   0  0  0  0  0  0
   -2.3086    6.6693   27.5425 H   0  0  0  0  0  0
   -0.8010    3.4534   26.3679 H   0  0  0  0  0  0
   -1.2175    5.1321   25.8827 H   0  0  0  0  0  0
   -2.5203    3.9236   26.1454 H   0  0  0  0  0  0
    5.8447   13.0551   27.6777 H   0  0  0  0  0  0
    4.3152   12.5200   28.4530 H   0  0  0  0  0  0
    3.6783   10.2290   27.6871 H   0  0  0  0  0  0
    3.3586    6.1106   31.2082 H   0  0  0  0  0  0
    6.3607    9.3351   30.9151 H   0  0  0  0  0  0
    5.0238    7.3254   31.4446 H   0  0  0  0  0  0
    2.3050    8.2370   28.2400 H   0  0  0  0  0  0
  1 19  2  0  0  0
  2 19  2  0  0  0
  3  4  2  0  0  0
  3 10  1  0  0  0
  3 20  1  0  0  0
  4  5  1  0  0  0
  4  8  1  0  0  0
  5  6  1  0  0  0
  5  7  1  0  0  0
  5 21  1  0  0  0
  6 22  1  0  0  0
  6 23  1  0  0  0
  6 24  1  0  0  0
  7 25  1  0  0  0
  7 26  1  0  0  0
  7 27  1  0  0  0
  8  9  1  0  0  0
  9 10  2  0  0  0
  9 14  1  0  0  0
 11 19  1  0  0  0
 11 28  1  0  0  0
 11 29  1  0  0  0
 12 13  2  0  0  0
 12 18  1  0  0  0
 12 30  1  0  0  0
 13 15  1  0  0  0
 13 19  1  0  0  0
 14 17  1  0  0  0
 14 31  1  0  0  0
 15 16  2  0  0  0
 15 32  1  0  0  0
 16 17  1  0  0  0
 16 33  1  0  0  0
 17 18  2  0  0  0
 18 34  1  0  0  0
M  END
> <s_m_source_file>
../2bts_ligand.sdf

> <i_m_source_file_index>
1

> <s_epik_input>
Tz1TKD1PKShbTkgyXSljMVtjSF1bY0hdYyhbY0hdW2NIXTEpW05IXWMoczIpbltjSF1jMltDSF0oW0NIM10pW0NIM10=

> <s_epik_cmdline>
J2VwaWtfYXBwJywgJy1pbWFlJywgJ2xpZ2FuZF9wcm8ubWFlJywgJy1vbWFlJywgJ2xpZ2FuZF9wcmVwLm1hZScsICctbXMnLCAnMScsICctcGgnLCAnNycsICctcGh0JywgJzAuNScsICctbnQn

> <r_lp_tautomer_probability>
1

> <r_epik_Ionization_Penalty>
  0.0007

> <r_epik_Ionization_Penalty_Charging>
  0.0000

> <r_epik_Ionization_Penalty_Neutral>
  0.0007

> <r_epik_State_Penalty>
 -0.0000

> <r_epik_Charging_Adjusted_Penalty>
0

> <i_epik_Tot_Q>
0

> <i_epik_Tot_abs_Q>
0

$$$$
