2bua_ligand
                    3D
 Schrodinger Suite 2020-3.
 31 32  0  0  1  0            999 V2000
   -5.9900   21.2360    4.0370 C   0  0  0  0  0  0
   -6.0320   22.7600    4.0340 C   0  0  0  0  0  0
   -7.2930   20.7280    4.6940 C   0  0  0  0  0  0
   -7.4930   23.1630    4.1870 C   0  0  0  0  0  0
   -8.2910   21.8740    4.4110 C   0  0  0  0  0  0
   -7.8350   19.3700    4.0770 C   0  0  0  0  0  0
   -6.9200   18.4100    3.5380 C   0  0  0  0  0  0
   -9.2290   19.0520    4.0350 C   0  0  0  0  0  0
   -7.3840   17.2000    2.9890 C   0  0  0  0  0  0
   -9.6880   17.8370    3.4810 C   0  0  0  0  0  0
   -8.7680   16.9150    2.9600 C   0  0  0  0  0  0
   -7.0280   20.5710    6.2270 C   0  0  0  0  0  0
   -7.0990   19.1890    6.7340 N   0  3  0  0  0  0
   -5.9164   20.8692    3.0026 H   0  0  0  0  0  0
   -5.1155   20.8944    4.6103 H   0  0  0  0  0  0
   -5.4319   23.1450    4.8717 H   0  0  0  0  0  0
   -5.6214   23.1363    3.0854 H   0  0  0  0  0  0
   -7.5983   23.8403    5.0473 H   0  0  0  0  0  0
   -7.8297   23.6753    3.2736 H   0  0  0  0  0  0
   -8.8798   21.6341    3.5133 H   0  0  0  0  0  0
   -8.9661   21.9931    5.2712 H   0  0  0  0  0  0
   -5.8503   18.6188    3.5530 H   0  0  0  0  0  0
   -9.9512   19.7616    4.4386 H   0  0  0  0  0  0
   -6.6730   16.4796    2.5845 H   0  0  0  0  0  0
  -10.7551   17.6159    3.4582 H   0  0  0  0  0  0
   -9.1213   15.9769    2.5319 H   0  0  0  0  0  0
   -6.0201   20.9419    6.4647 H   0  0  0  0  0  0
   -7.7743   21.1512    6.7895 H   0  0  0  0  0  0
   -6.8993   19.1846    7.8157 H   0  0  0  0  0  0
   -6.3482   18.5709    6.2200 H   0  0  0  0  0  0
   -8.1025   18.7801    6.5447 H   0  0  0  0  0  0
  1  2  1  0  0  0
  1  3  1  0  0  0
  1 14  1  0  0  0
  1 15  1  0  0  0
  2  4  1  0  0  0
  2 16  1  0  0  0
  2 17  1  0  0  0
  3  5  1  0  0  0
  3  6  1  0  0  0
  3 12  1  0  0  0
  4  5  1  0  0  0
  4 18  1  0  0  0
  4 19  1  0  0  0
  5 20  1  0  0  0
  5 21  1  0  0  0
  6  7  2  0  0  0
  6  8  1  0  0  0
  7  9  1  0  0  0
  7 22  1  0  0  0
  8 10  2  0  0  0
  8 23  1  0  0  0
  9 11  2  0  0  0
  9 24  1  0  0  0
 10 11  1  0  0  0
 10 25  1  0  0  0
 11 26  1  0  0  0
 12 13  1  0  0  0
 12 27  1  0  0  0
 12 28  1  0  0  0
 13 29  1  0  0  0
 13 30  1  0  0  0
 13 31  1  0  0  0
M  CHG  1  13   1
M  END
> <s_m_source_file>
../2bua_ligand.sdf

> <i_m_source_file_index>
1

> <s_epik_input>
W0NIMl0xW0NIMl1bQ0gyXVtDSDJdQzEoW0NIMl1bTkgzK10pYzJbY0hdW2NIXVtjSF1bY0hdW2NIXTI=

> <s_epik_cmdline>
J2VwaWtfYXBwJywgJy1pbWFlJywgJ2xpZ2FuZF9wcm8ubWFlJywgJy1vbWFlJywgJ2xpZ2FuZF9wcmVwLm1hZScsICctbXMnLCAnMScsICctcGgnLCAnNycsICctcGh0JywgJzAuNScsICctbnQn

> <r_lp_tautomer_probability>
1

> <r_epik_Ionization_Penalty>
  0.0008

> <r_epik_Ionization_Penalty_Charging>
  0.0008

> <r_epik_Ionization_Penalty_Neutral>
  0.0000

> <r_epik_State_Penalty>
 -0.0000

> <r_epik_Charging_Adjusted_Penalty>
0.000770567577304849

> <i_epik_Tot_Q>
1

> <i_epik_Tot_abs_Q>
1

$$$$
