2bub_ligand
                    3D
 Schrodinger Suite 2020-3.
 55 57  0  0  1  0            999 V2000
   47.0820   49.7140   34.2890 O   0  0  0  0  0  0
   46.5600   50.7110   33.8310 C   0  0  0  0  0  0
   46.4940   51.9720   34.6730 C   0  0  0  0  0  0
   46.7510   51.6010   36.1220 C   0  0  2  0  0  0
   46.3760   52.7420   36.9540 N   0  3  0  0  0  0
   48.2490   51.3790   36.2440 C   0  0  0  0  0  0
   48.5210   50.7430   37.5870 C   0  0  0  0  0  0
   49.1780   51.4490   38.5850 C   0  0  0  0  0  0
   49.5850   52.6730   38.3580 F   0  0  0  0  0  0
   49.4280   50.8710   39.8190 C   0  0  0  0  0  0
   49.0020   49.5810   40.0650 C   0  0  0  0  0  0
   48.3410   48.8840   39.0740 C   0  0  0  0  0  0
   48.0950   49.4570   37.8390 C   0  0  0  0  0  0
   46.0090   50.7130   32.5610 N   0  0  0  0  0  0
   46.0040   49.5940   31.6120 C   0  0  1  0  0  0
   44.7400   49.8670   30.8000 C   0  0  0  0  0  0
   44.7500   51.3840   30.6220 C   0  0  0  0  0  0
   45.3620   51.8870   31.9370 C   0  0  0  0  0  0
   47.2930   49.7230   30.7590 C   0  0  0  0  0  0
   48.4600   49.4140   31.6200 N   0  0  0  0  0  0
   49.3460   50.3780   32.1230 C   0  0  0  0  0  0
   49.1780   51.5570   31.8490 O   0  0  0  0  0  0
   50.4830   49.9870   33.0100 C   0  0  0  0  0  0
   51.1060   48.7380   32.8840 C   0  0  0  0  0  0
   52.1570   48.4090   33.7450 C   0  0  0  0  0  0
   52.5940   49.2990   34.7340 C   0  0  0  0  0  0
   51.9780   50.5350   34.8650 C   0  0  0  0  0  0
   50.9300   50.8680   34.0080 C   0  0  0  0  0  0
   47.2581   52.6839   34.3276 H   0  0  0  0  0  0
   45.4975   52.4272   34.5742 H   0  0  0  0  0  0
   46.1668   50.7308   36.4559 H   0  0  0  0  0  0
   45.2924   52.9134   36.8744 H   0  0  0  0  0  0
   46.9151   53.6379   36.6122 H   0  0  0  0  0  0
   46.6383   52.5337   38.0018 H   0  0  0  0  0  0
   48.5885   50.7158   35.4347 H   0  0  0  0  0  0
   48.7701   52.3449   36.1694 H   0  0  0  0  0  0
   49.9573   51.4307   40.5902 H   0  0  0  0  0  0
   49.1862   49.1168   41.0339 H   0  0  0  0  0  0
   48.0071   47.8646   39.2677 H   0  0  0  0  0  0
   47.5669   48.8941   37.0693 H   0  0  0  0  0  0
   45.9844   48.5989   32.0804 H   0  0  0  0  0  0
   44.7983   49.3328   29.8402 H   0  0  0  0  0  0
   43.8609   49.5175   31.3613 H   0  0  0  0  0  0
   45.3609   51.6463   29.7456 H   0  0  0  0  0  0
   43.7209   51.7424   30.4721 H   0  0  0  0  0  0
   44.5868   52.2800   32.6113 H   0  0  0  0  0  0
   46.1162   52.6661   31.7519 H   0  0  0  0  0  0
   47.2488   49.0149   29.9184 H   0  0  0  0  0  0
   47.3744   50.7488   30.3704 H   0  0  0  0  0  0
   48.6749   48.3728   31.9023 H   0  0  0  0  0  0
   50.7748   48.0311   32.1233 H   0  0  0  0  0  0
   52.6463   47.4402   33.6445 H   0  0  0  0  0  0
   53.4136   49.0221   35.3971 H   0  0  0  0  0  0
   52.3096   51.2379   35.6293 H   0  0  0  0  0  0
   50.4447   51.8380   34.1155 H   0  0  0  0  0  0
  1  2  2  0  0  0
  2  3  1  0  0  0
  2 14  1  0  0  0
  3  4  1  0  0  0
  3 29  1  0  0  0
  3 30  1  0  0  0
  4  5  1  0  0  0
  4  6  1  0  0  0
  4 31  1  0  0  0
  5 32  1  0  0  0
  5 33  1  0  0  0
  5 34  1  0  0  0
  6  7  1  0  0  0
  6 35  1  0  0  0
  6 36  1  0  0  0
  7  8  2  0  0  0
  7 13  1  0  0  0
  8  9  1  0  0  0
  8 10  1  0  0  0
 10 11  2  0  0  0
 10 37  1  0  0  0
 11 12  1  0  0  0
 11 38  1  0  0  0
 12 13  2  0  0  0
 12 39  1  0  0  0
 13 40  1  0  0  0
 14 15  1  0  0  0
 14 18  1  0  0  0
 15 16  1  0  0  0
 15 19  1  0  0  0
 15 41  1  0  0  0
 16 17  1  0  0  0
 16 42  1  0  0  0
 16 43  1  0  0  0
 17 18  1  0  0  0
 17 44  1  0  0  0
 17 45  1  0  0  0
 18 46  1  0  0  0
 18 47  1  0  0  0
 19 20  1  0  0  0
 19 48  1  0  0  0
 19 49  1  0  0  0
 20 21  1  0  0  0
 20 50  1  0  0  0
 21 22  2  0  0  0
 21 23  1  0  0  0
 23 24  2  0  0  0
 23 28  1  0  0  0
 24 25  1  0  0  0
 24 51  1  0  0  0
 25 26  2  0  0  0
 25 52  1  0  0  0
 26 27  1  0  0  0
 26 53  1  0  0  0
 27 28  2  0  0  0
 27 54  1  0  0  0
 28 55  1  0  0  0
M  CHG  1   5   1
M  END
> <s_m_source_file>
../2bub_ligand.sdf

> <i_m_source_file_index>
1

> <s_epik_input>
W2NIXTFbY0hdW2NIXVtjSF1jKEYpYzFbQ0gyXVtDQEBIXShbTkgzK10pW0NIMl1DKD1PKU4yW0NAQEhdKFtDSDJdW0NIMl1bQ0gyXTIpW0NIMl1bTkhdQyg9TyljM1tjSF1bY0hdW2NIXVtjSF1bY0hdMw==

> <s_epik_cmdline>
J2VwaWtfYXBwJywgJy1pbWFlJywgJ2xpZ2FuZF9wcm8ubWFlJywgJy1vbWFlJywgJ2xpZ2FuZF9wcmVwLm1hZScsICctbXMnLCAnMScsICctcGgnLCAnNycsICctcGh0JywgJzAuNScsICctbnQn

> <r_lp_tautomer_probability>
1

> <r_epik_Ionization_Penalty>
  0.0029

> <r_epik_Ionization_Penalty_Charging>
  0.0029

> <r_epik_Ionization_Penalty_Neutral>
  0.0000

> <r_epik_State_Penalty>
 -0.0000

> <r_epik_Charging_Adjusted_Penalty>
0.00287196230363508

> <i_epik_Tot_Q>
1

> <i_epik_Tot_abs_Q>
1

$$$$
