2bve_ligand
                    3D
 Schrodinger Suite 2020-3.
 55 56  0  0  1  0            999 V2000
   17.8590   37.1130   32.5300 C   0  0  0  0  0  0
   17.1840   36.3220   33.2010 O   0  0  0  0  0  0
   17.3780   37.7710   31.5780 O   0  5  0  0  0  0
   19.3200   37.3530   32.9260 C   0  0  1  0  0  0
   19.3510   38.2810   33.9730 O   0  0  0  0  0  0
   19.9580   36.0470   33.4070 C   0  0  0  0  0  0
   20.1770   35.0480   32.2650 C   0  0  2  0  0  0
   20.9260   33.9270   32.7230 O   0  0  0  0  0  0
   20.8920   35.6910   31.0670 C   0  0  1  0  0  0
   20.9190   34.7010   29.9990 N   0  0  0  0  0  0
   22.0150   34.4880   29.2770 C   0  0  0  0  0  0
   23.0560   35.1240   29.4070 O   0  0  0  0  0  0
   21.9150   33.3980   28.2480 C   0  0  0  0  0  0
   22.6490   32.1830   28.7540 C   0  0  0  0  0  0
   20.1050   36.9410   30.6540 C   0  0  1  0  0  0
   20.0020   37.8480   31.7750 O   0  0  0  0  0  0
   20.7380   37.6900   29.4630 C   0  0  2  0  0  0
   22.0820   38.0230   29.7610 O   0  0  0  0  0  0
   19.9620   38.9890   29.1780 C   0  0  2  0  0  0
   18.5670   38.7400   29.2430 O   0  0  0  0  0  0
   20.3340   39.5340   27.7920 C   0  0  0  0  0  0
   19.7820   40.8290   27.6030 O   0  0  0  0  0  0
   19.1610   39.6180   33.5930 C   0  0  0  0  0  0
   19.6840   40.6000   34.5920 C   0  0  0  0  0  0
   18.8780   41.0380   35.6440 C   0  0  0  0  0  0
   20.9740   41.0830   34.4870 C   0  0  0  0  0  0
   19.3510   41.9490   36.5730 C   0  0  0  0  0  0
   21.4660   41.9960   35.4080 C   0  0  0  0  0  0
   20.6560   42.4350   36.4580 C   0  0  0  0  0  0
   20.9361   36.2625   33.8618 H   0  0  0  0  0  0
   19.3035   35.5721   34.1527 H   0  0  0  0  0  0
   19.2045   34.6410   31.9510 H   0  0  0  0  0  0
   20.5661   33.3379   33.5794 H   0  0  0  0  0  0
   21.9388   35.9628   31.2678 H   0  0  0  0  0  0
   20.0192   34.1095   29.7745 H   0  0  0  0  0  0
   20.8568   33.1501   28.0781 H   0  0  0  0  0  0
   22.3671   33.7408   27.3056 H   0  0  0  0  0  0
   22.5825   31.3774   28.0080 H   0  0  0  0  0  0
   22.1950   31.8471   29.6979 H   0  0  0  0  0  0
   23.7053   32.4377   28.9254 H   0  0  0  0  0  0
   19.0849   36.6265   30.3883 H   0  0  0  0  0  0
   20.7858   37.0401   28.5768 H   0  0  0  0  0  0
   22.8064   37.2290   29.9953 H   0  0  0  0  0  0
   20.1477   39.7431   29.9570 H   0  0  0  0  0  0
   18.1214   38.3444   30.1676 H   0  0  0  0  0  0
   21.4287   39.5956   27.7040 H   0  0  0  0  0  0
   19.9410   38.8610   27.0157 H   0  0  0  0  0  0
   19.9528   41.3673   26.6590 H   0  0  0  0  0  0
   19.6806   39.8062   32.6419 H   0  0  0  0  0  0
   18.0859   39.8146   33.4686 H   0  0  0  0  0  0
   17.8608   40.6571   35.7355 H   0  0  0  0  0  0
   21.6122   40.7429   33.6714 H   0  0  0  0  0  0
   18.7100   42.2847   37.3882 H   0  0  0  0  0  0
   22.4850   42.3710   35.3124 H   0  0  0  0  0  0
   21.0397   43.1525   37.1833 H   0  0  0  0  0  0
  1  2  2  0  0  0
  1  3  1  0  0  0
  1  4  1  0  0  0
  4  5  1  0  0  0
  4  6  1  0  0  0
  4 16  1  0  0  0
  5 23  1  0  0  0
  6  7  1  0  0  0
  6 30  1  0  0  0
  6 31  1  0  0  0
  7  8  1  0  0  0
  7  9  1  0  0  0
  7 32  1  0  0  0
  8 33  1  0  0  0
  9 10  1  0  0  0
  9 15  1  0  0  0
  9 34  1  0  0  0
 10 11  1  0  0  0
 10 35  1  0  0  0
 11 12  2  0  0  0
 11 13  1  0  0  0
 13 14  1  0  0  0
 13 36  1  0  0  0
 13 37  1  0  0  0
 14 38  1  0  0  0
 14 39  1  0  0  0
 14 40  1  0  0  0
 15 16  1  0  0  0
 15 17  1  0  0  0
 15 41  1  0  0  0
 17 18  1  0  0  0
 17 19  1  0  0  0
 17 42  1  0  0  0
 18 43  1  0  0  0
 19 20  1  0  0  0
 19 21  1  0  0  0
 19 44  1  0  0  0
 20 45  1  0  0  0
 21 22  1  0  0  0
 21 46  1  0  0  0
 21 47  1  0  0  0
 22 48  1  0  0  0
 23 24  1  0  0  0
 23 49  1  0  0  0
 23 50  1  0  0  0
 24 25  2  0  0  0
 24 26  1  0  0  0
 25 27  1  0  0  0
 25 51  1  0  0  0
 26 28  2  0  0  0
 26 52  1  0  0  0
 27 29  2  0  0  0
 27 53  1  0  0  0
 28 29  1  0  0  0
 28 54  1  0  0  0
 29 55  1  0  0  0
M  CHG  1   3  -1
M  END
> <s_m_source_file>
../2bve_ligand.sdf

> <i_m_source_file_index>
1

> <s_epik_input>
W2NIXTFbY0hdW2NIXVtjSF1bY0hdYzFbQ0gyXU9bQ0BdMihDKD1PKVtPSF0pW0NIMl1bQ0BIXShbT0hdKVtDQEBIXShbTkhdQyg9TylbQ0gyXVtDSDNdKVtDQEBIXShPMilbQ0BIXShbT0hdKVtDQEhdKFtPSF0pW0NIMl1bT0hd

> <s_epik_cmdline>
J2VwaWtfYXBwJywgJy1pbWFlJywgJ2xpZ2FuZF9wcm8ubWFlJywgJy1vbWFlJywgJ2xpZ2FuZF9wcmVwLm1hZScsICctbXMnLCAnMScsICctcGgnLCAnNycsICctcGh0JywgJzAuNScsICctbnQn

> <r_lp_tautomer_probability>
1

> <r_epik_Ionization_Penalty>
  0.0000

> <r_epik_Ionization_Penalty_Charging>
  0.0000

> <r_epik_Ionization_Penalty_Neutral>
  0.0000

> <r_epik_State_Penalty>
 -0.0000

> <r_epik_Charging_Adjusted_Penalty>
1.80962144140925e-05

> <i_epik_Tot_Q>
-1

> <i_epik_Tot_abs_Q>
1

$$$$
