2bvs_ligand
                    3D
 Schrodinger Suite 2020-3.
 69 70  0  0  1  0            999 V2000
   16.6210   -9.7900   12.1740 C   0  0  0  0  0  0
   15.7030   -9.7780   13.2410 C   0  0  0  0  0  0
   15.7260  -10.7940   14.2190 C   0  0  0  0  0  0
   16.6740  -11.8330   14.1330 C   0  0  0  0  0  0
   17.5930  -11.8410   13.0550 C   0  0  0  0  0  0
   17.5680  -10.8250   12.0790 C   0  0  0  0  0  0
   16.5840   -8.5420   10.9940 Cl  0  0  0  0  0  0
   16.6710  -13.0820   15.3710 S   0  0  0  0  0  0
   17.0080  -14.7470   14.7410 C   0  0  0  0  0  0
   15.7190  -15.4880   14.4200 C   0  0  0  0  0  0
   15.8130  -16.6290   14.0220 O   0  0  0  0  0  0
   14.4450  -14.9320   14.5500 N   0  0  0  0  0  0
   13.2030  -15.6690   14.2030 C   0  0  1  0  0  0
   12.4590  -16.0770   15.5000 C   0  0  0  0  0  0
   13.1660  -17.0480   16.4530 C   0  0  0  0  0  0
   13.5740  -16.5970   17.7320 C   0  0  0  0  0  0
   14.2310  -17.4810   18.6310 C   0  0  0  0  0  0
   14.4930  -18.8370   18.2580 C   0  0  0  0  0  0
   14.0800  -19.2740   16.9750 C   0  0  0  0  0  0
   13.4230  -18.3900   16.0790 C   0  0  0  0  0  0
   15.1560  -19.7960   19.1220 N   0  0  0  0  0  0
   15.6570  -19.6190   20.4300 C   0  0  0  0  0  0
   15.5710  -18.4810   21.0560 N   0  3  0  0  0  0
   16.2610  -20.6960   21.0660 N   0  0  0  0  0  0
   12.3400  -14.7430   13.3660 C   0  0  0  0  0  0
   12.6940  -13.5860   13.2130 O   0  0  0  0  0  0
   11.2030  -15.1990   12.7330 N   0  0  0  0  0  0
   10.3850  -14.3800   11.8430 C   0  0  0  0  0  0
    8.9150  -14.8090   11.8030 C   0  0  0  0  0  0
    8.4440  -15.2660   13.0710 O   0  0  0  0  0  0
    8.6550  -14.3170   14.1150 C   0  0  0  0  0  0
    8.2290  -14.8570   15.4900 C   0  0  0  0  0  0
    7.0880  -14.1600   15.9790 O   0  0  0  0  0  0
    7.4120  -13.3220   17.0840 C   0  0  0  0  0  0
    8.7960  -12.7250   16.9150 C   0  0  0  0  0  0
    9.3300  -12.7460   15.8240 O   0  0  0  0  0  0
    9.4690  -12.1760   17.9950 N   0  0  0  0  0  0
   14.9678   -8.9764   13.3121 H   0  0  0  0  0  0
   15.0106  -10.7755   15.0412 H   0  0  0  0  0  0
   18.3280  -12.6424   12.9797 H   0  0  0  0  0  0
   18.2799  -10.8413   11.2537 H   0  0  0  0  0  0
   17.6092  -14.6768   13.8225 H   0  0  0  0  0  0
   17.5619  -15.3206   15.4987 H   0  0  0  0  0  0
   14.3852  -13.9009   14.9284 H   0  0  0  0  0  0
   13.4644  -16.5677   13.6251 H   0  0  0  0  0  0
   12.2537  -15.1799   16.1026 H   0  0  0  0  0  0
   11.5101  -16.5686   15.2393 H   0  0  0  0  0  0
   13.3831  -15.5658   18.0290 H   0  0  0  0  0  0
   14.5379  -17.1223   19.6135 H   0  0  0  0  0  0
   14.2694  -20.3036   16.6715 H   0  0  0  0  0  0
   13.1141  -18.7465   15.0963 H   0  0  0  0  0  0
   15.3255  -20.8254   18.7731 H   0  0  0  0  0  0
   15.0956  -17.6184   20.5662 H   0  0  0  0  0  0
   16.3416  -21.6645   20.5506 H   0  0  0  0  0  0
   16.6588  -20.5805   22.0850 H   0  0  0  0  0  0
   10.9231  -16.2443   12.9307 H   0  0  0  0  0  0
   10.4148  -13.3326   12.1779 H   0  0  0  0  0  0
   10.7775  -14.4484   10.8177 H   0  0  0  0  0  0
    8.2921  -13.9552   11.4981 H   0  0  0  0  0  0
    8.7919  -15.6292   11.0804 H   0  0  0  0  0  0
    9.7233  -14.0599   14.1663 H   0  0  0  0  0  0
    8.0689  -13.4092   13.9093 H   0  0  0  0  0  0
    7.9803  -15.9250   15.4035 H   0  0  0  0  0  0
    9.0545  -14.7296   16.2058 H   0  0  0  0  0  0
    6.6781  -12.5055   17.1525 H   0  0  0  0  0  0
    7.3903  -13.9132   18.0113 H   0  0  0  0  0  0
    8.9924  -12.1532   18.9861 H   0  0  0  0  0  0
   10.4797  -11.7631   17.8611 H   0  0  0  0  0  0
   15.9737  -18.3819   22.0748 H   0  0  0  0  0  0
  1  2  2  0  0  0
  1  6  1  0  0  0
  1  7  1  0  0  0
  2  3  1  0  0  0
  2 38  1  0  0  0
  3  4  2  0  0  0
  3 39  1  0  0  0
  4  5  1  0  0  0
  4  8  1  0  0  0
  5  6  2  0  0  0
  5 40  1  0  0  0
  6 41  1  0  0  0
  8  9  1  0  0  0
  9 10  1  0  0  0
  9 42  1  0  0  0
  9 43  1  0  0  0
 10 11  2  0  0  0
 10 12  1  0  0  0
 12 13  1  0  0  0
 12 44  1  0  0  0
 13 14  1  0  0  0
 13 25  1  0  0  0
 13 45  1  0  0  0
 14 15  1  0  0  0
 14 46  1  0  0  0
 14 47  1  0  0  0
 15 16  2  0  0  0
 15 20  1  0  0  0
 16 17  1  0  0  0
 16 48  1  0  0  0
 17 18  2  0  0  0
 17 49  1  0  0  0
 18 19  1  0  0  0
 18 21  1  0  0  0
 19 20  2  0  0  0
 19 50  1  0  0  0
 20 51  1  0  0  0
 21 22  1  0  0  0
 21 52  1  0  0  0
 22 23  2  0  0  0
 22 24  1  0  0  0
 23 53  1  0  0  0
 23 69  1  0  0  0
 24 54  1  0  0  0
 24 55  1  0  0  0
 25 26  2  0  0  0
 25 27  1  0  0  0
 27 28  1  0  0  0
 27 56  1  0  0  0
 28 29  1  0  0  0
 28 57  1  0  0  0
 28 58  1  0  0  0
 29 30  1  0  0  0
 29 59  1  0  0  0
 29 60  1  0  0  0
 30 31  1  0  0  0
 31 32  1  0  0  0
 31 61  1  0  0  0
 31 62  1  0  0  0
 32 33  1  0  0  0
 32 63  1  0  0  0
 32 64  1  0  0  0
 33 34  1  0  0  0
 34 35  1  0  0  0
 34 65  1  0  0  0
 34 66  1  0  0  0
 35 36  2  0  0  0
 35 37  1  0  0  0
 37 67  1  0  0  0
 37 68  1  0  0  0
M  CHG  1  23   1
M  END
> <s_m_source_file>
../2bvs_ligand.sdf

> <i_m_source_file_index>
1

> <s_epik_input>
Q2xjMVtjSF1bY0hdYyhbY0hdW2NIXTEpU1tDSDJdQyg9TylbTkhdW0NAQEhdKFtDSDJdYzJbY0hdW2NIXWMoW2NIXVtjSF0yKVtOSF0vQyg9TlxbSF0pW05IMl0pQyg9TylbTkhdW0NIMl1bQ0gyXU9bQ0gyXVtDSDJdT1tDSDJdQyg9TylbTkgyXQ==

> <s_epik_cmdline>
J2VwaWtfYXBwJywgJy1pbWFlJywgJ2xpZ2FuZF9wcm8ubWFlJywgJy1vbWFlJywgJ2xpZ2FuZF9wcmVwLm1hZScsICctbXMnLCAnMScsICctcGgnLCAnNycsICctcGh0JywgJzAuNScsICctbnQn

> <r_lp_tautomer_probability>
1

> <r_epik_Ionization_Penalty>
  0.0001

> <r_epik_Ionization_Penalty_Charging>
  0.0001

> <r_epik_Ionization_Penalty_Neutral>
  0.0000

> <r_epik_State_Penalty>
 -0.0000

> <r_epik_Charging_Adjusted_Penalty>
0.00011608922251297

> <i_epik_Tot_Q>
1

> <i_epik_Tot_abs_Q>
1

> <s_epik_Chemistry_Notes>
This compound has an imine and may undergo hydrolysis.

$$$$
