2bw7_ligand
                    3D
 Schrodinger Suite 2020-3.
 45 48  0  0  1  0            999 V2000
    2.5700   -4.3650    5.9530 C   0  0  0  0  0  0
    2.1620   -3.0840    6.5380 C   0  0  0  0  0  0
    0.2660   -2.7630    4.7600 C   0  0  0  0  0  0
   -0.6560   -1.7860    3.9710 C   0  0  0  0  0  0
   -1.5100   -0.9160    4.9340 C   0  0  1  0  0  0
   -0.5110   -0.1550    5.9370 C   0  0  1  0  0  0
   -1.4770    0.8210    6.6110 C   0  0  0  0  0  0
   -2.2240    1.4360    5.3710 C   0  0  0  0  0  0
   -2.2240    0.3080    4.2830 C   0  0  2  0  0  0
   -2.6170   -1.8270    5.6410 C   0  0  0  0  0  0
    3.3940   -5.2880    6.6780 C   0  0  0  0  0  0
    3.8460   -4.9590    8.0040 C   0  0  0  0  0  0
    3.4730   -3.7120    8.6220 C   0  0  0  0  0  0
    2.6380   -2.7560    7.9160 C   0  0  0  0  0  0
    2.2490   -1.4200    8.6070 C   0  0  0  0  0  0
    1.3410   -0.4470    7.7660 C   0  0  0  0  0  0
    0.3860   -1.1730    6.7820 C   0  0  2  0  0  0
    1.2570   -2.0570    5.7620 C   0  0  1  0  0  0
   -3.5880    0.0820    3.8290 O   0  0  0  0  0  0
    4.6340   -5.8490    8.6820 O   0  0  0  0  0  0
    3.7470   -6.4780    6.0940 O   0  0  0  0  0  0
    2.2402   -4.6211    4.9462 H   0  0  0  0  0  0
   -0.3527   -3.4525    5.3531 H   0  0  0  0  0  0
    0.8811   -3.3385    4.0526 H   0  0  0  0  0  0
   -0.0386   -1.1193    3.3511 H   0  0  0  0  0  0
   -1.3345   -2.3629    3.3254 H   0  0  0  0  0  0
    0.3092    0.4617    5.5407 H   0  0  0  0  0  0
   -2.1439    0.2677    7.2885 H   0  0  0  0  0  0
   -0.9054    1.5646    7.1857 H   0  0  0  0  0  0
   -3.2476    1.7153    5.6611 H   0  0  0  0  0  0
   -1.6845    2.3297    5.0241 H   0  0  0  0  0  0
   -1.7395    0.5480    3.3251 H   0  0  0  0  0  0
   -2.1323   -2.6975    6.1071 H   0  0  0  0  0  0
   -3.3436   -2.1704    4.8899 H   0  0  0  0  0  0
   -3.1368   -1.2400    6.4125 H   0  0  0  0  0  0
    3.8210   -3.4838    9.6294 H   0  0  0  0  0  0
    1.6929   -1.6338    9.5317 H   0  0  0  0  0  0
    3.1603   -0.8538    8.8498 H   0  0  0  0  0  0
    0.7158    0.1504    8.4459 H   0  0  0  0  0  0
    1.9766    0.2231    7.1685 H   0  0  0  0  0  0
   -0.2766   -1.7864    7.4103 H   0  0  0  0  0  0
    1.9562   -1.4368    5.1819 H   0  0  0  0  0  0
   -3.7931   -0.6779    3.0606 H   0  0  0  0  0  0
    4.9191   -6.8012    8.2108 H   0  0  0  0  0  0
    3.3955   -6.7186    5.0798 H   0  0  0  0  0  0
  1  2  2  0  0  0
  1 11  1  0  0  0
  1 22  1  0  0  0
  2 14  1  0  0  0
  2 18  1  0  0  0
  3  4  1  0  0  0
  3 18  1  0  0  0
  3 23  1  0  0  0
  3 24  1  0  0  0
  4  5  1  0  0  0
  4 25  1  0  0  0
  4 26  1  0  0  0
  5  6  1  0  0  0
  5  9  1  0  0  0
  5 10  1  0  0  0
  6  7  1  0  0  0
  6 17  1  0  0  0
  6 27  1  0  0  0
  7  8  1  0  0  0
  7 28  1  0  0  0
  7 29  1  0  0  0
  8  9  1  0  0  0
  8 30  1  0  0  0
  8 31  1  0  0  0
  9 19  1  0  0  0
  9 32  1  0  0  0
 10 33  1  0  0  0
 10 34  1  0  0  0
 10 35  1  0  0  0
 11 12  2  0  0  0
 11 21  1  0  0  0
 12 13  1  0  0  0
 12 20  1  0  0  0
 13 14  2  0  0  0
 13 36  1  0  0  0
 14 15  1  0  0  0
 15 16  1  0  0  0
 15 37  1  0  0  0
 15 38  1  0  0  0
 16 17  1  0  0  0
 16 39  1  0  0  0
 16 40  1  0  0  0
 17 18  1  0  0  0
 17 41  1  0  0  0
 18 42  1  0  0  0
 19 43  1  0  0  0
 20 44  1  0  0  0
 21 45  1  0  0  0
M  END
> <s_m_source_file>
../2bw7_ligand.sdf

> <i_m_source_file_index>
1

> <s_epik_input>
W2NIXTFjKFtPSF0pYyhbT0hdKVtjSF1jKFtDSDJdW0NIMl0yKWMxW0NAQEhdKFtDSDJdW0NIMl0zKVtDQEBIXTJbQ0BASF0oW0NAXTM0W0NIM10pW0NIMl1bQ0gyXVtDQEBIXTRbT0hd

> <s_epik_cmdline>
J2VwaWtfYXBwJywgJy1pbWFlJywgJ2xpZ2FuZF9wcm8ubWFlJywgJy1vbWFlJywgJ2xpZ2FuZF9wcmVwLm1hZScsICctbXMnLCAnMScsICctcGgnLCAnNycsICctcGh0JywgJzAuNScsICctbnQn

> <r_lp_tautomer_probability>
1

> <r_epik_Ionization_Penalty>
  0.0004

> <r_epik_Ionization_Penalty_Charging>
  0.0000

> <r_epik_Ionization_Penalty_Neutral>
  0.0004

> <r_epik_State_Penalty>
 -0.0000

> <r_epik_Charging_Adjusted_Penalty>
0

> <i_epik_Tot_Q>
0

> <i_epik_Tot_abs_Q>
0

$$$$
