2bxt_ligand
                    3D
 Schrodinger Suite 2020-3.
 53 56  0  0  1  0            999 V2000
   12.1720  -13.1210   13.0270 O   0  0  0  0  0  0
   16.4230   -8.3340   11.0040 Cl  0  0  0  0  0  0
    8.1380  -12.6370   15.9790 Cl  0  0  0  0  0  0
   17.7400  -10.7330   11.4800 C   0  0  0  0  0  0
   17.9060  -11.9740   12.1890 C   0  0  0  0  0  0
   16.6740   -9.8360   11.8280 C   0  0  0  0  0  0
   16.9910  -12.3030   13.2350 C   0  0  0  0  0  0
   15.7810  -10.1800   12.8680 C   0  0  0  0  0  0
   15.9530  -11.4110   13.5560 C   0  0  0  0  0  0
   16.8950  -13.6270   14.2040 S   0  0  0  0  0  0
   15.6100  -13.1120   15.0260 C   0  0  0  0  0  0
   15.1540  -11.8700   14.5810 C   0  0  0  0  0  0
   13.9720  -11.0570   15.0700 C   0  0  0  0  0  0
   13.2670  -11.6180   16.2400 N   0  3  0  0  0  0
   11.9170  -12.2650   16.1350 C   0  0  0  0  0  0
   10.9320  -11.7610   15.0440 C   0  0  0  0  0  0
    9.0200  -13.4190   14.7130 C   0  0  0  0  0  0
   10.3150  -12.9200   14.3470 N   0  0  0  0  0  0
    8.4900  -14.4800   14.0630 C   0  0  0  0  0  0
   11.0600  -13.5400   13.3280 C   0  0  0  0  0  0
    9.2660  -15.1550   12.9640 N   0  0  0  0  0  0
   10.4700  -14.7210   12.6170 C   0  0  0  0  0  0
   11.1940  -15.3270   11.6050 N   0  0  0  0  0  0
   10.8610  -16.4970   10.7460 C   0  0  0  0  0  0
   10.1250  -16.0740    9.4490 C   0  0  0  0  0  0
    7.7090  -16.1510   10.2640 C   0  0  0  0  0  0
    8.7970  -15.4260    9.7580 C   0  0  0  0  0  0
    6.5040  -15.4720   10.5520 C   0  0  0  0  0  0
    8.6570  -14.0420    9.5630 N   0  0  0  0  0  0
    6.3750  -14.0910   10.3410 C   0  0  0  0  0  0
    7.4620  -13.3670    9.8370 C   0  0  0  0  0  0
   18.4268  -10.4725   10.6747 H   0  0  0  0  0  0
   18.7186  -12.6533   11.9314 H   0  0  0  0  0  0
   14.9678   -9.5070   13.1397 H   0  0  0  0  0  0
   15.1476  -13.6710   15.8395 H   0  0  0  0  0  0
   14.3131  -10.0525   15.3608 H   0  0  0  0  0  0
   13.2269  -10.9725   14.2652 H   0  0  0  0  0  0
   13.8796  -12.4127   16.6908 H   0  0  0  0  0  0
   13.0951  -10.8229   16.9805 H   0  0  0  0  0  0
   12.0399  -13.3380   15.9261 H   0  0  0  0  0  0
   11.3738  -12.1359   17.0828 H   0  0  0  0  0  0
   10.1419  -11.1571   15.5141 H   0  0  0  0  0  0
   11.4776  -11.1460   14.3132 H   0  0  0  0  0  0
    7.5002  -14.8466   14.3352 H   0  0  0  0  0  0
   12.1535  -14.8049   11.4754 H   0  0  0  0  0  0
   11.7869  -17.0181   10.4612 H   0  0  0  0  0  0
   10.2085  -17.1863   11.3021 H   0  0  0  0  0  0
   10.7446  -15.3543    8.8939 H   0  0  0  0  0  0
    9.9444  -16.9610    8.8240 H   0  0  0  0  0  0
    7.7917  -17.2246   10.4330 H   0  0  0  0  0  0
    5.6567  -16.0329   10.9464 H   0  0  0  0  0  0
    5.4361  -13.5859   10.5676 H   0  0  0  0  0  0
    7.3790  -12.2946    9.6608 H   0  0  0  0  0  0
  1 20  2  0  0  0
  2  6  1  0  0  0
  3 17  1  0  0  0
  4  5  2  0  0  0
  4  6  1  0  0  0
  4 32  1  0  0  0
  5  7  1  0  0  0
  5 33  1  0  0  0
  6  8  2  0  0  0
  7  9  2  0  0  0
  7 10  1  0  0  0
  8  9  1  0  0  0
  8 34  1  0  0  0
  9 12  1  0  0  0
 10 11  1  0  0  0
 11 12  2  0  0  0
 11 35  1  0  0  0
 12 13  1  0  0  0
 13 14  1  0  0  0
 13 36  1  0  0  0
 13 37  1  0  0  0
 14 15  1  0  0  0
 14 38  1  0  0  0
 14 39  1  0  0  0
 15 16  1  0  0  0
 15 40  1  0  0  0
 15 41  1  0  0  0
 16 18  1  0  0  0
 16 42  1  0  0  0
 16 43  1  0  0  0
 17 18  1  0  0  0
 17 19  2  0  0  0
 18 20  1  0  0  0
 19 21  1  0  0  0
 19 44  1  0  0  0
 20 22  1  0  0  0
 21 22  2  0  0  0
 22 23  1  0  0  0
 23 24  1  0  0  0
 23 45  1  0  0  0
 24 25  1  0  0  0
 24 46  1  0  0  0
 24 47  1  0  0  0
 25 27  1  0  0  0
 25 48  1  0  0  0
 25 49  1  0  0  0
 26 27  2  0  0  0
 26 28  1  0  0  0
 26 50  1  0  0  0
 27 29  1  0  0  0
 28 30  2  0  0  0
 28 51  1  0  0  0
 29 31  2  0  0  0
 30 31  1  0  0  0
 30 52  1  0  0  0
 31 53  1  0  0  0
M  CHG  1  14   1
M  END
> <s_m_source_file>
../2bxt_ligand.sdf

> <i_m_source_file_index>
1

> <s_epik_input>
bjFbY0hdW2NIXVtjSF1bY0hdYzFbQ0gyXVtDSDJdW05IXWMobltjSF0yKWMoPU8pbihjMkNsKVtDSDJdW0NIMl1bTkgyK11bQ0gyXWMoW2NIXXMzKWMoYzM0KVtjSF1jKENsKVtjSF1bY0hdNA==

> <s_epik_cmdline>
J2VwaWtfYXBwJywgJy1pbWFlJywgJ2xpZ2FuZF9wcm8ubWFlJywgJy1vbWFlJywgJ2xpZ2FuZF9wcmVwLm1hZScsICctbXMnLCAnMScsICctcGgnLCAnNycsICctcGh0JywgJzAuNScsICctbnQn

> <r_lp_tautomer_probability>
1

> <r_epik_Ionization_Penalty>
  0.1657

> <r_epik_Ionization_Penalty_Charging>
  0.1018

> <r_epik_Ionization_Penalty_Neutral>
  0.0639

> <r_epik_State_Penalty>
 -0.0000

> <r_epik_Charging_Adjusted_Penalty>
0.101775488014275

> <i_epik_Tot_Q>
1

> <i_epik_Tot_abs_Q>
1

$$$$
