2bxu_ligand
                    3D
 Schrodinger Suite 2020-3.
 54 56  0  0  1  0            999 V2000
    6.4780  -15.3240   10.8540 C   0  0  0  0  0  0
    7.6680  -16.0430   10.5970 N   0  0  0  0  0  0
    8.7030  -15.5060    9.8000 C   0  0  0  0  0  0
    8.5330  -14.2160    9.2490 C   0  0  0  0  0  0
    7.3440  -13.4990    9.5060 C   0  0  0  0  0  0
    6.3160  -14.0430   10.3050 C   0  0  0  0  0  0
    9.9860  -16.3030    9.5440 C   0  0  0  0  0  0
   10.6690  -16.7460   10.8490 C   0  0  0  0  0  0
    9.6920  -17.4090    8.8240 F   0  0  0  0  0  0
   10.8780  -15.5660    8.8430 F   0  0  0  0  0  0
   11.1960  -15.5770   11.6040 N   0  0  0  0  0  0
   10.5960  -14.9140   12.6740 C   0  0  0  0  0  0
   11.2160  -13.6760   13.2560 C   0  0  0  0  0  0
   10.5820  -13.0140   14.3540 N   0  0  0  0  0  0
    9.3540  -13.5530   14.8690 C   0  0  0  0  0  0
    8.8080  -14.6710   14.3300 C   0  0  0  0  0  0
    9.4720  -15.3660   13.1850 N   0  0  0  0  0  0
   11.2060  -11.7750   14.9370 C   0  0  0  0  0  0
   12.4770  -12.0280   15.8010 C   0  0  0  0  0  0
   13.5890  -12.7190   15.0930 N   0  0  1  0  0  0
   14.7690  -11.8430   15.2220 C   0  0  0  0  0  0
   15.6930  -11.6910   14.0010 C   0  0  0  0  0  0
   15.8260  -10.3840   13.5000 C   0  0  0  0  0  0
   16.6330  -10.0880   12.3890 C   0  0  0  0  0  0
   16.3490  -14.1870   13.7940 C   0  0  0  0  0  0
   17.3300  -11.1220   11.7540 C   0  0  0  0  0  0
   16.4060  -12.7420   13.3540 C   0  0  0  0  0  0
   12.2550  -13.2530   12.7870 O   0  0  0  0  0  0
   18.1420  -10.8360   10.6330 N   0  0  0  0  0  0
    8.5210  -12.8130   16.1890 Cl  0  0  0  0  0  0
   17.2100  -12.4330   12.2410 N   0  3  0  0  0  0
    5.6940  -15.7607   11.4727 H   0  0  0  0  0  0
    9.3149  -13.7770    8.6293 H   0  0  0  0  0  0
    7.2176  -12.5045    9.0782 H   0  0  0  0  0  0
    5.4056  -13.4740   10.4937 H   0  0  0  0  0  0
    9.9413  -17.2740   11.4828 H   0  0  0  0  0  0
   11.5069  -17.4189   10.6142 H   0  0  0  0  0  0
   12.1683  -15.1400   11.3327 H   0  0  0  0  0  0
    7.8766  -15.0665   14.7352 H   0  0  0  0  0  0
   11.5055  -11.0978   14.1236 H   0  0  0  0  0  0
   10.4771  -11.2681   15.5865 H   0  0  0  0  0  0
   12.8771  -11.0664   16.1550 H   0  0  0  0  0  0
   12.2140  -12.6560   16.6650 H   0  0  0  0  0  0
   13.7703  -13.6974   15.5619 H   0  0  0  0  0  0
   14.4421  -10.8205   15.4619 H   0  0  0  0  0  0
   15.4183  -12.2186   16.0266 H   0  0  0  0  0  0
   15.2853   -9.5741   13.9897 H   0  0  0  0  0  0
   16.7154   -9.0638   12.0254 H   0  0  0  0  0  0
   15.6876  -14.2783   14.6682 H   0  0  0  0  0  0
   17.3597  -14.5289   14.0615 H   0  0  0  0  0  0
   15.9582  -14.8053   12.9724 H   0  0  0  0  0  0
   18.2256   -9.8033   10.2635 H   0  0  0  0  0  0
   18.6904  -11.6461   10.1301 H   0  0  0  0  0  0
   17.7533  -13.2539   11.7502 H   0  0  0  0  0  0
  1  2  2  0  0  0
  1  6  1  0  0  0
  1 32  1  0  0  0
  2  3  1  0  0  0
  3  4  2  0  0  0
  3  7  1  0  0  0
  4  5  1  0  0  0
  4 33  1  0  0  0
  5  6  2  0  0  0
  5 34  1  0  0  0
  6 35  1  0  0  0
  7  8  1  0  0  0
  7  9  1  0  0  0
  7 10  1  0  0  0
  8 11  1  0  0  0
  8 36  1  0  0  0
  8 37  1  0  0  0
 11 12  1  0  0  0
 11 38  1  0  0  0
 12 13  1  0  0  0
 12 17  2  0  0  0
 13 14  1  0  0  0
 13 28  2  0  0  0
 14 15  1  0  0  0
 14 18  1  0  0  0
 15 16  2  0  0  0
 15 30  1  0  0  0
 16 17  1  0  0  0
 16 39  1  0  0  0
 18 19  1  0  0  0
 18 40  1  0  0  0
 18 41  1  0  0  0
 19 20  1  0  0  0
 19 42  1  0  0  0
 19 43  1  0  0  0
 20 21  1  0  0  0
 20 44  1  0  0  0
 21 22  1  0  0  0
 21 45  1  0  0  0
 21 46  1  0  0  0
 22 23  2  0  0  0
 22 27  1  0  0  0
 23 24  1  0  0  0
 23 47  1  0  0  0
 24 26  2  0  0  0
 24 48  1  0  0  0
 25 27  1  0  0  0
 25 49  1  0  0  0
 25 50  1  0  0  0
 25 51  1  0  0  0
 26 29  1  0  0  0
 26 31  1  0  0  0
 27 31  2  0  0  0
 29 52  1  0  0  0
 29 53  1  0  0  0
 31 54  1  0  0  0
M  CHG  1  31   1
M  END
> <s_m_source_file>
../2bxu_ligand.sdf

> <i_m_source_file_index>
1

> <s_epik_input>
W2NIXTFbY0hdW2NIXVtjSF1uYzFDKEYpKEYpW0NIMl1bTkhdYzJjKD1PKW4oYyhDbClbY0hdbjIpW0NIMl1bQ0gyXVtOSDIrXVtDSDJdYzNbY0hdW2NIXWMoW05IMl0pbmMzW0NIM10=

> <s_epik_cmdline>
J2VwaWtfYXBwJywgJy1pbWFlJywgJ2xpZ2FuZF9wcm8ubWFlJywgJy1vbWFlJywgJ2xpZ2FuZF9wcmVwLm1hZScsICctbXMnLCAnMScsICctcGgnLCAnNycsICctcGh0JywgJzAuNScsICctbnQn

> <r_lp_tautomer_probability>
1

> <r_epik_Ionization_Penalty>
  0.2916

> <r_epik_Ionization_Penalty_Charging>
  0.1408

> <r_epik_Ionization_Penalty_Neutral>
  0.1508

> <r_epik_State_Penalty>
 -0.0000

> <r_epik_Charging_Adjusted_Penalty>
0.140801425548335

> <i_epik_Tot_Q>
1

> <i_epik_Tot_abs_Q>
1

$$$$
