2byh_ligand
                    3D
 Schrodinger Suite 2020-3.
 39 41  0  0  1  0            999 V2000
    5.6560   -2.4880    5.5440 O   0  0  0  0  0  0
    4.7820   -2.4710    6.3870 C   0  0  0  0  0  0
    3.9620   -3.6990    6.6910 C   0  0  0  0  0  0
    4.5170   -1.2360    7.1850 C   0  0  0  0  0  0
    3.5280   -1.2370    8.1690 C   0  0  0  0  0  0
    3.2570   -0.0870    8.9010 C   0  0  0  0  0  0
    5.2270   -0.0490    6.9600 C   0  0  0  0  0  0
    4.9460    1.0980    7.6980 C   0  0  0  0  0  0
    3.9150    1.1240    8.6270 C   0  0  0  0  0  0
    3.7560    2.2280    9.3850 N   0  0  0  0  0  0
    2.8530    2.5610   10.3120 C   0  0  0  0  0  0
    1.8700    1.8370   10.5490 O   0  0  0  0  0  0
    3.0700    3.7810   11.1680 C   0  0  0  0  0  0
    2.1150    4.6050   11.7260 C   0  0  0  0  0  0
    2.7820    5.4630   12.5070 N   0  0  0  0  0  0
    4.0790    5.2510   12.5160 N   0  3  0  0  0  0
    4.3160    4.1910   11.7700 C   0  0  0  0  0  0
    5.7090    3.6640   11.5610 C   0  0  0  0  0  0
    5.9130    2.3050   11.3540 C   0  0  0  0  0  0
    7.1660    1.8100   11.1080 C   0  0  0  0  0  0
    7.4110    0.0810   10.8860 Cl  0  0  0  0  0  0
    8.2720    2.6270   11.0890 C   0  0  0  0  0  0
    9.4540    2.0890   10.8230 O   0  0  0  0  0  0
    8.1150    3.9700   11.3270 C   0  0  0  0  0  0
    6.8420    4.5040   11.5730 C   0  0  0  0  0  0
    6.7700    5.8180   11.8090 O   0  5  0  0  0  0
    4.2705   -4.5196    6.0266 H   0  0  0  0  0  0
    2.8966   -3.4776    6.5299 H   0  0  0  0  0  0
    4.1206   -3.9958    7.7383 H   0  0  0  0  0  0
    2.9627   -2.1480    8.3655 H   0  0  0  0  0  0
    2.5199   -0.1252    9.7030 H   0  0  0  0  0  0
    6.0073   -0.0232    6.1994 H   0  0  0  0  0  0
    5.5478    1.9935    7.5430 H   0  0  0  0  0  0
    4.4598    3.0678    9.2880 H   0  0  0  0  0  0
    1.0378    4.5655   11.5641 H   0  0  0  0  0  0
    5.0633    1.6231   11.3879 H   0  0  0  0  0  0
    9.5371    1.0079   10.6380 H   0  0  0  0  0  0
    8.9858    4.6256   11.3247 H   0  0  0  0  0  0
    4.7413    5.9176   13.0878 H   0  0  0  0  0  0
  1  2  2  0  0  0
  2  3  1  0  0  0
  2  4  1  0  0  0
  3 27  1  0  0  0
  3 28  1  0  0  0
  3 29  1  0  0  0
  4  5  2  0  0  0
  4  7  1  0  0  0
  5  6  1  0  0  0
  5 30  1  0  0  0
  6  9  2  0  0  0
  6 31  1  0  0  0
  7  8  2  0  0  0
  7 32  1  0  0  0
  8  9  1  0  0  0
  8 33  1  0  0  0
  9 10  1  0  0  0
 10 11  1  0  0  0
 10 34  1  0  0  0
 11 12  2  0  0  0
 11 13  1  0  0  0
 13 14  2  0  0  0
 13 17  1  0  0  0
 14 15  1  0  0  0
 14 35  1  0  0  0
 15 16  1  0  0  0
 16 17  2  0  0  0
 16 39  1  0  0  0
 17 18  1  0  0  0
 18 19  2  0  0  0
 18 25  1  0  0  0
 19 20  1  0  0  0
 19 36  1  0  0  0
 20 21  1  0  0  0
 20 22  2  0  0  0
 22 23  1  0  0  0
 22 24  1  0  0  0
 23 37  1  0  0  0
 24 25  2  0  0  0
 24 38  1  0  0  0
 25 26  1  0  0  0
M  CHG  2  16   1  26  -1
M  END
> <s_m_source_file>
../2byh_ligand.sdf

> <i_m_source_file_index>
1

> <s_epik_input>
Tz1DKFtDSDNdKWMxW2NIXVtjSF1jKFtjSF1bY0hdMSlbTkhdQyg9TyljMltjSF1bbkhdbmMyLWMzW2NIXWMoQ2wpYyhbT0hdKVtjSF1jM1tPSF0=

> <s_epik_cmdline>
J2VwaWtfYXBwJywgJy1pbWFlJywgJ2xpZ2FuZF9wcm8ubWFlJywgJy1vbWFlJywgJ2xpZ2FuZF9wcmVwLm1hZScsICctbXMnLCAnMScsICctcGgnLCAnNycsICctcGh0JywgJzAuNScsICctbnQn

> <r_lp_tautomer_probability>
1

> <r_epik_Ionization_Penalty>
  0.0007

> <r_epik_Ionization_Penalty_Charging>
  0.0000

> <r_epik_Ionization_Penalty_Neutral>
  0.0007

> <r_epik_State_Penalty>
 -0.0000

> <r_epik_Charging_Adjusted_Penalty>
1.65774407319942e-05

> <i_epik_Tot_Q>
0

> <i_epik_Tot_abs_Q>
2

$$$$
