2byi_ligand
                    3D
 Schrodinger Suite 2020-3.
 42 44  0  0  1  0            999 V2000
    7.1870    0.0500   10.6090 Cl  0  0  0  0  0  0
    7.1110    1.7580   11.0330 C   0  0  0  0  0  0
    8.2860    2.4960   11.1630 C   0  0  0  0  0  0
    8.2220    3.8490   11.4890 C   0  0  0  0  0  0
    6.9850    4.4360   11.7660 C   0  0  0  0  0  0
    6.9230    5.7370   12.0680 O   0  5  0  0  0  0
    9.4590    1.9270   10.8740 O   0  0  0  0  0  0
    5.8810    2.3500   11.2770 C   0  0  0  0  0  0
    5.8150    3.6980   11.5950 C   0  0  0  0  0  0
    4.4760    4.3290   11.8120 C   0  0  0  0  0  0
    4.0990    5.0280   12.9010 N   0  3  0  0  0  0
    2.8570    5.4250   12.7540 N   0  0  0  0  0  0
    2.3880    5.0120   11.5620 C   0  0  0  0  0  0
    3.3940    4.3070   10.9270 C   0  0  0  0  0  0
    3.2970    3.6750    9.5450 C   0  0  0  0  0  0
    2.1920    3.3060    9.1230 O   0  0  0  0  0  0
    4.3790    3.5110    8.7710 N   0  0  0  0  0  0
    4.2630    3.0920    7.4800 C   0  0  0  0  0  0
    4.3370    1.5790    7.2910 C   0  0  0  0  0  0
    4.1710    0.6890    8.3510 C   0  0  0  0  0  0
    4.2250   -0.6930    8.1180 C   0  0  0  0  0  0
    4.4900    1.0790    5.9990 C   0  0  0  0  0  0
    4.5410   -0.2900    5.7650 C   0  0  0  0  0  0
    4.3920   -1.1810    6.8190 C   0  0  0  0  0  0
    4.4500   -2.9140    6.5140 S   0  0  0  0  0  0
    5.6020   -3.2320    5.7310 O   0  0  0  0  0  0
    3.2710   -3.3040    5.7710 O   0  0  0  0  0  0
    4.4500   -3.6960    7.8910 N   0  0  0  0  0  0
    9.1327    4.4466   11.5277 H   0  0  0  0  0  0
    9.5035    0.8583   10.6173 H   0  0  0  0  0  0
    4.9682    1.7571   11.2190 H   0  0  0  0  0  0
    1.3899    5.2003   11.1664 H   0  0  0  0  0  0
    5.3725    3.7207    9.1940 H   0  0  0  0  0  0
    3.2928    3.4157    7.0752 H   0  0  0  0  0  0
    5.0748    3.5274    6.8788 H   0  0  0  0  0  0
    3.9995    1.0664    9.3591 H   0  0  0  0  0  0
    4.1365   -1.3886    8.9525 H   0  0  0  0  0  0
    4.5707    1.7711    5.1608 H   0  0  0  0  0  0
    4.6981   -0.6642    4.7534 H   0  0  0  0  0  0
    4.4863   -4.7783    7.6980 H   0  0  0  0  0  0
    3.5343   -3.4537    8.4502 H   0  0  0  0  0  0
    4.8072    5.1812   13.7286 H   0  0  0  0  0  0
  1  2  1  0  0  0
  2  3  2  0  0  0
  2  8  1  0  0  0
  3  4  1  0  0  0
  3  7  1  0  0  0
  4  5  2  0  0  0
  4 29  1  0  0  0
  5  6  1  0  0  0
  5  9  1  0  0  0
  7 30  1  0  0  0
  8  9  2  0  0  0
  8 31  1  0  0  0
  9 10  1  0  0  0
 10 11  2  0  0  0
 10 14  1  0  0  0
 11 12  1  0  0  0
 11 42  1  0  0  0
 12 13  1  0  0  0
 13 14  2  0  0  0
 13 32  1  0  0  0
 14 15  1  0  0  0
 15 16  2  0  0  0
 15 17  1  0  0  0
 17 18  1  0  0  0
 17 33  1  0  0  0
 18 19  1  0  0  0
 18 34  1  0  0  0
 18 35  1  0  0  0
 19 20  2  0  0  0
 19 22  1  0  0  0
 20 21  1  0  0  0
 20 36  1  0  0  0
 21 24  2  0  0  0
 21 37  1  0  0  0
 22 23  2  0  0  0
 22 38  1  0  0  0
 23 24  1  0  0  0
 23 39  1  0  0  0
 24 25  1  0  0  0
 25 26  2  0  0  0
 25 27  2  0  0  0
 25 28  1  0  0  0
 28 40  1  0  0  0
 28 41  1  0  0  0
M  CHG  2   6  -1  11   1
M  END
> <s_m_source_file>
../2byi_ligand.sdf

> <i_m_source_file_index>
1

> <s_epik_input>
Q2xjMWMoW09IXSlbY0hdYyhbT0hdKWMoW2NIXTEpLWMybltuSF1bY0hdYzJDKD1PKVtOSF1bQ0gyXWMzW2NIXVtjSF1jKFtjSF1bY0hdMylTKD1PKSg9TylbTkgyXQ==

> <s_epik_cmdline>
J2VwaWtfYXBwJywgJy1pbWFlJywgJ2xpZ2FuZF9wcm8ubWFlJywgJy1vbWFlJywgJ2xpZ2FuZF9wcmVwLm1hZScsICctbXMnLCAnMScsICctcGgnLCAnNycsICctcGh0JywgJzAuNScsICctbnQn

> <r_lp_tautomer_probability>
1

> <r_epik_Ionization_Penalty>
  0.0014

> <r_epik_Ionization_Penalty_Charging>
  0.0001

> <r_epik_Ionization_Penalty_Neutral>
  0.0013

> <r_epik_State_Penalty>
 -0.0000

> <r_epik_Charging_Adjusted_Penalty>
9.96840845349698e-05

> <i_epik_Tot_Q>
0

> <i_epik_Tot_abs_Q>
2

$$$$
