2byp_ligand
                    3D
 Schrodinger Suite 2020-3.
169173  0  0  1  0            999 V2000
   36.1300   50.5560   86.2740 N   0  3  0  0  0  0
   34.8540   50.2790   86.9850 C   0  0  0  0  0  0
   33.7090   50.0700   86.0320 C   0  0  0  0  0  0
   33.9150   49.8250   84.8400 O   0  0  0  0  0  0
   32.5060   50.1790   86.5810 N   0  0  0  0  0  0
   31.2680   49.9360   85.8740 C   0  0  2  0  0  0
   31.1830   50.6650   84.5390 C   0  0  0  0  0  0
   30.8570   50.0730   83.5170 O   0  0  0  0  0  0
   30.1150   50.3840   86.7560 C   0  0  0  0  0  0
   28.5260   50.4390   85.9460 S   0  0  0  0  0  0
   31.4790   51.9610   84.5640 N   0  0  0  0  0  0
   31.3000   52.8220   83.3920 C   0  0  2  0  0  0
   32.2680   52.5060   82.2300 C   0  0  0  0  0  0
   32.0700   53.0200   81.1250 O   0  0  0  0  0  0
   31.3670   54.2900   83.8260 C   0  0  0  0  0  0
   30.1880   54.5940   85.2360 S   0  0  0  0  0  0
   33.2660   51.6470   82.4730 N   0  0  0  0  0  0
   34.1240   51.0830   81.4230 C   0  0  2  0  0  0
   33.6350   49.7370   80.8570 C   0  0  0  0  0  0
   34.0530   49.3210   79.7730 O   0  0  0  0  0  0
   35.5480   50.8980   81.9460 C   0  0  0  0  0  0
   36.0700   52.1200   82.4510 O   0  0  0  0  0  0
   32.7610   49.0630   81.5980 N   0  0  0  0  0  0
   32.2800   47.7320   81.2580 C   0  0  2  0  0  0
   31.0010   47.8240   80.4430 C   0  0  0  0  0  0
   30.0200   48.3670   80.9070 O   0  0  0  0  0  0
   32.0170   46.9420   82.5420 C   0  0  0  0  0  0
   31.7890   45.4580   82.2910 C   0  0  0  0  0  0
   32.3640   44.6560   83.0250 O   0  0  0  0  0  0
   31.0390   45.0900   81.3830 O   0  0  0  0  0  0
   31.0030   47.2640   79.2170 N   0  0  0  0  0  0
   29.8360   47.3660   78.3440 C   0  0  2  0  0  0
   28.5470   46.7290   78.8680 C   0  0  0  0  0  0
   27.4660   47.1010   78.4270 O   0  0  0  0  0  0
   30.2860   46.6850   77.0430 C   0  0  0  0  0  0
   31.5320   46.0340   77.3220 C   0  0  0  0  0  0
   32.1110   46.5440   78.5840 C   0  0  0  0  0  0
   28.6620   45.7640   79.7690 N   0  0  0  0  0  0
   27.4930   45.1480   80.4280 C   0  0  2  0  0  0
   26.8540   46.0670   81.5060 C   0  0  0  0  0  0
   25.7140   45.8820   81.8760 O   0  0  0  0  0  0
   27.9240   43.8150   81.0810 C   0  0  0  0  0  0
   28.4430   42.7540   80.1010 C   0  0  0  0  0  0
   29.2120   41.6490   80.7960 C   0  0  0  0  0  0
   30.4160   42.1230   81.4920 N   0  0  0  0  0  0
   31.3340   41.3280   82.0280 C   0  0  0  0  0  0
   31.2470   40.0200   81.8880 N   0  0  0  0  0  0
   32.3820   41.8330   82.6450 N   0  0  0  0  0  0
   27.6330   47.0130   82.0260 N   0  0  0  0  0  0
   27.2580   47.8520   83.1740 C   0  0  2  0  0  0
   27.0210   49.3160   82.7940 C   0  0  0  0  0  0
   26.1230   49.9530   83.3360 O   0  0  0  0  0  0
   28.3670   47.8010   84.2350 C   0  0  0  0  0  0
   27.9040   48.4780   85.9200 S   0  0  0  0  0  0
   27.8280   49.8350   81.8620 N   0  0  0  0  0  0
   27.9400   51.2740   81.6090 C   0  0  2  0  0  0
   26.6130   51.9950   81.4000 C   0  0  0  0  0  0
   26.4980   53.1590   81.7240 O   0  0  0  0  0  0
   28.8790   51.5310   80.4200 C   0  0  0  0  0  0
   25.6190   51.3030   80.8680 N   0  0  0  0  0  0
   24.2820   51.8710   80.6860 C   0  0  2  0  0  0
   23.5920   52.3450   81.9820 C   0  0  0  0  0  0
   22.5860   53.0530   81.9210 O   0  0  0  0  0  0
   23.3850   50.8560   80.0010 C   0  0  0  0  0  0
   23.1200   49.6390   80.8200 C   0  0  0  0  0  0
   23.9080   48.5220   80.9190 C   0  0  0  0  0  0
   21.9800   49.4000   81.6670 C   0  0  0  0  0  0
   23.3330   47.6120   81.7780 N   0  0  0  0  0  0
   22.1470   48.1190   82.2430 C   0  0  0  0  0  0
   20.8400   50.1420   81.9960 C   0  0  0  0  0  0
   21.2090   47.5620   83.1180 C   0  0  0  0  0  0
   19.9030   49.5810   82.8730 C   0  0  0  0  0  0
   20.0970   48.3080   83.4190 C   0  0  0  0  0  0
   24.1210   51.9370   83.1310 N   0  0  0  0  0  0
   23.6290   52.3770   84.4350 C   0  0  2  0  0  0
   24.1980   53.7370   84.8700 C   0  0  0  0  0  0
   23.7060   54.3170   85.8300 O   0  0  0  0  0  0
   23.9540   51.3220   85.4930 C   0  0  0  0  0  0
   23.2320   50.0150   85.2520 C   0  0  0  0  0  0
   23.5980   48.9760   86.3060 C   0  0  0  0  0  0
   22.9190   47.7060   86.0500 N   0  0  0  0  0  0
   21.6960   47.3920   86.4910 C   0  0  0  0  0  0
   21.0040   48.2400   87.2460 N   0  0  0  0  0  0
   21.1700   46.2030   86.1880 N   0  0  0  0  0  0
   25.2010   54.2990   84.1940 N   0  0  0  0  0  0
   25.9710   55.4490   84.6140 C   0  0  2  0  0  0
   25.3110   56.7350   84.1830 C   0  0  0  0  0  0
   24.5510   56.7450   83.2230 O   0  0  0  0  0  0
   27.3610   55.3220   84.0160 C   0  0  0  0  0  0
   28.3070   53.9870   84.8010 S   0  0  0  0  0  0
   25.5710   57.8630   84.8740 N   0  0  0  0  0  0
   36.9353   50.7014   87.0091 H   0  0  0  0  0  0
   36.0206   51.4657   85.6653 H   0  0  0  0  0  0
   36.3782   49.7059   85.6215 H   0  0  0  0  0  0
   34.9634   49.3693   87.5937 H   0  0  0  0  0  0
   34.6058   51.1291   87.6375 H   0  0  0  0  0  0
   32.4855   50.4741   87.6405 H   0  0  0  0  0  0
   31.2680   48.8532   85.6803 H   0  0  0  0  0  0
   30.0128   49.6923   87.6052 H   0  0  0  0  0  0
   30.3133   51.3987   87.1314 H   0  0  0  0  0  0
   31.8692   52.3829   85.5019 H   0  0  0  0  0  0
   30.2921   52.5804   83.0234 H   0  0  0  0  0  0
   32.3898   54.5296   84.1522 H   0  0  0  0  0  0
   31.0916   54.9357   82.9791 H   0  0  0  0  0  0
   33.4277   51.3675   83.5245 H   0  0  0  0  0  0
   34.0634   51.8437   80.6308 H   0  0  0  0  0  0
   35.5472   50.1540   82.7562 H   0  0  0  0  0  0
   36.1964   50.5493   81.1287 H   0  0  0  0  0  0
   37.0884   52.1535   82.8653 H   0  0  0  0  0  0
   32.4001   49.5620   82.5094 H   0  0  0  0  0  0
   33.0703   47.2605   80.6554 H   0  0  0  0  0  0
   32.8817   47.0380   83.2152 H   0  0  0  0  0  0
   31.1195   47.3385   83.0392 H   0  0  0  0  0  0
   30.8767   44.0168   81.2046 H   0  0  0  0  0  0
   29.5890   48.4355   78.2717 H   0  0  0  0  0  0
   29.5262   45.9537   76.7301 H   0  0  0  0  0  0
   30.4107   47.4435   76.2562 H   0  0  0  0  0  0
   31.3665   44.9506   77.4166 H   0  0  0  0  0  0
   32.2383   46.2267   76.5010 H   0  0  0  0  0  0
   32.9455   47.2383   78.4063 H   0  0  0  0  0  0
   32.4451   45.7308   79.2451 H   0  0  0  0  0  0
   29.6775   45.4242   80.0205 H   0  0  0  0  0  0
   26.7659   44.9952   79.6169 H   0  0  0  0  0  0
   28.7344   44.0043   81.8004 H   0  0  0  0  0  0
   27.0657   43.3688   81.6046 H   0  0  0  0  0  0
   27.5936   42.2954   79.5735 H   0  0  0  0  0  0
   29.1159   43.2272   79.3707 H   0  0  0  0  0  0
   28.5660   41.1678   81.5451 H   0  0  0  0  0  0
   29.5322   40.9025   80.0542 H   0  0  0  0  0  0
   30.6026   43.2021   81.5953 H   0  0  0  0  0  0
   30.3796   39.5782   81.3757 H   0  0  0  0  0  0
   32.0418   39.3705   82.2835 H   0  0  0  0  0  0
   32.4736   42.9218   82.7722 H   0  0  0  0  0  0
   28.6114   47.1486   81.5420 H   0  0  0  0  0  0
   26.3120   47.4166   83.5283 H   0  0  0  0  0  0
   28.6744   46.7569   84.3942 H   0  0  0  0  0  0
   29.2307   48.3891   83.8912 H   0  0  0  0  0  0
   28.4251   49.1246   81.2714 H   0  0  0  0  0  0
   28.3530   51.6548   82.5548 H   0  0  0  0  0  0
   29.8312   51.0053   80.5845 H   0  0  0  0  0  0
   29.0674   52.6109   80.3283 H   0  0  0  0  0  0
   28.4106   51.1608   79.4962 H   0  0  0  0  0  0
   25.8235   50.2675   80.5581 H   0  0  0  0  0  0
   24.4804   52.7511   80.0567 H   0  0  0  0  0  0
   22.4120   51.3181   79.7780 H   0  0  0  0  0  0
   23.8562   50.5233   79.0643 H   0  0  0  0  0  0
   24.8521   48.3753   80.3944 H   0  0  0  0  0  0
   20.6844   51.1366   81.5781 H   0  0  0  0  0  0
   21.3559   46.5703   83.5459 H   0  0  0  0  0  0
   19.0080   50.1457   83.1342 H   0  0  0  0  0  0
   19.3488   47.8995   84.0983 H   0  0  0  0  0  0
   24.9667   51.2363   83.0701 H   0  0  0  0  0  0
   22.5441   52.4827   84.2871 H   0  0  0  0  0  0
   25.0347   51.1170   85.4865 H   0  0  0  0  0  0
   23.6573   51.6938   86.4848 H   0  0  0  0  0  0
   22.1457   50.1838   85.2901 H   0  0  0  0  0  0
   23.5073   49.6210   84.2626 H   0  0  0  0  0  0
   24.6844   48.8041   86.2897 H   0  0  0  0  0  0
   23.2994   49.3409   87.2998 H   0  0  0  0  0  0
   23.4172   46.9261   85.4554 H   0  0  0  0  0  0
   21.4289   49.2220   87.5011 H   0  0  0  0  0  0
   21.7347   45.4946   85.5641 H   0  0  0  0  0  0
   20.1719   45.9317   86.5623 H   0  0  0  0  0  0
   25.4252   53.8071   83.2360 H   0  0  0  0  0  0
   26.0014   55.4422   85.7136 H   0  0  0  0  0  0
   27.2791   55.1036   82.9410 H   0  0  0  0  0  0
   27.9088   56.2653   84.1578 H   0  0  0  0  0  0
   26.2564   57.8356   85.7339 H   0  0  0  0  0  0
   25.0977   58.8108   84.5779 H   0  0  0  0  0  0
  1  2  1  0  0  0
  1 92  1  0  0  0
  1 93  1  0  0  0
  1 94  1  0  0  0
  2  3  1  0  0  0
  2 95  1  0  0  0
  2 96  1  0  0  0
  3  4  2  0  0  0
  3  5  1  0  0  0
  5  6  1  0  0  0
  5 97  1  0  0  0
  6  7  1  0  0  0
  6  9  1  0  0  0
  6 98  1  0  0  0
  7  8  2  0  0  0
  7 11  1  0  0  0
  9 10  1  0  0  0
  9 99  1  0  0  0
  9100  1  0  0  0
 10 54  1  0  0  0
 11 12  1  0  0  0
 11101  1  0  0  0
 12 13  1  0  0  0
 12 15  1  0  0  0
 12102  1  0  0  0
 13 14  2  0  0  0
 13 17  1  0  0  0
 15 16  1  0  0  0
 15103  1  0  0  0
 15104  1  0  0  0
 16 90  1  0  0  0
 17 18  1  0  0  0
 17105  1  0  0  0
 18 19  1  0  0  0
 18 21  1  0  0  0
 18106  1  0  0  0
 19 20  2  0  0  0
 19 23  1  0  0  0
 21 22  1  0  0  0
 21107  1  0  0  0
 21108  1  0  0  0
 22109  1  0  0  0
 23 24  1  0  0  0
 23110  1  0  0  0
 24 25  1  0  0  0
 24 27  1  0  0  0
 24111  1  0  0  0
 25 26  2  0  0  0
 25 31  1  0  0  0
 27 28  1  0  0  0
 27112  1  0  0  0
 27113  1  0  0  0
 28 29  2  0  0  0
 28 30  1  0  0  0
 30114  1  0  0  0
 31 32  1  0  0  0
 31 37  1  0  0  0
 32 33  1  0  0  0
 32 35  1  0  0  0
 32115  1  0  0  0
 33 34  2  0  0  0
 33 38  1  0  0  0
 35 36  1  0  0  0
 35116  1  0  0  0
 35117  1  0  0  0
 36 37  1  0  0  0
 36118  1  0  0  0
 36119  1  0  0  0
 37120  1  0  0  0
 37121  1  0  0  0
 38 39  1  0  0  0
 38122  1  0  0  0
 39 40  1  0  0  0
 39 42  1  0  0  0
 39123  1  0  0  0
 40 41  2  0  0  0
 40 49  1  0  0  0
 42 43  1  0  0  0
 42124  1  0  0  0
 42125  1  0  0  0
 43 44  1  0  0  0
 43126  1  0  0  0
 43127  1  0  0  0
 44 45  1  0  0  0
 44128  1  0  0  0
 44129  1  0  0  0
 45 46  1  0  0  0
 45130  1  0  0  0
 46 47  1  0  0  0
 46 48  2  0  0  0
 47131  1  0  0  0
 47132  1  0  0  0
 48133  1  0  0  0
 49 50  1  0  0  0
 49134  1  0  0  0
 50 51  1  0  0  0
 50 53  1  0  0  0
 50135  1  0  0  0
 51 52  2  0  0  0
 51 55  1  0  0  0
 53 54  1  0  0  0
 53136  1  0  0  0
 53137  1  0  0  0
 55 56  1  0  0  0
 55138  1  0  0  0
 56 57  1  0  0  0
 56 59  1  0  0  0
 56139  1  0  0  0
 57 58  2  0  0  0
 57 60  1  0  0  0
 59140  1  0  0  0
 59141  1  0  0  0
 59142  1  0  0  0
 60 61  1  0  0  0
 60143  1  0  0  0
 61 62  1  0  0  0
 61 64  1  0  0  0
 61144  1  0  0  0
 62 63  2  0  0  0
 62 74  1  0  0  0
 64 65  1  0  0  0
 64145  1  0  0  0
 64146  1  0  0  0
 65 66  2  0  0  0
 65 67  1  0  0  0
 66 68  1  0  0  0
 66147  1  0  0  0
 67 69  2  0  0  0
 67 70  1  0  0  0
 68 69  1  0  0  0
 69 71  1  0  0  0
 70 72  2  0  0  0
 70148  1  0  0  0
 71 73  2  0  0  0
 71149  1  0  0  0
 72 73  1  0  0  0
 72150  1  0  0  0
 73151  1  0  0  0
 74 75  1  0  0  0
 74152  1  0  0  0
 75 76  1  0  0  0
 75 78  1  0  0  0
 75153  1  0  0  0
 76 77  2  0  0  0
 76 85  1  0  0  0
 78 79  1  0  0  0
 78154  1  0  0  0
 78155  1  0  0  0
 79 80  1  0  0  0
 79156  1  0  0  0
 79157  1  0  0  0
 80 81  1  0  0  0
 80158  1  0  0  0
 80159  1  0  0  0
 81 82  1  0  0  0
 81160  1  0  0  0
 82 83  2  0  0  0
 82 84  1  0  0  0
 83161  1  0  0  0
 84162  1  0  0  0
 84163  1  0  0  0
 85 86  1  0  0  0
 85164  1  0  0  0
 86 87  1  0  0  0
 86 89  1  0  0  0
 86165  1  0  0  0
 87 88  2  0  0  0
 87 91  1  0  0  0
 89 90  1  0  0  0
 89166  1  0  0  0
 89167  1  0  0  0
 91168  1  0  0  0
 91169  1  0  0  0
M  CHG  1   1   1
M  END
> <s_m_source_file>
../2byp_ligand.sdf

> <i_m_source_file_index>
1

> <s_epik_input>
Tz1DMVtOSF1bQ0BASF0oW0NIMl1bT0hdKUMoPU8pW05IXVtDQEBIXShbQ0gyXUMoPU8pW09IXSlDKD1PKU4oW0NIMl1bQ0gyXVtDSDJdMilbQ0BASF0yQyg9TylbTkhdW0NAQEhdKFtDSDJdW0NIMl1bQ0gyXVtOSF0vQyhbTkgyXSk9TlxbSF0pQyg9TylbTkhdW0NAQEhdKFtDSDJdU1NbQ0gyXVtDQEBIXShDKD1PKVtOSF1bQ0BIXTEzKVtOSF1DKD1PKVtDSDJdW05IMytdKUMoPU8pW05IXVtDQEBIXShbQ0gzXSlDKD1PKVtOSF1bQ0BASF0oW0NIMl1jNFtjSF1bbkhdYyhjNDUpW2NIXVtjSF1bY0hdW2NIXTUpQyg9TylbTkhdW0NAQEhdKFtDSDJdW0NIMl1bQ0gyXVtOSF0vQyg9TlxbSF0pW05IMl0pQyg9TylbTkhdW0NASF0oQyg9TylbTkgyXSlbQ0gyXVNTW0NIMl0z

> <s_epik_cmdline>
J2VwaWtfYXBwJywgJy1pbWFlJywgJ2xpZ2FuZF9wcm8ubWFlJywgJy1vbWFlJywgJ2xpZ2FuZF9wcmVwLm1hZScsICctbXMnLCAnMScsICctcGgnLCAnNycsICctcGh0JywgJzAuNScsICctbnQn

> <s_epik_pKa_notes>
Molecule size exceeds maximum supported for generating protonation states

> <s_epik_Chemistry_Notes>
This compound has an imine and may undergo hydrolysis.

$$$$
