2bys_ligand
                    3D
 Schrodinger Suite 2020-3.
 53 55  0  0  1  0            999 V2000
   -5.8150   22.5840    6.1490 O   0  0  0  0  0  0
   -5.8710   23.8000    6.0880 C   0  0  0  0  0  0
   -5.2930   24.6120    7.2290 C   0  0  0  0  0  0
   -4.7700   23.9560    8.3510 C   0  0  0  0  0  0
   -4.2310   24.6830    9.4140 C   0  0  0  0  0  0
   -4.2090   26.0760    9.3730 C   0  0  0  0  0  0
   -4.7210   26.7400    8.2640 C   0  0  0  0  0  0
   -5.2540   26.0090    7.2010 C   0  0  0  0  0  0
   -6.4790   24.4100    4.8370 C   0  0  0  0  0  0
   -7.9930   24.2070    4.6420 C   0  0  2  0  0  0
   -8.4510   22.7860    4.9150 C   0  0  0  0  0  0
   -9.9070   22.6750    4.5290 C   0  0  0  0  0  0
  -10.0290   22.7100    3.0170 C   0  0  0  0  0  0
   -9.2690   23.8540    2.3380 C   0  0  1  0  0  0
   -8.3160   24.5730    3.2340 N   0  3  1  0  0  0
   -8.3140   26.0140    3.0040 C   0  0  0  0  0  0
   -8.4900   23.3200    1.1190 C   0  0  0  0  0  0
   -8.0770   24.4360    0.1550 C   0  0  1  0  0  0
   -6.7000   24.7440    0.3740 O   0  0  0  0  0  0
   -8.2640   24.1150   -1.2910 C   0  0  0  0  0  0
   -7.8610   22.8970   -1.8380 C   0  0  0  0  0  0
   -8.0450   22.6310   -3.1970 C   0  0  0  0  0  0
   -8.6260   23.5850   -4.0310 C   0  0  0  0  0  0
   -9.0150   24.8120   -3.4920 C   0  0  0  0  0  0
   -8.8300   25.0750   -2.1340 C   0  0  0  0  0  0
   -4.7841   22.8670    8.3944 H   0  0  0  0  0  0
   -3.8257   24.1590   10.2796 H   0  0  0  0  0  0
   -3.7925   26.6420   10.2062 H   0  0  0  0  0  0
   -4.7062   27.8292    8.2247 H   0  0  0  0  0  0
   -5.6473   26.5376    6.3326 H   0  0  0  0  0  0
   -6.3195   25.4984    4.8451 H   0  0  0  0  0  0
   -5.9998   23.9758    3.9472 H   0  0  0  0  0  0
   -8.5433   24.8466    5.3477 H   0  0  0  0  0  0
   -7.8480   22.0855    4.3186 H   0  0  0  0  0  0
   -8.3257   22.5594    5.9841 H   0  0  0  0  0  0
  -10.3160   21.7274    4.9096 H   0  0  0  0  0  0
  -10.4666   23.5166    4.9632 H   0  0  0  0  0  0
   -9.6351   21.7734    2.5956 H   0  0  0  0  0  0
  -11.0869   22.8217    2.7370 H   0  0  0  0  0  0
  -10.0267   24.6016    2.0605 H   0  0  0  0  0  0
   -7.4247   24.0677    2.8337 H   0  0  0  0  0  0
   -7.5976   26.4934    3.6874 H   0  0  0  0  0  0
   -9.3213   26.4160    3.1877 H   0  0  0  0  0  0
   -8.0216   26.2188    1.9635 H   0  0  0  0  0  0
   -7.5765   22.8120    1.4615 H   0  0  0  0  0  0
   -9.1194   22.6083    0.5647 H   0  0  0  0  0  0
   -8.6895   25.3259    0.3623 H   0  0  0  0  0  0
   -6.3495   25.0101    1.3821 H   0  0  0  0  0  0
   -7.3979   22.1452   -1.1988 H   0  0  0  0  0  0
   -7.7322   21.6711   -3.6080 H   0  0  0  0  0  0
   -8.7745   23.3753   -5.0903 H   0  0  0  0  0  0
   -9.4654   25.5685   -4.1346 H   0  0  0  0  0  0
   -9.1304   26.0402   -1.7263 H   0  0  0  0  0  0
  1  2  2  0  0  0
  2  3  1  0  0  0
  2  9  1  0  0  0
  3  4  2  0  0  0
  3  8  1  0  0  0
  4  5  1  0  0  0
  4 26  1  0  0  0
  5  6  2  0  0  0
  5 27  1  0  0  0
  6  7  1  0  0  0
  6 28  1  0  0  0
  7  8  2  0  0  0
  7 29  1  0  0  0
  8 30  1  0  0  0
  9 10  1  0  0  0
  9 31  1  0  0  0
  9 32  1  0  0  0
 10 11  1  0  0  0
 10 15  1  0  0  0
 10 33  1  0  0  0
 11 12  1  0  0  0
 11 34  1  0  0  0
 11 35  1  0  0  0
 12 13  1  0  0  0
 12 36  1  0  0  0
 12 37  1  0  0  0
 13 14  1  0  0  0
 13 38  1  0  0  0
 13 39  1  0  0  0
 14 15  1  0  0  0
 14 17  1  0  0  0
 14 40  1  0  0  0
 15 16  1  0  0  0
 15 41  1  0  0  0
 16 42  1  0  0  0
 16 43  1  0  0  0
 16 44  1  0  0  0
 17 18  1  0  0  0
 17 45  1  0  0  0
 17 46  1  0  0  0
 18 19  1  0  0  0
 18 20  1  0  0  0
 18 47  1  0  0  0
 19 48  1  0  0  0
 20 21  2  0  0  0
 20 25  1  0  0  0
 21 22  1  0  0  0
 21 49  1  0  0  0
 22 23  2  0  0  0
 22 50  1  0  0  0
 23 24  1  0  0  0
 23 51  1  0  0  0
 24 25  2  0  0  0
 24 52  1  0  0  0
 25 53  1  0  0  0
M  CHG  1  15   1
M  END
> <s_m_source_file>
../2bys_ligand.sdf

> <i_m_source_file_index>
1

> <s_epik_input>
W2NIXTFbY0hdW2NIXVtjSF1bY0hdYzFDKD1PKVtDSDJdW0NAQEhdMltDSDJdW0NIMl1bQ0gyXVtDQEBIXShbTkBIK10yW0NIM10pW0NIMl1bQ0BASF0oW09IXSljM1tjSF1bY0hdW2NIXVtjSF1bY0hdMw==

> <s_epik_cmdline>
J2VwaWtfYXBwJywgJy1pbWFlJywgJ2xpZ2FuZF9wcm8ubWFlJywgJy1vbWFlJywgJ2xpZ2FuZF9wcmVwLm1hZScsICctbXMnLCAnMScsICctcGgnLCAnNycsICctcGh0JywgJzAuNScsICctbnQn

> <r_lp_tautomer_probability>
0.99990000499975

> <r_epik_Ionization_Penalty>
  0.0223

> <r_epik_Ionization_Penalty_Charging>
  0.0223

> <r_epik_Ionization_Penalty_Neutral>
  0.0000

> <r_epik_State_Penalty>
  0.0180

> <r_epik_Charging_Adjusted_Penalty>
0.0402682532338628

> <i_epik_Tot_Q>
1

> <i_epik_Tot_abs_Q>
1

$$$$
