2bz5_ligand
                    3D
 Schrodinger Suite 2020-3.
 44 47  0  0  1  0            999 V2000
   30.7790    5.1300   47.6290 Cl  0  0  0  0  0  0
   32.0620    6.0630   48.3490 C   0  0  0  0  0  0
   32.8640    6.7680   47.4550 C   0  0  0  0  0  0
   33.9220    7.5180   47.9410 C   0  0  0  0  0  0
   34.2150    7.5640   49.3040 C   0  0  0  0  0  0
   35.5620    8.5580   49.8150 Cl  0  0  0  0  0  0
   33.4020    6.8580   50.1980 C   0  0  0  0  0  0
   32.3100    6.1140   49.7320 C   0  0  0  0  0  0
   31.3230    5.1880   50.9100 S   0  0  0  0  0  0
   31.9200    5.4920   52.2090 O   0  0  0  0  0  0
   31.4600    3.7320   50.5550 O   0  0  0  0  0  0
   29.7300    5.6210   50.7910 N   0  0  0  0  0  0
   29.2480    6.7910   51.2040 C   0  0  0  0  0  0
   29.2220    7.8510   50.2890 C   0  0  0  0  0  0
   28.7640    6.9670   52.5150 C   0  0  0  0  0  0
   28.2670    8.2300   52.9010 C   0  0  0  0  0  0
   28.2580    9.3110   51.9760 C   0  0  0  0  0  0
   27.7650   10.5350   52.3710 O   0  5  0  0  0  0
   28.7230    9.1260   50.6550 C   0  0  0  0  0  0
   28.7470   10.1810   49.6850 C   0  0  0  0  0  0
   29.9620   10.7290   49.1790 C   0  0  0  0  0  0
   31.2260   10.2620   49.5750 C   0  0  0  0  0  0
   32.4330   10.8150   49.1200 C   0  0  0  0  0  0
   32.3990   11.8410   48.1580 C   0  0  0  0  0  0
   31.1460   12.3460   47.7200 C   0  0  0  0  0  0
   29.9440   11.7860   48.2280 C   0  0  0  0  0  0
   28.7110   12.2600   47.7590 C   0  0  0  0  0  0
   27.5090   11.7170   48.2540 C   0  0  0  0  0  0
   27.5330   10.7090   49.2060 C   0  0  0  0  0  0
   26.3400   10.2560   49.6440 O   0  0  0  0  0  0
   32.6613    6.7299   46.3847 H   0  0  0  0  0  0
   34.5390    8.0845   47.2435 H   0  0  0  0  0  0
   33.6201    6.8872   51.2656 H   0  0  0  0  0  0
   29.0021    4.9241   50.3500 H   0  0  0  0  0  0
   29.5925    7.6924   49.2763 H   0  0  0  0  0  0
   28.7732    6.1379   53.2226 H   0  0  0  0  0  0
   27.8883    8.3781   53.9123 H   0  0  0  0  0  0
   31.2720    9.4258   50.2727 H   0  0  0  0  0  0
   33.3856   10.4538   49.5074 H   0  0  0  0  0  0
   33.3265   12.2449   47.7523 H   0  0  0  0  0  0
   31.1071   13.1604   46.9966 H   0  0  0  0  0  0
   28.6822   13.0508   47.0094 H   0  0  0  0  0  0
   26.5538   12.0917   47.8862 H   0  0  0  0  0  0
   26.2985    9.4571   50.3990 H   0  0  0  0  0  0
  1  2  1  0  0  0
  2  3  2  0  0  0
  2  8  1  0  0  0
  3  4  1  0  0  0
  3 31  1  0  0  0
  4  5  2  0  0  0
  4 32  1  0  0  0
  5  6  1  0  0  0
  5  7  1  0  0  0
  7  8  2  0  0  0
  7 33  1  0  0  0
  8  9  1  0  0  0
  9 10  2  0  0  0
  9 11  2  0  0  0
  9 12  1  0  0  0
 12 13  1  0  0  0
 12 34  1  0  0  0
 13 14  2  0  0  0
 13 15  1  0  0  0
 14 19  1  0  0  0
 14 35  1  0  0  0
 15 16  2  0  0  0
 15 36  1  0  0  0
 16 17  1  0  0  0
 16 37  1  0  0  0
 17 18  1  0  0  0
 17 19  2  0  0  0
 19 20  1  0  0  0
 20 21  2  0  0  0
 20 29  1  0  0  0
 21 22  1  0  0  0
 21 26  1  0  0  0
 22 23  2  0  0  0
 22 38  1  0  0  0
 23 24  1  0  0  0
 23 39  1  0  0  0
 24 25  2  0  0  0
 24 40  1  0  0  0
 25 26  1  0  0  0
 25 41  1  0  0  0
 26 27  2  0  0  0
 27 28  1  0  0  0
 27 42  1  0  0  0
 28 29  2  0  0  0
 28 43  1  0  0  0
 29 30  1  0  0  0
 30 44  1  0  0  0
M  CHG  1  18  -1
M  END
> <s_m_source_file>
../2bz5_ligand.sdf

> <i_m_source_file_index>
1

> <s_epik_input>
Q2xjMVtjSF1bY0hdYyhDbClbY0hdYzFTKD1PKSg9TylbTkhdYzJbY0hdYyhjKFtPSF0pW2NIXVtjSF0yKS1jM2MoW09IXSlbY0hdW2NIXWMoYzM0KVtjSF1bY0hdW2NIXVtjSF00

> <s_epik_cmdline>
J2VwaWtfYXBwJywgJy1pbWFlJywgJ2xpZ2FuZF9wcm8ubWFlJywgJy1vbWFlJywgJ2xpZ2FuZF9wcmVwLm1hZScsICctbXMnLCAnMScsICctcGgnLCAnNycsICctcGh0JywgJzAuNScsICctbnQn

> <r_lp_tautomer_probability>
1

> <r_epik_Ionization_Penalty>
  0.2063

> <r_epik_Ionization_Penalty_Charging>
  0.2033

> <r_epik_Ionization_Penalty_Neutral>
  0.0030

> <r_epik_State_Penalty>
 -0.0000

> <r_epik_Charging_Adjusted_Penalty>
0.203307118484495

> <i_epik_Tot_Q>
-1

> <i_epik_Tot_abs_Q>
1

$$$$
