2bz6_ligand
                    3D
 Schrodinger Suite 2020-3.
 54 56  0  0  1  0            999 V2000
    9.1080   41.7380   30.0750 F   0  0  0  0  0  0
    9.9720   42.3270   30.9280 C   0  0  0  0  0  0
   10.3470   43.6140   30.6520 C   0  0  0  0  0  0
    9.7850   44.1710   29.5170 O   0  0  0  0  0  0
   10.2010   45.4940   29.1980 C   0  0  2  0  0  0
    9.3320   45.9850   28.0480 C   0  0  0  0  0  0
   10.1360   45.5400   26.8400 C   0  0  0  0  0  0
   11.5180   45.5570   27.2220 O   0  0  0  0  0  0
   11.6330   45.4950   28.6530 C   0  0  0  0  0  0
   11.2410   44.2760   31.4940 C   0  0  0  0  0  0
   11.7300   43.6010   32.6210 C   0  0  0  0  0  0
   12.6290   44.3560   33.3710 O   0  0  0  0  0  0
   13.1870   43.6600   34.4920 C   0  0  0  0  0  0
   14.1920   44.5270   35.2280 C   0  0  0  0  0  0
   11.3480   42.2770   32.8800 C   0  0  0  0  0  0
   10.4570   41.6220   32.0350 C   0  0  0  0  0  0
   10.0230   40.2110   32.3020 C   0  0  2  0  0  0
    9.2560   40.1290   33.5870 C   0  0  0  0  0  0
    8.1130   40.6840   33.5850 O   0  0  0  0  0  0
    9.7280   39.5130   34.6070 O   0  5  0  0  0  0
   11.2180   39.3530   32.3730 N   0  0  0  0  0  0
   11.9230   38.9250   31.2570 C   0  0  0  0  0  0
   11.4990   39.1680   29.9520 C   0  0  0  0  0  0
   12.2610   38.6980   28.9200 C   0  0  0  0  0  0
   13.4510   37.9890   29.1110 C   0  0  0  0  0  0
   14.2220   37.5220   27.9870 C   0  0  0  0  0  0
   13.7920   37.6600   26.7030 N   0  0  0  0  0  0
   15.3790   36.8700   28.1410 N   0  3  0  0  0  0
   13.8740   37.7410   30.4220 C   0  0  0  0  0  0
   13.1180   38.2170   31.4570 C   0  0  0  0  0  0
   10.1008   46.0603   30.1357 H   0  0  0  0  0  0
    8.3418   45.5096   28.1078 H   0  0  0  0  0  0
    9.2190   47.0772   28.1142 H   0  0  0  0  0  0
    9.8274   44.5254   26.5477 H   0  0  0  0  0  0
    9.9565   46.2328   26.0046 H   0  0  0  0  0  0
   12.1737   46.3693   29.0445 H   0  0  0  0  0  0
   12.1462   44.5748   28.9690 H   0  0  0  0  0  0
   11.5531   45.2981   31.2797 H   0  0  0  0  0  0
   12.3826   43.3842   35.1897 H   0  0  0  0  0  0
   13.6968   42.7502   34.1420 H   0  0  0  0  0  0
   14.6029   43.9679   36.0816 H   0  0  0  0  0  0
   13.6937   45.4377   35.5918 H   0  0  0  0  0  0
   15.0078   44.8037   34.5440 H   0  0  0  0  0  0
   11.7516   41.7573   33.7490 H   0  0  0  0  0  0
    9.3765   39.8577   31.4852 H   0  0  0  0  0  0
   11.5965   39.0168   33.3496 H   0  0  0  0  0  0
   10.5797   39.7209   29.7588 H   0  0  0  0  0  0
   11.9255   38.8845   27.8998 H   0  0  0  0  0  0
   12.8483   38.1845   26.4924 H   0  0  0  0  0  0
   14.3881   37.2470   25.8759 H   0  0  0  0  0  0
   15.7942   36.7169   29.1480 H   0  0  0  0  0  0
   14.7882   37.1794   30.6140 H   0  0  0  0  0  0
   13.4568   38.0396   32.4777 H   0  0  0  0  0  0
   15.9157   36.4866   27.2607 H   0  0  0  0  0  0
  1  2  1  0  0  0
  2  3  2  0  0  0
  2 16  1  0  0  0
  3  4  1  0  0  0
  3 10  1  0  0  0
  4  5  1  0  0  0
  5  6  1  0  0  0
  5  9  1  0  0  0
  5 31  1  0  0  0
  6  7  1  0  0  0
  6 32  1  0  0  0
  6 33  1  0  0  0
  7  8  1  0  0  0
  7 34  1  0  0  0
  7 35  1  0  0  0
  8  9  1  0  0  0
  9 36  1  0  0  0
  9 37  1  0  0  0
 10 11  2  0  0  0
 10 38  1  0  0  0
 11 12  1  0  0  0
 11 15  1  0  0  0
 12 13  1  0  0  0
 13 14  1  0  0  0
 13 39  1  0  0  0
 13 40  1  0  0  0
 14 41  1  0  0  0
 14 42  1  0  0  0
 14 43  1  0  0  0
 15 16  2  0  0  0
 15 44  1  0  0  0
 16 17  1  0  0  0
 17 18  1  0  0  0
 17 21  1  0  0  0
 17 45  1  0  0  0
 18 19  2  0  0  0
 18 20  1  0  0  0
 21 22  1  0  0  0
 21 46  1  0  0  0
 22 23  2  0  0  0
 22 30  1  0  0  0
 23 24  1  0  0  0
 23 47  1  0  0  0
 24 25  2  0  0  0
 24 48  1  0  0  0
 25 26  1  0  0  0
 25 29  1  0  0  0
 26 27  1  0  0  0
 26 28  2  0  0  0
 27 49  1  0  0  0
 27 50  1  0  0  0
 28 51  1  0  0  0
 28 54  1  0  0  0
 29 30  2  0  0  0
 29 52  1  0  0  0
 30 53  1  0  0  0
M  CHG  2  20  -1  28   1
M  END
> <s_m_source_file>
../2bz6_ligand.sdf

> <i_m_source_file_index>
1

> <s_epik_input>
W0NIMl0xT1tDSDJdW0NIMl1bQ0BIXTFPYyhjMkYpW2NIXWMoT1tDSDJdW0NIM10pW2NIXWMyW0NASF0oQyg9TylbT0hdKVtOSF1jM1tjSF1bY0hdYygvQyhbTkgyXSk9TlxbSF0pW2NIXVtjSF0z

> <s_epik_cmdline>
J2VwaWtfYXBwJywgJy1pbWFlJywgJ2xpZ2FuZF9wcm8ubWFlJywgJy1vbWFlJywgJ2xpZ2FuZF9wcmVwLm1hZScsICctbXMnLCAnMScsICctcGgnLCAnNycsICctcGh0JywgJzAuNScsICctbnQn

> <r_lp_tautomer_probability>
1

> <r_epik_Ionization_Penalty>
  0.0017

> <r_epik_Ionization_Penalty_Charging>
  0.0013

> <r_epik_Ionization_Penalty_Neutral>
  0.0004

> <r_epik_State_Penalty>
 -0.0000

> <r_epik_Charging_Adjusted_Penalty>
0.00126901800179909

> <i_epik_Tot_Q>
0

> <i_epik_Tot_abs_Q>
2

> <s_epik_Chemistry_Notes>
This compound has an imine and may undergo hydrolysis.

$$$$
