2bz8_ligand
                    3D
 Schrodinger Suite 2020-3.
198202  0  0  1  0            999 V2000
   23.3870   10.9160   44.9750 N   0  3  0  0  0  0
   22.4250   10.3620   43.9900 C   0  0  2  0  0  0
   21.0220   10.8330   44.3330 C   0  0  0  0  0  0
   20.3600   10.2490   45.1930 O   0  0  0  0  0  0
   22.5200    8.8490   44.0890 C   0  0  0  0  0  0
   22.9310    8.6820   45.5550 C   0  0  0  0  0  0
   23.9340    9.8270   45.8050 C   0  0  0  0  0  0
   20.5790   11.9010   43.6770 N   0  0  0  0  0  0
   19.2470   12.4360   43.9210 C   0  0  2  0  0  0
   18.2730   11.6060   43.1010 C   0  0  0  0  0  0
   18.6750   10.9950   42.1160 O   0  0  0  0  0  0
   19.1910   13.8930   43.4950 C   0  0  0  0  0  0
   17.0060   11.5610   43.5000 N   0  0  0  0  0  0
   16.0380   10.7880   42.7320 C   0  0  2  0  0  0
   15.7540   11.5160   41.4210 C   0  0  0  0  0  0
   16.1130   12.6810   41.2630 O   0  0  0  0  0  0
   14.7500   10.5910   43.5290 C   0  0  0  0  0  0
   13.8540   11.7950   43.6580 C   0  0  0  0  0  0
   12.9690   11.6290   44.8920 C   0  0  0  0  0  0
   13.7940   11.6130   46.0970 N   0  0  0  0  0  0
   13.3520   11.3650   47.3240 C   0  0  0  0  0  0
   12.0730   11.1010   47.5330 N   0  0  0  0  0  0
   14.1920   11.3910   48.3460 N   0  0  0  0  0  0
   15.1210   10.8380   40.4560 N   0  0  0  0  0  0
   14.8380   11.5100   39.1860 C   0  0  2  0  0  0
   13.9820   12.7550   39.3910 C   0  0  0  0  0  0
   13.0440   12.7470   40.1930 O   0  0  0  0  0  0
   14.1000   10.4390   38.3800 C   0  0  0  0  0  0
   14.6250    9.1580   38.9380 C   0  0  0  0  0  0
   14.6720    9.4360   40.4240 C   0  0  0  0  0  0
   14.3040   13.8480   38.6760 N   0  0  0  0  0  0
   13.5300   15.0840   38.8040 C   0  0  2  0  0  0
   12.1500   14.8980   38.1810 C   0  0  0  0  0  0
   11.9250   13.9700   37.4130 O   0  0  0  0  0  0
   14.3870   16.1060   38.0630 C   0  0  0  0  0  0
   15.0560   15.2830   37.0150 C   0  0  0  0  0  0
   15.4520   14.0430   37.7750 C   0  0  0  0  0  0
   11.2200   15.7720   38.5310 N   0  0  0  0  0  0
    9.8790   15.6770   37.9990 C   0  0  2  0  0  0
    9.6100   16.8190   37.0480 C   0  0  0  0  0  0
   10.0250   17.9480   37.2750 O   0  0  0  0  0  0
    8.8720   15.6850   39.1440 C   0  0  0  0  0  0
    8.7580   14.3460   39.8320 C   0  0  0  0  0  0
    7.4740   13.6270   39.4070 C   0  0  0  0  0  0
    7.5610   12.1230   39.6560 C   0  0  0  0  0  0
    8.3250   11.7990   40.9020 N   0  3  0  0  0  0
    8.9360   16.5330   35.9380 N   0  0  0  0  0  0
    8.6690   17.6370   35.0240 C   0  0  2  0  0  0
    7.5170   18.4520   35.6120 C   0  0  0  0  0  0
    6.7020   17.9350   36.3780 O   0  0  0  0  0  0
    8.2610   16.9270   33.7330 C   0  0  0  0  0  0
    8.7660   15.5120   33.9030 C   0  0  0  0  0  0
    8.5300   15.2510   35.3480 C   0  0  0  0  0  0
    7.4520   19.7280   35.2730 N   0  0  0  0  0  0
    6.3670   20.5550   35.7710 C   0  0  2  0  0  0
    5.1410   20.1220   34.9600 C   0  0  0  0  0  0
    5.2500   19.8170   33.7630 O   0  0  0  0  0  0
    6.6780   22.0330   35.5270 C   0  0  0  0  0  0
    5.9270   23.0030   36.4260 C   0  0  0  0  0  0
    6.2470   24.4590   36.0680 C   0  0  0  0  0  0
    7.6830   24.6890   35.8950 N   0  0  0  0  0  0
    8.2370   25.8880   35.7280 C   0  0  0  0  0  0
    9.5540   26.0020   35.5730 N   0  0  0  0  0  0
    7.4750   26.9750   35.7320 N   0  0  0  0  0  0
    3.9620   20.0710   35.5980 N   0  0  0  0  0  0
    2.7380   19.6660   34.9030 C   0  0  2  0  0  0
    2.4720   20.4390   33.6080 C   0  0  0  0  0  0
    2.8490   21.6060   33.4860 O   0  0  0  0  0  0
    1.6540   19.9250   35.9480 C   0  0  0  0  0  0
    2.3650   19.6530   37.2330 C   0  0  0  0  0  0
    3.6860   20.3570   37.0160 C   0  0  0  0  0  0
    1.8250   19.7750   32.6490 N   0  0  0  0  0  0
    1.4510   20.3930   31.3740 C   0  0  2  0  0  0
    0.1460   21.1670   31.6360 C   0  0  0  0  0  0
   -0.9320   20.5700   31.7280 O   0  0  0  0  0  0
    1.2070   19.3160   30.3110 C   0  0  0  0  0  0
    2.4420   18.5200   29.8750 C   0  0  0  0  0  0
    3.3690   19.3280   28.9670 C   0  0  0  0  0  0
    2.6590   20.0090   27.8760 N   0  0  0  0  0  0
    2.3900   19.4950   26.6730 C   0  0  0  0  0  0
    1.7320   20.2210   25.7790 N   0  0  0  0  0  0
    2.7910   18.2740   26.3440 N   0  0  0  0  0  0
    0.2440   22.4880   31.7670 N   0  0  0  0  0  0
   -0.9300   23.3220   32.0450 C   0  0  2  0  0  0
   -1.0840   24.4380   31.0220 C   0  0  0  0  0  0
   -2.2230   24.7080   30.5880 O   0  0  0  0  0  0
   -0.8240   23.9400   33.4490 C   0  0  0  0  0  0
   -0.8480   22.9380   34.6080 C   0  0  0  0  0  0
   -2.2570   22.4500   34.9180 C   0  0  0  0  0  0
   -2.2980   21.5440   36.0680 N   0  0  0  0  0  0
   -1.9730   20.2500   36.0360 C   0  0  0  0  0  0
   -2.0450   19.5170   37.1410 N   0  0  0  0  0  0
   -1.5860   19.6810   34.9050 N   0  0  0  0  0  0
   -0.0510   25.0480   30.6870 O   0  0  0  0  0  0
   24.2095   11.4162   44.4428 H   0  0  0  0  0  0
   22.8727   11.6428   45.6210 H   0  0  0  0  0  0
   22.6710   10.7089   42.9755 H   0  0  0  0  0  0
   21.5423    8.4040   43.8522 H   0  0  0  0  0  0
   23.2726    8.4814   43.3759 H   0  0  0  0  0  0
   22.0418    8.7669   46.1970 H   0  0  0  0  0  0
   23.3922    7.6934   45.6962 H   0  0  0  0  0  0
   24.9523    9.5844   45.4669 H   0  0  0  0  0  0
   23.9634   10.1471   46.8570 H   0  0  0  0  0  0
   21.2381   12.3816   42.9390 H   0  0  0  0  0  0
   19.0289   12.3696   44.9971 H   0  0  0  0  0  0
   19.9009   14.4787   44.0975 H   0  0  0  0  0  0
   18.1731   14.2808   43.6479 H   0  0  0  0  0  0
   19.4585   13.9745   42.4311 H   0  0  0  0  0  0
   16.6860   12.1018   44.4028 H   0  0  0  0  0  0
   16.4933    9.8051   42.5405 H   0  0  0  0  0  0
   14.1398    9.8097   43.0524 H   0  0  0  0  0  0
   14.9976   10.2869   44.5567 H   0  0  0  0  0  0
   14.4696   12.7006   43.7630 H   0  0  0  0  0  0
   13.2246   11.8816   42.7600 H   0  0  0  0  0  0
   12.2591   12.4673   44.9495 H   0  0  0  0  0  0
   12.4134   10.6823   44.8201 H   0  0  0  0  0  0
   14.8726   11.8174   46.0278 H   0  0  0  0  0  0
   11.3707   11.0782   46.6867 H   0  0  0  0  0  0
   15.2567   11.6101   48.1774 H   0  0  0  0  0  0
   13.8256   11.1935   49.3642 H   0  0  0  0  0  0
   15.7661   11.8626   38.7124 H   0  0  0  0  0  0
   13.0160   10.5481   38.5315 H   0  0  0  0  0  0
   14.3346   10.5573   37.3118 H   0  0  0  0  0  0
   13.9390    8.3375   38.6807 H   0  0  0  0  0  0
   15.6183    8.9525   38.5125 H   0  0  0  0  0  0
   15.3983    8.8061   40.9586 H   0  0  0  0  0  0
   13.6885    9.3547   40.9100 H   0  0  0  0  0  0
   13.3536   15.3652   39.8527 H   0  0  0  0  0  0
   13.7402   16.8879   37.6385 H   0  0  0  0  0  0
   15.1019   16.5620   38.7637 H   0  0  0  0  0  0
   14.3446   15.0758   36.2020 H   0  0  0  0  0  0
   15.9209   15.8319   36.6144 H   0  0  0  0  0  0
   16.3667   14.1791   38.3707 H   0  0  0  0  0  0
   15.5640   13.1608   37.1276 H   0  0  0  0  0  0
   11.4767   16.5773   39.2349 H   0  0  0  0  0  0
    9.8294   14.7277   37.4454 H   0  0  0  0  0  0
    9.1796   16.4249   39.8976 H   0  0  0  0  0  0
    7.8773   15.9490   38.7556 H   0  0  0  0  0  0
    9.6218   13.7205   39.5624 H   0  0  0  0  0  0
    8.7386   14.4942   40.9218 H   0  0  0  0  0  0
    6.6240   14.0246   39.9809 H   0  0  0  0  0  0
    7.3002   13.7909   38.3333 H   0  0  0  0  0  0
    6.5471   11.7093   39.7598 H   0  0  0  0  0  0
    8.0691   11.6398   38.8085 H   0  0  0  0  0  0
    8.3599   10.7079   41.0374 H   0  0  0  0  0  0
    7.8272   12.2602   41.7677 H   0  0  0  0  0  0
    9.3493   12.1908   40.8163 H   0  0  0  0  0  0
    9.5323   18.3040   34.8831 H   0  0  0  0  0  0
    7.1668   16.9618   33.6255 H   0  0  0  0  0  0
    8.7300   17.4295   32.8742 H   0  0  0  0  0  0
    8.1929   14.8372   33.2501 H   0  0  0  0  0  0
    9.8311   15.4677   33.6316 H   0  0  0  0  0  0
    9.1575   14.4447   35.7556 H   0  0  0  0  0  0
    7.4755   15.0532   35.5908 H   0  0  0  0  0  0
    8.2181   20.1636   34.6147 H   0  0  0  0  0  0
    6.2485   20.4030   36.8540 H   0  0  0  0  0  0
    7.7502   22.2143   35.6929 H   0  0  0  0  0  0
    6.4176   22.2964   34.4912 H   0  0  0  0  0  0
    4.8443   22.8453   36.3121 H   0  0  0  0  0  0
    6.2145   22.8297   37.4735 H   0  0  0  0  0  0
    5.7448   24.7238   35.1258 H   0  0  0  0  0  0
    5.8915   25.1208   36.8715 H   0  0  0  0  0  0
    8.3805   23.8384   35.8979 H   0  0  0  0  0  0
   10.1873   25.1026   35.5694 H   0  0  0  0  0  0
   10.0092   26.9956   35.4485 H   0  0  0  0  0  0
    6.3863   26.8831   35.8600 H   0  0  0  0  0  0
    2.8298   18.6189   34.5787 H   0  0  0  0  0  0
    1.3069   20.9656   35.8661 H   0  0  0  0  0  0
    0.8089   19.2420   35.7767 H   0  0  0  0  0  0
    1.7853   20.0721   38.0686 H   0  0  0  0  0  0
    2.4726   18.5669   37.3697 H   0  0  0  0  0  0
    4.4971   19.9489   37.6370 H   0  0  0  0  0  0
    3.6222   21.4450   37.1650 H   0  0  0  0  0  0
    1.5724   18.7225   32.8451 H   0  0  0  0  0  0
    2.2762   21.0398   31.0411 H   0  0  0  0  0  0
    0.4853   18.5796   30.6941 H   0  0  0  0  0  0
    0.8049   19.7840   29.4004 H   0  0  0  0  0  0
    3.0165   18.2188   30.7634 H   0  0  0  0  0  0
    2.1242   17.6234   29.3226 H   0  0  0  0  0  0
    3.8839   20.0979   29.5605 H   0  0  0  0  0  0
    4.1128   18.6573   28.5122 H   0  0  0  0  0  0
    2.2958   21.0381   28.0141 H   0  0  0  0  0  0
    1.3928   21.2352   26.0363 H   0  0  0  0  0  0
    3.3378   17.6593   27.0741 H   0  0  0  0  0  0
    2.5767   17.8763   25.3411 H   0  0  0  0  0  0
    1.2358   22.9520   31.6617 H   0  0  0  0  0  0
   -1.7871   22.6370   31.9666 H   0  0  0  0  0  0
   -2.3535   25.5115   29.8481 H   0  0  0  0  0  0
    0.1220   24.4947   33.5350 H   0  0  0  0  0  0
   -1.6677   24.6267   33.6120 H   0  0  0  0  0  0
   -0.2329   22.0635   34.3494 H   0  0  0  0  0  0
   -0.4449   23.4150   35.5135 H   0  0  0  0  0  0
   -2.9022   23.3119   35.1435 H   0  0  0  0  0  0
   -2.6578   21.9098   34.0476 H   0  0  0  0  0  0
   -2.6154   21.9187   37.0523 H   0  0  0  0  0  0
   -2.3652   19.9781   38.0870 H   0  0  0  0  0  0
   -1.7845   18.4487   37.1103 H   0  0  0  0  0  0
   -1.5223   20.2774   33.9829 H   0  0  0  0  0  0
  1  2  1  0  0  0
  1  7  1  0  0  0
  1 95  1  0  0  0
  1 96  1  0  0  0
  2  3  1  0  0  0
  2  5  1  0  0  0
  2 97  1  0  0  0
  3  4  2  0  0  0
  3  8  1  0  0  0
  5  6  1  0  0  0
  5 98  1  0  0  0
  5 99  1  0  0  0
  6  7  1  0  0  0
  6100  1  0  0  0
  6101  1  0  0  0
  7102  1  0  0  0
  7103  1  0  0  0
  8  9  1  0  0  0
  8104  1  0  0  0
  9 10  1  0  0  0
  9 12  1  0  0  0
  9105  1  0  0  0
 10 11  2  0  0  0
 10 13  1  0  0  0
 12106  1  0  0  0
 12107  1  0  0  0
 12108  1  0  0  0
 13 14  1  0  0  0
 13109  1  0  0  0
 14 15  1  0  0  0
 14 17  1  0  0  0
 14110  1  0  0  0
 15 16  2  0  0  0
 15 24  1  0  0  0
 17 18  1  0  0  0
 17111  1  0  0  0
 17112  1  0  0  0
 18 19  1  0  0  0
 18113  1  0  0  0
 18114  1  0  0  0
 19 20  1  0  0  0
 19115  1  0  0  0
 19116  1  0  0  0
 20 21  1  0  0  0
 20117  1  0  0  0
 21 22  2  0  0  0
 21 23  1  0  0  0
 22118  1  0  0  0
 23119  1  0  0  0
 23120  1  0  0  0
 24 25  1  0  0  0
 24 30  1  0  0  0
 25 26  1  0  0  0
 25 28  1  0  0  0
 25121  1  0  0  0
 26 27  2  0  0  0
 26 31  1  0  0  0
 28 29  1  0  0  0
 28122  1  0  0  0
 28123  1  0  0  0
 29 30  1  0  0  0
 29124  1  0  0  0
 29125  1  0  0  0
 30126  1  0  0  0
 30127  1  0  0  0
 31 32  1  0  0  0
 31 37  1  0  0  0
 32 33  1  0  0  0
 32 35  1  0  0  0
 32128  1  0  0  0
 33 34  2  0  0  0
 33 38  1  0  0  0
 35 36  1  0  0  0
 35129  1  0  0  0
 35130  1  0  0  0
 36 37  1  0  0  0
 36131  1  0  0  0
 36132  1  0  0  0
 37133  1  0  0  0
 37134  1  0  0  0
 38 39  1  0  0  0
 38135  1  0  0  0
 39 40  1  0  0  0
 39 42  1  0  0  0
 39136  1  0  0  0
 40 41  2  0  0  0
 40 47  1  0  0  0
 42 43  1  0  0  0
 42137  1  0  0  0
 42138  1  0  0  0
 43 44  1  0  0  0
 43139  1  0  0  0
 43140  1  0  0  0
 44 45  1  0  0  0
 44141  1  0  0  0
 44142  1  0  0  0
 45 46  1  0  0  0
 45143  1  0  0  0
 45144  1  0  0  0
 46145  1  0  0  0
 46146  1  0  0  0
 46147  1  0  0  0
 47 48  1  0  0  0
 47 53  1  0  0  0
 48 49  1  0  0  0
 48 51  1  0  0  0
 48148  1  0  0  0
 49 50  2  0  0  0
 49 54  1  0  0  0
 51 52  1  0  0  0
 51149  1  0  0  0
 51150  1  0  0  0
 52 53  1  0  0  0
 52151  1  0  0  0
 52152  1  0  0  0
 53153  1  0  0  0
 53154  1  0  0  0
 54 55  1  0  0  0
 54155  1  0  0  0
 55 56  1  0  0  0
 55 58  1  0  0  0
 55156  1  0  0  0
 56 57  2  0  0  0
 56 65  1  0  0  0
 58 59  1  0  0  0
 58157  1  0  0  0
 58158  1  0  0  0
 59 60  1  0  0  0
 59159  1  0  0  0
 59160  1  0  0  0
 60 61  1  0  0  0
 60161  1  0  0  0
 60162  1  0  0  0
 61 62  1  0  0  0
 61163  1  0  0  0
 62 63  1  0  0  0
 62 64  2  0  0  0
 63164  1  0  0  0
 63165  1  0  0  0
 64166  1  0  0  0
 65 66  1  0  0  0
 65 71  1  0  0  0
 66 67  1  0  0  0
 66 69  1  0  0  0
 66167  1  0  0  0
 67 68  2  0  0  0
 67 72  1  0  0  0
 69 70  1  0  0  0
 69168  1  0  0  0
 69169  1  0  0  0
 70 71  1  0  0  0
 70170  1  0  0  0
 70171  1  0  0  0
 71172  1  0  0  0
 71173  1  0  0  0
 72 73  1  0  0  0
 72174  1  0  0  0
 73 74  1  0  0  0
 73 76  1  0  0  0
 73175  1  0  0  0
 74 75  2  0  0  0
 74 83  1  0  0  0
 76 77  1  0  0  0
 76176  1  0  0  0
 76177  1  0  0  0
 77 78  1  0  0  0
 77178  1  0  0  0
 77179  1  0  0  0
 78 79  1  0  0  0
 78180  1  0  0  0
 78181  1  0  0  0
 79 80  1  0  0  0
 79182  1  0  0  0
 80 81  2  0  0  0
 80 82  1  0  0  0
 81183  1  0  0  0
 82184  1  0  0  0
 82185  1  0  0  0
 83 84  1  0  0  0
 83186  1  0  0  0
 84 85  1  0  0  0
 84 87  1  0  0  0
 84187  1  0  0  0
 85 86  1  0  0  0
 85 94  2  0  0  0
 86188  1  0  0  0
 87 88  1  0  0  0
 87189  1  0  0  0
 87190  1  0  0  0
 88 89  1  0  0  0
 88191  1  0  0  0
 88192  1  0  0  0
 89 90  1  0  0  0
 89193  1  0  0  0
 89194  1  0  0  0
 90 91  1  0  0  0
 90195  1  0  0  0
 91 92  1  0  0  0
 91 93  2  0  0  0
 92196  1  0  0  0
 92197  1  0  0  0
 93198  1  0  0  0
M  CHG  2   1   1  46   1
M  END
> <s_m_source_file>
../2bz8_ligand.sdf

> <i_m_source_file_index>
1

> <s_epik_input>
W0NIMl0xW0NIMl1bQ0gyXVtOSDIrXVtDQEBIXTFDKD1PKVtOSF1bQ0BASF0oW0NIM10pQyg9TylbTkhdW0NAQEhdKFtDSDJdW0NIMl1bQ0gyXVtOSF0vQyg9TlxbSF0pW05IMl0pQyg9TylOMltDQEBIXShbQ0gyXVtDSDJdW0NIMl0yKUMoPU8pTjNbQ0BASF0oW0NIMl1bQ0gyXVtDSDJdMylDKD1PKVtOSF1bQ0BASF0oW0NIMl1bQ0gyXVtDSDJdW0NIMl1bTkgzK10pQyg9TylONFtDQEBIXShbQ0gyXVtDSDJdW0NIMl00KUMoPU8pW05IXVtDQEBIXShbQ0gyXVtDSDJdW0NIMl1bTkhdL0MoW05IMl0pPU5cW0hdKUMoPU8pTjVbQ0BASF0oW0NIMl1bQ0gyXVtDSDJdNSlDKD1PKVtOSF1bQ0BASF0oW0NIMl1bQ0gyXVtDSDJdW05IXS9DKD1OXFtIXSlbTkgyXSlDKD1PKVtOSF1bQ0BIXShDKD1PKVtPSF0pW0NIMl1bQ0gyXVtDSDJdW05IXS9DKFtOSDJdKT1OXFtIXQ==

> <s_epik_cmdline>
J2VwaWtfYXBwJywgJy1pbWFlJywgJ2xpZ2FuZF9wcm8ubWFlJywgJy1vbWFlJywgJ2xpZ2FuZF9wcmVwLm1hZScsICctbXMnLCAnMScsICctcGgnLCAnNycsICctcGh0JywgJzAuNScsICctbnQn

> <s_epik_pKa_notes>
Molecule size exceeds maximum supported for generating protonation states

> <s_epik_Chemistry_Notes>
This compound has an imine and may undergo hydrolysis.

$$$$
