2bza_ligand
                    3D
 Schrodinger Suite 2020-3.
 18 18  0  0  1  0            999 V2000
  -11.3430   28.6040   41.9220 N   0  3  0  0  0  0
  -12.4460   27.8940   42.1280 C   0  0  0  0  0  0
  -12.8990   27.9750   43.4640 C   0  0  0  0  0  0
  -14.1950   28.4740   43.7970 C   0  0  0  0  0  0
  -14.6620   28.5600   45.1270 C   0  0  0  0  0  0
  -13.8430   28.1460   46.1740 C   0  0  0  0  0  0
  -12.5590   27.6490   45.8890 C   0  0  0  0  0  0
  -12.0900   27.5620   44.5580 C   0  0  0  0  0  0
  -11.0351   28.5063   40.8705 H   0  0  0  0  0  0
  -10.5401   28.2319   42.5753 H   0  0  0  0  0  0
  -11.5402   29.6620   42.1495 H   0  0  0  0  0  0
  -13.2489   28.2661   41.4747 H   0  0  0  0  0  0
  -12.2489   26.8360   41.9005 H   0  0  0  0  0  0
  -14.8512   28.8022   42.9909 H   0  0  0  0  0  0
  -15.6593   28.9488   45.3329 H   0  0  0  0  0  0
  -14.1937   28.2066   47.2043 H   0  0  0  0  0  0
  -11.9151   27.3257   46.7069 H   0  0  0  0  0  0
  -11.0905   27.1714   44.3671 H   0  0  0  0  0  0
  1  2  1  0  0  0
  1  9  1  0  0  0
  1 10  1  0  0  0
  1 11  1  0  0  0
  2  3  1  0  0  0
  2 12  1  0  0  0
  2 13  1  0  0  0
  3  8  2  0  0  0
  3  4  1  0  0  0
  4  5  2  0  0  0
  4 14  1  0  0  0
  5  6  1  0  0  0
  5 15  1  0  0  0
  6  7  2  0  0  0
  6 16  1  0  0  0
  7  8  1  0  0  0
  7 17  1  0  0  0
  8 18  1  0  0  0
M  CHG  1   1   1
M  END
> <s_m_source_file>
../2bza_ligand.sdf

> <i_m_source_file_index>
1

> <s_epik_input>
W05IMytdW0NIMl1jMVtjSF1bY0hdW2NIXVtjSF1bY0hdMQ==

> <s_epik_cmdline>
J2VwaWtfYXBwJywgJy1pbWFlJywgJ2xpZ2FuZF9wcm8ubWFlJywgJy1vbWFlJywgJ2xpZ2FuZF9wcmVwLm1hZScsICctbXMnLCAnMScsICctcGgnLCAnNycsICctcGh0JywgJzAuNScsICctbnQn

> <r_epik_Ionization_Penalty>
  0.0275

> <r_epik_Ionization_Penalty_Charging>
  0.0275

> <r_epik_Ionization_Penalty_Neutral>
  0.0000

> <r_epik_State_Penalty>
  0.0225

> <r_epik_Charging_Adjusted_Penalty>
0.0500523666469365

> <i_epik_Tot_Q>
1

> <i_epik_Tot_abs_Q>
1

$$$$
