2c0o_ligand
                    3D
 Schrodinger Suite 2020-3.
 86 92  0  0  1  0            999 V2000
    2.9600   63.1120   13.1380 C   0  0  0  0  0  0
    3.9680   63.9010   12.5360 C   0  0  0  0  0  0
    1.7120   63.5930   13.7790 C   0  0  0  0  0  0
    3.2810   61.8140   12.9140 N   0  0  0  0  0  0
    4.9090   63.0450   12.0100 C   0  0  0  0  0  0
    4.1730   65.2680   12.4440 C   0  0  0  0  0  0
    0.8310   64.3810   13.0540 C   0  0  0  0  0  0
    1.3660   63.1700   15.0500 C   0  0  0  0  0  0
    4.4370   61.8310   12.1490 N   0  0  0  0  0  0
    5.9940   63.5380   11.3690 N   0  0  0  0  0  0
    5.2890   65.7390   11.8220 N   0  0  0  0  0  0
    3.2780   66.1210   12.9560 N   0  0  0  0  0  0
   -0.3790   64.7980   13.6180 C   0  0  0  0  0  0
    0.1430   63.5880   15.6080 C   0  0  0  0  0  0
    5.0530   60.4790   11.9040 C   0  0  1  0  0  0
    6.2010   64.8700   11.3050 C   0  0  0  0  0  0
   -0.7050   64.4440   14.8840 C   0  0  0  0  0  0
   -1.2180   65.5770   12.9080 O   0  0  0  0  0  0
    5.4850   59.8440   13.2290 C   0  0  0  0  0  0
    4.0780   59.5490   11.1760 C   0  0  0  0  0  0
   -1.9570   64.8220   15.3980 N   0  0  0  0  0  0
   -0.7880   66.1220   11.6700 C   0  0  0  0  0  0
    6.1350   58.4770   12.9930 C   0  0  0  0  0  0
    4.7330   58.1750   10.9210 C   0  0  0  0  0  0
   -2.0980   65.3620   16.6060 C   0  0  0  0  0  0
    5.1790   57.5330   12.2510 C   0  0  1  0  0  0
   -3.4920   65.6730   17.0870 C   0  0  0  0  0  0
   -1.1420   65.5740   17.3410 O   0  0  0  0  0  0
    5.8480   56.2190   12.0270 N   0  3  0  0  0  0
   -3.8510   66.6410   18.0360 N   0  0  0  0  0  0
   -4.6610   65.0280   16.6740 C   0  0  0  0  0  0
    6.2480   56.0600   10.6380 C   0  0  0  0  0  0
    4.9450   55.1310   12.3780 C   0  0  0  0  0  0
   -5.2010   66.6080   18.2070 C   0  0  0  0  0  0
   -2.9350   67.5510   18.7270 C   0  0  0  0  0  0
   -5.6490   65.6570   17.3920 C   0  0  0  0  0  0
    7.0960   54.7920   10.5080 C   0  0  0  0  0  0
    5.7480   53.8470   12.4190 C   0  0  0  0  0  0
   -6.0950   67.3580   19.0180 C   0  0  0  0  0  0
   -7.0130   65.3780   17.3380 C   0  0  0  0  0  0
    6.2760   53.6670   11.0550 N   0  0  0  0  0  0
   -7.4530   67.0830   18.9860 C   0  0  0  0  0  0
   -7.9170   66.0980   18.1440 C   0  0  0  0  0  0
    6.1020   52.5220   10.3710 C   0  0  0  0  0  0
    5.3030   51.4370   11.0680 C   0  0  0  0  0  0
    6.5680   52.3620    9.2640 O   0  0  0  0  0  0
    1.0836   64.6779   12.0361 H   0  0  0  0  0  0
    2.0341   62.5192   15.6141 H   0  0  0  0  0  0
    2.3774   65.7376   13.4579 H   0  0  0  0  0  0
    3.4429   67.2055   12.8749 H   0  0  0  0  0  0
   -0.1466   63.2476   16.6022 H   0  0  0  0  0  0
    5.9333   60.6408   11.2645 H   0  0  0  0  0  0
    7.1066   65.2538   10.8351 H   0  0  0  0  0  0
    6.2122   60.4998   13.7300 H   0  0  0  0  0  0
    4.6053   59.7106   13.8757 H   0  0  0  0  0  0
    3.1774   59.4076   11.7915 H   0  0  0  0  0  0
    3.7962   59.9959   10.2112 H   0  0  0  0  0  0
   -2.8659   64.6747   14.7961 H   0  0  0  0  0  0
   -1.5974   66.7264   11.2346 H   0  0  0  0  0  0
   -0.5285   65.3053   10.9803 H   0  0  0  0  0  0
    0.0951   66.7566   11.8357 H   0  0  0  0  0  0
    7.0452   58.6033   12.3884 H   0  0  0  0  0  0
    6.3974   58.0238   13.9604 H   0  0  0  0  0  0
    4.0089   57.5094   10.4284 H   0  0  0  0  0  0
    5.6130   58.3028   10.2735 H   0  0  0  0  0  0
    4.2890   57.3277   12.8640 H   0  0  0  0  0  0
    6.7505   56.1674   12.6538 H   0  0  0  0  0  0
   -4.7644   64.2174   15.9527 H   0  0  0  0  0  0
    5.3518   55.9743   10.0059 H   0  0  0  0  0  0
    6.8363   56.9346   10.3234 H   0  0  0  0  0  0
    4.4973   55.3294   13.3630 H   0  0  0  0  0  0
    4.1495   55.0563   11.6220 H   0  0  0  0  0  0
   -1.9045   67.3553   18.3957 H   0  0  0  0  0  0
   -3.0079   67.3900   19.8127 H   0  0  0  0  0  0
   -3.2046   68.5911   18.4916 H   0  0  0  0  0  0
    7.3384   54.6200    9.4489 H   0  0  0  0  0  0
    8.0265   54.9127   11.0822 H   0  0  0  0  0  0
    6.5605   53.9460   13.1538 H   0  0  0  0  0  0
    5.0916   53.0131   12.7083 H   0  0  0  0  0  0
   -5.7133   68.1484   19.6643 H   0  0  0  0  0  0
   -7.3821   64.5999   16.6698 H   0  0  0  0  0  0
   -8.1443   67.6393   19.6191 H   0  0  0  0  0  0
   -8.9831   65.8751   18.1008 H   0  0  0  0  0  0
    4.9798   51.7970   12.0559 H   0  0  0  0  0  0
    5.9301   50.5417   11.1911 H   0  0  0  0  0  0
    4.4198   51.1856   10.4623 H   0  0  0  0  0  0
  1  2  1  0  0  0
  1  3  1  0  0  0
  1  4  2  0  0  0
  2  5  2  0  0  0
  2  6  1  0  0  0
  3  7  2  0  0  0
  3  8  1  0  0  0
  4  9  1  0  0  0
  5  9  1  0  0  0
  5 10  1  0  0  0
  6 11  2  0  0  0
  6 12  1  0  0  0
  7 13  1  0  0  0
  7 47  1  0  0  0
  8 14  2  0  0  0
  8 48  1  0  0  0
  9 15  1  0  0  0
 10 16  2  0  0  0
 11 16  1  0  0  0
 12 49  1  0  0  0
 12 50  1  0  0  0
 13 17  2  0  0  0
 13 18  1  0  0  0
 14 17  1  0  0  0
 14 51  1  0  0  0
 15 19  1  0  0  0
 15 20  1  0  0  0
 15 52  1  0  0  0
 16 53  1  0  0  0
 17 21  1  0  0  0
 18 22  1  0  0  0
 19 23  1  0  0  0
 19 54  1  0  0  0
 19 55  1  0  0  0
 20 24  1  0  0  0
 20 56  1  0  0  0
 20 57  1  0  0  0
 21 25  1  0  0  0
 21 58  1  0  0  0
 22 59  1  0  0  0
 22 60  1  0  0  0
 22 61  1  0  0  0
 23 26  1  0  0  0
 23 62  1  0  0  0
 23 63  1  0  0  0
 24 26  1  0  0  0
 24 64  1  0  0  0
 24 65  1  0  0  0
 25 27  1  0  0  0
 25 28  2  0  0  0
 26 29  1  0  0  0
 26 66  1  0  0  0
 27 30  1  0  0  0
 27 31  2  0  0  0
 29 32  1  0  0  0
 29 33  1  0  0  0
 29 67  1  0  0  0
 30 34  1  0  0  0
 30 35  1  0  0  0
 31 36  1  0  0  0
 31 68  1  0  0  0
 32 37  1  0  0  0
 32 69  1  0  0  0
 32 70  1  0  0  0
 33 38  1  0  0  0
 33 71  1  0  0  0
 33 72  1  0  0  0
 34 36  2  0  0  0
 34 39  1  0  0  0
 35 73  1  0  0  0
 35 74  1  0  0  0
 35 75  1  0  0  0
 36 40  1  0  0  0
 37 41  1  0  0  0
 37 76  1  0  0  0
 37 77  1  0  0  0
 38 41  1  0  0  0
 38 78  1  0  0  0
 38 79  1  0  0  0
 39 42  2  0  0  0
 39 80  1  0  0  0
 40 43  2  0  0  0
 40 81  1  0  0  0
 41 44  1  0  0  0
 42 43  1  0  0  0
 42 82  1  0  0  0
 43 83  1  0  0  0
 44 45  1  0  0  0
 44 46  2  0  0  0
 45 84  1  0  0  0
 45 85  1  0  0  0
 45 86  1  0  0  0
M  CHG  1  29   1
M  END
> <s_m_source_file>
../2c0o_ligand.sdf

> <i_m_source_file_index>
1

> <s_epik_input>
W0NIMl0xW0NIMl1OKEMoPU8pW0NIM10pW0NIMl1bQ0gyXVtOSCtdMVtDQEhdKFtDSDJdW0NIMl0yKVtDSDJdW0NIMl1bQ0BASF0ybihjKGMzNCluW2NIXW5jNFtOSDJdKW5jMy1jNVtjSF1jKE9bQ0gzXSljKFtjSF1bY0hdNSlbTkhdQyg9TyljKG42W0NIM10pW2NIXWMoYzY3KVtjSF1bY0hdW2NIXVtjSF03

> <s_epik_cmdline>
J2VwaWtfYXBwJywgJy1pbWFlJywgJ2xpZ2FuZF9wcm8ubWFlJywgJy1vbWFlJywgJ2xpZ2FuZF9wcmVwLm1hZScsICctbXMnLCAnMScsICctcGgnLCAnNycsICctcGh0JywgJzAuNScsICctbnQn

> <r_lp_tautomer_probability>
1

> <r_epik_Ionization_Penalty>
  0.0032

> <r_epik_Ionization_Penalty_Charging>
  0.0022

> <r_epik_Ionization_Penalty_Neutral>
  0.0010

> <r_epik_State_Penalty>
 -0.0000

> <r_epik_Charging_Adjusted_Penalty>
0.00222670070826802

> <i_epik_Tot_Q>
1

> <i_epik_Tot_abs_Q>
1

$$$$
