2c1a_ligand
                    3D
 Schrodinger Suite 2020-3.
 51 53  0  0  1  0            999 V2000
   12.9800   14.4640   -0.2000 Cl  0  0  0  0  0  0
   13.4670   13.2150    0.8600 C   0  0  0  0  0  0
   12.8060   13.0070    2.0610 C   0  0  0  0  0  0
   13.2320   11.9960    2.9010 C   0  0  0  0  0  0
   14.3410   11.2320    2.5390 C   0  0  0  0  0  0
   14.7610   10.1120    3.4440 C   0  0  0  0  0  0
   13.7410    9.1450    3.1360 O   0  0  0  0  0  0
   14.2370    7.8400    3.2240 C   0  0  0  0  0  0
   13.1630    6.7670    3.0450 C   0  0  0  0  0  0
   11.8370    7.2790    2.6380 N   0  3  0  0  0  0
   11.0990    7.8460    3.7530 C   0  0  0  0  0  0
    9.5890    7.8320    3.4420 C   0  0  0  0  0  0
    8.9710    8.6680    4.4780 N   0  0  3  0  0  0
    8.7360   10.2570    4.1790 S   0  0  0  0  0  0
    8.4880   10.6990    5.4780 O   0  0  0  0  0  0
    9.7340   10.7660    3.3120 O   0  0  0  0  0  0
    7.3110   10.2930    3.1490 C   0  0  0  0  0  0
    7.4900   10.4080    1.7910 C   0  0  0  0  0  0
    6.4020   10.4050    0.8900 C   0  0  0  0  0  0
    5.1240   10.3480    1.3600 C   0  0  0  0  0  0
    4.8920   10.2740    2.7480 C   0  0  0  0  0  0
    3.5630   10.2000    3.2420 C   0  0  0  0  0  0
    3.3130   10.1080    4.5290 N   0  0  0  0  0  0
    4.3100   10.1000    5.4270 C   0  0  0  0  0  0
    5.6460   10.1750    5.0400 C   0  0  0  0  0  0
    5.9830   10.2650    3.6710 C   0  0  0  0  0  0
   14.9900   11.4290    1.3290 C   0  0  0  0  0  0
   14.5620   12.4350    0.4890 C   0  0  0  0  0  0
   11.9593   13.6344    2.3395 H   0  0  0  0  0  0
   12.7073   11.7980    3.8357 H   0  0  0  0  0  0
   15.7783    9.7882    3.1788 H   0  0  0  0  0  0
   14.7471   10.4591    4.4877 H   0  0  0  0  0  0
   14.9942    7.6821    2.4419 H   0  0  0  0  0  0
   14.6939    7.6873    4.2129 H   0  0  0  0  0  0
   13.4807    6.0563    2.2678 H   0  0  0  0  0  0
   13.0181    6.2312    3.9947 H   0  0  0  0  0  0
   11.9646    8.0650    1.8791 H   0  0  0  0  0  0
   11.2397    6.4567    2.2173 H   0  0  0  0  0  0
   11.2890    7.2514    4.6587 H   0  0  0  0  0  0
   11.4261    8.8829    3.9198 H   0  0  0  0  0  0
    9.4179    8.2441    2.4366 H   0  0  0  0  0  0
    9.2158    6.7981    3.4829 H   0  0  0  0  0  0
    8.5249    8.2006    5.3682 H   0  0  0  0  0  0
    8.5019   10.5044    1.3975 H   0  0  0  0  0  0
    6.5850   10.4484   -0.1836 H   0  0  0  0  0  0
    4.2845   10.3596    0.6649 H   0  0  0  0  0  0
    2.7312   10.2199    2.5379 H   0  0  0  0  0  0
    4.0680   10.0330    6.4877 H   0  0  0  0  0  0
    6.4326   10.1642    5.7945 H   0  0  0  0  0  0
   15.8299   10.7949    1.0452 H   0  0  0  0  0  0
   15.0742   12.6189   -0.4554 H   0  0  0  0  0  0
  1  2  1  0  0  0
  2  3  2  0  0  0
  2 28  1  0  0  0
  3  4  1  0  0  0
  3 29  1  0  0  0
  4  5  2  0  0  0
  4 30  1  0  0  0
  5  6  1  0  0  0
  5 27  1  0  0  0
  6  7  1  0  0  0
  6 31  1  0  0  0
  6 32  1  0  0  0
  7  8  1  0  0  0
  8  9  1  0  0  0
  8 33  1  0  0  0
  8 34  1  0  0  0
  9 10  1  0  0  0
  9 35  1  0  0  0
  9 36  1  0  0  0
 10 11  1  0  0  0
 10 37  1  0  0  0
 10 38  1  0  0  0
 11 12  1  0  0  0
 11 39  1  0  0  0
 11 40  1  0  0  0
 12 13  1  0  0  0
 12 41  1  0  0  0
 12 42  1  0  0  0
 13 14  1  0  0  0
 13 43  1  0  0  0
 14 15  2  0  0  0
 14 16  2  0  0  0
 14 17  1  0  0  0
 17 18  2  0  0  0
 17 26  1  0  0  0
 18 19  1  0  0  0
 18 44  1  0  0  0
 19 20  2  0  0  0
 19 45  1  0  0  0
 20 21  1  0  0  0
 20 46  1  0  0  0
 21 22  1  0  0  0
 21 26  2  0  0  0
 22 23  2  0  0  0
 22 47  1  0  0  0
 23 24  1  0  0  0
 24 25  2  0  0  0
 24 48  1  0  0  0
 25 26  1  0  0  0
 25 49  1  0  0  0
 27 28  2  0  0  0
 27 50  1  0  0  0
 28 51  1  0  0  0
M  CHG  1  10   1
M  END
> <s_m_source_file>
../2c1a_ligand.sdf

> <i_m_source_file_index>
1

> <s_epik_input>
Q2xjMVtjSF1bY0hdYyhbY0hdW2NIXTEpW0NIMl1PW0NIMl1bQ0gyXVtOSDIrXVtDSDJdW0NIMl1bTkhdUyg9TykoPU8pYyhbY0hdW2NIXVtjSF0yKWMoYzIzKVtjSF1bY0hdbltjSF0z

> <s_epik_cmdline>
J2VwaWtfYXBwJywgJy1pbWFlJywgJ2xpZ2FuZF9wcm8ubWFlJywgJy1vbWFlJywgJ2xpZ2FuZF9wcmVwLm1hZScsICctbXMnLCAnMScsICctcGgnLCAnNycsICctcGh0JywgJzAuNScsICctbnQn

> <r_epik_Ionization_Penalty>
  0.0153

> <r_epik_Ionization_Penalty_Charging>
  0.0135

> <r_epik_Ionization_Penalty_Neutral>
  0.0019

> <r_epik_State_Penalty>
  0.0105

> <r_epik_Charging_Adjusted_Penalty>
0.0240022902465312

> <i_epik_Tot_Q>
1

> <i_epik_Tot_abs_Q>
1

$$$$
