2c1n_ligand
                    3D
 Schrodinger Suite 2020-3.
123122  0  0  1  0            999 V2000
    3.6460   -1.7980    9.0250 N   0  3  0  0  0  0
    4.1940   -0.5140    9.5400 C   0  0  2  0  0  0
    5.3830   -0.0120    8.6850 C   0  0  0  0  0  0
    5.6150   -0.5180    7.5700 O   0  0  0  0  0  0
    4.5960   -0.6570   11.0310 C   0  0  0  0  0  0
    6.1100    0.9800    9.2250 N   0  0  0  0  0  0
    7.2180    1.6670    8.5300 C   0  0  2  0  0  0
    8.4670    0.8100    8.4290 C   0  0  0  0  0  0
    8.9590    0.2390    9.4170 O   0  0  0  0  0  0
    7.5710    3.0150    9.1660 C   0  0  0  0  0  0
    7.0870    3.1730   10.5690 C   0  0  0  0  0  0
    8.1040    2.7870   11.6720 C   0  0  0  0  0  0
    9.0540    1.7400   11.3430 N   0  0  0  0  0  0
   10.1450    1.4650   12.0520 C   0  0  0  0  0  0
   10.4250    2.1600   13.1400 N   0  3  0  0  0  0
   10.9540    0.4910   11.6620 N   0  0  0  0  0  0
    8.9890    0.7570    7.2180 N   0  0  0  0  0  0
   10.1060   -0.0820    6.9350 C   0  0  2  0  0  0
   11.4060    0.6270    7.2380 C   0  0  0  0  0  0
   11.6240    1.7800    6.8720 O   0  0  0  0  0  0
   10.0230   -0.5780    5.4980 C   0  0  0  0  0  0
    8.9360   -1.6520    5.3230 C   0  0  0  0  0  0
    7.9990   -1.2740    4.1860 C   0  0  0  0  0  0
    6.6760   -2.0280    4.2670 C   0  0  0  0  0  0
    6.8810   -3.5080    4.3350 N   0  3  0  0  0  0
   12.2430   -0.0750    7.9670 N   0  0  0  0  0  0
   13.6310    0.2820    8.0540 C   0  0  1  0  0  0
   14.0650    0.4970    9.5060 C   0  0  0  0  0  0
   13.8720   -0.6570   10.2960 O   0  0  0  0  0  0
   14.4790   -0.8180    7.4250 C   0  0  0  0  0  0
   13.9870   -1.8810    7.0710 O   0  0  0  0  0  0
   14.5120   -0.4430   11.7460 P   0  0  0  0  0  0
   13.5380    0.4900   12.5770 O   0  0  0  0  0  0
   16.0020    0.1070   11.6670 O   0  5  0  0  0  0
   14.6320   -1.7800   12.6240 O   0  5  0  0  0  0
   15.7560   -0.4920    7.2770 N   0  0  0  0  0  0
   16.8620   -1.4170    7.1040 C   0  0  2  0  0  0
   16.9400   -2.4750    8.2360 C   0  0  0  0  0  0
   17.5060   -3.5430    8.0630 O   0  0  0  0  0  0
   18.1270   -0.5370    7.0470 C   0  0  2  0  0  0
   18.3530   -0.1260    5.6910 O   0  0  0  0  0  0
   19.3490   -1.1530    7.6790 C   0  0  0  0  0  0
   16.3600   -2.1820    9.3920 N   0  0  0  0  0  0
   16.5500   -3.0530   10.5610 C   0  0  0  0  0  0
   15.4520   -4.0040   11.0040 C   0  0  0  0  0  0
   15.5450   -4.5890   12.0930 O   0  0  0  0  0  0
   14.4190   -4.1690   10.1840 N   0  0  0  0  0  0
   13.3440   -5.1270   10.4850 C   0  0  0  0  0  0
   13.2620   -6.3070    9.5240 C   0  0  0  0  0  0
   13.9840   -6.3610    8.5070 O   0  0  0  0  0  0
   12.3720   -7.2520    9.8380 N   0  0  0  0  0  0
   12.1080   -8.3940    8.9600 C   0  0  2  0  0  0
   13.3920   -9.2110    8.7910 C   0  0  0  0  0  0
   13.3790  -10.3270    8.2470 O   0  0  0  0  0  0
   11.5620   -7.9160    7.5930 C   0  0  0  0  0  0
   11.0970   -9.0240    6.6420 C   0  0  0  0  0  0
   11.0270   -8.5380    5.2020 C   0  0  0  0  0  0
   11.1200   -9.6970    4.2200 C   0  0  0  0  0  0
   11.2130   -9.2230    2.8000 N   0  3  0  0  0  0
   14.4828   -8.7417    9.2121 O   0  5  0  0  0  0
    3.3662   -1.6795    7.9678 H   0  0  0  0  0  0
    2.7578   -2.0785    9.6101 H   0  0  0  0  0  0
    4.4089   -2.5852    9.1164 H   0  0  0  0  0  0
    3.3741    0.2131    9.4449 H   0  0  0  0  0  0
    3.7323   -1.0144   11.6109 H   0  0  0  0  0  0
    4.9191    0.3203   11.4190 H   0  0  0  0  0  0
    5.4217   -1.3783   11.1206 H   0  0  0  0  0  0
    5.8368    1.2740   10.2492 H   0  0  0  0  0  0
    6.8125    1.8279    7.5202 H   0  0  0  0  0  0
    8.6641    3.1362    9.1854 H   0  0  0  0  0  0
    7.1224    3.8276    8.5757 H   0  0  0  0  0  0
    6.8189    4.2247   10.7481 H   0  0  0  0  0  0
    6.2029    2.5375   10.7257 H   0  0  0  0  0  0
    8.7083    3.6669   11.9376 H   0  0  0  0  0  0
    7.5630    2.4317   12.5614 H   0  0  0  0  0  0
    8.8938    1.1113   10.4547 H   0  0  0  0  0  0
    9.7535    2.9687   13.4640 H   0  0  0  0  0  0
   10.7211   -0.0879   10.7561 H   0  0  0  0  0  0
   11.8586    0.2612   12.2441 H   0  0  0  0  0  0
    8.5484    1.3737    6.4208 H   0  0  0  0  0  0
   10.0249   -0.9349    7.6249 H   0  0  0  0  0  0
    9.7845    0.2647    4.8325 H   0  0  0  0  0  0
   10.9889   -1.0149    5.2045 H   0  0  0  0  0  0
    9.4088   -2.6181    5.0926 H   0  0  0  0  0  0
    8.3550   -1.7406    6.2528 H   0  0  0  0  0  0
    7.7850   -0.1959    4.2303 H   0  0  0  0  0  0
    8.4746   -1.5141    3.2237 H   0  0  0  0  0  0
    6.1297   -1.7141    5.1687 H   0  0  0  0  0  0
    6.0714   -1.8046    3.3756 H   0  0  0  0  0  0
    5.9045   -4.0112    4.3921 H   0  0  0  0  0  0
    7.4737   -3.7554    5.2280 H   0  0  0  0  0  0
    7.4155   -3.8458    3.4349 H   0  0  0  0  0  0
   11.8645   -0.9495    8.5165 H   0  0  0  0  0  0
   13.7115    1.2258    7.4947 H   0  0  0  0  0  0
   15.1336    0.7562    9.5347 H   0  0  0  0  0  0
   13.4772    1.3155    9.9470 H   0  0  0  0  0  0
   15.9430    0.5919    7.2938 H   0  0  0  0  0  0
   16.6851   -1.9746    6.1724 H   0  0  0  0  0  0
   17.9706    0.3906    7.6172 H   0  0  0  0  0  0
   17.5399    0.3394    5.1146 H   0  0  0  0  0  0
   19.1178   -1.4477    8.7133 H   0  0  0  0  0  0
   20.1695   -0.4203    7.6812 H   0  0  0  0  0  0
   19.6514   -2.0405    7.1037 H   0  0  0  0  0  0
   15.7338   -1.2813    9.4732 H   0  0  0  0  0  0
   17.4122   -3.7142   10.3893 H   0  0  0  0  0  0
   16.7335   -2.4353   11.4525 H   0  0  0  0  0  0
   14.3792   -3.5693    9.2627 H   0  0  0  0  0  0
   13.4958   -5.5441   11.4915 H   0  0  0  0  0  0
   12.3725   -4.6128   10.4439 H   0  0  0  0  0  0
   11.8296   -7.1531   10.7899 H   0  0  0  0  0  0
   11.3441   -9.0062    9.4617 H   0  0  0  0  0  0
   10.6927   -7.2615    7.7540 H   0  0  0  0  0  0
   12.3463   -7.3592    7.0593 H   0  0  0  0  0  0
   11.8021   -9.8670    6.6886 H   0  0  0  0  0  0
   10.0953   -9.3669    6.9404 H   0  0  0  0  0  0
   10.0727   -8.0163    5.0371 H   0  0  0  0  0  0
   11.8608   -7.8475    5.0071 H   0  0  0  0  0  0
   12.0162  -10.2949    4.4423 H   0  0  0  0  0  0
   10.2249  -10.3295    4.3134 H   0  0  0  0  0  0
   11.2781  -10.0909    2.1273 H   0  0  0  0  0  0
   12.1102   -8.5980    2.6801 H   0  0  0  0  0  0
   10.3189   -8.6325    2.5513 H   0  0  0  0  0  0
   11.3297    1.9300   13.7219 H   0  0  0  0  0  0
  1  2  1  0  0  0
  1 61  1  0  0  0
  1 62  1  0  0  0
  1 63  1  0  0  0
  2  3  1  0  0  0
  2  5  1  0  0  0
  2 64  1  0  0  0
  3  4  2  0  0  0
  3  6  1  0  0  0
  5 65  1  0  0  0
  5 66  1  0  0  0
  5 67  1  0  0  0
  6  7  1  0  0  0
  6 68  1  0  0  0
  7  8  1  0  0  0
  7 10  1  0  0  0
  7 69  1  0  0  0
  8  9  2  0  0  0
  8 17  1  0  0  0
 10 11  1  0  0  0
 10 70  1  0  0  0
 10 71  1  0  0  0
 11 12  1  0  0  0
 11 72  1  0  0  0
 11 73  1  0  0  0
 12 13  1  0  0  0
 12 74  1  0  0  0
 12 75  1  0  0  0
 13 14  1  0  0  0
 13 76  1  0  0  0
 14 15  2  0  0  0
 14 16  1  0  0  0
 15 77  1  0  0  0
 15123  1  0  0  0
 16 78  1  0  0  0
 16 79  1  0  0  0
 17 18  1  0  0  0
 17 80  1  0  0  0
 18 19  1  0  0  0
 18 21  1  0  0  0
 18 81  1  0  0  0
 19 20  2  0  0  0
 19 26  1  0  0  0
 21 22  1  0  0  0
 21 82  1  0  0  0
 21 83  1  0  0  0
 22 23  1  0  0  0
 22 84  1  0  0  0
 22 85  1  0  0  0
 23 24  1  0  0  0
 23 86  1  0  0  0
 23 87  1  0  0  0
 24 25  1  0  0  0
 24 88  1  0  0  0
 24 89  1  0  0  0
 25 90  1  0  0  0
 25 91  1  0  0  0
 25 92  1  0  0  0
 26 27  1  0  0  0
 26 93  1  0  0  0
 27 28  1  0  0  0
 27 30  1  0  0  0
 27 94  1  0  0  0
 28 29  1  0  0  0
 28 95  1  0  0  0
 28 96  1  0  0  0
 29 32  1  0  0  0
 30 31  2  0  0  0
 30 36  1  0  0  0
 32 33  2  0  0  0
 32 34  1  0  0  0
 32 35  1  0  0  0
 36 37  1  0  0  0
 36 97  1  0  0  0
 37 38  1  0  0  0
 37 40  1  0  0  0
 37 98  1  0  0  0
 38 39  2  0  0  0
 38 43  1  0  0  0
 40 41  1  0  0  0
 40 42  1  0  0  0
 40 99  1  0  0  0
 41100  1  0  0  0
 42101  1  0  0  0
 42102  1  0  0  0
 42103  1  0  0  0
 43 44  1  0  0  0
 43104  1  0  0  0
 44 45  1  0  0  0
 44105  1  0  0  0
 44106  1  0  0  0
 45 46  2  0  0  0
 45 47  1  0  0  0
 47 48  1  0  0  0
 47107  1  0  0  0
 48 49  1  0  0  0
 48108  1  0  0  0
 48109  1  0  0  0
 49 50  2  0  0  0
 49 51  1  0  0  0
 51 52  1  0  0  0
 51110  1  0  0  0
 52 53  1  0  0  0
 52 55  1  0  0  0
 52111  1  0  0  0
 53 54  2  0  0  0
 53 60  1  0  0  0
 55 56  1  0  0  0
 55112  1  0  0  0
 55113  1  0  0  0
 56 57  1  0  0  0
 56114  1  0  0  0
 56115  1  0  0  0
 57 58  1  0  0  0
 57116  1  0  0  0
 57117  1  0  0  0
 58 59  1  0  0  0
 58118  1  0  0  0
 58119  1  0  0  0
 59120  1  0  0  0
 59121  1  0  0  0
 59122  1  0  0  0
M  CHG  7   1   1  15   1  25   1  34  -1  35  -1  59   1  60  -1
M  END
> <s_m_source_file>
../2c1n_ligand.sdf

> <i_m_source_file_index>
1

> <s_epik_input>
W0hdL049QyhbTkgyXSlcW05IXVtDSDJdW0NIMl1bQ0gyXVtDQEhdKFtOSF1DKD1PKVtDQEBIXShbTkgzK10pW0NIM10pQyg9TylbTkhdW0NAQEhdKFtDSDJdW0NIMl1bQ0gyXVtDSDJdW05IMytdKUMoPU8pW05IXVtDQEBIXShbQ0gyXU9QKD1PKShbT0hdKVtPSF0pQyg9TylbTkhdW0NAQEhdKFtDQEhdKFtPSF0pW0NIM10pQyg9TylbTkhdW0NIMl1DKD1PKVtOSF1bQ0gyXUMoPU8pW05IXVtDQEhdKEMoPU8pW09IXSlbQ0gyXVtDSDJdW0NIMl1bQ0gyXVtOSDMrXQ==

> <s_epik_cmdline>
J2VwaWtfYXBwJywgJy1pbWFlJywgJ2xpZ2FuZF9wcm8ubWFlJywgJy1vbWFlJywgJ2xpZ2FuZF9wcmVwLm1hZScsICctbXMnLCAnMScsICctcGgnLCAnNycsICctcGh0JywgJzAuNScsICctbnQn

> <r_epik_Ionization_Penalty>
  0.2139

> <r_epik_Ionization_Penalty_Charging>
  0.2139

> <r_epik_Ionization_Penalty_Neutral>
  0.0000

> <r_epik_State_Penalty>
  0.1798

> <r_epik_Charging_Adjusted_Penalty>
0.393699942775294

> <i_epik_Tot_Q>
1

> <i_epik_Tot_abs_Q>
7

> <s_epik_Chemistry_Notes>
This compound has an imine and may undergo hydrolysis.

$$$$
