2c1q_ligand
                    3D
 Schrodinger Suite 2020-3.
 31 32  0  0  1  0            999 V2000
   -6.8880   12.4590    8.9790 C   0  0  0  0  0  0
   -7.9430   11.7630    8.9240 O   0  5  0  0  0  0
   -6.6640   13.2550    8.0460 O   0  0  0  0  0  0
   -5.9290   12.3860   10.1680 C   0  0  0  0  0  0
   -4.6170   13.1360    9.9140 C   0  0  0  0  0  0
   -3.6740   12.1340    9.2320 C   0  0  0  0  0  0
   -2.3490   12.7340    8.7960 C   0  0  0  0  0  0
   -1.5610   11.7360    7.9390 C   0  0  2  0  0  0
   -1.0550   10.3450    8.7830 S   0  0  0  0  0  0
    0.1290   10.0140    7.4760 C   0  0  0  0  0  0
    0.6350   11.3050    6.9030 C   0  0  2  0  0  0
    1.8540   11.5970    7.6180 N   0  0  0  0  0  0
    1.6650   12.6270    8.4250 C   0  0  0  0  0  0
    2.6810   13.1150    9.2310 O   0  0  0  0  0  0
    0.4150   13.1100    8.3640 N   0  0  0  0  0  0
   -0.3270   12.4060    7.3470 C   0  0  2  0  0  0
   -6.4071   12.8321   11.0526 H   0  0  0  0  0  0
   -5.6820   11.3344   10.3758 H   0  0  0  0  0  0
   -4.8098   14.0024    9.2642 H   0  0  0  0  0  0
   -4.2007   13.4814   10.8718 H   0  0  0  0  0  0
   -3.4461   11.3130    9.9277 H   0  0  0  0  0  0
   -4.1591   11.7280    8.3321 H   0  0  0  0  0  0
   -2.5349   13.6427    8.2047 H   0  0  0  0  0  0
   -1.7525   12.9901    9.6840 H   0  0  0  0  0  0
   -2.2650   11.5312    7.1189 H   0  0  0  0  0  0
    0.9757    9.4428    7.8844 H   0  0  0  0  0  0
   -0.3570    9.4306    6.6801 H   0  0  0  0  0  0
    0.7913   11.2410    5.8160 H   0  0  0  0  0  0
    2.7537   10.9888    7.4426 H   0  0  0  0  0  0
   -0.0698   13.9083    8.9452 H   0  0  0  0  0  0
   -0.6407   13.1181    6.5695 H   0  0  0  0  0  0
  1  2  1  0  0  0
  1  3  2  0  0  0
  1  4  1  0  0  0
  4  5  1  0  0  0
  4 17  1  0  0  0
  4 18  1  0  0  0
  5  6  1  0  0  0
  5 19  1  0  0  0
  5 20  1  0  0  0
  6  7  1  0  0  0
  6 21  1  0  0  0
  6 22  1  0  0  0
  7  8  1  0  0  0
  7 23  1  0  0  0
  7 24  1  0  0  0
  8  9  1  0  0  0
  8 16  1  0  0  0
  8 25  1  0  0  0
  9 10  1  0  0  0
 10 11  1  0  0  0
 10 26  1  0  0  0
 10 27  1  0  0  0
 11 12  1  0  0  0
 11 16  1  0  0  0
 11 28  1  0  0  0
 12 13  1  0  0  0
 12 29  1  0  0  0
 13 14  2  0  0  0
 13 15  1  0  0  0
 15 16  1  0  0  0
 15 30  1  0  0  0
 16 31  1  0  0  0
M  CHG  1   2  -1
M  END
> <s_m_source_file>
../2c1q_ligand.sdf

> <i_m_source_file_index>
1

> <s_epik_input>
W09IXUMoPU8pW0NIMl1bQ0gyXVtDSDJdW0NIMl1bQ0BIXShTW0NIMl0xKVtDQEhdKFtDQEhdMTIpW05IXUMoPU8pW05IXTI=

> <s_epik_cmdline>
J2VwaWtfYXBwJywgJy1pbWFlJywgJ2xpZ2FuZF9wcm8ubWFlJywgJy1vbWFlJywgJ2xpZ2FuZF9wcmVwLm1hZScsICctbXMnLCAnMScsICctcGgnLCAnNycsICctcGh0JywgJzAuNScsICctbnQn

> <r_lp_tautomer_probability>
1

> <r_epik_Ionization_Penalty>
  0.0045

> <r_epik_Ionization_Penalty_Charging>
  0.0044

> <r_epik_Ionization_Penalty_Neutral>
  0.0000

> <r_epik_State_Penalty>
 -0.0000

> <r_epik_Charging_Adjusted_Penalty>
0.00443833021372702

> <i_epik_Tot_Q>
-1

> <i_epik_Tot_abs_Q>
1

$$$$
