2c2l_ligand
                    3D
 Schrodinger Suite 2020-3.
139138  0  0  1  0            999 V2000
    8.5730  -31.0520   29.8490 N   0  3  0  0  0  0
    8.1030  -32.4450   30.1340 C   0  0  2  0  0  0
    9.2080  -33.2500   30.8250 C   0  0  0  0  0  0
    9.3360  -34.4590   30.6060 O   0  0  0  0  0  0
    7.6970  -33.1520   28.8330 C   0  0  0  0  0  0
    6.7190  -32.3380   28.0030 C   0  0  0  0  0  0
    5.6410  -31.9720   28.5230 O   0  5  0  0  0  0
    7.0280  -32.0710   26.8230 O   0  0  0  0  0  0
   10.0000  -32.5740   31.6580 N   0  0  0  0  0  0
   11.1120  -33.2020   32.3770 C   0  0  2  0  0  0
   10.6440  -34.1700   33.4640 C   0  0  0  0  0  0
   10.2150  -35.2860   33.1700 O   0  0  0  0  0  0
   12.0170  -32.1310   33.0220 C   0  0  2  0  0  0
   12.4200  -31.1800   32.0280 O   0  0  0  0  0  0
   13.2500  -32.7700   33.6200 C   0  0  0  0  0  0
   10.7350  -33.7320   34.7190 N   0  0  0  0  0  0
   10.3310  -34.5210   35.8880 C   0  0  2  0  0  0
   10.9290  -33.8650   37.1250 C   0  0  0  0  0  0
   12.1090  -33.5170   37.1410 O   0  0  0  0  0  0
   10.8250  -35.9690   35.7730 C   0  0  0  0  0  0
   12.1970  -36.0210   35.4360 O   0  0  0  0  0  0
   10.1210  -33.6830   38.1600 N   0  0  0  0  0  0
   10.6290  -33.0410   39.3620 C   0  0  2  0  0  0
   11.1770  -33.9960   40.4170 C   0  0  0  0  0  0
   11.2250  -35.2010   40.2180 O   0  0  0  0  0  0
    9.5520  -32.1560   39.9770 C   0  0  0  0  0  0
    9.2700  -30.8830   39.1960 C   0  0  0  0  0  0
    8.4110  -29.9510   40.0350 C   0  0  0  0  0  0
    8.2170  -28.6450   39.4200 N   0  0  0  0  0  0
    7.5310  -27.6510   39.9800 C   0  0  0  0  0  0
    6.9770  -27.8270   41.1720 N   0  3  0  0  0  0
    7.3960  -26.4810   39.3510 N   0  0  0  0  0  0
   11.6080  -33.4480   41.5410 N   0  0  0  0  0  0
   12.1510  -34.2860   42.5770 C   0  0  2  0  0  0
   11.2180  -34.3970   43.7380 C   0  0  0  0  0  0
   11.2460  -35.3860   44.4570 O   0  0  0  0  0  0
   13.4650  -33.7350   43.0800 C   0  0  0  0  0  0
   14.5690  -33.8600   42.1060 C   0  0  0  0  0  0
   15.9950  -34.3900   42.9910 S   0  0  0  0  0  0
   15.8890  -36.1110   42.6940 C   0  0  0  0  0  0
   10.4030  -33.3730   43.9450 N   0  0  0  0  0  0
    9.4650  -33.3840   45.0570 C   0  0  2  0  0  0
    8.3410  -34.3690   44.7420 C   0  0  0  0  0  0
    7.2180  -34.2050   45.2070 O   0  0  0  0  0  0
    8.8910  -31.9760   45.2830 C   0  0  0  0  0  0
    9.9130  -30.8940   45.6850 C   0  0  0  0  0  0
   10.1420  -30.7870   47.1930 C   0  0  0  0  0  0
    9.1690  -30.5270   47.9360 O   0  5  0  0  0  0
   11.2980  -30.9490   47.6390 O   0  0  0  0  0  0
    8.6500  -35.3860   43.9430 N   0  0  0  0  0  0
    7.6710  -36.4010   43.5740 C   0  0  2  0  0  0
    8.1700  -37.8020   43.9010 C   0  0  0  0  0  0
    9.3330  -38.1200   43.6550 O   0  0  0  0  0  0
    7.3790  -36.3370   42.0840 C   0  0  0  0  0  0
    8.6270  -36.5090   41.2500 C   0  0  0  0  0  0
    8.3230  -36.9580   39.8360 C   0  0  0  0  0  0
    7.4270  -36.3520   39.2090 O   0  0  0  0  0  0
    8.9830  -37.9070   39.3530 O   0  5  0  0  0  0
    7.2850  -38.6320   44.4520 N   0  0  0  0  0  0
    7.6160  -40.0110   44.7960 C   0  0  2  0  0  0
    7.5000  -40.8270   43.5270 C   0  0  0  0  0  0
    6.6560  -41.7090   43.4350 O   0  0  0  0  0  0
    6.6360  -40.5940   45.8130 C   0  0  0  0  0  0
    6.9430  -42.0480   46.0380 C   0  0  0  0  0  0
    6.7250  -39.8430   47.1090 C   0  0  0  0  0  0
    8.3420  -40.5150   42.5460 N   0  0  0  0  0  0
    8.3350  -41.2020   41.2500 C   0  0  2  0  0  0
    6.9570  -41.0490   40.5780 C   0  0  0  0  0  0
    6.4110  -42.0540   40.0590 O   0  5  0  0  0  0
    8.6730  -42.6860   41.4410 C   0  0  0  0  0  0
    9.6380  -42.9140   42.5780 C   0  0  0  0  0  0
   10.7940  -42.4570   42.4940 O   0  5  0  0  0  0
    9.2200  -43.5490   43.5620 O   0  0  0  0  0  0
    6.4450  -39.9040   40.5820 O   0  0  0  0  0  0
    8.8592  -30.5617   30.7911 H   0  0  0  0  0  0
    7.7627  -30.4823   29.3705 H   0  0  0  0  0  0
    9.4423  -31.0888   29.1760 H   0  0  0  0  0  0
    7.2324  -32.3564   30.8005 H   0  0  0  0  0  0
    8.5917  -33.3316   28.2187 H   0  0  0  0  0  0
    7.2174  -34.1127   29.0720 H   0  0  0  0  0  0
    9.7913  -31.5028   31.7954 H   0  0  0  0  0  0
   11.6349  -33.7683   31.5922 H   0  0  0  0  0  0
   11.4741  -31.5674   33.7951 H   0  0  0  0  0  0
   11.6609  -30.6068   31.4755 H   0  0  0  0  0  0
   12.9496  -33.5018   34.3844 H   0  0  0  0  0  0
   13.8778  -31.9938   34.0820 H   0  0  0  0  0  0
   13.8195  -33.2792   32.8286 H   0  0  0  0  0  0
   11.1397  -32.7180   34.8530 H   0  0  0  0  0  0
    9.2315  -34.5188   35.9225 H   0  0  0  0  0  0
   10.6824  -36.4826   36.7352 H   0  0  0  0  0  0
   10.2536  -36.4904   34.9909 H   0  0  0  0  0  0
   12.6977  -36.9932   35.3172 H   0  0  0  0  0  0
    9.0729  -34.0138   38.1142 H   0  0  0  0  0  0
   11.4789  -32.4575   38.9784 H   0  0  0  0  0  0
    8.6065  -32.7153   40.0344 H   0  0  0  0  0  0
    9.8603  -31.8523   40.9883 H   0  0  0  0  0  0
   10.2198  -30.3846   38.9519 H   0  0  0  0  0  0
    8.7378  -31.1334   38.2664 H   0  0  0  0  0  0
    7.4181  -30.4009   40.1824 H   0  0  0  0  0  0
    8.8899  -29.7914   41.0123 H   0  0  0  0  0  0
    8.6506  -28.4326   38.4316 H   0  0  0  0  0  0
    7.0865  -28.7898   41.6926 H   0  0  0  0  0  0
    7.8544  -26.3320   38.3622 H   0  0  0  0  0  0
    6.8264  -25.6661   39.8216 H   0  0  0  0  0  0
   11.5534  -32.3590   41.6866 H   0  0  0  0  0  0
   12.2753  -35.2669   42.0950 H   0  0  0  0  0  0
   13.3498  -32.6657   43.3111 H   0  0  0  0  0  0
   13.7656  -34.2763   43.9892 H   0  0  0  0  0  0
   14.2973  -34.5976   41.3365 H   0  0  0  0  0  0
   14.7511  -32.8847   41.6310 H   0  0  0  0  0  0
   16.7286  -36.6209   43.1891 H   0  0  0  0  0  0
   15.9326  -36.2996   41.6112 H   0  0  0  0  0  0
   14.9392  -36.4945   43.0951 H   0  0  0  0  0  0
   10.4407  -32.5086   43.2657 H   0  0  0  0  0  0
   10.0276  -33.7053   45.9460 H   0  0  0  0  0  0
    8.4146  -31.6213   44.3571 H   0  0  0  0  0  0
    8.1442  -32.0096   46.0899 H   0  0  0  0  0  0
   10.8858  -31.1189   45.2234 H   0  0  0  0  0  0
    9.5615  -29.9109   45.3388 H   0  0  0  0  0  0
    9.6786  -35.4483   43.5581 H   0  0  0  0  0  0
    6.7793  -36.1589   44.1709 H   0  0  0  0  0  0
    6.6745  -37.1374   41.8137 H   0  0  0  0  0  0
    6.9361  -35.3604   41.8387 H   0  0  0  0  0  0
    9.1646  -35.5510   41.1926 H   0  0  0  0  0  0
    9.2762  -37.2665   41.7134 H   0  0  0  0  0  0
    6.2742  -38.2441   44.6464 H   0  0  0  0  0  0
    8.6309  -39.9968   45.2199 H   0  0  0  0  0  0
    5.6066  -40.5042   45.4359 H   0  0  0  0  0  0
    6.8751  -42.5892   45.0827 H   0  0  0  0  0  0
    6.2188  -42.4696   46.7506 H   0  0  0  0  0  0
    7.9598  -42.1493   46.4454 H   0  0  0  0  0  0
    6.4988  -38.7809   46.9336 H   0  0  0  0  0  0
    7.7412  -39.9386   47.5191 H   0  0  0  0  0  0
    6.0002  -40.2590   47.8243 H   0  0  0  0  0  0
    9.0635  -39.7067   42.7362 H   0  0  0  0  0  0
    9.1107  -40.7184   40.6380 H   0  0  0  0  0  0
    7.7521  -43.2466   41.6594 H   0  0  0  0  0  0
    9.1321  -43.0788   40.5218 H   0  0  0  0  0  0
    6.4080  -27.0102   41.6401 H   0  0  0  0  0  0
  1  2  1  0  0  0
  1 75  1  0  0  0
  1 76  1  0  0  0
  1 77  1  0  0  0
  2  3  1  0  0  0
  2  5  1  0  0  0
  2 78  1  0  0  0
  3  4  2  0  0  0
  3  9  1  0  0  0
  5  6  1  0  0  0
  5 79  1  0  0  0
  5 80  1  0  0  0
  6  7  1  0  0  0
  6  8  2  0  0  0
  9 10  1  0  0  0
  9 81  1  0  0  0
 10 11  1  0  0  0
 10 13  1  0  0  0
 10 82  1  0  0  0
 11 12  2  0  0  0
 11 16  1  0  0  0
 13 14  1  0  0  0
 13 15  1  0  0  0
 13 83  1  0  0  0
 14 84  1  0  0  0
 15 85  1  0  0  0
 15 86  1  0  0  0
 15 87  1  0  0  0
 16 17  1  0  0  0
 16 88  1  0  0  0
 17 18  1  0  0  0
 17 20  1  0  0  0
 17 89  1  0  0  0
 18 19  2  0  0  0
 18 22  1  0  0  0
 20 21  1  0  0  0
 20 90  1  0  0  0
 20 91  1  0  0  0
 21 92  1  0  0  0
 22 23  1  0  0  0
 22 93  1  0  0  0
 23 24  1  0  0  0
 23 26  1  0  0  0
 23 94  1  0  0  0
 24 25  2  0  0  0
 24 33  1  0  0  0
 26 27  1  0  0  0
 26 95  1  0  0  0
 26 96  1  0  0  0
 27 28  1  0  0  0
 27 97  1  0  0  0
 27 98  1  0  0  0
 28 29  1  0  0  0
 28 99  1  0  0  0
 28100  1  0  0  0
 29 30  1  0  0  0
 29101  1  0  0  0
 30 31  2  0  0  0
 30 32  1  0  0  0
 31102  1  0  0  0
 31139  1  0  0  0
 32103  1  0  0  0
 32104  1  0  0  0
 33 34  1  0  0  0
 33105  1  0  0  0
 34 35  1  0  0  0
 34 37  1  0  0  0
 34106  1  0  0  0
 35 36  2  0  0  0
 35 41  1  0  0  0
 37 38  1  0  0  0
 37107  1  0  0  0
 37108  1  0  0  0
 38 39  1  0  0  0
 38109  1  0  0  0
 38110  1  0  0  0
 39 40  1  0  0  0
 40111  1  0  0  0
 40112  1  0  0  0
 40113  1  0  0  0
 41 42  1  0  0  0
 41114  1  0  0  0
 42 43  1  0  0  0
 42 45  1  0  0  0
 42115  1  0  0  0
 43 44  2  0  0  0
 43 50  1  0  0  0
 45 46  1  0  0  0
 45116  1  0  0  0
 45117  1  0  0  0
 46 47  1  0  0  0
 46118  1  0  0  0
 46119  1  0  0  0
 47 48  1  0  0  0
 47 49  2  0  0  0
 50 51  1  0  0  0
 50120  1  0  0  0
 51 52  1  0  0  0
 51 54  1  0  0  0
 51121  1  0  0  0
 52 53  2  0  0  0
 52 59  1  0  0  0
 54 55  1  0  0  0
 54122  1  0  0  0
 54123  1  0  0  0
 55 56  1  0  0  0
 55124  1  0  0  0
 55125  1  0  0  0
 56 57  2  0  0  0
 56 58  1  0  0  0
 59 60  1  0  0  0
 59126  1  0  0  0
 60 61  1  0  0  0
 60 63  1  0  0  0
 60127  1  0  0  0
 61 62  2  0  0  0
 61 66  1  0  0  0
 63 64  1  0  0  0
 63 65  1  0  0  0
 63128  1  0  0  0
 64129  1  0  0  0
 64130  1  0  0  0
 64131  1  0  0  0
 65132  1  0  0  0
 65133  1  0  0  0
 65134  1  0  0  0
 66 67  1  0  0  0
 66135  1  0  0  0
 67 68  1  0  0  0
 67 70  1  0  0  0
 67136  1  0  0  0
 68 69  1  0  0  0
 68 74  2  0  0  0
 70 71  1  0  0  0
 70137  1  0  0  0
 70138  1  0  0  0
 71 72  1  0  0  0
 71 73  2  0  0  0
M  CHG  7   1   1   7  -1  31   1  48  -1  58  -1  69  -1  72  -1
M  END
> <s_m_source_file>
../2c2l_ligand.sdf

> <i_m_source_file_index>
1

> <s_epik_input>
W09IXUMoPU8pW0NIMl1bQ0BIXShbTkgzK10pQyg9TylbTkhdW0NAQEhdKFtDQEhdKFtPSF0pW0NIM10pQyg9TylbTkhdW0NAQEhdKFtDSDJdW09IXSlDKD1PKVtOSF1bQ0BASF0oW0NIMl1bQ0gyXVtDSDJdW05IXS9DKD1OXFtIXSlbTkgyXSlDKD1PKVtOSF1bQ0BASF0oW0NIMl1bQ0gyXVNbQ0gzXSlDKD1PKVtOSF1bQ0BASF0oW0NIMl1bQ0gyXUMoPU8pW09IXSlDKD1PKVtOSF1bQ0BASF0oW0NIMl1bQ0gyXUMoPU8pW09IXSlDKD1PKVtOSF1bQ0BASF0oW0NIXShbQ0gzXSlbQ0gzXSlDKD1PKVtOSF1bQ0BIXShDKD1PKVtPSF0pW0NIMl1DKD1PKVtPSF0=

> <s_epik_cmdline>
J2VwaWtfYXBwJywgJy1pbWFlJywgJ2xpZ2FuZF9wcm8ubWFlJywgJy1vbWFlJywgJ2xpZ2FuZF9wcmVwLm1hZScsICctbXMnLCAnMScsICctcGgnLCAnNycsICctcGh0JywgJzAuNScsICctbnQn

> <r_lp_tautomer_probability>
1

> <r_epik_Ionization_Penalty>
  0.0254

> <r_epik_Ionization_Penalty_Charging>
  0.0254

> <r_epik_Ionization_Penalty_Neutral>
  0.0000

> <r_epik_State_Penalty>
 -0.0000

> <r_epik_Charging_Adjusted_Penalty>
0.025442923032712

> <i_epik_Tot_Q>
-3

> <i_epik_Tot_abs_Q>
7

> <s_epik_Chemistry_Notes>
This compound has an imine and may undergo hydrolysis.

$$$$
