2c3j_ligand
                    3D
 Schrodinger Suite 2020-3.
 28 30  0  0  1  0            999 V2000
    3.8910   -1.6130   20.6180 O   0  0  0  0  0  0
    4.6820   -2.1690   19.8560 C   0  0  0  0  0  0
    5.8350   -1.5040   19.6480 N   0  0  0  0  0  0
    6.9320   -1.9230   18.7260 C   0  0  0  0  0  0
    7.2570   -3.4210   18.7060 C   0  0  0  0  0  0
    4.2260   -3.4420   19.1550 C   0  0  0  0  0  0
    2.9680   -3.8670   19.2840 N   0  0  0  0  0  0
    2.8680   -4.9560   18.5270 C   0  0  0  0  0  0
    4.0210   -5.1950   17.9190 C   0  0  0  0  0  0
    4.9030   -4.2910   18.2760 C   0  0  0  0  0  0
    6.2330   -4.1570   17.8520 C   0  0  0  0  0  0
    6.6440   -4.6530   16.5770 C   0  0  0  0  0  0
    5.8280   -5.0760   15.5920 N   0  0  0  0  0  0
    6.5780   -5.4850   14.5490 C   0  0  0  0  0  0
    6.0800   -5.9690   13.3800 N   0  0  0  0  0  0
    7.8860   -5.3230   14.8290 N   0  0  0  0  0  0
    7.9630   -4.7940   16.0580 C   0  0  0  0  0  0
    9.0500   -4.4800   16.5640 O   0  0  0  0  0  0
    5.9310   -0.5763   20.2313 H   0  0  0  0  0  0
    6.6655   -1.6544   17.6931 H   0  0  0  0  0  0
    7.8641   -1.4119   19.0089 H   0  0  0  0  0  0
    8.2611   -3.5727   18.2831 H   0  0  0  0  0  0
    7.2277   -3.8163   19.7321 H   0  0  0  0  0  0
    1.9689   -5.5633   18.4220 H   0  0  0  0  0  0
    4.3032   -5.9900   17.2131 H   0  0  0  0  0  0
    4.9928   -6.0655   13.2434 H   0  0  0  0  0  0
    6.7643   -6.2641   12.5709 H   0  0  0  0  0  0
    8.6469   -5.6150   14.0902 H   0  0  0  0  0  0
  1  2  2  0  0  0
  2  3  1  0  0  0
  2  6  1  0  0  0
  3  4  1  0  0  0
  3 19  1  0  0  0
  4  5  1  0  0  0
  4 20  1  0  0  0
  4 21  1  0  0  0
  5 11  1  0  0  0
  5 22  1  0  0  0
  5 23  1  0  0  0
  6  7  2  0  0  0
  6 10  1  0  0  0
  7  8  1  0  0  0
  8  9  1  0  0  0
  8 24  1  0  0  0
  9 10  2  0  0  0
  9 25  1  0  0  0
 10 11  1  0  0  0
 11 12  2  0  0  0
 12 13  1  0  0  0
 12 17  1  0  0  0
 13 14  2  0  0  0
 14 15  1  0  0  0
 14 16  1  0  0  0
 15 26  1  0  0  0
 15 27  1  0  0  0
 16 17  1  0  0  0
 16 28  1  0  0  0
 17 18  2  0  0  0
M  END
> <s_m_source_file>
../2c3j_ligand.sdf

> <i_m_source_file_index>
1

> <s_epik_input>
Tz1DMVtOSF1bQ0gyXVtDSDJdL0MoQyhDMT0yKT1bQ0hdW0NIMl1OMik9QzMvTj1DKFtOSDJdKVtOSF1DMz1P

> <s_epik_cmdline>
J2VwaWtfYXBwJywgJy1pbWFlJywgJ2xpZ2FuZF9wcm8ubWFlJywgJy1vbWFlJywgJ2xpZ2FuZF9wcmVwLm1hZScsICctbXMnLCAnMScsICctcGgnLCAnNycsICctcGh0JywgJzAuNScsICctbnQn

> <r_epik_Ionization_Penalty>
  0.1960

> <r_epik_Ionization_Penalty_Charging>
  0.0000

> <r_epik_Ionization_Penalty_Neutral>
  0.1960

> <r_epik_State_Penalty>
  0.1858

> <r_epik_Charging_Adjusted_Penalty>
0.185780321938063

> <i_epik_Tot_Q>
0

> <i_epik_Tot_abs_Q>
0

> <s_epik_Chemistry_Notes>
This compound has an imine and may undergo hydrolysis.

$$$$
