2c3k_ligand
                    3D
 Schrodinger Suite 2020-3.
 42 46  0  0  1  0            999 V2000
   11.2310   -0.1250   15.1820 C   0  0  0  0  0  0
   11.8930   -1.4760   15.0520 O   0  0  0  0  0  0
   11.1870   -2.6100   15.4600 C   0  0  0  0  0  0
    9.9570   -2.5380   16.1460 C   0  0  0  0  0  0
   11.7240   -3.8680   15.1770 C   0  0  0  0  0  0
   12.9170   -3.9530   14.5240 O   0  0  0  0  0  0
   11.0670   -5.0410   15.5660 C   0  0  0  0  0  0
    9.8320   -4.9620   16.2470 C   0  0  0  0  0  0
    9.2670   -3.7090   16.5360 C   0  0  0  0  0  0
    8.0420   -3.6070   17.1980 C   0  0  0  0  0  0
    7.8340   -2.5150   18.0840 C   0  0  0  0  0  0
    7.0320   -4.5550   16.9740 C   0  0  0  0  0  0
    5.8090   -4.4260   17.6510 C   0  0  0  0  0  0
    5.5940   -3.3580   18.5350 C   0  0  0  0  0  0
    6.6090   -2.4110   18.7520 C   0  0  0  0  0  0
    6.1230   -1.5090   19.6460 N   0  3  0  0  0  0
    4.9440   -1.7580   19.9970 N   0  0  0  0  0  0
    4.5470   -2.9170   19.3950 C   0  0  0  0  0  0
    3.2700   -3.4680   19.5110 C   0  0  0  0  0  0
    2.8070   -4.6480   19.0080 N   0  0  0  0  0  0
    1.4830   -4.7110   19.3330 C   0  0  0  0  0  0
    0.5210   -5.6750   19.1010 C   0  0  0  0  0  0
   -0.8230   -5.5190   19.5170 C   0  0  0  0  0  0
   -1.1880   -4.3380   20.2210 C   0  0  0  0  0  0
   -0.1840   -3.3420   20.4740 C   0  0  0  0  0  0
    1.1250   -3.5390   20.0150 C   0  0  0  0  0  0
    2.2350   -2.7870   20.1170 N   0  0  0  0  0  0
   11.9162    0.6555   14.8195 H   0  0  0  0  0  0
   10.9863    0.0633   16.2378 H   0  0  0  0  0  0
   10.3083   -0.1097   14.5834 H   0  0  0  0  0  0
    9.5306   -1.5625   16.3797 H   0  0  0  0  0  0
   13.4410   -3.0367   14.2142 H   0  0  0  0  0  0
   11.5073   -6.0131   15.3440 H   0  0  0  0  0  0
    9.3170   -5.8742   16.5485 H   0  0  0  0  0  0
    8.6155   -1.7714   18.2403 H   0  0  0  0  0  0
    7.1951   -5.3817   16.2826 H   0  0  0  0  0  0
    5.0206   -5.1610   17.4887 H   0  0  0  0  0  0
    0.7886   -6.6039   18.5760 H   0  0  0  0  0  0
   -1.5793   -6.2893   19.3057 H   0  0  0  0  0  0
   -2.2246   -4.1991   20.5619 H   0  0  0  0  0  0
   -0.4401   -2.4351   21.0218 H   0  0  0  0  0  0
    6.6470   -0.6347   20.0596 H   0  0  0  0  0  0
  1  2  1  0  0  0
  1 28  1  0  0  0
  1 29  1  0  0  0
  1 30  1  0  0  0
  2  3  1  0  0  0
  3  4  2  0  0  0
  3  5  1  0  0  0
  4  9  1  0  0  0
  4 31  1  0  0  0
  5  6  1  0  0  0
  5  7  2  0  0  0
  6 32  1  0  0  0
  7  8  1  0  0  0
  7 33  1  0  0  0
  8  9  2  0  0  0
  8 34  1  0  0  0
  9 10  1  0  0  0
 10 11  2  0  0  0
 10 12  1  0  0  0
 11 15  1  0  0  0
 11 35  1  0  0  0
 12 13  2  0  0  0
 12 36  1  0  0  0
 13 14  1  0  0  0
 13 37  1  0  0  0
 14 15  2  0  0  0
 14 18  1  0  0  0
 15 16  1  0  0  0
 16 17  1  0  0  0
 16 42  1  0  0  0
 17 18  2  0  0  0
 18 19  1  0  0  0
 19 20  2  0  0  0
 19 27  1  0  0  0
 20 21  1  0  0  0
 21 22  2  0  0  0
 21 26  1  0  0  0
 22 23  1  0  0  0
 22 38  1  0  0  0
 23 24  2  0  0  0
 23 39  1  0  0  0
 24 25  1  0  0  0
 24 40  1  0  0  0
 25 26  1  0  0  0
 25 41  1  0  0  0
 26 27  2  0  0  0
M  CHG  1  16   1
M  END
> <s_m_source_file>
../2c3k_ligand.sdf

> <i_m_source_file_index>
1

> <s_epik_input>
W0NIM11PYzFbY0hdYyhbY0hdW2NIXWMxW09IXSktYyhbY0hdW2NIXTIpW2NIXWMoYzIzKVtuSF1uYzNDKD1ONClOPUMoQzQ9NSlbQ0gyXVtDSF09W0NIXVtDSF01

> <s_epik_cmdline>
J2VwaWtfYXBwJywgJy1pbWFlJywgJ2xpZ2FuZF9wcm8ubWFlJywgJy1vbWFlJywgJ2xpZ2FuZF9wcmVwLm1hZScsICctbXMnLCAnMScsICctcGgnLCAnNycsICctcGh0JywgJzAuNScsICctbnQn

> <r_lp_tautomer_probability>
1

> <r_epik_Ionization_Penalty>
  0.0013

> <r_epik_Ionization_Penalty_Charging>
  0.0000

> <r_epik_Ionization_Penalty_Neutral>
  0.0013

> <r_epik_State_Penalty>
 -0.0000

> <r_epik_Charging_Adjusted_Penalty>
0

> <i_epik_Tot_Q>
1

> <i_epik_Tot_abs_Q>
1

> <s_epik_Chemistry_Notes>
This compound has an imine and may undergo hydrolysis.

$$$$
