2c3l_ligand
                    3D
 Schrodinger Suite 2020-3.
 27 30  0  0  1  0            999 V2000
   12.9690   -1.0580   10.5270 C   0  0  0  0  0  0
   12.9210   -2.2890   11.1980 C   0  0  0  0  0  0
   14.0700   -3.0830   11.2980 C   0  0  0  0  0  0
   15.2760   -2.6510   10.7470 C   0  0  0  0  0  0
   15.3220   -1.4250   10.1210 C   0  0  0  0  0  0
   16.3020   -0.6970    9.4410 C   0  0  0  0  0  0
   17.6240   -1.0920    9.2810 C   0  0  0  0  0  0
   18.5490   -0.3310    8.6630 N   0  0  0  0  0  0
   19.6850   -0.9910    8.6940 C   0  0  0  0  0  0
   20.9490   -0.6950    8.1820 C   0  0  0  0  0  0
   21.9990   -1.6140    8.3680 C   0  0  0  0  0  0
   21.7500   -2.8210    9.0310 C   0  0  0  0  0  0
   20.4750   -3.1150    9.5490 C   0  0  0  0  0  0
   19.4410   -2.1870    9.3850 C   0  0  0  0  0  0
   14.5550    0.4580    9.3040 N   0  3  0  0  0  0
   14.1830   -0.6430    9.9890 C   0  0  0  0  0  0
   18.1490   -2.2240    9.7200 N   0  0  0  0  0  0
   15.7710    0.4450    8.9830 N   0  0  0  0  0  0
   12.0758   -0.4409   10.4294 H   0  0  0  0  0  0
   11.9858   -2.6287   11.6432 H   0  0  0  0  0  0
   14.0215   -4.0443   11.8095 H   0  0  0  0  0  0
   16.1683   -3.2738   10.8107 H   0  0  0  0  0  0
   21.1160    0.2476    7.6402 H   0  0  0  0  0  0
   23.0096   -1.3889    7.9964 H   0  0  0  0  0  0
   22.5575   -3.5577    9.1540 H   0  0  0  0  0  0
   20.2952   -4.0544   10.0717 H   0  0  0  0  0  0
   13.9208    1.3113    9.0219 H   0  0  0  0  0  0
  1  2  2  0  0  0
  1 16  1  0  0  0
  1 19  1  0  0  0
  2  3  1  0  0  0
  2 20  1  0  0  0
  3  4  2  0  0  0
  3 21  1  0  0  0
  4  5  1  0  0  0
  4 22  1  0  0  0
  5  6  1  0  0  0
  5 16  2  0  0  0
  6  7  1  0  0  0
  6 18  2  0  0  0
  7  8  2  0  0  0
  7 17  1  0  0  0
  8  9  1  0  0  0
  9 10  2  0  0  0
  9 14  1  0  0  0
 10 11  1  0  0  0
 10 23  1  0  0  0
 11 12  2  0  0  0
 11 24  1  0  0  0
 12 13  1  0  0  0
 12 25  1  0  0  0
 13 14  1  0  0  0
 13 26  1  0  0  0
 14 17  2  0  0  0
 15 16  1  0  0  0
 15 18  1  0  0  0
 15 27  1  0  0  0
M  CHG  1  15   1
M  END
> <s_m_source_file>
../2c3l_ligand.sdf

> <i_m_source_file_index>
1

> <s_epik_input>
W2NIXTFbY0hdW2NIXVtjSF1jKGMxMilbbkhdbmMyQyg9TjMpTj1DKEMzPTQpW0NIMl1bQ0hdPVtDSF1bQ0hdNA==

> <s_epik_cmdline>
J2VwaWtfYXBwJywgJy1pbWFlJywgJ2xpZ2FuZF9wcm8ubWFlJywgJy1vbWFlJywgJ2xpZ2FuZF9wcmVwLm1hZScsICctbXMnLCAnMScsICctcGgnLCAnNycsICctcGh0JywgJzAuNScsICctbnQn

> <r_lp_tautomer_probability>
1

> <r_epik_Ionization_Penalty>
  0.0004

> <r_epik_Ionization_Penalty_Charging>
  0.0000

> <r_epik_Ionization_Penalty_Neutral>
  0.0004

> <r_epik_State_Penalty>
 -0.0000

> <r_epik_Charging_Adjusted_Penalty>
0

> <i_epik_Tot_Q>
1

> <i_epik_Tot_abs_Q>
1

> <s_epik_Chemistry_Notes>
This compound has an imine and may undergo hydrolysis.

$$$$
