2c4f_ligand
                    3D
 Schrodinger Suite 2020-3.
 77 79  0  0  1  0            999 V2000
   29.6120    7.3760   13.8900 C   0  0  0  0  0  0
   28.8860    8.4860   13.3660 C   0  0  0  0  0  0
   28.8890    8.7630   11.9820 C   0  0  0  0  0  0
   29.6210    7.9390   11.1040 C   0  0  0  0  0  0
   30.3540    6.8330   11.6060 C   0  0  0  0  0  0
   30.3450    6.5540   12.9920 C   0  0  0  0  0  0
   29.6020    7.0890   15.3360 C   0  0  0  0  0  0
   30.2890    6.0190   15.8100 N   0  0  0  0  0  0
   28.9270    7.8630   16.1920 N   0  3  0  0  0  0
   31.8540    6.5290    9.7510 C   0  0  0  0  0  0
   33.0290    7.3200    9.9750 C   0  0  0  0  0  0
   31.3860    6.2720    8.5040 N   0  0  0  0  0  0
   33.7540    7.8660    8.8610 C   0  0  0  0  0  0
   31.1110    5.9690   10.8000 O   0  0  0  0  0  0
   33.2210    7.5600    7.5730 C   0  0  0  0  0  0
   32.0640    6.7820    7.4350 C   0  0  0  0  0  0
   34.9150    8.6590    8.9930 N   0  0  0  0  0  0
   31.6580    6.5870    6.1180 O   0  0  0  0  0  0
   33.4430    7.5470   11.2430 F   0  0  0  0  0  0
   33.7990    8.0120    6.4460 F   0  0  0  0  0  0
   30.5040    5.8680    5.8120 C   0  0  0  0  0  0
   29.1640    6.3460    6.0660 C   0  0  0  0  0  0
   28.0690    5.5240    5.6930 C   0  0  0  0  0  0
   28.2820    4.2470    5.0770 C   0  0  0  0  0  0
   29.6110    3.8010    4.8450 C   0  0  0  0  0  0
   30.7120    4.6120    5.2110 C   0  0  0  0  0  0
   28.8980    7.6710    6.6990 C   0  0  0  0  0  0
   27.7760    7.7720    7.4540 O   0  5  0  0  0  0
   29.6420    8.5960    6.5840 O   0  0  0  0  0  0
   27.1610    3.3600    4.6600 C   0  0  0  0  0  0
   34.8640   10.0630    8.3770 C   0  0  0  0  0  0
   36.0810    8.0020    9.7040 C   0  0  0  0  0  0
   36.1830   10.6330    7.8180 C   0  0  0  0  0  0
   34.1830   11.0540    9.3340 C   0  0  0  0  0  0
   37.0650    7.4110    8.6860 C   0  0  0  0  0  0
   36.7890    8.9140   10.7420 C   0  0  0  0  0  0
   27.3300    2.2650    4.1320 O   0  0  0  0  0  0
   25.9280    3.8400    4.8990 N   0  0  0  0  0  0
   25.1320    4.3430    3.7770 C   0  0  0  0  0  0
   23.6330    4.5200    4.1010 C   0  0  0  0  0  0
   23.2270    4.1350    5.5310 C   0  0  0  0  0  0
   22.8140    3.7230    3.0820 C   0  0  0  0  0  0
   28.3220    9.1282   14.0424 H   0  0  0  0  0  0
   28.3266    9.6120   11.5934 H   0  0  0  0  0  0
   29.6240    8.1522   10.0351 H   0  0  0  0  0  0
   30.9052    5.7010   13.3751 H   0  0  0  0  0  0
   30.8487    5.3738   15.1169 H   0  0  0  0  0  0
   30.2862    5.7969   16.8873 H   0  0  0  0  0  0
   28.3659    8.7335   15.8214 H   0  0  0  0  0  0
   27.0514    5.8684    5.8775 H   0  0  0  0  0  0
   29.7837    2.8291    4.3827 H   0  0  0  0  0  0
   31.7275    4.2617    5.0263 H   0  0  0  0  0  0
   34.2508    9.9233    7.4745 H   0  0  0  0  0  0
   35.6386    7.1795   10.2852 H   0  0  0  0  0  0
   36.6411    9.8987    7.1390 H   0  0  0  0  0  0
   36.8724   10.8443    8.6488 H   0  0  0  0  0  0
   35.9765   11.5626    7.2674 H   0  0  0  0  0  0
   33.2480   10.6149    9.7121 H   0  0  0  0  0  0
   33.9589   11.9874    8.7968 H   0  0  0  0  0  0
   34.8547   11.2690   10.1781 H   0  0  0  0  0  0
   36.5184    6.7747    7.9744 H   0  0  0  0  0  0
   37.8193    6.8079    9.2126 H   0  0  0  0  0  0
   37.5628    8.2266    8.1411 H   0  0  0  0  0  0
   36.0452    9.3125   11.4476 H   0  0  0  0  0  0
   37.2835    9.7472   10.2211 H   0  0  0  0  0  0
   37.5400    8.3285   11.2926 H   0  0  0  0  0  0
   25.5150    3.8586    5.9184 H   0  0  0  0  0  0
   25.5157    5.3262    3.4669 H   0  0  0  0  0  0
   25.2013    3.6399    2.9339 H   0  0  0  0  0  0
   23.4160    5.5962    4.0321 H   0  0  0  0  0  0
   23.8235    4.7153    6.2503 H   0  0  0  0  0  0
   23.4076    3.0612    5.6869 H   0  0  0  0  0  0
   22.1591    4.3527    5.6801 H   0  0  0  0  0  0
   23.1162    4.0098    2.0639 H   0  0  0  0  0  0
   21.7445    3.9391    3.2216 H   0  0  0  0  0  0
   22.9930    2.6476    3.2284 H   0  0  0  0  0  0
   28.9328    7.6293   17.2669 H   0  0  0  0  0  0
  1  2  2  0  0  0
  1  6  1  0  0  0
  1  7  1  0  0  0
  2  3  1  0  0  0
  2 43  1  0  0  0
  3  4  2  0  0  0
  3 44  1  0  0  0
  4  5  1  0  0  0
  4 45  1  0  0  0
  5  6  2  0  0  0
  5 14  1  0  0  0
  6 46  1  0  0  0
  7  8  1  0  0  0
  7  9  2  0  0  0
  8 47  1  0  0  0
  8 48  1  0  0  0
  9 49  1  0  0  0
  9 77  1  0  0  0
 10 11  2  0  0  0
 10 12  1  0  0  0
 10 14  1  0  0  0
 11 13  1  0  0  0
 11 19  1  0  0  0
 12 16  2  0  0  0
 13 15  2  0  0  0
 13 17  1  0  0  0
 15 16  1  0  0  0
 15 20  1  0  0  0
 16 18  1  0  0  0
 17 31  1  0  0  0
 17 32  1  0  0  0
 18 21  1  0  0  0
 21 22  2  0  0  0
 21 26  1  0  0  0
 22 23  1  0  0  0
 22 27  1  0  0  0
 23 24  2  0  0  0
 23 50  1  0  0  0
 24 25  1  0  0  0
 24 30  1  0  0  0
 25 26  2  0  0  0
 25 51  1  0  0  0
 26 52  1  0  0  0
 27 28  1  0  0  0
 27 29  2  0  0  0
 30 37  2  0  0  0
 30 38  1  0  0  0
 31 33  1  0  0  0
 31 34  1  0  0  0
 31 53  1  0  0  0
 32 35  1  0  0  0
 32 36  1  0  0  0
 32 54  1  0  0  0
 33 55  1  0  0  0
 33 56  1  0  0  0
 33 57  1  0  0  0
 34 58  1  0  0  0
 34 59  1  0  0  0
 34 60  1  0  0  0
 35 61  1  0  0  0
 35 62  1  0  0  0
 35 63  1  0  0  0
 36 64  1  0  0  0
 36 65  1  0  0  0
 36 66  1  0  0  0
 38 39  1  0  0  0
 38 67  1  0  0  0
 39 40  1  0  0  0
 39 68  1  0  0  0
 39 69  1  0  0  0
 40 41  1  0  0  0
 40 42  1  0  0  0
 40 70  1  0  0  0
 41 71  1  0  0  0
 41 72  1  0  0  0
 41 73  1  0  0  0
 42 74  1  0  0  0
 42 75  1  0  0  0
 42 76  1  0  0  0
M  CHG  2   9   1  28  -1
M  END
> <s_m_source_file>
../2c4f_ligand.sdf

> <i_m_source_file_index>
1

> <s_epik_input>
W0hdXE49QyhbTkgyXSlcYzFbY0hdW2NIXVtjSF1jKFtjSF0xKU9jMmMoRiljKE4oW0NIXShbQ0gzXSlbQ0gzXSlbQ0hdKFtDSDNdKVtDSDNdKWMoRiljKG4yKU9jM2MoQyg9TylbT0hdKVtjSF1jKFtjSF1bY0hdMylDKD1PKVtOSF1bQ0gyXVtDSF0oW0NIM10pW0NIM10=

> <s_epik_cmdline>
J2VwaWtfYXBwJywgJy1pbWFlJywgJ2xpZ2FuZF9wcm8ubWFlJywgJy1vbWFlJywgJ2xpZ2FuZF9wcmVwLm1hZScsICctbXMnLCAnMScsICctcGgnLCAnNycsICctcGh0JywgJzAuNScsICctbnQn

> <r_lp_tautomer_probability>
1

> <r_epik_Ionization_Penalty>
  0.0006

> <r_epik_Ionization_Penalty_Charging>
  0.0006

> <r_epik_Ionization_Penalty_Neutral>
  0.0000

> <r_epik_State_Penalty>
 -0.0000

> <r_epik_Charging_Adjusted_Penalty>
0.000575512535391441

> <i_epik_Tot_Q>
0

> <i_epik_Tot_abs_Q>
2

> <s_epik_Chemistry_Notes>
This compound has an imine and may undergo hydrolysis.

$$$$
