2c4g_ligand
                    3D
 Schrodinger Suite 2020-3.
 34 36  0  0  1  0            999 V2000
  -19.1710  212.4470  104.5130 O   0  0  0  0  0  0
  -13.8820  214.3400  102.4660 C   0  0  0  0  0  0
  -15.2750  213.9600  100.8790 N   0  3  0  0  0  0
  -14.1680  214.3270  101.1020 N   0  0  0  0  0  0
  -11.0000  215.1880  104.7670 C   0  0  0  0  0  0
   -9.8100  214.7010  104.1120 C   0  0  0  0  0  0
  -10.8550  216.1190  105.8580 C   0  0  0  0  0  0
  -12.2840  214.7680  104.3640 C   0  0  0  0  0  0
   -8.5240  215.1310  104.5340 C   0  0  0  0  0  0
   -9.5650  216.5440  106.2740 C   0  0  0  0  0  0
  -13.0810  214.4310  105.2350 O   0  0  0  0  0  0
  -12.5930  214.7480  103.0430 N   0  0  0  0  0  0
   -8.3970  216.0490  105.6110 C   0  0  0  0  0  0
  -15.9330  213.6620  102.0700 C   0  0  0  0  0  0
  -15.1430  213.8710  103.0870 C   0  0  0  0  0  0
  -15.7080  213.6000  104.4140 C   0  0  0  0  0  0
  -17.0700  213.1670  103.9860 N   0  0  0  0  0  0
  -17.2660  213.1820  102.5010 C   0  0  0  0  0  0
  -18.0430  212.7970  104.8820 C   0  0  0  0  0  0
  -17.7330  212.8240  106.3840 C   0  0  0  0  0  0
   -9.8990  213.9962  103.2853 H   0  0  0  0  0  0
  -11.7408  216.4992  106.3669 H   0  0  0  0  0  0
   -7.6328  214.7561  104.0308 H   0  0  0  0  0  0
   -9.4644  217.2484  107.0997 H   0  0  0  0  0  0
  -11.7744  215.0745  102.3847 H   0  0  0  0  0  0
   -7.4085  216.3768  105.9329 H   0  0  0  0  0  0
  -15.1137  212.8206  104.9133 H   0  0  0  0  0  0
  -15.6864  214.5200  105.0166 H   0  0  0  0  0  0
  -18.0378  213.8873  102.1592 H   0  0  0  0  0  0
  -17.4570  212.1901  102.0654 H   0  0  0  0  0  0
  -18.6203  212.4995  106.9474 H   0  0  0  0  0  0
  -17.4620  213.8470  106.6841 H   0  0  0  0  0  0
  -16.8944  212.1449  106.5976 H   0  0  0  0  0  0
  -15.6356  213.8987   99.8416 H   0  0  0  0  0  0
  1 19  2  0  0  0
  2  4  2  0  0  0
  2 12  1  0  0  0
  2 15  1  0  0  0
  3  4  1  0  0  0
  3 14  1  0  0  0
  3 34  1  0  0  0
  5  6  2  0  0  0
  5  7  1  0  0  0
  5  8  1  0  0  0
  6  9  1  0  0  0
  6 21  1  0  0  0
  7 10  2  0  0  0
  7 22  1  0  0  0
  8 11  2  0  0  0
  8 12  1  0  0  0
  9 13  2  0  0  0
  9 23  1  0  0  0
 10 13  1  0  0  0
 10 24  1  0  0  0
 12 25  1  0  0  0
 13 26  1  0  0  0
 14 15  2  0  0  0
 14 18  1  0  0  0
 15 16  1  0  0  0
 16 17  1  0  0  0
 16 27  1  0  0  0
 16 28  1  0  0  0
 17 18  1  0  0  0
 17 19  1  0  0  0
 18 29  1  0  0  0
 18 30  1  0  0  0
 19 20  1  0  0  0
 20 31  1  0  0  0
 20 32  1  0  0  0
 20 33  1  0  0  0
M  CHG  1   3   1
M  END
> <s_m_source_file>
../2c4g_ligand.sdf

> <i_m_source_file_index>
1

> <s_epik_input>
Tz1DKFtDSDNdKU4oW0NIMl0xKVtDSDJdYyhjMTIpYyhuW25IXTIpW05IXUMoPU8pYzNbY0hdW2NIXVtjSF1bY0hdW2NIXTM=

> <s_epik_cmdline>
J2VwaWtfYXBwJywgJy1pbWFlJywgJ2xpZ2FuZF9wcm8ubWFlJywgJy1vbWFlJywgJ2xpZ2FuZF9wcmVwLm1hZScsICctbXMnLCAnMScsICctcGgnLCAnNycsICctcGh0JywgJzAuNScsICctbnQn

> <r_lp_tautomer_probability>
1

> <r_epik_Ionization_Penalty>
  0.0007

> <r_epik_Ionization_Penalty_Charging>
  0.0000

> <r_epik_Ionization_Penalty_Neutral>
  0.0007

> <r_epik_State_Penalty>
 -0.0000

> <r_epik_Charging_Adjusted_Penalty>
0

> <i_epik_Tot_Q>
1

> <i_epik_Tot_abs_Q>
1

> <s_epik_Chemistry_Notes>
This compound has an imine and may undergo hydrolysis.

$$$$
