2c4v_ligand
                    3D
 Schrodinger Suite 2020-3.
 18 17  0  0  1  0            999 V2000
   97.2030  -23.6670   85.1630 C   0  0  0  0  0  0
   98.4370  -23.6400   85.2660 O   0  0  0  0  0  0
   96.6470  -23.3400   84.0380 O   0  5  0  0  0  0
   96.3700  -24.0250   86.3660 C   0  0  0  0  0  0
   96.9930  -24.1460   87.7440 C   0  0  0  0  0  0
   95.8340  -24.5180   88.5930 O   0  0  0  0  0  0
   97.7070  -22.8610   88.2730 C   0  0  0  0  0  0
   96.8220  -21.6300   88.4200 C   0  0  0  0  0  0
   96.4990  -20.9250   87.4240 O   0  5  0  0  0  0
   96.3250  -21.3820   89.5450 O   0  0  0  0  0  0
   97.9700  -25.3290   87.7970 C   0  0  0  0  0  0
   99.2030  -25.1580   88.1180 O   0  5  0  0  0  0
   97.5040  -26.4770   87.5650 O   0  0  0  0  0  0
   95.5855  -23.2670   86.5074 H   0  0  0  0  0  0
   95.9048  -25.0095   86.2101 H   0  0  0  0  0  0
   94.9926  -23.8195   88.7119 H   0  0  0  0  0  0
   98.1286  -23.0597   89.2694 H   0  0  0  0  0  0
   98.5155  -22.5800   87.5821 H   0  0  0  0  0  0
  1  2  2  0  0  0
  1  3  1  0  0  0
  1  4  1  0  0  0
  4  5  1  0  0  0
  4 14  1  0  0  0
  4 15  1  0  0  0
  5  6  1  0  0  0
  5  7  1  0  0  0
  5 11  1  0  0  0
  6 16  1  0  0  0
  7  8  1  0  0  0
  7 17  1  0  0  0
  7 18  1  0  0  0
  8  9  1  0  0  0
  8 10  2  0  0  0
 11 12  1  0  0  0
 11 13  2  0  0  0
M  CHG  3   3  -1   9  -1  12  -1
M  END
> <s_m_source_file>
../2c4v_ligand.sdf

> <i_m_source_file_index>
1

> <s_epik_input>
Tz1DKFtPSF0pW0NIMl1DKFtPSF0pKEMoPU8pW09IXSlbQ0gyXUMoPU8pW09IXQ==

> <s_epik_cmdline>
J2VwaWtfYXBwJywgJy1pbWFlJywgJ2xpZ2FuZF9wcm8ubWFlJywgJy1vbWFlJywgJ2xpZ2FuZF9wcmVwLm1hZScsICctbXMnLCAnMScsICctcGgnLCAnNycsICctcGh0JywgJzAuNScsICctbnQn

> <r_lp_tautomer_probability>
1

> <r_epik_Ionization_Penalty>
  0.0046

> <r_epik_Ionization_Penalty_Charging>
  0.0046

> <r_epik_Ionization_Penalty_Neutral>
  0.0000

> <r_epik_State_Penalty>
 -0.0000

> <r_epik_Charging_Adjusted_Penalty>
0.0045906918398983

> <i_epik_Tot_Q>
-3

> <i_epik_Tot_abs_Q>
3

$$$$
