2c5n_ligand
                    3D
 Schrodinger Suite 2020-3.
 42 44  0  0  1  0            999 V2000
    5.1880   51.1130    2.5540 C   0  0  0  0  0  0
    3.9510   51.3930    2.9850 N   0  0  0  0  0  0
    3.0060   50.4210    2.8440 C   0  0  0  0  0  0
    3.2850   49.2270    2.3180 N   0  0  0  0  0  0
    4.4950   48.8950    1.9130 C   0  0  0  0  0  0
    5.5040   49.8490    2.0500 C   0  0  0  0  0  0
    4.6830   47.6160    1.3910 C   0  0  0  0  0  0
    6.0160   47.2080    0.9480 C   0  0  0  0  0  0
    6.0560   45.9620    0.4590 N   0  0  0  0  0  0
    4.8430   45.4220    0.5520 C   0  0  0  0  0  0
    3.5770   46.3600    1.1850 S   0  0  0  0  0  0
    7.2910   47.9770    0.9500 C   0  0  0  0  0  0
    4.6590   44.0250    0.0270 C   0  0  0  0  0  0
    1.7190   50.6810    3.1960 N   0  0  0  0  0  0
    0.5680   49.9500    3.1600 C   0  0  0  0  0  0
   -0.5470   50.6040    3.6600 C   0  0  0  0  0  0
   -1.7950   50.0070    3.7280 C   0  0  0  0  0  0
   -1.9570   48.7190    3.2620 C   0  0  0  0  0  0
   -0.8480   48.0450    2.7570 C   0  0  0  0  0  0
    0.4150   48.6390    2.7210 C   0  0  0  0  0  0
   -3.1910   48.1560    3.3380 N   0  0  0  0  0  0
   -3.4180   46.7970    2.8740 C   0  0  0  0  0  0
   -4.3130   48.9080    3.8820 C   0  0  0  0  0  0
    5.9590   51.8823    2.5971 H   0  0  0  0  0  0
    6.5290   49.6103    1.7665 H   0  0  0  0  0  0
    7.1158   48.9763    1.3752 H   0  0  0  0  0  0
    7.6605   48.0769   -0.0812 H   0  0  0  0  0  0
    8.0385   47.4459    1.5575 H   0  0  0  0  0  0
    5.6256   43.6353   -0.3249 H   0  0  0  0  0  0
    3.9431   44.0385   -0.8080 H   0  0  0  0  0  0
    4.2737   43.3794    0.8299 H   0  0  0  0  0  0
    1.4495   51.6647    3.6080 H   0  0  0  0  0  0
   -0.4374   51.6291    4.0139 H   0  0  0  0  0  0
   -2.6421   50.5506    4.1463 H   0  0  0  0  0  0
   -0.9689   47.0292    2.3807 H   0  0  0  0  0  0
    1.2746   48.0797    2.3517 H   0  0  0  0  0  0
   -2.4744   46.3759    2.4968 H   0  0  0  0  0  0
   -4.1647   46.8053    2.0663 H   0  0  0  0  0  0
   -3.7867   46.1816    3.7079 H   0  0  0  0  0  0
   -3.9715   49.9092    4.1837 H   0  0  0  0  0  0
   -4.7185   48.3796    4.7574 H   0  0  0  0  0  0
   -5.0965   49.0032    3.1158 H   0  0  0  0  0  0
  1  2  2  0  0  0
  1  6  1  0  0  0
  1 24  1  0  0  0
  2  3  1  0  0  0
  3  4  2  0  0  0
  3 14  1  0  0  0
  4  5  1  0  0  0
  5  6  2  0  0  0
  5  7  1  0  0  0
  6 25  1  0  0  0
  7  8  2  0  0  0
  7 11  1  0  0  0
  8  9  1  0  0  0
  8 12  1  0  0  0
  9 10  2  0  0  0
 10 11  1  0  0  0
 10 13  1  0  0  0
 12 26  1  0  0  0
 12 27  1  0  0  0
 12 28  1  0  0  0
 13 29  1  0  0  0
 13 30  1  0  0  0
 13 31  1  0  0  0
 14 15  1  0  0  0
 14 32  1  0  0  0
 15 16  2  0  0  0
 15 20  1  0  0  0
 16 17  1  0  0  0
 16 33  1  0  0  0
 17 18  2  0  0  0
 17 34  1  0  0  0
 18 19  1  0  0  0
 18 21  1  0  0  0
 19 20  2  0  0  0
 19 35  1  0  0  0
 20 36  1  0  0  0
 21 22  1  0  0  0
 21 23  1  0  0  0
 22 37  1  0  0  0
 22 38  1  0  0  0
 22 39  1  0  0  0
 23 40  1  0  0  0
 23 41  1  0  0  0
 23 42  1  0  0  0
M  END
> <s_m_source_file>
../2c5n_ligand.sdf

> <i_m_source_file_index>
1

> <s_epik_input>
czFjKFtDSDNdKW5jKFtDSDNdKWMxLWMobjIpW2NIXVtjSF1uYzJbTkhdYzNbY0hdW2NIXWMoW2NIXVtjSF0zKU4oW0NIM10pW0NIM10=

> <s_epik_cmdline>
J2VwaWtfYXBwJywgJy1pbWFlJywgJ2xpZ2FuZF9wcm8ubWFlJywgJy1vbWFlJywgJ2xpZ2FuZF9wcmVwLm1hZScsICctbXMnLCAnMScsICctcGgnLCAnNycsICctcGh0JywgJzAuNScsICctbnQn

> <r_lp_tautomer_probability>
0.999999987636

> <r_epik_Ionization_Penalty>
  0.1125

> <r_epik_Ionization_Penalty_Charging>
  0.0000

> <r_epik_Ionization_Penalty_Neutral>
  0.1125

> <r_epik_State_Penalty>
  0.1021

> <r_epik_Charging_Adjusted_Penalty>
0.102117378330242

> <i_epik_Tot_Q>
0

> <i_epik_Tot_abs_Q>
0

$$$$
