2c6c_ligand
                    3D
 Schrodinger Suite 2020-3.
 34 34  0  0  1  0            999 V2000
   14.0420   48.9140   41.2050 O   0  0  0  0  0  0
   14.0850   47.7170   40.9600 C   0  0  0  0  0  0
   13.0780   47.2080   40.2340 O   0  5  0  0  0  0
   15.2400   46.9010   41.5370 C   0  0  0  0  0  0
   14.9530   45.4160   41.6760 C   0  0  0  0  0  0
   16.1400   44.6590   42.2360 C   0  0  1  0  0  0
   17.2850   44.8080   41.2410 C   0  0  0  0  0  0
   17.2860   43.9800   40.2220 O   0  5  0  0  0  0
   18.1420   45.6770   41.3440 O   0  0  0  0  0  0
   16.4890   45.1770   43.6500 C   0  0  0  0  0  0
   17.7180   44.2040   44.5120 P   0  0  1  0  0  0
   17.0020   43.6120   45.7800 O   0  0  0  0  0  0
   18.3300   43.0560   43.5460 O   0  5  0  0  0  0
   18.9990   45.4030   44.9180 C   0  0  0  0  0  0
   20.1740   44.9130   45.6410 C   0  0  0  0  0  0
   21.3520   44.5990   44.9640 C   0  0  0  0  0  0
   22.4320   44.1360   45.7290 C   0  0  0  0  0  0
   20.0810   44.8150   47.0150 C   0  0  0  0  0  0
   21.1360   44.3460   47.8040 C   0  0  0  0  0  0
   22.3290   44.0220   47.1370 C   0  0  0  0  0  0
   23.9280   43.3670   48.4000 I   0  0  0  0  0  0
   16.1195   46.9974   40.8834 H   0  0  0  0  0  0
   15.4871   47.2748   42.5416 H   0  0  0  0  0  0
   14.1004   45.2694   42.3553 H   0  0  0  0  0  0
   14.7118   44.9952   40.6887 H   0  0  0  0  0  0
   15.9093   43.5887   42.3420 H   0  0  0  0  0  0
   16.8838   46.2012   43.5782 H   0  0  0  0  0  0
   15.5836   45.1760   44.2747 H   0  0  0  0  0  0
   19.3907   45.8488   43.9918 H   0  0  0  0  0  0
   18.5733   46.1933   45.5538 H   0  0  0  0  0  0
   21.4302   44.7092   43.8824 H   0  0  0  0  0  0
   23.3630   43.8602   45.2337 H   0  0  0  0  0  0
   19.1526   45.1137   47.5019 H   0  0  0  0  0  0
   21.0374   44.2371   48.8841 H   0  0  0  0  0  0
  1  2  2  0  0  0
  2  3  1  0  0  0
  2  4  1  0  0  0
  4  5  1  0  0  0
  4 22  1  0  0  0
  4 23  1  0  0  0
  5  6  1  0  0  0
  5 24  1  0  0  0
  5 25  1  0  0  0
  6  7  1  0  0  0
  6 10  1  0  0  0
  6 26  1  0  0  0
  7  8  1  0  0  0
  7  9  2  0  0  0
 10 11  1  0  0  0
 10 27  1  0  0  0
 10 28  1  0  0  0
 11 12  2  0  0  0
 11 13  1  0  0  0
 11 14  1  0  0  0
 14 15  1  0  0  0
 14 29  1  0  0  0
 14 30  1  0  0  0
 15 16  2  0  0  0
 15 18  1  0  0  0
 16 17  1  0  0  0
 16 31  1  0  0  0
 17 20  2  0  0  0
 17 32  1  0  0  0
 18 19  2  0  0  0
 18 33  1  0  0  0
 19 20  1  0  0  0
 19 34  1  0  0  0
 20 21  1  0  0  0
M  CHG  3   3  -1   8  -1  13  -1
M  END
> <s_m_source_file>
../2c6c_ligand.sdf

> <i_m_source_file_index>
1

> <s_epik_input>
Tz1DKFtPSF0pW0NIMl1bQ0gyXVtDQEBIXShDKD1PKVtPSF0pW0NIMl1bUEBAXSg9TykoW09IXSlbQ0gyXWMxW2NIXVtjSF1jKEkpW2NIXVtjSF0x

> <s_epik_cmdline>
J2VwaWtfYXBwJywgJy1pbWFlJywgJ2xpZ2FuZF9wcm8ubWFlJywgJy1vbWFlJywgJ2xpZ2FuZF9wcmVwLm1hZScsICctbXMnLCAnMScsICctcGgnLCAnNycsICctcGh0JywgJzAuNScsICctbnQn

> <r_lp_tautomer_probability>
1

> <r_epik_Ionization_Penalty>
  0.0095

> <r_epik_Ionization_Penalty_Charging>
  0.0095

> <r_epik_Ionization_Penalty_Neutral>
  0.0000

> <r_epik_State_Penalty>
 -0.0000

> <r_epik_Charging_Adjusted_Penalty>
0.00952622827596749

> <i_epik_Tot_Q>
-3

> <i_epik_Tot_abs_Q>
3

$$$$
