2c6i_ligand
                    3D
 Schrodinger Suite 2020-3.
 50 53  0  0  1  0            999 V2000
    7.8650   26.0800    8.2840 O   0  0  0  0  0  0
    6.6910   25.5750    7.5540 S   0  0  0  0  0  0
    7.1400   25.2340    6.2070 O   0  0  0  0  0  0
    6.0630   24.3420    8.3670 N   0  0  0  0  0  0
    5.5300   26.8220    7.3390 C   0  0  0  0  0  0
    5.3050   27.3410    6.0700 C   0  0  0  0  0  0
    4.8320   27.2350    8.4800 C   0  0  0  0  0  0
    3.9010   28.2530    8.2970 C   0  0  0  0  0  0
    4.3590   28.3610    5.8990 C   0  0  0  0  0  0
    3.6510   28.8130    7.0250 C   0  0  0  0  0  0
    2.7320   29.8180    6.8610 N   0  0  0  0  0  0
    1.6300   30.0300    7.6560 C   0  0  0  0  0  0
    1.0380   31.2550    7.7170 N   0  0  0  0  0  0
   -0.0430   31.5170    8.4690 C   0  0  0  0  0  0
   -0.6290   30.5620    9.2090 N   0  0  0  0  0  0
   -0.3670   32.8210    8.3680 N   0  0  0  0  0  0
    0.5600   33.3420    7.5250 C   0  0  0  0  0  0
    1.4030   32.3730    7.1160 N   0  0  0  0  0  0
    1.0180   28.9900    8.3690 C   0  0  0  0  0  0
   -0.0980   29.2930    9.1560 C   0  0  0  0  0  0
   -0.3950   28.4590   11.2650 C   0  0  0  0  0  0
   -0.6940   28.3000    9.8760 O   0  0  0  0  0  0
   -0.6000   27.1080   11.9700 C   0  0  0  0  0  0
   -1.7920   26.2940   11.4500 C   0  0  0  0  0  0
   -1.8410   24.9440   12.1760 C   0  0  0  0  0  0
   -1.9490   25.1650   13.6910 C   0  0  0  0  0  0
   -0.7450   25.9710   14.1840 C   0  0  0  0  0  0
   -0.7370   27.3270   13.4790 C   0  0  0  0  0  0
    6.8250   23.5585    8.4911 H   0  0  0  0  0  0
    5.2056   23.9349    7.8110 H   0  0  0  0  0  0
    5.8600   26.9578    5.2137 H   0  0  0  0  0  0
    5.0078   26.7845    9.4569 H   0  0  0  0  0  0
    3.3497   28.6284    9.1591 H   0  0  0  0  0  0
    4.1769   28.7935    4.9152 H   0  0  0  0  0  0
    2.8459   30.5384    6.0376 H   0  0  0  0  0  0
    0.6148   34.3881    7.2236 H   0  0  0  0  0  0
    1.4018   27.9714    8.3117 H   0  0  0  0  0  0
    0.6488   28.7864   11.3802 H   0  0  0  0  0  0
   -1.0662   29.2138   11.7005 H   0  0  0  0  0  0
    0.2933   26.5072   11.7443 H   0  0  0  0  0  0
   -2.7239   26.8471   11.6387 H   0  0  0  0  0  0
   -1.6778   26.1262   10.3689 H   0  0  0  0  0  0
   -2.7158   24.3735   11.8307 H   0  0  0  0  0  0
   -0.9241   24.3769   11.9579 H   0  0  0  0  0  0
   -2.8733   25.7172   13.9160 H   0  0  0  0  0  0
   -1.9696   24.1916   14.2030 H   0  0  0  0  0  0
   -0.8220   26.1171   15.2715 H   0  0  0  0  0  0
    0.1815   25.4252   13.9521 H   0  0  0  0  0  0
    0.1112   27.9266   13.8410 H   0  0  0  0  0  0
   -1.6773   27.8580   13.6886 H   0  0  0  0  0  0
  1  2  2  0  0  0
  2  3  2  0  0  0
  2  4  1  0  0  0
  2  5  1  0  0  0
  4 29  1  0  0  0
  4 30  1  0  0  0
  5  6  2  0  0  0
  5  7  1  0  0  0
  6  9  1  0  0  0
  6 31  1  0  0  0
  7  8  2  0  0  0
  7 32  1  0  0  0
  8 10  1  0  0  0
  8 33  1  0  0  0
  9 10  2  0  0  0
  9 34  1  0  0  0
 10 11  1  0  0  0
 11 12  1  0  0  0
 11 35  1  0  0  0
 12 13  1  0  0  0
 12 19  2  0  0  0
 13 14  1  0  0  0
 13 18  1  0  0  0
 14 15  1  0  0  0
 14 16  2  0  0  0
 15 20  2  0  0  0
 16 17  1  0  0  0
 17 18  2  0  0  0
 17 36  1  0  0  0
 19 20  1  0  0  0
 19 37  1  0  0  0
 20 22  1  0  0  0
 21 22  1  0  0  0
 21 23  1  0  0  0
 21 38  1  0  0  0
 21 39  1  0  0  0
 23 24  1  0  0  0
 23 28  1  0  0  0
 23 40  1  0  0  0
 24 25  1  0  0  0
 24 41  1  0  0  0
 24 42  1  0  0  0
 25 26  1  0  0  0
 25 43  1  0  0  0
 25 44  1  0  0  0
 26 27  1  0  0  0
 26 45  1  0  0  0
 26 46  1  0  0  0
 27 28  1  0  0  0
 27 47  1  0  0  0
 27 48  1  0  0  0
 28 49  1  0  0  0
 28 50  1  0  0  0
M  END
> <s_m_source_file>
../2c6i_ligand.sdf

> <i_m_source_file_index>
1

> <s_epik_input>
Tz1TKD1PKShbTkgyXSljMVtjSF1bY0hdYyhbY0hdW2NIXTEpW05IXWMyW2NIXWMobmMobjIzKW5bY0hdbjMpT1tDSDJdW0NIXTRbQ0gyXVtDSDJdW0NIMl1bQ0gyXVtDSDJdNA==

> <s_epik_cmdline>
J2VwaWtfYXBwJywgJy1pbWFlJywgJ2xpZ2FuZF9wcm8ubWFlJywgJy1vbWFlJywgJ2xpZ2FuZF9wcmVwLm1hZScsICctbXMnLCAnMScsICctcGgnLCAnNycsICctcGh0JywgJzAuNScsICctbnQn

> <r_lp_tautomer_probability>
1

> <r_epik_Ionization_Penalty>
  0.0003

> <r_epik_Ionization_Penalty_Charging>
  0.0000

> <r_epik_Ionization_Penalty_Neutral>
  0.0003

> <r_epik_State_Penalty>
 -0.0000

> <r_epik_Charging_Adjusted_Penalty>
0

> <i_epik_Tot_Q>
0

> <i_epik_Tot_abs_Q>
0

$$$$
