2c6k_ligand
                    3D
 Schrodinger Suite 2020-3.
 48 51  0  0  1  0            999 V2000
    6.2400  -12.0470    6.8590 O   0  0  0  0  0  0
    6.6560  -10.7510    7.1710 S   0  0  0  0  0  0
    5.6040   -9.9930    7.6480 O   0  0  0  0  0  0
    7.3480  -10.0780    5.9650 N   0  0  0  0  0  0
    7.8480  -10.8850    8.4680 C   0  0  0  0  0  0
    8.1500  -12.1350    8.9940 C   0  0  0  0  0  0
    9.0900  -12.2590   10.0120 C   0  0  0  0  0  0
    9.7400  -11.1250   10.5040 C   0  0  0  0  0  0
    9.4240   -9.8540    9.9880 C   0  0  0  0  0  0
    8.4900   -9.7390    8.9600 C   0  0  0  0  0  0
   10.6320  -11.2550   11.5140 N   0  0  0  0  0  0
   11.7190  -10.4320   11.6290 C   0  0  0  0  0  0
   12.3240  -10.2990   12.8200 N   0  0  0  0  0  0
   12.0180  -10.8720   13.9780 N   0  0  0  0  0  0
   12.9080  -10.4240   14.8910 C   0  0  0  0  0  0
   13.3940   -9.5500   12.9720 C   0  0  0  0  0  0
   13.7700   -9.5820   14.2460 N   0  0  0  0  0  0
   13.9080   -8.8230   11.9530 N   0  0  0  0  0  0
   13.3660   -8.9130   10.7180 C   0  0  0  0  0  0
   12.2450   -9.7420   10.5180 C   0  0  0  0  0  0
   13.9630   -8.2450    9.6750 N   0  0  0  0  0  0
   13.2340   -7.8600    8.4730 C   0  0  0  0  0  0
   13.3010   -9.0800    7.5620 C   0  0  0  0  0  0
   12.7350   -8.7230    6.1900 C   0  0  0  0  0  0
   13.5550   -7.5900    5.5790 C   0  0  0  0  0  0
   13.4940   -6.3680    6.4910 C   0  0  0  0  0  0
   14.0570   -6.7270    7.8630 C   0  0  0  0  0  0
    6.6295   -9.9799    5.1379 H   0  0  0  0  0  0
    8.1993  -10.6941    5.6400 H   0  0  0  0  0  0
    7.6484  -13.0221    8.6074 H   0  0  0  0  0  0
    9.3192  -13.2411   10.4256 H   0  0  0  0  0  0
    9.9075   -8.9639   10.3906 H   0  0  0  0  0  0
    8.2589   -8.7604    8.5392 H   0  0  0  0  0  0
   10.4937  -12.0397   12.2724 H   0  0  0  0  0  0
   12.9337  -10.6863   15.9487 H   0  0  0  0  0  0
   11.7961   -9.8472    9.5303 H   0  0  0  0  0  0
   15.0314   -8.0018    9.7719 H   0  0  0  0  0  0
   12.1964   -7.5575    8.6775 H   0  0  0  0  0  0
   14.3478   -9.4003    7.4545 H   0  0  0  0  0  0
   12.7105   -9.8979    8.0005 H   0  0  0  0  0  0
   12.7819   -9.6043    5.5334 H   0  0  0  0  0  0
   11.6887   -8.4011    6.2974 H   0  0  0  0  0  0
   14.6007   -7.9127    5.4682 H   0  0  0  0  0  0
   13.1445   -7.3313    4.5918 H   0  0  0  0  0  0
   14.0891   -5.5533    6.0527 H   0  0  0  0  0  0
   12.4489   -6.0420    6.5979 H   0  0  0  0  0  0
   14.0107   -5.8456    8.5195 H   0  0  0  0  0  0
   15.1031   -7.0500    7.7561 H   0  0  0  0  0  0
  1  2  2  0  0  0
  2  3  2  0  0  0
  2  4  1  0  0  0
  2  5  1  0  0  0
  4 28  1  0  0  0
  4 29  1  0  0  0
  5  6  2  0  0  0
  5 10  1  0  0  0
  6  7  1  0  0  0
  6 30  1  0  0  0
  7  8  2  0  0  0
  7 31  1  0  0  0
  8  9  1  0  0  0
  8 11  1  0  0  0
  9 10  2  0  0  0
  9 32  1  0  0  0
 10 33  1  0  0  0
 11 12  1  0  0  0
 11 34  1  0  0  0
 12 13  1  0  0  0
 12 20  2  0  0  0
 13 14  1  0  0  0
 13 16  1  0  0  0
 14 15  2  0  0  0
 15 17  1  0  0  0
 15 35  1  0  0  0
 16 17  2  0  0  0
 16 18  1  0  0  0
 18 19  2  0  0  0
 19 20  1  0  0  0
 19 21  1  0  0  0
 20 36  1  0  0  0
 21 22  1  0  0  0
 21 37  1  0  0  0
 22 23  1  0  0  0
 22 27  1  0  0  0
 22 38  1  0  0  0
 23 24  1  0  0  0
 23 39  1  0  0  0
 23 40  1  0  0  0
 24 25  1  0  0  0
 24 41  1  0  0  0
 24 42  1  0  0  0
 25 26  1  0  0  0
 25 43  1  0  0  0
 25 44  1  0  0  0
 26 27  1  0  0  0
 26 45  1  0  0  0
 26 46  1  0  0  0
 27 47  1  0  0  0
 27 48  1  0  0  0
M  END
> <s_m_source_file>
../2c6k_ligand.sdf

> <i_m_source_file_index>
1

> <s_epik_input>
Tz1TKD1PKShbTkgyXSljMVtjSF1bY0hdYyhbY0hdW2NIXTEpW05IXWMyW2NIXWMobmMobjIzKW5bY0hdbjMpW05IXVtDSF00W0NIMl1bQ0gyXVtDSDJdW0NIMl1bQ0gyXTQ=

> <s_epik_cmdline>
J2VwaWtfYXBwJywgJy1pbWFlJywgJ2xpZ2FuZF9wcm8ubWFlJywgJy1vbWFlJywgJ2xpZ2FuZF9wcmVwLm1hZScsICctbXMnLCAnMScsICctcGgnLCAnNycsICctcGh0JywgJzAuNScsICctbnQn

> <r_lp_tautomer_probability>
1

> <r_epik_Ionization_Penalty>
  0.0005

> <r_epik_Ionization_Penalty_Charging>
  0.0000

> <r_epik_Ionization_Penalty_Neutral>
  0.0005

> <r_epik_State_Penalty>
 -0.0000

> <r_epik_Charging_Adjusted_Penalty>
0

> <i_epik_Tot_Q>
0

> <i_epik_Tot_abs_Q>
0

$$$$
