2c6l_ligand
                    3D
 Schrodinger Suite 2020-3.
 51 54  0  0  1  0            999 V2000
    5.8780  -12.0370    6.8320 O   0  0  0  0  0  0
    6.4730  -10.8020    7.0150 S   0  0  0  0  0  0
    5.5680   -9.8720    7.4710 O   0  0  0  0  0  0
    7.1820  -10.3250    5.7270 N   0  0  0  0  0  0
    7.7030  -10.9970    8.2720 C   0  0  0  0  0  0
    8.0150  -12.2700    8.7390 C   0  0  0  0  0  0
    8.9590  -12.4360    9.7320 C   0  0  0  0  0  0
    9.6070  -11.3230   10.2760 C   0  0  0  0  0  0
    9.2790  -10.0330    9.8280 C   0  0  0  0  0  0
    8.3340   -9.8720    8.8190 C   0  0  0  0  0  0
   10.5080  -11.4970   11.2850 N   0  0  0  0  0  0
   11.6070  -10.7240   11.3800 C   0  0  0  0  0  0
   12.2050  -10.5550   12.5570 N   0  0  0  0  0  0
   11.8770  -11.0470   13.7320 N   0  0  0  0  0  0
   12.7900  -10.5820   14.6340 C   0  0  0  0  0  0
   13.2850   -9.8110   12.6790 C   0  0  0  0  0  0
   13.6730   -9.8060   13.9580 N   0  0  0  0  0  0
   13.8370   -9.1820   11.6190 N   0  0  0  0  0  0
   13.2530   -9.3030   10.3950 C   0  0  0  0  0  0
   12.1390  -10.1100   10.2550 C   0  0  0  0  0  0
   13.8370   -8.7680    9.3050 N   0  0  0  0  0  0
   13.7310   -7.3600    8.9880 C   0  0  2  0  0  0
   14.4750   -7.2050    7.6630 C   0  0  0  0  0  0
   14.6010   -5.7250    7.3210 C   0  0  0  0  0  0
   15.3790   -5.0150    8.4210 C   0  0  1  0  0  0
   15.5140   -3.5880    8.0860 N   0  3  0  0  0  0
   14.6350   -5.1620    9.7460 C   0  0  0  0  0  0
   14.5020   -6.6430   10.0950 C   0  0  0  0  0  0
    6.4391  -10.1950    4.9262 H   0  0  0  0  0  0
    7.9259  -11.0745    5.4190 H   0  0  0  0  0  0
    7.5114  -13.1404    8.3185 H   0  0  0  0  0  0
    9.1996  -13.4361   10.0926 H   0  0  0  0  0  0
    9.7626   -9.1613   10.2688 H   0  0  0  0  0  0
    8.0858   -8.8747    8.4558 H   0  0  0  0  0  0
   10.3438  -12.2799   12.0401 H   0  0  0  0  0  0
   12.8063  -10.7955   15.7028 H   0  0  0  0  0  0
   11.6854  -10.2616    9.2755 H   0  0  0  0  0  0
   14.4087   -9.4385    8.6465 H   0  0  0  0  0  0
   12.6884   -7.0152    8.9243 H   0  0  0  0  0  0
   15.4782   -7.6475    7.7519 H   0  0  0  0  0  0
   13.9168   -7.7191    6.8667 H   0  0  0  0  0  0
   15.1331   -5.6137    6.3647 H   0  0  0  0  0  0
   13.5979   -5.2816    7.2362 H   0  0  0  0  0  0
   16.3937   -5.4320    8.5015 H   0  0  0  0  0  0
   16.0503   -3.4847    7.1311 H   0  0  0  0  0  0
   16.0776   -3.0766    8.8803 H   0  0  0  0  0  0
   14.5150   -3.1364    7.9963 H   0  0  0  0  0  0
   15.1956   -4.6474   10.5403 H   0  0  0  0  0  0
   13.6337   -4.7156    9.6558 H   0  0  0  0  0  0
   13.9602   -6.7482   11.0465 H   0  0  0  0  0  0
   15.5032   -7.0881   10.1920 H   0  0  0  0  0  0
  1  2  2  0  0  0
  2  3  2  0  0  0
  2  4  1  0  0  0
  2  5  1  0  0  0
  4 29  1  0  0  0
  4 30  1  0  0  0
  5  6  2  0  0  0
  5 10  1  0  0  0
  6  7  1  0  0  0
  6 31  1  0  0  0
  7  8  2  0  0  0
  7 32  1  0  0  0
  8  9  1  0  0  0
  8 11  1  0  0  0
  9 10  2  0  0  0
  9 33  1  0  0  0
 10 34  1  0  0  0
 11 12  1  0  0  0
 11 35  1  0  0  0
 12 13  1  0  0  0
 12 20  2  0  0  0
 13 14  1  0  0  0
 13 16  1  0  0  0
 14 15  2  0  0  0
 15 17  1  0  0  0
 15 36  1  0  0  0
 16 17  2  0  0  0
 16 18  1  0  0  0
 18 19  2  0  0  0
 19 20  1  0  0  0
 19 21  1  0  0  0
 20 37  1  0  0  0
 21 22  1  0  0  0
 21 38  1  0  0  0
 22 23  1  0  0  0
 22 28  1  0  0  0
 22 39  1  0  0  0
 23 24  1  0  0  0
 23 40  1  0  0  0
 23 41  1  0  0  0
 24 25  1  0  0  0
 24 42  1  0  0  0
 24 43  1  0  0  0
 25 26  1  0  0  0
 25 27  1  0  0  0
 25 44  1  0  0  0
 26 45  1  0  0  0
 26 46  1  0  0  0
 26 47  1  0  0  0
 27 28  1  0  0  0
 27 48  1  0  0  0
 27 49  1  0  0  0
 28 50  1  0  0  0
 28 51  1  0  0  0
M  CHG  1  26   1
M  END
> <s_m_source_file>
../2c6l_ligand.sdf

> <i_m_source_file_index>
1

> <s_epik_input>
Tz1TKD1PKShbTkgyXSljMVtjSF1bY0hdYyhbY0hdW2NIXTEpW05IXWMyW2NIXWMobmMobjIzKW5bY0hdbjMpW05IXVtDQEBIXTRbQ0gyXVtDSDJdW0NAQEhdKFtOSDMrXSlbQ0gyXVtDSDJdNA==

> <s_epik_cmdline>
J2VwaWtfYXBwJywgJy1pbWFlJywgJ2xpZ2FuZF9wcm8ubWFlJywgJy1vbWFlJywgJ2xpZ2FuZF9wcmVwLm1hZScsICctbXMnLCAnMScsICctcGgnLCAnNycsICctcGh0JywgJzAuNScsICctbnQn

> <r_lp_tautomer_probability>
1

> <r_epik_Ionization_Penalty>
  0.0007

> <r_epik_Ionization_Penalty_Charging>
  0.0002

> <r_epik_Ionization_Penalty_Neutral>
  0.0004

> <r_epik_State_Penalty>
 -0.0000

> <r_epik_Charging_Adjusted_Penalty>
0.000233472693678441

> <i_epik_Tot_Q>
1

> <i_epik_Tot_abs_Q>
1

$$$$
