2c6m_ligand
                    3D
 Schrodinger Suite 2020-3.
 47 50  0  0  1  0            999 V2000
    6.1140  -12.0210    6.9000 N   0  0  0  0  0  0
    6.6110  -10.5820    7.3350 S   0  0  0  0  0  0
    7.2320   -9.9080    6.1890 O   0  0  0  0  0  0
    5.4820   -9.7940    7.8170 O   0  0  0  0  0  0
    7.7930  -10.7200    8.5890 C   0  0  0  0  0  0
    8.0910  -11.9570    9.1300 C   0  0  0  0  0  0
    8.4570   -9.5710    9.0410 C   0  0  0  0  0  0
    9.4190   -9.6660   10.0390 C   0  0  0  0  0  0
    9.0400  -12.0580   10.1430 C   0  0  0  0  0  0
    9.7420  -10.9150   10.5760 C   0  0  0  0  0  0
   10.6100  -11.0310   11.6250 N   0  0  0  0  0  0
   11.7600  -10.2450   11.8100 C   0  0  0  0  0  0
   12.3410  -10.2420   13.0150 N   0  0  0  0  0  0
   13.4410   -9.5510   13.2630 C   0  0  0  0  0  0
   14.0340   -8.7990   12.3310 N   0  0  0  0  0  0
   13.7520   -9.6740   14.5510 N   0  0  0  0  0  0
   12.8130  -10.4920   15.1050 C   0  0  0  0  0  0
   11.9550  -10.8540   14.1150 N   0  0  0  0  0  0
   12.3890   -9.5160   10.7480 C   0  0  0  0  0  0
   13.5490   -8.7620   11.0640 C   0  0  0  0  0  0
   14.2540   -8.0350   10.1230 O   0  0  0  0  0  0
   13.6090   -7.8770    8.9240 C   0  0  0  0  0  0
   14.2050   -8.8760    7.9240 C   0  0  0  0  0  0
   13.6270   -8.6400    6.5200 C   0  0  0  0  0  0
   13.9550   -7.2180    6.0580 C   0  0  0  0  0  0
   13.3320   -6.2180    7.0330 C   0  0  0  0  0  0
   13.9010   -6.4470    8.4370 C   0  0  0  0  0  0
    5.3627  -11.9238    6.1024 H   0  0  0  0  0  0
    5.6661  -12.5313    7.7654 H   0  0  0  0  0  0
    7.5844  -12.8501    8.7643 H   0  0  0  0  0  0
    8.2177   -8.5997    8.6080 H   0  0  0  0  0  0
    9.9203   -8.7688   10.4020 H   0  0  0  0  0  0
    9.2413  -13.0252   10.6035 H   0  0  0  0  0  0
   10.4313  -11.7847   12.4060 H   0  0  0  0  0  0
   12.7599  -10.7992   16.1495 H   0  0  0  0  0  0
   11.9905   -9.5400    9.7338 H   0  0  0  0  0  0
   12.5441   -8.0666    9.1241 H   0  0  0  0  0  0
   15.2972   -8.7504    7.8870 H   0  0  0  0  0  0
   13.9644   -9.9011    8.2422 H   0  0  0  0  0  0
   14.0668   -9.3621    5.8163 H   0  0  0  0  0  0
   12.5352   -8.7717    6.5460 H   0  0  0  0  0  0
   15.0464   -7.0822    6.0361 H   0  0  0  0  0  0
   13.5451   -7.0562    5.0501 H   0  0  0  0  0  0
   13.5651   -5.1938    6.7066 H   0  0  0  0  0  0
   12.2410   -6.3569    7.0535 H   0  0  0  0  0  0
   13.4408   -5.7238    9.1263 H   0  0  0  0  0  0
   14.9885   -6.2846    8.4076 H   0  0  0  0  0  0
  1  2  1  0  0  0
  1 28  1  0  0  0
  1 29  1  0  0  0
  2  3  2  0  0  0
  2  4  2  0  0  0
  2  5  1  0  0  0
  5  6  2  0  0  0
  5  7  1  0  0  0
  6  9  1  0  0  0
  6 30  1  0  0  0
  7  8  2  0  0  0
  7 31  1  0  0  0
  8 10  1  0  0  0
  8 32  1  0  0  0
  9 10  2  0  0  0
  9 33  1  0  0  0
 10 11  1  0  0  0
 11 12  1  0  0  0
 11 34  1  0  0  0
 12 13  1  0  0  0
 12 19  2  0  0  0
 13 14  1  0  0  0
 13 18  1  0  0  0
 14 15  1  0  0  0
 14 16  2  0  0  0
 15 20  2  0  0  0
 16 17  1  0  0  0
 17 18  2  0  0  0
 17 35  1  0  0  0
 19 20  1  0  0  0
 19 36  1  0  0  0
 20 21  1  0  0  0
 21 22  1  0  0  0
 22 23  1  0  0  0
 22 27  1  0  0  0
 22 37  1  0  0  0
 23 24  1  0  0  0
 23 38  1  0  0  0
 23 39  1  0  0  0
 24 25  1  0  0  0
 24 40  1  0  0  0
 24 41  1  0  0  0
 25 26  1  0  0  0
 25 42  1  0  0  0
 25 43  1  0  0  0
 26 27  1  0  0  0
 26 44  1  0  0  0
 26 45  1  0  0  0
 27 46  1  0  0  0
 27 47  1  0  0  0
M  END
> <s_m_source_file>
../2c6m_ligand.sdf

> <i_m_source_file_index>
1

> <s_epik_input>
W05IMl1TKD1PKSg9TyljMVtjSF1bY0hdYyhbY0hdW2NIXTEpW05IXWMyW2NIXWMobmMobjIzKW5bY0hdbjMpT1tDSF00W0NIMl1bQ0gyXVtDSDJdW0NIMl1bQ0gyXTQ=

> <s_epik_cmdline>
J2VwaWtfYXBwJywgJy1pbWFlJywgJ2xpZ2FuZF9wcm8ubWFlJywgJy1vbWFlJywgJ2xpZ2FuZF9wcmVwLm1hZScsICctbXMnLCAnMScsICctcGgnLCAnNycsICctcGh0JywgJzAuNScsICctbnQn

> <r_lp_tautomer_probability>
1

> <r_epik_Ionization_Penalty>
  0.0003

> <r_epik_Ionization_Penalty_Charging>
  0.0000

> <r_epik_Ionization_Penalty_Neutral>
  0.0003

> <r_epik_State_Penalty>
 -0.0000

> <r_epik_Charging_Adjusted_Penalty>
0

> <i_epik_Tot_Q>
0

> <i_epik_Tot_abs_Q>
0

$$$$
