2c6n_ligand
                    3D
 Schrodinger Suite 2020-3.
 58 59  0  0  1  0            999 V2000
  -28.3030  -20.4080  -34.7740 O   0  5  0  0  0  0
  -26.2890  -21.2360  -34.7760 O   0  0  0  0  0  0
  -27.0740  -20.3500  -34.4390 C   0  0  0  0  0  0
  -26.5420  -19.1290  -33.6480 C   0  0  2  0  0  0
  -26.4180  -19.7210  -32.3000 C   0  0  0  0  0  0
  -25.1380  -20.3740  -31.8460 C   0  0  0  0  0  0
  -24.9480  -20.9490  -30.4960 C   0  0  0  0  0  0
  -25.5160  -20.3160  -29.2880 C   0  0  0  0  0  0
  -25.2750  -20.9120  -27.9950 C   0  0  0  0  0  0
  -24.4700  -22.1380  -27.8800 C   0  0  0  0  0  0
  -23.9090  -22.7670  -29.0800 C   0  0  0  0  0  0
  -24.1500  -22.1680  -30.3820 C   0  0  0  0  0  0
  -27.1190  -18.1380  -33.9690 N   0  3  0  0  0  0
  -28.5840  -11.5430  -36.0340 N   0  3  0  0  0  0
  -25.8070  -17.1520  -35.8840 C   0  0  0  0  0  0
  -27.2610  -17.5220  -35.3340 C   0  0  2  0  0  0
  -24.8520  -17.0380  -35.0470 O   0  0  0  0  0  0
  -28.1220  -16.2850  -35.2840 C   0  0  0  0  0  0
  -27.6920  -15.0040  -34.7730 C   0  0  0  0  0  0
  -28.2810  -13.8180  -35.6110 C   0  0  0  0  0  0
  -27.9410  -12.5420  -35.1450 C   0  0  0  0  0  0
  -22.5700  -15.1820  -36.9960 O   0  5  0  0  0  0
  -24.4740  -14.2250  -37.5470 O   0  0  0  0  0  0
  -25.6100  -16.9680  -37.2440 N   0  0  0  0  0  0
  -24.2490  -16.6190  -37.8570 C   0  0  1  0  0  0
  -24.6010  -16.5590  -39.3420 C   0  0  0  0  0  0
  -25.9190  -16.8080  -39.5360 C   0  0  0  0  0  0
  -26.6480  -17.0770  -38.3050 C   0  0  0  0  0  0
  -23.7700  -15.1860  -37.4400 C   0  0  0  0  0  0
  -25.7114  -18.4358  -33.8470 H   0  0  0  0  0  0
  -26.5876  -18.9431  -31.5409 H   0  0  0  0  0  0
  -27.1651  -20.5194  -32.1800 H   0  0  0  0  0  0
  -24.9144  -21.2333  -32.4953 H   0  0  0  0  0  0
  -24.3147  -19.6467  -31.9039 H   0  0  0  0  0  0
  -26.1117  -19.4071  -29.3720 H   0  0  0  0  0  0
  -25.6917  -20.4511  -27.0994 H   0  0  0  0  0  0
  -24.2901  -22.5801  -26.9001 H   0  0  0  0  0  0
  -23.3155  -23.6774  -28.9960 H   0  0  0  0  0  0
  -23.7338  -22.6299  -31.2773 H   0  0  0  0  0  0
  -28.1846  -18.2352  -33.7137 H   0  0  0  0  0  0
  -26.6915  -17.2759  -33.4362 H   0  0  0  0  0  0
  -28.3322  -10.5293  -35.6890 H   0  0  0  0  0  0
  -29.6753  -11.6784  -36.0088 H   0  0  0  0  0  0
  -28.2211  -11.6808  -37.0632 H   0  0  0  0  0  0
  -27.7976  -18.2454  -35.9655 H   0  0  0  0  0  0
  -28.4392  -16.0176  -36.3028 H   0  0  0  0  0  0
  -29.0089  -16.4804  -34.6633 H   0  0  0  0  0  0
  -28.0288  -14.8928  -33.7318 H   0  0  0  0  0  0
  -26.5943  -14.9435  -34.8117 H   0  0  0  0  0  0
  -27.9162  -13.8842  -36.6466 H   0  0  0  0  0  0
  -29.3795  -13.8747  -35.6049 H   0  0  0  0  0  0
  -26.8497  -12.4066  -35.1702 H   0  0  0  0  0  0
  -28.3038  -12.4043  -34.1157 H   0  0  0  0  0  0
  -23.4703  -17.3409  -37.5699 H   0  0  0  0  0  0
  -23.9480  -16.3512  -40.2025 H   0  0  0  0  0  0
  -26.3376  -16.7934  -40.5531 H   0  0  0  0  0  0
  -27.0815  -18.0879  -38.2914 H   0  0  0  0  0  0
  -27.4399  -16.3360  -38.1208 H   0  0  0  0  0  0
  1  3  1  0  0  0
  2  3  2  0  0  0
  3  4  1  0  0  0
  4  5  1  0  0  0
  4 13  1  0  0  0
  4 30  1  0  0  0
  5  6  1  0  0  0
  5 31  1  0  0  0
  5 32  1  0  0  0
  6  7  1  0  0  0
  6 33  1  0  0  0
  6 34  1  0  0  0
  7  8  2  0  0  0
  7 12  1  0  0  0
  8  9  1  0  0  0
  8 35  1  0  0  0
  9 10  2  0  0  0
  9 36  1  0  0  0
 10 11  1  0  0  0
 10 37  1  0  0  0
 11 12  2  0  0  0
 11 38  1  0  0  0
 12 39  1  0  0  0
 13 16  1  0  0  0
 13 40  1  0  0  0
 13 41  1  0  0  0
 14 21  1  0  0  0
 14 42  1  0  0  0
 14 43  1  0  0  0
 14 44  1  0  0  0
 15 16  1  0  0  0
 15 17  2  0  0  0
 15 24  1  0  0  0
 16 18  1  0  0  0
 16 45  1  0  0  0
 18 19  1  0  0  0
 18 46  1  0  0  0
 18 47  1  0  0  0
 19 20  1  0  0  0
 19 48  1  0  0  0
 19 49  1  0  0  0
 20 21  1  0  0  0
 20 50  1  0  0  0
 20 51  1  0  0  0
 21 52  1  0  0  0
 21 53  1  0  0  0
 22 29  1  0  0  0
 23 29  2  0  0  0
 24 25  1  0  0  0
 24 28  1  0  0  0
 25 26  1  0  0  0
 25 29  1  0  0  0
 25 54  1  0  0  0
 26 27  2  0  0  0
 26 55  1  0  0  0
 27 28  1  0  0  0
 27 56  1  0  0  0
 28 57  1  0  0  0
 28 58  1  0  0  0
M  CHG  4   1  -1  13   1  14   1  22  -1
M  END
> <s_m_source_file>
../2c6n_ligand.sdf

> <i_m_source_file_index>
1

> <s_epik_input>
W0NIMl0xW0NIXT1bQ0hdW0NAQEhdKEMoPU8pW09IXSlOMUMoPU8pW0NASF0oW0NIMl1bQ0gyXVtDSDJdW0NIMl1bTkgzK10pW05IMitdW0NASF0oQyg9TylbT0hdKVtDSDJdW0NIMl1jMltjSF1bY0hdW2NIXVtjSF1bY0hdMg==

> <s_epik_cmdline>
J2VwaWtfYXBwJywgJy1pbWFlJywgJ2xpZ2FuZF9wcm8ubWFlJywgJy1vbWFlJywgJ2xpZ2FuZF9wcmVwLm1hZScsICctbXMnLCAnMScsICctcGgnLCAnNycsICctcGh0JywgJzAuNScsICctbnQn

> <r_epik_Ionization_Penalty>
  0.1804

> <r_epik_Ionization_Penalty_Charging>
  0.1804

> <r_epik_Ionization_Penalty_Neutral>
  0.0000

> <r_epik_State_Penalty>
  0.1693

> <r_epik_Charging_Adjusted_Penalty>
0.349733151503783

> <i_epik_Tot_Q>
0

> <i_epik_Tot_abs_Q>
4

$$$$
