2c6o_ligand
                    3D
 Schrodinger Suite 2020-3.
 50 53  0  0  1  0            999 V2000
   11.1610  -10.9210   12.0300 C   0  0  0  0  0  0
   14.5130   -9.3380   14.3240 C   0  0  0  0  0  0
   12.7990   -8.2390    9.1340 C   0  0  0  0  0  0
   13.6490   -7.0450    8.6870 C   0  0  0  0  0  0
   13.0310   -6.0320    7.7410 C   0  0  0  0  0  0
   13.7020   -4.6620    7.9730 C   0  0  0  0  0  0
   15.2210   -4.7530    7.7320 C   0  0  0  0  0  0
   15.8200   -6.1550    8.1270 C   0  0  0  0  0  0
   14.9100   -7.4130    7.9720 C   0  0  0  0  0  0
    7.4550  -12.0300    9.1550 C   0  0  0  0  0  0
    7.6260  -10.8820    8.3830 C   0  0  0  0  0  0
    8.6270   -9.9700    8.7320 C   0  0  0  0  0  0
    9.4620  -10.2110    9.8480 C   0  0  0  0  0  0
    7.2460   -9.6050    5.8070 N   0  0  0  0  0  0
   11.7660  -10.1610   11.0430 N   0  0  0  0  0  0
   12.8640   -9.4250   11.2830 C   0  0  0  0  0  0
   13.5020   -8.6820   10.3840 O   0  0  0  0  0  0
   13.4100   -9.5190   12.5370 C   0  0  0  0  0  0
   14.4690   -8.9600   13.0550 N   0  0  0  0  0  0
   13.4840  -10.1640   14.5740 N   0  3  0  0  0  0
   12.7740  -10.2850   13.5300 C   0  0  0  0  0  0
   11.6770  -10.9880   13.2900 N   0  0  0  0  0  0
   10.0330  -11.6130   11.7300 N   0  0  0  0  0  0
    9.2890  -11.3560   10.6390 C   0  0  0  0  0  0
    8.2740  -12.2530   10.2600 C   0  0  0  0  0  0
    6.5670  -10.5610    6.9880 S   0  0  0  0  0  0
    5.3870   -9.9200    7.6140 O   0  0  0  0  0  0
    6.2220  -11.7970    6.2810 O   0  0  0  0  0  0
   15.3150   -8.9691   14.9803 H   0  0  0  0  0  0
   11.7669   -7.9059    9.3180 H   0  0  0  0  0  0
   12.8016   -9.0065    8.3460 H   0  0  0  0  0  0
   13.8179   -6.5971    9.6774 H   0  0  0  0  0  0
   13.1920   -6.3549    6.7019 H   0  0  0  0  0  0
   11.9515   -5.9568    7.9385 H   0  0  0  0  0  0
   13.2753   -3.9226    7.2793 H   0  0  0  0  0  0
   13.5249   -4.3377    9.0091 H   0  0  0  0  0  0
   15.4338   -4.5856    6.6658 H   0  0  0  0  0  0
   15.7341   -3.9877    8.3328 H   0  0  0  0  0  0
   16.7035   -6.3644    7.5060 H   0  0  0  0  0  0
   16.1117   -6.1435    9.1876 H   0  0  0  0  0  0
   15.3525   -8.3028    8.4435 H   0  0  0  0  0  0
   14.6836   -7.6310    6.9179 H   0  0  0  0  0  0
    6.6815  -12.7524    8.8945 H   0  0  0  0  0  0
    8.7649   -9.0658    8.1391 H   0  0  0  0  0  0
   10.2489   -9.4987   10.0960 H   0  0  0  0  0  0
    6.5230   -9.4619    4.9905 H   0  0  0  0  0  0
    8.1502  -10.0935    5.4148 H   0  0  0  0  0  0
    9.6923  -12.4230   12.3917 H   0  0  0  0  0  0
    8.1226  -13.1554   10.8523 H   0  0  0  0  0  0
   13.3695  -10.6137   15.5713 H   0  0  0  0  0  0
  1 15  2  0  0  0
  1 22  1  0  0  0
  1 23  1  0  0  0
  2 19  2  0  0  0
  2 20  1  0  0  0
  2 29  1  0  0  0
  3  4  1  0  0  0
  3 17  1  0  0  0
  3 30  1  0  0  0
  3 31  1  0  0  0
  4  5  1  0  0  0
  4  9  1  0  0  0
  4 32  1  0  0  0
  5  6  1  0  0  0
  5 33  1  0  0  0
  5 34  1  0  0  0
  6  7  1  0  0  0
  6 35  1  0  0  0
  6 36  1  0  0  0
  7  8  1  0  0  0
  7 37  1  0  0  0
  7 38  1  0  0  0
  8  9  1  0  0  0
  8 39  1  0  0  0
  8 40  1  0  0  0
  9 41  1  0  0  0
  9 42  1  0  0  0
 10 11  2  0  0  0
 10 25  1  0  0  0
 10 43  1  0  0  0
 11 12  1  0  0  0
 11 26  1  0  0  0
 12 13  2  0  0  0
 12 44  1  0  0  0
 13 24  1  0  0  0
 13 45  1  0  0  0
 14 26  1  0  0  0
 14 46  1  0  0  0
 14 47  1  0  0  0
 15 16  1  0  0  0
 16 17  1  0  0  0
 16 18  2  0  0  0
 18 19  1  0  0  0
 18 21  1  0  0  0
 20 21  1  0  0  0
 20 50  1  0  0  0
 21 22  2  0  0  0
 23 24  1  0  0  0
 23 48  1  0  0  0
 24 25  2  0  0  0
 25 49  1  0  0  0
 26 27  2  0  0  0
 26 28  2  0  0  0
M  CHG  1  20   1
M  END
> <s_m_source_file>
../2c6o_ligand.sdf

> <i_m_source_file_index>
1

> <s_epik_input>
W05IMl1TKD1PKSg9TyljMVtjSF1bY0hdYyhbY0hdW2NIXTEpW05IXWMobmMoYzIzKVtuSF1bY0hdbjMpbmMyT1tDSDJdW0NIXTRbQ0gyXVtDSDJdW0NIMl1bQ0gyXVtDSDJdNA==

> <s_epik_cmdline>
J2VwaWtfYXBwJywgJy1pbWFlJywgJ2xpZ2FuZF9wcm8ubWFlJywgJy1vbWFlJywgJ2xpZ2FuZF9wcmVwLm1hZScsICctbXMnLCAnMScsICctcGgnLCAnNycsICctcGh0JywgJzAuNScsICctbnQn

> <r_lp_tautomer_probability>
1

> <r_epik_Ionization_Penalty>
  0.0096

> <r_epik_Ionization_Penalty_Charging>
  0.0000

> <r_epik_Ionization_Penalty_Neutral>
  0.0096

> <r_epik_State_Penalty>
 -0.0000

> <r_epik_Charging_Adjusted_Penalty>
0

> <i_epik_Tot_Q>
1

> <i_epik_Tot_abs_Q>
1

> <s_epik_Chemistry_Notes>
This compound has an imine and may undergo hydrolysis.

$$$$
