2c80_ligand
                    3D
 Schrodinger Suite 2020-3.
 54 53  0  0  1  0            999 V2000
  -10.8020   26.4010   -2.1630 N   0  3  0  0  0  0
  -11.8480   27.0190   -2.9550 C   0  0  2  0  0  0
  -12.2020   26.1250   -4.1030 C   0  0  0  0  0  0
  -11.3120   25.5120   -4.7300 O   0  5  0  0  0  0
  -13.3910   26.0020   -4.4530 O   0  0  0  0  0  0
  -11.3810   28.3670   -3.4990 C   0  0  0  0  0  0
  -12.5510   29.1780   -4.0660 C   0  0  0  0  0  0
  -12.0830   30.5440   -4.5110 C   0  0  0  0  0  0
  -10.8900   31.0810   -3.9970 O   0  0  0  0  0  0
  -12.8450   31.1940   -5.3940 N   0  0  0  0  0  0
  -12.4440   32.4530   -6.0040 C   0  0  2  0  0  0
  -13.5910   33.4080   -6.0840 C   0  0  0  0  0  0
  -14.8890   32.9090   -6.2870 O   0  0  0  0  0  0
  -11.8360   32.2500   -7.3980 C   0  0  0  0  0  0
  -10.8320   30.7390   -7.5330 S   0  0  0  0  0  0
   -9.4230   31.5750   -6.7570 C   0  0  0  0  0  0
   -8.2020   30.6740   -6.6170 C   0  0  0  0  0  0
   -7.0830   31.1900   -7.5150 C   0  0  0  0  0  0
   -6.8780   30.2820   -8.7220 C   0  0  0  0  0  0
   -6.3350   31.0750   -9.9060 C   0  0  0  0  0  0
   -5.3730   30.2420  -10.7490 C   0  0  0  0  0  0
  -13.3060   34.7030   -5.9620 N   0  0  0  0  0  0
  -14.2730   35.7360   -6.2850 C   0  0  0  0  0  0
  -14.8700   36.3120   -5.0280 C   0  0  0  0  0  0
  -15.8330   37.1040   -5.0750 O   0  5  0  0  0  0
  -14.3960   36.0010   -3.9170 O   0  0  0  0  0  0
  -11.1559   25.4324   -1.7800 H   0  0  0  0  0  0
  -10.5451   27.0575   -1.3186 H   0  0  0  0  0  0
   -9.9117   26.2443   -2.7897 H   0  0  0  0  0  0
  -12.7114   27.1412   -2.2845 H   0  0  0  0  0  0
  -10.9145   28.9474   -2.6894 H   0  0  0  0  0  0
  -10.6479   28.2040   -4.3027 H   0  0  0  0  0  0
  -12.9795   28.6486   -4.9298 H   0  0  0  0  0  0
  -13.3223   29.2999   -3.2912 H   0  0  0  0  0  0
  -13.8119   30.7394   -5.6557 H   0  0  0  0  0  0
  -11.6913   32.8590   -5.3122 H   0  0  0  0  0  0
  -12.6423   32.1793   -8.1429 H   0  0  0  0  0  0
  -11.1852   33.1026   -7.6419 H   0  0  0  0  0  0
   -9.1306   32.4429   -7.3663 H   0  0  0  0  0  0
   -9.7068   31.9133   -5.7495 H   0  0  0  0  0  0
   -7.8626   30.6763   -5.5707 H   0  0  0  0  0  0
   -8.4669   29.6486   -6.9142 H   0  0  0  0  0  0
   -7.3369   32.1980   -7.8747 H   0  0  0  0  0  0
   -6.1437   31.2303   -6.9440 H   0  0  0  0  0  0
   -6.1605   29.4885   -8.4662 H   0  0  0  0  0  0
   -7.8389   29.8293   -9.0077 H   0  0  0  0  0  0
   -7.1698   31.3945  -10.5471 H   0  0  0  0  0  0
   -5.7957   31.9603   -9.5380 H   0  0  0  0  0  0
   -5.0044   30.8473  -11.5903 H   0  0  0  0  0  0
   -5.8978   29.3564  -11.1366 H   0  0  0  0  0  0
   -4.5236   29.9221  -10.1275 H   0  0  0  0  0  0
  -12.3034   34.9805   -5.6045 H   0  0  0  0  0  0
  -13.7758   36.5412   -6.8457 H   0  0  0  0  0  0
  -15.0784   35.3055   -6.8981 H   0  0  0  0  0  0
  1  2  1  0  0  0
  1 27  1  0  0  0
  1 28  1  0  0  0
  1 29  1  0  0  0
  2  3  1  0  0  0
  2  6  1  0  0  0
  2 30  1  0  0  0
  3  4  1  0  0  0
  3  5  2  0  0  0
  6  7  1  0  0  0
  6 31  1  0  0  0
  6 32  1  0  0  0
  7  8  1  0  0  0
  7 33  1  0  0  0
  7 34  1  0  0  0
  8  9  2  0  0  0
  8 10  1  0  0  0
 10 11  1  0  0  0
 10 35  1  0  0  0
 11 12  1  0  0  0
 11 14  1  0  0  0
 11 36  1  0  0  0
 12 13  2  0  0  0
 12 22  1  0  0  0
 14 15  1  0  0  0
 14 37  1  0  0  0
 14 38  1  0  0  0
 15 16  1  0  0  0
 16 17  1  0  0  0
 16 39  1  0  0  0
 16 40  1  0  0  0
 17 18  1  0  0  0
 17 41  1  0  0  0
 17 42  1  0  0  0
 18 19  1  0  0  0
 18 43  1  0  0  0
 18 44  1  0  0  0
 19 20  1  0  0  0
 19 45  1  0  0  0
 19 46  1  0  0  0
 20 21  1  0  0  0
 20 47  1  0  0  0
 20 48  1  0  0  0
 21 49  1  0  0  0
 21 50  1  0  0  0
 21 51  1  0  0  0
 22 23  1  0  0  0
 22 52  1  0  0  0
 23 24  1  0  0  0
 23 53  1  0  0  0
 23 54  1  0  0  0
 24 25  1  0  0  0
 24 26  2  0  0  0
M  CHG  3   1   1   4  -1  25  -1
M  END
> <s_m_source_file>
../2c80_ligand.sdf

> <i_m_source_file_index>
1

> <s_epik_input>
W09IXUMoPU8pW0NAQEhdKFtOSDMrXSlbQ0gyXVtDSDJdQyg9TylbTkhdW0NASF0oQyg9TylbTkhdW0NIMl1DKD1PKVtPSF0pW0NIMl1TW0NIMl1bQ0gyXVtDSDJdW0NIMl1bQ0gyXVtDSDNd

> <s_epik_cmdline>
J2VwaWtfYXBwJywgJy1pbWFlJywgJ2xpZ2FuZF9wcm8ubWFlJywgJy1vbWFlJywgJ2xpZ2FuZF9wcmVwLm1hZScsICctbXMnLCAnMScsICctcGgnLCAnNycsICctcGh0JywgJzAuNScsICctbnQn

> <r_lp_tautomer_probability>
1

> <r_epik_Ionization_Penalty>
  0.0025

> <r_epik_Ionization_Penalty_Charging>
  0.0025

> <r_epik_Ionization_Penalty_Neutral>
  0.0000

> <r_epik_State_Penalty>
 -0.0000

> <r_epik_Charging_Adjusted_Penalty>
0.00254311866569949

> <i_epik_Tot_Q>
-1

> <i_epik_Tot_abs_Q>
3

$$$$
