2c8w_ligand
                    3D
 Schrodinger Suite 2020-3.
 65 68  0  0  1  0            999 V2000
   -2.1020   20.2510   46.9570 C   0  0  0  0  0  0
   -0.9950   20.6250   46.1340 O   0  0  0  0  0  0
    0.1910   19.9440   46.2300 C   0  0  0  0  0  0
    1.2140   20.3070   45.3690 C   0  0  0  0  0  0
    2.4180   19.6680   45.3990 C   0  0  0  0  0  0
    2.6180   18.6300   46.2900 C   0  0  0  0  0  0
    1.6100   18.2520   47.1550 C   0  0  0  0  0  0
    0.3970   18.9090   47.1250 C   0  0  0  0  0  0
    4.1370   17.7640   46.3570 S   0  0  0  0  0  0
    3.7730   16.3870   46.3860 O   0  0  0  0  0  0
    4.9800   18.3660   45.3880 O   0  0  0  0  0  0
    4.7350   18.0420   47.8820 N   0  0  3  0  0  0
    5.1500   19.4130   48.1900 C   0  0  0  0  0  0
    5.6600   19.4950   49.6350 C   0  0  1  0  0  0
    6.8090   18.6590   49.7470 O   0  0  0  0  0  0
    6.0740   20.9230   50.0290 C   0  0  2  0  0  0
    4.8800   21.8780   49.9980 C   0  0  0  0  0  0
    3.7730   21.4350   50.9140 C   0  0  0  0  0  0
    2.5280   21.1230   50.3970 C   0  0  0  0  0  0
    1.5150   20.7230   51.2440 C   0  0  0  0  0  0
    1.7340   20.6440   52.6080 C   0  0  0  0  0  0
    2.9840   20.9520   53.1260 C   0  0  0  0  0  0
    4.0050   21.3530   52.2760 C   0  0  0  0  0  0
    7.1370   21.4290   49.1310 N   0  3  0  0  0  0
    7.9150   22.5430   49.7880 C   0  0  0  0  0  0
    9.1040   22.8590   48.9060 C   0  0  0  0  0  0
    9.0730   23.9920   48.0940 C   0  0  0  0  0  0
   10.1390   24.2690   47.2440 C   0  0  0  0  0  0
   10.1100   25.6890   46.2370 Cl  0  0  0  0  0  0
   11.2230   23.4010   47.1980 C   0  0  0  0  0  0
   11.2500   22.2590   47.9870 C   0  0  0  0  0  0
   10.1850   21.9820   48.8350 C   0  0  0  0  0  0
   10.2560   20.8420   49.6640 N   0  0  0  0  0  0
   10.2230   19.5310   49.3420 C   0  0  0  0  0  0
   10.3510   18.8550   50.4580 N   0  0  0  0  0  0
   10.4790   19.6420   51.4640 N   0  0  0  0  0  0
   10.4160   20.8630   51.0630 N   0  0  0  0  0  0
   -2.9583   20.9064   46.7397 H   0  0  0  0  0  0
   -1.8222   20.3522   48.0160 H   0  0  0  0  0  0
   -2.3774   19.2066   46.7487 H   0  0  0  0  0  0
    1.0537   21.1161   44.6565 H   0  0  0  0  0  0
    3.2180   19.9736   44.7247 H   0  0  0  0  0  0
    1.7722   17.4365   47.8598 H   0  0  0  0  0  0
   -0.3998   18.6124   47.8071 H   0  0  0  0  0  0
    4.9759   17.2249   48.5780 H   0  0  0  0  0  0
    5.9554   19.7151   47.5043 H   0  0  0  0  0  0
    4.2925   20.0914   48.0699 H   0  0  0  0  0  0
    4.8879   19.1211   50.3235 H   0  0  0  0  0  0
    6.7348   17.5875   49.5096 H   0  0  0  0  0  0
    6.4929   20.8976   51.0458 H   0  0  0  0  0  0
    5.2040   22.8805   50.3143 H   0  0  0  0  0  0
    4.4773   21.9285   48.9756 H   0  0  0  0  0  0
    2.3482   21.1930   49.3242 H   0  0  0  0  0  0
    0.5368   20.4678   50.8364 H   0  0  0  0  0  0
    0.9264   20.3405   53.2742 H   0  0  0  0  0  0
    3.1636   20.8791   54.1986 H   0  0  0  0  0  0
    4.9863   21.6025   52.6796 H   0  0  0  0  0  0
    7.8305   20.6109   48.8865 H   0  0  0  0  0  0
    6.6831   21.8137   48.2058 H   0  0  0  0  0  0
    7.2706   23.4284   49.8919 H   0  0  0  0  0  0
    8.2533   22.2169   50.7826 H   0  0  0  0  0  0
    8.2131   24.6611   48.1252 H   0  0  0  0  0  0
   12.0608   23.6189   46.5356 H   0  0  0  0  0  0
   12.1034   21.5824   47.9413 H   0  0  0  0  0  0
   10.1109   19.1131   48.3416 H   0  0  0  0  0  0
  1  2  1  0  0  0
  1 38  1  0  0  0
  1 39  1  0  0  0
  1 40  1  0  0  0
  2  3  1  0  0  0
  3  4  2  0  0  0
  3  8  1  0  0  0
  4  5  1  0  0  0
  4 41  1  0  0  0
  5  6  2  0  0  0
  5 42  1  0  0  0
  6  7  1  0  0  0
  6  9  1  0  0  0
  7  8  2  0  0  0
  7 43  1  0  0  0
  8 44  1  0  0  0
  9 10  2  0  0  0
  9 11  2  0  0  0
  9 12  1  0  0  0
 12 13  1  0  0  0
 12 45  1  0  0  0
 13 14  1  0  0  0
 13 46  1  0  0  0
 13 47  1  0  0  0
 14 15  1  0  0  0
 14 16  1  0  0  0
 14 48  1  0  0  0
 15 49  1  0  0  0
 16 17  1  0  0  0
 16 24  1  0  0  0
 16 50  1  0  0  0
 17 18  1  0  0  0
 17 51  1  0  0  0
 17 52  1  0  0  0
 18 19  2  0  0  0
 18 23  1  0  0  0
 19 20  1  0  0  0
 19 53  1  0  0  0
 20 21  2  0  0  0
 20 54  1  0  0  0
 21 22  1  0  0  0
 21 55  1  0  0  0
 22 23  2  0  0  0
 22 56  1  0  0  0
 23 57  1  0  0  0
 24 25  1  0  0  0
 24 58  1  0  0  0
 24 59  1  0  0  0
 25 26  1  0  0  0
 25 60  1  0  0  0
 25 61  1  0  0  0
 26 27  2  0  0  0
 26 32  1  0  0  0
 27 28  1  0  0  0
 27 62  1  0  0  0
 28 29  1  0  0  0
 28 30  2  0  0  0
 30 31  1  0  0  0
 30 63  1  0  0  0
 31 32  2  0  0  0
 31 64  1  0  0  0
 32 33  1  0  0  0
 33 34  1  0  0  0
 33 37  1  0  0  0
 34 35  2  0  0  0
 34 65  1  0  0  0
 35 36  1  0  0  0
 36 37  2  0  0  0
M  CHG  1  24   1
M  END
> <s_m_source_file>
../2c8w_ligand.sdf

> <i_m_source_file_index>
1

> <s_epik_input>
W0NIM11PYzFbY0hdW2NIXWMoW2NIXVtjSF0xKVMoPU8pKD1PKVtOSF1bQ0gyXVtDQEBIXShbT0hdKVtDQEhdKFtDSDJdYzJbY0hdW2NIXVtjSF1bY0hdW2NIXTIpW05IMitdW0NIMl1jM1tjSF1jKENsKVtjSF1bY0hdYzMtbjRbY0hdbm5uNA==

> <s_epik_cmdline>
J2VwaWtfYXBwJywgJy1pbWFlJywgJ2xpZ2FuZF9wcm8ubWFlJywgJy1vbWFlJywgJ2xpZ2FuZF9wcmVwLm1hZScsICctbXMnLCAnMScsICctcGgnLCAnNycsICctcGh0JywgJzAuNScsICctbnQn

> <r_lp_tautomer_probability>
1

> <r_epik_Ionization_Penalty>
  0.0860

> <r_epik_Ionization_Penalty_Charging>
  0.0860

> <r_epik_Ionization_Penalty_Neutral>
  0.0000

> <r_epik_State_Penalty>
  0.0766

> <r_epik_Charging_Adjusted_Penalty>
0.162577122120504

> <i_epik_Tot_Q>
1

> <i_epik_Tot_abs_Q>
1

$$$$
