2c8x_ligand
                    3D
 Schrodinger Suite 2020-3.
 69 71  0  0  1  0            999 V2000
   -1.7230   19.9720   47.0770 C   0  0  0  0  0  0
   -0.6950   20.0550   46.0720 O   0  0  0  0  0  0
    0.4300   19.4260   46.5170 C   0  0  0  0  0  0
    0.4830   18.8900   47.7980 C   0  0  0  0  0  0
    1.6100   18.2390   48.2690 C   0  0  0  0  0  0
    1.5350   17.7120   49.6890 C   0  0  0  0  0  0
    2.7190   18.0800   47.4230 C   0  0  0  0  0  0
    2.6510   18.6150   46.1220 C   0  0  0  0  0  0
    3.8140   18.4690   45.1710 C   0  0  0  0  0  0
    1.5170   19.2870   45.6730 C   0  0  0  0  0  0
    1.4470   19.8460   44.2680 C   0  0  0  0  0  0
    4.2030   17.2300   47.9390 S   0  0  0  0  0  0
    4.0220   16.8710   49.3090 O   0  0  0  0  0  0
    4.5370   16.2980   46.9200 O   0  0  0  0  0  0
    5.4440   18.3200   47.9630 N   0  0  3  0  0  0
    5.3140   19.6270   48.6190 C   0  0  0  0  0  0
    6.1020   19.6390   49.9370 C   0  0  1  0  0  0
    7.2640   18.8160   49.7690 O   0  0  0  0  0  0
    6.5520   21.0670   50.2930 C   0  0  2  0  0  0
    5.3820   22.0650   50.2140 C   0  0  0  0  0  0
    4.1580   21.6180   50.9930 C   0  0  0  0  0  0
    2.9040   21.6460   50.3780 C   0  0  0  0  0  0
    1.7710   21.2450   51.0750 C   0  0  0  0  0  0
    1.8740   20.8340   52.3910 C   0  0  0  0  0  0
    3.1210   20.8140   53.0130 C   0  0  0  0  0  0
    4.2610   21.2030   52.3170 C   0  0  0  0  0  0
    7.5820   21.5040   49.3400 N   0  3  0  0  0  0
    8.5610   22.4730   49.9460 C   0  0  0  0  0  0
    9.4930   22.8240   48.8190 C   0  0  0  0  0  0
   10.5170   21.9390   48.4950 C   0  0  0  0  0  0
   11.3730   22.2060   47.4180 C   0  0  0  0  0  0
   11.1660   23.3680   46.6650 C   0  0  0  0  0  0
   10.1310   24.2570   46.9740 C   0  0  0  0  0  0
    9.9160   25.7210   46.0220 Cl  0  0  0  0  0  0
    9.2900   23.9830   48.0660 C   0  0  0  0  0  0
   -2.6298   20.4798   46.7167 H   0  0  0  0  0  0
   -1.3733   20.4573   48.0002 H   0  0  0  0  0  0
   -1.9511   18.9156   47.2818 H   0  0  0  0  0  0
   -0.3860   18.9848   48.4491 H   0  0  0  0  0  0
    0.5598   17.9730   50.1259 H   0  0  0  0  0  0
    2.3385   18.1625   50.2902 H   0  0  0  0  0  0
    1.6523   16.6183   49.6809 H   0  0  0  0  0  0
    4.6273   17.9198   45.6679 H   0  0  0  0  0  0
    4.1724   19.4658   44.8744 H   0  0  0  0  0  0
    3.4898   17.9151   44.2776 H   0  0  0  0  0  0
    0.4735   20.3351   44.1161 H   0  0  0  0  0  0
    1.5637   19.0281   43.5418 H   0  0  0  0  0  0
    2.2529   20.5809   44.1252 H   0  0  0  0  0  0
    6.3189   18.1062   47.3315 H   0  0  0  0  0  0
    5.7090   20.4109   47.9560 H   0  0  0  0  0  0
    4.2534   19.8267   48.8316 H   0  0  0  0  0  0
    5.5053   19.2096   50.7553 H   0  0  0  0  0  0
    7.1522   17.7528   49.5098 H   0  0  0  0  0  0
    6.9823   21.0619   51.3053 H   0  0  0  0  0  0
    5.6994   23.0352   50.6238 H   0  0  0  0  0  0
    5.0785   22.1919   49.1643 H   0  0  0  0  0  0
    2.8139   21.9843   49.3457 H   0  0  0  0  0  0
    0.7984   21.2545   50.5830 H   0  0  0  0  0  0
    0.9837   20.5269   52.9398 H   0  0  0  0  0  0
    3.2036   20.4917   54.0510 H   0  0  0  0  0  0
    5.2338   21.1827   52.8083 H   0  0  0  0  0  0
    8.1485   20.6300   48.9861 H   0  0  0  0  0  0
    7.1023   22.0011   48.4840 H   0  0  0  0  0  0
    8.0202   23.3548   50.3200 H   0  0  0  0  0  0
    9.0902   21.9869   50.7789 H   0  0  0  0  0  0
   10.6542   21.0316   49.0832 H   0  0  0  0  0  0
   12.1848   21.5218   47.1712 H   0  0  0  0  0  0
   11.8232   23.5839   45.8227 H   0  0  0  0  0  0
    8.4844   24.6705   48.3238 H   0  0  0  0  0  0
  1  2  1  0  0  0
  1 36  1  0  0  0
  1 37  1  0  0  0
  1 38  1  0  0  0
  2  3  1  0  0  0
  3  4  2  0  0  0
  3 10  1  0  0  0
  4  5  1  0  0  0
  4 39  1  0  0  0
  5  6  1  0  0  0
  5  7  2  0  0  0
  6 40  1  0  0  0
  6 41  1  0  0  0
  6 42  1  0  0  0
  7  8  1  0  0  0
  7 12  1  0  0  0
  8  9  1  0  0  0
  8 10  2  0  0  0
  9 43  1  0  0  0
  9 44  1  0  0  0
  9 45  1  0  0  0
 10 11  1  0  0  0
 11 46  1  0  0  0
 11 47  1  0  0  0
 11 48  1  0  0  0
 12 13  2  0  0  0
 12 14  2  0  0  0
 12 15  1  0  0  0
 15 16  1  0  0  0
 15 49  1  0  0  0
 16 17  1  0  0  0
 16 50  1  0  0  0
 16 51  1  0  0  0
 17 18  1  0  0  0
 17 19  1  0  0  0
 17 52  1  0  0  0
 18 53  1  0  0  0
 19 20  1  0  0  0
 19 27  1  0  0  0
 19 54  1  0  0  0
 20 21  1  0  0  0
 20 55  1  0  0  0
 20 56  1  0  0  0
 21 22  2  0  0  0
 21 26  1  0  0  0
 22 23  1  0  0  0
 22 57  1  0  0  0
 23 24  2  0  0  0
 23 58  1  0  0  0
 24 25  1  0  0  0
 24 59  1  0  0  0
 25 26  2  0  0  0
 25 60  1  0  0  0
 26 61  1  0  0  0
 27 28  1  0  0  0
 27 62  1  0  0  0
 27 63  1  0  0  0
 28 29  1  0  0  0
 28 64  1  0  0  0
 28 65  1  0  0  0
 29 30  2  0  0  0
 29 35  1  0  0  0
 30 31  1  0  0  0
 30 66  1  0  0  0
 31 32  2  0  0  0
 31 67  1  0  0  0
 32 33  1  0  0  0
 32 68  1  0  0  0
 33 34  1  0  0  0
 33 35  2  0  0  0
 35 69  1  0  0  0
M  CHG  1  27   1
M  END
> <s_m_source_file>
../2c8x_ligand.sdf

> <i_m_source_file_index>
1

> <s_epik_input>
W0NIM11PYzFbY0hdYyhbQ0gzXSljKGMoW0NIM10pYzFbQ0gzXSlTKD1PKSg9TylbTkhdW0NIMl1bQ0BASF0oW09IXSlbQ0BIXShbQ0gyXWMyW2NIXVtjSF1bY0hdW2NIXVtjSF0yKVtOSDIrXVtDSDJdYzNbY0hdW2NIXVtjSF1jKENsKVtjSF0z

> <s_epik_cmdline>
J2VwaWtfYXBwJywgJy1pbWFlJywgJ2xpZ2FuZF9wcm8ubWFlJywgJy1vbWFlJywgJ2xpZ2FuZF9wcmVwLm1hZScsICctbXMnLCAnMScsICctcGgnLCAnNycsICctcGh0JywgJzAuNScsICctbnQn

> <r_lp_tautomer_probability>
1

> <r_epik_Ionization_Penalty>
  0.0536

> <r_epik_Ionization_Penalty_Charging>
  0.0536

> <r_epik_Ionization_Penalty_Neutral>
  0.0000

> <r_epik_State_Penalty>
  0.0460

> <r_epik_Charging_Adjusted_Penalty>
0.099563839446859

> <i_epik_Tot_Q>
1

> <i_epik_Tot_abs_Q>
1

$$$$
