2c8y_ligand
                    3D
 Schrodinger Suite 2020-3.
 49 51  0  0  1  0            999 V2000
    7.8290   21.3060   51.8100 N   0  3  0  0  0  0
    6.5520   20.7070   51.4020 C   0  0  1  0  0  0
    5.5980   21.8240   51.0070 C   0  0  0  0  0  0
    4.1400   21.4720   51.1780 C   0  0  0  0  0  0
    3.2480   21.7580   50.1590 C   0  0  0  0  0  0
    1.9090   21.4360   50.3080 C   0  0  0  0  0  0
    1.4470   20.8490   51.4720 C   0  0  0  0  0  0
    2.3350   20.5700   52.4840 C   0  0  0  0  0  0
    3.6700   20.8980   52.3560 C   0  0  0  0  0  0
    6.8550   19.8610   50.1830 C   0  0  2  0  0  0
    7.2100   20.6720   49.0570 O   0  0  0  0  0  0
    5.5920   19.1030   49.8010 C   0  0  0  0  0  0
    6.0100   18.1070   48.8150 N   0  0  3  0  0  0
    4.8770   17.0970   48.1920 S   0  0  0  0  0  0
    5.5170   16.4420   47.1000 O   0  0  0  0  0  0
    4.3790   16.4480   49.3550 O   0  0  0  0  0  0
    3.5760   18.0140   47.4150 C   0  0  0  0  0  0
    3.8680   18.6480   46.1920 C   0  0  0  0  0  0
    2.9430   19.3900   45.4940 C   0  0  0  0  0  0
    1.6450   19.5130   46.0280 C   0  0  0  0  0  0
    0.6610   20.2400   45.3460 C   0  0  0  0  0  0
   -0.5900   20.3330   45.8960 C   0  0  0  0  0  0
   -0.9090   19.7170   47.1070 C   0  0  0  0  0  0
    0.0310   18.9980   47.7880 C   0  0  0  0  0  0
    1.3310   18.8720   47.2810 C   0  0  0  0  0  0
    2.3210   18.1160   47.9720 C   0  0  0  0  0  0
    7.6713   21.9364   52.6975 H   0  0  0  0  0  0
    8.2243   21.9216   50.9885 H   0  0  0  0  0  0
    8.5480   20.5087   52.0495 H   0  0  0  0  0  0
    6.1252   20.1139   52.2242 H   0  0  0  0  0  0
    5.7940   22.7104   51.6283 H   0  0  0  0  0  0
    5.7495   22.0781   49.9475 H   0  0  0  0  0  0
    3.5977   22.2346   49.2432 H   0  0  0  0  0  0
    1.2110   21.6478   49.4981 H   0  0  0  0  0  0
    0.3896   20.6100   51.5859 H   0  0  0  0  0  0
    1.9822   20.0860   53.3947 H   0  0  0  0  0  0
    4.3579   20.7070   53.1796 H   0  0  0  0  0  0
    7.7224   19.2170   50.3900 H   0  0  0  0  0  0
    8.1009   21.3156   49.1018 H   0  0  0  0  0  0
    5.1663   18.6254   50.6958 H   0  0  0  0  0  0
    4.8585   19.8035   49.3752 H   0  0  0  0  0  0
    7.0211   18.1504   48.3840 H   0  0  0  0  0  0
    4.8719   18.5464   45.7797 H   0  0  0  0  0  0
    3.2077   19.8703   44.5520 H   0  0  0  0  0  0
    0.8866   20.7228   44.3952 H   0  0  0  0  0  0
   -1.3576   20.9039   45.3734 H   0  0  0  0  0  0
   -1.9165   19.8106   47.5124 H   0  0  0  0  0  0
   -0.2315   18.5193   48.7314 H   0  0  0  0  0  0
    2.0903   17.6295   48.9198 H   0  0  0  0  0  0
  1  2  1  0  0  0
  1 27  1  0  0  0
  1 28  1  0  0  0
  1 29  1  0  0  0
  2  3  1  0  0  0
  2 10  1  0  0  0
  2 30  1  0  0  0
  3  4  1  0  0  0
  3 31  1  0  0  0
  3 32  1  0  0  0
  4  5  2  0  0  0
  4  9  1  0  0  0
  5  6  1  0  0  0
  5 33  1  0  0  0
  6  7  2  0  0  0
  6 34  1  0  0  0
  7  8  1  0  0  0
  7 35  1  0  0  0
  8  9  2  0  0  0
  8 36  1  0  0  0
  9 37  1  0  0  0
 10 11  1  0  0  0
 10 12  1  0  0  0
 10 38  1  0  0  0
 11 39  1  0  0  0
 12 13  1  0  0  0
 12 40  1  0  0  0
 12 41  1  0  0  0
 13 14  1  0  0  0
 13 42  1  0  0  0
 14 15  2  0  0  0
 14 16  2  0  0  0
 14 17  1  0  0  0
 17 18  2  0  0  0
 17 26  1  0  0  0
 18 19  1  0  0  0
 18 43  1  0  0  0
 19 20  2  0  0  0
 19 44  1  0  0  0
 20 21  1  0  0  0
 20 25  1  0  0  0
 21 22  2  0  0  0
 21 45  1  0  0  0
 22 23  1  0  0  0
 22 46  1  0  0  0
 23 24  2  0  0  0
 23 47  1  0  0  0
 24 25  1  0  0  0
 24 48  1  0  0  0
 25 26  2  0  0  0
 26 49  1  0  0  0
M  CHG  1   1   1
M  END
> <s_m_source_file>
../2c8y_ligand.sdf

> <i_m_source_file_index>
1

> <s_epik_input>
W2NIXTFbY0hdW2NIXVtjSF1bY0hdYzFbQ0gyXVtDQEhdKFtOSDMrXSlbQ0BIXShbT0hdKVtDSDJdW05IXVMoPU8pKD1PKWMoW2NIXVtjSF0yKVtjSF1jKGMyMylbY0hdW2NIXVtjSF1bY0hdMw==

> <s_epik_cmdline>
J2VwaWtfYXBwJywgJy1pbWFlJywgJ2xpZ2FuZF9wcm8ubWFlJywgJy1vbWFlJywgJ2xpZ2FuZF9wcmVwLm1hZScsICctbXMnLCAnMScsICctcGgnLCAnNycsICctcGh0JywgJzAuNScsICctbnQn

> <r_epik_Ionization_Penalty>
  0.0252

> <r_epik_Ionization_Penalty_Charging>
  0.0252

> <r_epik_Ionization_Penalty_Neutral>
  0.0001

> <r_epik_State_Penalty>
  0.0205

> <r_epik_Charging_Adjusted_Penalty>
0.0456412381273816

> <i_epik_Tot_Q>
1

> <i_epik_Tot_abs_Q>
1

$$$$
