2c93_ligand
                    3D
 Schrodinger Suite 2020-3.
 56 57  0  0  1  0            999 V2000
   -1.8330   20.0490   47.2240 C   0  0  0  0  0  0
   -0.8290   20.0480   46.1850 O   0  0  0  0  0  0
    0.3370   19.4530   46.5920 C   0  0  0  0  0  0
    0.4510   18.9580   47.8750 C   0  0  0  0  0  0
    1.6070   18.3380   48.3180 C   0  0  0  0  0  0
    1.5880   17.8430   49.7510 C   0  0  0  0  0  0
    2.6950   18.1840   47.4680 C   0  0  0  0  0  0
    2.5960   18.6820   46.1640 C   0  0  0  0  0  0
    3.7550   18.5470   45.1910 C   0  0  0  0  0  0
    1.4220   19.3060   45.7260 C   0  0  0  0  0  0
    1.3340   19.8280   44.3090 C   0  0  0  0  0  0
    4.1770   17.3780   48.0280 S   0  0  0  0  0  0
    3.8650   16.8310   49.3140 O   0  0  0  0  0  0
    4.6200   16.5880   46.9410 O   0  0  0  0  0  0
    5.3310   18.5010   48.3520 N   0  0  3  0  0  0
    5.1460   19.4700   49.4370 C   0  0  0  0  0  0
    6.5320   20.0000   49.8430 C   0  0  1  0  0  0
    7.0700   20.8400   48.8080 O   0  0  0  0  0  0
    6.4260   20.7730   51.1530 C   0  0  1  0  0  0
    7.7580   21.2450   51.5190 N   0  3  0  0  0  0
    5.5150   21.9950   50.9950 C   0  0  0  0  0  0
    4.0580   21.6780   51.2780 C   0  0  0  0  0  0
    3.0770   22.0770   50.3660 C   0  0  0  0  0  0
    1.7380   21.8160   50.5950 C   0  0  0  0  0  0
    1.3630   21.1550   51.7520 C   0  0  0  0  0  0
    2.3290   20.7500   52.6610 C   0  0  0  0  0  0
    3.6780   21.0130   52.4340 C   0  0  0  0  0  0
   -2.7464   20.5351   46.8507 H   0  0  0  0  0  0
   -1.4555   20.5998   48.0981 H   0  0  0  0  0  0
   -2.0614   19.0128   47.5141 H   0  0  0  0  0  0
   -0.3922   19.0578   48.5585 H   0  0  0  0  0  0
    0.6180   18.0852   50.2097 H   0  0  0  0  0  0
    2.3941   18.3313   50.3183 H   0  0  0  0  0  0
    1.7381   16.7534   49.7645 H   0  0  0  0  0  0
    4.5938   18.0380   45.6883 H   0  0  0  0  0  0
    4.0757   19.5464   44.8618 H   0  0  0  0  0  0
    3.4346   17.9588   44.3184 H   0  0  0  0  0  0
    0.3456   20.2826   44.1464 H   0  0  0  0  0  0
    1.4760   18.9968   43.6026 H   0  0  0  0  0  0
    2.1164   20.5842   44.1476 H   0  0  0  0  0  0
    6.1640   18.6208   47.6437 H   0  0  0  0  0  0
    4.5112   20.2969   49.0858 H   0  0  0  0  0  0
    4.6632   18.9749   50.2925 H   0  0  0  0  0  0
    7.2561   19.1780   49.9424 H   0  0  0  0  0  0
    7.2140   20.4393   47.7938 H   0  0  0  0  0  0
    6.0471   20.1108   51.9454 H   0  0  0  0  0  0
    8.4321   20.3840   51.6385 H   0  0  0  0  0  0
    7.7024   21.8014   52.4663 H   0  0  0  0  0  0
    8.1432   21.9053   50.7280 H   0  0  0  0  0  0
    5.8316   22.7814   51.6960 H   0  0  0  0  0  0
    5.5841   22.3730   49.9643 H   0  0  0  0  0  0
    3.3722   22.6032   49.4582 H   0  0  0  0  0  0
    0.9852   22.1279   49.8711 H   0  0  0  0  0  0
    0.3100   20.9531   51.9484 H   0  0  0  0  0  0
    2.0289   20.2192   53.5645 H   0  0  0  0  0  0
    4.4287   20.6987   53.1591 H   0  0  0  0  0  0
  1  2  1  0  0  0
  1 28  1  0  0  0
  1 29  1  0  0  0
  1 30  1  0  0  0
  2  3  1  0  0  0
  3  4  2  0  0  0
  3 10  1  0  0  0
  4  5  1  0  0  0
  4 31  1  0  0  0
  5  6  1  0  0  0
  5  7  2  0  0  0
  6 32  1  0  0  0
  6 33  1  0  0  0
  6 34  1  0  0  0
  7  8  1  0  0  0
  7 12  1  0  0  0
  8  9  1  0  0  0
  8 10  2  0  0  0
  9 35  1  0  0  0
  9 36  1  0  0  0
  9 37  1  0  0  0
 10 11  1  0  0  0
 11 38  1  0  0  0
 11 39  1  0  0  0
 11 40  1  0  0  0
 12 13  2  0  0  0
 12 14  2  0  0  0
 12 15  1  0  0  0
 15 16  1  0  0  0
 15 41  1  0  0  0
 16 17  1  0  0  0
 16 42  1  0  0  0
 16 43  1  0  0  0
 17 18  1  0  0  0
 17 19  1  0  0  0
 17 44  1  0  0  0
 18 45  1  0  0  0
 19 20  1  0  0  0
 19 21  1  0  0  0
 19 46  1  0  0  0
 20 47  1  0  0  0
 20 48  1  0  0  0
 20 49  1  0  0  0
 21 22  1  0  0  0
 21 50  1  0  0  0
 21 51  1  0  0  0
 22 23  2  0  0  0
 22 27  1  0  0  0
 23 24  1  0  0  0
 23 52  1  0  0  0
 24 25  2  0  0  0
 24 53  1  0  0  0
 25 26  1  0  0  0
 25 54  1  0  0  0
 26 27  2  0  0  0
 26 55  1  0  0  0
 27 56  1  0  0  0
M  CHG  1  20   1
M  END
> <s_m_source_file>
../2c93_ligand.sdf

> <i_m_source_file_index>
1

> <s_epik_input>
W0NIM11PYzFbY0hdYyhbQ0gzXSljKGMoW0NIM10pYzFbQ0gzXSlTKD1PKSg9TylbTkhdW0NIMl1bQ0BASF0oW09IXSlbQ0BASF0oW05IMytdKVtDSDJdYzJbY0hdW2NIXVtjSF1bY0hdW2NIXTI=

> <s_epik_cmdline>
J2VwaWtfYXBwJywgJy1pbWFlJywgJ2xpZ2FuZF9wcm8ubWFlJywgJy1vbWFlJywgJ2xpZ2FuZF9wcmVwLm1hZScsICctbXMnLCAnMScsICctcGgnLCAnNycsICctcGh0JywgJzAuNScsICctbnQn

> <r_lp_tautomer_probability>
1

> <r_epik_Ionization_Penalty>
  0.0249

> <r_epik_Ionization_Penalty_Charging>
  0.0249

> <r_epik_Ionization_Penalty_Neutral>
  0.0000

> <r_epik_State_Penalty>
  0.0202

> <r_epik_Charging_Adjusted_Penalty>
0.0451584598464347

> <i_epik_Tot_Q>
1

> <i_epik_Tot_abs_Q>
1

$$$$
