2c94_ligand
                    3D
 Schrodinger Suite 2020-3.
 52 53  0  0  1  0            999 V2000
   47.2760    3.5220   -1.4210 O   0  0  0  0  0  0
   47.2250    3.6840    0.0730 P   0  0  0  0  0  0
   48.5930    3.6690    0.7200 O   0  5  0  0  0  0
   46.3210    4.8010    0.5490 O   0  5  0  0  0  0
   46.4410    2.1600    0.6650 C   0  0  0  0  0  0
   45.1980    2.1080    0.2250 F   0  0  0  0  0  0
   47.1280    1.1390    0.1860 F   0  0  0  0  0  0
   46.4300    2.1160    2.1900 C   0  0  0  0  0  0
   46.4380    0.6850    2.7280 C   0  0  0  0  0  0
   45.4590    0.5340    3.8870 C   0  0  0  0  0  0
   44.0430    0.6770    3.3510 C   0  0  0  0  0  0
   43.0900    0.4180    4.4260 N   0  0  0  0  0  0
   42.6070   -0.7460    4.8740 C   0  0  0  0  0  0
   42.8660   -2.1430    4.4590 C   0  0  0  0  0  0
   43.6580   -2.4280    3.5310 O   0  0  0  0  0  0
   42.1900   -3.0890    5.1320 N   0  0  0  0  0  0
   42.4790    1.3160    5.2040 C   0  0  0  0  0  0
   42.6650    2.5850    5.0870 O   0  0  0  0  0  0
   41.6320    0.8430    6.1190 N   0  0  0  0  0  0
   41.6550   -0.4910    5.9700 C   0  0  0  0  0  0
   41.0700   -1.5420    6.5470 N   0  0  0  0  0  0
   41.3310   -2.7950    6.1430 C   0  0  0  0  0  0
   40.7380   -3.7180    6.7320 O   0  5  0  0  0  0
   40.8930    1.7060    7.0310 C   0  0  0  0  0  0
   40.2270    1.0250    8.2130 C   0  0  1  0  0  0
   41.0720    0.0980    8.9140 O   0  0  0  0  0  0
   39.5550    2.0120    9.1620 C   0  0  2  0  0  0
   38.1710    1.7020    8.9690 O   0  0  0  0  0  0
   39.7630    3.5190    8.9130 C   0  0  2  0  0  0
   41.1230    3.9190    9.1400 O   0  0  0  0  0  0
   38.8720    4.3650    9.8230 C   0  0  0  0  0  0
   39.0540    3.9240   11.1800 O   0  0  0  0  0  0
   47.3210    2.6313    2.5781 H   0  0  0  0  0  0
   45.5248    2.6162    2.5648 H   0  0  0  0  0  0
   46.1468   -0.0097    1.9264 H   0  0  0  0  0  0
   47.4480    0.4324    3.0831 H   0  0  0  0  0  0
   45.5859   -0.4569    4.3474 H   0  0  0  0  0  0
   45.6553    1.3145    4.6368 H   0  0  0  0  0  0
   43.8971    1.6980    2.9685 H   0  0  0  0  0  0
   43.8843   -0.0457    2.5370 H   0  0  0  0  0  0
   42.3216   -4.1495    4.8714 H   0  0  0  0  0  0
   41.5744    2.4557    7.4594 H   0  0  0  0  0  0
   40.0867    2.2145    6.4822 H   0  0  0  0  0  0
   39.4663    0.3532    7.7887 H   0  0  0  0  0  0
   41.6226   -0.6742    8.3566 H   0  0  0  0  0  0
   39.9260    1.8574   10.1859 H   0  0  0  0  0  0
   37.8151    0.6695    9.1007 H   0  0  0  0  0  0
   39.5628    3.7192    7.8500 H   0  0  0  0  0  0
   41.9390    3.4344    8.5838 H   0  0  0  0  0  0
   39.1551    5.4240    9.7317 H   0  0  0  0  0  0
   37.8203    4.2397    9.5259 H   0  0  0  0  0  0
   38.4976    4.4094   11.9954 H   0  0  0  0  0  0
  1  2  2  0  0  0
  2  3  1  0  0  0
  2  4  1  0  0  0
  2  5  1  0  0  0
  5  6  1  0  0  0
  5  7  1  0  0  0
  5  8  1  0  0  0
  8  9  1  0  0  0
  8 33  1  0  0  0
  8 34  1  0  0  0
  9 10  1  0  0  0
  9 35  1  0  0  0
  9 36  1  0  0  0
 10 11  1  0  0  0
 10 37  1  0  0  0
 10 38  1  0  0  0
 11 12  1  0  0  0
 11 39  1  0  0  0
 11 40  1  0  0  0
 12 13  1  0  0  0
 12 17  1  0  0  0
 13 14  1  0  0  0
 13 20  2  0  0  0
 14 15  2  0  0  0
 14 16  1  0  0  0
 16 22  1  0  0  0
 16 41  1  0  0  0
 17 18  2  0  0  0
 17 19  1  0  0  0
 19 20  1  0  0  0
 19 24  1  0  0  0
 20 21  1  0  0  0
 21 22  2  0  0  0
 22 23  1  0  0  0
 24 25  1  0  0  0
 24 42  1  0  0  0
 24 43  1  0  0  0
 25 26  1  0  0  0
 25 27  1  0  0  0
 25 44  1  0  0  0
 26 45  1  0  0  0
 27 28  1  0  0  0
 27 29  1  0  0  0
 27 46  1  0  0  0
 28 47  1  0  0  0
 29 30  1  0  0  0
 29 31  1  0  0  0
 29 48  1  0  0  0
 30 49  1  0  0  0
 31 32  1  0  0  0
 31 50  1  0  0  0
 31 51  1  0  0  0
 32 52  1  0  0  0
M  CHG  3   3  -1   4  -1  23  -1
M  END
> <s_m_source_file>
../2c94_ligand.sdf

> <i_m_source_file_index>
1

> <s_epik_input>
Tz1QKFtPSF0pKFtPSF0pQyhGKShGKVtDSDJdW0NIMl1bQ0gyXVtDSDJdbjFjKD1PKW4oYyhjMTIpW25IXWMoPU8pW25IXWMyPU8pW0NIMl1bQ0BASF0oW09IXSlbQ0BIXShbT0hdKVtDQEhdKFtPSF0pW0NIMl1bT0hd

> <s_epik_cmdline>
J2VwaWtfYXBwJywgJy1pbWFlJywgJ2xpZ2FuZF9wcm8ubWFlJywgJy1vbWFlJywgJ2xpZ2FuZF9wcmVwLm1hZScsICctbXMnLCAnMScsICctcGgnLCAnNycsICctcGh0JywgJzAuNScsICctbnQn

> <r_lp_tautomer_probability>
1

> <r_epik_Ionization_Penalty>
  0.0703

> <r_epik_Ionization_Penalty_Charging>
  0.0266

> <r_epik_Ionization_Penalty_Neutral>
  0.0437

> <r_epik_State_Penalty>
 -0.0000

> <r_epik_Charging_Adjusted_Penalty>
0.0265845095112494

> <i_epik_Tot_Q>
-3

> <i_epik_Tot_abs_Q>
3

$$$$
