2c97_ligand
                    3D
 Schrodinger Suite 2020-3.
 27 27  0  0  1  0            999 V2000
  -24.0530   -0.7470    6.6790 N   0  0  0  0  0  0
  -23.5450   -2.5420    5.2400 N   0  0  0  0  0  0
  -22.8090   -1.7380    4.4860 C   0  0  0  0  0  0
  -22.0600   -2.4610    3.0870 Cl  0  0  0  0  0  0
  -22.6120   -0.3030    4.7730 C   0  0  0  0  0  0
  -21.8080    0.6350    3.8890 C   0  0  0  0  0  0
  -24.1540   -2.0540    6.3170 C   0  0  0  0  0  0
  -23.3310    0.1700    5.9800 C   0  0  0  0  0  0
  -24.8160   -2.8710    6.9850 O   0  5  0  0  0  0
  -23.2490    1.3840    6.3310 O   0  0  0  0  0  0
  -20.3480    0.2740    3.5930 C   0  0  0  0  0  0
  -19.6430    1.5650    3.1770 C   0  0  0  0  0  0
  -19.3620    1.6740    1.7060 C   0  0  0  0  0  0
  -19.7170    2.8580    0.9330 O   0  0  0  0  0  0
  -18.7350    4.1070    0.5960 P   0  0  0  0  0  0
  -19.6540    5.2710    0.9050 O   0  5  0  0  0  0
  -17.5600    3.9090    1.5270 O   0  5  0  0  0  0
  -18.3970    4.0610   -0.8760 O   0  0  0  0  0  0
  -24.5711   -0.3839    7.5789 H   0  0  0  0  0  0
  -22.2883    0.7105    2.9023 H   0  0  0  0  0  0
  -21.7664    1.6311    4.3537 H   0  0  0  0  0  0
  -19.8842   -0.1480    4.4968 H   0  0  0  0  0  0
  -20.3109   -0.4676    2.7815 H   0  0  0  0  0  0
  -20.2686    2.4282    3.4482 H   0  0  0  0  0  0
  -18.6748    1.6371    3.6940 H   0  0  0  0  0  0
  -18.2795    1.5852    1.5319 H   0  0  0  0  0  0
  -19.8866    0.8682    1.1718 H   0  0  0  0  0  0
  1  7  1  0  0  0
  1  8  1  0  0  0
  1 19  1  0  0  0
  2  3  1  0  0  0
  2  7  2  0  0  0
  3  4  1  0  0  0
  3  5  2  0  0  0
  5  6  1  0  0  0
  5  8  1  0  0  0
  6 11  1  0  0  0
  6 20  1  0  0  0
  6 21  1  0  0  0
  7  9  1  0  0  0
  8 10  2  0  0  0
 11 12  1  0  0  0
 11 22  1  0  0  0
 11 23  1  0  0  0
 12 13  1  0  0  0
 12 24  1  0  0  0
 12 25  1  0  0  0
 13 14  1  0  0  0
 13 26  1  0  0  0
 13 27  1  0  0  0
 14 15  1  0  0  0
 15 16  1  0  0  0
 15 17  1  0  0  0
 15 18  2  0  0  0
M  CHG  3   9  -1  16  -1  17  -1
M  END
> <s_m_source_file>
../2c97_ligand.sdf

> <i_m_source_file_index>
1

> <s_epik_input>
Q2xjMVtuSF1jKD1PKVtuSF1jKD1PKWMxW0NIMl1bQ0gyXVtDSDJdW0NIMl1PUCg9TykoW09IXSlbT0hd

> <s_epik_cmdline>
J2VwaWtfYXBwJywgJy1pbWFlJywgJ2xpZ2FuZF9wcm8ubWFlJywgJy1vbWFlJywgJ2xpZ2FuZF9wcmVwLm1hZScsICctbXMnLCAnMScsICctcGgnLCAnNycsICctcGh0JywgJzAuNScsICctbnQn

> <r_lp_tautomer_probability>
1

> <r_epik_Ionization_Penalty>
  0.2515

> <r_epik_Ionization_Penalty_Charging>
  0.1464

> <r_epik_Ionization_Penalty_Neutral>
  0.1051

> <r_epik_State_Penalty>
 -0.0000

> <r_epik_Charging_Adjusted_Penalty>
0.146409394008949

> <i_epik_Tot_Q>
-3

> <i_epik_Tot_abs_Q>
3

$$$$
