2c9b_ligand
                    3D
 Schrodinger Suite 2020-3.
 34 35  0  0  1  0            999 V2000
  -19.5360   -2.4110    4.9140 O   0  5  0  0  0  0
  -19.7090   -1.7590    3.8630 C   0  0  0  0  0  0
  -19.9330   -2.4290    2.7120 N   0  0  0  0  0  0
  -20.1210   -1.7670    1.5520 C   0  0  0  0  0  0
  -20.3290   -2.4070    0.4980 O   0  0  0  0  0  0
  -19.6720   -0.4020    3.8990 N   0  0  0  0  0  0
  -19.8500    0.3630    2.7900 C   0  0  0  0  0  0
  -20.0810   -0.2770    1.5660 C   0  0  0  0  0  0
  -20.2270    0.6640    0.6050 N   0  0  0  0  0  0
  -19.8460    1.6950    2.5800 N   0  0  0  0  0  0
  -20.0810    1.8210    1.2730 C   0  0  0  0  0  0
  -20.1590    2.9660    0.6830 O   0  0  0  0  0  0
  -19.6610    2.7980    3.5360 C   0  0  0  0  0  0
  -18.5680    2.5670    4.5840 C   0  0  1  0  0  0
  -17.4110    1.9730    3.9820 O   0  0  0  0  0  0
  -18.1550    3.8290    5.3560 C   0  0  2  0  0  0
  -18.9030    3.8660    6.5810 O   0  0  0  0  0  0
  -18.3300    5.1530    4.5960 C   0  0  2  0  0  0
  -17.4490    5.2170    3.4690 O   0  0  0  0  0  0
  -18.0790    6.3720    5.4840 C   0  0  0  0  0  0
  -16.7020    6.4600    5.8780 O   0  0  0  0  0  0
  -19.9639   -3.5286    2.7127 H   0  0  0  0  0  0
  -20.4175    0.3625   -0.4356 H   0  0  0  0  0  0
  -19.3876    3.7136    2.9910 H   0  0  0  0  0  0
  -20.5975    2.9657    4.0881 H   0  0  0  0  0  0
  -18.9584    1.8313    5.3025 H   0  0  0  0  0  0
  -17.5119    1.0546    3.3850 H   0  0  0  0  0  0
  -17.0857    3.7498    5.6017 H   0  0  0  0  0  0
  -18.8945    2.9983    7.2571 H   0  0  0  0  0  0
  -19.3514    5.1850    4.1889 H   0  0  0  0  0  0
  -17.4740    4.4253    2.7057 H   0  0  0  0  0  0
  -18.3431    7.2871    4.9337 H   0  0  0  0  0  0
  -18.6969    6.2984    6.3911 H   0  0  0  0  0  0
  -16.3656    7.2869    6.5207 H   0  0  0  0  0  0
  1  2  1  0  0  0
  2  3  1  0  0  0
  2  6  2  0  0  0
  3  4  1  0  0  0
  3 22  1  0  0  0
  4  5  2  0  0  0
  4  8  1  0  0  0
  6  7  1  0  0  0
  7  8  2  0  0  0
  7 10  1  0  0  0
  8  9  1  0  0  0
  9 11  1  0  0  0
  9 23  1  0  0  0
 10 11  1  0  0  0
 10 13  1  0  0  0
 11 12  2  0  0  0
 13 14  1  0  0  0
 13 24  1  0  0  0
 13 25  1  0  0  0
 14 15  1  0  0  0
 14 16  1  0  0  0
 14 26  1  0  0  0
 15 27  1  0  0  0
 16 17  1  0  0  0
 16 18  1  0  0  0
 16 28  1  0  0  0
 17 29  1  0  0  0
 18 19  1  0  0  0
 18 20  1  0  0  0
 18 30  1  0  0  0
 19 31  1  0  0  0
 20 21  1  0  0  0
 20 32  1  0  0  0
 20 33  1  0  0  0
 21 34  1  0  0  0
M  CHG  1   1  -1
M  END
> <s_m_source_file>
../2c9b_ligand.sdf

> <i_m_source_file_index>
1

> <s_epik_input>
Tz1jKFtuSF0xKVtuSF1jKD1PKWMoYzEyKVtuSF1jKD1PKW4yW0NIMl1bQ0BASF0oW09IXSlbQ0BIXShbT0hdKVtDQEhdKFtPSF0pW0NIMl1bT0hd

> <s_epik_cmdline>
J2VwaWtfYXBwJywgJy1pbWFlJywgJ2xpZ2FuZF9wcm8ubWFlJywgJy1vbWFlJywgJ2xpZ2FuZF9wcmVwLm1hZScsICctbXMnLCAnMScsICctcGgnLCAnNycsICctcGh0JywgJzAuNScsICctbnQn

> <r_epik_Ionization_Penalty>
  0.0282

> <r_epik_Ionization_Penalty_Charging>
  0.0000

> <r_epik_Ionization_Penalty_Neutral>
  0.0282

> <r_epik_State_Penalty>
  0.0231

> <r_epik_Charging_Adjusted_Penalty>
0.0231124876987843

> <i_epik_Tot_Q>
-1

> <i_epik_Tot_abs_Q>
1

$$$$
