2c9d_ligand
                    3D
 Schrodinger Suite 2020-3.
 56 57  0  0  1  0            999 V2000
  -17.8040    7.7130  -34.2270 O   0  5  0  0  0  0
  -16.5950    7.3460  -33.3970 P   0  0  0  0  0  0
  -16.6030    5.9250  -32.8880 O   0  0  0  0  0  0
  -15.2780    7.7820  -33.9920 O   0  5  0  0  0  0
  -16.7040    8.2750  -32.0860 O   0  0  0  0  0  0
  -16.6050    7.7380  -30.7720 C   0  0  0  0  0  0
  -18.0110    7.3970  -30.2900 C   0  0  0  0  0  0
  -17.9820    6.6310  -28.9710 C   0  0  0  0  0  0
  -17.6860    7.5540  -27.7950 C   0  0  0  0  0  0
  -18.9340    8.3030  -27.3520 C   0  0  0  0  0  0
  -18.7160    9.8100  -27.4410 C   0  0  0  0  0  0
  -18.1800   10.3420  -26.1830 N   0  0  0  0  0  0
  -18.7700   10.4850  -24.9850 C   0  0  0  0  0  0
  -20.1400   10.1510  -24.5260 C   0  0  0  0  0  0
  -20.9920    9.6490  -25.2890 O   0  0  0  0  0  0
  -20.4320   10.4240  -23.2320 N   0  0  0  0  0  0
  -16.9500   10.8250  -25.9620 C   0  0  0  0  0  0
  -16.0740   10.8510  -26.9040 O   0  0  0  0  0  0
  -16.6730   11.2720  -24.7190 N   0  0  0  0  0  0
  -17.8150   11.0820  -24.0260 C   0  0  0  0  0  0
  -18.2530   11.2940  -22.7530 N   0  0  0  0  0  0
  -19.5250   10.9740  -22.3730 C   0  0  0  0  0  0
  -19.8800   11.1930  -21.1900 O   0  5  0  0  0  0
  -15.3930   11.8450  -24.2750 C   0  0  0  0  0  0
  -15.1070   11.6570  -22.7840 C   0  0  1  0  0  0
  -15.0440   10.2590  -22.4870 O   0  0  0  0  0  0
  -13.8280   12.3570  -22.3000 C   0  0  2  0  0  0
  -14.1900   13.6620  -21.8330 O   0  0  0  0  0  0
  -12.7120   12.4730  -23.3510 C   0  0  2  0  0  0
  -12.2590   11.1660  -23.7270 O   0  0  0  0  0  0
  -11.5200   13.2920  -22.8540 C   0  0  0  0  0  0
  -10.7880   12.5770  -21.8440 O   0  0  0  0  0  0
  -15.9819    6.8317  -30.7923 H   0  0  0  0  0  0
  -16.1468    8.4831  -30.1049 H   0  0  0  0  0  0
  -18.5823    8.3250  -30.1401 H   0  0  0  0  0  0
  -18.5155    6.7733  -31.0427 H   0  0  0  0  0  0
  -18.9590    6.1546  -28.8021 H   0  0  0  0  0  0
  -17.1998    5.8587  -29.0126 H   0  0  0  0  0  0
  -17.3151    6.9598  -26.9468 H   0  0  0  0  0  0
  -16.9226    8.2894  -28.0891 H   0  0  0  0  0  0
  -19.7776    8.0262  -28.0014 H   0  0  0  0  0  0
  -19.1704    8.0382  -26.3109 H   0  0  0  0  0  0
  -18.0020   10.0301  -28.2483 H   0  0  0  0  0  0
  -19.6740   10.3072  -27.6531 H   0  0  0  0  0  0
  -21.4338   10.2020  -22.8356 H   0  0  0  0  0  0
  -14.5678   11.3690  -24.8250 H   0  0  0  0  0  0
  -15.3881   12.9274  -24.4711 H   0  0  0  0  0  0
  -15.9543   12.0662  -22.2143 H   0  0  0  0  0  0
  -15.8795    9.5996  -22.7646 H   0  0  0  0  0  0
  -13.4130   11.7870  -21.4557 H   0  0  0  0  0  0
  -14.9773   13.7755  -21.0732 H   0  0  0  0  0  0
  -13.1216   12.9407  -24.2585 H   0  0  0  0  0  0
  -12.9752   10.4254  -24.1124 H   0  0  0  0  0  0
  -10.8442   13.5037  -23.6957 H   0  0  0  0  0  0
  -11.8792   14.2391  -22.4250 H   0  0  0  0  0  0
   -9.8989   13.0322  -21.3832 H   0  0  0  0  0  0
  1  2  1  0  0  0
  2  3  2  0  0  0
  2  4  1  0  0  0
  2  5  1  0  0  0
  5  6  1  0  0  0
  6  7  1  0  0  0
  6 33  1  0  0  0
  6 34  1  0  0  0
  7  8  1  0  0  0
  7 35  1  0  0  0
  7 36  1  0  0  0
  8  9  1  0  0  0
  8 37  1  0  0  0
  8 38  1  0  0  0
  9 10  1  0  0  0
  9 39  1  0  0  0
  9 40  1  0  0  0
 10 11  1  0  0  0
 10 41  1  0  0  0
 10 42  1  0  0  0
 11 12  1  0  0  0
 11 43  1  0  0  0
 11 44  1  0  0  0
 12 13  1  0  0  0
 12 17  1  0  0  0
 13 14  1  0  0  0
 13 20  2  0  0  0
 14 15  2  0  0  0
 14 16  1  0  0  0
 16 22  1  0  0  0
 16 45  1  0  0  0
 17 18  2  0  0  0
 17 19  1  0  0  0
 19 20  1  0  0  0
 19 24  1  0  0  0
 20 21  1  0  0  0
 21 22  2  0  0  0
 22 23  1  0  0  0
 24 25  1  0  0  0
 24 46  1  0  0  0
 24 47  1  0  0  0
 25 26  1  0  0  0
 25 27  1  0  0  0
 25 48  1  0  0  0
 26 49  1  0  0  0
 27 28  1  0  0  0
 27 29  1  0  0  0
 27 50  1  0  0  0
 28 51  1  0  0  0
 29 30  1  0  0  0
 29 31  1  0  0  0
 29 52  1  0  0  0
 30 53  1  0  0  0
 31 32  1  0  0  0
 31 54  1  0  0  0
 31 55  1  0  0  0
 32 56  1  0  0  0
M  CHG  3   1  -1   4  -1  23  -1
M  END
> <s_m_source_file>
../2c9d_ligand.sdf

> <i_m_source_file_index>
1

> <s_epik_input>
W09IXVAoPU8pKFtPSF0pT1tDSDJdW0NIMl1bQ0gyXVtDSDJdW0NIMl1bQ0gyXW4xYyg9TyluKGMoYzEyKVtuSF1jKD1PKVtuSF1jMj1PKVtDSDJdW0NAQEhdKFtPSF0pW0NASF0oW09IXSlbQ0BIXShbT0hdKVtDSDJdW09IXQ==

> <s_epik_cmdline>
J2VwaWtfYXBwJywgJy1pbWFlJywgJ2xpZ2FuZF9wcm8ubWFlJywgJy1vbWFlJywgJ2xpZ2FuZF9wcmVwLm1hZScsICctbXMnLCAnMScsICctcGgnLCAnNycsICctcGh0JywgJzAuNScsICctbnQn

> <r_lp_tautomer_probability>
1

> <r_epik_Ionization_Penalty>
  0.1986

> <r_epik_Ionization_Penalty_Charging>
  0.1523

> <r_epik_Ionization_Penalty_Neutral>
  0.0464

> <r_epik_State_Penalty>
 -0.0000

> <r_epik_Charging_Adjusted_Penalty>
0.152270004560927

> <i_epik_Tot_Q>
-3

> <i_epik_Tot_abs_Q>
3

$$$$
