2ca8_ligand
                    3D
 Schrodinger Suite 2020-3.
 36 35  0  0  1  0            999 V2000
    3.0620   13.7770   43.1150 O   0  5  0  0  0  0
    2.4810   12.6830   43.3080 C   0  0  0  0  0  0
    1.3950   12.4470   42.7320 O   0  0  0  0  0  0
    2.9750   11.5810   44.2050 C   0  0  2  0  0  0
    2.3080   11.7480   45.4910 N   0  3  0  0  0  0
    4.4960   11.3880   44.3380 C   0  0  0  0  0  0
    5.2740   11.5260   43.0410 C   0  0  0  0  0  0
    6.2530   10.3940   42.8220 C   0  0  0  0  0  0
    6.0640    9.1260   43.3980 O   0  0  0  0  0  0
    7.2810   10.6760   42.0320 N   0  0  0  0  0  0
    8.1550    9.6890   41.4380 C   0  0  1  0  0  0
    7.9220    9.5420   39.9430 C   0  0  0  0  0  0
    6.2420    8.9890   39.5710 S   0  0  0  0  0  0
    9.5330   10.2040   41.5850 C   0  0  0  0  0  0
    9.6970   11.5960   41.4990 O   0  0  0  0  0  0
   10.5000    9.3110   41.7800 N   0  0  0  0  0  0
   11.8710    9.5590   41.3660 C   0  0  0  0  0  0
   12.6540   10.1250   42.5210 C   0  0  0  0  0  0
   13.7860   10.6260   42.3610 O   0  5  0  0  0  0
   12.1630   10.1010   43.6650 O   0  0  0  0  0  0
    2.6579   10.6333   43.7453 H   0  0  0  0  0  0
    1.2281   11.8809   45.3294 H   0  0  0  0  0  0
    2.7139   12.6333   46.0023 H   0  0  0  0  0  0
    2.4789   10.8558   46.1113 H   0  0  0  0  0  0
    4.9017   12.1395   45.0313 H   0  0  0  0  0  0
    4.7052   10.3803   44.7262 H   0  0  0  0  0  0
    4.5739   11.5338   42.1926 H   0  0  0  0  0  0
    5.8448   12.4662   43.0540 H   0  0  0  0  0  0
    7.4480   11.7459   41.8388 H   0  0  0  0  0  0
    7.9656    8.7421   41.9649 H   0  0  0  0  0  0
    8.0813   10.5123   39.4499 H   0  0  0  0  0  0
    8.6257    8.8025   39.5332 H   0  0  0  0  0  0
    5.9309    8.8391   38.5266 H   0  0  0  0  0  0
   10.2366    8.3623   42.2705 H   0  0  0  0  0  0
   12.3320    8.6150   41.0400 H   0  0  0  0  0  0
   11.8783   10.2774   40.5330 H   0  0  0  0  0  0
  1  2  1  0  0  0
  2  3  2  0  0  0
  2  4  1  0  0  0
  4  5  1  0  0  0
  4  6  1  0  0  0
  4 21  1  0  0  0
  5 22  1  0  0  0
  5 23  1  0  0  0
  5 24  1  0  0  0
  6  7  1  0  0  0
  6 25  1  0  0  0
  6 26  1  0  0  0
  7  8  1  0  0  0
  7 27  1  0  0  0
  7 28  1  0  0  0
  8  9  2  0  0  0
  8 10  1  0  0  0
 10 11  1  0  0  0
 10 29  1  0  0  0
 11 12  1  0  0  0
 11 14  1  0  0  0
 11 30  1  0  0  0
 12 13  1  0  0  0
 12 31  1  0  0  0
 12 32  1  0  0  0
 13 33  1  0  0  0
 14 15  2  0  0  0
 14 16  1  0  0  0
 16 17  1  0  0  0
 16 34  1  0  0  0
 17 18  1  0  0  0
 17 35  1  0  0  0
 17 36  1  0  0  0
 18 19  1  0  0  0
 18 20  2  0  0  0
M  CHG  3   1  -1   5   1  19  -1
M  END
> <s_m_source_file>
../2ca8_ligand.sdf

> <i_m_source_file_index>
1

> <s_epik_input>
W09IXUMoPU8pW0NASF0oW05IMytdKVtDSDJdW0NIMl1DKD1PKVtOSF1bQ0BASF0oW0NIMl1bU0hdKUMoPU8pW05IXVtDSDJdQyg9TylbT0hd

> <s_epik_cmdline>
J2VwaWtfYXBwJywgJy1pbWFlJywgJ2xpZ2FuZF9wcm8ubWFlJywgJy1vbWFlJywgJ2xpZ2FuZF9wcmVwLm1hZScsICctbXMnLCAnMScsICctcGgnLCAnNycsICctcGh0JywgJzAuNScsICctbnQn

> <r_lp_tautomer_probability>
1

> <r_epik_Ionization_Penalty>
  0.0108

> <r_epik_Ionization_Penalty_Charging>
  0.0025

> <r_epik_Ionization_Penalty_Neutral>
  0.0083

> <r_epik_State_Penalty>
 -0.0000

> <r_epik_Charging_Adjusted_Penalty>
0.0025426613454744

> <i_epik_Tot_Q>
-1

> <i_epik_Tot_abs_Q>
3

$$$$
