2cbr_ligand
                    3D
 Schrodinger Suite 2020-3.
 50 52  0  0  1  0            999 V2000
   29.0760   81.9550    5.4700 C   0  0  0  0  0  0
   29.3930   82.3310    4.0090 C   0  0  0  0  0  0
   28.4650   83.4730    3.4930 C   0  0  0  0  0  0
   27.0040   83.0070    3.3910 C   0  0  0  0  0  0
   26.5340   82.2560    4.6970 C   0  0  0  0  0  0
   25.1590   82.0750    4.9840 C   0  0  0  0  0  0
   24.7380   81.4320    6.1560 C   0  0  0  0  0  0
   25.6800   80.9390    7.1100 C   0  0  0  0  0  0
   27.0620   81.1260    6.8810 C   0  0  0  0  0  0
   27.5330   81.7750    5.7020 C   0  0  0  0  0  0
   25.2850   80.2390    8.3010 N   0  0  0  0  0  0
   24.0040   79.9950    8.7070 C   0  0  0  0  0  0
   23.7550   79.2120    9.9550 C   0  0  0  0  0  0
   24.8390   78.7470   10.7410 C   0  0  0  0  0  0
   24.5880   77.9720   11.8920 C   0  0  0  0  0  0
   23.2550   77.6580   12.2650 C   0  0  0  0  0  0
   22.1720   78.1300   11.4870 C   0  0  0  0  0  0
   22.4160   78.8980   10.3380 C   0  0  0  0  0  0
   22.9980   76.8480   13.4320 C   0  0  0  0  0  0
   29.6360   83.0620    6.3710 C   0  0  0  0  0  0
   29.8010   80.6620    5.8440 C   0  0  0  0  0  0
   26.1020   84.2180    3.1130 C   0  0  0  0  0  0
   26.8940   82.0640    2.1860 C   0  0  0  0  0  0
   23.0300   80.3960    8.0500 O   0  0  0  0  0  0
   23.2590   75.6160   13.4090 O   0  5  0  0  0  0
   22.2950   77.3000   14.3450 O   0  0  0  0  0  0
   30.4359   82.6731    3.9365 H   0  0  0  0  0  0
   29.2501   81.4510    3.3646 H   0  0  0  0  0  0
   28.5115   84.3250    4.1872 H   0  0  0  0  0  0
   28.7989   83.7942    2.4953 H   0  0  0  0  0  0
   24.4133   82.4431    4.2793 H   0  0  0  0  0  0
   23.6716   81.3057    6.3431 H   0  0  0  0  0  0
   27.7803   80.7679    7.6185 H   0  0  0  0  0  0
   26.0497   79.8418    8.9847 H   0  0  0  0  0  0
   25.8634   78.9877   10.4566 H   0  0  0  0  0  0
   25.4204   77.6129   12.4972 H   0  0  0  0  0  0
   21.1482   77.8973   11.7798 H   0  0  0  0  0  0
   21.5806   79.2559    9.7362 H   0  0  0  0  0  0
   29.1391   84.0143    6.1338 H   0  0  0  0  0  0
   30.7183   83.1608    6.2008 H   0  0  0  0  0  0
   29.4524   82.8051    7.4247 H   0  0  0  0  0  0
   29.4275   79.8381    5.2182 H   0  0  0  0  0  0
   29.6156   80.4310    6.9034 H   0  0  0  0  0  0
   30.8815   80.7867    5.6795 H   0  0  0  0  0  0
   26.1565   84.9179    3.9599 H   0  0  0  0  0  0
   25.0634   83.8795    2.9833 H   0  0  0  0  0  0
   26.4399   84.7241    2.1967 H   0  0  0  0  0  0
   27.5299   81.1818    2.3515 H   0  0  0  0  0  0
   27.2248   82.5893    1.2779 H   0  0  0  0  0  0
   25.8484   81.7447    2.0646 H   0  0  0  0  0  0
  1  2  1  0  0  0
  1 10  1  0  0  0
  1 20  1  0  0  0
  1 21  1  0  0  0
  2  3  1  0  0  0
  2 27  1  0  0  0
  2 28  1  0  0  0
  3  4  1  0  0  0
  3 29  1  0  0  0
  3 30  1  0  0  0
  4  5  1  0  0  0
  4 22  1  0  0  0
  4 23  1  0  0  0
  5  6  2  0  0  0
  5 10  1  0  0  0
  6  7  1  0  0  0
  6 31  1  0  0  0
  7  8  2  0  0  0
  7 32  1  0  0  0
  8  9  1  0  0  0
  8 11  1  0  0  0
  9 10  2  0  0  0
  9 33  1  0  0  0
 11 12  1  0  0  0
 11 34  1  0  0  0
 12 13  1  0  0  0
 12 24  2  0  0  0
 13 14  2  0  0  0
 13 18  1  0  0  0
 14 15  1  0  0  0
 14 35  1  0  0  0
 15 16  2  0  0  0
 15 36  1  0  0  0
 16 17  1  0  0  0
 16 19  1  0  0  0
 17 18  2  0  0  0
 17 37  1  0  0  0
 18 38  1  0  0  0
 19 25  1  0  0  0
 19 26  2  0  0  0
 20 39  1  0  0  0
 20 40  1  0  0  0
 20 41  1  0  0  0
 21 42  1  0  0  0
 21 43  1  0  0  0
 21 44  1  0  0  0
 22 45  1  0  0  0
 22 46  1  0  0  0
 22 47  1  0  0  0
 23 48  1  0  0  0
 23 49  1  0  0  0
 23 50  1  0  0  0
M  CHG  1  25  -1
M  END
> <s_m_source_file>
../2cbr_ligand.sdf

> <i_m_source_file_index>
1

> <s_epik_input>
W0NIM11DMShbQ0gzXSlbQ0gyXVtDSDJdQyhbQ0gzXSkoW0NIM10pYyhjMTIpW2NIXWMoW2NIXVtjSF0yKVtOSF1DKD1PKWMzW2NIXVtjSF1jKFtjSF1bY0hdMylDKD1PKVtPSF0=

> <s_epik_cmdline>
J2VwaWtfYXBwJywgJy1pbWFlJywgJ2xpZ2FuZF9wcm8ubWFlJywgJy1vbWFlJywgJ2xpZ2FuZF9wcmVwLm1hZScsICctbXMnLCAnMScsICctcGgnLCAnNycsICctcGh0JywgJzAuNScsICctbnQn

> <r_lp_tautomer_probability>
1

> <r_epik_Ionization_Penalty>
  0.0003

> <r_epik_Ionization_Penalty_Charging>
  0.0003

> <r_epik_Ionization_Penalty_Neutral>
  0.0000

> <r_epik_State_Penalty>
 -0.0000

> <r_epik_Charging_Adjusted_Penalty>
0.000325505715078075

> <i_epik_Tot_Q>
-1

> <i_epik_Tot_abs_Q>
1

$$$$
