2cbu_ligand
                    3D
 Schrodinger Suite 2020-3.
 29 30  0  0  1  0            999 V2000
   -0.5070   10.8440   10.6270 C   0  0  0  0  0  0
    0.3330   11.6930    9.6800 C   0  0  1  0  0  0
   -0.2730   11.9170    8.2970 C   0  0  2  0  0  0
   -1.0850   10.6940    7.8910 C   0  0  1  0  0  0
   -2.3280   10.6590    8.7820 C   0  0  1  0  0  0
   -3.1010    9.3570    8.7240 C   0  0  1  0  0  0
    0.5420   12.9510   10.3040 O   0  0  0  0  0  0
    0.8230   12.2310    7.4310 O   0  0  0  0  0  0
   -1.5210   10.8180    6.5390 O   0  0  0  0  0  0
   -2.2500    8.1960    8.8240 O   0  0  0  0  0  0
   -1.8710   10.5690   10.1820 N   0  3  1  0  0  0
   -3.8450    9.3820   10.0520 C   0  0  0  0  0  0
   -2.8230    9.8740   11.0510 C   0  0  0  0  0  0
   -0.0237    9.8661   10.7691 H   0  0  0  0  0  0
   -0.5941   11.3544   11.5975 H   0  0  0  0  0  0
    1.3034   11.1964    9.5325 H   0  0  0  0  0  0
   -0.9505   12.7795    8.2125 H   0  0  0  0  0  0
   -0.4789    9.7768    7.9294 H   0  0  0  0  0  0
   -2.9264   11.5349    8.4909 H   0  0  0  0  0  0
   -3.6589    9.2518    7.7819 H   0  0  0  0  0  0
    0.9746   12.9987   11.3142 H   0  0  0  0  0  0
    1.4641   13.0982    7.6475 H   0  0  0  0  0  0
   -0.7826   10.8621    5.7248 H   0  0  0  0  0  0
   -1.5854    7.9277    7.9895 H   0  0  0  0  0  0
   -1.7271   11.6243   10.4570 H   0  0  0  0  0  0
   -4.7057   10.0629    9.9773 H   0  0  0  0  0  0
   -4.1989    8.3688   10.2932 H   0  0  0  0  0  0
   -2.3080    9.0596   11.5817 H   0  0  0  0  0  0
   -3.2376   10.5836   11.7822 H   0  0  0  0  0  0
  1  2  1  0  0  0
  1 11  1  0  0  0
  1 14  1  0  0  0
  1 15  1  0  0  0
  2  3  1  0  0  0
  2  7  1  0  0  0
  2 16  1  0  0  0
  3  4  1  0  0  0
  3  8  1  0  0  0
  3 17  1  0  0  0
  4  5  1  0  0  0
  4  9  1  0  0  0
  4 18  1  0  0  0
  5  6  1  0  0  0
  5 11  1  0  0  0
  5 19  1  0  0  0
  6 10  1  0  0  0
  6 12  1  0  0  0
  6 20  1  0  0  0
  7 21  1  0  0  0
  8 22  1  0  0  0
  9 23  1  0  0  0
 10 24  1  0  0  0
 11 13  1  0  0  0
 11 25  1  0  0  0
 12 13  1  0  0  0
 12 26  1  0  0  0
 12 27  1  0  0  0
 13 28  1  0  0  0
 13 29  1  0  0  0
M  CHG  1  11   1
M  END
> <s_m_source_file>
../2cbu_ligand.sdf

> <i_m_source_file_index>
1

> <s_epik_input>
W09IXVtDQEhdMVtDQEhdKFtPSF0pW0NAQEhdKFtPSF0pW0NIMl1bTkBASCtdKFtDQEBIXTEyKVtDSDJdW0NIMl1bQ0BASF0yW09IXQ==

> <s_epik_cmdline>
J2VwaWtfYXBwJywgJy1pbWFlJywgJ2xpZ2FuZF9wcm8ubWFlJywgJy1vbWFlJywgJ2xpZ2FuZF9wcmVwLm1hZScsICctbXMnLCAnMScsICctcGgnLCAnNycsICctcGh0JywgJzAuNScsICctbnQn

> <r_epik_Ionization_Penalty>
  0.0117

> <r_epik_Ionization_Penalty_Charging>
  0.0117

> <r_epik_Ionization_Penalty_Neutral>
  0.0000

> <r_epik_State_Penalty>
  0.0090

> <r_epik_Charging_Adjusted_Penalty>
0.0207317003209308

> <i_epik_Tot_Q>
1

> <i_epik_Tot_abs_Q>
1

$$$$
