2cc7_ligand
                    3D
 Schrodinger Suite 2020-3.
 27 29  0  0  1  0            999 V2000
    0.2070   22.2550   -2.7100 N   0  0  0  0  0  0
   -0.4750   21.9390   -3.8170 C   0  0  0  0  0  0
    0.7220   21.2480   -1.9280 C   0  0  0  0  0  0
   -0.9670   22.8540   -4.5400 O   0  5  0  0  0  0
   -0.6730   20.6330   -4.1860 N   0  0  0  0  0  0
   -0.2170   19.5850   -3.4590 C   0  0  0  0  0  0
   -0.4190   18.4070   -3.8510 O   0  0  0  0  0  0
    0.5090   19.8370   -2.2980 C   0  0  0  0  0  0
    1.0080   18.8350   -1.5190 N   0  0  0  0  0  0
    1.7090   19.1710   -0.4120 C   0  0  0  0  0  0
    2.2300   18.1530    0.4000 C   0  0  0  0  0  0
    1.9180   20.5130   -0.0550 C   0  0  0  0  0  0
    2.9590   18.4810    1.5380 C   0  0  0  0  0  0
    3.5300   17.3450    2.3830 C   0  0  0  0  0  0
    3.1660   19.7970    1.8860 C   0  0  0  0  0  0
    3.9580   20.1230    3.1450 C   0  0  0  0  0  0
    2.6350   20.8350    1.1030 C   0  0  0  0  0  0
    1.4330   21.5120   -0.8200 N   0  0  0  0  0  0
    2.0640   17.1076    0.1398 H   0  0  0  0  0  0
    3.2521   16.3795    1.9352 H   0  0  0  0  0  0
    3.1232   17.4066    3.4032 H   0  0  0  0  0  0
    4.6261   17.4304    2.4195 H   0  0  0  0  0  0
    4.2904   19.1888    3.6213 H   0  0  0  0  0  0
    3.3206   20.6844    3.8440 H   0  0  0  0  0  0
    4.8351   20.7313    2.8792 H   0  0  0  0  0  0
    2.7792   21.8758    1.3929 H   0  0  0  0  0  0
    0.3502   23.3103   -2.4347 H   0  0  0  0  0  0
  1  2  1  0  0  0
  1  3  1  0  0  0
  1 27  1  0  0  0
  2  4  1  0  0  0
  2  5  2  0  0  0
  3  8  1  0  0  0
  3 18  2  0  0  0
  5  6  1  0  0  0
  6  7  2  0  0  0
  6  8  1  0  0  0
  8  9  2  0  0  0
  9 10  1  0  0  0
 10 11  1  0  0  0
 10 12  2  0  0  0
 11 13  2  0  0  0
 11 19  1  0  0  0
 12 17  1  0  0  0
 12 18  1  0  0  0
 13 14  1  0  0  0
 13 15  1  0  0  0
 14 20  1  0  0  0
 14 21  1  0  0  0
 14 22  1  0  0  0
 15 16  1  0  0  0
 15 17  2  0  0  0
 16 23  1  0  0  0
 16 24  1  0  0  0
 16 25  1  0  0  0
 17 26  1  0  0  0
M  CHG  1   4  -1
M  END
> <s_m_source_file>
../2cc7_ligand.sdf

> <i_m_source_file_index>
1

> <s_epik_input>
W25IXTFjKD1PKVtuSF1jKD1PKWMoYzEyKW5jM2MobjIpW2NIXWMoW0NIM10pYyhbY0hdMylbQ0gzXQ==

> <s_epik_cmdline>
J2VwaWtfYXBwJywgJy1pbWFlJywgJ2xpZ2FuZF9wcm8ubWFlJywgJy1vbWFlJywgJ2xpZ2FuZF9wcmVwLm1hZScsICctbXMnLCAnMScsICctcGgnLCAnNycsICctcGh0JywgJzAuNScsICctbnQn

> <r_epik_Ionization_Penalty>
  0.3535

> <r_epik_Ionization_Penalty_Charging>
  0.2136

> <r_epik_Ionization_Penalty_Neutral>
  0.1399

> <r_epik_State_Penalty>
  0.2982

> <r_epik_Charging_Adjusted_Penalty>
0.511813725595831

> <i_epik_Tot_Q>
-1

> <i_epik_Tot_abs_Q>
1

$$$$
