2ccb_ligand
                    3D
 Schrodinger Suite 2020-3.
 47 49  0  0  1  0            999 V2000
    0.2290   22.7140   -2.8930 N   0  0  0  0  0  0
   -0.4650   22.3310   -3.9920 C   0  0  0  0  0  0
   -0.9230   23.2470   -4.7080 O   0  0  0  0  0  0
   -0.6390   21.0430   -4.3260 N   0  0  0  0  0  0
   -0.1950   20.0310   -3.5950 C   0  0  0  0  0  0
   -0.3580   18.8400   -3.9200 O   0  0  0  0  0  0
    0.5670   20.3570   -2.3690 C   0  0  0  0  0  0
    1.0610   19.3890   -1.5810 N   0  0  0  0  0  0
    1.7560   19.7200   -0.4530 C   0  0  0  0  0  0
    2.2520   18.7100    0.3550 C   0  0  0  0  0  0
    2.9770   19.0210    1.5140 C   0  0  0  0  0  0
    3.5330   17.8890    2.3720 C   0  0  0  0  0  0
    3.1920   20.4430    1.8740 C   0  0  0  0  0  0
    3.9660   20.7820    3.1350 C   0  0  0  0  0  0
    2.6870   21.4750    1.0810 C   0  0  0  0  0  0
    1.9690   21.1450   -0.0880 C   0  0  0  0  0  0
    1.4570   22.1720   -0.9220 N   0  0  0  0  0  0
    0.7390   21.7850   -2.0650 C   0  0  0  0  0  0
    1.5960   23.6000   -0.5930 C   0  0  0  0  0  0
    2.5700   24.3800   -1.4470 C   0  0  2  0  0  0
    3.8580   24.1470   -0.8860 O   0  0  0  0  0  0
    2.1770   25.8630   -1.5060 C   0  0  2  0  0  0
    2.0800   26.3820   -0.1790 O   0  0  0  0  0  0
    0.8510   25.9910   -2.3170 C   0  0  2  0  0  0
    1.1430   25.7710   -3.6980 O   0  0  0  0  0  0
    0.0800   27.3010   -2.1830 C   0  0  0  0  0  0
   -1.0660   27.3250   -3.0630 O   0  0  0  0  0  0
   -1.1751   20.7821   -5.2504 H   0  0  0  0  0  0
    2.0776   17.6676    0.0882 H   0  0  0  0  0  0
    3.2587   16.9218    1.9255 H   0  0  0  0  0  0
    3.1125   17.9571    3.3862 H   0  0  0  0  0  0
    4.6287   17.9718    2.4230 H   0  0  0  0  0  0
    4.2854   19.8531    3.6300 H   0  0  0  0  0  0
    3.3227   21.3581    3.8164 H   0  0  0  0  0  0
    4.8508   21.3805    2.8724 H   0  0  0  0  0  0
    2.8445   22.5169    1.3598 H   0  0  0  0  0  0
    0.6218   24.0985   -0.7045 H   0  0  0  0  0  0
    1.9448   23.7049    0.4449 H   0  0  0  0  0  0
    2.6305   24.0203   -2.4848 H   0  0  0  0  0  0
    4.2408   23.1197   -0.7954 H   0  0  0  0  0  0
    2.9606   26.4990   -1.9435 H   0  0  0  0  0  0
    2.9524   26.3476    0.4901 H   0  0  0  0  0  0
    0.1628   25.2094   -1.9628 H   0  0  0  0  0  0
    1.6977   24.8726   -4.0065 H   0  0  0  0  0  0
   -0.2708   27.4156   -1.1467 H   0  0  0  0  0  0
    0.7392   28.1426   -2.4422 H   0  0  0  0  0  0
   -1.7255   28.2051   -3.0833 H   0  0  0  0  0  0
  1  2  1  0  0  0
  1 18  2  0  0  0
  2  3  2  0  0  0
  2  4  1  0  0  0
  4  5  1  0  0  0
  4 28  1  0  0  0
  5  6  2  0  0  0
  5  7  1  0  0  0
  7  8  2  0  0  0
  7 18  1  0  0  0
  8  9  1  0  0  0
  9 10  2  0  0  0
  9 16  1  0  0  0
 10 11  1  0  0  0
 10 29  1  0  0  0
 11 12  1  0  0  0
 11 13  2  0  0  0
 12 30  1  0  0  0
 12 31  1  0  0  0
 12 32  1  0  0  0
 13 14  1  0  0  0
 13 15  1  0  0  0
 14 33  1  0  0  0
 14 34  1  0  0  0
 14 35  1  0  0  0
 15 16  2  0  0  0
 15 36  1  0  0  0
 16 17  1  0  0  0
 17 18  1  0  0  0
 17 19  1  0  0  0
 19 20  1  0  0  0
 19 37  1  0  0  0
 19 38  1  0  0  0
 20 21  1  0  0  0
 20 22  1  0  0  0
 20 39  1  0  0  0
 21 40  1  0  0  0
 22 23  1  0  0  0
 22 24  1  0  0  0
 22 41  1  0  0  0
 23 42  1  0  0  0
 24 25  1  0  0  0
 24 26  1  0  0  0
 24 43  1  0  0  0
 25 44  1  0  0  0
 26 27  1  0  0  0
 26 45  1  0  0  0
 26 46  1  0  0  0
 27 47  1  0  0  0
M  END
> <s_m_source_file>
../2ccb_ligand.sdf

> <i_m_source_file_index>
1

> <s_epik_input>
Tz1jMVtuSF1jKD1PKW5jKGMxMiluKGMzYyhuMilbY0hdYyhbQ0gzXSljKFtDSDNdKVtjSF0zKVtDSDJdW0NASF0oW09IXSlbQ0BIXShbT0hdKVtDQEhdKFtPSF0pW0NIMl1bT0hd

> <s_epik_cmdline>
J2VwaWtfYXBwJywgJy1pbWFlJywgJ2xpZ2FuZF9wcm8ubWFlJywgJy1vbWFlJywgJ2xpZ2FuZF9wcmVwLm1hZScsICctbXMnLCAnMScsICctcGgnLCAnNycsICctcGh0JywgJzAuNScsICctbnQn

> <r_lp_tautomer_probability>
1

> <r_epik_Ionization_Penalty>
  0.0006

> <r_epik_Ionization_Penalty_Charging>
  0.0006

> <r_epik_Ionization_Penalty_Neutral>
  0.0000

> <r_epik_State_Penalty>
 -0.0000

> <r_epik_Charging_Adjusted_Penalty>
0.000566488079864488

> <i_epik_Tot_Q>
0

> <i_epik_Tot_abs_Q>
0

$$$$
