2ccs_ligand
                    3D
 Schrodinger Suite 2020-3.
 35 37  0  0  1  0            999 V2000
   33.4180   12.4120   23.0680 Cl  0  0  0  0  0  0
   31.8580   11.7320   23.5930 C   0  0  0  0  0  0
   30.7280   11.9710   22.8700 C   0  0  0  0  0  0
   30.8540   12.7170   21.6860 O   0  0  0  0  0  0
   29.4780   11.4760   23.2290 C   0  0  0  0  0  0
   29.4140   10.7440   24.4030 C   0  0  0  0  0  0
   28.1680   10.2570   24.8080 O   0  5  0  0  0  0
   31.8220   10.9560   24.7300 C   0  0  0  0  0  0
   30.5660   10.4780   25.1420 C   0  0  0  0  0  0
   30.4910    9.6030   26.3430 C   0  0  0  0  0  0
   29.6900    9.6490   27.3800 N   0  3  0  0  0  0
   29.9620    8.6100   28.1630 N   0  0  0  0  0  0
   30.9230    7.8140   27.6910 C   0  0  0  0  0  0
   31.2860    8.4410   26.4960 C   0  0  0  0  0  0
   32.1990    7.8090   25.6810 N   0  0  0  0  0  0
   31.8170    7.3560   24.3430 C   0  0  0  0  0  0
   32.9930    7.1640   23.3710 C   0  0  0  0  0  0
   33.4830    7.3880   26.2540 C   0  0  0  0  0  0
   34.6030    7.1890   25.2260 C   0  0  0  0  0  0
   34.1340    6.4390   24.0180 N   0  3  0  0  0  0
   31.8354   13.1151   21.3886 H   0  0  0  0  0  0
   28.5939   11.6553   22.6172 H   0  0  0  0  0  0
   32.7293   10.7223   25.2871 H   0  0  0  0  0  0
   31.3254    6.9006   28.1291 H   0  0  0  0  0  0
   31.3034    6.3861   24.4170 H   0  0  0  0  0  0
   31.1423    8.0941   23.8847 H   0  0  0  0  0  0
   32.6586    6.5781   22.5021 H   0  0  0  0  0  0
   33.3540    8.1467   23.0336 H   0  0  0  0  0  0
   33.8340    8.1494   26.9661 H   0  0  0  0  0  0
   33.3544    6.4287   26.7767 H   0  0  0  0  0  0
   34.9763    8.1697   24.8960 H   0  0  0  0  0  0
   35.4247    6.6193   25.6846 H   0  0  0  0  0  0
   33.8047    5.4346   24.3226 H   0  0  0  0  0  0
   34.9653    6.3511   23.3030 H   0  0  0  0  0  0
   28.9566   10.4635   27.4727 H   0  0  0  0  0  0
  1  2  1  0  0  0
  2  3  2  0  0  0
  2  8  1  0  0  0
  3  4  1  0  0  0
  3  5  1  0  0  0
  4 21  1  0  0  0
  5  6  2  0  0  0
  5 22  1  0  0  0
  6  7  1  0  0  0
  6  9  1  0  0  0
  8  9  2  0  0  0
  8 23  1  0  0  0
  9 10  1  0  0  0
 10 11  2  0  0  0
 10 14  1  0  0  0
 11 12  1  0  0  0
 11 35  1  0  0  0
 12 13  1  0  0  0
 13 14  2  0  0  0
 13 24  1  0  0  0
 14 15  1  0  0  0
 15 16  1  0  0  0
 15 18  1  0  0  0
 16 17  1  0  0  0
 16 25  1  0  0  0
 16 26  1  0  0  0
 17 20  1  0  0  0
 17 27  1  0  0  0
 17 28  1  0  0  0
 18 19  1  0  0  0
 18 29  1  0  0  0
 18 30  1  0  0  0
 19 20  1  0  0  0
 19 31  1  0  0  0
 19 32  1  0  0  0
 20 33  1  0  0  0
 20 34  1  0  0  0
M  CHG  3   7  -1  11   1  20   1
M  END
> <s_m_source_file>
../2ccs_ligand.sdf

> <i_m_source_file_index>
1

> <s_epik_input>
Q2xjMWMoW09IXSlbY0hdYyhbT0hdKWMoW2NIXTEpLWMybltuSF1bY0hdYzJOM1tDSDJdW0NIMl1bTkgyK11bQ0gyXVtDSDJdMw==

> <s_epik_cmdline>
J2VwaWtfYXBwJywgJy1pbWFlJywgJ2xpZ2FuZF9wcm8ubWFlJywgJy1vbWFlJywgJ2xpZ2FuZF9wcmVwLm1hZScsICctbXMnLCAnMScsICctcGgnLCAnNycsICctcGh0JywgJzAuNScsICctbnQn

> <r_epik_Ionization_Penalty>
  0.0420

> <r_epik_Ionization_Penalty_Charging>
  0.0414

> <r_epik_Ionization_Penalty_Neutral>
  0.0007

> <r_epik_State_Penalty>
  0.0347

> <r_epik_Charging_Adjusted_Penalty>
0.0760064039878084

> <i_epik_Tot_Q>
1

> <i_epik_Tot_abs_Q>
3

$$$$
