2cct_ligand
                    3D
 Schrodinger Suite 2020-3.
 44 46  0  0  1  0            999 V2000
   35.0300    7.1580   25.3610 C   0  0  0  0  0  0
   34.0940    8.2190   25.9230 C   0  0  0  0  0  0
   32.3020    7.4210   24.3390 C   0  0  0  0  0  0
   33.2950    6.3580   23.8720 C   0  0  0  0  0  0
   32.6980    8.0350   25.5880 N   0  0  0  0  0  0
   31.7870    8.6090   26.3990 C   0  0  0  0  0  0
   31.3770    8.3360   27.6760 C   0  0  0  0  0  0
   31.8480    7.2240   28.4370 C   0  0  0  0  0  0
   34.6920    6.9190   23.9210 N   0  0  0  0  0  0
   32.3810    6.2910   27.8430 O   0  0  0  0  0  0
   31.7170    7.2950   29.7650 N   0  0  0  0  0  0
   31.9740    6.1740   30.5170 C   0  0  0  0  0  0
   33.4540    5.8480   30.7900 C   0  0  0  0  0  0
   30.5410    9.2700   28.1140 N   0  3  0  0  0  0
   30.3490   10.1640   27.1350 N   0  0  0  0  0  0
   31.0920    9.8120   26.0680 C   0  0  0  0  0  0
   31.1260   10.6170   24.8360 C   0  0  0  0  0  0
   32.3410   11.1030   24.3700 C   0  0  0  0  0  0
   32.3740   11.8650   23.2070 C   0  0  0  0  0  0
   33.8730   12.5000   22.6400 Cl  0  0  0  0  0  0
   31.2390   12.1950   22.4900 C   0  0  0  0  0  0
   31.3410   12.9440   21.3480 O   0  5  0  0  0  0
   30.0080   11.7000   22.9670 C   0  0  0  0  0  0
   29.9780   10.9260   24.1380 C   0  0  0  0  0  0
   28.8370   10.5160   24.5970 O   0  0  0  0  0  0
   36.0703    7.5056   25.4441 H   0  0  0  0  0  0
   34.9090    6.2240   25.9294 H   0  0  0  0  0  0
   34.1592    8.2209   27.0211 H   0  0  0  0  0  0
   34.3854    9.2068   25.5367 H   0  0  0  0  0  0
   32.2287    8.2132   23.5794 H   0  0  0  0  0  0
   31.3137    6.9606   24.4852 H   0  0  0  0  0  0
   33.2293    5.4800   24.5314 H   0  0  0  0  0  0
   33.0555    6.0605   22.8404 H   0  0  0  0  0  0
   34.7445    7.8693   23.3695 H   0  0  0  0  0  0
   31.4095    8.2292   30.2577 H   0  0  0  0  0  0
   31.5045    6.2804   31.5061 H   0  0  0  0  0  0
   31.5624    5.2894   30.0090 H   0  0  0  0  0  0
   33.5220    4.9337   31.3978 H   0  0  0  0  0  0
   33.9197    6.6842   31.3321 H   0  0  0  0  0  0
   33.9775    5.6932   29.8350 H   0  0  0  0  0  0
   33.2682   10.8844   24.9200 H   0  0  0  0  0  0
   29.3333   12.5415   23.1828 H   0  0  0  0  0  0
   29.5529   11.0517   22.2037 H   0  0  0  0  0  0
   30.0330    9.3962   29.0815 H   0  0  0  0  0  0
  1  2  1  0  0  0
  1  9  1  0  0  0
  1 26  1  0  0  0
  1 27  1  0  0  0
  2  5  1  0  0  0
  2 28  1  0  0  0
  2 29  1  0  0  0
  3  4  1  0  0  0
  3  5  1  0  0  0
  3 30  1  0  0  0
  3 31  1  0  0  0
  4  9  1  0  0  0
  4 32  1  0  0  0
  4 33  1  0  0  0
  5  6  1  0  0  0
  6  7  2  0  0  0
  6 16  1  0  0  0
  7  8  1  0  0  0
  7 14  1  0  0  0
  8 10  2  0  0  0
  8 11  1  0  0  0
  9 34  1  0  0  0
 11 12  1  0  0  0
 11 35  1  0  0  0
 12 13  1  0  0  0
 12 36  1  0  0  0
 12 37  1  0  0  0
 13 38  1  0  0  0
 13 39  1  0  0  0
 13 40  1  0  0  0
 14 15  1  0  0  0
 14 44  1  0  0  0
 15 16  2  0  0  0
 16 17  1  0  0  0
 17 18  2  0  0  0
 17 24  1  0  0  0
 18 19  1  0  0  0
 18 41  1  0  0  0
 19 20  1  0  0  0
 19 21  2  0  0  0
 21 22  1  0  0  0
 21 23  1  0  0  0
 23 24  1  0  0  0
 23 42  1  0  0  0
 23 43  1  0  0  0
 24 25  2  0  0  0
M  CHG  2  14   1  22  -1
M  END
> <s_m_source_file>
../2cct_ligand.sdf

> <i_m_source_file_index>
1

> <s_epik_input>
W0NIMl0xW0NIMl1bTkgyK11bQ0gyXVtDSDJdTjFjMmMoQyg9TylbTkhdW0NIMl1bQ0gzXSlbbkhdbmMyQzM9W0NIXUMoQ2wpPUMoW09IXSlbQ0gyXUMzPU8=

> <s_epik_cmdline>
J2VwaWtfYXBwJywgJy1pbWFlJywgJ2xpZ2FuZF9wcm8ubWFlJywgJy1vbWFlJywgJ2xpZ2FuZF9wcmVwLm1hZScsICctbXMnLCAnMScsICctcGgnLCAnNycsICctcGh0JywgJzAuNScsICctbnQn

> <r_epik_Ionization_Penalty>
  0.3010

> <r_epik_Ionization_Penalty_Charging>
  0.0302

> <r_epik_Ionization_Penalty_Neutral>
  0.2708

> <r_epik_State_Penalty>
  0.2625

> <r_epik_Charging_Adjusted_Penalty>
0.292713166647683

> <i_epik_Tot_Q>
0

> <i_epik_Tot_abs_Q>
2

> <s_epik_Chemistry_Notes>
This compound has an imine and may undergo hydrolysis.

$$$$
