2ccu_ligand
                    3D
 Schrodinger Suite 2020-3.
 54 57  0  0  1  0            999 V2000
   30.3250    3.0800   18.5890 C   0  0  0  0  0  0
   32.1020    2.8400   18.4830 S   0  0  0  0  0  0
   32.1810    1.3580   18.7050 O   0  0  0  0  0  0
   32.4150    3.2230   17.0480 O   0  0  0  0  0  0
   33.0550    3.7530   19.7760 C   0  0  0  0  0  0
   33.7420    4.9720   19.5820 C   0  0  0  0  0  0
   34.4350    5.6070   20.6510 C   0  0  0  0  0  0
   33.1200    3.2080   21.0650 C   0  0  0  0  0  0
   33.8070    3.8360   22.1240 C   0  0  0  0  0  0
   34.4630    5.0560   21.9510 C   0  0  0  0  0  0
   35.2220    5.6900   23.1690 C   0  0  0  0  0  0
   34.4470    6.6080   24.0870 N   0  3  0  0  0  0
   33.1080    7.0140   23.5630 C   0  0  0  0  0  0
   31.9840    6.9510   24.6110 C   0  0  0  0  0  0
   34.4600    6.0970   25.4990 C   0  0  0  0  0  0
   33.6370    6.9400   26.5240 C   0  0  0  0  0  0
   32.3580    7.4140   25.9510 N   0  0  0  0  0  0
   31.5040    8.2570   26.7030 C   0  0  0  0  0  0
   31.1690    7.9020   27.9240 C   0  0  0  0  0  0
   30.3760    8.8750   28.3980 N   0  0  0  0  0  0
   30.1700    9.7950   27.5770 N   0  3  0  0  0  0
   30.8580    9.5430   26.4630 C   0  0  0  0  0  0
   30.8970   10.3700   25.3020 C   0  0  0  0  0  0
   32.1040   10.8160   24.8050 C   0  0  0  0  0  0
   32.1800   11.6200   23.6540 C   0  0  0  0  0  0
   33.7640   12.1180   23.1540 Cl  0  0  0  0  0  0
   31.0220   12.0100   22.9210 C   0  0  0  0  0  0
   31.0940   12.7880   21.7370 O   0  0  0  0  0  0
   29.7810   11.5660   23.4590 C   0  0  0  0  0  0
   29.7430   10.7670   24.6180 C   0  0  0  0  0  0
   28.5440   10.3480   25.0670 O   0  5  0  0  0  0
   29.8295    2.5080   17.7907 H   0  0  0  0  0  0
   30.0918    4.1488   18.4732 H   0  0  0  0  0  0
   29.9655    2.7302   19.5680 H   0  0  0  0  0  0
   33.7414    5.4350   18.5952 H   0  0  0  0  0  0
   34.9583    6.5441   20.4610 H   0  0  0  0  0  0
   32.6188    2.2593   21.2571 H   0  0  0  0  0  0
   33.8264    3.3567   23.1028 H   0  0  0  0  0  0
   35.6036    4.8897   23.8201 H   0  0  0  0  0  0
   36.0632    6.2962   22.8016 H   0  0  0  0  0  0
   34.9684    7.5761   24.1154 H   0  0  0  0  0  0
   33.1559    8.0508   23.1986 H   0  0  0  0  0  0
   32.8203    6.3477   22.7364 H   0  0  0  0  0  0
   31.1426    7.5797   24.2844 H   0  0  0  0  0  0
   31.6433    5.9109   24.7213 H   0  0  0  0  0  0
   34.0411    5.0802   25.5248 H   0  0  0  0  0  0
   35.4946    6.0769   25.8722 H   0  0  0  0  0  0
   33.4107    6.3245   27.4071 H   0  0  0  0  0  0
   34.2230    7.8191   26.8302 H   0  0  0  0  0  0
   31.4750    6.9963   28.4476 H   0  0  0  0  0  0
   33.0241   10.5375   25.3187 H   0  0  0  0  0  0
   32.0714   13.1130   21.3511 H   0  0  0  0  0  0
   28.8494   11.8477   22.9682 H   0  0  0  0  0  0
   29.5058   10.6307   27.8426 H   0  0  0  0  0  0
  1  2  1  0  0  0
  1 32  1  0  0  0
  1 33  1  0  0  0
  1 34  1  0  0  0
  2  3  2  0  0  0
  2  4  2  0  0  0
  2  5  1  0  0  0
  5  6  2  0  0  0
  5  8  1  0  0  0
  6  7  1  0  0  0
  6 35  1  0  0  0
  7 10  2  0  0  0
  7 36  1  0  0  0
  8  9  2  0  0  0
  8 37  1  0  0  0
  9 10  1  0  0  0
  9 38  1  0  0  0
 10 11  1  0  0  0
 11 12  1  0  0  0
 11 39  1  0  0  0
 11 40  1  0  0  0
 12 13  1  0  0  0
 12 15  1  0  0  0
 12 41  1  0  0  0
 13 14  1  0  0  0
 13 42  1  0  0  0
 13 43  1  0  0  0
 14 17  1  0  0  0
 14 44  1  0  0  0
 14 45  1  0  0  0
 15 16  1  0  0  0
 15 46  1  0  0  0
 15 47  1  0  0  0
 16 17  1  0  0  0
 16 48  1  0  0  0
 16 49  1  0  0  0
 17 18  1  0  0  0
 18 19  2  0  0  0
 18 22  1  0  0  0
 19 20  1  0  0  0
 19 50  1  0  0  0
 20 21  1  0  0  0
 21 22  2  0  0  0
 21 54  1  0  0  0
 22 23  1  0  0  0
 23 24  2  0  0  0
 23 30  1  0  0  0
 24 25  1  0  0  0
 24 51  1  0  0  0
 25 26  1  0  0  0
 25 27  2  0  0  0
 27 28  1  0  0  0
 27 29  1  0  0  0
 28 52  1  0  0  0
 29 30  2  0  0  0
 29 53  1  0  0  0
 30 31  1  0  0  0
M  CHG  3  12   1  21   1  31  -1
M  END
> <s_m_source_file>
../2ccu_ligand.sdf

> <i_m_source_file_index>
1

> <s_epik_input>
W0NIM11TKD1PKSg9TyljMVtjSF1bY0hdYyhbY0hdW2NIXTEpW0NIMl1bTkgrXTJbQ0gyXVtDSDJdTihbQ0gyXVtDSDJdMiljM1tjSF1bbkhdbmMzLWM0W2NIXWMoQ2wpYyhbT0hdKVtjSF1jNFtPSF0=

> <s_epik_cmdline>
J2VwaWtfYXBwJywgJy1pbWFlJywgJ2xpZ2FuZF9wcm8ubWFlJywgJy1vbWFlJywgJ2xpZ2FuZF9wcmVwLm1hZScsICctbXMnLCAnMScsICctcGgnLCAnNycsICctcGh0JywgJzAuNScsICctbnQn

> <r_epik_Ionization_Penalty>
  0.1729

> <r_epik_Ionization_Penalty_Charging>
  0.1723

> <r_epik_Ionization_Penalty_Neutral>
  0.0007

> <r_epik_State_Penalty>
  0.1614

> <r_epik_Charging_Adjusted_Penalty>
0.333694325277242

> <i_epik_Tot_Q>
1

> <i_epik_Tot_abs_Q>
3

$$$$
