2ce9_ligand
                    3D
 Schrodinger Suite 2020-3.
106110  0  0  1  0            999 V2000
  -25.1260  -15.1240   33.5760 N   0  3  0  0  0  0
  -24.9950  -13.7870   34.2780 C   0  0  2  0  0  0
  -23.5700  -13.5000   34.6620 C   0  0  0  0  0  0
  -22.9220  -14.3650   35.2200 O   0  0  0  0  0  0
  -25.8510  -13.7690   35.5340 C   0  0  0  0  0  0
  -26.4150  -12.4200   35.8900 C   0  0  0  0  0  0
  -27.8420  -11.8290   34.9400 S   0  0  0  0  0  0
  -27.0710  -11.4820   33.3280 C   0  0  0  0  0  0
  -23.0520  -12.3150   34.3430 N   0  0  0  0  0  0
  -21.6780  -12.0000   34.7700 C   0  0  2  0  0  0
  -21.5630  -11.8100   36.2970 C   0  0  0  0  0  0
  -22.2740  -10.9640   36.8800 O   0  0  0  0  0  0
  -21.0970  -10.7990   34.0210 C   0  0  0  0  0  0
  -19.8060  -10.3160   34.6250 C   0  0  0  0  0  0
  -18.5760  -10.9010   34.4910 C   0  0  0  0  0  0
  -19.6180   -9.1510   35.4560 C   0  0  0  0  0  0
  -17.6430  -10.1810   35.1900 N   0  3  0  0  0  0
  -18.2480   -9.0990   35.7890 C   0  0  0  0  0  0
  -20.4800   -8.1700   35.9730 C   0  0  0  0  0  0
  -17.7010   -8.0700   36.6140 C   0  0  0  0  0  0
  -19.9470   -7.1300   36.7780 C   0  0  0  0  0  0
  -18.5760   -7.0850   37.0900 C   0  0  0  0  0  0
  -20.6600  -12.5840   36.9270 N   0  0  0  0  0  0
  -20.4460  -12.5420   38.3710 C   0  0  2  0  0  0
  -18.9620  -12.6320   38.6170 C   0  0  0  0  0  0
  -18.3990  -13.7030   38.4580 O   0  0  0  0  0  0
  -21.1440  -13.7190   39.0840 C   0  0  0  0  0  0
  -22.6290  -13.8620   38.7610 C   0  0  0  0  0  0
  -23.2410  -15.0170   39.5680 C   0  0  0  0  0  0
  -24.6980  -14.9420   39.5090 N   0  0  0  0  0  0
  -25.4950  -15.9970   39.6890 C   0  0  0  0  0  0
  -24.9560  -17.1830   39.9610 N   0  0  0  0  0  0
  -26.8170  -15.8690   39.6150 N   0  3  0  0  0  0
  -18.3240  -11.5230   39.0230 N   0  0  0  0  0  0
  -16.8460  -11.4830   39.0990 C   0  0  2  0  0  0
  -16.1500  -12.2260   40.2730 C   0  0  0  0  0  0
  -14.8890  -12.3590   40.2850 O   0  0  0  0  0  0
  -16.5470   -9.9840   39.1980 C   0  0  0  0  0  0
  -17.8170   -9.3600   39.8490 C   0  0  0  0  0  0
  -18.9570  -10.2210   39.3690 C   0  0  0  0  0  0
  -16.9330  -12.6810   41.2470 N   0  0  0  0  0  0
  -16.3610  -13.2480   42.4760 C   0  0  2  0  0  0
  -16.1200  -14.7680   42.3840 C   0  0  0  0  0  0
  -16.4110  -15.4700   41.3990 O   0  5  0  0  0  0
  -17.2610  -12.9020   43.6800 C   0  0  0  0  0  0
  -18.6540  -13.5000   43.6120 C   0  0  0  0  0  0
  -19.0330  -14.7290   44.0600 C   0  0  0  0  0  0
  -19.8480  -12.8810   43.0840 C   0  0  0  0  0  0
  -20.3690  -14.9290   43.8360 N   0  3  0  0  0  0
  -20.8990  -13.8050   43.2500 C   0  0  0  0  0  0
  -20.1220  -11.6470   42.4800 C   0  0  0  0  0  0
  -22.2040  -13.5440   42.8090 C   0  0  0  0  0  0
  -21.4250  -11.3800   42.0680 C   0  0  0  0  0  0
  -22.4470  -12.3420   42.2250 C   0  0  0  0  0  0
  -15.6230  -15.3830   43.3350 O   0  0  0  0  0  0
  -24.5027  -15.1248   32.6696 H   0  0  0  0  0  0
  -26.1772  -15.2909   33.2983 H   0  0  0  0  0  0
  -24.7932  -15.9265   34.2507 H   0  0  0  0  0  0
  -25.3246  -13.0104   33.5721 H   0  0  0  0  0  0
  -26.7069  -14.4477   35.4042 H   0  0  0  0  0  0
  -25.2485  -14.0989   36.3931 H   0  0  0  0  0  0
  -26.7476  -12.4267   36.9385 H   0  0  0  0  0  0
  -25.6395  -11.6514   35.7563 H   0  0  0  0  0  0
  -27.8337  -11.1065   32.6300 H   0  0  0  0  0  0
  -26.6295  -12.4059   32.9263 H   0  0  0  0  0  0
  -26.2839  -10.7239   33.4536 H   0  0  0  0  0  0
  -23.6328  -11.5770   33.7703 H   0  0  0  0  0  0
  -21.1127  -12.8971   34.4774 H   0  0  0  0  0  0
  -20.8990  -11.0794   32.9759 H   0  0  0  0  0  0
  -21.8164   -9.9673   34.0475 H   0  0  0  0  0  0
  -18.4639  -11.8138   33.8875 H   0  0  0  0  0  0
  -21.5479   -8.2072   35.7580 H   0  0  0  0  0  0
  -16.6403   -8.0515   36.8645 H   0  0  0  0  0  0
  -20.6101   -6.3541   37.1605 H   0  0  0  0  0  0
  -18.1903   -6.2749   37.7089 H   0  0  0  0  0  0
  -20.0692  -13.2708   36.3032 H   0  0  0  0  0  0
  -20.8631  -11.5875   38.7246 H   0  0  0  0  0  0
  -20.6604  -14.6630   38.7925 H   0  0  0  0  0  0
  -21.0643  -13.5872   40.1732 H   0  0  0  0  0  0
  -23.1515  -12.9285   39.0171 H   0  0  0  0  0  0
  -22.7526  -14.0687   37.6877 H   0  0  0  0  0  0
  -22.9082  -15.9764   39.1452 H   0  0  0  0  0  0
  -22.9147  -14.9453   40.6160 H   0  0  0  0  0  0
  -25.1915  -13.9798   39.3076 H   0  0  0  0  0  0
  -23.8629  -17.2893   40.0223 H   0  0  0  0  0  0
  -25.6036  -18.0570   40.1245 H   0  0  0  0  0  0
  -27.2630  -14.8889   39.3902 H   0  0  0  0  0  0
  -16.4861  -12.0166   38.2070 H   0  0  0  0  0  0
  -15.6540   -9.8286   39.8212 H   0  0  0  0  0  0
  -16.3667   -9.5788   38.1914 H   0  0  0  0  0  0
  -17.7184   -9.3869   40.9442 H   0  0  0  0  0  0
  -17.9250   -8.3172   39.5161 H   0  0  0  0  0  0
  -19.4404   -9.7994   38.4754 H   0  0  0  0  0  0
  -19.7110  -10.3771   40.1545 H   0  0  0  0  0  0
  -18.0246  -12.6280   41.1219 H   0  0  0  0  0  0
  -15.3780  -12.7633   42.5694 H   0  0  0  0  0  0
  -16.7960  -13.2750   44.6045 H   0  0  0  0  0  0
  -17.3827  -11.8107   43.7452 H   0  0  0  0  0  0
  -18.2930  -15.3975   44.5241 H   0  0  0  0  0  0
  -19.3312  -10.9108   42.3355 H   0  0  0  0  0  0
  -22.9974  -14.2814   42.9308 H   0  0  0  0  0  0
  -21.6595  -10.4153   41.6181 H   0  0  0  0  0  0
  -23.4522  -12.1150   41.8699 H   0  0  0  0  0  0
  -20.8380  -15.8820   44.1221 H   0  0  0  0  0  0
  -16.5929  -10.5084   35.2038 H   0  0  0  0  0  0
  -27.4642  -16.7433   39.7786 H   0  0  0  0  0  0
  1  2  1  0  0  0
  1 56  1  0  0  0
  1 57  1  0  0  0
  1 58  1  0  0  0
  2  3  1  0  0  0
  2  5  1  0  0  0
  2 59  1  0  0  0
  3  4  2  0  0  0
  3  9  1  0  0  0
  5  6  1  0  0  0
  5 60  1  0  0  0
  5 61  1  0  0  0
  6  7  1  0  0  0
  6 62  1  0  0  0
  6 63  1  0  0  0
  7  8  1  0  0  0
  8 64  1  0  0  0
  8 65  1  0  0  0
  8 66  1  0  0  0
  9 10  1  0  0  0
  9 67  1  0  0  0
 10 11  1  0  0  0
 10 13  1  0  0  0
 10 68  1  0  0  0
 11 12  2  0  0  0
 11 23  1  0  0  0
 13 14  1  0  0  0
 13 69  1  0  0  0
 13 70  1  0  0  0
 14 15  2  0  0  0
 14 16  1  0  0  0
 15 17  1  0  0  0
 15 71  1  0  0  0
 16 18  2  0  0  0
 16 19  1  0  0  0
 17 18  1  0  0  0
 17105  1  0  0  0
 18 20  1  0  0  0
 19 21  2  0  0  0
 19 72  1  0  0  0
 20 22  2  0  0  0
 20 73  1  0  0  0
 21 22  1  0  0  0
 21 74  1  0  0  0
 22 75  1  0  0  0
 23 24  1  0  0  0
 23 76  1  0  0  0
 24 25  1  0  0  0
 24 27  1  0  0  0
 24 77  1  0  0  0
 25 26  2  0  0  0
 25 34  1  0  0  0
 27 28  1  0  0  0
 27 78  1  0  0  0
 27 79  1  0  0  0
 28 29  1  0  0  0
 28 80  1  0  0  0
 28 81  1  0  0  0
 29 30  1  0  0  0
 29 82  1  0  0  0
 29 83  1  0  0  0
 30 31  1  0  0  0
 30 84  1  0  0  0
 31 32  1  0  0  0
 31 33  2  0  0  0
 32 85  1  0  0  0
 32 86  1  0  0  0
 33 87  1  0  0  0
 33106  1  0  0  0
 34 35  1  0  0  0
 34 40  1  0  0  0
 35 36  1  0  0  0
 35 38  1  0  0  0
 35 88  1  0  0  0
 36 37  2  0  0  0
 36 41  1  0  0  0
 38 39  1  0  0  0
 38 89  1  0  0  0
 38 90  1  0  0  0
 39 40  1  0  0  0
 39 91  1  0  0  0
 39 92  1  0  0  0
 40 93  1  0  0  0
 40 94  1  0  0  0
 41 42  1  0  0  0
 41 95  1  0  0  0
 42 43  1  0  0  0
 42 45  1  0  0  0
 42 96  1  0  0  0
 43 44  1  0  0  0
 43 55  2  0  0  0
 45 46  1  0  0  0
 45 97  1  0  0  0
 45 98  1  0  0  0
 46 47  2  0  0  0
 46 48  1  0  0  0
 47 49  1  0  0  0
 47 99  1  0  0  0
 48 50  2  0  0  0
 48 51  1  0  0  0
 49 50  1  0  0  0
 49104  1  0  0  0
 50 52  1  0  0  0
 51 53  2  0  0  0
 51100  1  0  0  0
 52 54  2  0  0  0
 52101  1  0  0  0
 53 54  1  0  0  0
 53102  1  0  0  0
 54103  1  0  0  0
M  CHG  5   1   1  17   1  33   1  44  -1  49   1
M  END
> <s_m_source_file>
../2ce9_ligand.sdf

> <i_m_source_file_index>
1

> <s_epik_input>
W2NIXTFbY0hdW2NIXVtjSF1jKGMxMilbbkhdW2NIXWMyW0NIMl1bQ0BIXShbTkhdQyg9TylbQ0BASF0oW05IMytdKVtDSDJdW0NIMl1TW0NIM10pQyg9TylbTkhdW0NAQEhdKFtDSDJdW0NIMl1bQ0gyXVtOSF0vQyhbTkgyXSk9TlxbSF0pQyg9TylOM1tDQEBIXShbQ0gyXVtDSDJdW0NIMl0zKUMoPU8pW05IXVtDQEhdKEMoPU8pW09IXSlbQ0gyXWM0W2NIXVtuSF1jKGM0NSlbY0hdW2NIXVtjSF1bY0hdNQ==

> <s_epik_cmdline>
J2VwaWtfYXBwJywgJy1pbWFlJywgJ2xpZ2FuZF9wcm8ubWFlJywgJy1vbWFlJywgJ2xpZ2FuZF9wcmVwLm1hZScsICctbXMnLCAnMScsICctcGgnLCAnNycsICctcGh0JywgJzAuNScsICctbnQn

> <r_epik_Ionization_Penalty>
  0.1704

> <r_epik_Ionization_Penalty_Charging>
  0.1704

> <r_epik_Ionization_Penalty_Neutral>
  0.0000

> <r_epik_State_Penalty>
  0.1596

> <r_epik_Charging_Adjusted_Penalty>
0.329998328285481

> <i_epik_Tot_Q>
3

> <i_epik_Tot_abs_Q>
5

> <s_epik_Chemistry_Notes>
This compound has an imine and may undergo hydrolysis.

$$$$
