2cej_ligand
                    3D
 Schrodinger Suite 2020-3.
 86 89  0  0  1  0            999 V2000
   14.7990   22.1140    7.9090 C   0  0  0  0  0  0
   14.2840   20.9720    8.6230 C   0  0  0  0  0  0
   15.1580   20.1610    9.4240 C   0  0  0  0  0  0
   16.5570   20.4900    9.5160 C   0  0  0  0  0  0
   17.0770   21.6270    8.8100 C   0  0  0  0  0  0
   16.2080   22.4410    8.0080 C   0  0  0  0  0  0
    9.8270   23.7910    2.8810 C   0  0  0  0  0  0
   10.3450   24.5120    1.7690 C   0  0  0  0  0  0
    9.4820   25.3570    1.0200 C   0  0  0  0  0  0
    8.1050   25.4730    1.3930 C   0  0  0  0  0  0
    7.5870   24.7400    2.5030 C   0  0  0  0  0  0
    8.4480   23.8980    3.2480 C   0  0  0  0  0  0
   10.7490   22.9350    3.6710 C   0  0  0  0  0  0
    5.5460   27.2890    4.6170 C   0  0  0  0  0  0
   12.6900   22.6490    4.6390 C   0  0  0  0  0  0
    8.2660   27.6630    5.1840 O   0  0  0  0  0  0
    8.2980   25.7790    6.4460 N   0  0  0  0  0  0
   13.8670   22.9520    7.0240 C   0  0  0  0  0  0
   14.9360   23.5260    4.9140 O   0  0  0  0  0  0
    6.3440   26.4270    5.4320 O   0  0  0  0  0  0
   14.4260   21.1560    5.2090 C   0  0  0  0  0  0
   13.5450   20.2820    5.1370 O   0  0  0  0  0  0
   15.7200   20.8040    5.1140 N   0  0  0  0  0  0
   16.1280   19.4050    4.9480 C   0  0  1  0  0  0
   16.1050   18.8570    3.5460 C   0  0  0  0  0  0
   17.1280   17.9010    3.4230 C   0  0  0  0  0  0
   15.2430   19.1780    2.4470 C   0  0  0  0  0  0
   15.4520   18.4970    1.2010 C   0  0  0  0  0  0
   16.5020   17.5210    1.0810 C   0  0  0  0  0  0
   17.5640   19.1040    5.4340 C   0  0  2  0  0  0
   18.4930   20.0600    4.9250 O   0  0  0  0  0  0
    7.6580   26.6680    5.6650 C   0  0  0  0  0  0
   17.3530   17.2110    2.1980 C   0  0  0  0  0  0
   17.8820   17.7640    4.7340 C   0  0  0  0  0  0
    9.7180   25.7970    6.8500 C   0  0  1  0  0  0
    9.8000   26.0620    8.3980 C   0  0  0  0  0  0
    9.1510   27.4140    8.8140 C   0  0  0  0  0  0
   13.9900   22.6400    5.4810 C   0  0  2  0  0  0
   11.2420   26.0950    8.9250 C   0  0  0  0  0  0
   10.3790   24.4880    6.3210 C   0  0  0  0  0  0
   11.7750   23.7090    4.4380 N   0  0  2  0  0  0
   10.0150   23.3910    6.7380 O   0  0  0  0  0  0
   11.3600   24.6310    5.3950 N   0  0  0  0  0  0
    6.9720   26.6170    0.4190 Br  0  0  0  0  0  0
    9.0240   24.9560    9.1370 C   0  0  0  0  0  0
   13.2251   20.7227    8.5545 H   0  0  0  0  0  0
   14.7632   19.2985    9.9610 H   0  0  0  0  0  0
   17.2220   19.8751   10.1224 H   0  0  0  0  0  0
   18.1363   21.8732    8.8833 H   0  0  0  0  0  0
   16.6069   23.3036    7.4743 H   0  0  0  0  0  0
   11.3954   24.4170    1.4938 H   0  0  0  0  0  0
    9.8668   25.9140    0.1657 H   0  0  0  0  0  0
    6.5353   24.8279    2.7754 H   0  0  0  0  0  0
    8.0621   23.3340    4.0971 H   0  0  0  0  0  0
   10.1703   22.3463    4.3980 H   0  0  0  0  0  0
   11.2880   22.2551    2.9948 H   0  0  0  0  0  0
    4.5182   26.9000    4.5687 H   0  0  0  0  0  0
    5.9702   27.3311    3.6030 H   0  0  0  0  0  0
    5.5356   28.2991    5.0523 H   0  0  0  0  0  0
   12.9312   22.4233    3.5898 H   0  0  0  0  0  0
   11.9962   21.8889    5.0275 H   0  0  0  0  0  0
    7.6378   24.9703    6.7925 H   0  0  0  0  0  0
   12.8218   22.7630    7.3101 H   0  0  0  0  0  0
   14.0963   24.0195    7.1576 H   0  0  0  0  0  0
   14.7951   24.6131    5.0053 H   0  0  0  0  0  0
   16.4811   21.5967    5.1637 H   0  0  0  0  0  0
   15.3207   18.9632    5.5505 H   0  0  0  0  0  0
   14.4507   19.9188    2.5544 H   0  0  0  0  0  0
   14.8147   18.7195    0.3451 H   0  0  0  0  0  0
   16.6546   17.0096    0.1306 H   0  0  0  0  0  0
   17.6858   19.1575    6.5259 H   0  0  0  0  0  0
   18.4617   21.1005    5.2804 H   0  0  0  0  0  0
   18.1470   16.4695    2.1095 H   0  0  0  0  0  0
   17.5032   16.8908    5.2853 H   0  0  0  0  0  0
   18.9543   17.6307    4.5281 H   0  0  0  0  0  0
   10.2493   26.6305    6.3673 H   0  0  0  0  0  0
    9.6722   28.2413    8.3101 H   0  0  0  0  0  0
    9.2316   27.5394    9.9038 H   0  0  0  0  0  0
    8.0905   27.4168    8.5220 H   0  0  0  0  0  0
   11.8052   26.8825    8.4029 H   0  0  0  0  0  0
   11.7206   25.1211    8.7448 H   0  0  0  0  0  0
   11.2330   26.3050   10.0047 H   0  0  0  0  0  0
   11.8482   25.6146    5.4591 H   0  0  0  0  0  0
    7.9888   24.9241    8.7663 H   0  0  0  0  0  0
    9.0207   25.1689   10.2162 H   0  0  0  0  0  0
    9.5082   23.9850    8.9563 H   0  0  0  0  0  0
  1  2  2  0  0  0
  1  6  1  0  0  0
  1 18  1  0  0  0
  2  3  1  0  0  0
  2 46  1  0  0  0
  3  4  2  0  0  0
  3 47  1  0  0  0
  4  5  1  0  0  0
  4 48  1  0  0  0
  5  6  2  0  0  0
  5 49  1  0  0  0
  6 50  1  0  0  0
  7  8  2  0  0  0
  7 12  1  0  0  0
  7 13  1  0  0  0
  8  9  1  0  0  0
  8 51  1  0  0  0
  9 10  2  0  0  0
  9 52  1  0  0  0
 10 11  1  0  0  0
 10 44  1  0  0  0
 11 12  2  0  0  0
 11 53  1  0  0  0
 12 54  1  0  0  0
 13 41  1  0  0  0
 13 55  1  0  0  0
 13 56  1  0  0  0
 14 20  1  0  0  0
 14 57  1  0  0  0
 14 58  1  0  0  0
 14 59  1  0  0  0
 15 38  1  0  0  0
 15 41  1  0  0  0
 15 60  1  0  0  0
 15 61  1  0  0  0
 16 32  2  0  0  0
 17 32  1  0  0  0
 17 35  1  0  0  0
 17 62  1  0  0  0
 18 38  1  0  0  0
 18 63  1  0  0  0
 18 64  1  0  0  0
 19 38  1  0  0  0
 19 65  1  0  0  0
 20 32  1  0  0  0
 21 22  2  0  0  0
 21 23  1  0  0  0
 21 38  1  0  0  0
 23 24  1  0  0  0
 23 66  1  0  0  0
 24 25  1  0  0  0
 24 30  1  0  0  0
 24 67  1  0  0  0
 25 26  2  0  0  0
 25 27  1  0  0  0
 26 33  1  0  0  0
 26 34  1  0  0  0
 27 28  2  0  0  0
 27 68  1  0  0  0
 28 29  1  0  0  0
 28 69  1  0  0  0
 29 33  2  0  0  0
 29 70  1  0  0  0
 30 31  1  0  0  0
 30 34  1  0  0  0
 30 71  1  0  0  0
 31 72  1  0  0  0
 33 73  1  0  0  0
 34 74  1  0  0  0
 34 75  1  0  0  0
 35 36  1  0  0  0
 35 40  1  0  0  0
 35 76  1  0  0  0
 36 37  1  0  0  0
 36 39  1  0  0  0
 36 45  1  0  0  0
 37 77  1  0  0  0
 37 78  1  0  0  0
 37 79  1  0  0  0
 39 80  1  0  0  0
 39 81  1  0  0  0
 39 82  1  0  0  0
 40 42  2  0  0  0
 40 43  1  0  0  0
 41 43  1  0  0  0
 43 83  1  0  0  0
 45 84  1  0  0  0
 45 85  1  0  0  0
 45 86  1  0  0  0
M  END
> <s_m_source_file>
../2cej_ligand.sdf

> <i_m_source_file_index>
1

> <s_epik_input>
W2NIXTFbY0hdYyhCcilbY0hdW2NIXWMxW0NIMl1bTkBASCtdKFtOSF1DKD1PKVtDQEhdKEMoW0NIM10pKFtDSDNdKVtDSDNdKVtOSF1DKD1PKU9bQ0gzXSlbQ0gyXVtDQEBdKFtPSF0pKFtDSDJdYzJbY0hdW2NIXVtjSF1bY0hdW2NIXTIpQyg9TylbTkhdW0NAQEhdM1tDQEhdKFtPSF0pW0NIMl1jKGMzNClbY0hdW2NIXVtjSF1bY0hdNA==

> <s_epik_cmdline>
J2VwaWtfYXBwJywgJy1pbWFlJywgJ2xpZ2FuZF9wcm8ubWFlJywgJy1vbWFlJywgJ2xpZ2FuZF9wcmVwLm1hZScsICctbXMnLCAnMScsICctcGgnLCAnNycsICctcGh0JywgJzAuNScsICctbnQn

> <r_lp_tautomer_probability>
1

> <r_epik_Ionization_Penalty>
  0.0000

> <r_epik_Ionization_Penalty_Charging>
  0.0000

> <r_epik_Ionization_Penalty_Neutral>
  0.0000

> <r_epik_State_Penalty>
 -0.0000

> <r_epik_Charging_Adjusted_Penalty>
0

> <i_epik_Tot_Q>
0

> <i_epik_Tot_abs_Q>
0

> <s_epik_Chemistry_Notes>
This compound has an ester and may undergo hydrolysis at high or low pH.

$$$$
