2cem_ligand
                    3D
 Schrodinger Suite 2020-3.
 95 99  0  0  1  0            999 V2000
   14.1700   23.0120    5.5050 C   0  0  1  0  0  0
   14.5110   21.4910    5.2910 C   0  0  0  0  0  0
   13.5950   20.6500    5.2550 O   0  0  0  0  0  0
   15.7910   21.0870    5.1640 N   0  0  0  0  0  0
   16.1520   19.6710    4.9760 C   0  0  1  0  0  0
   16.1360   19.1610    3.5630 C   0  0  0  0  0  0
   15.2830   19.5320    2.4720 C   0  0  0  0  0  0
   15.4860   18.8810    1.2090 C   0  0  0  0  0  0
   16.5120   17.8900    1.0590 C   0  0  0  0  0  0
   17.3540   17.5290    2.1640 C   0  0  0  0  0  0
   17.1400   18.1880    3.4090 C   0  0  0  0  0  0
   17.8920   17.9870    4.7040 C   0  0  0  0  0  0
   17.5680   19.2780    5.4960 C   0  0  1  0  0  0
   18.5520   20.2300    5.1140 O   0  0  0  0  0  0
   13.9170   23.3220    7.0150 C   0  0  0  0  0  0
   14.8160   22.6240    8.0270 C   0  0  0  0  0  0
   14.3030   21.5170    8.7960 C   0  0  0  0  0  0
   15.1370   20.8470    9.7380 C   0  0  0  0  0  0
   16.4910   21.2770    9.9200 C   0  0  0  0  0  0
   17.0070   22.3760    9.1590 C   0  0  0  0  0  0
   16.1710   23.0510    8.2130 C   0  0  0  0  0  0
   15.2390   23.8640    5.1170 O   0  0  0  0  0  0
   12.9050   23.0300    4.5760 C   0  0  0  0  0  0
   11.9580   24.0570    4.2140 N   0  0  2  0  0  0
   11.3060   24.8080    5.1770 N   0  0  0  0  0  0
   11.3830   23.6150    2.9110 C   0  0  0  0  0  0
   10.4630   24.5590    6.2070 C   0  0  0  0  0  0
   10.3010   23.4280    6.7000 O   0  0  0  0  0  0
    9.6980   25.7940    6.7430 C   0  0  2  0  0  0
    9.6640   26.0380    8.2970 C   0  0  0  0  0  0
    8.9080   27.3360    8.6760 C   0  0  0  0  0  0
   11.0650   26.1420    8.9260 C   0  0  0  0  0  0
    8.3140   25.7110    6.2350 N   0  0  0  0  0  0
    7.6990   26.6060    5.4450 C   0  0  0  0  0  0
    8.3060   27.6300    5.0760 O   0  0  0  0  0  0
    6.4180   26.3340    5.0850 O   0  0  0  0  0  0
    9.8760   23.4420    2.9570 C   0  0  0  0  0  0
    9.0330   24.4590    2.4050 C   0  0  0  0  0  0
    7.6070   24.3290    2.4660 C   0  0  0  0  0  0
    7.0140   23.1780    3.0890 C   0  0  0  0  0  0
    9.2900   22.2870    3.5650 C   0  0  0  0  0  0
    7.8670   22.1590    3.6300 C   0  0  0  0  0  0
    5.6620   27.2080    4.2510 C   0  0  0  0  0  0
    8.9020   24.9000    8.9810 C   0  0  0  0  0  0
    2.6720   22.8880    3.3260 C   0  0  0  0  0  0
    3.4910   21.8610    3.8780 C   0  0  0  0  0  0
    4.9130   21.9390    3.8060 C   0  0  0  0  0  0
    5.5330   23.0630    3.1720 C   0  0  0  0  0  0
    4.7030   24.0880    2.6230 N   0  0  0  0  0  0
    3.2790   24.0040    2.6960 C   0  0  0  0  0  0
   16.5780   21.8545    5.2047 H   0  0  0  0  0  0
   15.3094   19.2550    5.5477 H   0  0  0  0  0  0
   14.5048   20.2848    2.5977 H   0  0  0  0  0  0
   14.8563   19.1414    0.3583 H   0  0  0  0  0  0
   16.6541   17.4047    0.0934 H   0  0  0  0  0  0
   18.1328   16.7743    2.0541 H   0  0  0  0  0  0
   17.5239   17.0793    5.2046 H   0  0  0  0  0  0
   18.9658   17.8787    4.4915 H   0  0  0  0  0  0
   17.6380   19.2430    6.5932 H   0  0  0  0  0  0
   18.5360   21.2413    5.5465 H   0  0  0  0  0  0
   14.0508   24.3988    7.1957 H   0  0  0  0  0  0
   12.8907   23.0301    7.2823 H   0  0  0  0  0  0
   13.2723   21.1910    8.6562 H   0  0  0  0  0  0
   14.7459   20.0108   10.3175 H   0  0  0  0  0  0
   17.1310   20.7666   10.6397 H   0  0  0  0  0  0
   18.0384   22.6988    9.3007 H   0  0  0  0  0  0
   16.5643   23.8877    7.6356 H   0  0  0  0  0  0
   16.1577   23.9035    5.7206 H   0  0  0  0  0  0
   13.1995   22.7627    3.5504 H   0  0  0  0  0  0
   12.1673   22.3032    4.9469 H   0  0  0  0  0  0
   11.4359   25.9000    5.2040 H   0  0  0  0  0  0
   11.6102   24.3632    2.1373 H   0  0  0  0  0  0
   11.8221   22.6476    2.6257 H   0  0  0  0  0  0
   10.2275   26.6649    6.3294 H   0  0  0  0  0  0
    9.4076   28.1998    8.2130 H   0  0  0  0  0  0
    8.9088   27.4547    9.7696 H   0  0  0  0  0  0
    7.8709   27.2751    8.3145 H   0  0  0  0  0  0
   11.6241   26.9570    8.4431 H   0  0  0  0  0  0
   11.6027   25.1932    8.7825 H   0  0  0  0  0  0
   10.9693   26.3502   10.0019 H   0  0  0  0  0  0
    7.6813   24.8512    6.5004 H   0  0  0  0  0  0
    9.4779   25.3366    1.9360 H   0  0  0  0  0  0
    6.9712   25.1046    2.0390 H   0  0  0  0  0  0
    9.9275   21.5054    3.9783 H   0  0  0  0  0  0
    7.4257   21.2777    4.0956 H   0  0  0  0  0  0
    4.6580   26.7871    4.0936 H   0  0  0  0  0  0
    6.1692   27.3192    3.2812 H   0  0  0  0  0  0
    5.5754   28.1923    4.7345 H   0  0  0  0  0  0
    7.8977   24.8145    8.5405 H   0  0  0  0  0  0
    8.8137   25.1124   10.0567 H   0  0  0  0  0  0
    9.4471   23.9554    8.8373 H   0  0  0  0  0  0
    1.5861   22.8163    3.3876 H   0  0  0  0  0  0
    3.0239   21.0035    4.3622 H   0  0  0  0  0  0
    5.5262   21.1451    4.2324 H   0  0  0  0  0  0
    2.6615   24.7944    2.2693 H   0  0  0  0  0  0
  1  2  1  0  0  0
  1 15  1  0  0  0
  1 22  1  0  0  0
  1 23  1  0  0  0
  2  3  2  0  0  0
  2  4  1  0  0  0
  4  5  1  0  0  0
  4 51  1  0  0  0
  5  6  1  0  0  0
  5 13  1  0  0  0
  5 52  1  0  0  0
  6  7  2  0  0  0
  6 11  1  0  0  0
  7  8  1  0  0  0
  7 53  1  0  0  0
  8  9  2  0  0  0
  8 54  1  0  0  0
  9 10  1  0  0  0
  9 55  1  0  0  0
 10 11  2  0  0  0
 10 56  1  0  0  0
 11 12  1  0  0  0
 12 13  1  0  0  0
 12 57  1  0  0  0
 12 58  1  0  0  0
 13 14  1  0  0  0
 13 59  1  0  0  0
 14 60  1  0  0  0
 15 16  1  0  0  0
 15 61  1  0  0  0
 15 62  1  0  0  0
 16 17  2  0  0  0
 16 21  1  0  0  0
 17 18  1  0  0  0
 17 63  1  0  0  0
 18 19  2  0  0  0
 18 64  1  0  0  0
 19 20  1  0  0  0
 19 65  1  0  0  0
 20 21  2  0  0  0
 20 66  1  0  0  0
 21 67  1  0  0  0
 22 68  1  0  0  0
 23 24  1  0  0  0
 23 69  1  0  0  0
 23 70  1  0  0  0
 24 25  1  0  0  0
 24 26  1  0  0  0
 25 27  1  0  0  0
 25 71  1  0  0  0
 26 37  1  0  0  0
 26 72  1  0  0  0
 26 73  1  0  0  0
 27 28  2  0  0  0
 27 29  1  0  0  0
 29 30  1  0  0  0
 29 33  1  0  0  0
 29 74  1  0  0  0
 30 31  1  0  0  0
 30 32  1  0  0  0
 30 44  1  0  0  0
 31 75  1  0  0  0
 31 76  1  0  0  0
 31 77  1  0  0  0
 32 78  1  0  0  0
 32 79  1  0  0  0
 32 80  1  0  0  0
 33 34  1  0  0  0
 33 81  1  0  0  0
 34 35  2  0  0  0
 34 36  1  0  0  0
 36 43  1  0  0  0
 37 38  2  0  0  0
 37 41  1  0  0  0
 38 39  1  0  0  0
 38 82  1  0  0  0
 39 40  2  0  0  0
 39 83  1  0  0  0
 40 42  1  0  0  0
 40 48  1  0  0  0
 41 42  2  0  0  0
 41 84  1  0  0  0
 42 85  1  0  0  0
 43 86  1  0  0  0
 43 87  1  0  0  0
 43 88  1  0  0  0
 44 89  1  0  0  0
 44 90  1  0  0  0
 44 91  1  0  0  0
 45 46  2  0  0  0
 45 50  1  0  0  0
 45 92  1  0  0  0
 46 47  1  0  0  0
 46 93  1  0  0  0
 47 48  2  0  0  0
 47 94  1  0  0  0
 48 49  1  0  0  0
 49 50  2  0  0  0
 50 95  1  0  0  0
M  END
> <s_m_source_file>
../2cem_ligand.sdf

> <i_m_source_file_index>
1

> <s_epik_input>
W2NIXTFbY0hdW2NIXVtjSF1jKGMxMilbQ0gyXVtDQEBIXShbT0hdKVtDQEhdMltOSF1DKD1PKVtDQF0oW09IXSkoW0NIMl1jM1tjSF1bY0hdW2NIXVtjSF1bY0hdMylbQ0gyXVtOQEgrXShbTkhdQyg9TylbQ0BIXShDKFtDSDNdKShbQ0gzXSlbQ0gzXSlbTkhdQyg9TylPW0NIM10pW0NIMl1jNFtjSF1bY0hdYyhbY0hdW2NIXTQpLWM1W2NIXVtjSF1bY0hdW2NIXW41

> <s_epik_cmdline>
J2VwaWtfYXBwJywgJy1pbWFlJywgJ2xpZ2FuZF9wcm8ubWFlJywgJy1vbWFlJywgJ2xpZ2FuZF9wcmVwLm1hZScsICctbXMnLCAnMScsICctcGgnLCAnNycsICctcGh0JywgJzAuNScsICctbnQn

> <r_epik_Ionization_Penalty>
  0.0101

> <r_epik_Ionization_Penalty_Charging>
  0.0000

> <r_epik_Ionization_Penalty_Neutral>
  0.0101

> <r_epik_State_Penalty>
  0.0077

> <r_epik_Charging_Adjusted_Penalty>
0.0077056098726133

> <i_epik_Tot_Q>
0

> <i_epik_Tot_abs_Q>
0

> <s_epik_Chemistry_Notes>
This compound has an ester and may undergo hydrolysis at high or low pH.

$$$$
