2cen_ligand
                    3D
 Schrodinger Suite 2020-3.
 95 99  0  0  1  0            999 V2000
   14.3070   22.9110    5.6430 C   0  0  1  0  0  0
   14.5790   21.3770    5.3860 C   0  0  0  0  0  0
   13.6330   20.5620    5.4030 O   0  0  0  0  0  0
   15.8330   20.9260    5.1890 N   0  0  0  0  0  0
   16.1290   19.4960    4.9900 C   0  0  1  0  0  0
   16.0890   18.9950    3.5740 C   0  0  0  0  0  0
   15.2500   19.4110    2.4890 C   0  0  0  0  0  0
   15.4250   18.7590    1.2180 C   0  0  0  0  0  0
   16.4120   17.7250    1.0620 C   0  0  0  0  0  0
   17.2390   17.3220    2.1630 C   0  0  0  0  0  0
   17.0540   17.9780    3.4120 C   0  0  0  0  0  0
   17.7990   17.7320    4.7040 C   0  0  0  0  0  0
   17.5230   19.0220    5.5170 C   0  0  1  0  0  0
   18.5730   19.9140    5.1680 O   0  0  0  0  0  0
   14.1110   23.1820    7.1760 C   0  0  0  0  0  0
   14.9730   22.3470    8.1180 C   0  0  0  0  0  0
   14.3750   21.2800    8.8770 C   0  0  0  0  0  0
   15.1730   20.4770    9.7450 C   0  0  0  0  0  0
   16.5770   20.7350    9.8590 C   0  0  0  0  0  0
   17.1780   21.7980    9.1060 C   0  0  0  0  0  0
   16.3810   22.6040    8.2360 C   0  0  0  0  0  0
   15.4120   23.7170    5.2220 O   0  0  0  0  0  0
   13.0310   22.9480    4.7450 C   0  0  0  0  0  0
   12.0780   23.9550    4.3850 N   0  0  2  0  0  0
   11.4140   24.7110    5.3210 N   0  0  0  0  0  0
   11.5480   23.4280    3.1080 C   0  0  0  0  0  0
   10.5400   24.4360    6.3090 C   0  0  0  0  0  0
   10.3620   23.2950    6.7660 O   0  0  0  0  0  0
    9.7620   25.6600    6.8290 C   0  0  2  0  0  0
    9.6900   25.9050    8.3760 C   0  0  0  0  0  0
    8.9260   27.2100    8.7310 C   0  0  0  0  0  0
   11.0770   26.0020    9.0310 C   0  0  0  0  0  0
    8.3920   25.5860    6.2930 N   0  0  0  0  0  0
    7.8210   26.4840    5.4740 C   0  0  0  0  0  0
    8.4670   27.4840    5.1070 O   0  0  0  0  0  0
    6.5440   26.2540    5.0890 O   0  0  0  0  0  0
   10.0340   23.4700    2.9970 C   0  0  0  0  0  0
    9.4220   24.4510    2.1580 C   0  0  0  0  0  0
    7.9990   24.5180    2.0510 C   0  0  0  0  0  0
    7.1660   23.6030    2.7910 C   0  0  0  0  0  0
    9.2150   22.5500    3.7300 C   0  0  0  0  0  0
    7.7910   22.6170    3.6320 C   0  0  0  0  0  0
    5.8550   27.1580    4.2320 C   0  0  0  0  0  0
    8.9130   24.7670    9.0460 C   0  0  0  0  0  0
    3.4210   22.8550    3.3400 C   0  0  0  0  0  0
    4.8410   22.7860    3.4320 C   0  0  0  0  0  0
    5.6770   23.6820    2.6840 C   0  0  0  0  0  0
    5.0560   24.6540    1.8370 C   0  0  0  0  0  0
    3.6370   24.7180    1.7470 N   0  0  0  0  0  0
    2.8160   23.8240    2.4950 C   0  0  0  0  0  0
   16.6494   21.6632    5.1795 H   0  0  0  0  0  0
   15.2622   19.1232    5.5553 H   0  0  0  0  0  0
   14.5044   20.1949    2.6220 H   0  0  0  0  0  0
   14.8062   19.0505    0.3693 H   0  0  0  0  0  0
   16.5337   17.2403    0.0933 H   0  0  0  0  0  0
   17.9863   16.5371    2.0462 H   0  0  0  0  0  0
   17.3989   16.8311    5.1921 H   0  0  0  0  0  0
   18.8682   17.5884    4.4891 H   0  0  0  0  0  0
   17.5672   18.9726    6.6150 H   0  0  0  0  0  0
   18.6124   20.9186    5.6144 H   0  0  0  0  0  0
   14.3485   24.2333    7.3958 H   0  0  0  0  0  0
   13.0669   22.9761    7.4542 H   0  0  0  0  0  0
   13.3064   21.0845    8.7880 H   0  0  0  0  0  0
   14.7162   19.6707   10.3189 H   0  0  0  0  0  0
   17.1905   20.1222   10.5195 H   0  0  0  0  0  0
   18.2467   21.9916    9.1979 H   0  0  0  0  0  0
   16.8398   23.4106    7.6642 H   0  0  0  0  0  0
   16.3389   23.7321    5.8142 H   0  0  0  0  0  0
   13.3010   22.6794    3.7130 H   0  0  0  0  0  0
   12.2913   22.2301    5.1291 H   0  0  0  0  0  0
   11.5623   25.8005    5.3537 H   0  0  0  0  0  0
   11.9491   24.0202    2.2723 H   0  0  0  0  0  0
   11.8508   22.3770    2.9912 H   0  0  0  0  0  0
   10.3078   26.5256    6.4254 H   0  0  0  0  0  0
    9.4383   28.0703    8.2755 H   0  0  0  0  0  0
    8.9010   27.3346    9.8236 H   0  0  0  0  0  0
    7.8976   27.1493    8.3453 H   0  0  0  0  0  0
   11.6485   26.8157    8.5606 H   0  0  0  0  0  0
   11.6136   25.0513    8.8959 H   0  0  0  0  0  0
   10.9615   26.2085   10.1053 H   0  0  0  0  0  0
    7.7422   24.7393    6.5592 H   0  0  0  0  0  0
   10.0426   25.1504    1.5978 H   0  0  0  0  0  0
    7.5397   25.2664    1.4052 H   0  0  0  0  0  0
    9.6804   21.7961    4.3649 H   0  0  0  0  0  0
    7.1751   21.9175    4.1973 H   0  0  0  0  0  0
    4.8376   26.7836    4.0460 H   0  0  0  0  0  0
    6.3951   27.2420    3.2774 H   0  0  0  0  0  0
    5.8000   28.1470    4.7104 H   0  0  0  0  0  0
    7.9164   24.6841    8.5879 H   0  0  0  0  0  0
    8.8064   24.9786   10.1202 H   0  0  0  0  0  0
    9.4584   23.8214    8.9109 H   0  0  0  0  0  0
    2.8012   22.1673    3.9154 H   0  0  0  0  0  0
    5.3004   22.0405    4.0811 H   0  0  0  0  0  0
    5.6701   25.3458    1.2604 H   0  0  0  0  0  0
    1.7303   23.8835    2.4191 H   0  0  0  0  0  0
  1  2  1  0  0  0
  1 15  1  0  0  0
  1 22  1  0  0  0
  1 23  1  0  0  0
  2  3  2  0  0  0
  2  4  1  0  0  0
  4  5  1  0  0  0
  4 51  1  0  0  0
  5  6  1  0  0  0
  5 13  1  0  0  0
  5 52  1  0  0  0
  6  7  2  0  0  0
  6 11  1  0  0  0
  7  8  1  0  0  0
  7 53  1  0  0  0
  8  9  2  0  0  0
  8 54  1  0  0  0
  9 10  1  0  0  0
  9 55  1  0  0  0
 10 11  2  0  0  0
 10 56  1  0  0  0
 11 12  1  0  0  0
 12 13  1  0  0  0
 12 57  1  0  0  0
 12 58  1  0  0  0
 13 14  1  0  0  0
 13 59  1  0  0  0
 14 60  1  0  0  0
 15 16  1  0  0  0
 15 61  1  0  0  0
 15 62  1  0  0  0
 16 17  2  0  0  0
 16 21  1  0  0  0
 17 18  1  0  0  0
 17 63  1  0  0  0
 18 19  2  0  0  0
 18 64  1  0  0  0
 19 20  1  0  0  0
 19 65  1  0  0  0
 20 21  2  0  0  0
 20 66  1  0  0  0
 21 67  1  0  0  0
 22 68  1  0  0  0
 23 24  1  0  0  0
 23 69  1  0  0  0
 23 70  1  0  0  0
 24 25  1  0  0  0
 24 26  1  0  0  0
 25 27  1  0  0  0
 25 71  1  0  0  0
 26 37  1  0  0  0
 26 72  1  0  0  0
 26 73  1  0  0  0
 27 28  2  0  0  0
 27 29  1  0  0  0
 29 30  1  0  0  0
 29 33  1  0  0  0
 29 74  1  0  0  0
 30 31  1  0  0  0
 30 32  1  0  0  0
 30 44  1  0  0  0
 31 75  1  0  0  0
 31 76  1  0  0  0
 31 77  1  0  0  0
 32 78  1  0  0  0
 32 79  1  0  0  0
 32 80  1  0  0  0
 33 34  1  0  0  0
 33 81  1  0  0  0
 34 35  2  0  0  0
 34 36  1  0  0  0
 36 43  1  0  0  0
 37 38  2  0  0  0
 37 41  1  0  0  0
 38 39  1  0  0  0
 38 82  1  0  0  0
 39 40  2  0  0  0
 39 83  1  0  0  0
 40 42  1  0  0  0
 40 47  1  0  0  0
 41 42  2  0  0  0
 41 84  1  0  0  0
 42 85  1  0  0  0
 43 86  1  0  0  0
 43 87  1  0  0  0
 43 88  1  0  0  0
 44 89  1  0  0  0
 44 90  1  0  0  0
 44 91  1  0  0  0
 45 46  2  0  0  0
 45 50  1  0  0  0
 45 92  1  0  0  0
 46 47  1  0  0  0
 46 93  1  0  0  0
 47 48  2  0  0  0
 48 49  1  0  0  0
 48 94  1  0  0  0
 49 50  2  0  0  0
 50 95  1  0  0  0
M  END
> <s_m_source_file>
../2cen_ligand.sdf

> <i_m_source_file_index>
1

> <s_epik_input>
W2NIXTFbY0hdW2NIXVtjSF1jKGMxMilbQ0gyXVtDQEBIXShbT0hdKVtDQEhdMltOSF1DKD1PKVtDQF0oW09IXSkoW0NIMl1jM1tjSF1bY0hdW2NIXVtjSF1bY0hdMylbQ0gyXVtOQEgrXShbTkhdQyg9TylbQ0BIXShDKFtDSDNdKShbQ0gzXSlbQ0gzXSlbTkhdQyg9TylPW0NIM10pW0NIMl1jNFtjSF1bY0hdYyhbY0hdW2NIXTQpLWM1W2NIXVtjSF1bY0hdbltjSF01

> <s_epik_cmdline>
J2VwaWtfYXBwJywgJy1pbWFlJywgJ2xpZ2FuZF9wcm8ubWFlJywgJy1vbWFlJywgJ2xpZ2FuZF9wcmVwLm1hZScsICctbXMnLCAnMScsICctcGgnLCAnNycsICctcGh0JywgJzAuNScsICctbnQn

> <r_lp_tautomer_probability>
1

> <r_epik_Ionization_Penalty>
  0.0057

> <r_epik_Ionization_Penalty_Charging>
  0.0000

> <r_epik_Ionization_Penalty_Neutral>
  0.0057

> <r_epik_State_Penalty>
 -0.0000

> <r_epik_Charging_Adjusted_Penalty>
0

> <i_epik_Tot_Q>
0

> <i_epik_Tot_abs_Q>
0

> <s_epik_Chemistry_Notes>
This compound has an ester and may undergo hydrolysis at high or low pH.

$$$$
