2ceo_ligand
                    3D
 Schrodinger Suite 2020-3.
 34 35  0  0  1  0            999 V2000
   20.3330    1.9610  -20.5440 C   0  0  0  0  0  0
   20.9890    1.3890  -21.6470 C   0  0  0  0  0  0
   20.7500    1.8190  -22.9490 C   0  0  0  0  0  0
   19.7690    2.9010  -23.1510 C   0  0  0  0  0  0
   19.1010    3.4670  -21.9690 C   0  0  0  0  0  0
   19.3940    2.9850  -20.6950 C   0  0  0  0  0  0
   20.6310    1.4450  -19.1540 C   0  0  0  0  0  0
   21.8870    2.0740  -18.5500 C   0  0  1  0  0  0
   23.0810    1.9650  -19.4750 C   0  0  0  0  0  0
   20.2890    4.3070  -25.0200 C   0  0  0  0  0  0
   21.1700    5.1000  -24.2770 C   0  0  0  0  0  0
   22.0030    6.0320  -24.8920 C   0  0  0  0  0  0
   21.9570    6.1870  -26.3600 C   0  0  0  0  0  0
   21.0140    5.3290  -27.0940 C   0  0  0  0  0  0
   20.2150    4.4180  -26.4110 C   0  0  0  0  0  0
   21.6080    3.4510  -18.1730 N   0  3  0  0  0  0
   19.4740    3.3900  -24.3960 O   0  0  0  0  0  0
   22.7470    7.0750  -27.0270 O   0  5  0  0  0  0
   23.6410    3.0070  -19.8850 O   0  0  0  0  0  0
   23.4890    0.8260  -19.8030 O   0  5  0  0  0  0
   21.7160    0.9900  -24.6080 I   0  0  0  0  0  0
   23.3190    7.2120  -23.7890 I   0  0  0  0  0  0
   17.7410    4.9890  -22.3520 I   0  0  0  0  0  0
   20.9320    5.5350  -29.1550 I   0  0  0  0  0  0
   21.7057    0.5853  -21.4782 H   0  0  0  0  0  0
   18.8941    3.4039  -19.8217 H   0  0  0  0  0  0
   19.7854    1.6740  -18.4888 H   0  0  0  0  0  0
   20.7834    0.3563  -19.1919 H   0  0  0  0  0  0
   22.1627    1.5575  -17.6188 H   0  0  0  0  0  0
   21.2054    4.9862  -23.1935 H   0  0  0  0  0  0
   19.5239    3.7841  -26.9666 H   0  0  0  0  0  0
   20.7357    3.4783  -17.5034 H   0  0  0  0  0  0
   21.3959    4.0425  -19.0758 H   0  0  0  0  0  0
   22.4815    3.8734  -17.6547 H   0  0  0  0  0  0
  1  2  2  0  0  0
  1  6  1  0  0  0
  1  7  1  0  0  0
  2  3  1  0  0  0
  2 25  1  0  0  0
  3  4  2  0  0  0
  3 21  1  0  0  0
  4  5  1  0  0  0
  4 17  1  0  0  0
  5  6  2  0  0  0
  5 23  1  0  0  0
  6 26  1  0  0  0
  7  8  1  0  0  0
  7 27  1  0  0  0
  7 28  1  0  0  0
  8  9  1  0  0  0
  8 16  1  0  0  0
  8 29  1  0  0  0
  9 19  2  0  0  0
  9 20  1  0  0  0
 10 11  2  0  0  0
 10 15  1  0  0  0
 10 17  1  0  0  0
 11 12  1  0  0  0
 11 30  1  0  0  0
 12 13  2  0  0  0
 12 22  1  0  0  0
 13 14  1  0  0  0
 13 18  1  0  0  0
 14 15  2  0  0  0
 14 24  1  0  0  0
 15 31  1  0  0  0
 16 32  1  0  0  0
 16 33  1  0  0  0
 16 34  1  0  0  0
M  CHG  3  16   1  18  -1  20  -1
M  END
> <s_m_source_file>
../2ceo_ligand.sdf

> <i_m_source_file_index>
1

> <s_epik_input>
Tz1DKFtPSF0pW0NAQEhdKFtOSDMrXSlbQ0gyXWMxW2NIXWMoSSljKGMoSSlbY0hdMSlPYzJbY0hdYyhJKWMoW09IXSljKEkpW2NIXTI=

> <s_epik_cmdline>
J2VwaWtfYXBwJywgJy1pbWFlJywgJ2xpZ2FuZF9wcm8ubWFlJywgJy1vbWFlJywgJ2xpZ2FuZF9wcmVwLm1hZScsICctbXMnLCAnMScsICctcGgnLCAnNycsICctcGh0JywgJzAuNScsICctbnQn

> <r_lp_tautomer_probability>
1

> <r_epik_Ionization_Penalty>
  0.1375

> <r_epik_Ionization_Penalty_Charging>
  0.1375

> <r_epik_Ionization_Penalty_Neutral>
  0.0000

> <r_epik_State_Penalty>
  0.1238

> <r_epik_Charging_Adjusted_Penalty>
0.261359179817535

> <i_epik_Tot_Q>
-1

> <i_epik_Tot_abs_Q>
3

$$$$
