2cex_ligand
                    3D
 Schrodinger Suite 2020-3.
 36 36  0  0  1  0            999 V2000
   60.0290    5.2250   31.6300 C   0  0  0  0  0  0
   59.9210    5.5850   30.2390 C   0  0  0  0  0  0
   60.4480    6.7200   29.7340 C   0  0  0  0  0  0
   60.1720    7.0940   28.3010 C   0  0  1  0  0  0
   58.7190    6.6320   27.9480 C   0  0  2  0  0  0
   58.5400    5.1230   28.2350 C   0  0  2  0  0  0
   57.0920    4.5900   28.1780 C   0  0  1  0  0  0
   57.0160    3.1590   28.7470 C   0  0  1  0  0  0
   55.6390    2.5340   28.4890 C   0  0  0  0  0  0
   57.4830    7.8430   26.1120 C   0  0  0  0  0  0
   57.4020    7.9760   24.6210 C   0  0  0  0  0  0
   58.3270    6.8870   26.5570 N   0  0  0  0  0  0
   60.6640    4.2890   32.0610 O   0  0  0  0  0  0
   59.3500    5.8820   32.4270 O   0  5  0  0  0  0
   60.3220    8.5310   28.2080 O   0  0  0  0  0  0
   59.0830    4.6810   29.4900 O   0  0  0  0  0  0
   56.1010    5.4730   28.7950 O   0  0  0  0  0  0
   58.0180    2.3020   28.1700 O   0  0  0  0  0  0
   55.0310    3.0030   27.2750 O   0  0  0  0  0  0
   56.8380    8.5810   26.8440 O   0  0  0  0  0  0
   61.0744    7.3650   30.3677 H   0  0  0  0  0  0
   60.9027    6.6664   27.5987 H   0  0  0  0  0  0
   58.0276    7.2528   28.5367 H   0  0  0  0  0  0
   59.1632    4.6646   27.4530 H   0  0  0  0  0  0
   56.7697    4.6027   27.1264 H   0  0  0  0  0  0
   57.2450    3.1981   29.8222 H   0  0  0  0  0  0
   55.7408    1.4414   28.4124 H   0  0  0  0  0  0
   54.9623    2.7818   29.3201 H   0  0  0  0  0  0
   58.0528    7.2246   24.1500 H   0  0  0  0  0  0
   57.7303    8.9831   24.3244 H   0  0  0  0  0  0
   56.3635    7.8179   24.2947 H   0  0  0  0  0  0
   58.7338    6.2629   25.7477 H   0  0  0  0  0  0
   61.2930    8.9981   28.4292 H   0  0  0  0  0  0
   56.0368    6.5273   28.4879 H   0  0  0  0  0  0
   59.0818    2.5716   28.2450 H   0  0  0  0  0  0
   54.0403    2.6299   26.9763 H   0  0  0  0  0  0
  1  2  1  0  0  0
  1 13  2  0  0  0
  1 14  1  0  0  0
  2  3  2  0  0  0
  2 16  1  0  0  0
  3  4  1  0  0  0
  3 21  1  0  0  0
  4  5  1  0  0  0
  4 15  1  0  0  0
  4 22  1  0  0  0
  5  6  1  0  0  0
  5 12  1  0  0  0
  5 23  1  0  0  0
  6  7  1  0  0  0
  6 16  1  0  0  0
  6 24  1  0  0  0
  7  8  1  0  0  0
  7 17  1  0  0  0
  7 25  1  0  0  0
  8  9  1  0  0  0
  8 18  1  0  0  0
  8 26  1  0  0  0
  9 19  1  0  0  0
  9 27  1  0  0  0
  9 28  1  0  0  0
 10 11  1  0  0  0
 10 12  1  0  0  0
 10 20  2  0  0  0
 11 29  1  0  0  0
 11 30  1  0  0  0
 11 31  1  0  0  0
 12 32  1  0  0  0
 15 33  1  0  0  0
 17 34  1  0  0  0
 18 35  1  0  0  0
 19 36  1  0  0  0
M  CHG  1  14  -1
M  END
> <s_m_source_file>
../2cex_ligand.sdf

> <i_m_source_file_index>
1

> <s_epik_input>
Tz1DKFtPSF0pQzE9W0NIXVtDQEhdKFtPSF0pW0NAQEhdKFtOSF1DKD1PKVtDSDNdKVtDQEBIXShPMSlbQ0BIXShbT0hdKVtDQEhdKFtPSF0pW0NIMl1bT0hd

> <s_epik_cmdline>
J2VwaWtfYXBwJywgJy1pbWFlJywgJ2xpZ2FuZF9wcm8ubWFlJywgJy1vbWFlJywgJ2xpZ2FuZF9wcmVwLm1hZScsICctbXMnLCAnMScsICctcGgnLCAnNycsICctcGh0JywgJzAuNScsICctbnQn

> <r_lp_tautomer_probability>
1

> <r_epik_Ionization_Penalty>
  0.0004

> <r_epik_Ionization_Penalty_Charging>
  0.0004

> <r_epik_Ionization_Penalty_Neutral>
  0.0000

> <r_epik_State_Penalty>
 -0.0000

> <r_epik_Charging_Adjusted_Penalty>
0.000352443490958098

> <i_epik_Tot_Q>
-1

> <i_epik_Tot_abs_Q>
1

$$$$
