2cf8_ligand
                    3D
 Schrodinger Suite 2020-3.
 65 69  0  0  1  0            999 V2000
   11.2130   -9.7810   24.4970 N   0  3  0  0  0  0
   11.4690  -10.9100   23.8580 C   0  0  0  0  0  0
   10.6980  -11.9810   24.1280 N   0  0  0  0  0  0
   12.5830  -11.0070   22.8770 C   0  0  0  0  0  0
   13.4160   -9.9420   22.5970 C   0  0  0  0  0  0
   14.4290  -10.0250   21.6580 C   0  0  0  0  0  0
   14.6840  -11.2280   20.9870 C   0  0  0  0  0  0
   13.8310  -12.3010   21.2550 C   0  0  0  0  0  0
   12.8080  -12.2040   22.1780 C   0  0  0  0  0  0
   15.7930  -11.3010   19.9910 C   0  0  2  0  0  0
   15.6460  -12.3720   18.9700 N   0  3  1  0  0  0
   14.6030  -12.0510   17.9510 C   0  0  0  0  0  0
   15.3280  -11.7040   16.6590 C   0  0  0  0  0  0
   16.8160  -11.6110   16.9890 C   0  0  0  0  0  0
   16.9400  -12.4380   18.2670 C   0  0  1  0  0  0
   17.9750  -12.0190   19.3000 C   0  0  2  0  0  0
   18.9400  -13.1390   19.7350 C   0  0  2  0  0  0
   18.5180  -13.4530   21.0880 N   0  0  0  0  0  0
   17.3940  -12.6890   21.5140 C   0  0  0  0  0  0
   16.8000  -12.9240   22.5220 O   0  0  0  0  0  0
   17.2010  -11.5700   20.5300 C   0  0  2  0  0  0
   18.7170  -14.8000   21.6700 C   0  0  0  0  0  0
   19.7090  -14.5870   22.8080 C   0  0  0  0  0  0
   19.2720  -14.2150   24.0600 C   0  0  0  0  0  0
   20.1440  -13.9810   25.1150 C   0  0  0  0  0  0
   21.5010  -14.1390   24.8870 C   0  0  0  0  0  0
   21.9750  -14.5130   23.6410 C   0  0  0  0  0  0
   21.0810  -14.7340   22.5960 C   0  0  0  0  0  0
   20.4070  -12.6960   19.7520 C   0  0  0  0  0  0
   20.6950  -11.5250   20.6910 C   0  0  0  0  0  0
   20.8590  -12.4130   18.3410 C   0  0  0  0  0  0
   22.6480  -13.8830   26.2230 Cl  0  0  0  0  0  0
   10.3838   -9.7330   25.2182 H   0  0  0  0  0  0
    9.8768  -11.8982   24.8552 H   0  0  0  0  0  0
   10.8896  -12.9384   23.6213 H   0  0  0  0  0  0
   13.2708   -9.0044   23.1336 H   0  0  0  0  0  0
   15.0345   -9.1457   21.4383 H   0  0  0  0  0  0
   13.9765  -13.2402   20.7214 H   0  0  0  0  0  0
   12.1682  -13.0662   22.3659 H   0  0  0  0  0  0
   15.6715  -10.2879   19.5800 H   0  0  0  0  0  0
   15.3639  -13.3119   19.4669 H   0  0  0  0  0  0
   13.9508  -12.9249   17.8060 H   0  0  0  0  0  0
   14.0014  -11.1981   18.2982 H   0  0  0  0  0  0
   15.1450  -12.4914   15.9130 H   0  0  0  0  0  0
   14.9552  -10.7425   16.2762 H   0  0  0  0  0  0
   17.4027  -12.0288   16.1576 H   0  0  0  0  0  0
   17.0930  -10.5572   17.1400 H   0  0  0  0  0  0
   17.2323  -13.4392   17.9175 H   0  0  0  0  0  0
   18.5872  -11.2284   18.8416 H   0  0  0  0  0  0
   18.8837  -14.0184   19.0767 H   0  0  0  0  0  0
   17.5079  -10.6659   21.0763 H   0  0  0  0  0  0
   17.7543  -15.1878   22.0344 H   0  0  0  0  0  0
   19.1172  -15.4765   20.9004 H   0  0  0  0  0  0
   18.2014  -14.0999   24.2291 H   0  0  0  0  0  0
   19.7713  -13.6815   26.0945 H   0  0  0  0  0  0
   23.0459  -14.6343   23.4781 H   0  0  0  0  0  0
   21.4527  -15.0218   21.6126 H   0  0  0  0  0  0
   21.0048  -13.5273   20.1541 H   0  0  0  0  0  0
   20.3500  -11.7749   21.7052 H   0  0  0  0  0  0
   20.1653  -10.6296   20.3337 H   0  0  0  0  0  0
   21.7770  -11.3278   20.7099 H   0  0  0  0  0  0
   20.6326  -13.2798   17.7027 H   0  0  0  0  0  0
   21.9429  -12.2255   18.3339 H   0  0  0  0  0  0
   20.3311  -11.5274   17.9576 H   0  0  0  0  0  0
   11.8293   -8.8898   24.3074 H   0  0  0  0  0  0
  1  2  2  0  0  0
  1 33  1  0  0  0
  1 65  1  0  0  0
  2  3  1  0  0  0
  2  4  1  0  0  0
  3 34  1  0  0  0
  3 35  1  0  0  0
  4  5  2  0  0  0
  4  9  1  0  0  0
  5  6  1  0  0  0
  5 36  1  0  0  0
  6  7  2  0  0  0
  6 37  1  0  0  0
  7  8  1  0  0  0
  7 10  1  0  0  0
  8  9  2  0  0  0
  8 38  1  0  0  0
  9 39  1  0  0  0
 10 11  1  0  0  0
 10 21  1  0  0  0
 10 40  1  0  0  0
 11 12  1  0  0  0
 11 15  1  0  0  0
 11 41  1  0  0  0
 12 13  1  0  0  0
 12 42  1  0  0  0
 12 43  1  0  0  0
 13 14  1  0  0  0
 13 44  1  0  0  0
 13 45  1  0  0  0
 14 15  1  0  0  0
 14 46  1  0  0  0
 14 47  1  0  0  0
 15 16  1  0  0  0
 15 48  1  0  0  0
 16 17  1  0  0  0
 16 21  1  0  0  0
 16 49  1  0  0  0
 17 18  1  0  0  0
 17 29  1  0  0  0
 17 50  1  0  0  0
 18 19  1  0  0  0
 18 22  1  0  0  0
 19 20  2  0  0  0
 19 21  1  0  0  0
 21 51  1  0  0  0
 22 23  1  0  0  0
 22 52  1  0  0  0
 22 53  1  0  0  0
 23 24  2  0  0  0
 23 28  1  0  0  0
 24 25  1  0  0  0
 24 54  1  0  0  0
 25 26  2  0  0  0
 25 55  1  0  0  0
 26 27  1  0  0  0
 26 32  1  0  0  0
 27 28  2  0  0  0
 27 56  1  0  0  0
 28 57  1  0  0  0
 29 30  1  0  0  0
 29 31  1  0  0  0
 29 58  1  0  0  0
 30 59  1  0  0  0
 30 60  1  0  0  0
 30 61  1  0  0  0
 31 62  1  0  0  0
 31 63  1  0  0  0
 31 64  1  0  0  0
M  CHG  2   1   1  11   1
M  END
> <s_m_source_file>
../2cf8_ligand.sdf

> <i_m_source_file_index>
1

> <s_epik_input>
W0hdL049QygvW05IMl0pYzFbY0hdW2NIXWMoW2NIXVtjSF0xKVtDQEhdMltDQEhdKFtDQEBIXTNbQ0BASF0oW05AQEgrXTI0KVtDSDJdW0NIMl1bQ0gyXTQpQyg9TylOKFtDQEBIXTNbQ0hdKFtDSDNdKVtDSDNdKVtDSDJdYzVbY0hdW2NIXWMoQ2wpW2NIXVtjSF01

> <s_epik_cmdline>
J2VwaWtfYXBwJywgJy1pbWFlJywgJ2xpZ2FuZF9wcm8ubWFlJywgJy1vbWFlJywgJ2xpZ2FuZF9wcmVwLm1hZScsICctbXMnLCAnMScsICctcGgnLCAnNycsICctcGh0JywgJzAuNScsICctbnQn

> <r_epik_Ionization_Penalty>
  0.0264

> <r_epik_Ionization_Penalty_Charging>
  0.0264

> <r_epik_Ionization_Penalty_Neutral>
  0.0000

> <r_epik_State_Penalty>
  0.0188

> <r_epik_Charging_Adjusted_Penalty>
0.0451777757718371

> <i_epik_Tot_Q>
2

> <i_epik_Tot_abs_Q>
2

> <s_epik_Chemistry_Notes>
This compound has an imine and may undergo hydrolysis.

$$$$
