2cfd_ligand
                    3D
 Schrodinger Suite 2020-3.
 94104  0  0  1  0            999 V2000
   24.9820   -1.6560    7.8910 C   0  0  0  0  0  0
   23.6090   -1.1440    7.9090 N   0  0  0  0  0  0
   22.6790   -1.7110    8.8710 C   0  0  0  0  0  0
   23.1880   -0.1120    7.0340 C   0  0  0  0  0  0
   24.0960    0.5650    6.2150 C   0  0  0  0  0  0
   23.6590    1.5960    5.3720 C   0  0  0  0  0  0
   22.3250    1.9530    5.3400 C   0  0  0  0  0  0
   21.4190    1.2870    6.1390 C   0  0  0  0  0  0
   21.8430    0.2700    6.9910 C   0  0  0  0  0  0
   24.5050    2.2830    4.5400 O   0  0  0  0  0  0
   25.8680    2.5380    4.8500 C   0  0  0  0  0  0
   26.0410    4.0460    4.9480 C   0  0  0  0  0  0
   27.0500    4.5430    3.9340 C   0  0  0  0  0  0
   26.4630    5.5730    2.9900 C   0  0  0  0  0  0
   26.7240    6.9900    3.4500 C   0  0  0  0  0  0
   26.8720    8.0530    2.4290 C   0  0  0  0  0  0
   26.7870    7.9060    1.0310 C   0  0  0  0  0  0
   27.1320    9.3780    2.9730 C   0  0  0  0  0  0
   27.2930   10.4970    2.0600 C   0  0  0  0  0  0
   27.1930   10.2850    0.6160 C   0  0  0  0  0  0
   26.9410    8.9930    0.1480 C   0  0  0  0  0  0
   27.3660   11.4130   -0.1820 C   0  0  0  0  0  0
   27.6120   12.6470    0.4410 C   0  0  0  0  0  0
   27.7020   12.7940    1.8390 C   0  0  0  0  0  0
   27.5480   11.7330    2.6500 N   0  0  0  0  0  0
   27.2350    9.6610    4.3340 N   0  0  0  0  0  0
   27.1000    8.6690    5.2250 C   0  0  0  0  0  0
   26.8430    7.3540    4.8080 C   0  0  0  0  0  0
   28.1620   13.6370    4.9220 N   0  0  0  0  0  0
   27.3010   14.6590    5.0860 C   0  0  0  0  0  0
   27.7920   15.9630    5.2070 C   0  0  0  0  0  0
   29.1680   16.2070    5.1480 C   0  0  0  0  0  0
   29.5400   13.8600    4.8610 C   0  0  0  0  0  0
   30.0550   15.1510    4.9760 C   0  0  0  0  0  0
   30.3340   12.6060    4.6630 C   0  0  0  0  0  0
   31.8030   12.5760    4.5850 C   0  0  0  0  0  0
   32.4190   11.4130    4.4440 C   0  0  0  0  0  0
   31.5670   10.2420    4.3540 C   0  0  0  0  0  0
   30.2360   10.3860    4.4140 C   0  0  0  0  0  0
   29.6680   11.5170    4.5620 N   0  0  0  0  0  0
   27.5630   11.4290    6.7720 N   0  0  0  0  0  0
   28.6200   11.1510    7.5510 C   0  0  0  0  0  0
   28.4480   11.0040    8.9330 C   0  0  0  0  0  0
   27.1820   11.1450    9.4950 C   0  0  0  0  0  0
   26.2790   11.5720    7.3120 C   0  0  0  0  0  0
   26.0870   11.4310    8.6820 C   0  0  0  0  0  0
   25.2160   11.8780    6.3000 C   0  0  0  0  0  0
   23.7850   12.0820    6.6470 C   0  0  0  0  0  0
   22.9420   12.3680    5.6570 C   0  0  0  0  0  0
   23.4920   12.4460    4.3080 C   0  0  0  0  0  0
   24.8000   12.2270    4.1100 C   0  0  0  0  0  0
   25.6010   11.9680    5.0770 N   0  0  0  0  0  0
   27.6120   11.6590    4.7190 Ru  0  0  0  0  0  0
   25.0879   -2.4481    8.6469 H   0  0  0  0  0  0
   25.6815   -0.8376    8.1169 H   0  0  0  0  0  0
   25.2072   -2.0666    6.8957 H   0  0  0  0  0  0
   23.1869   -2.4925    9.4552 H   0  0  0  0  0  0
   21.8225   -2.1498    8.3382 H   0  0  0  0  0  0
   22.3237   -0.9199    9.5477 H   0  0  0  0  0  0
   25.1505    0.2895    6.2320 H   0  0  0  0  0  0
   21.9896    2.7578    4.6859 H   0  0  0  0  0  0
   20.3640    1.5585    6.1034 H   0  0  0  0  0  0
   21.1188   -0.2337    7.6313 H   0  0  0  0  0  0
   26.1221    2.0592    5.8072 H   0  0  0  0  0  0
   26.5078    2.1289    4.0542 H   0  0  0  0  0  0
   25.0764    4.5389    4.7568 H   0  0  0  0  0  0
   26.3942    4.3099    5.9558 H   0  0  0  0  0  0
   27.8981    5.0078    4.4581 H   0  0  0  0  0  0
   27.4109    3.6969    3.3308 H   0  0  0  0  0  0
   26.9091    5.4519    1.9918 H   0  0  0  0  0  0
   25.3741    5.4319    2.9245 H   0  0  0  0  0  0
   26.5929    6.8985    0.6344 H   0  0  0  0  0  0
   26.8634    8.8348   -0.9378 H   0  0  0  0  0  0
   27.3088   11.3261   -1.2771 H   0  0  0  0  0  0
   27.7363   13.5225   -0.2132 H   0  0  0  0  0  0
   27.8999   13.7837    2.2764 H   0  0  0  0  0  0
   27.1935    8.8977    6.2969 H   0  0  0  0  0  0
   26.7251    6.5537    5.5534 H   0  0  0  0  0  0
   26.2175   14.4735    5.1251 H   0  0  0  0  0  0
   27.0951   16.8021    5.3493 H   0  0  0  0  0  0
   29.5448   17.2259    5.2370 H   0  0  0  0  0  0
   31.1416   15.3158    4.9299 H   0  0  0  0  0  0
   32.3762   13.5130    4.6439 H   0  0  0  0  0  0
   33.5123   11.3028    4.3941 H   0  0  0  0  0  0
   32.0145    9.2439    4.2373 H   0  0  0  0  0  0
   29.6116    9.4963    4.3326 H   0  0  0  0  0  0
   29.6197   11.0386    7.1061 H   0  0  0  0  0  0
   29.3128   10.7773    9.5738 H   0  0  0  0  0  0
   27.0474   11.0317   10.5707 H   0  0  0  0  0  0
   25.0805   11.5452    9.1110 H   0  0  0  0  0  0
   23.4548   11.9950    7.6927 H   0  0  0  0  0  0
   21.8689   12.5427    5.8244 H   0  0  0  0  0  0
   22.8344   12.6836    3.4588 H   0  0  0  0  0  0
   25.1947   12.2705    3.0949 H   0  0  0  0  0  0
  1  2  1  0  0  0
  1 54  1  0  0  0
  1 55  1  0  0  0
  1 56  1  0  0  0
  2  3  1  0  0  0
  2  4  1  0  0  0
  3 57  1  0  0  0
  3 58  1  0  0  0
  3 59  1  0  0  0
  4  5  2  0  0  0
  4  9  1  0  0  0
  5  6  1  0  0  0
  5 60  1  0  0  0
  6  7  2  0  0  0
  6 10  1  0  0  0
  7  8  1  0  0  0
  7 61  1  0  0  0
  8  9  2  0  0  0
  8 62  1  0  0  0
  9 63  1  0  0  0
 10 11  1  0  0  0
 11 12  1  0  0  0
 11 64  1  0  0  0
 11 65  1  0  0  0
 12 13  1  0  0  0
 12 66  1  0  0  0
 12 67  1  0  0  0
 13 14  1  0  0  0
 13 68  1  0  0  0
 13 69  1  0  0  0
 14 15  1  0  0  0
 14 70  1  0  0  0
 14 71  1  0  0  0
 15 16  2  0  0  0
 15 28  1  0  0  0
 16 17  1  0  0  0
 16 18  1  0  0  0
 17 21  2  0  0  0
 17 72  1  0  0  0
 18 19  2  0  0  0
 18 26  1  0  0  0
 19 20  1  0  0  0
 19 25  1  0  0  0
 20 21  1  0  0  0
 20 22  2  0  0  0
 21 73  1  0  0  0
 22 23  1  0  0  0
 22 74  1  0  0  0
 23 24  2  0  0  0
 23 75  1  0  0  0
 24 25  1  0  0  0
 24 76  1  0  0  0
 25 53  1  0  0  0
 26 27  1  0  0  0
 26 53  1  0  0  0
 27 28  2  0  0  0
 27 77  1  0  0  0
 28 78  1  0  0  0
 29 30  1  0  0  0
 29 33  1  0  0  0
 29 53  1  0  0  0
 30 31  2  0  0  0
 30 79  1  0  0  0
 31 32  1  0  0  0
 31 80  1  0  0  0
 32 34  1  0  0  0
 32 81  1  0  0  0
 33 34  2  0  0  0
 33 35  1  0  0  0
 34 82  1  0  0  0
 35 36  2  0  0  0
 35 40  1  0  0  0
 36 37  1  0  0  0
 36 83  1  0  0  0
 37 38  2  0  0  0
 37 84  1  0  0  0
 38 39  1  0  0  0
 38 85  1  0  0  0
 39 40  1  0  0  0
 39 86  1  0  0  0
 40 53  1  0  0  0
 41 42  1  0  0  0
 41 45  1  0  0  0
 41 53  1  0  0  0
 42 43  2  0  0  0
 42 87  1  0  0  0
 43 44  1  0  0  0
 43 88  1  0  0  0
 44 46  1  0  0  0
 44 89  1  0  0  0
 45 46  2  0  0  0
 45 47  1  0  0  0
 46 90  1  0  0  0
 47 48  2  0  0  0
 47 52  1  0  0  0
 48 49  1  0  0  0
 48 91  1  0  0  0
 49 50  2  0  0  0
 49 92  1  0  0  0
 50 51  1  0  0  0
 50 93  1  0  0  0
 51 52  1  0  0  0
 51 94  1  0  0  0
 52 53  1  0  0  0
M  END
> <s_m_source_file>
../2cfd_ligand.sdf

> <i_m_source_file_index>
1

> <s_epik_input>
W0NIM11OKFtDSDNdKWMxW2NIXWMoW2NIXVtjSF1bY0hdMSlPW0NIMl1bQ0gyXVtDSDJdW0NIMl1DKFtDSF09W0NIXU4yMyk9YyhbY0hdW2NIXWM0PVtDSF1bQ0hdPVtDSF01KWMyYzRONVtSdV0zNjcoTjhDKD1bQ0hdW0NIMl1bQ0hdPVtDSF04KUM9OU42W0NIMl1bQ0hdPVtDSF1bQ0hdOSlOMUMoPVtDSF1bQ0gyXVtDSF09W0NIXTEpQz0xTjdbQ0gyXVtDSF09W0NIXVtDSF0x

> <s_epik_cmdline>
J2VwaWtfYXBwJywgJy1pbWFlJywgJ2xpZ2FuZF9wcm8ubWFlJywgJy1vbWFlJywgJ2xpZ2FuZF9wcmVwLm1hZScsICctbXMnLCAnMScsICctcGgnLCAnNycsICctcGh0JywgJzAuNScsICctbnQn

> <r_lp_tautomer_probability>
1

> <r_epik_Ionization_Penalty>
  0.0093

> <r_epik_Ionization_Penalty_Charging>
  0.0000

> <r_epik_Ionization_Penalty_Neutral>
  0.0093

> <r_epik_State_Penalty>
 -0.0000

> <r_epik_Charging_Adjusted_Penalty>
0

> <i_epik_Tot_Q>
0

> <i_epik_Tot_abs_Q>
0

> <s_epik_Chemistry_Notes>
This compound has an imine and may undergo hydrolysis.

$$$$
