2cfg_ligand
                    3D
 Schrodinger Suite 2020-3.
 94104  0  0  1  0            999 V2000
   24.5790   -1.6960    8.2970 C   0  0  0  0  0  0
   23.1910   -1.2380    8.2160 N   0  0  0  0  0  0
   22.2030   -1.9070    9.0460 C   0  0  0  0  0  0
   22.8440   -0.1880    7.3450 C   0  0  0  0  0  0
   23.8480    0.3480    6.5610 C   0  0  0  0  0  0
   23.5880    1.3810    5.6750 C   0  0  0  0  0  0
   22.3090    1.9030    5.5510 C   0  0  0  0  0  0
   21.2910    1.3710    6.3210 C   0  0  0  0  0  0
   21.5520    0.3370    7.2250 C   0  0  0  0  0  0
   24.6060    1.8760    4.9250 O   0  0  0  0  0  0
   25.9210    1.8330    5.4800 C   0  0  0  0  0  0
   26.1320    3.0940    6.2870 C   0  0  0  0  0  0
   27.3640    3.7920    5.7690 C   0  0  0  0  0  0
   27.1560    4.1200    4.2990 C   0  0  0  0  0  0
   26.7600    5.5540    4.1140 C   0  0  0  0  0  0
   25.5330    5.9790    3.4020 C   0  0  0  0  0  0
   24.5370    5.1770    2.8100 C   0  0  0  0  0  0
   25.3950    7.4290    3.3500 C   0  0  0  0  0  0
   24.2500    8.0080    2.6890 C   0  0  0  0  0  0
   23.2380    7.1360    2.0830 C   0  0  0  0  0  0
   23.4140    5.7440    2.1650 C   0  0  0  0  0  0
   22.1720    7.7870    1.4760 C   0  0  0  0  0  0
   22.1390    9.1940    1.4810 C   0  0  0  0  0  0
   23.1440    9.9800    2.0790 C   0  0  0  0  0  0
   24.1910    9.3960    2.6870 N   0  0  0  0  0  0
   26.3090    8.3230    3.8980 N   0  0  0  0  0  0
   27.3960    7.8940    4.5240 C   0  0  0  0  0  0
   27.6160    6.5230    4.6260 C   0  0  0  0  0  0
   25.2070   12.2390    3.2380 N   0  0  0  0  0  0
   25.5540   12.9340    2.1470 C   0  0  0  0  0  0
   25.0880   14.2380    2.0060 C   0  0  0  0  0  0
   24.2720   14.8070    2.9880 C   0  0  0  0  0  0
   24.3940   12.7740    4.2380 C   0  0  0  0  0  0
   23.9170   14.0760    4.1200 C   0  0  0  0  0  0
   24.1230   11.8280    5.3710 C   0  0  0  0  0  0
   23.3050   12.1850    6.5490 C   0  0  0  0  0  0
   23.1790   11.2800    7.5080 C   0  0  0  0  0  0
   23.8350    9.9890    7.3150 C   0  0  0  0  0  0
   24.5280    9.7670    6.1910 C   0  0  0  0  0  0
   24.6520   10.6640    5.2900 N   0  0  0  0  0  0
   27.0570   10.1310    1.9830 N   0  0  0  0  0  0
   26.7290    9.6000    0.7970 C   0  0  0  0  0  0
   27.6830    9.5500   -0.2240 C   0  0  0  0  0  0
   28.9670   10.0510   -0.0130 C   0  0  0  0  0  0
   28.3370   10.6450    2.2240 C   0  0  0  0  0  0
   29.3070   10.6070    1.2220 C   0  0  0  0  0  0
   28.5260   11.2030    3.6080 C   0  0  0  0  0  0
   29.8060   11.7900    4.0710 C   0  0  0  0  0  0
   29.8660   12.2530    5.3100 C   0  0  0  0  0  0
   28.6580   12.1420    6.1170 C   0  0  0  0  0  0
   27.5580   11.5950    5.5880 C   0  0  0  0  0  0
   27.5170   11.1570    4.3920 N   0  0  0  0  0  0
   25.8040   10.3030    3.6120 Ru  0  0  0  0  0  0
   24.6523   -2.5168    9.0257 H   0  0  0  0  0  0
   25.2219   -0.8628    8.6172 H   0  0  0  0  0  0
   24.9057   -2.0525    7.3090 H   0  0  0  0  0  0
   22.6946   -2.6898    9.6423 H   0  0  0  0  0  0
   21.4340   -2.3629    8.4051 H   0  0  0  0  0  0
   21.7328   -1.1746    9.7186 H   0  0  0  0  0  0
   24.8603   -0.0481    6.6409 H   0  0  0  0  0  0
   22.1094    2.7198    4.8574 H   0  0  0  0  0  0
   20.2778    1.7606    6.2224 H   0  0  0  0  0  0
   20.7452   -0.0624    7.8396 H   0  0  0  0  0  0
   26.0172    0.9486    6.1270 H   0  0  0  0  0  0
   26.6602    1.7750    4.6675 H   0  0  0  0  0  0
   25.2553    3.7495    6.1788 H   0  0  0  0  0  0
   26.2659    2.8328    7.3471 H   0  0  0  0  0  0
   27.5276    4.7183    6.3392 H   0  0  0  0  0  0
   28.2358    3.1313    5.8849 H   0  0  0  0  0  0
   28.0906    3.9402    3.7474 H   0  0  0  0  0  0
   26.3599    3.4807    3.8897 H   0  0  0  0  0  0
   24.6495    4.0838    2.8588 H   0  0  0  0  0  0
   22.6524    5.0920    1.7124 H   0  0  0  0  0  0
   21.3697    7.2035    1.0008 H   0  0  0  0  0  0
   21.2814    9.6777    0.9906 H   0  0  0  0  0  0
   23.0742   11.0774    2.0498 H   0  0  0  0  0  0
   28.1181    8.6008    4.9589 H   0  0  0  0  0  0
   28.5141    6.1466    5.1377 H   0  0  0  0  0  0
   26.1952   12.4921    1.3701 H   0  0  0  0  0  0
   25.3615   14.8268    1.1180 H   0  0  0  0  0  0
   23.9113   15.8285    2.8676 H   0  0  0  0  0  0
   23.2782   14.5012    4.9081 H   0  0  0  0  0  0
   22.8262   13.1736    6.6070 H   0  0  0  0  0  0
   22.6047   11.4733    8.4261 H   0  0  0  0  0  0
   23.7568    9.2112    8.0889 H   0  0  0  0  0  0
   24.9987    8.7954    6.0409 H   0  0  0  0  0  0
   25.7170    9.2051    0.6240 H   0  0  0  0  0  0
   27.4222    9.1138   -1.1996 H   0  0  0  0  0  0
   29.7062   10.0086   -0.8130 H   0  0  0  0  0  0
   30.3125   11.0094    1.4143 H   0  0  0  0  0  0
   30.6699   11.8312    3.3913 H   0  0  0  0  0  0
   30.7730   12.7058    5.7370 H   0  0  0  0  0  0
   28.6543   12.5069    7.1547 H   0  0  0  0  0  0
   26.6617   11.5210    6.2039 H   0  0  0  0  0  0
  1  2  1  0  0  0
  1 54  1  0  0  0
  1 55  1  0  0  0
  1 56  1  0  0  0
  2  3  1  0  0  0
  2  4  1  0  0  0
  3 57  1  0  0  0
  3 58  1  0  0  0
  3 59  1  0  0  0
  4  5  2  0  0  0
  4  9  1  0  0  0
  5  6  1  0  0  0
  5 60  1  0  0  0
  6  7  2  0  0  0
  6 10  1  0  0  0
  7  8  1  0  0  0
  7 61  1  0  0  0
  8  9  2  0  0  0
  8 62  1  0  0  0
  9 63  1  0  0  0
 10 11  1  0  0  0
 11 12  1  0  0  0
 11 64  1  0  0  0
 11 65  1  0  0  0
 12 13  1  0  0  0
 12 66  1  0  0  0
 12 67  1  0  0  0
 13 14  1  0  0  0
 13 68  1  0  0  0
 13 69  1  0  0  0
 14 15  1  0  0  0
 14 70  1  0  0  0
 14 71  1  0  0  0
 15 16  2  0  0  0
 15 28  1  0  0  0
 16 17  1  0  0  0
 16 18  1  0  0  0
 17 21  2  0  0  0
 17 72  1  0  0  0
 18 19  2  0  0  0
 18 26  1  0  0  0
 19 20  1  0  0  0
 19 25  1  0  0  0
 20 21  1  0  0  0
 20 22  2  0  0  0
 21 73  1  0  0  0
 22 23  1  0  0  0
 22 74  1  0  0  0
 23 24  2  0  0  0
 23 75  1  0  0  0
 24 25  1  0  0  0
 24 76  1  0  0  0
 25 53  1  0  0  0
 26 27  1  0  0  0
 26 53  1  0  0  0
 27 28  2  0  0  0
 27 77  1  0  0  0
 28 78  1  0  0  0
 29 30  1  0  0  0
 29 33  1  0  0  0
 29 53  1  0  0  0
 30 31  2  0  0  0
 30 79  1  0  0  0
 31 32  1  0  0  0
 31 80  1  0  0  0
 32 34  1  0  0  0
 32 81  1  0  0  0
 33 34  2  0  0  0
 33 35  1  0  0  0
 34 82  1  0  0  0
 35 36  2  0  0  0
 35 40  1  0  0  0
 36 37  1  0  0  0
 36 83  1  0  0  0
 37 38  2  0  0  0
 37 84  1  0  0  0
 38 39  1  0  0  0
 38 85  1  0  0  0
 39 40  1  0  0  0
 39 86  1  0  0  0
 40 53  1  0  0  0
 41 42  1  0  0  0
 41 45  1  0  0  0
 41 53  1  0  0  0
 42 43  2  0  0  0
 42 87  1  0  0  0
 43 44  1  0  0  0
 43 88  1  0  0  0
 44 46  1  0  0  0
 44 89  1  0  0  0
 45 46  2  0  0  0
 45 47  1  0  0  0
 46 90  1  0  0  0
 47 48  2  0  0  0
 47 52  1  0  0  0
 48 49  1  0  0  0
 48 91  1  0  0  0
 49 50  2  0  0  0
 49 92  1  0  0  0
 50 51  1  0  0  0
 50 93  1  0  0  0
 51 52  1  0  0  0
 51 94  1  0  0  0
 52 53  1  0  0  0
M  END
> <s_m_source_file>
../2cfg_ligand.sdf

> <i_m_source_file_index>
1

> <s_epik_input>
W0NIM11OKFtDSDNdKWMxW2NIXWMoW2NIXVtjSF1bY0hdMSlPW0NIMl1bQ0gyXVtDSDJdW0NIMl1DKFtDSF09W0NIXU4yMyk9YyhbY0hdW2NIXWM0PVtDSF1bQ0hdPVtDSF01KWMyYzRONVtSdV0zNjcoTjhDKD1bQ0hdW0NIMl1bQ0hdPVtDSF04KUM9OU42W0NIMl1bQ0hdPVtDSF1bQ0hdOSlOMUMoPVtDSF1bQ0gyXVtDSF09W0NIXTEpQz0xTjdbQ0gyXVtDSF09W0NIXVtDSF0x

> <s_epik_cmdline>
J2VwaWtfYXBwJywgJy1pbWFlJywgJ2xpZ2FuZF9wcm8ubWFlJywgJy1vbWFlJywgJ2xpZ2FuZF9wcmVwLm1hZScsICctbXMnLCAnMScsICctcGgnLCAnNycsICctcGh0JywgJzAuNScsICctbnQn

> <r_lp_tautomer_probability>
1

> <r_epik_Ionization_Penalty>
  0.0093

> <r_epik_Ionization_Penalty_Charging>
  0.0000

> <r_epik_Ionization_Penalty_Neutral>
  0.0093

> <r_epik_State_Penalty>
 -0.0000

> <r_epik_Charging_Adjusted_Penalty>
0

> <i_epik_Tot_Q>
0

> <i_epik_Tot_abs_Q>
0

> <s_epik_Chemistry_Notes>
This compound has an imine and may undergo hydrolysis.

$$$$
