2cgf_ligand
                    3D
 Schrodinger Suite 2020-3.
 41 42  0  0  1  0            999 V2000
  -18.2190   34.3800   -6.0990 C   0  0  0  0  0  0
  -18.1900   33.4980   -4.8780 C   0  0  0  0  0  0
  -17.2660   32.4460   -4.8280 C   0  0  0  0  0  0
  -17.2280   31.5870   -3.7330 C   0  0  0  0  0  0
  -18.1340   31.7990   -2.7030 C   0  0  0  0  0  0
  -19.0290   32.8350   -2.7570 C   0  0  0  0  0  0
  -19.0900   33.6870   -3.8500 C   0  0  0  0  0  0
  -20.1050   34.8210   -3.8800 C   0  0  0  0  0  0
  -21.5320   34.4120   -4.3000 C   0  0  0  0  0  0
  -21.9440   32.9920   -4.7090 C   0  0  0  0  0  0
  -23.3330   32.8690   -5.3490 C   0  0  0  0  0  0
  -23.4590   31.7980   -6.4340 C   0  0  0  0  0  0
  -22.9590   32.1430   -7.8560 C   0  0  0  0  0  0
  -22.4020   33.5330   -8.1750 C   0  0  0  0  0  0
  -21.1360   33.5520   -8.5580 C   0  0  0  0  0  0
  -20.2980   34.7510   -8.9350 C   0  0  0  0  0  0
  -19.6770   35.5220   -7.7640 C   0  0  0  0  0  0
  -19.5220   34.7070   -6.5990 O   0  0  0  0  0  0
  -17.2250   34.7300   -6.7120 O   0  0  0  0  0  0
  -16.3960   32.2760   -5.8640 O   0  0  0  0  0  0
  -18.1560   30.9810   -1.6260 O   0  5  0  0  0  0
  -20.1290   33.0530   -1.3780 Cl  0  0  0  0  0  0
  -22.3390   35.3080   -4.2800 O   0  0  0  0  0  0
  -16.5070   30.7709   -3.6859 H   0  0  0  0  0  0
  -20.1883   35.2652   -2.8771 H   0  0  0  0  0  0
  -19.7755   35.5892   -4.5950 H   0  0  0  0  0  0
  -21.2264   32.5995   -5.4445 H   0  0  0  0  0  0
  -21.9515   32.3424   -3.8214 H   0  0  0  0  0  0
  -24.0726   32.6179   -4.5745 H   0  0  0  0  0  0
  -23.6056   33.8249   -5.8201 H   0  0  0  0  0  0
  -22.8859   30.9070   -6.1379 H   0  0  0  0  0  0
  -24.5176   31.5276   -6.5611 H   0  0  0  0  0  0
  -22.1359   31.4664   -8.1294 H   0  0  0  0  0  0
  -23.7843   32.0251   -8.5736 H   0  0  0  0  0  0
  -22.9700   34.4725   -8.1064 H   0  0  0  0  0  0
  -20.5692   32.6121   -8.6308 H   0  0  0  0  0  0
  -19.4603   34.4277   -9.5704 H   0  0  0  0  0  0
  -20.9184   35.4734   -9.4857 H   0  0  0  0  0  0
  -18.6831   35.8928   -8.0551 H   0  0  0  0  0  0
  -20.3231   36.3726   -7.5012 H   0  0  0  0  0  0
  -16.4291   32.9568   -6.7274 H   0  0  0  0  0  0
  1  2  1  0  0  0
  1 18  1  0  0  0
  1 19  2  0  0  0
  2  3  2  0  0  0
  2  7  1  0  0  0
  3  4  1  0  0  0
  3 20  1  0  0  0
  4  5  2  0  0  0
  4 24  1  0  0  0
  5  6  1  0  0  0
  5 21  1  0  0  0
  6  7  2  0  0  0
  6 22  1  0  0  0
  7  8  1  0  0  0
  8  9  1  0  0  0
  8 25  1  0  0  0
  8 26  1  0  0  0
  9 10  1  0  0  0
  9 23  2  0  0  0
 10 11  1  0  0  0
 10 27  1  0  0  0
 10 28  1  0  0  0
 11 12  1  0  0  0
 11 29  1  0  0  0
 11 30  1  0  0  0
 12 13  1  0  0  0
 12 31  1  0  0  0
 12 32  1  0  0  0
 13 14  1  0  0  0
 13 33  1  0  0  0
 13 34  1  0  0  0
 14 15  2  0  0  0
 14 35  1  0  0  0
 15 16  1  0  0  0
 15 36  1  0  0  0
 16 17  1  0  0  0
 16 37  1  0  0  0
 16 38  1  0  0  0
 17 18  1  0  0  0
 17 39  1  0  0  0
 17 40  1  0  0  0
 20 41  1  0  0  0
M  CHG  1  21  -1
M  END
> <s_m_source_file>
../2cgf_ligand.sdf

> <i_m_source_file_index>
1

> <s_epik_input>
Tz1DMU9bQ0gyXVtDSDJdXFtDSF09W0NIXVxbQ0gyXVtDSDJdW0NIMl1bQ0gyXUMoPU8pW0NIMl1jKGMxMiljKENsKWMoW09IXSlbY0hdYzJbT0hd

> <s_epik_cmdline>
J2VwaWtfYXBwJywgJy1pbWFlJywgJ2xpZ2FuZF9wcm8ubWFlJywgJy1vbWFlJywgJ2xpZ2FuZF9wcmVwLm1hZScsICctbXMnLCAnMScsICctcGgnLCAnNycsICctcGh0JywgJzAuNScsICctbnQn

> <r_lp_tautomer_probability>
0.99999998

> <r_epik_Ionization_Penalty>
  0.2782

> <r_epik_Ionization_Penalty_Charging>
  0.2780

> <r_epik_Ionization_Penalty_Neutral>
  0.0001

> <r_epik_State_Penalty>
  0.2705

> <r_epik_Charging_Adjusted_Penalty>
0.548536145073736

> <i_epik_Tot_Q>
-1

> <i_epik_Tot_abs_Q>
1

> <s_epik_Chemistry_Notes>
This compound has an ester and may undergo hydrolysis at high or low pH.

$$$$
