2cgu_ligand
                    3D
 Schrodinger Suite 2020-3.
 36 38  0  0  1  0            999 V2000
   -3.3680   -1.9540   21.9200 O   0  5  0  0  0  0
   -3.3780   -3.1910   21.6220 C   0  0  0  0  0  0
   -4.4110   -3.9000   21.4150 O   0  0  0  0  0  0
   -2.0060   -3.8760   21.4890 C   0  0  0  0  0  0
   -1.0300   -2.8420   21.0860 O   0  0  0  0  0  0
    0.0240   -3.3490   20.3630 C   0  0  0  0  0  0
    1.2810   -2.7170   20.4040 C   0  0  0  0  0  0
   -0.1650   -4.5070   19.5810 C   0  0  0  0  0  0
    0.8690   -5.0540   18.8410 C   0  0  0  0  0  0
    2.1080   -4.4510   18.9040 C   0  0  0  0  0  0
    2.3180   -3.2910   19.6700 C   0  0  0  0  0  0
    3.6440   -2.9340   19.4740 C   0  0  0  0  0  0
    4.2350   -1.8370   19.9770 N   0  0  0  0  0  0
    5.5570   -1.5710   19.6830 O   0  0  0  0  0  0
    4.2430   -3.8460   18.6050 C   0  0  0  0  0  0
    5.5150   -3.9250   18.0640 C   0  0  0  0  0  0
    3.2800   -4.7880   18.2540 C   0  0  0  0  0  0
    3.5780   -5.8390   17.3750 C   0  0  0  0  0  0
    4.8720   -5.9330   16.8480 C   0  0  0  0  0  0
    5.8300   -4.9620   17.1920 C   0  0  0  0  0  0
    7.1020   -4.9720   16.7000 O   0  0  0  0  0  0
    7.3670   -5.9790   15.8070 C   0  0  0  0  0  0
    8.7820   -6.0440   15.1760 C   0  0  0  0  0  0
    9.6300   -5.1360   15.5110 O   0  5  0  0  0  0
    8.9700   -7.0130   14.3740 O   0  0  0  0  0  0
   -1.7213   -4.3172   22.4556 H   0  0  0  0  0  0
   -2.0637   -4.6676   20.7274 H   0  0  0  0  0  0
    1.4381   -1.8108   20.9890 H   0  0  0  0  0  0
   -1.1461   -4.9814   19.5587 H   0  0  0  0  0  0
    0.7083   -5.9384   18.2244 H   0  0  0  0  0  0
    6.0420   -0.6734   20.0941 H   0  0  0  0  0  0
    6.2662   -3.1779   18.3202 H   0  0  0  0  0  0
    2.8156   -6.5703   17.1065 H   0  0  0  0  0  0
    5.1345   -6.7511   16.1773 H   0  0  0  0  0  0
    7.2313   -6.9524   16.3011 H   0  0  0  0  0  0
    6.6782   -5.9022   14.9528 H   0  0  0  0  0  0
  1  2  1  0  0  0
  2  3  2  0  0  0
  2  4  1  0  0  0
  4  5  1  0  0  0
  4 26  1  0  0  0
  4 27  1  0  0  0
  5  6  1  0  0  0
  6  7  2  0  0  0
  6  8  1  0  0  0
  7 11  1  0  0  0
  7 28  1  0  0  0
  8  9  2  0  0  0
  8 29  1  0  0  0
  9 10  1  0  0  0
  9 30  1  0  0  0
 10 11  2  0  0  0
 10 17  1  0  0  0
 11 12  1  0  0  0
 12 13  2  0  0  0
 12 15  1  0  0  0
 13 14  1  0  0  0
 14 31  1  0  0  0
 15 16  2  0  0  0
 15 17  1  0  0  0
 16 20  1  0  0  0
 16 32  1  0  0  0
 17 18  2  0  0  0
 18 19  1  0  0  0
 18 33  1  0  0  0
 19 20  2  0  0  0
 19 34  1  0  0  0
 20 21  1  0  0  0
 21 22  1  0  0  0
 22 23  1  0  0  0
 22 35  1  0  0  0
 22 36  1  0  0  0
 23 24  1  0  0  0
 23 25  2  0  0  0
M  CHG  2   1  -1  24  -1
M  END
> <s_m_source_file>
../2cgu_ligand.sdf

> <i_m_source_file_index>
1

> <s_epik_input>
W09IXUMoPU8pW0NIMl1PYyhbY0hdW2NIXTEpW2NIXWMoYzEyKUMoPU5bT0hdKWMzYzJbY0hdW2NIXWMoW2NIXTMpT1tDSDJdQyg9TylbT0hd

> <s_epik_cmdline>
J2VwaWtfYXBwJywgJy1pbWFlJywgJ2xpZ2FuZF9wcm8ubWFlJywgJy1vbWFlJywgJ2xpZ2FuZF9wcmVwLm1hZScsICctbXMnLCAnMScsICctcGgnLCAnNycsICctcGh0JywgJzAuNScsICctbnQn

> <r_lp_tautomer_probability>
1

> <r_epik_Ionization_Penalty>
  0.0003

> <r_epik_Ionization_Penalty_Charging>
  0.0002

> <r_epik_Ionization_Penalty_Neutral>
  0.0001

> <r_epik_State_Penalty>
 -0.0000

> <r_epik_Charging_Adjusted_Penalty>
0.000150460594118296

> <i_epik_Tot_Q>
-2

> <i_epik_Tot_abs_Q>
2

> <s_epik_Chemistry_Notes>
This compound has an imine and may undergo hydrolysis.

$$$$
