2cgv_ligand
                    3D
 Schrodinger Suite 2020-3.
 34 35  0  0  1  0            999 V2000
    4.0520   -3.9790   19.2120 C   0  0  0  0  0  0
    5.3520   -4.1850   18.7640 C   0  0  0  0  0  0
    5.5700   -5.1520   17.7020 C   0  0  0  0  0  0
    4.5730   -5.9000   17.1010 N   0  0  0  0  0  0
    3.2670   -5.7210   17.5170 C   0  0  0  0  0  0
    2.1900   -6.3990   16.9340 C   0  0  0  0  0  0
    2.4050   -7.2840   15.9450 N   0  0  0  0  0  0
    3.7440   -7.5310   15.2580 C   0  0  0  0  0  0
    0.8670   -6.2040   17.3500 C   0  0  0  0  0  0
    0.6620   -5.2840   18.3780 C   0  0  0  0  0  0
    1.7870   -4.6150   18.9340 C   0  0  0  0  0  0
    3.0490   -4.7740   18.5390 C   0  0  0  0  0  0
    3.9250   -6.6630   13.8950 C   0  0  2  0  0  0
    5.3990   -6.0900   13.7580 C   0  0  0  0  0  0
    5.9690   -5.9010   12.4290 N   0  3  0  0  0  0
    2.7980   -2.7170   20.3090 O   0  5  0  0  0  0
    0.2400   -3.6690   20.2270 O   0  0  0  0  0  0
    1.6520   -3.6890   19.8610 N   0  3  0  0  0  0
    3.2750   -5.3690   14.0480 O   0  0  0  0  0  0
    3.8083   -3.2744   20.0071 H   0  0  0  0  0  0
    6.1866   -3.6348   19.1987 H   0  0  0  0  0  0
    6.5923   -5.2989   17.3536 H   0  0  0  0  0  0
    1.5159   -7.8542   15.6380 H   0  0  0  0  0  0
    4.5622   -7.2577   15.9405 H   0  0  0  0  0  0
    3.8287   -8.5949   14.9916 H   0  0  0  0  0  0
    0.0383   -6.7447   16.8928 H   0  0  0  0  0  0
   -0.3428   -5.0813   18.7487 H   0  0  0  0  0  0
    3.5364   -7.2667   13.0616 H   0  0  0  0  0  0
    5.4496   -5.0937   14.2215 H   0  0  0  0  0  0
    6.1038   -6.7661   14.2642 H   0  0  0  0  0  0
    6.9890   -5.4997   12.5212 H   0  0  0  0  0  0
    5.3469   -5.1942   11.8604 H   0  0  0  0  0  0
    6.0010   -6.8666   11.9031 H   0  0  0  0  0  0
    2.1841   -5.3134   14.1781 H   0  0  0  0  0  0
  1  2  2  0  0  0
  1 12  1  0  0  0
  1 20  1  0  0  0
  2  3  1  0  0  0
  2 21  1  0  0  0
  3  4  2  0  0  0
  3 22  1  0  0  0
  4  5  1  0  0  0
  5  6  1  0  0  0
  5 12  2  0  0  0
  6  7  1  0  0  0
  6  9  2  0  0  0
  7  8  1  0  0  0
  7 23  1  0  0  0
  8 13  1  0  0  0
  8 24  1  0  0  0
  8 25  1  0  0  0
  9 10  1  0  0  0
  9 26  1  0  0  0
 10 11  2  0  0  0
 10 27  1  0  0  0
 11 12  1  0  0  0
 11 18  1  0  0  0
 13 14  1  0  0  0
 13 19  1  0  0  0
 13 28  1  0  0  0
 14 15  1  0  0  0
 14 29  1  0  0  0
 14 30  1  0  0  0
 15 31  1  0  0  0
 15 32  1  0  0  0
 15 33  1  0  0  0
 16 18  1  0  0  0
 17 18  2  0  0  0
 19 34  1  0  0  0
M  CHG  3  15   1  16  -1  18   1
M  END
> <s_m_source_file>
../2cgv_ligand.sdf

> <i_m_source_file_index>
1

> <s_epik_input>
bjFbY0hdW2NIXVtjSF1jKGMxMiljKFtOK10oW08tXSk9TylbY0hdW2NIXWMyW05IXVtDSDJdW0NAQEhdKFtPSF0pW0NIMl1bTkgzK10=

> <s_epik_cmdline>
J2VwaWtfYXBwJywgJy1pbWFlJywgJ2xpZ2FuZF9wcm8ubWFlJywgJy1vbWFlJywgJ2xpZ2FuZF9wcmVwLm1hZScsICctbXMnLCAnMScsICctcGgnLCAnNycsICctcGh0JywgJzAuNScsICctbnQn

> <r_lp_tautomer_probability>
1

> <r_epik_Ionization_Penalty>
  0.0079

> <r_epik_Ionization_Penalty_Charging>
  0.0079

> <r_epik_Ionization_Penalty_Neutral>
  0.0000

> <r_epik_State_Penalty>
 -0.0000

> <r_epik_Charging_Adjusted_Penalty>
0.007851244497706

> <i_epik_Tot_Q>
1

> <i_epik_Tot_abs_Q>
3

$$$$
