2cgw_ligand
                    3D
 Schrodinger Suite 2020-3.
 31 33  0  0  1  0            999 V2000
    6.5310   -2.4460   19.0170 N   0  0  0  0  0  0
    5.3330   -2.8320   19.4920 C   0  0  0  0  0  0
    4.6110   -2.1360   20.3730 N   0  0  0  0  0  0
    3.4240   -2.8870   20.6130 O   0  0  0  0  0  0
    3.4930   -4.0720   19.8000 N   0  0  0  0  0  0
    4.6640   -4.0160   19.1500 C   0  0  0  0  0  0
    5.1980   -4.8920   18.2190 C   0  0  0  0  0  0
    6.4380   -4.8340   17.7390 N   0  0  0  0  0  0
    4.5970   -5.9070   17.5840 N   0  0  0  0  0  0
    3.1820   -6.3240   17.7910 C   0  0  0  0  0  0
    2.9410   -7.7260   17.2180 C   0  0  0  0  0  0
    1.4580   -7.9650   16.8980 C   0  0  0  0  0  0
    5.3820   -6.4670   16.7980 N   0  0  0  0  0  0
    6.5500   -5.8200   16.8530 C   0  0  0  0  0  0
    7.7140   -6.1070   16.1520 C   0  0  0  0  0  0
    8.8150   -5.3470   16.0940 N   0  0  0  0  0  0
    9.7570   -6.0430   15.2880 O   0  0  0  0  0  0
    9.1500   -7.2510   14.8760 N   0  0  0  0  0  0
    7.9300   -7.2700   15.4030 C   0  0  0  0  0  0
    7.0720   -8.2780   15.2160 N   0  0  0  0  0  0
    6.9736   -1.4951   19.3484 H   0  0  0  0  0  0
    7.0679   -3.0813   18.2972 H   0  0  0  0  0  0
    2.9572   -6.3364   18.8677 H   0  0  0  0  0  0
    2.5124   -5.6131   17.2848 H   0  0  0  0  0  0
    3.5182   -7.8468   16.2894 H   0  0  0  0  0  0
    3.2621   -8.4815   17.9502 H   0  0  0  0  0  0
    1.3295   -8.9787   16.4907 H   0  0  0  0  0  0
    1.1192   -7.2263   16.1566 H   0  0  0  0  0  0
    0.8632   -7.8611   17.8174 H   0  0  0  0  0  0
    6.0734   -8.2427   15.6759 H   0  0  0  0  0  0
    7.3647   -9.1427   14.6023 H   0  0  0  0  0  0
  1  2  1  0  0  0
  1 21  1  0  0  0
  1 22  1  0  0  0
  2  3  2  0  0  0
  2  6  1  0  0  0
  3  4  1  0  0  0
  4  5  1  0  0  0
  5  6  2  0  0  0
  6  7  1  0  0  0
  7  8  2  0  0  0
  7  9  1  0  0  0
  8 14  1  0  0  0
  9 10  1  0  0  0
  9 13  1  0  0  0
 10 11  1  0  0  0
 10 23  1  0  0  0
 10 24  1  0  0  0
 11 12  1  0  0  0
 11 25  1  0  0  0
 11 26  1  0  0  0
 12 27  1  0  0  0
 12 28  1  0  0  0
 12 29  1  0  0  0
 13 14  2  0  0  0
 14 15  1  0  0  0
 15 16  2  0  0  0
 15 19  1  0  0  0
 16 17  1  0  0  0
 17 18  1  0  0  0
 18 19  2  0  0  0
 19 20  1  0  0  0
 20 30  1  0  0  0
 20 31  1  0  0  0
M  END
> <s_m_source_file>
../2cgw_ligand.sdf

> <i_m_source_file_index>
1

> <s_epik_input>
W05IMl1jMW5vbmMxLWMybmMobm4yW0NIMl1bQ0gyXVtDSDNdKS1jM25vbmMzW05IMl0=

> <s_epik_cmdline>
J2VwaWtfYXBwJywgJy1pbWFlJywgJ2xpZ2FuZF9wcm8ubWFlJywgJy1vbWFlJywgJ2xpZ2FuZF9wcmVwLm1hZScsICctbXMnLCAnMScsICctcGgnLCAnNycsICctcGh0JywgJzAuNScsICctbnQn

> <r_lp_tautomer_probability>
1

> <r_epik_Ionization_Penalty>
  0.0001

> <r_epik_Ionization_Penalty_Charging>
  0.0000

> <r_epik_Ionization_Penalty_Neutral>
  0.0001

> <r_epik_State_Penalty>
 -0.0000

> <r_epik_Charging_Adjusted_Penalty>
0

> <i_epik_Tot_Q>
0

> <i_epik_Tot_abs_Q>
0

$$$$
