2chm_ligand
                    3D
 Schrodinger Suite 2020-3.
 63 66  0  0  1  0            999 V2000
   19.9440   -6.1620   14.2150 C   0  0  0  0  0  0
   20.2460   -6.4990   15.5140 C   0  0  0  0  0  0
   20.6980   -7.1660   13.3930 C   0  0  0  0  0  0
   19.1670   -5.1940   13.5830 N   0  0  0  0  0  0
   21.0900   -7.5880   15.4450 N   0  0  0  0  0  0
   19.7310   -5.7850   16.7620 C   0  0  0  0  0  0
   21.3230   -7.9350   14.2150 N   0  0  0  0  0  0
   20.5630   -7.0550   11.9310 C   0  0  0  0  0  0
   19.0940   -5.1590   12.2580 C   0  0  0  0  0  0
   21.6770   -8.3000   16.6060 C   0  0  1  0  0  0
   18.3220   -6.2620   17.1350 C   0  0  0  0  0  0
   19.7660   -6.0570   11.4390 N   0  0  0  0  0  0
   21.1320   -7.8210   11.1930 O   0  0  0  0  0  0
   18.2660   -4.1740   11.5770 C   0  0  0  0  0  0
   20.7410   -9.4880   17.0400 C   0  0  0  0  0  0
   22.6090   -9.4810   16.1640 C   0  0  0  0  0  0
   18.7590   -3.3160   10.5380 C   0  0  0  0  0  0
   16.8980   -4.0660   11.9480 C   0  0  0  0  0  0
   21.5600  -10.5160   16.3310 N   0  3  1  0  0  0
   17.9030   -2.4240    9.9370 N   0  0  0  0  0  0
   20.0470   -3.3970   10.1710 O   0  0  0  0  0  0
   16.0610   -3.1370   11.3030 C   0  0  0  0  0  0
   21.9860  -11.6670   17.1690 C   0  0  0  0  0  0
   16.5880   -2.3110   10.2810 C   0  0  0  0  0  0
   20.5600   -2.6740    9.0200 C   0  0  0  0  0  0
   14.4120   -3.0400   11.7710 C   0  0  0  0  0  0
   20.8800  -12.7270   17.3200 C   0  0  0  0  0  0
   22.0320   -2.9600    8.9220 C   0  0  0  0  0  0
   13.6860   -2.5770   10.6770 O   0  0  0  0  0  0
   22.8570   -2.5320    9.9750 C   0  0  0  0  0  0
   24.2280   -2.7620    9.9320 C   0  0  0  0  0  0
   13.7440   -3.3610   13.0240 C   0  0  0  0  0  0
   20.4051   -5.9906   17.6065 H   0  0  0  0  0  0
   19.6959   -4.7014   16.5763 H   0  0  0  0  0  0
   21.9848   -7.4371   17.2148 H   0  0  0  0  0  0
   17.9812   -5.7299   18.0354 H   0  0  0  0  0  0
   18.3417   -7.3437   17.3337 H   0  0  0  0  0  0
   17.6325   -6.0544   16.3034 H   0  0  0  0  0  0
   19.6368   -5.9414   10.3527 H   0  0  0  0  0  0
   20.7121   -9.5497   18.1379 H   0  0  0  0  0  0
   19.7252   -9.3137   16.6557 H   0  0  0  0  0  0
   22.9639   -9.3038   15.1380 H   0  0  0  0  0  0
   23.4710   -9.5424   16.8446 H   0  0  0  0  0  0
   16.4963   -4.7048   12.7345 H   0  0  0  0  0  0
   21.1545  -11.0798   15.4779 H   0  0  0  0  0  0
   22.8596  -12.1520   16.7089 H   0  0  0  0  0  0
   22.2523  -11.3097   18.1747 H   0  0  0  0  0  0
   15.9476   -1.5901    9.7728 H   0  0  0  0  0  0
   20.0420   -3.0156    8.1117 H   0  0  0  0  0  0
   20.3874   -1.5963    9.1571 H   0  0  0  0  0  0
   21.2470  -13.5531   17.9468 H   0  0  0  0  0  0
   20.6050  -13.1139   16.3277 H   0  0  0  0  0  0
   19.9977  -12.2715   17.7934 H   0  0  0  0  0  0
   22.1909   -4.0465    8.8572 H   0  0  0  0  0  0
   22.4406   -2.4755    8.0230 H   0  0  0  0  0  0
   22.7776   -1.4401   10.0824 H   0  0  0  0  0  0
   22.5392   -3.0165   10.9100 H   0  0  0  0  0  0
   24.6966   -2.3559   10.8406 H   0  0  0  0  0  0
   24.6551   -2.2678    9.0469 H   0  0  0  0  0  0
   24.4166   -3.8442    9.8745 H   0  0  0  0  0  0
   14.4871   -3.7072   13.7575 H   0  0  0  0  0  0
   13.0021   -4.1545   12.8512 H   0  0  0  0  0  0
   13.2381   -2.4638   13.4101 H   0  0  0  0  0  0
  1  2  2  0  0  0
  1  3  1  0  0  0
  1  4  1  0  0  0
  2  5  1  0  0  0
  2  6  1  0  0  0
  3  7  2  0  0  0
  3  8  1  0  0  0
  4  9  2  0  0  0
  5  7  1  0  0  0
  5 10  1  0  0  0
  6 11  1  0  0  0
  6 33  1  0  0  0
  6 34  1  0  0  0
  8 12  1  0  0  0
  8 13  2  0  0  0
  9 12  1  0  0  0
  9 14  1  0  0  0
 10 15  1  0  0  0
 10 16  1  0  0  0
 10 35  1  0  0  0
 11 36  1  0  0  0
 11 37  1  0  0  0
 11 38  1  0  0  0
 12 39  1  0  0  0
 14 17  2  0  0  0
 14 18  1  0  0  0
 15 19  1  0  0  0
 15 40  1  0  0  0
 15 41  1  0  0  0
 16 19  1  0  0  0
 16 42  1  0  0  0
 16 43  1  0  0  0
 17 20  1  0  0  0
 17 21  1  0  0  0
 18 22  2  0  0  0
 18 44  1  0  0  0
 19 23  1  0  0  0
 19 45  1  0  0  0
 20 24  2  0  0  0
 21 25  1  0  0  0
 22 24  1  0  0  0
 22 26  1  0  0  0
 23 27  1  0  0  0
 23 46  1  0  0  0
 23 47  1  0  0  0
 24 48  1  0  0  0
 25 28  1  0  0  0
 25 49  1  0  0  0
 25 50  1  0  0  0
 26 29  2  0  0  0
 26 32  1  0  0  0
 27 51  1  0  0  0
 27 52  1  0  0  0
 27 53  1  0  0  0
 28 30  1  0  0  0
 28 54  1  0  0  0
 28 55  1  0  0  0
 30 31  1  0  0  0
 30 56  1  0  0  0
 30 57  1  0  0  0
 31 58  1  0  0  0
 31 59  1  0  0  0
 31 60  1  0  0  0
 32 61  1  0  0  0
 32 62  1  0  0  0
 32 63  1  0  0  0
M  CHG  1  19   1
M  END
> <s_m_source_file>
../2chm_ligand.sdf

> <i_m_source_file_index>
1

> <s_epik_input>
W0NIM11bQ0gyXVtOQEgrXShbQ0gyXTEpW0NIMl1bQ0BASF0xbihjMltDSDJdW0NIM10pbmMoYzIzKWMoPU8pW25IXWMobjMpLWM0YyhuW2NIXWMoW2NIXTQpQyg9TylbQ0gzXSlPW0NIMl1bQ0gyXVtDSDJdW0NIM10=

> <s_epik_cmdline>
J2VwaWtfYXBwJywgJy1pbWFlJywgJ2xpZ2FuZF9wcm8ubWFlJywgJy1vbWFlJywgJ2xpZ2FuZF9wcmVwLm1hZScsICctbXMnLCAnMScsICctcGgnLCAnNycsICctcGh0JywgJzAuNScsICctbnQn

> <r_lp_tautomer_probability>
1

> <r_epik_Ionization_Penalty>
  0.1078

> <r_epik_Ionization_Penalty_Charging>
  0.1078

> <r_epik_Ionization_Penalty_Neutral>
  0.0000

> <r_epik_State_Penalty>
 -0.0000

> <r_epik_Charging_Adjusted_Penalty>
0.107776427604965

> <i_epik_Tot_Q>
1

> <i_epik_Tot_abs_Q>
1

$$$$
