2chx_ligand
                    3D
 Schrodinger Suite 2020-3.
 41 44  0  0  1  0            999 V2000
   43.9370   13.1730   32.7120 O   0  0  0  0  0  0
   43.4190   12.3190   32.0050 C   0  0  0  0  0  0
   42.0440   11.8030   32.3370 C   0  0  0  0  0  0
   41.4530   10.8220   31.5430 C   0  0  0  0  0  0
   40.2450   10.3360   31.8800 N   0  0  0  0  0  0
   39.5970   10.7580   32.9850 C   0  0  0  0  0  0
   40.1490   11.7060   33.8320 C   0  0  0  0  0  0
   41.3890   12.2250   33.5040 C   0  0  0  0  0  0
   44.1030   11.6770   31.0610 N   0  0  0  0  0  0
   45.3760   11.9880   30.7450 C   0  0  0  0  0  0
   46.0670   12.9780   31.3930 N   0  0  0  0  0  0
   47.3740   13.2620   31.1040 C   0  0  0  0  0  0
   48.0250   14.2850   31.7910 C   0  0  0  0  0  0
   47.3320   15.0180   32.7090 O   0  0  0  0  0  0
   46.5530   16.1210   32.2100 C   0  0  0  0  0  0
   48.0570   12.5260   30.1190 C   0  0  0  0  0  0
   47.3610   11.4980   29.4700 C   0  0  0  0  0  0
   46.0380   11.2310   29.7700 N   0  0  0  0  0  0
   45.4950   10.1250   28.9960 C   0  0  0  0  0  0
   46.7150    9.7690   28.1480 C   0  0  0  0  0  0
   47.7870   10.6690   28.5230 N   0  0  0  0  0  0
   49.3980   12.8300   29.8200 C   0  0  0  0  0  0
   50.0470   13.8570   30.5070 C   0  0  0  0  0  0
   49.3570   14.6060   31.4920 C   0  0  0  0  0  0
   49.9880   15.6380   32.1650 O   0  0  0  0  0  0
   51.3320   16.0090   31.8240 C   0  0  0  0  0  0
   41.9659   10.4513   30.6555 H   0  0  0  0  0  0
   38.6160   10.3437   33.2174 H   0  0  0  0  0  0
   39.6226   12.0326   34.7288 H   0  0  0  0  0  0
   41.8583   12.9636   34.1539 H   0  0  0  0  0  0
   43.6309   10.8554   30.5023 H   0  0  0  0  0  0
   46.0489   16.6230   33.0489 H   0  0  0  0  0  0
   45.8001   15.7469   31.5007 H   0  0  0  0  0  0
   47.2148   16.8358   31.6991 H   0  0  0  0  0  0
   44.5011    9.6779   29.0156 H   0  0  0  0  0  0
   46.7692    8.9808   27.3970 H   0  0  0  0  0  0
   49.9286   12.2648   29.0537 H   0  0  0  0  0  0
   51.0897   14.0839   30.2847 H   0  0  0  0  0  0
   51.6560   16.8426   32.4645 H   0  0  0  0  0  0
   51.3701   16.3204   30.7697 H   0  0  0  0  0  0
   51.9998   15.1483   31.9765 H   0  0  0  0  0  0
  1  2  2  0  0  0
  2  3  1  0  0  0
  2  9  1  0  0  0
  3  4  2  0  0  0
  3  8  1  0  0  0
  4  5  1  0  0  0
  4 27  1  0  0  0
  5  6  2  0  0  0
  6  7  1  0  0  0
  6 28  1  0  0  0
  7  8  2  0  0  0
  7 29  1  0  0  0
  8 30  1  0  0  0
  9 10  1  0  0  0
  9 31  1  0  0  0
 10 11  2  0  0  0
 10 18  1  0  0  0
 11 12  1  0  0  0
 12 13  2  0  0  0
 12 16  1  0  0  0
 13 14  1  0  0  0
 13 24  1  0  0  0
 14 15  1  0  0  0
 15 32  1  0  0  0
 15 33  1  0  0  0
 15 34  1  0  0  0
 16 17  1  0  0  0
 16 22  2  0  0  0
 17 18  1  0  0  0
 17 21  2  0  0  0
 18 19  1  0  0  0
 19 20  2  0  0  0
 19 35  1  0  0  0
 20 21  1  0  0  0
 20 36  1  0  0  0
 22 23  1  0  0  0
 22 37  1  0  0  0
 23 24  2  0  0  0
 23 38  1  0  0  0
 24 25  1  0  0  0
 25 26  1  0  0  0
 26 39  1  0  0  0
 26 40  1  0  0  0
 26 41  1  0  0  0
M  END
> <s_m_source_file>
../2chx_ligand.sdf

> <i_m_source_file_index>
1

> <s_epik_input>
W2NIXTFbY0hdW2NIXW5bY0hdYzFDKD1PKVtOSF1jKG4yKW4oW2NIXVtjSF1uMyljM2MoYzI0KVtjSF1bY0hdYyhPW0NIM10pYzRPW0NIM10=

> <s_epik_cmdline>
J2VwaWtfYXBwJywgJy1pbWFlJywgJ2xpZ2FuZF9wcm8ubWFlJywgJy1vbWFlJywgJ2xpZ2FuZF9wcmVwLm1hZScsICctbXMnLCAnMScsICctcGgnLCAnNycsICctcGh0JywgJzAuNScsICctbnQn

> <r_lp_tautomer_probability>
1

> <r_epik_Ionization_Penalty>
  0.0016

> <r_epik_Ionization_Penalty_Charging>
  0.0014

> <r_epik_Ionization_Penalty_Neutral>
  0.0001

> <r_epik_State_Penalty>
 -0.0000

> <r_epik_Charging_Adjusted_Penalty>
0.00141627419715328

> <i_epik_Tot_Q>
0

> <i_epik_Tot_abs_Q>
0

$$$$
