2chz_ligand
                    3D
 Schrodinger Suite 2020-3.
 40 41  0  0  1  0            999 V2000
   44.3600   14.0700   34.5390 O   0  0  0  0  0  0
   43.1120   13.3650   34.1170 S   0  0  0  0  0  0
   42.7760   12.3580   35.1680 O   0  0  0  0  0  0
   41.9560   14.3530   34.0230 N   0  0  3  0  0  0
   42.2120   15.7750   33.8090 C   0  0  0  0  0  0
   40.8750   16.3870   33.3920 C   0  0  0  0  0  0
   40.9830   16.9600   32.0940 O   0  0  0  0  0  0
   43.4250   12.5360   32.5900 C   0  0  0  0  0  0
   42.4200   11.8410   31.9140 C   0  0  0  0  0  0
   40.8130   11.7790   32.5390 Cl  0  0  0  0  0  0
   42.6890   11.1820   30.7180 C   0  0  0  0  0  0
   43.9670   11.1960   30.1730 C   0  0  0  0  0  0
   44.7030   12.5410   32.0240 C   0  0  0  0  0  0
   44.9890   11.8790   30.8220 C   0  0  0  0  0  0
   46.2860   11.9110   30.2930 C   0  0  0  0  0  0
   46.7240   11.2980   29.1190 C   0  0  0  0  0  0
   45.8850   10.4650   28.1490 C   0  0  0  0  0  0
   48.0130   11.5100   28.8790 N   0  0  0  0  0  0
   47.5390   12.7680   31.0890 S   0  0  0  0  0  0
   48.5840   12.2600   29.8180 C   0  0  0  0  0  0
   49.8860   12.5750   29.7820 N   0  0  0  0  0  0
   50.4440   13.7270   30.1800 C   0  0  0  0  0  0
   49.8210   14.6770   30.6220 O   0  0  0  0  0  0
   51.9360   13.7990   30.0350 C   0  0  0  0  0  0
   40.9435   14.0092   34.2810 H   0  0  0  0  0  0
   42.5810   16.2256   34.7422 H   0  0  0  0  0  0
   42.9679   15.8967   33.0191 H   0  0  0  0  0  0
   40.1021   15.6045   33.3779 H   0  0  0  0  0  0
   40.5905   17.1704   34.1099 H   0  0  0  0  0  0
   40.1109   17.4473   31.6336 H   0  0  0  0  0  0
   41.8890   10.6495   30.2037 H   0  0  0  0  0  0
   44.1678   10.6724   29.2383 H   0  0  0  0  0  0
   45.5034   13.0772   32.5339 H   0  0  0  0  0  0
   44.8506   10.4038   28.5182 H   0  0  0  0  0  0
   46.3082    9.4524   28.0745 H   0  0  0  0  0  0
   45.8927   10.9396   27.1567 H   0  0  0  0  0  0
   50.6169   11.8497   29.3950 H   0  0  0  0  0  0
   52.3105   12.8506   29.6224 H   0  0  0  0  0  0
   52.3920   13.9757   31.0203 H   0  0  0  0  0  0
   52.1990   14.6235   29.3560 H   0  0  0  0  0  0
  1  2  2  0  0  0
  2  3  2  0  0  0
  2  4  1  0  0  0
  2  8  1  0  0  0
  4  5  1  0  0  0
  4 25  1  0  0  0
  5  6  1  0  0  0
  5 26  1  0  0  0
  5 27  1  0  0  0
  6  7  1  0  0  0
  6 28  1  0  0  0
  6 29  1  0  0  0
  7 30  1  0  0  0
  8  9  2  0  0  0
  8 13  1  0  0  0
  9 10  1  0  0  0
  9 11  1  0  0  0
 11 12  2  0  0  0
 11 31  1  0  0  0
 12 14  1  0  0  0
 12 32  1  0  0  0
 13 14  2  0  0  0
 13 33  1  0  0  0
 14 15  1  0  0  0
 15 16  2  0  0  0
 15 19  1  0  0  0
 16 17  1  0  0  0
 16 18  1  0  0  0
 17 34  1  0  0  0
 17 35  1  0  0  0
 17 36  1  0  0  0
 18 20  2  0  0  0
 19 20  1  0  0  0
 20 21  1  0  0  0
 21 22  1  0  0  0
 21 37  1  0  0  0
 22 23  2  0  0  0
 22 24  1  0  0  0
 24 38  1  0  0  0
 24 39  1  0  0  0
 24 40  1  0  0  0
M  END
> <s_m_source_file>
../2chz_ligand.sdf

> <i_m_source_file_index>
1

> <s_epik_input>
W09IXVtDSDJdW0NIMl1bTkhdUyg9TykoPU8pYzFjKENsKVtjSF1bY0hdYyhbY0hdMSktYzJjKFtDSDNdKW5jKHMyKVtOSF1DKD1PKVtDSDNd

> <s_epik_cmdline>
J2VwaWtfYXBwJywgJy1pbWFlJywgJ2xpZ2FuZF9wcm8ubWFlJywgJy1vbWFlJywgJ2xpZ2FuZF9wcmVwLm1hZScsICctbXMnLCAnMScsICctcGgnLCAnNycsICctcGh0JywgJzAuNScsICctbnQn

> <r_lp_tautomer_probability>
1

> <r_epik_Ionization_Penalty>
  0.0011

> <r_epik_Ionization_Penalty_Charging>
  0.0000

> <r_epik_Ionization_Penalty_Neutral>
  0.0011

> <r_epik_State_Penalty>
 -0.0000

> <r_epik_Charging_Adjusted_Penalty>
0

> <i_epik_Tot_Q>
0

> <i_epik_Tot_abs_Q>
0

$$$$
