2ci9_ligand
                    3D
 Schrodinger Suite 2020-3.
139140  0  0  1  0            999 V2000
   35.7020    0.8760   18.3870 N   0  3  0  0  0  0
   35.5170    1.9970   17.4180 C   0  0  2  0  0  0
   36.8320    2.6580   17.0930 C   0  0  0  0  0  0
   37.3170    3.4950   17.8510 O   0  0  0  0  0  0
   34.5860    3.0670   17.9730 C   0  0  0  0  0  0
   33.1780    2.6180   18.0970 C   0  0  0  0  0  0
   32.1260    3.5000   18.1440 N   0  3  0  0  0  0
   32.6410    1.3760   18.1650 C   0  0  0  0  0  0
   31.0010    2.8190   18.2540 C   0  0  0  0  0  0
   31.2850    1.5300   18.2740 N   0  0  0  0  0  0
   37.3890    2.2770   15.9520 N   0  0  0  0  0  0
   38.6300    2.8650   15.4660 C   0  0  2  0  0  0
   38.2330    3.9050   14.4140 C   0  0  0  0  0  0
   37.3880    3.6280   13.5660 O   0  0  0  0  0  0
   39.5830    1.8060   14.8490 C   0  0  2  0  0  0
   39.6700    0.5320   15.7110 C   0  0  0  0  0  0
   40.9660    2.4040   14.6660 C   0  0  0  0  0  0
   40.0740    0.7760   17.1500 C   0  0  0  0  0  0
   38.8240    5.1010   14.5000 N   0  0  0  0  0  0
   39.5138    5.2642   15.3412 H   0  0  0  0  0  0
   38.5850    6.1720   13.5310 C   0  0  2  0  0  0
   39.6720    6.1870   12.4380 C   0  0  0  0  0  0
   40.8440    5.9480   12.6920 O   0  0  0  0  0  0
   38.4460    7.5520   14.2010 C   0  0  0  0  0  0
   37.1510    7.6730   14.9920 C   0  0  0  0  0  0
   37.0600    7.1950   16.3070 C   0  0  0  0  0  0
   36.0180    8.2710   14.4430 C   0  0  0  0  0  0
   35.8760    7.3020   17.0350 C   0  0  0  0  0  0
   34.8160    8.3650   15.1420 C   0  0  0  0  0  0
   34.7460    7.8820   16.4530 C   0  0  0  0  0  0
   33.6750    7.9860   17.1180 O   0  0  0  0  0  0
   32.3820    7.0110   17.0320 P   0  0  0  0  0  0
   32.3950    6.1960   15.7380 O   0  5  0  0  0  0
   31.1920    7.9610   17.1130 O   0  0  0  0  0  0
   39.2410    6.4740   11.2170 N   0  0  0  0  0  0
   40.1090    6.5750   10.0460 C   0  0  2  0  0  0
   40.9190    7.8670   10.1070 C   0  0  0  0  0  0
   40.4260    8.8650   10.6340 O   0  0  0  0  0  0
   39.2590    6.4320    8.7880 C   0  0  0  0  0  0
   38.5310    5.0990    8.7750 C   0  0  0  0  0  0
   39.2150    4.0700    8.5640 O   0  5  0  0  0  0
   37.3160    5.0660    9.0420 O   0  0  0  0  0  0
   42.1550    7.8260    9.6090 N   0  0  0  0  0  0
   43.0490    8.9810    9.6150 C   0  0  2  0  0  0
   42.6420    9.9780    8.5420 C   0  0  0  0  0  0
   42.4230    9.6090    7.3930 O   0  0  0  0  0  0
   44.5110    8.5770    9.3680 C   0  0  0  0  0  0
   45.4930    9.7520    9.5080 C   0  0  0  0  0  0
   46.9520    9.3860    9.3210 C   0  0  0  0  0  0
   47.2710    8.5140    8.4770 O   0  5  0  0  0  0
   47.7890   10.0110   10.0120 O   0  0  0  0  0  0
   42.5490   11.2400    8.9380 N   0  0  0  0  0  0
   42.2800   12.3330    8.0410 C   0  0  2  0  0  0
   43.5470   12.5790    7.1750 C   0  0  0  0  0  0
   44.6720   12.5120    7.6790 O   0  0  0  0  0  0
   41.9170   13.5800    8.8850 C   0  0  0  0  0  0
   41.7260   14.7860    8.0290 C   0  0  0  0  0  0
   40.6440   13.2910    9.6840 C   0  0  0  0  0  0
   43.3470   12.8600    5.8810 N   0  0  0  0  0  0
   44.4430   13.1630    4.9480 C   0  0  2  0  0  0
   45.3370   14.2530    5.5350 C   0  0  0  0  0  0
   44.8390   15.2530    6.0920 O   0  0  0  0  0  0
   43.8830   13.5930    3.5720 C   0  0  0  0  0  0
   46.6500   14.0440    5.4050 N   0  0  0  0  0  0
   47.6500   14.9440    5.9910 C   0  0  2  0  0  0
   47.5530   16.3710    5.4690 C   0  0  0  0  0  0
   47.1610   16.5990    4.3230 O   0  0  0  0  0  0
   49.0810   14.4110    5.7630 C   0  0  0  0  0  0
   47.9370   17.3240    6.3180 N   0  0  0  0  0  0
   47.9750   18.7420    5.9340 C   0  0  2  0  0  0
   49.0210   19.4860    6.7770 C   0  0  0  0  0  0
   50.2220   19.4420    6.4700 O   0  0  0  0  0  0
   46.5770   19.3600    6.0960 C   0  0  0  0  0  0
   46.3110   20.5040    5.1380 C   0  0  0  0  0  0
   47.2150   21.2990    4.8500 O   0  0  0  0  0  0
   45.1570   20.6280    4.6750 O   0  5  0  0  0  0
   48.6367   20.1820    7.8432 O   0  5  0  0  0  0
   36.3782    0.1245   17.9535 H   0  0  0  0  0  0
   34.7278    0.4124   18.6017 H   0  0  0  0  0  0
   36.1362    1.2654   19.3196 H   0  0  0  0  0  0
   35.0885    1.5376   16.5150 H   0  0  0  0  0  0
   34.9265    3.3651   18.9756 H   0  0  0  0  0  0
   34.5954    3.9425   17.3072 H   0  0  0  0  0  0
   33.1858    0.4323   18.1380 H   0  0  0  0  0  0
   30.0018    3.2499   18.3178 H   0  0  0  0  0  0
   36.8861    1.4926   15.3674 H   0  0  0  0  0  0
   39.1338    3.3114   16.3360 H   0  0  0  0  0  0
   39.1900    1.5148   13.8637 H   0  0  0  0  0  0
   38.6881    0.0366   15.7333 H   0  0  0  0  0  0
   40.4160   -0.1520   15.2802 H   0  0  0  0  0  0
   40.8941    3.3124   14.0498 H   0  0  0  0  0  0
   41.6185    1.6728   14.1664 H   0  0  0  0  0  0
   41.3877    2.6602   15.6491 H   0  0  0  0  0  0
   40.1105   -0.1827   17.6882 H   0  0  0  0  0  0
   39.3385    1.4382   17.6301 H   0  0  0  0  0  0
   41.0664    1.2496   17.1769 H   0  0  0  0  0  0
   37.6150    5.9072   13.0848 H   0  0  0  0  0  0
   39.2870    7.7104   14.8920 H   0  0  0  0  0  0
   38.4524    8.3364   13.4298 H   0  0  0  0  0  0
   37.9315    6.7310   16.7688 H   0  0  0  0  0  0
   36.0739    8.6786   13.4336 H   0  0  0  0  0  0
   35.8317    6.9327   18.0596 H   0  0  0  0  0  0
   33.9392    8.8104   14.6719 H   0  0  0  0  0  0
   30.9884    8.6592   16.2877 H   0  0  0  0  0  0
   38.1584    6.6403   11.1151 H   0  0  0  0  0  0
   40.8292    5.7438   10.0666 H   0  0  0  0  0  0
   38.5152    7.2417    8.7541 H   0  0  0  0  0  0
   39.9055    6.4907    7.9000 H   0  0  0  0  0  0
   42.4933    6.8709    9.1809 H   0  0  0  0  0  0
   42.9268    9.4076   10.6215 H   0  0  0  0  0  0
   44.8066    7.8070   10.0959 H   0  0  0  0  0  0
   44.6136    8.1765    8.3486 H   0  0  0  0  0  0
   45.2587   10.5175    8.7536 H   0  0  0  0  0  0
   45.4018   10.1883   10.5136 H   0  0  0  0  0  0
   42.6890   11.4317   10.0121 H   0  0  0  0  0  0
   41.4295   12.0430    7.4066 H   0  0  0  0  0  0
   42.7463   13.8286    9.5636 H   0  0  0  0  0  0
   42.6473   14.9821    7.4609 H   0  0  0  0  0  0
   41.4953   15.6538    8.6644 H   0  0  0  0  0  0
   40.8945   14.6117    7.3303 H   0  0  0  0  0  0
   40.7986   12.4000   10.3103 H   0  0  0  0  0  0
   39.8089   13.1116    8.9909 H   0  0  0  0  0  0
   40.4097   14.1537   10.3250 H   0  0  0  0  0  0
   42.3063   12.8576    5.5248 H   0  0  0  0  0  0
   45.0238   12.2353    4.8382 H   0  0  0  0  0  0
   43.2435   12.7932    3.1702 H   0  0  0  0  0  0
   44.7166   13.7790    2.8788 H   0  0  0  0  0  0
   43.2907   14.5126    3.6883 H   0  0  0  0  0  0
   46.9724   13.1603    4.8348 H   0  0  0  0  0  0
   47.3832   14.9488    7.0581 H   0  0  0  0  0  0
   49.1526   13.3800    6.1397 H   0  0  0  0  0  0
   49.7994   15.0482    6.2996 H   0  0  0  0  0  0
   49.3105   14.4251    4.6873 H   0  0  0  0  0  0
   48.2312   17.0212    7.3337 H   0  0  0  0  0  0
   48.2721   18.7847    4.8758 H   0  0  0  0  0  0
   45.8125   18.5906    5.9127 H   0  0  0  0  0  0
   46.4654   19.7516    7.1178 H   0  0  0  0  0  0
   32.4360    6.1810   18.2610 O   0  0  0  0  0  0
   32.3131    4.5826   18.0901 H   0  0  0  0  0  0
  1  2  1  0  0  0
  1 78  1  0  0  0
  1 79  1  0  0  0
  1 80  1  0  0  0
  2  3  1  0  0  0
  2  5  1  0  0  0
  2 81  1  0  0  0
  3  4  2  0  0  0
  3 11  1  0  0  0
  5  6  1  0  0  0
  5 82  1  0  0  0
  5 83  1  0  0  0
  6  7  1  0  0  0
  6  8  2  0  0  0
  7  9  2  0  0  0
  7139  1  0  0  0
  8 10  1  0  0  0
  8 84  1  0  0  0
  9 10  1  0  0  0
  9 85  1  0  0  0
 11 12  1  0  0  0
 11 86  1  0  0  0
 12 13  1  0  0  0
 12 15  1  0  0  0
 12 87  1  0  0  0
 13 14  2  0  0  0
 13 19  1  0  0  0
 15 16  1  0  0  0
 15 17  1  0  0  0
 15 88  1  0  0  0
 16 18  1  0  0  0
 16 89  1  0  0  0
 16 90  1  0  0  0
 17 91  1  0  0  0
 17 92  1  0  0  0
 17 93  1  0  0  0
 18 94  1  0  0  0
 18 95  1  0  0  0
 18 96  1  0  0  0
 19 20  1  0  0  0
 19 21  1  0  0  0
 21 22  1  0  0  0
 21 24  1  0  0  0
 21 97  1  0  0  0
 22 23  2  0  0  0
 22 35  1  0  0  0
 24 25  1  0  0  0
 24 98  1  0  0  0
 24 99  1  0  0  0
 25 26  2  0  0  0
 25 27  1  0  0  0
 26 28  1  0  0  0
 26100  1  0  0  0
 27 29  2  0  0  0
 27101  1  0  0  0
 28 30  2  0  0  0
 28102  1  0  0  0
 29 30  1  0  0  0
 29103  1  0  0  0
 30 31  1  0  0  0
 31 32  1  0  0  0
 32 33  1  0  0  0
 32 34  1  0  0  0
 32138  2  0  0  0
 34104  1  0  0  0
 35 36  1  0  0  0
 35105  1  0  0  0
 36 37  1  0  0  0
 36 39  1  0  0  0
 36106  1  0  0  0
 37 38  2  0  0  0
 37 43  1  0  0  0
 39 40  1  0  0  0
 39107  1  0  0  0
 39108  1  0  0  0
 40 41  1  0  0  0
 40 42  2  0  0  0
 43 44  1  0  0  0
 43109  1  0  0  0
 44 45  1  0  0  0
 44 47  1  0  0  0
 44110  1  0  0  0
 45 46  2  0  0  0
 45 52  1  0  0  0
 47 48  1  0  0  0
 47111  1  0  0  0
 47112  1  0  0  0
 48 49  1  0  0  0
 48113  1  0  0  0
 48114  1  0  0  0
 49 50  1  0  0  0
 49 51  2  0  0  0
 52 53  1  0  0  0
 52115  1  0  0  0
 53 54  1  0  0  0
 53 56  1  0  0  0
 53116  1  0  0  0
 54 55  2  0  0  0
 54 59  1  0  0  0
 56 57  1  0  0  0
 56 58  1  0  0  0
 56117  1  0  0  0
 57118  1  0  0  0
 57119  1  0  0  0
 57120  1  0  0  0
 58121  1  0  0  0
 58122  1  0  0  0
 58123  1  0  0  0
 59 60  1  0  0  0
 59124  1  0  0  0
 60 61  1  0  0  0
 60 63  1  0  0  0
 60125  1  0  0  0
 61 62  2  0  0  0
 61 64  1  0  0  0
 63126  1  0  0  0
 63127  1  0  0  0
 63128  1  0  0  0
 64 65  1  0  0  0
 64129  1  0  0  0
 65 66  1  0  0  0
 65 68  1  0  0  0
 65130  1  0  0  0
 66 67  2  0  0  0
 66 69  1  0  0  0
 68131  1  0  0  0
 68132  1  0  0  0
 68133  1  0  0  0
 69 70  1  0  0  0
 69134  1  0  0  0
 70 71  1  0  0  0
 70 73  1  0  0  0
 70135  1  0  0  0
 71 72  2  0  0  0
 71 77  1  0  0  0
 73 74  1  0  0  0
 73136  1  0  0  0
 73137  1  0  0  0
 74 75  2  0  0  0
 74 76  1  0  0  0
M  CHG  7   1   1   7   1  33  -1  41  -1  50  -1  76  -1  77  -1
M  END
> <s_m_source_file>
../2ci9_ligand.sdf

> <i_m_source_file_index>
1

> <s_epik_input>
W2NIXTFbbkhdW2NIXW5jMVtDSDJdW0NASF0oW05IMytdKUMoPU8pW05IXVtDQEBIXShbQ0BASF0oW0NIM10pW0NIMl1bQ0gzXSlDKD1PKVtOSF1bQ0BASF0oW0NIMl1jMltjSF1bY0hdYyhbY0hdW2NIXTIpT1AoPU8pKFtPSF0pW09IXSlDKD1PKVtOSF1bQ0BASF0oW0NIMl1DKD1PKVtPSF0pQyg9TylbTkhdW0NAQEhdKFtDSDJdW0NIMl1DKD1PKVtPSF0pQyg9TylbTkhdW0NAQEhdKFtDSF0oW0NIM10pW0NIM10pQyg9TylbTkhdW0NAQEhdKFtDSDNdKUMoPU8pW05IXVtDQEBIXShbQ0gzXSlDKD1PKVtOSF1bQ0BIXShDKD1PKVtPSF0pW0NIMl1DKD1PKVtPSF0=

> <s_epik_cmdline>
J2VwaWtfYXBwJywgJy1pbWFlJywgJ2xpZ2FuZF9wcm8ubWFlJywgJy1vbWFlJywgJ2xpZ2FuZF9wcmVwLm1hZScsICctbXMnLCAnMScsICctcGgnLCAnNycsICctcGh0JywgJzAuNScsICctbnQn

> <r_epik_Ionization_Penalty>
  1.4407

> <r_epik_Ionization_Penalty_Charging>
  0.2042

> <r_epik_Ionization_Penalty_Neutral>
  1.2365

> <r_epik_State_Penalty>
  0.3747

> <r_epik_Charging_Adjusted_Penalty>
0.578923945808087

> <i_epik_Tot_Q>
-3

> <i_epik_Tot_abs_Q>
7

$$$$
