2cia_ligand
                    3D
 Schrodinger Suite 2020-3.
131132  0  0  1  0            999 V2000
   19.1590   54.9670   33.2270 C   0  0  0  0  0  0
   20.1080   55.4830   33.8570 O   0  0  0  0  0  0
   17.8610   54.7110   33.9580 C   0  0  0  0  0  0
   19.1880   54.8160   31.8720 N   0  0  0  0  0  0
   18.1160   54.1300   31.0820 C   0  0  2  0  0  0
   18.3710   52.6800   30.6330 C   0  0  0  0  0  0
   19.3430   52.3700   29.9070 O   0  0  0  0  0  0
   17.7400   54.8710   29.8250 C   0  0  0  0  0  0
   17.0700   56.1730   30.0680 C   0  0  0  0  0  0
   16.9320   57.1300   29.0890 N   0  0  0  0  0  0
   16.5570   56.7060   31.2050 C   0  0  0  0  0  0
   16.3200   58.1850   29.6070 C   0  0  0  0  0  0
   16.0910   57.9530   30.8920 N   0  0  0  0  0  0
   17.4410   51.8190   31.0190 N   0  0  0  0  0  0
   17.5060   50.3990   30.6870 C   0  0  2  0  0  0
   16.5410   50.1300   29.5510 C   0  0  0  0  0  0
   15.3910   50.6220   29.5680 O   0  0  0  0  0  0
   17.1340   49.5220   31.8980 C   0  0  2  0  0  0
   17.9420   49.9360   33.1300 C   0  0  0  0  0  0
   17.3650   48.0500   31.5910 C   0  0  0  0  0  0
   19.4170   49.9050   32.9110 C   0  0  0  0  0  0
   16.9950   49.3560   28.5500 N   0  0  0  0  0  0
   16.1710   49.0120   27.3840 C   0  0  2  0  0  0
   15.6910   47.5840   27.4500 C   0  0  0  0  0  0
   16.3520   46.7240   28.0310 O   0  0  0  0  0  0
   16.8950   49.2620   26.0740 C   0  0  0  0  0  0
   17.0370   50.7450   25.7500 C   0  0  0  0  0  0
   18.0650   51.4890   26.3040 C   0  0  0  0  0  0
   16.1860   51.3830   24.8610 C   0  0  0  0  0  0
   18.2130   52.8480   26.0090 C   0  0  0  0  0  0
   16.2950   52.7480   24.5670 C   0  0  0  0  0  0
   17.3360   53.4760   25.1410 C   0  0  0  0  0  0
   17.4660   54.7260   24.8150 O   0  0  0  0  0  0
   16.7340   55.9440   25.5870 P   0  0  0  0  0  0
   17.6800   56.4960   26.5600 O   0  0  0  0  0  0
   15.4700   55.3930   26.2170 O   0  5  0  0  0  0
   16.4230   56.8770   24.4520 O   0  5  0  0  0  0
   14.5190   47.3480   26.8640 N   0  0  0  0  0  0
   13.9240   46.0500   26.8130 C   0  0  2  0  0  0
   14.5580   45.2300   25.7400 C   0  0  0  0  0  0
   15.0810   45.7530   24.7650 O   0  0  0  0  0  0
   12.4380   46.2140   26.5540 C   0  0  0  0  0  0
   11.7440   46.9190   27.6880 C   0  0  0  0  0  0
   11.4750   46.2500   28.7040 O   0  0  0  0  0  0
   11.5240   48.1430   27.5470 O   0  5  0  0  0  0
   14.5090   43.9100   25.9290 N   0  0  0  0  0  0
   15.1000   42.9640   24.9880 C   0  0  2  0  0  0
   14.1820   42.7360   23.7960 C   0  0  0  0  0  0
   13.0400   42.3660   23.9740 O   0  0  0  0  0  0
   15.3080   41.6460   25.7000 C   0  0  0  0  0  0
   16.0100   40.6030   24.8680 C   0  0  0  0  0  0
   16.0890   39.2450   25.5340 C   0  0  0  0  0  0
   15.2310   38.8980   26.3870 O   0  5  0  0  0  0
   17.0100   38.5170   25.1660 O   0  0  0  0  0  0
   14.6350   43.0490   22.5750 N   0  0  0  0  0  0
   13.8320   42.7570   21.3630 C   0  0  2  0  0  0
   13.6710   41.2670   21.1430 C   0  0  0  0  0  0
   14.5920   40.4730   21.4380 O   0  0  0  0  0  0
   14.4400   43.3120   20.0750 C   0  0  0  0  0  0
   14.2570   44.7780   20.0260 C   0  0  0  0  0  0
   15.8740   42.9250   19.9490 C   0  0  0  0  0  0
   12.5110   40.8540   20.6200 N   0  0  0  0  0  0
   12.2210   39.4110   20.3640 C   0  0  2  0  0  0
   13.0120   38.9300   19.2030 C   0  0  0  0  0  0
   13.1300   39.6420   18.2440 O   0  0  0  0  0  0
   10.7520   39.2080   20.0270 C   0  0  0  0  0  0
   13.5360   37.7040   19.2850 N   0  0  0  0  0  0
   14.2740   37.0880   18.1720 C   0  0  2  0  0  0
   13.3010   36.4070   17.2150 C   0  0  0  0  0  0
   12.0890   36.3390   17.4160 O   0  0  0  0  0  0
   15.2730   36.0940   18.6910 C   0  0  0  0  0  0
   13.6980   35.9160   16.1850 N   0  0  0  0  0  0
   18.0084   54.8759   35.0355 H   0  0  0  0  0  0
   17.5422   53.6723   33.7862 H   0  0  0  0  0  0
   17.0879   55.3985   33.5842 H   0  0  0  0  0  0
   20.0663   55.2351   31.3592 H   0  0  0  0  0  0
   17.3239   54.1492   31.8450 H   0  0  0  0  0  0
   17.9198   54.5287   28.7952 H   0  0  0  0  0  0
   16.4677   56.3278   32.2341 H   0  0  0  0  0  0
   16.0499   59.0923   29.0667 H   0  0  0  0  0  0
   16.5983   52.2077   31.6096 H   0  0  0  0  0  0
   18.5443   50.1961   30.3856 H   0  0  0  0  0  0
   16.0643   49.6592   32.1148 H   0  0  0  0  0  0
   17.6729   50.9633   33.4167 H   0  0  0  0  0  0
   17.7179   49.2524   33.9622 H   0  0  0  0  0  0
   16.7798   47.7641   30.7045 H   0  0  0  0  0  0
   17.0482   47.4420   32.4512 H   0  0  0  0  0  0
   18.4340   47.8796   31.3953 H   0  0  0  0  0  0
   19.9312   50.2126   33.8335 H   0  0  0  0  0  0
   19.6813   50.5952   32.0963 H   0  0  0  0  0  0
   19.7263   48.8843   32.6417 H   0  0  0  0  0  0
   18.0247   48.9767   28.6270 H   0  0  0  0  0  0
   15.3055   49.6879   27.4472 H   0  0  0  0  0  0
   17.9059   48.8315   26.1259 H   0  0  0  0  0  0
   16.3375   48.7906   25.2512 H   0  0  0  0  0  0
   18.7705   51.0075   26.9812 H   0  0  0  0  0  0
   15.4038   50.8014   24.3732 H   0  0  0  0  0  0
   19.0236   53.4162   26.4652 H   0  0  0  0  0  0
   15.5795   53.2318   23.9021 H   0  0  0  0  0  0
   14.0059   48.2066   26.4062 H   0  0  0  0  0  0
   14.1182   45.5649   27.7810 H   0  0  0  0  0  0
   12.2884   46.8051   25.6385 H   0  0  0  0  0  0
   11.9758   45.2235   26.4305 H   0  0  0  0  0  0
   14.0005   43.5422   26.8324 H   0  0  0  0  0  0
   16.0509   43.4025   24.6511 H   0  0  0  0  0  0
   15.9190   41.8080   26.6002 H   0  0  0  0  0  0
   14.3327   41.2276   25.9893 H   0  0  0  0  0  0
   15.4734   40.4706   23.9169 H   0  0  0  0  0  0
   17.0409   40.9287   24.6651 H   0  0  0  0  0  0
   15.6196   43.5301   22.4797 H   0  0  0  0  0  0
   12.8748   43.2494   21.5897 H   0  0  0  0  0  0
   13.9305   42.8968   19.1930 H   0  0  0  0  0  0
   13.1877   45.0174   20.1222 H   0  0  0  0  0  0
   14.6341   45.1627   19.0669 H   0  0  0  0  0  0
   14.8131   45.2447   20.8524 H   0  0  0  0  0  0
   15.9631   41.8294   19.9904 H   0  0  0  0  0  0
   16.4480   43.3710   20.7746 H   0  0  0  0  0  0
   16.2690   43.2890   18.9891 H   0  0  0  0  0  0
   11.7578   41.6179   20.3769 H   0  0  0  0  0  0
   12.5043   38.8568   21.2709 H   0  0  0  0  0  0
   10.1319   39.5542   20.8670 H   0  0  0  0  0  0
   10.5615   38.1398   19.8464 H   0  0  0  0  0  0
   10.5001   39.7832   19.1238 H   0  0  0  0  0  0
   13.3997   37.1522   20.2268 H   0  0  0  0  0  0
   14.8165   37.8949   17.6577 H   0  0  0  0  0  0
   15.9678   36.5977   19.3791 H   0  0  0  0  0  0
   15.8366   35.6666   17.8486 H   0  0  0  0  0  0
   14.7462   35.2897   19.2254 H   0  0  0  0  0  0
   14.7704   35.9411   15.9413 H   0  0  0  0  0  0
   12.9871   35.4439   15.4909 H   0  0  0  0  0  0
   17.3091   56.9367   28.0739 H   0  0  0  0  0  0
  1  2  2  0  0  0
  1  3  1  0  0  0
  1  4  1  0  0  0
  3 73  1  0  0  0
  3 74  1  0  0  0
  3 75  1  0  0  0
  4  5  1  0  0  0
  4 76  1  0  0  0
  5  6  1  0  0  0
  5  8  1  0  0  0
  5 77  1  0  0  0
  6  7  2  0  0  0
  6 14  1  0  0  0
  8  9  2  0  0  0
  8 78  1  0  0  0
  9 10  1  0  0  0
  9 11  1  0  0  0
 10 12  1  0  0  0
 10131  1  0  0  0
 11 13  2  0  0  0
 11 79  1  0  0  0
 12 13  1  0  0  0
 12 80  1  0  0  0
 14 15  1  0  0  0
 14 81  1  0  0  0
 15 16  1  0  0  0
 15 18  1  0  0  0
 15 82  1  0  0  0
 16 17  2  0  0  0
 16 22  1  0  0  0
 18 19  1  0  0  0
 18 20  1  0  0  0
 18 83  1  0  0  0
 19 21  1  0  0  0
 19 84  1  0  0  0
 19 85  1  0  0  0
 20 86  1  0  0  0
 20 87  1  0  0  0
 20 88  1  0  0  0
 21 89  1  0  0  0
 21 90  1  0  0  0
 21 91  1  0  0  0
 22 23  1  0  0  0
 22 92  1  0  0  0
 23 24  1  0  0  0
 23 26  1  0  0  0
 23 93  1  0  0  0
 24 25  2  0  0  0
 24 38  1  0  0  0
 26 27  1  0  0  0
 26 94  1  0  0  0
 26 95  1  0  0  0
 27 28  2  0  0  0
 27 29  1  0  0  0
 28 30  1  0  0  0
 28 96  1  0  0  0
 29 31  2  0  0  0
 29 97  1  0  0  0
 30 32  2  0  0  0
 30 98  1  0  0  0
 31 32  1  0  0  0
 31 99  1  0  0  0
 32 33  1  0  0  0
 33 34  1  0  0  0
 34 35  2  0  0  0
 34 36  1  0  0  0
 34 37  1  0  0  0
 38 39  1  0  0  0
 38100  1  0  0  0
 39 40  1  0  0  0
 39 42  1  0  0  0
 39101  1  0  0  0
 40 41  2  0  0  0
 40 46  1  0  0  0
 42 43  1  0  0  0
 42102  1  0  0  0
 42103  1  0  0  0
 43 44  2  0  0  0
 43 45  1  0  0  0
 46 47  1  0  0  0
 46104  1  0  0  0
 47 48  1  0  0  0
 47 50  1  0  0  0
 47105  1  0  0  0
 48 49  2  0  0  0
 48 55  1  0  0  0
 50 51  1  0  0  0
 50106  1  0  0  0
 50107  1  0  0  0
 51 52  1  0  0  0
 51108  1  0  0  0
 51109  1  0  0  0
 52 53  1  0  0  0
 52 54  2  0  0  0
 55 56  1  0  0  0
 55110  1  0  0  0
 56 57  1  0  0  0
 56 59  1  0  0  0
 56111  1  0  0  0
 57 58  2  0  0  0
 57 62  1  0  0  0
 59 60  1  0  0  0
 59 61  1  0  0  0
 59112  1  0  0  0
 60113  1  0  0  0
 60114  1  0  0  0
 60115  1  0  0  0
 61116  1  0  0  0
 61117  1  0  0  0
 61118  1  0  0  0
 62 63  1  0  0  0
 62119  1  0  0  0
 63 64  1  0  0  0
 63 66  1  0  0  0
 63120  1  0  0  0
 64 65  2  0  0  0
 64 67  1  0  0  0
 66121  1  0  0  0
 66122  1  0  0  0
 66123  1  0  0  0
 67 68  1  0  0  0
 67124  1  0  0  0
 68 69  1  0  0  0
 68 71  1  0  0  0
 68125  1  0  0  0
 69 70  2  0  0  0
 69 72  1  0  0  0
 71126  1  0  0  0
 71127  1  0  0  0
 71128  1  0  0  0
 72129  1  0  0  0
 72130  1  0  0  0
M  CHG  4  36  -1  37  -1  45  -1  53  -1
M  END
> <s_m_source_file>
../2cia_ligand.sdf

> <i_m_source_file_index>
1

> <s_epik_input>
W0NIXTE9TltDSDJdTj1DMVtDSDJdW0NASF0oW05IXUMoPU8pW0NIM10pQyg9TylbTkhdW0NAQEhdKFtDQEBIXShbQ0gzXSlbQ0gyXVtDSDNdKUMoPU8pW05IXVtDQEBIXShbQ0gyXWMyW2NIXVtjSF1jKFtjSF1bY0hdMilPUCg9TykoW09IXSlbT0hdKUMoPU8pW05IXVtDQEBIXShbQ0gyXUMoPU8pW09IXSlDKD1PKVtOSF1bQ0BASF0oW0NIMl1bQ0gyXUMoPU8pW09IXSlDKD1PKVtOSF1bQ0BASF0oW0NIXShbQ0gzXSlbQ0gzXSlDKD1PKVtOSF1bQ0BASF0oW0NIM10pQyg9TylbTkhdW0NAQEhdKFtDSDNdKUMoPU8pW05IMl0=

> <s_epik_cmdline>
J2VwaWtfYXBwJywgJy1pbWFlJywgJ2xpZ2FuZF9wcm8ubWFlJywgJy1vbWFlJywgJ2xpZ2FuZF9wcmVwLm1hZScsICctbXMnLCAnMScsICctcGgnLCAnNycsICctcGh0JywgJzAuNScsICctbnQn

> <r_epik_Ionization_Penalty>
  0.0873

> <r_epik_Ionization_Penalty_Charging>
  0.0873

> <r_epik_Ionization_Penalty_Neutral>
  0.0000

> <r_epik_State_Penalty>
  0.0749

> <r_epik_Charging_Adjusted_Penalty>
0.162134111035871

> <i_epik_Tot_Q>
-4

> <i_epik_Tot_abs_Q>
4

> <s_epik_Chemistry_Notes>
This compound has an imine and may undergo hydrolysis.

$$$$
