2cji_ligand
                    3D
 Schrodinger Suite 2020-3.
 55 58  0  0  1  0            999 V2000
   13.8980    7.2560   26.6060 Cl  0  0  0  0  0  0
   12.2280    7.4970   26.1660 C   0  0  0  0  0  0
   11.1920    7.0870   27.0520 C   0  0  0  0  0  0
    9.8150    7.2600   26.7010 C   0  0  0  0  0  0
    9.5110    7.8730   25.4700 C   0  0  0  0  0  0
    8.1600    8.0730   25.1010 C   0  0  0  0  0  0
   10.5710    8.3160   24.5510 C   0  0  0  0  0  0
   11.9260    8.1130   24.9280 C   0  0  0  0  0  0
   10.2500    8.9110   23.2990 C   0  0  0  0  0  0
    8.8830    9.0720   22.9520 C   0  0  0  0  0  0
    7.8540    8.6690   23.8560 C   0  0  0  0  0  0
    6.1200    8.8440   23.4240 S   0  0  0  0  0  0
    5.8710   10.1120   22.7990 O   0  0  0  0  0  0
    5.3500    8.4400   24.5680 O   0  0  0  0  0  0
    5.8990    7.8290   22.1850 N   0  0  3  0  0  0
    6.0230    6.3610   22.2380 C   0  0  1  0  0  0
    4.7150    5.6680   21.8630 C   0  0  0  0  0  0
    5.1110    4.3350   21.2130 C   0  0  0  0  0  0
    7.0530    5.6740   21.3390 C   0  0  0  0  0  0
    8.1930    6.0680   21.1110 O   0  0  0  0  0  0
    6.5120    4.5220   20.8550 N   0  0  0  0  0  0
    7.3160    3.5150   20.1230 C   0  0  1  0  0  0
    7.0920    2.0900   20.6760 C   0  0  0  0  0  0
    7.1730    3.5580   18.6090 C   0  0  0  0  0  0
    6.1410    3.9890   18.1180 O   0  0  0  0  0  0
    8.2350    3.1650   17.8510 N   0  0  0  0  0  0
    9.6120    3.0050   18.3380 C   0  0  0  0  0  0
   10.1330    1.6310   17.9500 C   0  0  0  0  0  0
   10.1950    1.6410   16.5400 O   0  0  0  0  0  0
    8.9200    1.7770   15.8930 C   0  0  0  0  0  0
    8.0480    2.9290   16.4170 C   0  0  0  0  0  0
   11.4505    6.6356   28.0099 H   0  0  0  0  0  0
    9.0217    6.9257   27.3696 H   0  0  0  0  0  0
    7.3582    7.7688   25.7738 H   0  0  0  0  0  0
   12.7309    8.4309   24.2653 H   0  0  0  0  0  0
   11.0380    9.2367   22.6199 H   0  0  0  0  0  0
    8.6170    9.5065   21.9884 H   0  0  0  0  0  0
    5.7978    8.3377   21.2150 H   0  0  0  0  0  0
    6.3413    6.2913   23.2886 H   0  0  0  0  0  0
    4.1139    5.5041   22.7695 H   0  0  0  0  0  0
    4.1533    6.3007   21.1600 H   0  0  0  0  0  0
    4.9730    3.5186   21.9372 H   0  0  0  0  0  0
    4.4779    4.1543   20.3318 H   0  0  0  0  0  0
    8.3459    3.8448   20.3244 H   0  0  0  0  0  0
    7.2033    2.0997   21.7703 H   0  0  0  0  0  0
    7.8337    1.4059   20.2380 H   0  0  0  0  0  0
    6.0794    1.7498   20.4134 H   0  0  0  0  0  0
   10.2519    3.7789   17.8891 H   0  0  0  0  0  0
    9.6277    3.1062   19.4332 H   0  0  0  0  0  0
   11.1263    1.4760   18.3965 H   0  0  0  0  0  0
    9.4411    0.8591   18.3180 H   0  0  0  0  0  0
    9.0715    1.9588   14.8188 H   0  0  0  0  0  0
    8.3388    0.8532   16.0301 H   0  0  0  0  0  0
    6.9960    2.6741   16.2215 H   0  0  0  0  0  0
    8.3150    3.8379   15.8579 H   0  0  0  0  0  0
  1  2  1  0  0  0
  2  3  2  0  0  0
  2  8  1  0  0  0
  3  4  1  0  0  0
  3 32  1  0  0  0
  4  5  2  0  0  0
  4 33  1  0  0  0
  5  6  1  0  0  0
  5  7  1  0  0  0
  6 11  2  0  0  0
  6 34  1  0  0  0
  7  8  2  0  0  0
  7  9  1  0  0  0
  8 35  1  0  0  0
  9 10  2  0  0  0
  9 36  1  0  0  0
 10 11  1  0  0  0
 10 37  1  0  0  0
 11 12  1  0  0  0
 12 13  2  0  0  0
 12 14  2  0  0  0
 12 15  1  0  0  0
 15 16  1  0  0  0
 15 38  1  0  0  0
 16 17  1  0  0  0
 16 19  1  0  0  0
 16 39  1  0  0  0
 17 18  1  0  0  0
 17 40  1  0  0  0
 17 41  1  0  0  0
 18 21  1  0  0  0
 18 42  1  0  0  0
 18 43  1  0  0  0
 19 20  2  0  0  0
 19 21  1  0  0  0
 21 22  1  0  0  0
 22 23  1  0  0  0
 22 24  1  0  0  0
 22 44  1  0  0  0
 23 45  1  0  0  0
 23 46  1  0  0  0
 23 47  1  0  0  0
 24 25  2  0  0  0
 24 26  1  0  0  0
 26 27  1  0  0  0
 26 31  1  0  0  0
 27 28  1  0  0  0
 27 48  1  0  0  0
 27 49  1  0  0  0
 28 29  1  0  0  0
 28 50  1  0  0  0
 28 51  1  0  0  0
 29 30  1  0  0  0
 30 31  1  0  0  0
 30 52  1  0  0  0
 30 53  1  0  0  0
 31 54  1  0  0  0
 31 55  1  0  0  0
M  END
> <s_m_source_file>
../2cji_ligand.sdf

> <i_m_source_file_index>
1

> <s_epik_input>
W2NIXTFbY0hdYyhDbClbY0hdYyhjMTIpW2NIXVtjSF1jKFtjSF0yKVMoPU8pKD1PKVtOSF1bQ0BIXTNbQ0gyXVtDSDJdTihDMz1PKVtDQEBIXShbQ0gzXSlDKD1PKU40W0NIMl1bQ0gyXU9bQ0gyXVtDSDJdNA==

> <s_epik_cmdline>
J2VwaWtfYXBwJywgJy1pbWFlJywgJ2xpZ2FuZF9wcm8ubWFlJywgJy1vbWFlJywgJ2xpZ2FuZF9wcmVwLm1hZScsICctbXMnLCAnMScsICctcGgnLCAnNycsICctcGh0JywgJzAuNScsICctbnQn

> <r_lp_tautomer_probability>
1

> <r_epik_Ionization_Penalty>
  0.0021

> <r_epik_Ionization_Penalty_Charging>
  0.0000

> <r_epik_Ionization_Penalty_Neutral>
  0.0021

> <r_epik_State_Penalty>
 -0.0000

> <r_epik_Charging_Adjusted_Penalty>
0

> <i_epik_Tot_Q>
0

> <i_epik_Tot_abs_Q>
0

$$$$
