2ckm_ligand
                    3D
 Schrodinger Suite 2020-3.
 79 84  0  0  1  0            999 V2000
   -4.1200   59.7430   73.3690 C   0  0  0  0  0  0
   -2.7560   60.1980   73.3810 C   0  0  0  0  0  0
   -2.0160   60.1710   74.6800 C   0  0  0  0  0  0
   -2.6690   59.3340   75.7820 C   0  0  0  0  0  0
   -4.1650   59.6980   75.8760 C   0  0  0  0  0  0
   -4.8510   59.2810   74.6030 C   0  0  0  0  0  0
   -4.8150   59.6920   72.1800 N   0  3  0  0  0  0
   -4.3260   60.0380   70.9490 C   0  0  0  0  0  0
   -2.9400   60.5460   70.8440 C   0  0  0  0  0  0
   -2.1180   60.6640   72.1480 C   0  0  0  0  0  0
   -0.7920   61.2130   72.1250 N   0  0  0  0  0  0
   -2.5320   60.8500   69.4760 C   0  0  0  0  0  0
   -3.4010   60.6870   68.3810 C   0  0  0  0  0  0
   -4.7570   60.2030   68.5380 C   0  0  0  0  0  0
   -5.2120   59.8800   69.8290 C   0  0  0  0  0  0
    1.5520   67.3390   66.8250 C   0  0  0  0  0  0
    0.7870   67.3480   68.1480 C   0  0  0  0  0  0
    1.3070   66.3420   69.1670 C   0  0  0  0  0  0
    0.1980   65.5890   69.9180 C   0  0  0  0  0  0
    0.6590   64.1730   70.2500 C   0  0  0  0  0  0
   -0.3570   63.4150   71.0780 C   0  0  0  0  0  0
    0.0100   61.9360   71.1170 C   0  0  0  0  0  0
    5.0670   68.8090   64.0340 C   0  0  0  0  0  0
    3.7450   68.4860   64.5130 C   0  0  0  0  0  0
    2.7670   67.8580   63.4940 C   0  0  0  0  0  0
    3.4100   67.2720   62.2050 C   0  0  0  0  0  0
    4.3340   68.3110   61.5880 C   0  0  0  0  0  0
    5.5110   68.5970   62.5720 C   0  0  0  0  0  0
    5.9820   69.3210   64.9250 N   0  3  0  0  0  0
    5.7480   69.5490   66.2690 C   0  0  0  0  0  0
    4.4520   69.2550   66.8080 C   0  0  0  0  0  0
    3.4190   68.7400   65.9170 C   0  0  0  0  0  0
    2.2320   68.6350   66.5770 N   0  0  0  0  0  0
    4.2800   69.5260   68.2230 C   0  0  0  0  0  0
    5.3150   70.0550   68.9930 C   0  0  0  0  0  0
    6.5820   70.3360   68.4020 C   0  0  0  0  0  0
    6.7910   70.0790   67.0490 C   0  0  0  0  0  0
   -1.0114   59.7520   74.5211 H   0  0  0  0  0  0
   -1.9283   61.1945   75.0734 H   0  0  0  0  0  0
   -2.5633   58.2657   75.5423 H   0  0  0  0  0  0
   -2.1767   59.5446   76.7429 H   0  0  0  0  0  0
   -4.6171   59.1730   76.7304 H   0  0  0  0  0  0
   -4.2701   60.7840   76.0157 H   0  0  0  0  0  0
   -5.8642   59.7093   74.6109 H   0  0  0  0  0  0
   -4.9171   58.1830   74.6005 H   0  0  0  0  0  0
   -0.3653   60.9971   73.1156 H   0  0  0  0  0  0
   -1.5209   61.2153   69.2965 H   0  0  0  0  0  0
   -3.0416   60.9331   67.3818 H   0  0  0  0  0  0
   -5.4114   60.0914   67.6735 H   0  0  0  0  0  0
   -6.2275   59.5132   69.9785 H   0  0  0  0  0  0
    2.3142   66.5462   66.8476 H   0  0  0  0  0  0
    0.8518   67.1509   65.9978 H   0  0  0  0  0  0
    0.8604   68.3449   68.6072 H   0  0  0  0  0  0
   -0.2700   67.1070   67.9620 H   0  0  0  0  0  0
    1.9245   65.5885   68.6562 H   0  0  0  0  0  0
    1.9146   66.8642   69.9207 H   0  0  0  0  0  0
   -0.0384   66.1202   70.8518 H   0  0  0  0  0  0
   -0.7020   65.5375   69.2876 H   0  0  0  0  0  0
    0.8235   63.6129   69.3177 H   0  0  0  0  0  0
    1.5979   64.2175   70.8214 H   0  0  0  0  0  0
   -0.3666   63.8148   72.1027 H   0  0  0  0  0  0
   -1.3549   63.5307   70.6300 H   0  0  0  0  0  0
    1.0779   61.8459   71.3648 H   0  0  0  0  0  0
   -0.1735   61.5026   70.1228 H   0  0  0  0  0  0
    2.2250   67.0275   63.9699 H   0  0  0  0  0  0
    2.0484   68.6200   63.1578 H   0  0  0  0  0  0
    3.9870   66.3709   62.4601 H   0  0  0  0  0  0
    2.6188   67.0098   61.4872 H   0  0  0  0  0  0
    4.7320   67.9288   60.6364 H   0  0  0  0  0  0
    3.7719   69.2385   61.4041 H   0  0  0  0  0  0
    6.0251   69.4997   62.2104 H   0  0  0  0  0  0
    6.1962   67.7382   62.5177 H   0  0  0  0  0  0
    1.7775   69.5715   66.9325 H   0  0  0  0  0  0
    3.3209   69.3114   68.6942 H   0  0  0  0  0  0
    5.1548   70.2549   70.0525 H   0  0  0  0  0  0
    7.3865   70.7517   69.0087 H   0  0  0  0  0  0
    7.7602   70.2881   66.5962 H   0  0  0  0  0  0
   -5.8601   59.3489   72.1681 H   0  0  0  0  0  0
    6.9940   69.5843   64.5837 H   0  0  0  0  0  0
  1  2  2  0  0  0
  1  6  1  0  0  0
  1  7  1  0  0  0
  2  3  1  0  0  0
  2 10  1  0  0  0
  3  4  1  0  0  0
  3 38  1  0  0  0
  3 39  1  0  0  0
  4  5  1  0  0  0
  4 40  1  0  0  0
  4 41  1  0  0  0
  5  6  1  0  0  0
  5 42  1  0  0  0
  5 43  1  0  0  0
  6 44  1  0  0  0
  6 45  1  0  0  0
  7  8  2  0  0  0
  7 78  1  0  0  0
  8  9  1  0  0  0
  8 15  1  0  0  0
  9 10  2  0  0  0
  9 12  1  0  0  0
 10 11  1  0  0  0
 11 22  1  0  0  0
 11 46  1  0  0  0
 12 13  2  0  0  0
 12 47  1  0  0  0
 13 14  1  0  0  0
 13 48  1  0  0  0
 14 15  2  0  0  0
 14 49  1  0  0  0
 15 50  1  0  0  0
 16 17  1  0  0  0
 16 33  1  0  0  0
 16 51  1  0  0  0
 16 52  1  0  0  0
 17 18  1  0  0  0
 17 53  1  0  0  0
 17 54  1  0  0  0
 18 19  1  0  0  0
 18 55  1  0  0  0
 18 56  1  0  0  0
 19 20  1  0  0  0
 19 57  1  0  0  0
 19 58  1  0  0  0
 20 21  1  0  0  0
 20 59  1  0  0  0
 20 60  1  0  0  0
 21 22  1  0  0  0
 21 61  1  0  0  0
 21 62  1  0  0  0
 22 63  1  0  0  0
 22 64  1  0  0  0
 23 24  2  0  0  0
 23 28  1  0  0  0
 23 29  1  0  0  0
 24 25  1  0  0  0
 24 32  1  0  0  0
 25 26  1  0  0  0
 25 65  1  0  0  0
 25 66  1  0  0  0
 26 27  1  0  0  0
 26 67  1  0  0  0
 26 68  1  0  0  0
 27 28  1  0  0  0
 27 69  1  0  0  0
 27 70  1  0  0  0
 28 71  1  0  0  0
 28 72  1  0  0  0
 29 30  2  0  0  0
 29 79  1  0  0  0
 30 31  1  0  0  0
 30 37  1  0  0  0
 31 32  2  0  0  0
 31 34  1  0  0  0
 32 33  1  0  0  0
 33 73  1  0  0  0
 34 35  2  0  0  0
 34 74  1  0  0  0
 35 36  1  0  0  0
 35 75  1  0  0  0
 36 37  2  0  0  0
 36 76  1  0  0  0
 37 77  1  0  0  0
M  CHG  2   7   1  29   1
M  END
> <s_m_source_file>
../2ckm_ligand.sdf

> <i_m_source_file_index>
1

> <s_epik_input>
W2NIXTFbY0hdW2NIXVtjSF1jKG4yKWMxYyhjKGMyMylbQ0gyXVtDSDJdW0NIMl1bQ0gyXTMpW05IXVtDSDJdW0NIMl1bQ0gyXVtDSDJdW0NIMl1bQ0gyXVtDSDJdW05IXWMoYyhjNDUpW0NIMl1bQ0gyXVtDSDJdW0NIMl00KWM2YyhuNSlbY0hdW2NIXVtjSF1bY0hdNg==

> <s_epik_cmdline>
J2VwaWtfYXBwJywgJy1pbWFlJywgJ2xpZ2FuZF9wcm8ubWFlJywgJy1vbWFlJywgJ2xpZ2FuZF9wcmVwLm1hZScsICctbXMnLCAnMScsICctcGgnLCAnNycsICctcGh0JywgJzAuNScsICctbnQn

> <r_lp_tautomer_probability>
1

> <r_epik_Ionization_Penalty>
  0.0007

> <r_epik_Ionization_Penalty_Charging>
  0.0007

> <r_epik_Ionization_Penalty_Neutral>
  0.0000

> <r_epik_State_Penalty>
 -0.0000

> <r_epik_Charging_Adjusted_Penalty>
0.000653226217964318

> <i_epik_Tot_Q>
2

> <i_epik_Tot_abs_Q>
2

$$$$
