2cli_ligand
                    3D
 Schrodinger Suite 2020-3.
 31 31  0  0  1  0            999 V2000
   50.8670   23.3970   15.0090 C   0  0  0  0  0  0
   49.6770   23.3090   15.8670 C   0  0  0  0  0  0
   48.9080   24.5840   15.9470 C   0  0  0  0  0  0
   49.2410   25.7730   15.3120 C   0  0  0  0  0  0
   50.4920   25.7890   14.4320 C   0  0  0  0  0  0
   51.2740   24.6020   14.3160 C   0  0  0  0  0  0
   51.7890   22.3450   14.7630 O   0  0  0  0  0  0
   51.3560   20.9420   14.5680 C   0  0  0  0  0  0
   52.3740   20.2670   14.0460 F   0  0  0  0  0  0
   50.3800   20.8300   13.6300 F   0  0  0  0  0  0
   50.9450   20.3080   15.6980 F   0  0  0  0  0  0
   48.1940   27.2170   15.5520 S   0  0  0  0  0  0
   48.7980   28.5920   14.7060 N   0  0  3  0  0  0
   48.9810   28.4750   13.2410 C   0  0  0  0  0  0
   47.8140   28.9640   12.5750 C   0  0  0  0  0  0
   47.7940   28.4390   11.2590 O   0  0  0  0  0  0
   48.0480   29.4660   10.0210 P   0  0  0  0  0  0
   49.2120   30.3470   10.3130 O   0  5  0  0  0  0
   48.2890   28.6460    8.8260 O   0  0  0  0  0  0
   46.8070   30.2620    9.8870 O   0  5  0  0  0  0
   48.0870   27.4380   17.0120 O   0  0  0  0  0  0
   46.8790   26.9040   14.9320 O   0  0  0  0  0  0
   49.3851   22.4003   16.3935 H   0  0  0  0  0  0
   48.0051   24.5825   16.5576 H   0  0  0  0  0  0
   50.7819   26.6955   13.9007 H   0  0  0  0  0  0
   52.1774   24.6016   13.7062 H   0  0  0  0  0  0
   49.1953   29.4667   15.2418 H   0  0  0  0  0  0
   49.8550   29.0673   12.9322 H   0  0  0  0  0  0
   49.1405   27.4198   12.9745 H   0  0  0  0  0  0
   46.9166   28.6397   13.1222 H   0  0  0  0  0  0
   47.8450   30.0630   12.5403 H   0  0  0  0  0  0
  1  2  2  0  0  0
  1  6  1  0  0  0
  1  7  1  0  0  0
  2  3  1  0  0  0
  2 23  1  0  0  0
  3  4  2  0  0  0
  3 24  1  0  0  0
  4  5  1  0  0  0
  4 12  1  0  0  0
  5  6  2  0  0  0
  5 25  1  0  0  0
  6 26  1  0  0  0
  7  8  1  0  0  0
  8  9  1  0  0  0
  8 10  1  0  0  0
  8 11  1  0  0  0
 12 13  1  0  0  0
 12 21  2  0  0  0
 12 22  2  0  0  0
 13 14  1  0  0  0
 13 27  1  0  0  0
 14 15  1  0  0  0
 14 28  1  0  0  0
 14 29  1  0  0  0
 15 16  1  0  0  0
 15 30  1  0  0  0
 15 31  1  0  0  0
 16 17  1  0  0  0
 17 18  1  0  0  0
 17 19  2  0  0  0
 17 20  1  0  0  0
M  CHG  2  18  -1  20  -1
M  END
> <s_m_source_file>
../2cli_ligand.sdf

> <i_m_source_file_index>
1

> <s_epik_input>
RkMoRikoRilPYzFbY0hdW2NIXWMoW2NIXVtjSF0xKVMoPU8pKD1PKVtOSF1bQ0gyXVtDSDJdT1AoPU8pKFtPSF0pW09IXQ==

> <s_epik_cmdline>
J2VwaWtfYXBwJywgJy1pbWFlJywgJ2xpZ2FuZF9wcm8ubWFlJywgJy1vbWFlJywgJ2xpZ2FuZF9wcmVwLm1hZScsICctbXMnLCAnMScsICctcGgnLCAnNycsICctcGh0JywgJzAuNScsICctbnQn

> <r_lp_tautomer_probability>
1

> <r_epik_Ionization_Penalty>
  0.1131

> <r_epik_Ionization_Penalty_Charging>
  0.1129

> <r_epik_Ionization_Penalty_Neutral>
  0.0001

> <r_epik_State_Penalty>
  0.1026

> <r_epik_Charging_Adjusted_Penalty>
0.215572679615818

> <i_epik_Tot_Q>
-2

> <i_epik_Tot_abs_Q>
2

$$$$
