2clk_ligand
                    3D
 Schrodinger Suite 2020-3.
 15 14  0  0  1  0            999 V2000
   46.9860   27.2870   15.2650 O   0  0  0  0  0  0
   47.9020   28.1380   14.8630 C   0  0  0  0  0  0
   48.3840   28.1090   13.4640 C   0  0  2  0  0  0
   49.1880   29.3230   13.4700 O   0  0  0  0  0  0
   47.2500   28.2580   12.4260 C   0  0  0  0  0  0
   47.7060   28.0570   11.0750 O   0  0  0  0  0  0
   46.7000   30.1770   10.1680 O   0  5  0  0  0  0
   48.3290   28.6780    8.8370 O   0  5  0  0  0  0
   49.1550   30.1180   10.7850 O   0  0  0  0  0  0
   47.9900   29.3520   10.1650 P   0  0  0  0  0  0
   48.3139   28.8760   15.5670 H   0  0  0  0  0  0
   48.9244   27.1826   13.2197 H   0  0  0  0  0  0
   50.0495   29.4088   14.1485 H   0  0  0  0  0  0
   46.4650   27.5153   12.6314 H   0  0  0  0  0  0
   46.8236   29.2699   12.4915 H   0  0  0  0  0  0
  1  2  2  0  0  0
  2  3  1  0  0  0
  2 11  1  0  0  0
  3  4  1  0  0  0
  3  5  1  0  0  0
  3 12  1  0  0  0
  4 13  1  0  0  0
  5  6  1  0  0  0
  5 14  1  0  0  0
  5 15  1  0  0  0
  6 10  1  0  0  0
  7 10  1  0  0  0
  8 10  1  0  0  0
  9 10  2  0  0  0
M  CHG  2   7  -1   8  -1
M  END
> <s_m_source_file>
../2clk_ligand.sdf

> <i_m_source_file_index>
1

> <s_epik_input>
Tz1bQ0hdW0NASF0oW09IXSlbQ0gyXU9QKD1PKShbT0hdKVtPSF0=

> <s_epik_cmdline>
J2VwaWtfYXBwJywgJy1pbWFlJywgJ2xpZ2FuZF9wcm8ubWFlJywgJy1vbWFlJywgJ2xpZ2FuZF9wcmVwLm1hZScsICctbXMnLCAnMScsICctcGgnLCAnNycsICctcGh0JywgJzAuNScsICctbnQn

> <r_epik_Ionization_Penalty>
  0.0923

> <r_epik_Ionization_Penalty_Charging>
  0.0920

> <r_epik_Ionization_Penalty_Neutral>
  0.0002

> <r_epik_State_Penalty>
  0.0823

> <r_epik_Charging_Adjusted_Penalty>
0.174336950691561

> <i_epik_Tot_Q>
-2

> <i_epik_Tot_abs_Q>
2

$$$$
