2clm_ligand
                    3D
 Schrodinger Suite 2020-3.
 30 30  0  0  1  0            999 V2000
   51.3270   23.5870   15.1550 C   0  0  0  0  0  0
   49.9030   23.5790   15.3870 C   0  0  0  0  0  0
   49.1390   24.7910   15.2600 C   0  0  0  0  0  0
   49.7880   26.0320   14.8960 C   0  0  0  0  0  0
   51.2210   26.0450   14.6630 C   0  0  0  0  0  0
   51.9880   24.8250   14.7910 C   0  0  0  0  0  0
   52.1270   22.4740   15.2610 O   0  0  0  0  0  0
   52.1730   21.6710   14.0860 C   0  0  0  0  0  0
   50.9710   21.2260   13.7530 F   0  0  0  0  0  0
   52.9510   20.6170   14.2800 F   0  0  0  0  0  0
   52.6500   22.3460   13.0490 F   0  0  0  0  0  0
   48.9480   27.3140   14.7720 C   0  0  0  0  0  0
   49.3210   27.6400   13.5000 N   0  0  0  0  0  0
   47.7400   27.2130   14.9930 O   0  0  0  0  0  0
   49.3840   29.0460   13.0870 C   0  0  0  0  0  0
   49.8190   29.1250   11.6330 C   0  0  0  0  0  0
   49.0580   30.0500   10.9720 O   0  0  0  0  0  0
   47.8510   29.3390   10.1260 P   0  0  0  0  0  0
   46.7620   30.3580    9.8740 O   0  5  0  0  0  0
   47.3100   28.2380   11.0120 O   0  5  0  0  0  0
   48.5210   29.0100    8.8110 O   0  0  0  0  0  0
   49.4035   22.6495   15.6600 H   0  0  0  0  0  0
   48.0639   24.7745   15.4392 H   0  0  0  0  0  0
   51.7197   26.9753   14.3912 H   0  0  0  0  0  0
   53.0634   24.8366   14.6137 H   0  0  0  0  0  0
   49.5747   26.8445   12.7839 H   0  0  0  0  0  0
   48.3911   29.5059   13.1992 H   0  0  0  0  0  0
   50.1094   29.5812   13.7174 H   0  0  0  0  0  0
   50.8772   29.4211   11.5825 H   0  0  0  0  0  0
   49.6904   28.1413   11.1578 H   0  0  0  0  0  0
  1  2  2  0  0  0
  1  6  1  0  0  0
  1  7  1  0  0  0
  2  3  1  0  0  0
  2 22  1  0  0  0
  3  4  2  0  0  0
  3 23  1  0  0  0
  4  5  1  0  0  0
  4 12  1  0  0  0
  5  6  2  0  0  0
  5 24  1  0  0  0
  6 25  1  0  0  0
  7  8  1  0  0  0
  8  9  1  0  0  0
  8 10  1  0  0  0
  8 11  1  0  0  0
 12 13  1  0  0  0
 12 14  2  0  0  0
 13 15  1  0  0  0
 13 26  1  0  0  0
 15 16  1  0  0  0
 15 27  1  0  0  0
 15 28  1  0  0  0
 16 17  1  0  0  0
 16 29  1  0  0  0
 16 30  1  0  0  0
 17 18  1  0  0  0
 18 19  1  0  0  0
 18 20  1  0  0  0
 18 21  2  0  0  0
M  CHG  2  19  -1  20  -1
M  END
> <s_m_source_file>
../2clm_ligand.sdf

> <i_m_source_file_index>
1

> <s_epik_input>
RkMoRikoRilPYzFbY0hdW2NIXWMoW2NIXVtjSF0xKUMoPU8pW05IXVtDSDJdW0NIMl1PUCg9TykoW09IXSlbT0hd

> <s_epik_cmdline>
J2VwaWtfYXBwJywgJy1pbWFlJywgJ2xpZ2FuZF9wcm8ubWFlJywgJy1vbWFlJywgJ2xpZ2FuZF9wcmVwLm1hZScsICctbXMnLCAnMScsICctcGgnLCAnNycsICctcGh0JywgJzAuNScsICctbnQn

> <r_lp_tautomer_probability>
1

> <r_epik_Ionization_Penalty>
  0.1326

> <r_epik_Ionization_Penalty_Charging>
  0.1326

> <r_epik_Ionization_Penalty_Neutral>
  0.0000

> <r_epik_State_Penalty>
  0.1220

> <r_epik_Charging_Adjusted_Penalty>
0.254523071793324

> <i_epik_Tot_Q>
-2

> <i_epik_Tot_abs_Q>
2

$$$$
