2clo_ligand
                    3D
 Schrodinger Suite 2020-3.
 33 34  0  0  1  0            999 V2000
   51.8040   24.8290   14.9930 C   0  0  0  0  0  0
   50.9820   25.8810   15.4060 C   0  0  0  0  0  0
   49.5570   25.6950   15.6140 C   0  0  0  0  0  0
   49.0650   24.3780   15.6290 C   0  0  0  0  0  0
   49.8620   23.2710   15.1660 C   0  0  0  0  0  0
   51.2900   23.4790   14.9390 C   0  0  0  0  0  0
   52.1590   22.3520   14.6760 C   0  0  0  0  0  0
   51.3630   21.0430   14.3010 C   0  0  0  0  0  0
   50.0890   20.7640   14.8830 C   0  0  0  0  0  0
   49.2780   21.9740   14.9090 C   0  0  0  0  0  0
   48.4710   27.1280   15.8450 S   0  0  0  0  0  0
   47.1070   26.6160   15.8310 O   0  0  0  0  0  0
   48.8360   27.7440   17.1040 O   0  0  0  0  0  0
   47.8530   28.5610   12.3680 C   0  0  0  0  0  0
   48.1510   28.2100   11.0300 O   0  0  0  0  0  0
   48.8440   27.8480   13.2690 C   0  0  0  0  0  0
   48.6980   28.3070   14.6480 N   0  0  3  0  0  0
   49.5860   30.1620   10.4770 O   0  5  0  0  0  0
   48.7570   28.7080    8.7170 O   0  5  0  0  0  0
   48.4010   29.3880    9.9410 P   0  0  0  0  0  0
   47.4070   30.3470    9.6480 O   0  0  0  0  0  0
   52.8378   25.0274   14.7102 H   0  0  0  0  0  0
   51.4208   26.8642   15.5760 H   0  0  0  0  0  0
   48.0572   24.1903   15.9995 H   0  0  0  0  0  0
   53.2464   22.4024   14.7311 H   0  0  0  0  0  0
   51.7919   20.3404   13.5865 H   0  0  0  0  0  0
   49.7704   19.7895   15.2531 H   0  0  0  0  0  0
   48.2053   21.8995   14.7304 H   0  0  0  0  0  0
   47.9430   29.6505   12.4900 H   0  0  0  0  0  0
   46.8262   28.2487   12.6090 H   0  0  0  0  0  0
   48.6606   26.7641   13.2304 H   0  0  0  0  0  0
   49.8680   28.0590   12.9272 H   0  0  0  0  0  0
   48.8996   29.3581   14.9021 H   0  0  0  0  0  0
  1  2  2  0  0  0
  1  6  1  0  0  0
  1 22  1  0  0  0
  2  3  1  0  0  0
  2 23  1  0  0  0
  3  4  2  0  0  0
  3 11  1  0  0  0
  4  5  1  0  0  0
  4 24  1  0  0  0
  5  6  2  0  0  0
  5 10  1  0  0  0
  6  7  1  0  0  0
  7  8  2  0  0  0
  7 25  1  0  0  0
  8  9  1  0  0  0
  8 26  1  0  0  0
  9 10  2  0  0  0
  9 27  1  0  0  0
 10 28  1  0  0  0
 11 12  2  0  0  0
 11 13  2  0  0  0
 11 17  1  0  0  0
 14 15  1  0  0  0
 14 16  1  0  0  0
 14 29  1  0  0  0
 14 30  1  0  0  0
 15 20  1  0  0  0
 16 17  1  0  0  0
 16 31  1  0  0  0
 16 32  1  0  0  0
 17 33  1  0  0  0
 18 20  1  0  0  0
 19 20  1  0  0  0
 20 21  2  0  0  0
M  CHG  2  18  -1  19  -1
M  END
> <s_m_source_file>
../2clo_ligand.sdf

> <i_m_source_file_index>
1

> <s_epik_input>
W2NIXTFbY0hdW2NIXVtjSF1jKGMxMilbY0hdW2NIXWMoW2NIXTIpUyg9TykoPU8pW05IXVtDSDJdW0NIMl1PUCg9TykoW09IXSlbT0hd

> <s_epik_cmdline>
J2VwaWtfYXBwJywgJy1pbWFlJywgJ2xpZ2FuZF9wcm8ubWFlJywgJy1vbWFlJywgJ2xpZ2FuZF9wcmVwLm1hZScsICctbXMnLCAnMScsICctcGgnLCAnNycsICctcGh0JywgJzAuNScsICctbnQn

> <r_epik_Ionization_Penalty>
  0.1123

> <r_epik_Ionization_Penalty_Charging>
  0.1123

> <r_epik_Ionization_Penalty_Neutral>
  0.0000

> <r_epik_State_Penalty>
  0.1020

> <r_epik_Charging_Adjusted_Penalty>
0.214226434376483

> <i_epik_Tot_Q>
-2

> <i_epik_Tot_abs_Q>
2

$$$$
