2clx_ligand
                    3D
 Schrodinger Suite 2020-3.
 26 27  0  0  1  0            999 V2000
   23.7680   30.7400   10.4770 C   0  0  0  0  0  0
   24.5630   31.3440    9.5070 C   0  0  0  0  0  0
   25.6130   30.6820    8.8890 C   0  0  0  0  0  0
   22.7460   31.4000   11.0880 O   0  0  0  0  0  0
   25.8460   29.3760    9.3070 C   0  0  0  0  0  0
   25.0650   28.7730   10.2850 C   0  0  0  0  0  0
   24.0150   29.4400   10.8800 C   0  0  0  0  0  0
   26.7560   28.5340    8.8590 N   0  0  0  0  0  0
   27.6960   28.6120    8.0750 N   0  0  0  0  0  0
   28.2820   29.5600    7.3460 C   0  0  0  0  0  0
   28.1350   30.9030    6.9920 C   0  0  0  0  0  0
   27.2620   31.8370    7.3420 N   0  0  0  0  0  0
   29.1580   31.1640    6.2020 N   0  3  0  0  0  0
   29.9000   30.1950    5.9980 N   0  0  0  0  0  0
   29.4310   29.1640    6.6850 C   0  0  0  0  0  0
   29.9900   27.9590    6.7150 N   0  0  0  0  0  0
   24.3524   32.3750    9.2229 H   0  0  0  0  0  0
   26.2210   31.1579    8.1196 H   0  0  0  0  0  0
   22.5110   32.4358   10.8016 H   0  0  0  0  0  0
   25.2872   27.7500   10.5887 H   0  0  0  0  0  0
   23.4009   28.9595   11.6416 H   0  0  0  0  0  0
   26.4202   31.5831    8.0030 H   0  0  0  0  0  0
   27.3793   32.8660    6.9714 H   0  0  0  0  0  0
   29.5344   27.1561    7.3131 H   0  0  0  0  0  0
   30.9084   27.7643    6.1417 H   0  0  0  0  0  0
   29.3821   32.1357    5.7376 H   0  0  0  0  0  0
  1  2  2  0  0  0
  1  4  1  0  0  0
  1  7  1  0  0  0
  2  3  1  0  0  0
  2 17  1  0  0  0
  3  5  2  0  0  0
  3 18  1  0  0  0
  4 19  1  0  0  0
  5  6  1  0  0  0
  5  8  1  0  0  0
  6  7  2  0  0  0
  6 20  1  0  0  0
  7 21  1  0  0  0
  8  9  2  0  0  0
  9 10  1  0  0  0
 10 11  2  0  0  0
 10 15  1  0  0  0
 11 12  1  0  0  0
 11 13  1  0  0  0
 12 22  1  0  0  0
 12 23  1  0  0  0
 13 14  1  0  0  0
 13 26  1  0  0  0
 14 15  2  0  0  0
 15 16  1  0  0  0
 16 24  1  0  0  0
 16 25  1  0  0  0
M  CHG  1  13   1
M  END
> <s_m_source_file>
../2clx_ligand.sdf

> <i_m_source_file_index>
1

> <s_epik_input>
W09IXWMxW2NIXVtjSF1jKFtjSF1bY0hdMSkvTj1OXGMyYyhbTkgyXSlbbkhdbmMyW05IMl0=

> <s_epik_cmdline>
J2VwaWtfYXBwJywgJy1pbWFlJywgJ2xpZ2FuZF9wcm8ubWFlJywgJy1vbWFlJywgJ2xpZ2FuZF9wcmVwLm1hZScsICctbXMnLCAnMScsICctcGgnLCAnNycsICctcGh0JywgJzAuNScsICctbnQn

> <r_epik_Ionization_Penalty>
  0.0251

> <r_epik_Ionization_Penalty_Charging>
  0.0000

> <r_epik_Ionization_Penalty_Neutral>
  0.0251

> <r_epik_State_Penalty>
  0.4107

> <r_epik_Charging_Adjusted_Penalty>
0.410679838952604

> <i_epik_Tot_Q>
1

> <i_epik_Tot_abs_Q>
1

> <s_epik_Chemistry_Notes>
This compound has an imine and may undergo hydrolysis.

$$$$
