2cm7_ligand
                    3D
 Schrodinger Suite 2020-3.
 59 61  0  0  1  0            999 V2000
   16.7560   -1.4220   -0.4900 C   0  0  2  0  0  0
   17.4780   -1.9420    0.7130 C   0  0  0  0  0  0
   16.9200   -1.2760    1.9380 C   0  0  0  0  0  0
   15.7130   -0.7120    1.7690 N   0  0  0  0  0  0
   15.0880   -1.1180    0.1110 S   0  0  0  0  0  0
   14.3300    0.1280   -0.6880 O   0  0  0  0  0  0
   14.2690   -2.5450    0.0980 O   0  0  0  0  0  0
   17.4860   -1.2290    3.0250 O   0  5  0  0  0  0
   16.7540   -2.2920   -1.7380 C   0  0  0  0  0  0
   16.8020   -3.7550   -1.6280 C   0  0  0  0  0  0
   16.7910   -4.5710   -2.8470 C   0  0  0  0  0  0
   16.7210   -3.9070   -4.1690 C   0  0  0  0  0  0
   16.7080   -2.4540   -4.2630 C   0  0  0  0  0  0
   16.7190   -1.6480   -3.0550 C   0  0  0  0  0  0
   16.7000   -4.7240   -5.4230 C   0  0  0  0  0  0
   17.9020   -4.4400   -6.3270 C   0  0  1  0  0  0
   19.1440   -5.0350   -5.7140 C   0  0  0  0  0  0
   19.8780   -4.3810   -4.9910 O   0  0  0  0  0  0
   19.3790   -6.3290   -5.9240 N   0  0  0  0  0  0
   17.6330   -5.0260   -7.6450 N   0  0  0  0  0  0
   18.4700   -4.6570   -8.6110 C   0  0  0  0  0  0
   18.2690   -5.2610   -9.9800 C   0  0  1  0  0  0
   19.3690   -3.8640   -8.3870 O   0  0  0  0  0  0
   18.3060   -4.2250  -11.0260 N   0  0  0  0  0  0
   19.3730   -6.2750  -10.2500 C   0  0  0  0  0  0
   19.0120   -7.2610  -11.3200 C   0  0  0  0  0  0
   18.3320   -8.5130  -10.9580 C   0  0  0  0  0  0
   17.9810   -9.4780  -11.9960 C   0  0  0  0  0  0
   18.3050   -9.1930  -13.4040 C   0  0  0  0  0  0
   18.9900   -7.9430  -13.7700 C   0  0  0  0  0  0
   19.3470   -6.9780  -12.7290 C   0  0  0  0  0  0
   17.1950   -3.8710  -11.6780 C   0  0  0  0  0  0
   16.1030   -4.3900  -11.3950 O   0  0  0  0  0  0
   17.2840   -2.8710  -12.8180 C   0  0  0  0  0  0
   17.4309   -0.6488   -0.8858 H   0  0  0  0  0  0
   17.3364   -3.0306    0.7835 H   0  0  0  0  0  0
   18.5509   -1.7169    0.6225 H   0  0  0  0  0  0
   16.8455   -4.2312   -0.6485 H   0  0  0  0  0  0
   16.8340   -5.6581   -2.7803 H   0  0  0  0  0  0
   16.6900   -1.9712   -5.2401 H   0  0  0  0  0  0
   16.7012   -0.5606   -3.1275 H   0  0  0  0  0  0
   16.7156   -5.7931   -5.1644 H   0  0  0  0  0  0
   15.7866   -4.4979   -5.9927 H   0  0  0  0  0  0
   18.0704   -3.3629   -6.4733 H   0  0  0  0  0  0
   18.7117   -6.9102   -6.5774 H   0  0  0  0  0  0
   20.2404   -6.8165   -5.4441 H   0  0  0  0  0  0
   16.7874   -5.7169   -7.7775 H   0  0  0  0  0  0
   17.2728   -5.7257  -10.0193 H   0  0  0  0  0  0
   19.2565   -3.7324  -11.2788 H   0  0  0  0  0  0
   20.2832   -5.7487  -10.5733 H   0  0  0  0  0  0
   19.5838   -6.8411   -9.3307 H   0  0  0  0  0  0
   18.0901   -8.7207   -9.9157 H   0  0  0  0  0  0
   17.4797  -10.4083  -11.7290 H   0  0  0  0  0  0
   18.0362   -9.9112  -14.1786 H   0  0  0  0  0  0
   19.2307   -7.7365  -14.8128 H   0  0  0  0  0  0
   19.8589   -6.0528  -12.9938 H   0  0  0  0  0  0
   18.3221   -2.5216  -12.9191 H   0  0  0  0  0  0
   16.6277   -2.0140  -12.6061 H   0  0  0  0  0  0
   16.9666   -3.3532  -13.7543 H   0  0  0  0  0  0
  1  2  1  0  0  0
  1  5  1  0  0  0
  1  9  1  0  0  0
  1 35  1  0  0  0
  2  3  1  0  0  0
  2 36  1  0  0  0
  2 37  1  0  0  0
  3  4  2  0  0  0
  3  8  1  0  0  0
  4  5  1  0  0  0
  5  6  2  0  0  0
  5  7  2  0  0  0
  9 10  2  0  0  0
  9 14  1  0  0  0
 10 11  1  0  0  0
 10 38  1  0  0  0
 11 12  2  0  0  0
 11 39  1  0  0  0
 12 13  1  0  0  0
 12 15  1  0  0  0
 13 14  2  0  0  0
 13 40  1  0  0  0
 14 41  1  0  0  0
 15 16  1  0  0  0
 15 42  1  0  0  0
 15 43  1  0  0  0
 16 17  1  0  0  0
 16 20  1  0  0  0
 16 44  1  0  0  0
 17 18  2  0  0  0
 17 19  1  0  0  0
 19 45  1  0  0  0
 19 46  1  0  0  0
 20 21  1  0  0  0
 20 47  1  0  0  0
 21 22  1  0  0  0
 21 23  2  0  0  0
 22 24  1  0  0  0
 22 25  1  0  0  0
 22 48  1  0  0  0
 24 32  1  0  0  0
 24 49  1  0  0  0
 25 26  1  0  0  0
 25 50  1  0  0  0
 25 51  1  0  0  0
 26 27  2  0  0  0
 26 31  1  0  0  0
 27 28  1  0  0  0
 27 52  1  0  0  0
 28 29  2  0  0  0
 28 53  1  0  0  0
 29 30  1  0  0  0
 29 54  1  0  0  0
 30 31  2  0  0  0
 30 55  1  0  0  0
 31 56  1  0  0  0
 32 33  2  0  0  0
 32 34  1  0  0  0
 34 57  1  0  0  0
 34 58  1  0  0  0
 34 59  1  0  0  0
M  CHG  1   8  -1
M  END
> <s_m_source_file>
../2cm7_ligand.sdf

> <i_m_source_file_index>
1

> <s_epik_input>
W05IXTFDKD1PKVtDSDJdW0NASF0oUzEoPU8pPU8pYzJbY0hdW2NIXWMoW2NIXVtjSF0yKVtDSDJdW0NAQEhdKEMoPU8pW05IMl0pW05IXUMoPU8pW0NAQEhdKFtOSF1DKD1PKVtDSDNdKVtDSDJdYzNbY0hdW2NIXVtjSF1bY0hdW2NIXTM=

> <s_epik_cmdline>
J2VwaWtfYXBwJywgJy1pbWFlJywgJ2xpZ2FuZF9wcm8ubWFlJywgJy1vbWFlJywgJ2xpZ2FuZF9wcmVwLm1hZScsICctbXMnLCAnMScsICctcGgnLCAnNycsICctcGh0JywgJzAuNScsICctbnQn

> <r_lp_tautomer_probability>
1

> <r_epik_Ionization_Penalty>
  0.0000

> <r_epik_Ionization_Penalty_Charging>
  0.0000

> <r_epik_Ionization_Penalty_Neutral>
  0.0000

> <r_epik_State_Penalty>
 -0.0000

> <r_epik_Charging_Adjusted_Penalty>
7.54010937420747e-07

> <i_epik_Tot_Q>
-1

> <i_epik_Tot_abs_Q>
1

$$$$
