2cm8_ligand
                    3D
 Schrodinger Suite 2020-3.
 21 22  0  0  1  0            999 V2000
   46.4620   15.4340    3.9400 C   0  0  0  0  0  0
   47.6680   16.1830    3.7160 C   0  0  0  0  0  0
   47.8320   17.0770    4.8510 C   0  0  0  0  0  0
   46.8430   17.0340    5.8710 N   0  0  0  0  0  0
   45.6240   15.8500    5.4680 S   0  0  0  0  0  0
   44.0340   16.5070    5.1850 O   0  0  0  0  0  0
   45.6450   14.4680    6.4180 O   0  0  0  0  0  0
   48.7880   17.8380    4.9280 O   0  5  0  0  0  0
   45.9650   14.4120    3.0230 C   0  0  0  0  0  0
   44.7520   14.6610    2.2320 C   0  0  0  0  0  0
   44.2480   13.6250    1.3130 C   0  0  0  0  0  0
   44.9570   12.3400    1.1850 C   0  0  0  0  0  0
   46.1700   12.0930    1.9760 C   0  0  0  0  0  0
   46.6780   13.1250    2.8950 C   0  0  0  0  0  0
   46.8200   10.9240    1.8610 O   0  0  0  0  0  0
   48.2625   16.0093    2.8069 H   0  0  0  0  0  0
   44.2255   15.6109    2.3248 H   0  0  0  0  0  0
   43.3482   13.8100    0.7264 H   0  0  0  0  0  0
   44.5826   11.5746    0.5052 H   0  0  0  0  0  0
   47.5788   12.9395    3.4799 H   0  0  0  0  0  0
   46.4436   10.1505    1.1754 H   0  0  0  0  0  0
  1  2  2  0  0  0
  1  5  1  0  0  0
  1  9  1  0  0  0
  2  3  1  0  0  0
  2 16  1  0  0  0
  3  4  2  0  0  0
  3  8  1  0  0  0
  4  5  1  0  0  0
  5  6  2  0  0  0
  5  7  2  0  0  0
  9 10  2  0  0  0
  9 14  1  0  0  0
 10 11  1  0  0  0
 10 17  1  0  0  0
 11 12  2  0  0  0
 11 18  1  0  0  0
 12 13  1  0  0  0
 12 19  1  0  0  0
 13 14  2  0  0  0
 13 15  1  0  0  0
 14 20  1  0  0  0
 15 21  1  0  0  0
M  CHG  1   8  -1
M  END
> <s_m_source_file>
../2cm8_ligand.sdf

> <i_m_source_file_index>
1

> <s_epik_input>
W05IXTFDKD1PKVtDSF09QyhTMSg9Tyk9TyljMltjSF1bY0hdW2NIXWMoW2NIXTIpW09IXQ==

> <s_epik_cmdline>
J2VwaWtfYXBwJywgJy1pbWFlJywgJ2xpZ2FuZF9wcm8ubWFlJywgJy1vbWFlJywgJ2xpZ2FuZF9wcmVwLm1hZScsICctbXMnLCAnMScsICctcGgnLCAnNycsICctcGh0JywgJzAuNScsICctbnQn

> <r_lp_tautomer_probability>
1

> <r_epik_Ionization_Penalty>
  0.0017

> <r_epik_Ionization_Penalty_Charging>
  0.0000

> <r_epik_Ionization_Penalty_Neutral>
  0.0017

> <r_epik_State_Penalty>
 -0.0000

> <r_epik_Charging_Adjusted_Penalty>
5.89084649768955e-07

> <i_epik_Tot_Q>
-1

> <i_epik_Tot_abs_Q>
1

$$$$
