2cmb_ligand
                    3D
 Schrodinger Suite 2020-3.
 75 79  0  0  1  0            999 V2000
   12.1090   34.7750   14.6540 C   0  0  0  0  0  0
   11.4890   34.8390   13.4000 C   0  0  0  0  0  0
   12.2520   35.1000   12.2530 C   0  0  0  0  0  0
   13.6370   35.2890   12.3590 C   0  0  0  0  0  0
   14.2580   35.2140   13.6130 C   0  0  0  0  0  0
   13.4930   34.9630   14.7600 C   0  0  0  0  0  0
   15.7630   35.3870   13.7280 C   0  0  0  0  0  0
   16.2280   33.9220   13.6550 C   0  0  0  0  0  0
   15.6280   33.0430   14.2720 O   0  0  0  0  0  0
   17.3090   33.6690   12.9150 N   0  0  0  0  0  0
   17.8290   32.2930   12.9130 C   0  0  2  0  0  0
   19.2070   32.3860   13.5310 C   0  0  0  0  0  0
   20.0390   33.1740   13.0870 O   0  0  0  0  0  0
   19.4480   31.5810   14.5730 N   0  0  0  0  0  0
   20.7900   31.6630   15.1500 C   0  0  2  0  0  0
   21.8200   30.7320   14.4940 C   0  0  0  0  0  0
   22.9450   31.1490   14.2010 O   0  0  0  0  0  0
   20.6330   31.3440   16.6410 C   0  0  0  0  0  0
   21.4050   29.4750   14.2970 N   0  0  0  0  0  0
   18.5380   30.3450   11.4180 C   0  0  0  0  0  0
   17.7440   29.2300   11.7190 C   0  0  0  0  0  0
   18.2910   27.9440   11.6660 C   0  0  0  0  0  0
   19.6370   27.7920   11.3100 C   0  0  0  0  0  0
   20.4420   28.8960   11.0070 C   0  0  0  0  0  0
   19.8840   30.1790   11.0630 C   0  0  0  0  0  0
   17.9320   31.7530   11.4790 C   0  0  0  0  0  0
   25.4900   31.5340   19.7980 C   0  0  0  0  0  0
   26.8490   31.2240   19.5100 C   0  0  0  0  0  0
   27.5610   31.3300   20.8210 C   0  0  0  0  0  0
   26.8440   31.6780   21.9060 N   0  0  0  0  0  0
   25.3420   31.8850   21.4740 S   0  0  0  0  0  0
   24.9180   33.2260   21.6930 O   0  0  0  0  0  0
   24.4740   30.9430   22.1140 O   0  0  0  0  0  0
   28.7580   31.0540   20.8700 O   0  5  0  0  0  0
   24.2650   31.4950   18.9610 C   0  0  0  0  0  0
   23.6730   30.2640   18.6620 C   0  0  0  0  0  0
   22.4980   30.2170   17.9060 C   0  0  0  0  0  0
   21.9110   31.4000   17.4470 C   0  0  0  0  0  0
   22.5040   32.6370   17.7380 C   0  0  0  0  0  0
   23.6840   32.6860   18.4980 C   0  0  0  0  0  0
    7.9750   33.6630   12.9000 C   0  0  0  0  0  0
    9.4150   33.3630   12.8390 C   0  0  0  0  0  0
   10.0140   34.5970   13.2780 C   0  0  0  0  0  0
    8.8840   35.7510   13.6390 S   0  0  0  0  0  0
    7.5520   34.9050   13.3100 N   0  0  0  0  0  0
    7.2440   32.7400   12.5470 O   0  5  0  0  0  0
    9.0120   36.8900   12.7770 O   0  0  0  0  0  0
    8.9470   36.1200   15.0230 O   0  0  0  0  0  0
   11.5151   34.5791   15.5468 H   0  0  0  0  0  0
   11.7678   35.1560   11.2780 H   0  0  0  0  0  0
   14.2298   35.4939   11.4676 H   0  0  0  0  0  0
   13.9757   34.9140   15.7361 H   0  0  0  0  0  0
   16.1256   36.0065   12.8945 H   0  0  0  0  0  0
   16.0037   35.8787   14.6821 H   0  0  0  0  0  0
   17.8095   34.4470   12.3198 H   0  0  0  0  0  0
   17.1535   31.6400   13.4851 H   0  0  0  0  0  0
   18.7081   30.8867   14.9979 H   0  0  0  0  0  0
   21.1494   32.6837   14.9523 H   0  0  0  0  0  0
   19.9408   32.0656   17.0994 H   0  0  0  0  0  0
   20.2323   30.3263   16.7580 H   0  0  0  0  0  0
   20.3852   29.1809   14.5858 H   0  0  0  0  0  0
   22.0837   28.7360   13.8463 H   0  0  0  0  0  0
   16.6982   29.3654   11.9949 H   0  0  0  0  0  0
   17.6787   27.0727   11.8984 H   0  0  0  0  0  0
   20.0672   26.7914   11.2680 H   0  0  0  0  0  0
   21.4877   28.7591   10.7315 H   0  0  0  0  0  0
   20.4969   31.0498   10.8303 H   0  0  0  0  0  0
   16.9282   31.7071   11.0315 H   0  0  0  0  0  0
   18.5699   32.4203   10.8808 H   0  0  0  0  0  0
   27.1509   30.9780   18.4812 H   0  0  0  0  0  0
   24.1282   29.3401   19.0188 H   0  0  0  0  0  0
   22.0386   29.2562   17.6739 H   0  0  0  0  0  0
   22.0498   33.5590   17.3749 H   0  0  0  0  0  0
   24.1471   33.6456   18.7276 H   0  0  0  0  0  0
   10.0522   32.5091   12.5655 H   0  0  0  0  0  0
  1  2  2  0  0  0
  1  6  1  0  0  0
  1 49  1  0  0  0
  2  3  1  0  0  0
  2 43  1  0  0  0
  3  4  2  0  0  0
  3 50  1  0  0  0
  4  5  1  0  0  0
  4 51  1  0  0  0
  5  6  2  0  0  0
  5  7  1  0  0  0
  6 52  1  0  0  0
  7  8  1  0  0  0
  7 53  1  0  0  0
  7 54  1  0  0  0
  8  9  2  0  0  0
  8 10  1  0  0  0
 10 11  1  0  0  0
 10 55  1  0  0  0
 11 12  1  0  0  0
 11 26  1  0  0  0
 11 56  1  0  0  0
 12 13  2  0  0  0
 12 14  1  0  0  0
 14 15  1  0  0  0
 14 57  1  0  0  0
 15 16  1  0  0  0
 15 18  1  0  0  0
 15 58  1  0  0  0
 16 17  2  0  0  0
 16 19  1  0  0  0
 18 38  1  0  0  0
 18 59  1  0  0  0
 18 60  1  0  0  0
 19 61  1  0  0  0
 19 62  1  0  0  0
 20 21  2  0  0  0
 20 25  1  0  0  0
 20 26  1  0  0  0
 21 22  1  0  0  0
 21 63  1  0  0  0
 22 23  2  0  0  0
 22 64  1  0  0  0
 23 24  1  0  0  0
 23 65  1  0  0  0
 24 25  2  0  0  0
 24 66  1  0  0  0
 25 67  1  0  0  0
 26 68  1  0  0  0
 26 69  1  0  0  0
 27 28  2  0  0  0
 27 31  1  0  0  0
 27 35  1  0  0  0
 28 29  1  0  0  0
 28 70  1  0  0  0
 29 30  2  0  0  0
 29 34  1  0  0  0
 30 31  1  0  0  0
 31 32  2  0  0  0
 31 33  2  0  0  0
 35 36  2  0  0  0
 35 40  1  0  0  0
 36 37  1  0  0  0
 36 71  1  0  0  0
 37 38  2  0  0  0
 37 72  1  0  0  0
 38 39  1  0  0  0
 39 40  2  0  0  0
 39 73  1  0  0  0
 40 74  1  0  0  0
 41 42  1  0  0  0
 41 45  2  0  0  0
 41 46  1  0  0  0
 42 43  2  0  0  0
 42 75  1  0  0  0
 43 44  1  0  0  0
 44 45  1  0  0  0
 44 47  2  0  0  0
 44 48  2  0  0  0
M  CHG  2  34  -1  46  -1
M  END
> <s_m_source_file>
../2cmb_ligand.sdf

> <i_m_source_file_index>
1

> <s_epik_input>
W05IXTFDKD1PKVtDSF09QyhTMSg9Tyk9TyljMltjSF1bY0hdYyhbY0hdW2NIXTIpW0NIMl1DKD1PKVtOSF1bQ0BASF0oW0NIMl1jM1tjSF1bY0hdW2NIXVtjSF1bY0hdMylDKD1PKVtOSF1bQ0BIXShDKD1PKVtOSDJdKVtDSDJdYyhbY0hdW2NIXTQpW2NIXVtjSF1jNEMoUzUoPU8pPU8pPVtDSF1DKD1PKVtOSF01

> <s_epik_cmdline>
J2VwaWtfYXBwJywgJy1pbWFlJywgJ2xpZ2FuZF9wcm8ubWFlJywgJy1vbWFlJywgJ2xpZ2FuZF9wcmVwLm1hZScsICctbXMnLCAnMScsICctcGgnLCAnNycsICctcGh0JywgJzAuNScsICctbnQn

> <r_lp_tautomer_probability>
1

> <r_epik_Ionization_Penalty>
  0.0000

> <r_epik_Ionization_Penalty_Charging>
  0.0000

> <r_epik_Ionization_Penalty_Neutral>
  0.0000

> <r_epik_State_Penalty>
 -0.0000

> <r_epik_Charging_Adjusted_Penalty>
1.50802187484149e-06

> <i_epik_Tot_Q>
-2

> <i_epik_Tot_abs_Q>
2

$$$$
