2cmc_ligand
                    3D
 Schrodinger Suite 2020-3.
 55 56  0  0  1  0            999 V2000
   26.0720   31.4290   19.6100 C   0  0  0  0  0  0
   25.1730   33.2820   21.6650 O   0  0  0  0  0  0
   24.5670   30.5810   21.9400 O   0  5  0  0  0  0
   27.2370   31.5510   22.2720 O   0  5  0  0  0  0
   24.9110   31.3600   18.7420 C   0  0  0  0  0  0
   24.5070   32.5990   18.1050 C   0  0  0  0  0  0
   23.3020   32.5620   17.2740 C   0  0  0  0  0  0
   22.5770   31.3040   17.1090 C   0  0  0  0  0  0
   22.9810   30.0390   17.7230 C   0  0  0  0  0  0
   24.1920   30.0930   18.5560 C   0  0  0  0  0  0
   21.3350   31.2400   16.2410 C   0  0  0  0  0  0
   21.5800   31.6810   14.7840 C   0  0  1  0  0  0
   22.6220   30.7880   14.1050 C   0  0  0  0  0  0
   23.7620   31.1880   13.8780 O   0  0  0  0  0  0
   22.2700   29.5400   13.7890 N   0  0  0  0  0  0
   20.2880   31.6360   14.0730 N   0  0  0  0  0  0
   20.0540   32.5190   13.1110 C   0  0  0  0  0  0
   18.7670   32.3920   12.3350 C   0  0  1  0  0  0
   20.8520   33.4120   12.8770 O   0  0  0  0  0  0
   18.1210   33.7080   12.3230 N   0  0  0  0  0  0
   19.0410   31.9870   10.8870 C   0  0  0  0  0  0
   19.8140   30.6960   10.7650 C   0  0  0  0  0  0
   19.1900   29.4410   11.1700 C   0  0  0  0  0  0
   19.9620   28.2010   11.1100 C   0  0  0  0  0  0
   21.3420   28.2970   10.6360 C   0  0  0  0  0  0
   21.9730   29.5520   10.2210 C   0  0  0  0  0  0
   21.1900   30.7910   10.2780 C   0  0  0  0  0  0
   17.0130   33.9010   13.0310 C   0  0  0  0  0  0
   16.3970   32.9360   13.5170 O   0  0  0  0  0  0
   16.4910   35.3100   13.2140 C   0  0  0  0  0  0
   27.0840   32.4280   19.1320 F   0  0  0  0  0  0
   26.8280   30.1590   19.4610 F   0  0  0  0  0  0
   25.7440   31.7240   21.3980 P   0  0  0  0  0  0
   25.0764   33.5187   18.2393 H   0  0  0  0  0  0
   22.9478   33.4675   16.7813 H   0  0  0  0  0  0
   22.4207   29.1161   17.5728 H   0  0  0  0  0  0
   24.5582   29.1868   19.0384 H   0  0  0  0  0  0
   20.9597   30.2064   16.2136 H   0  0  0  0  0  0
   20.5609   31.9002   16.6593 H   0  0  0  0  0  0
   21.9512   32.7152   14.7338 H   0  0  0  0  0  0
   21.2484   29.1879   13.9946 H   0  0  0  0  0  0
   23.0015   28.8635   13.3229 H   0  0  0  0  0  0
   19.5374   30.8787   14.3435 H   0  0  0  0  0  0
   18.1149   31.6523   12.8224 H   0  0  0  0  0  0
   18.5537   34.5277   11.7306 H   0  0  0  0  0  0
   18.0865   31.8533   10.3568 H   0  0  0  0  0  0
   19.6288   32.7735   10.3912 H   0  0  0  0  0  0
   18.1560   29.4280   11.5147 H   0  0  0  0  0  0
   19.5277   27.2461   11.4058 H   0  0  0  0  0  0
   21.9344   27.3832   10.5889 H   0  0  0  0  0  0
   23.0068   29.5650    9.8757 H   0  0  0  0  0  0
   21.6169   31.7453    9.9695 H   0  0  0  0  0  0
   17.1682   36.0195   12.7159 H   0  0  0  0  0  0
   16.4386   35.5451   14.2873 H   0  0  0  0  0  0
   15.4869   35.3893   12.7718 H   0  0  0  0  0  0
  1  5  1  0  0  0
  1 31  1  0  0  0
  1 32  1  0  0  0
  1 33  1  0  0  0
  2 33  2  0  0  0
  3 33  1  0  0  0
  4 33  1  0  0  0
  5  6  2  0  0  0
  5 10  1  0  0  0
  6  7  1  0  0  0
  6 34  1  0  0  0
  7  8  2  0  0  0
  7 35  1  0  0  0
  8  9  1  0  0  0
  8 11  1  0  0  0
  9 10  2  0  0  0
  9 36  1  0  0  0
 10 37  1  0  0  0
 11 12  1  0  0  0
 11 38  1  0  0  0
 11 39  1  0  0  0
 12 13  1  0  0  0
 12 16  1  0  0  0
 12 40  1  0  0  0
 13 14  2  0  0  0
 13 15  1  0  0  0
 15 41  1  0  0  0
 15 42  1  0  0  0
 16 17  1  0  0  0
 16 43  1  0  0  0
 17 18  1  0  0  0
 17 19  2  0  0  0
 18 20  1  0  0  0
 18 21  1  0  0  0
 18 44  1  0  0  0
 20 28  1  0  0  0
 20 45  1  0  0  0
 21 22  1  0  0  0
 21 46  1  0  0  0
 21 47  1  0  0  0
 22 23  2  0  0  0
 22 27  1  0  0  0
 23 24  1  0  0  0
 23 48  1  0  0  0
 24 25  2  0  0  0
 24 49  1  0  0  0
 25 26  1  0  0  0
 25 50  1  0  0  0
 26 27  2  0  0  0
 26 51  1  0  0  0
 27 52  1  0  0  0
 28 29  2  0  0  0
 28 30  1  0  0  0
 30 53  1  0  0  0
 30 54  1  0  0  0
 30 55  1  0  0  0
M  CHG  2   3  -1   4  -1
M  END
> <s_m_source_file>
../2cmc_ligand.sdf

> <i_m_source_file_index>
1

> <s_epik_input>
Tz1QKFtPSF0pKFtPSF0pQyhGKShGKWMxW2NIXVtjSF1jKFtjSF1bY0hdMSlbQ0gyXVtDQEBIXShDKD1PKVtOSDJdKVtOSF1DKD1PKVtDQEBIXShbTkhdQyg9TylbQ0gzXSlbQ0gyXWMyW2NIXVtjSF1bY0hdW2NIXVtjSF0y

> <s_epik_cmdline>
J2VwaWtfYXBwJywgJy1pbWFlJywgJ2xpZ2FuZF9wcm8ubWFlJywgJy1vbWFlJywgJ2xpZ2FuZF9wcmVwLm1hZScsICctbXMnLCAnMScsICctcGgnLCAnNycsICctcGh0JywgJzAuNScsICctbnQn

> <r_epik_Ionization_Penalty>
  0.0143

> <r_epik_Ionization_Penalty_Charging>
  0.0143

> <r_epik_Ionization_Penalty_Neutral>
  0.0000

> <r_epik_State_Penalty>
  0.0112

> <r_epik_Charging_Adjusted_Penalty>
0.0255632782935335

> <i_epik_Tot_Q>
-2

> <i_epik_Tot_abs_Q>
2

$$$$
