2cmf_ligand
                    3D
 Schrodinger Suite 2020-3.
 73 78  0  0  1  0            999 V2000
    2.6810   61.3490   70.9040 C   0  0  0  0  0  0
    2.3550   62.6420   70.3940 C   0  0  0  0  0  0
    3.3490   63.3290   69.4540 C   0  0  0  0  0  0
    4.4740   62.4170   68.8940 C   0  0  0  0  0  0
    5.1080   61.5750   70.0400 C   0  0  0  0  0  0
    4.0090   60.6260   70.5830 C   0  0  0  0  0  0
    1.7750   60.7160   71.7460 N   0  3  0  0  0  0
    0.5370   61.2540   72.1410 C   0  0  0  0  0  0
    0.1790   62.5740   71.6560 C   0  0  0  0  0  0
    1.1290   63.2700   70.7990 C   0  0  0  0  0  0
    0.7260   64.5200   70.5170 N   0  0  0  0  0  0
   -1.1180   63.0830   72.0800 C   0  0  0  0  0  0
   -1.9500   62.3430   72.9190 C   0  0  0  0  0  0
   -1.5580   61.0380   73.4010 C   0  0  0  0  0  0
   -0.3220   60.4970   73.0080 C   0  0  0  0  0  0
    1.4380   69.1680   67.4270 C   0  0  0  0  0  0
    1.1400   67.6800   67.4510 C   0  0  0  0  0  0
    1.3180   67.1910   68.8680 C   0  0  0  0  0  0
    0.1030   66.5030   69.3850 C   0  0  0  0  0  0
    0.2530   65.0040   69.2530 C   0  0  0  0  0  0
    5.1810   69.2610   64.0180 C   0  0  0  0  0  0
    3.8250   69.1890   64.4150 C   0  0  0  0  0  0
    2.8140   68.7040   63.4030 C   0  0  0  0  0  0
    3.3870   67.9880   62.1990 C   0  0  0  0  0  0
    4.4890   68.8380   61.6000 C   0  0  0  0  0  0
    5.6450   68.9320   62.6300 C   0  0  0  0  0  0
    6.1300   69.6630   64.9300 N   0  3  0  0  0  0
    5.8830   69.9980   66.2490 C   0  0  0  0  0  0
    4.5120   69.9460   66.7380 C   0  0  0  0  0  0
    3.4360   69.5740   65.7400 C   0  0  0  0  0  0
    2.1020   69.6260   66.1850 N   0  0  0  0  0  0
    4.3660   70.3060   68.1340 C   0  0  0  0  0  0
    5.4600   70.6940   68.9400 C   0  0  0  0  0  0
    6.7980   70.7530   68.4120 C   0  0  0  0  0  0
    7.0090   70.3990   67.0750 C   0  0  0  0  0  0
    2.8115   63.7315   68.5827 H   0  0  0  0  0  0
    3.8502   64.1503   69.9871 H   0  0  0  0  0  0
    4.0528   61.7365   68.1393 H   0  0  0  0  0  0
    5.2544   63.0393   68.4317 H   0  0  0  0  0  0
    5.9550   60.9957   69.6439 H   0  0  0  0  0  0
    5.4633   62.2468   70.8353 H   0  0  0  0  0  0
    4.4001   60.1548   71.4968 H   0  0  0  0  0  0
    3.8311   59.8541   69.8197 H   0  0  0  0  0  0
    0.7854   65.2005   71.3792 H   0  0  0  0  0  0
   -1.4452   64.0635   71.7340 H   0  0  0  0  0  0
   -2.9137   62.7562   73.2169 H   0  0  0  0  0  0
   -2.2164   60.4774   74.0646 H   0  0  0  0  0  0
   -0.0177   59.5107   73.3584 H   0  0  0  0  0  0
    0.4981   69.7317   67.5210 H   0  0  0  0  0  0
    2.1035   69.4223   68.2652 H   0  0  0  0  0  0
    0.1062   67.5077   67.1169 H   0  0  0  0  0  0
    1.8349   67.1560   66.7783 H   0  0  0  0  0  0
    2.1555   66.4790   68.9077 H   0  0  0  0  0  0
    1.5318   68.0456   69.5267 H   0  0  0  0  0  0
   -0.0393   66.7578   70.4456 H   0  0  0  0  0  0
   -0.7757   66.8282   68.8087 H   0  0  0  0  0  0
    0.9817   64.7528   68.4682 H   0  0  0  0  0  0
   -0.7140   64.5346   69.0192 H   0  0  0  0  0  0
    2.1237   67.9959   63.8847 H   0  0  0  0  0  0
    2.2462   69.5612   63.0122 H   0  0  0  0  0  0
    3.7958   67.0156   62.5109 H   0  0  0  0  0  0
    2.5931   67.8301   61.4541 H   0  0  0  0  0  0
    4.8482   68.3712   60.6710 H   0  0  0  0  0  0
    4.0983   69.8421   61.3785 H   0  0  0  0  0  0
    6.3366   69.7125   62.2800 H   0  0  0  0  0  0
    6.1613   67.9607   62.6365 H   0  0  0  0  0  0
    1.5136   70.1164   65.3955 H   0  0  0  0  0  0
    3.3721   70.2763   68.5805 H   0  0  0  0  0  0
    5.2870   70.9543   69.9842 H   0  0  0  0  0  0
    7.6304   71.0673   69.0416 H   0  0  0  0  0  0
    8.0144   70.4239   66.6546 H   0  0  0  0  0  0
    2.0060   59.7210   72.1541 H   0  0  0  0  0  0
    7.1852   69.7384   64.6287 H   0  0  0  0  0  0
  1  2  2  0  0  0
  1  6  1  0  0  0
  1  7  1  0  0  0
  2  3  1  0  0  0
  2 10  1  0  0  0
  3  4  1  0  0  0
  3 36  1  0  0  0
  3 37  1  0  0  0
  4  5  1  0  0  0
  4 38  1  0  0  0
  4 39  1  0  0  0
  5  6  1  0  0  0
  5 40  1  0  0  0
  5 41  1  0  0  0
  6 42  1  0  0  0
  6 43  1  0  0  0
  7  8  2  0  0  0
  7 72  1  0  0  0
  8  9  1  0  0  0
  8 15  1  0  0  0
  9 10  2  0  0  0
  9 12  1  0  0  0
 10 11  1  0  0  0
 11 20  1  0  0  0
 11 44  1  0  0  0
 12 13  2  0  0  0
 12 45  1  0  0  0
 13 14  1  0  0  0
 13 46  1  0  0  0
 14 15  2  0  0  0
 14 47  1  0  0  0
 15 48  1  0  0  0
 16 17  1  0  0  0
 16 31  1  0  0  0
 16 49  1  0  0  0
 16 50  1  0  0  0
 17 18  1  0  0  0
 17 51  1  0  0  0
 17 52  1  0  0  0
 18 19  1  0  0  0
 18 53  1  0  0  0
 18 54  1  0  0  0
 19 20  1  0  0  0
 19 55  1  0  0  0
 19 56  1  0  0  0
 20 57  1  0  0  0
 20 58  1  0  0  0
 21 22  2  0  0  0
 21 26  1  0  0  0
 21 27  1  0  0  0
 22 23  1  0  0  0
 22 30  1  0  0  0
 23 24  1  0  0  0
 23 59  1  0  0  0
 23 60  1  0  0  0
 24 25  1  0  0  0
 24 61  1  0  0  0
 24 62  1  0  0  0
 25 26  1  0  0  0
 25 63  1  0  0  0
 25 64  1  0  0  0
 26 65  1  0  0  0
 26 66  1  0  0  0
 27 28  2  0  0  0
 27 73  1  0  0  0
 28 29  1  0  0  0
 28 35  1  0  0  0
 29 30  2  0  0  0
 29 32  1  0  0  0
 30 31  1  0  0  0
 31 67  1  0  0  0
 32 33  2  0  0  0
 32 68  1  0  0  0
 33 34  1  0  0  0
 33 69  1  0  0  0
 34 35  2  0  0  0
 34 70  1  0  0  0
 35 71  1  0  0  0
M  CHG  2   7   1  27   1
M  END
> <s_m_source_file>
../2cmf_ligand.sdf

> <i_m_source_file_index>
1

> <s_epik_input>
W2NIXTFbY0hdW2NIXVtjSF1jKG4yKWMxYyhjKGMyMylbQ0gyXVtDSDJdW0NIMl1bQ0gyXTMpW05IXVtDSDJdW0NIMl1bQ0gyXVtDSDJdW0NIMl1bTkhdYyhjKGM0NSlbQ0gyXVtDSDJdW0NIMl1bQ0gyXTQpYzZjKG41KVtjSF1bY0hdW2NIXVtjSF02

> <s_epik_cmdline>
J2VwaWtfYXBwJywgJy1pbWFlJywgJ2xpZ2FuZF9wcm8ubWFlJywgJy1vbWFlJywgJ2xpZ2FuZF9wcmVwLm1hZScsICctbXMnLCAnMScsICctcGgnLCAnNycsICctcGh0JywgJzAuNScsICctbnQn

> <r_lp_tautomer_probability>
1

> <r_epik_Ionization_Penalty>
  0.0007

> <r_epik_Ionization_Penalty_Charging>
  0.0007

> <r_epik_Ionization_Penalty_Neutral>
  0.0000

> <r_epik_State_Penalty>
 -0.0000

> <r_epik_Charging_Adjusted_Penalty>
0.000653226217964318

> <i_epik_Tot_Q>
2

> <i_epik_Tot_abs_Q>
2

$$$$
