2cmo_ligand
                    3D
 Schrodinger Suite 2020-3.
 64 67  0  0  1  0            999 V2000
    3.8380   30.6400   25.6870 C   0  0  0  0  0  0
    5.6850   28.9420   22.6550 C   0  0  0  0  0  0
    6.1790   30.0820   21.9990 C   0  0  0  0  0  0
    5.9460   31.3830   22.5080 C   0  0  0  0  0  0
    5.1940   31.6010   23.6910 C   0  0  0  0  0  0
    4.6660   30.4370   24.3900 C   0  0  0  0  0  0
    4.9180   29.0890   23.8560 C   0  0  0  0  0  0
    3.5040   32.1040   26.0480 C   0  0  0  0  0  0
    4.6560   33.0140   25.6950 N   0  3  1  0  0  0
    4.9440   32.9920   24.2180 C   0  0  0  0  0  0
    6.5350   32.3450   21.6870 N   0  0  0  0  0  0
    7.1810   31.7660   20.6180 C   0  0  0  0  0  0
    7.7900   32.3090   19.7210 O   0  0  0  0  0  0
    6.9820   30.2470   20.7710 C   0  0  0  0  0  0
    7.4860   29.4200   19.8840 N   0  0  0  0  0  0
    4.4010   34.4110   26.1520 C   0  0  0  0  0  0
    4.5370   26.1010   26.2450 C   0  0  0  0  0  0
    5.0480   27.2880   25.6510 C   0  0  0  0  0  0
    4.4120   27.8530   24.4930 C   0  0  0  0  0  0
    3.2580   27.1970   23.9500 C   0  0  0  0  0  0
    2.7480   26.0140   24.5390 C   0  0  0  0  0  0
    3.3860   25.4690   25.6840 C   0  0  0  0  0  0
    2.7370   23.9890   26.4220 S   0  0  0  0  0  0
    3.4860   22.7780   25.5210 N   0  0  0  0  0  0
    1.3050   23.9500   26.1630 O   0  0  0  0  0  0
    3.2040   23.9260   27.7970 O   0  0  0  0  0  0
    2.7760   22.0550   24.4610 C   0  0  0  0  0  0
    4.8800   22.3840   25.7470 C   0  0  0  0  0  0
    7.2140   28.0640   20.1490 O   0  0  0  0  0  0
    7.8000   27.2240   19.1280 C   0  0  1  0  0  0
    7.9200   25.7860   19.6740 C   0  0  0  0  0  0
    8.7750   25.6810   20.9400 C   0  0  0  0  0  0
   10.0190   26.3620   20.7750 O   0  0  0  0  0  0
    6.9130   27.2150   17.8580 C   0  0  0  0  0  0
    7.5040   27.3820   16.7500 O   0  0  0  0  0  0
    5.6620   27.0490   17.9910 O   0  5  0  0  0  0
    2.8739   30.1190   25.5918 H   0  0  0  0  0  0
    4.3929   30.2307   26.5441 H   0  0  0  0  0  0
    5.8846   27.9493   22.2516 H   0  0  0  0  0  0
    2.6122   32.4250   25.4898 H   0  0  0  0  0  0
    3.3077   32.1798   27.1277 H   0  0  0  0  0  0
    5.5459   32.6442   26.2254 H   0  0  0  0  0  0
    5.8317   33.6166   24.0398 H   0  0  0  0  0  0
    4.0777   33.4300   23.7006 H   0  0  0  0  0  0
    6.4448   33.4122   21.9381 H   0  0  0  0  0  0
    4.1923   34.4111   27.2320 H   0  0  0  0  0  0
    3.5355   34.8214   25.6112 H   0  0  0  0  0  0
    5.2872   35.0305   25.9497 H   0  0  0  0  0  0
    5.0215   25.6759   27.1240 H   0  0  0  0  0  0
    5.9271   27.7718   26.0766 H   0  0  0  0  0  0
    2.7663   27.6147   23.0715 H   0  0  0  0  0  0
    1.8707   25.5250   24.1155 H   0  0  0  0  0  0
    1.7464   22.4345   24.3846 H   0  0  0  0  0  0
    2.7543   20.9816   24.7004 H   0  0  0  0  0  0
    3.2947   22.2066   23.5029 H   0  0  0  0  0  0
    5.3054   22.9909   26.5598 H   0  0  0  0  0  0
    5.4604   22.5452   24.8266 H   0  0  0  0  0  0
    4.9200   21.3202   26.0241 H   0  0  0  0  0  0
    8.7841   27.6655   18.9120 H   0  0  0  0  0  0
    6.9189   25.4028   19.9208 H   0  0  0  0  0  0
    8.3815   25.1415   18.9113 H   0  0  0  0  0  0
    8.2352   26.1324   21.7855 H   0  0  0  0  0  0
    8.9786   24.6223   21.1582 H   0  0  0  0  0  0
   10.7494   26.3800   21.5973 H   0  0  0  0  0  0
  1  6  1  0  0  0
  1  8  1  0  0  0
  1 37  1  0  0  0
  1 38  1  0  0  0
  2  3  2  0  0  0
  2  7  1  0  0  0
  2 39  1  0  0  0
  3  4  1  0  0  0
  3 14  1  0  0  0
  4  5  2  0  0  0
  4 11  1  0  0  0
  5  6  1  0  0  0
  5 10  1  0  0  0
  6  7  2  0  0  0
  7 19  1  0  0  0
  8  9  1  0  0  0
  8 40  1  0  0  0
  8 41  1  0  0  0
  9 10  1  0  0  0
  9 16  1  0  0  0
  9 42  1  0  0  0
 10 43  1  0  0  0
 10 44  1  0  0  0
 11 12  1  0  0  0
 11 45  1  0  0  0
 12 13  2  0  0  0
 12 14  1  0  0  0
 14 15  2  0  0  0
 15 29  1  0  0  0
 16 46  1  0  0  0
 16 47  1  0  0  0
 16 48  1  0  0  0
 17 18  2  0  0  0
 17 22  1  0  0  0
 17 49  1  0  0  0
 18 19  1  0  0  0
 18 50  1  0  0  0
 19 20  2  0  0  0
 20 21  1  0  0  0
 20 51  1  0  0  0
 21 22  2  0  0  0
 21 52  1  0  0  0
 22 23  1  0  0  0
 23 24  1  0  0  0
 23 25  2  0  0  0
 23 26  2  0  0  0
 24 27  1  0  0  0
 24 28  1  0  0  0
 27 53  1  0  0  0
 27 54  1  0  0  0
 27 55  1  0  0  0
 28 56  1  0  0  0
 28 57  1  0  0  0
 28 58  1  0  0  0
 29 30  1  0  0  0
 30 31  1  0  0  0
 30 34  1  0  0  0
 30 59  1  0  0  0
 31 32  1  0  0  0
 31 60  1  0  0  0
 31 61  1  0  0  0
 32 33  1  0  0  0
 32 62  1  0  0  0
 32 63  1  0  0  0
 33 64  1  0  0  0
 34 35  2  0  0  0
 34 36  1  0  0  0
M  CHG  2   9   1  36  -1
M  END
> <s_m_source_file>
../2cmo_ligand.sdf

> <i_m_source_file_index>
1

> <s_epik_input>
W0NIM11OKFtDSDNdKVMoPU8pKD1PKWMoW2NIXVtjSF0xKVtjSF1bY0hdYzEtYyhbY0hdMiljKFtDSDJdW0NIMl1bTkBASCtdKFtDSDJdMylbQ0gzXSljM2MoYzI0KVtOSF1DKD1PKUNcND1OXE9bQ0BIXShDKD1PKVtPSF0pW0NIMl1bQ0gyXVtPSF0=

> <s_epik_cmdline>
J2VwaWtfYXBwJywgJy1pbWFlJywgJ2xpZ2FuZF9wcm8ubWFlJywgJy1vbWFlJywgJ2xpZ2FuZF9wcmVwLm1hZScsICctbXMnLCAnMScsICctcGgnLCAnNycsICctcGh0JywgJzAuNScsICctbnQn

> <r_epik_Ionization_Penalty>
  0.0258

> <r_epik_Ionization_Penalty_Charging>
  0.0258

> <r_epik_Ionization_Penalty_Neutral>
  0.0000

> <r_epik_State_Penalty>
  0.0209

> <r_epik_Charging_Adjusted_Penalty>
0.0467844697393652

> <i_epik_Tot_Q>
0

> <i_epik_Tot_abs_Q>
2

> <s_epik_Chemistry_Notes>
This compound has an imine and may undergo hydrolysis.

$$$$
