2cn8_ligand
                    3D
 Schrodinger Suite 2020-3.
 27 29  0  0  1  0            999 V2000
  -13.7570   47.1530   10.5760 O   0  0  0  0  0  0
  -13.7220   46.6870    9.4630 C   0  0  0  0  0  0
  -14.8750   46.3520    8.8530 N   0  0  0  0  0  0
  -15.1450   45.7880    7.5560 C   0  0  0  0  0  0
  -14.2640   46.3260    6.4500 C   0  0  0  0  0  0
  -12.3650   46.5790    8.9350 C   0  0  0  0  0  0
  -11.3060   46.8500    9.6900 N   0  0  0  0  0  0
  -10.1040   46.9130    8.8400 C   0  0  0  0  0  0
  -10.5270   46.4480    7.4510 C   0  0  0  0  0  0
  -11.9940   46.2590    7.6900 C   0  0  0  0  0  0
  -12.8700   45.7750    6.6520 C   0  0  0  0  0  0
  -12.3450   44.7100    5.7660 C   0  0  0  0  0  0
  -11.1510   44.0540    5.6930 N   0  0  0  0  0  0
  -11.3070   43.2100    4.6450 C   0  0  0  0  0  0
  -10.3070   42.3740    4.2860 N   0  0  0  0  0  0
  -12.4590   43.2380    3.9790 N   0  0  0  0  0  0
  -13.1260   44.1760    4.6640 C   0  0  0  0  0  0
  -14.3130   44.5980    4.4590 O   0  0  0  0  0  0
  -15.7057   46.5829    9.5361 H   0  0  0  0  0  0
  -14.9911   44.6994    7.5903 H   0  0  0  0  0  0
  -16.1860   46.0024    7.2724 H   0  0  0  0  0  0
  -14.6615   46.0052    5.4758 H   0  0  0  0  0  0
  -14.2481   47.4249    6.4956 H   0  0  0  0  0  0
   -9.1067   47.2302    9.1449 H   0  0  0  0  0  0
  -10.1006   46.2429    6.4580 H   0  0  0  0  0  0
   -9.3640   42.3694    4.8523 H   0  0  0  0  0  0
  -10.4364   41.6984    3.4276 H   0  0  0  0  0  0
  1  2  2  0  0  0
  2  3  1  0  0  0
  2  6  1  0  0  0
  3  4  1  0  0  0
  3 19  1  0  0  0
  4  5  1  0  0  0
  4 20  1  0  0  0
  4 21  1  0  0  0
  5 11  1  0  0  0
  5 22  1  0  0  0
  5 23  1  0  0  0
  6  7  2  0  0  0
  6 10  1  0  0  0
  7  8  1  0  0  0
  8  9  1  0  0  0
  8 24  1  0  0  0
  9 10  2  0  0  0
  9 25  1  0  0  0
 10 11  1  0  0  0
 11 12  2  0  0  0
 12 13  1  0  0  0
 12 17  1  0  0  0
 13 14  2  0  0  0
 14 15  1  0  0  0
 14 16  1  0  0  0
 15 26  1  0  0  0
 15 27  1  0  0  0
 16 17  1  0  0  0
 17 18  2  0  0  0
M  END
> <s_m_source_file>
../2cn8_ligand.sdf

> <i_m_source_file_index>
1

> <s_epik_input>
Tz1DMVtOSF1bQ0gyXVtDSDJdL0MoQyhDMT0yKT1bQ0hdW0NIMl1OMik9QzMvW05IXS9DKD1OL1tIXSlbTkhdQzM9Tw==

> <s_epik_cmdline>
J2VwaWtfYXBwJywgJy1pbWFlJywgJ2xpZ2FuZF9wcm8ubWFlJywgJy1vbWFlJywgJ2xpZ2FuZF9wcmVwLm1hZScsICctbXMnLCAnMScsICctcGgnLCAnNycsICctcGh0JywgJzAuNScsICctbnQn

> <r_epik_Ionization_Penalty>
  0.0193

> <r_epik_Ionization_Penalty_Charging>
  0.0000

> <r_epik_Ionization_Penalty_Neutral>
  0.0193

> <r_epik_State_Penalty>
  0.0154

> <r_epik_Charging_Adjusted_Penalty>
0.0153978198208502

> <i_epik_Tot_Q>
0

> <i_epik_Tot_abs_Q>
0

> <s_epik_Chemistry_Notes>
This compound has an imine and may undergo hydrolysis.

$$$$
