2cne_ligand
                    3D
 Schrodinger Suite 2020-3.
 71 73  0  0  1  0            999 V2000
   13.3590   35.6090   10.9980 C   0  0  0  0  0  0
   12.1980   35.1520   11.7760 C   0  0  0  0  0  0
   12.2750   34.7180   13.1850 C   0  0  0  0  0  0
   13.5730   34.7350   13.8620 C   0  0  0  0  0  0
   14.6960   35.1980   13.0360 C   0  0  0  0  0  0
   14.6730   35.6400   11.6380 C   0  0  0  0  0  0
   10.9000   35.1230   11.0900 C   0  0  0  0  0  0
    9.7480   36.4580   11.3080 P   0  0  0  0  0  0
   10.0360   33.9560   11.3790 F   0  0  0  0  0  0
   10.9350   35.0640    9.6000 F   0  0  0  0  0  0
    8.5250   35.8930   10.1260 O   0  5  0  0  0  0
   10.6050   37.8510   10.6480 O   0  5  0  0  0  0
    9.3350   36.4470   13.0170 O   0  0  0  0  0  0
   16.0570   35.2170   13.6850 C   0  0  0  0  0  0
   16.7360   33.8660   13.5470 C   0  0  0  0  0  0
   16.2190   32.8530   14.0100 O   0  0  0  0  0  0
   17.8790   33.7800   12.8630 N   0  0  0  0  0  0
   18.4990   32.4410   12.8070 C   0  0  2  0  0  0
   19.8890   32.4330   13.4400 C   0  0  0  0  0  0
   20.7870   33.1670   13.0260 O   0  0  0  0  0  0
   20.1080   31.6020   14.4670 N   0  0  0  0  0  0
   21.4100   31.6260   15.1680 C   0  0  2  0  0  0
   22.4800   30.8140   14.4540 C   0  0  0  0  0  0
   23.5960   31.2800   14.2660 O   0  0  0  0  0  0
   21.2070   31.0720   16.5860 C   0  0  0  0  0  0
   22.4600   31.1370   17.4330 C   0  0  0  0  0  0
   22.1440   29.5910   14.0700 N   0  0  0  0  0  0
   19.3040   30.6560   11.2050 C   0  0  0  0  0  0
   18.5060   29.4660   11.5210 C   0  0  0  0  0  0
   19.1770   28.1610   11.3950 C   0  0  0  0  0  0
   20.5830   28.1180   10.9690 C   0  0  0  0  0  0
   21.3560   29.3300   10.6590 C   0  0  0  0  0  0
   20.7140   30.6470   10.7740 C   0  0  0  0  0  0
   22.9310   29.8780   18.0110 C   0  0  0  0  0  0
   24.1370   29.9620   18.8330 C   0  0  0  0  0  0
   24.7610   31.2830   19.0050 C   0  0  0  0  0  0
   24.2600   32.5300   18.4060 C   0  0  0  0  0  0
   23.0610   32.4610   17.5870 C   0  0  0  0  0  0
   25.9550   31.3200   19.8400 C   0  0  0  0  0  0
   26.8380   32.3440   19.3730 F   0  0  0  0  0  0
   26.6290   30.0390   19.8640 F   0  0  0  0  0  0
   25.7480   31.6130   21.7170 P   0  0  0  0  0  0
   27.3030   31.3940   22.3270 O   0  0  0  0  0  0
   24.6360   30.4250   22.1690 O   0  5  0  0  0  0
   25.2030   33.2350   21.8840 O   0  5  0  0  0  0
   18.6140   32.0010   11.3410 C   0  0  0  0  0  0
   13.2417   35.9199    9.9599 H   0  0  0  0  0  0
   11.3795   34.3901   13.7129 H   0  0  0  0  0  0
   13.6967   34.4274   14.9003 H   0  0  0  0  0  0
   15.5707   35.9679   11.1139 H   0  0  0  0  0  0
   16.6834   35.9808   13.2010 H   0  0  0  0  0  0
   15.9503   35.4538   14.7539 H   0  0  0  0  0  0
   18.3606   34.6306   12.3586 H   0  0  0  0  0  0
   17.8398   31.7773   13.3858 H   0  0  0  0  0  0
   19.3225   30.9028   14.7896 H   0  0  0  0  0  0
   21.7385   32.6758   15.1657 H   0  0  0  0  0  0
   20.4272   31.6541   17.0989 H   0  0  0  0  0  0
   20.8986   30.0178   16.5271 H   0  0  0  0  0  0
   21.1282   29.2143   14.2604 H   0  0  0  0  0  0
   22.8809   28.9525   13.5608 H   0  0  0  0  0  0
   17.4650   29.5441   11.8344 H   0  0  0  0  0  0
   18.6381   27.2394   11.6147 H   0  0  0  0  0  0
   21.0727   27.1483   10.8792 H   0  0  0  0  0  0
   22.3973   29.2521   10.3463 H   0  0  0  0  0  0
   21.2520   31.5687   10.5523 H   0  0  0  0  0  0
   22.4137   28.9341   17.8390 H   0  0  0  0  0  0
   24.5602   29.0744   19.3033 H   0  0  0  0  0  0
   24.7727   33.4775   18.5715 H   0  0  0  0  0  0
   22.6343   33.3458   17.1146 H   0  0  0  0  0  0
   17.6083   31.9175   10.9033 H   0  0  0  0  0  0
   19.1976   32.7453   10.7794 H   0  0  0  0  0  0
  1  2  2  0  0  0
  1  6  1  0  0  0
  1 47  1  0  0  0
  2  3  1  0  0  0
  2  7  1  0  0  0
  3  4  2  0  0  0
  3 48  1  0  0  0
  4  5  1  0  0  0
  4 49  1  0  0  0
  5  6  2  0  0  0
  5 14  1  0  0  0
  6 50  1  0  0  0
  7  8  1  0  0  0
  7  9  1  0  0  0
  7 10  1  0  0  0
  8 11  1  0  0  0
  8 12  1  0  0  0
  8 13  2  0  0  0
 14 15  1  0  0  0
 14 51  1  0  0  0
 14 52  1  0  0  0
 15 16  2  0  0  0
 15 17  1  0  0  0
 17 18  1  0  0  0
 17 53  1  0  0  0
 18 19  1  0  0  0
 18 46  1  0  0  0
 18 54  1  0  0  0
 19 20  2  0  0  0
 19 21  1  0  0  0
 21 22  1  0  0  0
 21 55  1  0  0  0
 22 23  1  0  0  0
 22 25  1  0  0  0
 22 56  1  0  0  0
 23 24  2  0  0  0
 23 27  1  0  0  0
 25 26  1  0  0  0
 25 57  1  0  0  0
 25 58  1  0  0  0
 26 34  2  0  0  0
 26 38  1  0  0  0
 27 59  1  0  0  0
 27 60  1  0  0  0
 28 29  2  0  0  0
 28 33  1  0  0  0
 28 46  1  0  0  0
 29 30  1  0  0  0
 29 61  1  0  0  0
 30 31  2  0  0  0
 30 62  1  0  0  0
 31 32  1  0  0  0
 31 63  1  0  0  0
 32 33  2  0  0  0
 32 64  1  0  0  0
 33 65  1  0  0  0
 34 35  1  0  0  0
 34 66  1  0  0  0
 35 36  2  0  0  0
 35 67  1  0  0  0
 36 37  1  0  0  0
 36 39  1  0  0  0
 37 38  2  0  0  0
 37 68  1  0  0  0
 38 69  1  0  0  0
 39 40  1  0  0  0
 39 41  1  0  0  0
 39 42  1  0  0  0
 42 43  2  0  0  0
 42 44  1  0  0  0
 42 45  1  0  0  0
 46 70  1  0  0  0
 46 71  1  0  0  0
M  CHG  4  11  -1  12  -1  44  -1  45  -1
M  END
> <s_m_source_file>
../2cne_ligand.sdf

> <i_m_source_file_index>
1

> <s_epik_input>
W09IXVAoPU8pKFtPSF0pQyhGKShGKWMxW2NIXVtjSF1jKFtjSF1bY0hdMSlbQ0gyXUMoPU8pW05IXVtDQEBIXShbQ0gyXWMyW2NIXVtjSF1bY0hdW2NIXVtjSF0yKUMoPU8pW05IXVtDQEhdKEMoPU8pW05IMl0pW0NIMl1jM1tjSF1bY0hdYyhbY0hdW2NIXTMpQyhGKShGKVAoPU8pKFtPSF0pW09IXQ==

> <s_epik_cmdline>
J2VwaWtfYXBwJywgJy1pbWFlJywgJ2xpZ2FuZF9wcm8ubWFlJywgJy1vbWFlJywgJ2xpZ2FuZF9wcmVwLm1hZScsICctbXMnLCAnMScsICctcGgnLCAnNycsICctcGh0JywgJzAuNScsICctbnQn

> <r_lp_tautomer_probability>
1

> <r_epik_Ionization_Penalty>
  0.0287

> <r_epik_Ionization_Penalty_Charging>
  0.0287

> <r_epik_Ionization_Penalty_Neutral>
  0.0000

> <r_epik_State_Penalty>
 -0.0000

> <r_epik_Charging_Adjusted_Penalty>
0.0286934130638913

> <i_epik_Tot_Q>
-4

> <i_epik_Tot_abs_Q>
4

$$$$
