2cnf_ligand
                    3D
 Schrodinger Suite 2020-3.
 55 60  0  0  1  0            999 V2000
   19.4170   16.5400   83.2150 C   0  0  2  0  0  0
   20.7530   17.0010   82.6910 C   0  0  0  0  0  0
   21.8460   16.1690   83.3330 C   0  0  0  0  0  0
   21.4190   15.0290   83.8800 N   0  0  0  0  0  0
   19.6810   14.8000   83.5140 S   0  0  0  0  0  0
   18.8400   14.2580   84.8410 O   0  0  0  0  0  0
   19.4790   13.8540   82.1290 O   0  0  0  0  0  0
   23.0360   16.4570   83.3580 O   0  5  0  0  0  0
   18.1700   16.8260   82.3540 C   0  0  0  0  0  0
   18.2520   16.7570   80.8900 C   0  0  0  0  0  0
   17.0490   17.0150   80.0840 C   0  0  0  0  0  0
   15.7750   17.3390   80.7530 C   0  0  0  0  0  0
   15.7010   17.4080   82.2110 C   0  0  0  0  0  0
   16.8980   17.1510   83.0050 C   0  0  0  0  0  0
   14.5420   17.6010   79.9300 C   0  0  0  0  0  0
   13.9430   18.9810   80.1960 C   0  0  2  0  0  0
   12.5920   18.9940   79.6370 N   0  0  0  0  0  0
   17.7700   23.2890   78.2110 C   0  0  0  0  0  0
   17.2380   22.6620   79.4490 C   0  0  0  0  0  0
   16.2260   21.6070   79.3080 C   0  0  0  0  0  0
   15.7510   21.1790   78.0210 C   0  0  0  0  0  0
   16.2500   21.7770   76.7720 C   0  0  0  0  0  0
   17.2770   22.8470   76.8770 C   0  0  0  0  0  0
   15.6230   20.8880   80.3550 N   0  0  0  0  0  0
   14.8080   20.0560   79.5430 C   0  0  0  0  0  0
   14.8000   20.1500   78.1260 N   0  3  0  0  0  0
    7.4390   21.3340   82.5600 C   0  0  0  0  0  0
    7.7420   20.6070   81.3090 C   0  0  0  0  0  0
    9.1430   20.2410   80.9950 C   0  0  0  0  0  0
   10.2320   20.5970   81.9220 C   0  0  0  0  0  0
    9.9310   21.3190   83.1670 C   0  0  0  0  0  0
    8.5370   21.6890   83.4890 C   0  0  0  0  0  0
    9.8740   19.3740   79.6030 S   0  0  0  0  0  0
   11.5040   19.5490   80.3360 C   0  0  0  0  0  0
   11.5550   20.2250   81.5780 N   0  0  0  0  0  0
   19.1604   17.2618   84.0044 H   0  0  0  0  0  0
   20.7821   16.8740   81.5987 H   0  0  0  0  0  0
   20.8984   18.0624   82.9407 H   0  0  0  0  0  0
   19.1974   16.5163   80.4038 H   0  0  0  0  0  0
   17.0988   16.9669   78.9962 H   0  0  0  0  0  0
   14.7583   17.6497   82.7018 H   0  0  0  0  0  0
   16.8455   17.2012   84.0926 H   0  0  0  0  0  0
   14.7953   17.5422   78.8612 H   0  0  0  0  0  0
   13.7760   16.8481   80.1672 H   0  0  0  0  0  0
   13.8607   19.1936   81.2721 H   0  0  0  0  0  0
   12.4038   18.5618   78.6431 H   0  0  0  0  0  0
   18.5228   24.0743   78.2795 H   0  0  0  0  0  0
   17.5884   22.9758   80.4323 H   0  0  0  0  0  0
   15.8788   21.4463   75.8020 H   0  0  0  0  0  0
   17.6712   23.3105   75.9726 H   0  0  0  0  0  0
    6.4112   21.6079   82.7981 H   0  0  0  0  0  0
    6.9391   20.3416   80.6213 H   0  0  0  0  0  0
   10.7365   21.5815   83.8528 H   0  0  0  0  0  0
    8.3161   22.2245   84.4124 H   0  0  0  0  0  0
   14.3449   19.7269   77.2183 H   0  0  0  0  0  0
  1  2  1  0  0  0
  1  5  1  0  0  0
  1  9  1  0  0  0
  1 36  1  0  0  0
  2  3  1  0  0  0
  2 37  1  0  0  0
  2 38  1  0  0  0
  3  4  2  0  0  0
  3  8  1  0  0  0
  4  5  1  0  0  0
  5  6  2  0  0  0
  5  7  2  0  0  0
  9 10  2  0  0  0
  9 14  1  0  0  0
 10 11  1  0  0  0
 10 39  1  0  0  0
 11 12  2  0  0  0
 11 40  1  0  0  0
 12 13  1  0  0  0
 12 15  1  0  0  0
 13 14  2  0  0  0
 13 41  1  0  0  0
 14 42  1  0  0  0
 15 16  1  0  0  0
 15 43  1  0  0  0
 15 44  1  0  0  0
 16 17  1  0  0  0
 16 25  1  0  0  0
 16 45  1  0  0  0
 17 34  1  0  0  0
 17 46  1  0  0  0
 18 19  2  0  0  0
 18 23  1  0  0  0
 18 47  1  0  0  0
 19 20  1  0  0  0
 19 48  1  0  0  0
 20 21  2  0  0  0
 20 24  1  0  0  0
 21 22  1  0  0  0
 21 26  1  0  0  0
 22 23  2  0  0  0
 22 49  1  0  0  0
 23 50  1  0  0  0
 24 25  2  0  0  0
 25 26  1  0  0  0
 26 55  1  0  0  0
 27 28  2  0  0  0
 27 32  1  0  0  0
 27 51  1  0  0  0
 28 29  1  0  0  0
 28 52  1  0  0  0
 29 30  2  0  0  0
 29 33  1  0  0  0
 30 31  1  0  0  0
 30 35  1  0  0  0
 31 32  2  0  0  0
 31 53  1  0  0  0
 32 54  1  0  0  0
 33 34  1  0  0  0
 34 35  2  0  0  0
M  CHG  2   8  -1  26   1
M  END
> <s_m_source_file>
../2cnf_ligand.sdf

> <i_m_source_file_index>
1

> <s_epik_input>
W05IXTFDKD1PKVtDSDJdW0NASF0oUzEoPU8pPU8pYzJbY0hdW2NIXWMoW2NIXVtjSF0yKVtDSDJdW0NAQEhdKGMobjMpW25IXWMoYzM0KVtjSF1bY0hdW2NIXVtjSF00KVtOSF1jKHM1KW5jKGM1NilbY0hdW2NIXVtjSF1bY0hdNg==

> <s_epik_cmdline>
J2VwaWtfYXBwJywgJy1pbWFlJywgJ2xpZ2FuZF9wcm8ubWFlJywgJy1vbWFlJywgJ2xpZ2FuZF9wcmVwLm1hZScsICctbXMnLCAnMScsICctcGgnLCAnNycsICctcGh0JywgJzAuNScsICctbnQn

> <r_epik_Ionization_Penalty>
  0.0025

> <r_epik_Ionization_Penalty_Charging>
  0.0000

> <r_epik_Ionization_Penalty_Neutral>
  0.0025

> <r_epik_State_Penalty>
  0.0000

> <r_epik_Charging_Adjusted_Penalty>
4.60575911595142e-05

> <i_epik_Tot_Q>
0

> <i_epik_Tot_abs_Q>
2

> <s_epik_Chemistry_Notes>
This compound has an imine and may undergo hydrolysis.

$$$$
