2cng_ligand
                    3D
 Schrodinger Suite 2020-3.
 51 54  0  0  1  0            999 V2000
    5.9160   10.8390   49.1060 C   0  0  2  0  0  0
    6.1830   12.2230   48.6140 C   0  0  0  0  0  0
    7.3920   12.7570   49.3270 C   0  0  0  0  0  0
    8.1520   11.8190   49.8670 N   0  0  0  0  0  0
    7.5610   10.1750   49.4430 S   0  0  0  0  0  0
    7.4850    9.0530   50.6310 O   0  0  0  0  0  0
    8.0970    9.5930   48.0470 O   0  0  0  0  0  0
    7.6920   13.9370   49.4500 O   0  5  0  0  0  0
    5.0870    9.9100   48.2600 C   0  0  0  0  0  0
    5.2100    9.9330   46.7940 C   0  0  0  0  0  0
    4.4050    9.0210   45.9870 C   0  0  0  0  0  0
    3.4790    8.0900   46.6460 C   0  0  0  0  0  0
    3.3640    8.0780   48.1010 C   0  0  0  0  0  0
    4.1640    8.9850   48.9030 C   0  0  0  0  0  0
    2.6470    7.1410   45.8240 C   0  0  0  0  0  0
    1.1450    7.3090   46.1010 C   0  0  2  0  0  0
    0.4280    6.2270   45.4160 N   0  0  0  0  0  0
   -0.4890   12.9260   44.3330 C   0  0  0  0  0  0
   -0.3270   12.0680   45.5210 C   0  0  0  0  0  0
    0.0620   10.6740   45.3630 C   0  0  0  0  0  0
    0.2570   10.1370   44.0200 C   0  0  0  0  0  0
    0.0680   10.9650   42.8330 C   0  0  0  0  0  0
   -0.2900   12.3660   42.9840 C   0  0  0  0  0  0
    0.3420    9.7300   46.3550 N   0  0  0  0  0  0
    0.7170    8.6520   45.5310 C   0  0  0  0  0  0
    0.7010    8.8140   44.1310 N   0  3  0  0  0  0
   -0.8430   14.3180   44.5330 C   0  0  0  0  0  0
   -0.1750   15.2050   43.6320 F   0  0  0  0  0  0
   -0.4500   14.8640   45.7810 F   0  0  0  0  0  0
   -2.2330   14.5230   44.3920 F   0  0  0  0  0  0
   -0.8310    5.9530   45.7520 C   0  0  0  0  0  0
   -1.5740    4.8780   45.0040 C   0  0  0  0  0  0
   -1.3940    6.5790   46.6590 O   0  0  0  0  0  0
   -2.9420    4.8140   45.3780 F   0  0  0  0  0  0
   -0.9190    3.6360   45.0130 F   0  0  0  0  0  0
   -1.6050    5.1590   43.6240 F   0  0  0  0  0  0
    5.1162   10.9933   49.8452 H   0  0  0  0  0  0
    6.3672   12.1975   47.5298 H   0  0  0  0  0  0
    5.3116   12.8609   48.8230 H   0  0  0  0  0  0
    5.8987   10.6275   46.3129 H   0  0  0  0  0  0
    4.4905    9.0307   44.9004 H   0  0  0  0  0  0
    2.6756    7.3861   48.5863 H   0  0  0  0  0  0
    4.0739    8.9739   49.9892 H   0  0  0  0  0  0
    2.8235    7.3304   44.7549 H   0  0  0  0  0  0
    2.9278    6.1049   46.0640 H   0  0  0  0  0  0
    0.8958    7.2441   47.1704 H   0  0  0  0  0  0
    0.9308    5.6463   44.6286 H   0  0  0  0  0  0
   -0.4983   12.4770   46.5167 H   0  0  0  0  0  0
    0.1945   10.5355   41.8392 H   0  0  0  0  0  0
   -0.4106   12.9987   42.1047 H   0  0  0  0  0  0
    0.9232    8.2306   43.2253 H   0  0  0  0  0  0
  1  2  1  0  0  0
  1  5  1  0  0  0
  1  9  1  0  0  0
  1 37  1  0  0  0
  2  3  1  0  0  0
  2 38  1  0  0  0
  2 39  1  0  0  0
  3  4  2  0  0  0
  3  8  1  0  0  0
  4  5  1  0  0  0
  5  6  2  0  0  0
  5  7  2  0  0  0
  9 10  2  0  0  0
  9 14  1  0  0  0
 10 11  1  0  0  0
 10 40  1  0  0  0
 11 12  2  0  0  0
 11 41  1  0  0  0
 12 13  1  0  0  0
 12 15  1  0  0  0
 13 14  2  0  0  0
 13 42  1  0  0  0
 14 43  1  0  0  0
 15 16  1  0  0  0
 15 44  1  0  0  0
 15 45  1  0  0  0
 16 17  1  0  0  0
 16 25  1  0  0  0
 16 46  1  0  0  0
 17 31  1  0  0  0
 17 47  1  0  0  0
 18 19  2  0  0  0
 18 23  1  0  0  0
 18 27  1  0  0  0
 19 20  1  0  0  0
 19 48  1  0  0  0
 20 21  2  0  0  0
 20 24  1  0  0  0
 21 22  1  0  0  0
 21 26  1  0  0  0
 22 23  2  0  0  0
 22 49  1  0  0  0
 23 50  1  0  0  0
 24 25  2  0  0  0
 25 26  1  0  0  0
 26 51  1  0  0  0
 27 28  1  0  0  0
 27 29  1  0  0  0
 27 30  1  0  0  0
 31 32  1  0  0  0
 31 33  2  0  0  0
 32 34  1  0  0  0
 32 35  1  0  0  0
 32 36  1  0  0  0
M  CHG  2   8  -1  26   1
M  END
> <s_m_source_file>
../2cng_ligand.sdf

> <i_m_source_file_index>
1

> <s_epik_input>
W05IXTFDKD1PKVtDSDJdW0NASF0oUzEoPU8pPU8pYzJbY0hdW2NIXWMoW2NIXVtjSF0yKVtDSDJdW0NASF0oW05IXUMoPU8pQyhGKShGKUYpYyhuMylbbkhdYyhjMzQpW2NIXVtjSF1jKFtjSF00KUMoRikoRilG

> <s_epik_cmdline>
J2VwaWtfYXBwJywgJy1pbWFlJywgJ2xpZ2FuZF9wcm8ubWFlJywgJy1vbWFlJywgJ2xpZ2FuZF9wcmVwLm1hZScsICctbXMnLCAnMScsICctcGgnLCAnNycsICctcGh0JywgJzAuNScsICctbnQn

> <r_epik_Ionization_Penalty>
  0.0003

> <r_epik_Ionization_Penalty_Charging>
  0.0000

> <r_epik_Ionization_Penalty_Neutral>
  0.0003

> <r_epik_State_Penalty>
  0.2094

> <r_epik_Charging_Adjusted_Penalty>
0.209355047350471

> <i_epik_Tot_Q>
0

> <i_epik_Tot_abs_Q>
2

> <s_epik_Chemistry_Notes>
This compound has an imine and may undergo hydrolysis.

$$$$
