2cnh_ligand
                    3D
 Schrodinger Suite 2020-3.
 66 71  0  0  1  0            999 V2000
   19.4890   16.6620   81.4060 C   0  0  2  0  0  0
   20.8210   17.1900   80.9500 C   0  0  0  0  0  0
   21.8930   16.3940   81.6000 C   0  0  0  0  0  0
   21.5010   15.1850   82.0170 N   0  0  0  0  0  0
   19.7760   14.9170   81.6510 S   0  0  0  0  0  0
   18.9720   14.4430   82.9620 O   0  0  0  0  0  0
   19.6420   14.0860   80.2520 O   0  0  0  0  0  0
   23.0440   16.7680   81.7700 O   0  5  0  0  0  0
   18.2840   16.9220   80.5280 C   0  0  0  0  0  0
   18.4170   16.8970   79.0690 C   0  0  0  0  0  0
   17.2350   17.1070   78.2290 C   0  0  0  0  0  0
   15.9240   17.3440   78.8560 C   0  0  0  0  0  0
   15.7990   17.3710   80.3120 C   0  0  0  0  0  0
   16.9720   17.1610   81.1470 C   0  0  0  0  0  0
   14.7130   17.5900   77.9990 C   0  0  0  0  0  0
   14.1330   18.9900   78.2310 C   0  0  2  0  0  0
   12.8100   19.0650   77.5950 N   0  0  3  0  0  0
   11.7160   20.3830   78.0110 S   0  0  0  0  0  0
   10.2450   19.7860   77.5090 O   0  0  0  0  0  0
   11.8340   20.6580   79.6590 O   0  0  0  0  0  0
   17.9850   23.5440   76.3940 C   0  0  0  0  0  0
   17.4790   22.8450   77.5990 C   0  0  0  0  0  0
   16.5060   21.7390   77.4550 C   0  0  0  0  0  0
   16.0420   21.3370   76.1210 C   0  0  0  0  0  0
   16.5420   22.0310   74.9170 C   0  0  0  0  0  0
   17.5160   23.1380   75.0540 C   0  0  0  0  0  0
   15.8760   20.9260   78.4170 N   0  0  0  0  0  0
   15.0580   20.0610   77.6580 C   0  0  0  0  0  0
   15.1290   20.2730   76.2620 N   0  3  0  0  0  0
   15.2120   25.6060   77.1330 C   0  0  0  0  0  0
   14.2070   24.8990   77.8540 O   0  0  0  0  0  0
   13.5820   23.9570   77.1360 C   0  0  0  0  0  0
   13.4300   24.0590   75.6800 C   0  0  0  0  0  0
   14.0660   25.1090   74.9920 N   0  0  0  0  0  0
   14.7030   26.1560   75.8070 C   0  0  0  0  0  0
   13.0460   22.8010   77.8440 C   0  0  0  0  0  0
   12.3010   21.7820   77.1110 C   0  0  0  0  0  0
   12.0750   21.9270   75.6680 C   0  0  0  0  0  0
   12.6300   23.0730   74.9560 C   0  0  0  0  0  0
   14.2300   25.0330   73.5380 C   0  0  0  0  0  0
   19.1870   17.3602   82.2005 H   0  0  0  0  0  0
   20.8969   17.0983   79.8565 H   0  0  0  0  0  0
   20.9137   18.2480   81.2366 H   0  0  0  0  0  0
   19.3906   16.7230   78.6108 H   0  0  0  0  0  0
   17.3259   17.0878   77.1430 H   0  0  0  0  0  0
   14.8270   17.5485   80.7723 H   0  0  0  0  0  0
   16.8779   17.1809   82.2327 H   0  0  0  0  0  0
   14.9901   17.5002   76.9383 H   0  0  0  0  0  0
   13.9370   16.8483   78.2392 H   0  0  0  0  0  0
   13.9972   19.1795   79.3060 H   0  0  0  0  0  0
   12.5682   18.4047   76.7491 H   0  0  0  0  0  0
   18.7031   24.3575   76.4969 H   0  0  0  0  0  0
   17.8227   23.1448   78.5890 H   0  0  0  0  0  0
   16.1946   21.7288   73.9290 H   0  0  0  0  0  0
   17.8861   23.6523   74.1671 H   0  0  0  0  0  0
   15.5680   26.4541   77.7363 H   0  0  0  0  0  0
   16.0530   24.9303   76.9181 H   0  0  0  0  0  0
   13.9611   26.9453   75.9981 H   0  0  0  0  0  0
   15.5450   26.5746   75.2362 H   0  0  0  0  0  0
   13.2011   22.6978   78.9180 H   0  0  0  0  0  0
   11.4932   21.1793   75.1290 H   0  0  0  0  0  0
   12.4487   23.1935   73.8880 H   0  0  0  0  0  0
   13.6645   24.1731   73.1497 H   0  0  0  0  0  0
   15.2959   24.9108   73.2951 H   0  0  0  0  0  0
   13.8528   25.9581   73.0776 H   0  0  0  0  0  0
   14.6663   19.8236   75.3710 H   0  0  0  0  0  0
  1  2  1  0  0  0
  1  5  1  0  0  0
  1  9  1  0  0  0
  1 41  1  0  0  0
  2  3  1  0  0  0
  2 42  1  0  0  0
  2 43  1  0  0  0
  3  4  2  0  0  0
  3  8  1  0  0  0
  4  5  1  0  0  0
  5  6  2  0  0  0
  5  7  2  0  0  0
  9 10  2  0  0  0
  9 14  1  0  0  0
 10 11  1  0  0  0
 10 44  1  0  0  0
 11 12  2  0  0  0
 11 45  1  0  0  0
 12 13  1  0  0  0
 12 15  1  0  0  0
 13 14  2  0  0  0
 13 46  1  0  0  0
 14 47  1  0  0  0
 15 16  1  0  0  0
 15 48  1  0  0  0
 15 49  1  0  0  0
 16 17  1  0  0  0
 16 28  1  0  0  0
 16 50  1  0  0  0
 17 18  1  0  0  0
 17 51  1  0  0  0
 18 19  2  0  0  0
 18 20  2  0  0  0
 18 37  1  0  0  0
 21 22  2  0  0  0
 21 26  1  0  0  0
 21 52  1  0  0  0
 22 23  1  0  0  0
 22 53  1  0  0  0
 23 24  2  0  0  0
 23 27  1  0  0  0
 24 25  1  0  0  0
 24 29  1  0  0  0
 25 26  2  0  0  0
 25 54  1  0  0  0
 26 55  1  0  0  0
 27 28  2  0  0  0
 28 29  1  0  0  0
 29 66  1  0  0  0
 30 31  1  0  0  0
 30 35  1  0  0  0
 30 56  1  0  0  0
 30 57  1  0  0  0
 31 32  1  0  0  0
 32 33  2  0  0  0
 32 36  1  0  0  0
 33 34  1  0  0  0
 33 39  1  0  0  0
 34 35  1  0  0  0
 34 40  1  0  0  0
 35 58  1  0  0  0
 35 59  1  0  0  0
 36 37  2  0  0  0
 36 60  1  0  0  0
 37 38  1  0  0  0
 38 39  2  0  0  0
 38 61  1  0  0  0
 39 62  1  0  0  0
 40 63  1  0  0  0
 40 64  1  0  0  0
 40 65  1  0  0  0
M  CHG  2   8  -1  29   1
M  END
> <s_m_source_file>
../2cnh_ligand.sdf

> <i_m_source_file_index>
1

> <s_epik_input>
W05IXTFDKD1PKVtDSDJdW0NASF0oUzEoPU8pPU8pYzJbY0hdW2NIXWMoW2NIXVtjSF0yKVtDSDJdW0NAQEhdKGMobjMpW25IXWMoYzM0KVtjSF1bY0hdW2NIXVtjSF00KVtOSF1TKD1PKSg9TyljKFtjSF01KVtjSF1bY0hdYyhjNTYpTihbQ0gzXSlbQ0gyXVtDSDJdTzY=

> <s_epik_cmdline>
J2VwaWtfYXBwJywgJy1pbWFlJywgJ2xpZ2FuZF9wcm8ubWFlJywgJy1vbWFlJywgJ2xpZ2FuZF9wcmVwLm1hZScsICctbXMnLCAnMScsICctcGgnLCAnNycsICctcGh0JywgJzAuNScsICctbnQn

> <r_epik_Ionization_Penalty>
  0.0002

> <r_epik_Ionization_Penalty_Charging>
  0.0000

> <r_epik_Ionization_Penalty_Neutral>
  0.0002

> <r_epik_State_Penalty>
  0.0000

> <r_epik_Charging_Adjusted_Penalty>
2.09952297506131e-05

> <i_epik_Tot_Q>
0

> <i_epik_Tot_abs_Q>
2

> <s_epik_Chemistry_Notes>
This compound has an imine and may undergo hydrolysis.

$$$$
