2cni_ligand
                    3D
 Schrodinger Suite 2020-3.
 80 83  0  0  1  0            999 V2000
   18.9790   16.7510   82.0810 C   0  0  2  0  0  0
   20.2880   17.3520   81.6380 C   0  0  0  0  0  0
   21.3960   16.6130   82.2880 C   0  0  0  0  0  0
   21.0720   15.3830   82.6970 N   0  0  0  0  0  0
   19.3600   14.9850   82.3430 S   0  0  0  0  0  0
   18.4980   14.5970   83.7200 O   0  0  0  0  0  0
   19.0820   14.1180   80.9170 O   0  0  0  0  0  0
   22.5140   17.0710   82.4850 O   0  5  0  0  0  0
   17.7890   16.9800   81.1460 C   0  0  0  0  0  0
   17.9760   16.9510   79.6950 C   0  0  0  0  0  0
   16.8220   17.1470   78.8100 C   0  0  0  0  0  0
   15.4890   17.3690   79.3870 C   0  0  0  0  0  0
   15.3140   17.4010   80.8330 C   0  0  0  0  0  0
   16.4550   17.2090   81.7090 C   0  0  0  0  0  0
   14.2990   17.5610   78.4870 C   0  0  0  0  0  0
   13.6960   18.9600   78.6360 C   0  0  2  0  0  0
   12.3880   18.9820   77.9620 N   0  0  3  0  0  0
   11.2440   20.2700   78.2180 S   0  0  0  0  0  0
    9.6420   19.6250   78.0160 O   0  0  0  0  0  0
   11.5240   20.8180   79.7740 O   0  0  0  0  0  0
   15.6240   21.0190   76.0430 C   0  0  0  0  0  0
   14.7900   20.0250   76.7400 N   0  0  0  0  0  0
   14.6740   19.9710   78.0630 C   0  0  0  0  0  0
   11.5530   22.3420   74.5890 C   0  0  0  0  0  0
   12.4470   23.4430   74.9620 C   0  0  0  0  0  0
   11.1610   21.3480   75.5920 C   0  0  0  0  0  0
   11.6610   21.4580   76.9640 C   0  0  0  0  0  0
   12.5520   22.5580   77.3380 C   0  0  0  0  0  0
   12.9470   23.5510   76.3360 C   0  0  0  0  0  0
   16.8840   19.3850   74.5090 C   0  0  0  0  0  0
   16.9930   20.4720   75.5760 C   0  0  0  0  0  0
   15.3550   20.6900   78.7890 O   0  0  0  0  0  0
   16.2490   17.2640   83.3700 Cl  0  0  0  0  0  0
   16.6110   18.0160   75.1240 C   0  0  0  0  0  0
   16.5800   16.9240   74.0610 C   0  0  0  0  0  0
   18.0560   16.2540   72.2310 C   0  0  0  0  0  0
   17.0590   15.4080   71.5800 C   0  0  0  0  0  0
   17.2940   14.9160   70.2220 C   0  0  0  0  0  0
   18.5240   15.2680   69.5230 C   0  0  0  0  0  0
   19.5160   16.1110   70.1790 C   0  0  0  0  0  0
   19.2750   16.6050   71.5350 C   0  0  0  0  0  0
   20.2970   17.4880   72.2110 C   0  0  0  0  0  0
   21.4760   17.0340   72.4170 O   0  0  0  0  0  0
   19.9200   18.6190   72.6640 O   0  0  0  0  0  0
   20.8060   19.3240   73.3860 C   0  0  0  0  0  0
   20.6570   16.4220   69.5450 O   0  0  0  0  0  0
   17.8500   16.6970   73.4780 O   0  0  0  0  0  0
   18.6219   17.4196   82.8782 H   0  0  0  0  0  0
   20.3769   17.2717   80.5445 H   0  0  0  0  0  0
   20.3232   18.4114   81.9319 H   0  0  0  0  0  0
   18.9674   16.7847   79.2737 H   0  0  0  0  0  0
   16.9532   17.1280   77.7281 H   0  0  0  0  0  0
   14.3244   17.5694   81.2576 H   0  0  0  0  0  0
   14.6061   17.4263   77.4394 H   0  0  0  0  0  0
   13.5248   16.8217   78.7401 H   0  0  0  0  0  0
   13.4915   19.2341   79.6815 H   0  0  0  0  0  0
   12.1731   18.2662   77.1548 H   0  0  0  0  0  0
   15.0950   21.3787   75.1482 H   0  0  0  0  0  0
   15.8244   21.8659   76.7157 H   0  0  0  0  0  0
   14.2247   19.2791   76.1621 H   0  0  0  0  0  0
   11.1807   22.2631   73.5676 H   0  0  0  0  0  0
   12.7402   24.1822   74.2166 H   0  0  0  0  0  0
   10.4980   20.5277   75.3171 H   0  0  0  0  0  0
   12.9209   22.6379   78.3606 H   0  0  0  0  0  0
   13.6120   24.3694   76.6117 H   0  0  0  0  0  0
   16.0593   19.6267   73.8223 H   0  0  0  0  0  0
   17.8266   19.3292   73.9447 H   0  0  0  0  0  0
   17.5896   21.2922   75.1501 H   0  0  0  0  0  0
   17.5266   20.0379   76.4344 H   0  0  0  0  0  0
   17.4029   17.7750   75.8485 H   0  0  0  0  0  0
   15.6377   18.0317   75.6363 H   0  0  0  0  0  0
   16.2426   15.9803   74.5145 H   0  0  0  0  0  0
   15.8862   17.2135   73.2580 H   0  0  0  0  0  0
   16.1411   15.1435   72.1050 H   0  0  0  0  0  0
   16.5500   14.2868   69.7335 H   0  0  0  0  0  0
   18.7015   14.9016   68.5119 H   0  0  0  0  0  0
   20.3464   20.2700   73.7083 H   0  0  0  0  0  0
   21.6926   19.5379   72.7711 H   0  0  0  0  0  0
   21.1047   18.7416   74.2700 H   0  0  0  0  0  0
   20.8385   16.0508   68.5256 H   0  0  0  0  0  0
  1  2  1  0  0  0
  1  5  1  0  0  0
  1  9  1  0  0  0
  1 48  1  0  0  0
  2  3  1  0  0  0
  2 49  1  0  0  0
  2 50  1  0  0  0
  3  4  2  0  0  0
  3  8  1  0  0  0
  4  5  1  0  0  0
  5  6  2  0  0  0
  5  7  2  0  0  0
  9 10  2  0  0  0
  9 14  1  0  0  0
 10 11  1  0  0  0
 10 51  1  0  0  0
 11 12  2  0  0  0
 11 52  1  0  0  0
 12 13  1  0  0  0
 12 15  1  0  0  0
 13 14  2  0  0  0
 13 53  1  0  0  0
 14 33  1  0  0  0
 15 16  1  0  0  0
 15 54  1  0  0  0
 15 55  1  0  0  0
 16 17  1  0  0  0
 16 23  1  0  0  0
 16 56  1  0  0  0
 17 18  1  0  0  0
 17 57  1  0  0  0
 18 19  2  0  0  0
 18 20  2  0  0  0
 18 27  1  0  0  0
 21 22  1  0  0  0
 21 31  1  0  0  0
 21 58  1  0  0  0
 21 59  1  0  0  0
 22 23  1  0  0  0
 22 60  1  0  0  0
 23 32  2  0  0  0
 24 25  2  0  0  0
 24 26  1  0  0  0
 24 61  1  0  0  0
 25 29  1  0  0  0
 25 62  1  0  0  0
 26 27  2  0  0  0
 26 63  1  0  0  0
 27 28  1  0  0  0
 28 29  2  0  0  0
 28 64  1  0  0  0
 29 65  1  0  0  0
 30 31  1  0  0  0
 30 34  1  0  0  0
 30 66  1  0  0  0
 30 67  1  0  0  0
 31 68  1  0  0  0
 31 69  1  0  0  0
 34 35  1  0  0  0
 34 70  1  0  0  0
 34 71  1  0  0  0
 35 47  1  0  0  0
 35 72  1  0  0  0
 35 73  1  0  0  0
 36 37  2  0  0  0
 36 41  1  0  0  0
 36 47  1  0  0  0
 37 38  1  0  0  0
 37 74  1  0  0  0
 38 39  2  0  0  0
 38 75  1  0  0  0
 39 40  1  0  0  0
 39 76  1  0  0  0
 40 41  2  0  0  0
 40 46  1  0  0  0
 41 42  1  0  0  0
 42 43  2  0  0  0
 42 44  1  0  0  0
 44 45  1  0  0  0
 45 77  1  0  0  0
 45 78  1  0  0  0
 45 79  1  0  0  0
 46 80  1  0  0  0
M  CHG  1   8  -1
M  END
> <s_m_source_file>
../2cni_ligand.sdf

> <i_m_source_file_index>
1

> <s_epik_input>
W05IXTFDKD1PKVtDSDJdW0NASF0oUzEoPU8pPU8pYzJbY0hdW2NIXWMoW2NIXWMyQ2wpW0NIMl1bQ0BIXShbTkhdUyg9TykoPU8pYzNbY0hdW2NIXVtjSF1bY0hdW2NIXTMpQyg9TylbTkhdW0NIMl1bQ0gyXVtDSDJdW0NIMl1bQ0gyXU9jNFtjSF1bY0hdW2NIXWMoW09IXSljNEMoPU8pT1tDSDNd

> <s_epik_cmdline>
J2VwaWtfYXBwJywgJy1pbWFlJywgJ2xpZ2FuZF9wcm8ubWFlJywgJy1vbWFlJywgJ2xpZ2FuZF9wcmVwLm1hZScsICctbXMnLCAnMScsICctcGgnLCAnNycsICctcGh0JywgJzAuNScsICctbnQn

> <r_epik_Ionization_Penalty>
  0.1498

> <r_epik_Ionization_Penalty_Charging>
  0.0000

> <r_epik_Ionization_Penalty_Neutral>
  0.1498

> <r_epik_State_Penalty>
  0.1388

> <r_epik_Charging_Adjusted_Penalty>
0.138753332983725

> <i_epik_Tot_Q>
-1

> <i_epik_Tot_abs_Q>
1

> <s_epik_Chemistry_Notes>
This compound has an ester and may undergo hydrolysis at high or low pH.

$$$$
