2co0_ligand
                    3D
 Schrodinger Suite 2020-3.
 92 91  0  0  1  0            999 V2000
    6.2170    3.1830   -0.6780 N   0  3  0  0  0  0
    4.9690    3.0850    0.1460 C   0  0  2  0  0  0
    5.2790    2.7360    1.5950 C   0  0  0  0  0  0
    4.3830    2.7240    2.4370 O   0  0  0  0  0  0
    4.0280    2.0700   -0.4280 C   0  0  0  0  0  0
    6.5480    2.4360    1.8700 N   0  0  0  0  0  0
    6.9990    2.1430    3.2300 C   0  0  2  0  0  0
    6.6620    3.4020    4.0370 C   0  0  0  0  0  0
    6.3890    3.3400    5.2310 O   0  0  0  0  0  0
    8.5220    1.8990    3.2420 C   0  0  0  0  0  0
    9.1530    1.7400    4.6340 C   0  0  0  0  0  0
   10.6910    1.6470    4.5550 C   0  0  0  0  0  0
   11.1370    0.4900    3.7760 N   0  0  0  0  0  0
   11.3150   -0.7360    4.2710 C   0  0  0  0  0  0
   11.0960   -0.9770    5.5580 N   0  3  0  0  0  0
   11.6870   -1.7290    3.4720 N   0  0  0  0  0  0
    6.6700    4.5400    3.3540 N   0  0  0  0  0  0
    6.3800    5.8260    3.9740 C   0  0  2  0  0  0
    4.9390    6.0010    4.4370 C   0  0  0  0  0  0
    4.6180    6.9730    5.1170 O   0  0  0  0  0  0
    6.7110    6.9770    3.0220 C   0  0  2  0  0  0
    5.8940    6.8730    1.8530 O   0  0  0  0  0  0
    8.1710    6.9260    2.6290 C   0  0  0  0  0  0
    4.0670    5.0840    4.0430 N   0  0  0  0  0  0
    2.6760    5.1450    4.4610 C   0  0  2  0  0  0
    2.4600    3.9810    5.3950 C   0  0  0  0  0  0
    3.2030    3.0020    5.3440 O   0  0  0  0  0  0
    1.7240    5.0210    3.2790 C   0  0  0  0  0  0
    1.3550    6.3440    2.6560 C   0  0  0  0  0  0
    0.3000    6.1760    1.5760 C   0  0  0  0  0  0
    0.2320    7.4250    0.7230 C   0  0  0  0  0  0
   -0.6630    7.2600   -0.4380 N   0  3  0  0  0  0
    1.4520    4.0760    6.2510 N   0  0  0  0  0  0
    1.1900    2.9960    7.1930 C   0  0  2  0  0  0
    0.2020    1.9750    6.6190 C   0  0  0  0  0  0
   -0.8490    2.4090    6.0840 O   0  0  0  0  0  0
    0.6330    3.5800    8.4800 C   0  0  0  0  0  0
    0.3790    2.5530    9.5520 C   0  0  0  0  0  0
   -0.5300    3.0930   10.6310 C   0  0  0  0  0  0
   -0.4550    4.2740   10.9830 O   0  0  0  0  0  0
   -1.3860    2.2310   11.1750 N   0  0  0  0  0  0
    0.4930    0.7570    6.7210 N   0  0  0  0  0  0
    6.8898    3.9331   -0.2367 H   0  0  0  0  0  0
    5.9564    3.4826   -1.7039 H   0  0  0  0  0  0
    6.7207    2.2053   -0.6982 H   0  0  0  0  0  0
    4.4874    4.0732    0.1062 H   0  0  0  0  0  0
    3.8067    2.3258   -1.4747 H   0  0  0  0  0  0
    3.0944    2.0654    0.1536 H   0  0  0  0  0  0
    4.4922    1.0737   -0.3843 H   0  0  0  0  0  0
    7.2647    2.4127    1.0359 H   0  0  0  0  0  0
    6.4921    1.2409    3.6031 H   0  0  0  0  0  0
    8.7497    0.9753    2.6898 H   0  0  0  0  0  0
    9.0331    2.7476    2.7637 H   0  0  0  0  0  0
    8.8898    2.6075    5.2571 H   0  0  0  0  0  0
    8.7740    0.8213    5.1056 H   0  0  0  0  0  0
   11.0891    2.5542    4.0769 H   0  0  0  0  0  0
   11.1054    1.5553    5.5698 H   0  0  0  0  0  0
   11.3508    0.5991    2.7025 H   0  0  0  0  0  0
   10.7876   -0.1593    6.2260 H   0  0  0  0  0  0
   11.8702   -1.5368    2.4045 H   0  0  0  0  0  0
   11.8120   -2.7439    3.8775 H   0  0  0  0  0  0
    6.9069    4.4876    2.2811 H   0  0  0  0  0  0
    7.0337    5.7941    4.8581 H   0  0  0  0  0  0
    6.4783    7.9511    3.4770 H   0  0  0  0  0  0
    4.7980    6.8919    1.9445 H   0  0  0  0  0  0
    8.7963    7.0062    3.5304 H   0  0  0  0  0  0
    8.3974    7.7614    1.9501 H   0  0  0  0  0  0
    8.3808    5.9733    2.1208 H   0  0  0  0  0  0
    4.4097    4.2679    3.3899 H   0  0  0  0  0  0
    2.5147    6.1207    4.9427 H   0  0  0  0  0  0
    2.1919    4.4087    2.4940 H   0  0  0  0  0  0
    0.7900    4.5428    3.6090 H   0  0  0  0  0  0
    0.9562    7.0155    3.4306 H   0  0  0  0  0  0
    2.2485    6.7975    2.2022 H   0  0  0  0  0  0
    0.5595    5.3164    0.9405 H   0  0  0  0  0  0
   -0.6801    6.0029    2.0445 H   0  0  0  0  0  0
   -0.1452    8.2624    1.3284 H   0  0  0  0  0  0
    1.2370    7.6677    0.3474 H   0  0  0  0  0  0
   -0.6786    8.1907   -1.0241 H   0  0  0  0  0  0
   -1.6800    7.0305   -0.0872 H   0  0  0  0  0  0
   -0.2978    6.4358   -1.0683 H   0  0  0  0  0  0
    0.8132    4.9715    6.2494 H   0  0  0  0  0  0
    2.1611    2.5093    7.3663 H   0  0  0  0  0  0
    1.3458    4.3108    8.8896 H   0  0  0  0  0  0
   -0.3249    4.0791    8.2718 H   0  0  0  0  0  0
   -0.0976    1.6676    9.1060 H   0  0  0  0  0  0
    1.3337    2.2617   10.0144 H   0  0  0  0  0  0
   -1.4134    1.1884   10.8255 H   0  0  0  0  0  0
   -2.0660    2.5613   11.9741 H   0  0  0  0  0  0
    1.4341    0.4549    7.2037 H   0  0  0  0  0  0
   -0.1934   -0.0073    6.3276 H   0  0  0  0  0  0
   11.2230   -1.9944    5.9564 H   0  0  0  0  0  0
  1  2  1  0  0  0
  1 43  1  0  0  0
  1 44  1  0  0  0
  1 45  1  0  0  0
  2  3  1  0  0  0
  2  5  1  0  0  0
  2 46  1  0  0  0
  3  4  2  0  0  0
  3  6  1  0  0  0
  5 47  1  0  0  0
  5 48  1  0  0  0
  5 49  1  0  0  0
  6  7  1  0  0  0
  6 50  1  0  0  0
  7  8  1  0  0  0
  7 10  1  0  0  0
  7 51  1  0  0  0
  8  9  2  0  0  0
  8 17  1  0  0  0
 10 11  1  0  0  0
 10 52  1  0  0  0
 10 53  1  0  0  0
 11 12  1  0  0  0
 11 54  1  0  0  0
 11 55  1  0  0  0
 12 13  1  0  0  0
 12 56  1  0  0  0
 12 57  1  0  0  0
 13 14  1  0  0  0
 13 58  1  0  0  0
 14 15  2  0  0  0
 14 16  1  0  0  0
 15 59  1  0  0  0
 15 92  1  0  0  0
 16 60  1  0  0  0
 16 61  1  0  0  0
 17 18  1  0  0  0
 17 62  1  0  0  0
 18 19  1  0  0  0
 18 21  1  0  0  0
 18 63  1  0  0  0
 19 20  2  0  0  0
 19 24  1  0  0  0
 21 22  1  0  0  0
 21 23  1  0  0  0
 21 64  1  0  0  0
 22 65  1  0  0  0
 23 66  1  0  0  0
 23 67  1  0  0  0
 23 68  1  0  0  0
 24 25  1  0  0  0
 24 69  1  0  0  0
 25 26  1  0  0  0
 25 28  1  0  0  0
 25 70  1  0  0  0
 26 27  2  0  0  0
 26 33  1  0  0  0
 28 29  1  0  0  0
 28 71  1  0  0  0
 28 72  1  0  0  0
 29 30  1  0  0  0
 29 73  1  0  0  0
 29 74  1  0  0  0
 30 31  1  0  0  0
 30 75  1  0  0  0
 30 76  1  0  0  0
 31 32  1  0  0  0
 31 77  1  0  0  0
 31 78  1  0  0  0
 32 79  1  0  0  0
 32 80  1  0  0  0
 32 81  1  0  0  0
 33 34  1  0  0  0
 33 82  1  0  0  0
 34 35  1  0  0  0
 34 37  1  0  0  0
 34 83  1  0  0  0
 35 36  2  0  0  0
 35 42  1  0  0  0
 37 38  1  0  0  0
 37 84  1  0  0  0
 37 85  1  0  0  0
 38 39  1  0  0  0
 38 86  1  0  0  0
 38 87  1  0  0  0
 39 40  2  0  0  0
 39 41  1  0  0  0
 41 88  1  0  0  0
 41 89  1  0  0  0
 42 90  1  0  0  0
 42 91  1  0  0  0
M  CHG  3   1   1  15   1  32   1
M  END
> <s_m_source_file>
../2co0_ligand.sdf

> <i_m_source_file_index>
1

> <s_epik_input>
W0hdL049QyhbTkgyXSlcW05IXVtDSDJdW0NIMl1bQ0gyXVtDQEhdKFtOSF1DKD1PKVtDQEBIXShbTkgzK10pW0NIM10pQyg9TylbTkhdW0NAQEhdKFtDQEhdKFtPSF0pW0NIM10pQyg9TylbTkhdW0NAQEhdKFtDSDJdW0NIMl1bQ0gyXVtDSDJdW05IMytdKUMoPU8pW05IXVtDQEhdKEMoPU8pW05IMl0pW0NIMl1bQ0gyXUMoPU8pW05IMl0=

> <s_epik_cmdline>
J2VwaWtfYXBwJywgJy1pbWFlJywgJ2xpZ2FuZF9wcm8ubWFlJywgJy1vbWFlJywgJ2xpZ2FuZF9wcmVwLm1hZScsICctbXMnLCAnMScsICctcGgnLCAnNycsICctcGh0JywgJzAuNScsICctbnQn

> <r_epik_Ionization_Penalty>
  0.1255

> <r_epik_Ionization_Penalty_Charging>
  0.1255

> <r_epik_Ionization_Penalty_Neutral>
  0.0000

> <r_epik_State_Penalty>
  0.1145

> <r_epik_Charging_Adjusted_Penalty>
0.240060233149322

> <i_epik_Tot_Q>
3

> <i_epik_Tot_abs_Q>
3

> <s_epik_Chemistry_Notes>
This compound has an imine and may undergo hydrolysis.

$$$$
