2csm_ligand
                    3D
 Schrodinger Suite 2020-3.
 24 24  0  0  1  0            999 V2000
   73.0690   71.4500   17.7680 N   0  3  0  0  0  0
   71.8060   72.1970   17.8620 C   0  0  2  0  0  0
   72.0030   73.5330   17.1720 C   0  0  0  0  0  0
   73.1500   73.8800   16.8340 O   0  5  0  0  0  0
   71.4050   72.3760   19.3310 C   0  0  0  0  0  0
   72.4570   73.0060   20.2280 C   0  0  0  0  0  0
   72.7510   74.3690   20.1480 C   0  0  0  0  0  0
   73.0930   72.2600   21.2230 C   0  0  0  0  0  0
   73.6440   74.9790   21.0450 C   0  0  0  0  0  0
   73.9880   72.8620   22.1240 C   0  0  0  0  0  0
   74.2540   74.2190   22.0310 C   0  0  0  0  0  0
   75.0990   74.8030   22.9570 O   0  0  0  0  0  0
   70.9930   74.1880   16.9080 O   0  0  0  0  0  0
   73.3453   71.3285   16.7102 H   0  0  0  0  0  0
   72.9446   70.4598   18.2305 H   0  0  0  0  0  0
   73.8619   72.0029   18.2929 H   0  0  0  0  0  0
   71.0171   71.6249   17.3517 H   0  0  0  0  0  0
   70.5184   73.0242   19.3927 H   0  0  0  0  0  0
   71.1728   71.3945   19.7699 H   0  0  0  0  0  0
   72.2777   74.9723   19.3733 H   0  0  0  0  0  0
   72.8915   71.1917   21.3021 H   0  0  0  0  0  0
   73.8562   76.0452   20.9660 H   0  0  0  0  0  0
   74.4723   72.2625   22.8948 H   0  0  0  0  0  0
   75.3207   75.8788   22.8976 H   0  0  0  0  0  0
  1  2  1  0  0  0
  1 14  1  0  0  0
  1 15  1  0  0  0
  1 16  1  0  0  0
  2  3  1  0  0  0
  2  5  1  0  0  0
  2 17  1  0  0  0
  3  4  1  0  0  0
  3 13  2  0  0  0
  5  6  1  0  0  0
  5 18  1  0  0  0
  5 19  1  0  0  0
  6  7  2  0  0  0
  6  8  1  0  0  0
  7  9  1  0  0  0
  7 20  1  0  0  0
  8 10  2  0  0  0
  8 21  1  0  0  0
  9 11  2  0  0  0
  9 22  1  0  0  0
 10 11  1  0  0  0
 10 23  1  0  0  0
 11 12  1  0  0  0
 12 24  1  0  0  0
M  CHG  2   1   1   4  -1
M  END
> <s_m_source_file>
../2csm_ligand.sdf

> <i_m_source_file_index>
1

> <s_epik_input>
W09IXUMoPU8pW0NAQEhdKFtOSDMrXSlbQ0gyXWMxW2NIXVtjSF1jKFtPSF0pW2NIXVtjSF0x

> <s_epik_cmdline>
J2VwaWtfYXBwJywgJy1pbWFlJywgJ2xpZ2FuZF9wcm8ubWFlJywgJy1vbWFlJywgJ2xpZ2FuZF9wcmVwLm1hZScsICctbXMnLCAnMScsICctcGgnLCAnNycsICctcGh0JywgJzAuNScsICctbnQn

> <r_lp_tautomer_probability>
1

> <r_epik_Ionization_Penalty>
  0.0054

> <r_epik_Ionization_Penalty_Charging>
  0.0034

> <r_epik_Ionization_Penalty_Neutral>
  0.0020

> <r_epik_State_Penalty>
 -0.0000

> <r_epik_Charging_Adjusted_Penalty>
0.00341371985801902

> <i_epik_Tot_Q>
0

> <i_epik_Tot_abs_Q>
2

$$$$
