2cv3_ligand
                    3D
 Schrodinger Suite 2020-3.
170176  0  0  1  0            999 V2000
   41.1690  -19.0070   38.1120 N   0  3  0  0  0  0
   40.2290  -19.1710   36.9810 C   0  0  2  0  0  0
   39.0400  -19.9460   37.4370 C   0  0  0  0  0  0
   39.2420  -21.0530   37.9530 O   0  0  0  0  0  0
   40.9340  -19.9150   35.8330 C   0  0  2  0  0  0
   42.1490  -19.2280   35.5390 O   0  0  0  0  0  0
   40.0180  -19.9730   34.5650 C   0  0  0  0  0  0
   37.8170  -19.3460   37.2370 N   0  0  0  0  0  0
   36.7230  -20.1210   37.7910 C   0  0  2  0  0  0
   36.2300  -21.1460   36.8040 C   0  0  0  0  0  0
   36.7220  -21.1920   35.6670 O   0  0  0  0  0  0
   35.6220  -19.1420   38.1490 C   0  0  2  0  0  0
   35.4520  -18.0840   37.1150 O   0  0  0  0  0  0
   35.9370  -18.5020   39.5090 C   0  0  0  0  0  0
   35.3710  -22.0570   37.3150 N   0  0  0  0  0  0
   35.1320  -23.2420   36.4350 C   0  0  2  0  0  0
   33.7590  -23.3350   35.8090 C   0  0  0  0  0  0
   33.1160  -24.3940   35.7990 O   0  0  0  0  0  0
   35.4240  -24.5680   37.1880 C   0  0  0  0  0  0
   36.8850  -24.8340   37.6100 C   0  0  0  0  0  0
   36.9660  -26.2110   38.2860 C   0  0  0  0  0  0
   37.8530  -24.7480   36.4010 C   0  0  0  0  0  0
   33.3370  -22.1700   35.3150 N   0  0  0  0  0  0
   32.0500  -22.1270   34.6410 C   0  0  2  0  0  0
   32.3480  -22.3960   33.1680 C   0  0  0  0  0  0
   33.3970  -21.9960   32.6940 O   0  0  0  0  0  0
   31.4330  -20.7590   34.8260 C   0  0  0  0  0  0
   30.0570  -20.5840   34.1410 C   0  0  0  0  0  0
   29.5220  -19.1620   34.4350 C   0  0  0  0  0  0
   28.1090  -18.8800   33.8250 C   0  0  0  0  0  0
   27.9570  -19.1630   32.3800 N   0  0  0  0  0  0
   31.3680  -23.0640   32.4750 N   0  0  0  0  0  0
   31.5960  -23.3380   31.0460 C   0  0  2  0  0  0
   30.7660  -22.3750   30.1600 C   0  0  0  0  0  0
   29.5460  -22.2230   30.4480 O   0  0  0  0  0  0
   31.1610  -24.8020   30.7300 C   0  0  0  0  0  0
   31.4320  -25.1240   29.2550 C   0  0  0  0  0  0
   32.7530  -25.5650   28.8740 C   0  0  0  0  0  0
   30.4040  -24.9690   28.2820 C   0  0  0  0  0  0
   33.0220  -25.8520   27.5030 C   0  0  0  0  0  0
   30.6920  -25.2550   26.9010 C   0  0  0  0  0  0
   31.9950  -25.6940   26.5310 C   0  0  0  0  0  0
   31.3180  -21.9110   28.9700 N   0  0  0  0  0  0
   32.7370  -21.9790   28.5400 C   0  0  2  0  0  0
   33.7880  -21.3230   29.4220 C   0  0  0  0  0  0
   34.9250  -21.7940   29.4420 O   0  0  0  0  0  0
   32.7380  -21.4280   27.1080 C   0  0  0  0  0  0
   31.3030  -20.9390   26.7910 C   0  0  0  0  0  0
   30.4490  -21.3180   27.9700 C   0  0  0  0  0  0
   33.3640  -20.2700   30.1340 N   0  0  0  0  0  0
   34.2960  -19.6200   31.0580 C   0  0  2  0  0  0
   33.4800  -18.7910   32.0310 C   0  0  0  0  0  0
   32.2540  -18.6640   31.9230 O   0  0  0  0  0  0
   35.2520  -18.6750   30.2480 C   0  0  0  0  0  0
   34.4730  -17.5610   29.6520 O   0  0  0  0  0  0
   34.2080  -18.2430   33.0230 N   0  0  0  0  0  0
   33.5110  -17.4270   34.0200 C   0  0  2  0  0  0
   32.8350  -16.1420   33.5280 C   0  0  0  0  0  0
   31.7470  -15.7690   34.0110 O   0  0  0  0  0  0
   34.5130  -17.0700   35.1330 C   0  0  0  0  0  0
   34.6090  -18.2530   36.0830 C   0  0  0  0  0  0
   33.9630  -19.2860   35.9370 O   0  0  0  0  0  0
   33.4200  -15.5170   32.5700 N   0  0  0  0  0  0
   33.4560  -14.2740   31.8110 C   0  0  2  0  0  0
   32.9180  -14.5040   30.4170 C   0  0  0  0  0  0
   33.0390  -13.5930   29.5810 O   0  0  0  0  0  0
   34.9600  -13.7160   31.7590 C   0  0  0  0  0  0
   36.0310  -14.5590   30.9640 C   0  0  0  0  0  0
   36.0860  -14.7880   29.5550 C   0  0  0  0  0  0
   37.2080  -15.3080   31.4690 C   0  0  0  0  0  0
   37.1360  -15.5820   29.1780 N   0  0  0  0  0  0
   37.8680  -15.9360   30.3240 C   0  0  0  0  0  0
   37.7570  -15.5110   32.7690 C   0  0  0  0  0  0
   39.0540  -16.7450   30.5080 C   0  0  0  0  0  0
   38.9470  -16.3200   32.9530 C   0  0  0  0  0  0
   39.5940  -16.9370   31.8330 C   0  0  0  0  0  0
   32.4000  -15.7780   30.1420 N   0  0  0  0  0  0
   32.0040  -16.0320   28.7420 C   0  0  2  0  0  0
   30.9610  -17.1380   28.5230 C   0  0  0  0  0  0
   31.0440  -17.8340   27.5100 O   0  0  0  0  0  0
   33.2820  -16.3330   27.9090 C   0  0  0  0  0  0
   34.1070  -17.5490   28.3830 C   0  0  0  0  0  0
   34.3900  -18.4340   27.6450 O   0  0  0  0  0  0
   29.9990  -17.2450   29.4010 N   0  0  0  0  0  0
   28.7220  -17.8140   28.9490 C   0  0  2  0  0  0
   28.1010  -18.2010   31.4770 C   0  0  0  0  0  0
   28.2050  -16.9950   31.7400 O   0  0  0  0  0  0
   27.6700  -16.7140   28.5630 C   0  0  0  0  0  0
   26.6030  -17.0660   28.0250 O   0  0  0  0  0  0
   27.9500  -15.5180   28.7830 O   0  0  0  0  0  0
   28.1290  -18.7660   30.0370 C   0  0  0  0  0  0
   40.6657  -18.4753   38.9329 H   0  0  0  0  0  0
   42.0432  -18.4271   37.7810 H   0  0  0  0  0  0
   41.4968  -19.9967   38.4627 H   0  0  0  0  0  0
   39.8936  -18.1744   36.6581 H   0  0  0  0  0  0
   41.2336  -20.9283   36.1386 H   0  0  0  0  0  0
   42.9099  -19.0965   36.3224 H   0  0  0  0  0  0
   39.0869  -20.5053   34.8093 H   0  0  0  0  0  0
   40.5430  -20.5042   33.7574 H   0  0  0  0  0  0
   39.7804  -18.9502   34.2372 H   0  0  0  0  0  0
   37.6129  -18.3929   36.7271 H   0  0  0  0  0  0
   37.0954  -20.6640   38.6722 H   0  0  0  0  0  0
   34.6695  -19.6916   38.1735 H   0  0  0  0  0  0
   36.0607  -19.2908   40.2656 H   0  0  0  0  0  0
   35.1099  -17.8389   39.8025 H   0  0  0  0  0  0
   36.8660  -17.9179   39.4330 H   0  0  0  0  0  0
   34.8636  -21.9834   38.2882 H   0  0  0  0  0  0
   35.8267  -23.0490   35.6042 H   0  0  0  0  0  0
   34.8398  -24.5969   38.1196 H   0  0  0  0  0  0
   35.1426  -25.4204   36.5522 H   0  0  0  0  0  0
   37.1954  -24.0619   38.3294 H   0  0  0  0  0  0
   36.2706  -26.2428   39.1377 H   0  0  0  0  0  0
   37.9918  -26.3842   38.6435 H   0  0  0  0  0  0
   36.6936  -26.9920   37.5609 H   0  0  0  0  0  0
   37.7736  -23.7535   35.9378 H   0  0  0  0  0  0
   37.5868  -25.5187   35.6626 H   0  0  0  0  0  0
   38.8850  -24.9109   36.7453 H   0  0  0  0  0  0
   33.9397  -21.2546   35.4087 H   0  0  0  0  0  0
   31.3668  -22.8723   35.0743 H   0  0  0  0  0  0
   31.2856  -20.5653   35.8987 H   0  0  0  0  0  0
   32.1022  -19.9948   34.4040 H   0  0  0  0  0  0
   30.1680  -20.7204   33.0551 H   0  0  0  0  0  0
   29.3536  -21.3326   34.5345 H   0  0  0  0  0  0
   29.4427  -19.0177   35.5226 H   0  0  0  0  0  0
   30.2133  -18.4162   34.0156 H   0  0  0  0  0  0
   27.3581  -19.4991   34.3377 H   0  0  0  0  0  0
   27.8588  -17.8168   33.9556 H   0  0  0  0  0  0
   27.7213  -20.1826   32.0410 H   0  0  0  0  0  0
   30.4347  -23.3921   32.9559 H   0  0  0  0  0  0
   32.6714  -23.1745   30.8825 H   0  0  0  0  0  0
   31.7308  -25.4985   31.3627 H   0  0  0  0  0  0
   30.0862  -24.9172   30.9337 H   0  0  0  0  0  0
   33.5351  -25.6772   29.6249 H   0  0  0  0  0  0
   29.4094  -24.6372   28.5798 H   0  0  0  0  0  0
   34.0125  -26.1917   27.2004 H   0  0  0  0  0  0
   29.9175  -25.1363   26.1433 H   0  0  0  0  0  0
   32.2094  -25.9128   25.4849 H   0  0  0  0  0  0
   33.0400  -23.0318   28.6391 H   0  0  0  0  0  0
   33.4511  -20.5935   27.0367 H   0  0  0  0  0  0
   33.0342  -22.2241   26.4090 H   0  0  0  0  0  0
   31.3107  -19.8485   26.6469 H   0  0  0  0  0  0
   30.9435  -21.4275   25.8733 H   0  0  0  0  0  0
   29.6837  -22.0488   27.6695 H   0  0  0  0  0  0
   29.9600  -20.4271   28.3910 H   0  0  0  0  0  0
   32.3357  -19.8923   30.0337 H   0  0  0  0  0  0
   34.8504  -20.4067   31.5907 H   0  0  0  0  0  0
   36.0177  -18.2631   30.9218 H   0  0  0  0  0  0
   35.7397  -19.2475   29.4452 H   0  0  0  0  0  0
   35.2951  -18.3932   33.0979 H   0  0  0  0  0  0
   32.6881  -18.0914   34.3224 H   0  0  0  0  0  0
   35.4970  -16.8620   34.6876 H   0  0  0  0  0  0
   34.1593  -16.1793   35.6729 H   0  0  0  0  0  0
   34.1215  -16.3292   32.3288 H   0  0  0  0  0  0
   32.7622  -13.5914   32.3235 H   0  0  0  0  0  0
   34.9665  -12.7231   31.2856 H   0  0  0  0  0  0
   35.3575  -13.6373   32.7817 H   0  0  0  0  0  0
   35.3649  -14.3726   28.8510 H   0  0  0  0  0  0
   37.2773  -15.0533   33.6342 H   0  0  0  0  0  0
   39.5382  -17.2081   29.6483 H   0  0  0  0  0  0
   39.3537  -16.4602   33.9545 H   0  0  0  0  0  0
   40.4860  -17.5459   31.9803 H   0  0  0  0  0  0
   32.2810  -16.5671   30.8991 H   0  0  0  0  0  0
   31.4935  -15.0992   28.4605 H   0  0  0  0  0  0
   33.0001  -16.5347   26.8650 H   0  0  0  0  0  0
   33.9564  -15.4648   27.9455 H   0  0  0  0  0  0
   30.1197  -16.9264   30.4469 H   0  0  0  0  0  0
   29.0096  -18.3743   28.0472 H   0  0  0  0  0  0
   27.2307  -14.7277   28.5221 H   0  0  0  0  0  0
   27.0877  -19.0116   29.7811 H   0  0  0  0  0  0
   28.7240  -19.6902   30.0792 H   0  0  0  0  0  0
  1  2  1  0  0  0
  1 92  1  0  0  0
  1 93  1  0  0  0
  1 94  1  0  0  0
  2  3  1  0  0  0
  2  5  1  0  0  0
  2 95  1  0  0  0
  3  4  2  0  0  0
  3  8  1  0  0  0
  5  6  1  0  0  0
  5  7  1  0  0  0
  5 96  1  0  0  0
  6 97  1  0  0  0
  7 98  1  0  0  0
  7 99  1  0  0  0
  7100  1  0  0  0
  8  9  1  0  0  0
  8101  1  0  0  0
  9 10  1  0  0  0
  9 12  1  0  0  0
  9102  1  0  0  0
 10 11  2  0  0  0
 10 15  1  0  0  0
 12 13  1  0  0  0
 12 14  1  0  0  0
 12103  1  0  0  0
 13 61  1  0  0  0
 14104  1  0  0  0
 14105  1  0  0  0
 14106  1  0  0  0
 15 16  1  0  0  0
 15107  1  0  0  0
 16 17  1  0  0  0
 16 19  1  0  0  0
 16108  1  0  0  0
 17 18  2  0  0  0
 17 23  1  0  0  0
 19 20  1  0  0  0
 19109  1  0  0  0
 19110  1  0  0  0
 20 21  1  0  0  0
 20 22  1  0  0  0
 20111  1  0  0  0
 21112  1  0  0  0
 21113  1  0  0  0
 21114  1  0  0  0
 22115  1  0  0  0
 22116  1  0  0  0
 22117  1  0  0  0
 23 24  1  0  0  0
 23118  1  0  0  0
 24 25  1  0  0  0
 24 27  1  0  0  0
 24119  1  0  0  0
 25 26  2  0  0  0
 25 32  1  0  0  0
 27 28  1  0  0  0
 27120  1  0  0  0
 27121  1  0  0  0
 28 29  1  0  0  0
 28122  1  0  0  0
 28123  1  0  0  0
 29 30  1  0  0  0
 29124  1  0  0  0
 29125  1  0  0  0
 30 31  1  0  0  0
 30126  1  0  0  0
 30127  1  0  0  0
 31 86  1  0  0  0
 31128  1  0  0  0
 32 33  1  0  0  0
 32129  1  0  0  0
 33 34  1  0  0  0
 33 36  1  0  0  0
 33130  1  0  0  0
 34 35  2  0  0  0
 34 43  1  0  0  0
 36 37  1  0  0  0
 36131  1  0  0  0
 36132  1  0  0  0
 37 38  2  0  0  0
 37 39  1  0  0  0
 38 40  1  0  0  0
 38133  1  0  0  0
 39 41  2  0  0  0
 39134  1  0  0  0
 40 42  2  0  0  0
 40135  1  0  0  0
 41 42  1  0  0  0
 41136  1  0  0  0
 42137  1  0  0  0
 43 44  1  0  0  0
 43 49  1  0  0  0
 44 45  1  0  0  0
 44 47  1  0  0  0
 44138  1  0  0  0
 45 46  2  0  0  0
 45 50  1  0  0  0
 47 48  1  0  0  0
 47139  1  0  0  0
 47140  1  0  0  0
 48 49  1  0  0  0
 48141  1  0  0  0
 48142  1  0  0  0
 49143  1  0  0  0
 49144  1  0  0  0
 50 51  1  0  0  0
 50145  1  0  0  0
 51 52  1  0  0  0
 51 54  1  0  0  0
 51146  1  0  0  0
 52 53  2  0  0  0
 52 56  1  0  0  0
 54 55  1  0  0  0
 54147  1  0  0  0
 54148  1  0  0  0
 55 82  1  0  0  0
 56 57  1  0  0  0
 56149  1  0  0  0
 57 58  1  0  0  0
 57 60  1  0  0  0
 57150  1  0  0  0
 58 59  2  0  0  0
 58 63  1  0  0  0
 60 61  1  0  0  0
 60151  1  0  0  0
 60152  1  0  0  0
 61 62  2  0  0  0
 63 64  1  0  0  0
 63153  1  0  0  0
 64 65  1  0  0  0
 64 67  1  0  0  0
 64154  1  0  0  0
 65 66  2  0  0  0
 65 77  1  0  0  0
 67 68  1  0  0  0
 67155  1  0  0  0
 67156  1  0  0  0
 68 69  2  0  0  0
 68 70  1  0  0  0
 69 71  1  0  0  0
 69157  1  0  0  0
 70 72  2  0  0  0
 70 73  1  0  0  0
 71 72  1  0  0  0
 72 74  1  0  0  0
 73 75  2  0  0  0
 73158  1  0  0  0
 74 76  2  0  0  0
 74159  1  0  0  0
 75 76  1  0  0  0
 75160  1  0  0  0
 76161  1  0  0  0
 77 78  1  0  0  0
 77162  1  0  0  0
 78 79  1  0  0  0
 78 81  1  0  0  0
 78163  1  0  0  0
 79 80  2  0  0  0
 79 84  1  0  0  0
 81 82  1  0  0  0
 81164  1  0  0  0
 81165  1  0  0  0
 82 83  2  0  0  0
 84 85  1  0  0  0
 84166  1  0  0  0
 85 88  1  0  0  0
 85 91  1  0  0  0
 85167  1  0  0  0
 86 87  2  0  0  0
 86 91  1  0  0  0
 88 89  2  0  0  0
 88 90  1  0  0  0
 90168  1  0  0  0
 91169  1  0  0  0
 91170  1  0  0  0
M  CHG  1   1   1
M  END
> <s_m_source_file>
../2cv3_ligand.sdf

> <i_m_source_file_index>
1

> <s_epik_input>
W0NIM11bQ0hdKFtDSDNdKVtDSDJdW0NAQEhdKEMoPU8pW05IXVtDQEhdMTIpW05IXUMoPU8pW0NAQEhdKFtOSF1DKD1PKVtDQEBIXShbTkgzK10pW0NASF0oW09IXSlbQ0gzXSlbQ0BASF0oW0NIM10pT0MoPU8pW0NIMl1bQ0BASF0zW05IXUMoPU8pW0NAQEhdKFtOSF1DKD1PKVtDQEhdNE4oW0NIMl1bQ0gyXVtDSDJdNClDKD1PKVtDQEBIXShbTkhdQzE9TylbQ0gyXWM1W2NIXVtjSF1bY0hdW2NIXVtjSF01KVtDSDJdT0MoPU8pW0NIMl1bQ0BASF0oQyg9TylbTkhdW0NASF0oQyg9TylbT0hdKVtDSDJdQyg9TylbTkhdW0NIMl1bQ0gyXVtDSDJdW0NIMl0yKVtOSF1DKD1PKVtDQEBIXShbTkhdQzM9TylbQ0gyXWM2W2NIXVtuSF1jKGM2NylbY0hdW2NIXVtjSF1bY0hdNw==

> <s_epik_cmdline>
J2VwaWtfYXBwJywgJy1pbWFlJywgJ2xpZ2FuZF9wcm8ubWFlJywgJy1vbWFlJywgJ2xpZ2FuZF9wcmVwLm1hZScsICctbXMnLCAnMScsICctcGgnLCAnNycsICctcGh0JywgJzAuNScsICctbnQn

> <s_epik_pKa_notes>
Molecule size exceeds maximum supported for generating protonation states

> <s_epik_Chemistry_Notes>
This compound has an ester and may undergo hydrolysis at high or low pH.

$$$$
