2cvd_ligand
                    3D
 Schrodinger Suite 2020-3.
 57 60  0  0  1  0            999 V2000
    6.7070    7.3040   36.7770 C   0  0  0  0  0  0
    6.8250    7.5880   35.2990 C   0  0  0  0  0  0
    6.6930    8.9310   34.7530 C   0  0  0  0  0  0
    6.6630   10.0950   35.6860 C   0  0  0  0  0  0
    6.6890   11.4810   35.0690 C   0  0  0  0  0  0
    6.0440   12.4640   35.9510 O   0  0  0  0  0  0
    5.4810   13.6180   35.2560 C   0  0  1  0  0  0
    4.2150   13.2210   34.2720 C   0  0  0  0  0  0
    3.1110   12.4910   35.1560 C   0  0  0  0  0  0
    2.7810   13.5780   36.2830 N   0  3  1  0  0  0
    1.5590   12.8680   36.8110 C   0  0  0  0  0  0
    0.9290   13.4320   38.0260 C   0  0  0  0  0  0
   -0.4580   13.0380   37.8260 C   0  0  0  0  0  0
   -1.3330   13.4360   38.9060 C   0  0  0  0  0  0
   -2.6030   13.5900   38.7490 N   0  0  0  0  0  0
   -3.1150   13.9490   39.8810 N   0  3  0  0  0  0
   -2.1640   14.0130   40.7880 N   0  0  0  0  0  0
   -1.0290   13.6960   40.2350 N   0  3  0  0  0  0
    3.8710   14.1720   37.2390 C   0  0  0  0  0  0
    5.1130   14.6000   36.4320 C   0  0  0  0  0  0
    8.1070   11.9230   34.6410 C   0  0  0  0  0  0
    8.4030   11.9560   33.1620 C   0  0  0  0  0  0
    9.7770   12.3600   32.7020 C   0  0  0  0  0  0
   10.8200   12.7780   33.7150 C   0  0  0  0  0  0
   10.5050   12.7770   35.1650 C   0  0  0  0  0  0
    9.1420   12.3900   35.6380 C   0  0  0  0  0  0
    6.5810    9.8630   37.2030 C   0  0  0  0  0  0
    6.5700    8.4430   37.7320 C   0  0  0  0  0  0
    6.7217    6.2774   37.1431 H   0  0  0  0  0  0
    7.0156    6.7591   34.6173 H   0  0  0  0  0  0
    6.6171    9.0843   33.6765 H   0  0  0  0  0  0
    6.0600   11.4482   34.1672 H   0  0  0  0  0  0
    6.2651   14.0346   34.6066 H   0  0  0  0  0  0
    3.7981   14.1351   33.8241 H   0  0  0  0  0  0
    4.5667   12.5496   33.4748 H   0  0  0  0  0  0
    2.2390   12.2517   34.5296 H   0  0  0  0  0  0
    3.5294   11.5626   35.5720 H   0  0  0  0  0  0
    2.6096   14.6197   35.9739 H   0  0  0  0  0  0
    0.7729   12.8696   36.0415 H   0  0  0  0  0  0
    1.8196   11.8304   37.0667 H   0  0  0  0  0  0
    1.3889   12.9839   38.9192 H   0  0  0  0  0  0
    1.0782   14.5217   38.0443 H   0  0  0  0  0  0
   -0.8414   13.5007   36.9046 H   0  0  0  0  0  0
   -0.5194   11.9431   37.7395 H   0  0  0  0  0  0
    3.4618   15.0493   37.7613 H   0  0  0  0  0  0
    4.1661   13.4109   37.9764 H   0  0  0  0  0  0
    5.9548   14.6588   37.1376 H   0  0  0  0  0  0
    4.9065   15.6002   36.0235 H   0  0  0  0  0  0
    7.6328   11.6911   32.4377 H   0  0  0  0  0  0
   10.0210   12.3516   31.6397 H   0  0  0  0  0  0
   11.8106   13.0823   33.3771 H   0  0  0  0  0  0
   11.2707   13.0596   35.8874 H   0  0  0  0  0  0
    8.8949   12.4443   36.6982 H   0  0  0  0  0  0
    6.5314   10.7085   37.8892 H   0  0  0  0  0  0
    6.4630    8.2550   38.8003 H   0  0  0  0  0  0
   -4.0964   14.1274   39.9517 H   0  0  0  0  0  0
   -0.1083   13.6841   40.8368 H   0  0  0  0  0  0
  1  2  2  0  0  0
  1 28  1  0  0  0
  1 29  1  0  0  0
  2  3  1  0  0  0
  2 30  1  0  0  0
  3  4  2  0  0  0
  3 31  1  0  0  0
  4  5  1  0  0  0
  4 27  1  0  0  0
  5  6  1  0  0  0
  5 21  1  0  0  0
  5 32  1  0  0  0
  6  7  1  0  0  0
  7  8  1  0  0  0
  7 20  1  0  0  0
  7 33  1  0  0  0
  8  9  1  0  0  0
  8 34  1  0  0  0
  8 35  1  0  0  0
  9 10  1  0  0  0
  9 36  1  0  0  0
  9 37  1  0  0  0
 10 11  1  0  0  0
 10 19  1  0  0  0
 10 38  1  0  0  0
 11 12  1  0  0  0
 11 39  1  0  0  0
 11 40  1  0  0  0
 12 13  1  0  0  0
 12 41  1  0  0  0
 12 42  1  0  0  0
 13 14  1  0  0  0
 13 43  1  0  0  0
 13 44  1  0  0  0
 14 15  2  0  0  0
 14 18  1  0  0  0
 15 16  1  0  0  0
 16 17  1  0  0  0
 16 56  1  0  0  0
 17 18  2  0  0  0
 18 57  1  0  0  0
 19 20  1  0  0  0
 19 45  1  0  0  0
 19 46  1  0  0  0
 20 47  1  0  0  0
 20 48  1  0  0  0
 21 22  2  0  0  0
 21 26  1  0  0  0
 22 23  1  0  0  0
 22 49  1  0  0  0
 23 24  2  0  0  0
 23 50  1  0  0  0
 24 25  1  0  0  0
 24 51  1  0  0  0
 25 26  2  0  0  0
 25 52  1  0  0  0
 26 53  1  0  0  0
 27 28  2  0  0  0
 27 54  1  0  0  0
 28 55  1  0  0  0
M  CHG  3  10   1  16   1  18   1
M  END
> <s_m_source_file>
../2cvd_ligand.sdf

> <i_m_source_file_index>
1

> <s_epik_input>
W2NIXTFbY0hdW2NIXVtjSF1bY0hdYzFbQ0hdKGMyW2NIXVtjSF1bY0hdW2NIXVtjSF0yKU9bQ0BIXTNbQ0gyXVtDSDJdW05ASCtdKFtDSDJdW0NIMl0zKVtDSDJdW0NIMl1bQ0gyXWM0bltuSF1ubjQ=

> <s_epik_cmdline>
J2VwaWtfYXBwJywgJy1pbWFlJywgJ2xpZ2FuZF9wcm8ubWFlJywgJy1vbWFlJywgJ2xpZ2FuZF9wcmVwLm1hZScsICctbXMnLCAnMScsICctcGgnLCAnNycsICctcGh0JywgJzAuNScsICctbnQn

> <r_epik_Ionization_Penalty>
 12.7846

> <r_epik_Ionization_Penalty_Charging>
 12.7843

> <r_epik_Ionization_Penalty_Neutral>
  0.0003

> <r_epik_State_Penalty>
  0.0112

> <r_epik_Charging_Adjusted_Penalty>
12.7955640008282

> <i_epik_Tot_Q>
3

> <i_epik_Tot_abs_Q>
3

> <s_epik_Chemistry_Notes>
This compound has an imine and may undergo hydrolysis.

$$$$
