2d06_ligand
                    3D
 Schrodinger Suite 2020-3.
 44 47  0  0  1  0            999 V2000
  128.6100  -58.3750    1.7680 C   0  0  0  0  0  0
  129.1900  -59.6810    1.8690 C   0  0  0  0  0  0
  130.1020  -60.1400    0.8620 C   0  0  0  0  0  0
  130.6500  -61.3880    0.9750 O   0  0  0  0  0  0
  130.4440  -59.3160   -0.2520 C   0  0  0  0  0  0
  129.8700  -57.9880   -0.3820 C   0  0  0  0  0  0
  130.2510  -57.1210   -1.6040 C   0  0  0  0  0  0
  129.5660  -55.7180   -1.6750 C   0  0  0  0  0  0
  129.2790  -55.0970   -0.3010 C   0  0  2  0  0  0
  128.3090  -56.0720    0.5280 C   0  0  1  0  0  0
  128.9250  -57.4950    0.6590 C   0  0  0  0  0  0
  128.0440  -55.4080    1.9220 C   0  0  0  0  0  0
  127.4320  -53.9810    1.8460 C   0  0  0  0  0  0
  128.3200  -53.0150    1.0080 C   0  0  1  0  0  0
  128.5750  -53.6700   -0.4250 C   0  0  1  0  0  0
  129.2370  -52.4930   -1.1590 C   0  0  0  0  0  0
  128.2450  -51.3200   -0.8390 C   0  0  0  0  0  0
  127.6460  -51.6760    0.5680 C   0  0  2  0  0  0
  127.8430  -50.5550    1.4710 O   0  0  0  0  0  0
  129.6430  -52.6660    1.8270 C   0  0  0  0  0  0
  127.9186  -58.0361    2.5395 H   0  0  0  0  0  0
  128.9382  -60.3257    2.7111 H   0  0  0  0  0  0
  130.3900  -62.0274    1.8315 H   0  0  0  0  0  0
  131.1380  -59.6843   -1.0075 H   0  0  0  0  0  0
  131.3354  -56.9363   -1.5987 H   0  0  0  0  0  0
  129.9734  -57.6483   -2.5286 H   0  0  0  0  0  0
  130.2180  -55.0187   -2.2189 H   0  0  0  0  0  0
  128.6036  -55.8060   -2.2004 H   0  0  0  0  0  0
  130.2639  -54.9770    0.1740 H   0  0  0  0  0  0
  127.3458  -56.2295    0.0205 H   0  0  0  0  0  0
  127.3408  -56.0291    2.4962 H   0  0  0  0  0  0
  128.9919  -55.3222    2.4734 H   0  0  0  0  0  0
  126.4389  -54.0325    1.3758 H   0  0  0  0  0  0
  127.3360  -53.5686    2.8613 H   0  0  0  0  0  0
  127.7267  -53.9792   -1.0534 H   0  0  0  0  0  0
  130.2466  -52.3295   -0.7540 H   0  0  0  0  0  0
  129.3053  -52.7222   -2.2327 H   0  0  0  0  0  0
  128.7966  -50.3685   -0.8189 H   0  0  0  0  0  0
  127.4665  -51.2762   -1.6149 H   0  0  0  0  0  0
  126.5518  -51.7787    0.6156 H   0  0  0  0  0  0
  127.4873  -50.6167    2.5101 H   0  0  0  0  0  0
  130.1330  -53.5976    2.1463 H   0  0  0  0  0  0
  129.3794  -52.0684    2.7121 H   0  0  0  0  0  0
  130.3292  -52.0913    1.1876 H   0  0  0  0  0  0
  1  2  2  0  0  0
  1 11  1  0  0  0
  1 21  1  0  0  0
  2  3  1  0  0  0
  2 22  1  0  0  0
  3  4  1  0  0  0
  3  5  2  0  0  0
  4 23  1  0  0  0
  5  6  1  0  0  0
  5 24  1  0  0  0
  6  7  1  0  0  0
  6 11  2  0  0  0
  7  8  1  0  0  0
  7 25  1  0  0  0
  7 26  1  0  0  0
  8  9  1  0  0  0
  8 27  1  0  0  0
  8 28  1  0  0  0
  9 10  1  0  0  0
  9 15  1  0  0  0
  9 29  1  0  0  0
 10 11  1  0  0  0
 10 12  1  0  0  0
 10 30  1  0  0  0
 12 13  1  0  0  0
 12 31  1  0  0  0
 12 32  1  0  0  0
 13 14  1  0  0  0
 13 33  1  0  0  0
 13 34  1  0  0  0
 14 15  1  0  0  0
 14 18  1  0  0  0
 14 20  1  0  0  0
 15 16  1  0  0  0
 15 35  1  0  0  0
 16 17  1  0  0  0
 16 36  1  0  0  0
 16 37  1  0  0  0
 17 18  1  0  0  0
 17 38  1  0  0  0
 17 39  1  0  0  0
 18 19  1  0  0  0
 18 40  1  0  0  0
 19 41  1  0  0  0
 20 42  1  0  0  0
 20 43  1  0  0  0
 20 44  1  0  0  0
M  END
> <s_m_source_file>
../2d06_ligand.sdf

> <i_m_source_file_index>
1

> <s_epik_input>
W2NIXTFbY0hdYyhbT0hdKVtjSF1jKFtDSDJdW0NIMl0yKWMxW0NAQEhdKFtDSDJdW0NIMl0zKVtDQEBIXTJbQ0BASF0oW0NAXTM0W0NIM10pW0NIMl1bQ0gyXVtDQEBIXTRbT0hd

> <s_epik_cmdline>
J2VwaWtfYXBwJywgJy1pbWFlJywgJ2xpZ2FuZF9wcm8ubWFlJywgJy1vbWFlJywgJ2xpZ2FuZF9wcmVwLm1hZScsICctbXMnLCAnMScsICctcGgnLCAnNycsICctcGh0JywgJzAuNScsICctbnQn

> <r_lp_tautomer_probability>
1

> <r_epik_Ionization_Penalty>
  0.0001

> <r_epik_Ionization_Penalty_Charging>
  0.0000

> <r_epik_Ionization_Penalty_Neutral>
  0.0001

> <r_epik_State_Penalty>
 -0.0000

> <r_epik_Charging_Adjusted_Penalty>
0

> <i_epik_Tot_Q>
0

> <i_epik_Tot_abs_Q>
0

$$$$
