2d1n_ligand
                    3D
 Schrodinger Suite 2020-3.
 77 77  0  0  1  0            999 V2000
  -40.6710   20.3930  -12.0380 C   0  0  0  0  0  0
  -40.6880   21.7610  -12.4150 C   0  0  0  0  0  0
  -41.8090   22.3270  -13.1020 C   0  0  0  0  0  0
  -42.9470   21.4660  -13.4070 C   0  0  0  0  0  0
  -42.8990   20.0790  -13.0130 C   0  0  0  0  0  0
  -41.7750   19.5560  -12.3390 C   0  0  0  0  0  0
  -41.7100   23.8130  -13.4650 C   0  0  0  0  0  0
  -41.0780   23.9970  -14.8630 C   0  0  0  0  0  0
  -41.1350   25.4320  -15.4130 C   0  0  0  0  0  0
  -42.5330   26.0040  -15.6200 C   0  0  0  0  0  0
  -42.6290   27.1870  -16.5850 C   0  0  0  0  0  0
  -43.8750   27.9960  -16.2290 C   0  0  0  0  0  0
  -44.1100   29.2020  -17.1330 C   0  0  0  0  0  0
  -43.6310   30.5060  -16.4790 C   0  0  0  0  0  0
  -43.8520   31.7420  -17.3520 C   0  0  0  0  0  0
  -43.1840   31.6650  -18.7110 C   0  0  0  0  0  0
  -44.0650   31.3620  -19.7410 N   0  0  0  0  0  0
  -43.6920   31.2260  -21.1700 C   0  0  2  0  0  0
  -41.9840   31.8470  -18.8900 O   0  0  0  0  0  0
  -44.9130   31.6930  -21.9970 C   0  0  0  0  0  0
  -43.3740   29.7390  -21.4490 C   0  0  0  0  0  0
  -42.2890   29.2500  -20.8200 N   0  0  0  0  0  0
  -44.5550   32.1360  -23.4420 C   0  0  0  0  0  0
  -44.9430   31.2080  -24.6190 C   0  0  0  0  0  0
  -45.3310   31.9710  -25.9040 C   0  0  0  0  0  0
  -44.3190   31.7620  -26.9690 N   0  3  0  0  0  0
  -44.1960   21.9610  -14.1240 C   0  0  0  0  0  0
  -45.4690   21.3370  -13.5110 N   0  0  0  0  0  0
  -46.2350   22.1090  -12.5790 C   0  0  0  0  0  0
  -45.6870   23.2750  -12.0010 N   0  0  0  0  0  0
  -47.4240   21.7480  -12.2510 N   0  3  0  0  0  0
  -41.9450   27.9130  -21.0660 O   0  0  0  0  0  0
  -44.0360   29.0280  -22.2050 O   0  0  0  0  0  0
  -39.8062   19.9844  -11.5152 H   0  0  0  0  0  0
  -39.8318   22.3923  -12.1771 H   0  0  0  0  0  0
  -43.7422   19.4263  -13.2390 H   0  0  0  0  0  0
  -41.7555   18.5055  -12.0490 H   0  0  0  0  0  0
  -42.7164   24.2570  -13.4703 H   0  0  0  0  0  0
  -41.0847   24.3309  -12.7229 H   0  0  0  0  0  0
  -40.0157   23.7141  -14.8252 H   0  0  0  0  0  0
  -41.6020   23.3582  -15.5892 H   0  0  0  0  0  0
  -40.6230   26.1122  -14.7165 H   0  0  0  0  0  0
  -40.6379   25.4689  -16.3936 H   0  0  0  0  0  0
  -43.1930   25.2221  -16.0239 H   0  0  0  0  0  0
  -42.9305   26.3581  -14.6574 H   0  0  0  0  0  0
  -41.7308   27.8144  -16.4864 H   0  0  0  0  0  0
  -42.7038   26.8133  -17.6169 H   0  0  0  0  0  0
  -44.7642   27.3532  -16.3072 H   0  0  0  0  0  0
  -43.7851   28.3740  -15.1999 H   0  0  0  0  0  0
  -43.5601   29.0661  -18.0760 H   0  0  0  0  0  0
  -45.1850   29.2968  -17.3458 H   0  0  0  0  0  0
  -44.1765   30.6657  -15.5372 H   0  0  0  0  0  0
  -42.5530   30.4376  -16.2713 H   0  0  0  0  0  0
  -44.9292   31.8792  -17.5273 H   0  0  0  0  0  0
  -43.4477   32.6285  -16.8415 H   0  0  0  0  0  0
  -45.1103   31.2198  -19.4295 H   0  0  0  0  0  0
  -42.8068   31.8393  -21.3941 H   0  0  0  0  0  0
  -45.6383   30.8698  -22.0768 H   0  0  0  0  0  0
  -45.3865   32.5518  -21.4988 H   0  0  0  0  0  0
  -41.6799   29.8575  -20.1345 H   0  0  0  0  0  0
  -45.0495   33.0929  -23.6653 H   0  0  0  0  0  0
  -43.4652   32.2575  -23.5289 H   0  0  0  0  0  0
  -44.0926   30.5561  -24.8676 H   0  0  0  0  0  0
  -45.8061   30.5904  -24.3299 H   0  0  0  0  0  0
  -46.3049   31.6091  -26.2653 H   0  0  0  0  0  0
  -45.3978   33.0470  -25.6855 H   0  0  0  0  0  0
  -44.6176   32.3146  -27.8721 H   0  0  0  0  0  0
  -44.2482   30.6893  -27.2021 H   0  0  0  0  0  0
  -43.3410   32.1272  -26.6223 H   0  0  0  0  0  0
  -44.2609   23.0554  -14.0342 H   0  0  0  0  0  0
  -44.1431   21.6828  -15.1869 H   0  0  0  0  0  0
  -45.7722   20.3177  -13.7923 H   0  0  0  0  0  0
  -44.6706   23.5974  -12.2713 H   0  0  0  0  0  0
  -46.2765   23.8609  -11.2804 H   0  0  0  0  0  0
  -47.8652   20.8422  -12.6923 H   0  0  0  0  0  0
  -41.0660   27.4717  -20.5735 H   0  0  0  0  0  0
  -48.0005   22.3449  -11.5289 H   0  0  0  0  0  0
  1  2  2  0  0  0
  1  6  1  0  0  0
  1 34  1  0  0  0
  2  3  1  0  0  0
  2 35  1  0  0  0
  3  4  2  0  0  0
  3  7  1  0  0  0
  4  5  1  0  0  0
  4 27  1  0  0  0
  5  6  2  0  0  0
  5 36  1  0  0  0
  6 37  1  0  0  0
  7  8  1  0  0  0
  7 38  1  0  0  0
  7 39  1  0  0  0
  8  9  1  0  0  0
  8 40  1  0  0  0
  8 41  1  0  0  0
  9 10  1  0  0  0
  9 42  1  0  0  0
  9 43  1  0  0  0
 10 11  1  0  0  0
 10 44  1  0  0  0
 10 45  1  0  0  0
 11 12  1  0  0  0
 11 46  1  0  0  0
 11 47  1  0  0  0
 12 13  1  0  0  0
 12 48  1  0  0  0
 12 49  1  0  0  0
 13 14  1  0  0  0
 13 50  1  0  0  0
 13 51  1  0  0  0
 14 15  1  0  0  0
 14 52  1  0  0  0
 14 53  1  0  0  0
 15 16  1  0  0  0
 15 54  1  0  0  0
 15 55  1  0  0  0
 16 17  1  0  0  0
 16 19  2  0  0  0
 17 18  1  0  0  0
 17 56  1  0  0  0
 18 20  1  0  0  0
 18 21  1  0  0  0
 18 57  1  0  0  0
 20 23  1  0  0  0
 20 58  1  0  0  0
 20 59  1  0  0  0
 21 22  1  0  0  0
 21 33  2  0  0  0
 22 32  1  0  0  0
 22 60  1  0  0  0
 23 24  1  0  0  0
 23 61  1  0  0  0
 23 62  1  0  0  0
 24 25  1  0  0  0
 24 63  1  0  0  0
 24 64  1  0  0  0
 25 26  1  0  0  0
 25 65  1  0  0  0
 25 66  1  0  0  0
 26 67  1  0  0  0
 26 68  1  0  0  0
 26 69  1  0  0  0
 27 28  1  0  0  0
 27 70  1  0  0  0
 27 71  1  0  0  0
 28 29  1  0  0  0
 28 72  1  0  0  0
 29 30  1  0  0  0
 29 31  2  0  0  0
 30 73  1  0  0  0
 30 74  1  0  0  0
 31 75  1  0  0  0
 31 77  1  0  0  0
 32 76  1  0  0  0
M  CHG  2  26   1  31   1
M  END
> <s_m_source_file>
../2d1n_ligand.sdf

> <i_m_source_file_index>
1

> <s_epik_input>
W0hdL049QyhbTkgyXSlcW05IXVtDSDJdYzFbY0hdW2NIXVtjSF1bY0hdYzFbQ0gyXVtDSDJdW0NIMl1bQ0gyXVtDSDJdW0NIMl1bQ0gyXVtDSDJdW0NIMl1DKD1PKVtOSF1bQ0BASF0oQyg9TylbTkhdW09IXSlbQ0gyXVtDSDJdW0NIMl1bQ0gyXVtOSDMrXQ==

> <s_epik_cmdline>
J2VwaWtfYXBwJywgJy1pbWFlJywgJ2xpZ2FuZF9wcm8ubWFlJywgJy1vbWFlJywgJ2xpZ2FuZF9wcmVwLm1hZScsICctbXMnLCAnMScsICctcGgnLCAnNycsICctcGh0JywgJzAuNScsICctbnQn

> <r_lp_tautomer_probability>
1

> <r_epik_Ionization_Penalty>
  0.0088

> <r_epik_Ionization_Penalty_Charging>
  0.0005

> <r_epik_Ionization_Penalty_Neutral>
  0.0083

> <r_epik_State_Penalty>
 -0.0000

> <r_epik_Charging_Adjusted_Penalty>
0.000474456552456956

> <i_epik_Tot_Q>
2

> <i_epik_Tot_abs_Q>
2

> <s_epik_Chemistry_Notes>
This compound has an imine and may undergo hydrolysis. This compound has a N-S or N-O group and may undergo hydrolysis at high or low pH.

$$$$
