2d1x_ligand
                    3D
 Schrodinger Suite 2020-3.
140145  0  0  1  0            999 V2000
    7.7230   60.2540   28.6700 N   0  3  0  0  0  0
    8.6340   60.7570   27.6010 C   0  0  2  0  0  0
    7.8900   61.7460   26.7120 C   0  0  0  0  0  0
    6.6570   61.7920   26.7190 O   0  0  0  0  0  0
    9.1520   59.5880   26.7530 C   0  0  0  0  0  0
   10.2230   59.9630   25.7270 C   0  0  0  0  0  0
   10.7420   58.7230   25.0100 C   0  0  0  0  0  0
   11.7780   59.0660   23.9470 C   0  0  0  0  0  0
   13.0310   59.6490   24.5050 N   0  3  0  0  0  0
    8.6430   62.5360   25.9520 N   0  0  0  0  0  0
    8.0560   63.5250   25.0570 C   0  0  2  0  0  0
    7.3290   62.8370   23.9160 C   0  0  0  0  0  0
    7.5510   61.6600   23.6490 O   0  0  0  0  0  0
    9.1390   64.4310   24.4720 C   0  0  0  0  0  0
   10.1330   63.7160   23.5650 C   0  0  0  0  0  0
   10.9930   64.7260   22.8260 C   0  0  0  0  0  0
   11.9990   64.1240   21.9540 N   0  0  0  0  0  0
   13.0670   63.4560   22.3830 C   0  0  0  0  0  0
   13.2750   63.2940   23.6820 N   0  3  0  0  0  0
   13.9380   62.9650   21.5120 N   0  0  0  0  0  0
    6.4460   63.5670   23.2250 N   0  0  0  0  0  0
    5.7200   62.9600   22.1100 C   0  0  2  0  0  0
    6.6460   62.8130   20.9020 C   0  0  0  0  0  0
    7.6080   63.5610   20.7520 O   0  0  0  0  0  0
    4.5920   63.9580   21.8590 C   0  0  0  0  0  0
    5.2640   65.2710   22.1600 C   0  0  0  0  0  0
    6.0040   64.9560   23.4490 C   0  0  0  0  0  0
    6.3740   61.8340   20.0320 N   0  0  0  0  0  0
    7.2390   61.6700   18.8620 C   0  0  2  0  0  0
    7.0270   62.8270   17.8980 C   0  0  0  0  0  0
    5.9660   63.4410   17.8850 O   0  0  0  0  0  0
    6.7820   60.3330   18.2860 C   0  0  0  0  0  0
    5.3270   60.2970   18.6450 C   0  0  0  0  0  0
    5.3310   60.7920   20.0700 C   0  0  0  0  0  0
    8.0410   63.1570   17.0910 N   0  0  0  0  0  0
    7.8340   64.2650   16.1650 C   0  0  2  0  0  0
    6.9900   63.7770   15.0040 C   0  0  0  0  0  0
    7.0390   62.6050   14.6430 O   0  0  0  0  0  0
    9.2570   64.6300   15.7480 C   0  0  0  0  0  0
    9.9340   63.3110   15.7360 C   0  0  0  0  0  0
    9.4220   62.6510   17.0060 C   0  0  0  0  0  0
    6.1880   64.6640   14.4110 N   0  0  0  0  0  0
    5.3690   64.2170   13.2880 C   0  0  2  0  0  0
    6.2700   63.9170   12.0970 C   0  0  0  0  0  0
    7.3730   64.4590   11.9940 O   0  0  0  0  0  0
    4.4580   65.4160   13.0390 C   0  0  0  0  0  0
    5.3510   66.5690   13.3690 C   0  0  0  0  0  0
    6.0200   66.1090   14.6470 C   0  0  0  0  0  0
    5.8260   63.0270   11.1940 N   0  0  0  0  0  0
    6.6400   62.7010   10.0200 C   0  0  2  0  0  0
    6.9630   64.0130    9.3020 C   0  0  0  0  0  0
    6.1740   64.9540    9.3540 O   0  0  0  0  0  0
    5.7090   61.8100    9.1970 C   0  0  0  0  0  0
    4.8840   61.1260   10.2450 C   0  0  0  0  0  0
    4.5730   62.2490   11.2040 C   0  0  0  0  0  0
    8.1170   64.0950    8.6230 N   0  0  0  0  0  0
    8.4490   65.3440    7.9290 C   0  0  2  0  0  0
    7.4210   65.7170    6.8630 C   0  0  0  0  0  0
    6.7670   64.8470    6.2850 O   0  0  0  0  0  0
    9.8290   65.0550    7.3400 C   0  0  0  0  0  0
    9.7670   63.5900    7.0640 C   0  0  0  0  0  0
    9.1110   63.0510    8.3190 C   0  0  0  0  0  0
    7.2810   67.0160    6.6140 N   0  0  0  0  0  0
    6.3330   67.4790    5.6180 C   0  0  0  0  0  0
    6.7020   67.0190    4.2200 C   0  0  0  0  0  0
    7.7550   66.3600    4.0720 O   0  0  0  0  0  0
    5.9263   67.3088    3.1792 O   0  5  0  0  0  0
    8.2653   59.5409   29.3083 H   0  0  0  0  0  0
    6.8599   59.7511   28.2095 H   0  0  0  0  0  0
    7.3722   61.0992   29.2804 H   0  0  0  0  0  0
    9.4762   61.2629   28.0958 H   0  0  0  0  0  0
    9.5967   58.8267   27.4108 H   0  0  0  0  0  0
    8.3169   59.1444   26.1910 H   0  0  0  0  0  0
    9.7933   60.6495   24.9827 H   0  0  0  0  0  0
   11.0636   60.4555   26.2377 H   0  0  0  0  0  0
   11.2115   58.0470   25.7398 H   0  0  0  0  0  0
    9.9047   58.2067   24.5178 H   0  0  0  0  0  0
   12.0551   58.1543   23.3974 H   0  0  0  0  0  0
   11.3554   59.8019   23.2471 H   0  0  0  0  0  0
   13.7293   59.8707   23.6845 H   0  0  0  0  0  0
   13.4940   58.9295   25.1963 H   0  0  0  0  0  0
   12.7944   60.5771   25.0460 H   0  0  0  0  0  0
    9.7361   62.4282   26.0115 H   0  0  0  0  0  0
    7.3525   64.1002   25.6769 H   0  0  0  0  0  0
    8.6689   65.2239   23.8718 H   0  0  0  0  0  0
    9.7185   64.8847   25.2895 H   0  0  0  0  0  0
   10.7820   63.0674   24.1716 H   0  0  0  0  0  0
    9.5864   63.1049   22.8316 H   0  0  0  0  0  0
   10.3532   65.3600   22.1945 H   0  0  0  0  0  0
   11.5278   65.3542   23.5535 H   0  0  0  0  0  0
   11.9010   64.2077   20.8616 H   0  0  0  0  0  0
   12.5557   63.6992   24.4089 H   0  0  0  0  0  0
   13.7703   63.0965   20.4328 H   0  0  0  0  0  0
   14.8282   62.4262   21.8686 H   0  0  0  0  0  0
    5.3568   61.9494   22.3484 H   0  0  0  0  0  0
    4.2549   63.8754   20.8152 H   0  0  0  0  0  0
    3.7516   63.7390   22.5341 H   0  0  0  0  0  0
    5.9356   65.5377   21.3307 H   0  0  0  0  0  0
    4.5011   66.0543   22.2804 H   0  0  0  0  0  0
    5.3554   64.9958   24.3365 H   0  0  0  0  0  0
    6.8822   65.5992   23.6075 H   0  0  0  0  0  0
    8.3083   61.6812   19.1199 H   0  0  0  0  0  0
    6.9514   60.3249   17.1992 H   0  0  0  0  0  0
    7.3547   59.5178   18.7524 H   0  0  0  0  0  0
    4.7654   60.9551   17.9657 H   0  0  0  0  0  0
    4.9516   59.2673   18.5515 H   0  0  0  0  0  0
    5.6154   60.0148   20.7947 H   0  0  0  0  0  0
    4.3738   61.2421   20.3718 H   0  0  0  0  0  0
    7.2934   65.1116   16.6134 H   0  0  0  0  0  0
    9.2374   65.1096   14.7582 H   0  0  0  0  0  0
    9.6878   65.3251   16.4837 H   0  0  0  0  0  0
    9.6471   62.7599   14.8283 H   0  0  0  0  0  0
   11.0241   63.4582   15.7464 H   0  0  0  0  0  0
    9.9807   62.9577   17.9025 H   0  0  0  0  0  0
    9.4069   61.5530   16.9412 H   0  0  0  0  0  0
    4.8135   63.2928   13.5057 H   0  0  0  0  0  0
    4.1296   65.4152   11.9892 H   0  0  0  0  0  0
    3.5795   65.3522   13.6980 H   0  0  0  0  0  0
    6.0642   66.7275   12.5466 H   0  0  0  0  0  0
    4.7434   67.4755   13.5072 H   0  0  0  0  0  0
    5.3943   66.2646   15.5382 H   0  0  0  0  0  0
    7.0053   66.5717   14.8054 H   0  0  0  0  0  0
    7.5893   62.2023   10.2650 H   0  0  0  0  0  0
    5.1039   62.4349    8.5237 H   0  0  0  0  0  0
    6.3077   61.1041    8.6027 H   0  0  0  0  0  0
    3.9822   60.6997    9.7813 H   0  0  0  0  0  0
    5.4735   60.3211   10.7082 H   0  0  0  0  0  0
    4.3688   61.8959   12.2256 H   0  0  0  0  0  0
    3.7432   62.8858   10.8635 H   0  0  0  0  0  0
    8.4344   66.1925    8.6289 H   0  0  0  0  0  0
    9.9714   65.6540    6.4284 H   0  0  0  0  0  0
   10.6038   65.3169    8.0756 H   0  0  0  0  0  0
    9.1686   63.4126    6.1582 H   0  0  0  0  0  0
   10.7851   63.2020    6.9127 H   0  0  0  0  0  0
    9.8110   62.9546    9.1621 H   0  0  0  0  0  0
    8.5975   62.0918    8.1572 H   0  0  0  0  0  0
    7.8919   67.7416    7.1710 H   0  0  0  0  0  0
    5.3325   67.0874    5.8541 H   0  0  0  0  0  0
    6.3063   68.5787    5.6205 H   0  0  0  0  0  0
   14.1669   62.7543   24.0331 H   0  0  0  0  0  0
  1  2  1  0  0  0
  1 68  1  0  0  0
  1 69  1  0  0  0
  1 70  1  0  0  0
  2  5  1  0  0  0
  2  3  1  0  0  0
  2 71  1  0  0  0
  3  4  2  0  0  0
  3 10  1  0  0  0
  5  6  1  0  0  0
  5 72  1  0  0  0
  5 73  1  0  0  0
  6  7  1  0  0  0
  6 74  1  0  0  0
  6 75  1  0  0  0
  7  8  1  0  0  0
  7 76  1  0  0  0
  7 77  1  0  0  0
  8  9  1  0  0  0
  8 78  1  0  0  0
  8 79  1  0  0  0
  9 80  1  0  0  0
  9 81  1  0  0  0
  9 82  1  0  0  0
 10 11  1  0  0  0
 10 83  1  0  0  0
 11 14  1  0  0  0
 11 12  1  0  0  0
 11 84  1  0  0  0
 12 13  2  0  0  0
 12 21  1  0  0  0
 14 15  1  0  0  0
 14 85  1  0  0  0
 14 86  1  0  0  0
 15 16  1  0  0  0
 15 87  1  0  0  0
 15 88  1  0  0  0
 16 17  1  0  0  0
 16 89  1  0  0  0
 16 90  1  0  0  0
 17 18  1  0  0  0
 17 91  1  0  0  0
 18 20  1  0  0  0
 18 19  2  0  0  0
 19 92  1  0  0  0
 19140  1  0  0  0
 20 93  1  0  0  0
 20 94  1  0  0  0
 21 22  1  0  0  0
 21 27  1  0  0  0
 22 23  1  0  0  0
 22 25  1  0  0  0
 22 95  1  0  0  0
 23 24  2  0  0  0
 23 28  1  0  0  0
 25 26  1  0  0  0
 25 96  1  0  0  0
 25 97  1  0  0  0
 26 27  1  0  0  0
 26 98  1  0  0  0
 26 99  1  0  0  0
 27100  1  0  0  0
 27101  1  0  0  0
 28 29  1  0  0  0
 28 34  1  0  0  0
 29 30  1  0  0  0
 29 32  1  0  0  0
 29102  1  0  0  0
 30 31  2  0  0  0
 30 35  1  0  0  0
 32 33  1  0  0  0
 32103  1  0  0  0
 32104  1  0  0  0
 33 34  1  0  0  0
 33105  1  0  0  0
 33106  1  0  0  0
 34107  1  0  0  0
 34108  1  0  0  0
 35 36  1  0  0  0
 35 41  1  0  0  0
 36 37  1  0  0  0
 36 39  1  0  0  0
 36109  1  0  0  0
 37 38  2  0  0  0
 37 42  1  0  0  0
 39 40  1  0  0  0
 39110  1  0  0  0
 39111  1  0  0  0
 40 41  1  0  0  0
 40112  1  0  0  0
 40113  1  0  0  0
 41114  1  0  0  0
 41115  1  0  0  0
 42 43  1  0  0  0
 42 48  1  0  0  0
 43 44  1  0  0  0
 43 46  1  0  0  0
 43116  1  0  0  0
 44 45  2  0  0  0
 44 49  1  0  0  0
 46 47  1  0  0  0
 46117  1  0  0  0
 46118  1  0  0  0
 47 48  1  0  0  0
 47119  1  0  0  0
 47120  1  0  0  0
 48121  1  0  0  0
 48122  1  0  0  0
 49 50  1  0  0  0
 49 55  1  0  0  0
 50 51  1  0  0  0
 50 53  1  0  0  0
 50123  1  0  0  0
 51 52  2  0  0  0
 51 56  1  0  0  0
 53 54  1  0  0  0
 53124  1  0  0  0
 53125  1  0  0  0
 54 55  1  0  0  0
 54126  1  0  0  0
 54127  1  0  0  0
 55128  1  0  0  0
 55129  1  0  0  0
 56 57  1  0  0  0
 56 62  1  0  0  0
 57 58  1  0  0  0
 57 60  1  0  0  0
 57130  1  0  0  0
 58 59  2  0  0  0
 58 63  1  0  0  0
 60 61  1  0  0  0
 60131  1  0  0  0
 60132  1  0  0  0
 61 62  1  0  0  0
 61133  1  0  0  0
 61134  1  0  0  0
 62135  1  0  0  0
 62136  1  0  0  0
 63 64  1  0  0  0
 63137  1  0  0  0
 64 65  1  0  0  0
 64138  1  0  0  0
 64139  1  0  0  0
 65 66  2  0  0  0
 65 67  1  0  0  0
M  CHG  4   1   1   9   1  19   1  67  -1
M  END
> <s_m_source_file>
../2d1x_ligand.sdf

> <i_m_source_file_index>
1

> <s_epik_input>
W05IMytdW0NIMl1bQ0gyXVtDSDJdW0NIMl1bQ0BIXShbTkgzK10pQyg9TylbTkhdW0NAQEhdKFtDSDJdW0NIMl1bQ0gyXVtOSF0vQyg9TlxbSF0pW05IMl0pQyg9TylOMVtDQEBIXShbQ0gyXVtDSDJdW0NIMl0xKUMoPU8pTjJbQ0BASF0oW0NIMl1bQ0gyXVtDSDJdMilDKD1PKU4zW0NAQEhdKFtDSDJdW0NIMl1bQ0gyXTMpQyg9TylONFtDQEBIXShbQ0gyXVtDSDJdW0NIMl00KUMoPU8pTjVbQ0BASF0oW0NIMl1bQ0gyXVtDSDJdNSlDKD1PKU42W0NAQEhdKFtDSDJdW0NIMl1bQ0gyXTYpQyg9TylbTkhdW0NIMl1DKD1PKVtPSF0=

> <s_epik_cmdline>
J2VwaWtfYXBwJywgJy1pbWFlJywgJ2xpZ2FuZF9wcm8ubWFlJywgJy1vbWFlJywgJ2xpZ2FuZF9wcmVwLm1hZScsICctbXMnLCAnMScsICctcGgnLCAnNycsICctcGh0JywgJzAuNScsICctbnQn

> <r_epik_Ionization_Penalty>
  0.1220

> <r_epik_Ionization_Penalty_Charging>
  0.1220

> <r_epik_Ionization_Penalty_Neutral>
  0.0000

> <r_epik_State_Penalty>
  0.1108

> <r_epik_Charging_Adjusted_Penalty>
0.232710087591678

> <i_epik_Tot_Q>
2

> <i_epik_Tot_abs_Q>
4

> <s_epik_Chemistry_Notes>
This compound has an imine and may undergo hydrolysis.

$$$$
