2d2v_ligand
                    3D
 Schrodinger Suite 2020-3.
 45 46  0  0  1  0            999 V2000
   45.9320    2.5020   95.2100 C   0  0  1  0  0  0
   45.0380    2.4090   93.9550 C   0  0  1  0  0  0
   45.3490    1.1020   93.1930 C   0  0  2  0  0  0
   46.8600    1.2160   92.7690 C   0  0  1  0  0  0
   47.7290    1.2620   94.0570 C   0  0  1  0  0  0
   49.2470    1.3870   93.8740 C   0  0  0  0  0  0
   45.5980    1.4210   96.1210 O   0  0  0  0  0  0
   43.7100    2.5120   94.4390 O   0  0  0  0  0  0
   44.5130    1.0640   92.0670 O   0  0  0  0  0  0
   47.2660    0.1150   92.0650 O   0  0  0  0  0  0
   47.3370    2.3910   94.8880 O   0  0  0  0  0  0
   49.5320    2.5250   93.0890 O   0  0  0  0  0  0
   45.0120    0.3800  100.2370 C   0  0  1  0  0  0
   43.9090    1.0620   99.3900 C   0  0  1  0  0  0
   43.9660    0.8820   97.8480 C   0  0  2  0  0  0
   45.3760    1.4970   97.5170 C   0  0  1  0  0  0
   46.5170    0.7270   98.3390 C   0  0  1  0  0  0
   48.0530    1.1800   98.2100 C   0  0  0  0  0  0
   44.8620   -0.6940  100.1970 O   0  0  0  0  0  0
   42.6560    0.5980   99.7870 O   0  0  0  0  0  0
   42.8530    1.5740   97.1560 O   0  0  0  0  0  0
   46.3350    0.7830   99.8120 O   0  0  0  0  0  0
   47.9370    2.6700   98.3760 O   0  0  0  0  0  0
   45.7985    3.4714   95.7124 H   0  0  0  0  0  0
   45.1291    3.2322   93.2311 H   0  0  0  0  0  0
   45.1038    0.1703   93.7239 H   0  0  0  0  0  0
   47.0262    2.0395   92.0589 H   0  0  0  0  0  0
   47.5258    0.3067   94.5631 H   0  0  0  0  0  0
   49.7277    1.4896   94.8581 H   0  0  0  0  0  0
   49.6309    0.4876   93.3704 H   0  0  0  0  0  0
   43.3949    3.4077   94.9944 H   0  0  0  0  0  0
   43.4232    0.9851   92.1936 H   0  0  0  0  0  0
   46.7899   -0.1297   91.1040 H   0  0  0  0  0  0
   50.5746    2.7805   92.8490 H   0  0  0  0  0  0
   44.9534    0.3708  101.3354 H   0  0  0  0  0  0
   43.9841    2.1327   99.6306 H   0  0  0  0  0  0
   43.8003   -0.1447   97.4897 H   0  0  0  0  0  0
   45.4109    2.5815   97.6974 H   0  0  0  0  0  0
   46.3494   -0.2795   97.9282 H   0  0  0  0  0  0
   48.6452    0.6976   99.0016 H   0  0  0  0  0  0
   48.4425    0.8797   97.2261 H   0  0  0  0  0  0
   43.8954   -1.1258  100.4957 H   0  0  0  0  0  0
   42.3722    0.6212  100.8495 H   0  0  0  0  0  0
   41.8170    1.2364   97.3067 H   0  0  0  0  0  0
   48.8383    3.2995   98.3376 H   0  0  0  0  0  0
  1  2  1  0  0  0
  1  7  1  0  0  0
  1 11  1  0  0  0
  1 24  1  0  0  0
  2  3  1  0  0  0
  2  8  1  0  0  0
  2 25  1  0  0  0
  3  4  1  0  0  0
  3  9  1  0  0  0
  3 26  1  0  0  0
  4  5  1  0  0  0
  4 10  1  0  0  0
  4 27  1  0  0  0
  5  6  1  0  0  0
  5 11  1  0  0  0
  5 28  1  0  0  0
  6 12  1  0  0  0
  6 29  1  0  0  0
  6 30  1  0  0  0
  7 16  1  0  0  0
  8 31  1  0  0  0
  9 32  1  0  0  0
 10 33  1  0  0  0
 12 34  1  0  0  0
 13 14  1  0  0  0
 13 19  1  0  0  0
 13 22  1  0  0  0
 13 35  1  0  0  0
 14 15  1  0  0  0
 14 20  1  0  0  0
 14 36  1  0  0  0
 15 16  1  0  0  0
 15 21  1  0  0  0
 15 37  1  0  0  0
 16 17  1  0  0  0
 16 38  1  0  0  0
 17 18  1  0  0  0
 17 22  1  0  0  0
 17 39  1  0  0  0
 18 23  1  0  0  0
 18 40  1  0  0  0
 18 41  1  0  0  0
 19 42  1  0  0  0
 20 43  1  0  0  0
 21 44  1  0  0  0
 23 45  1  0  0  0
M  END
> <s_m_source_file>
../2d2v_ligand.sdf

> <i_m_source_file_index>
1

> <s_epik_input>
W09IXVtDQEBIXTFbQ0BIXShbT0hdKVtDQEBIXShbT0hdKVtDQEBIXShbQ0BIXShPMSlbQ0gyXVtPSF0pT1tDQEBIXTJbQ0BIXShbT0hdKVtDQEBIXShbT0hdKVtDQEhdKFtPSF0pW0NASF0oTzIpW0NIMl1bT0hd

> <s_epik_cmdline>
J2VwaWtfYXBwJywgJy1pbWFlJywgJ2xpZ2FuZF9wcm8ubWFlJywgJy1vbWFlJywgJ2xpZ2FuZF9wcmVwLm1hZScsICctbXMnLCAnMScsICctcGgnLCAnNycsICctcGh0JywgJzAuNScsICctbnQn

> <r_lp_tautomer_probability>
1

> <r_epik_Ionization_Penalty>
  0.0000

> <r_epik_Ionization_Penalty_Charging>
  0.0000

> <r_epik_Ionization_Penalty_Neutral>
  0.0000

> <r_epik_State_Penalty>
 -0.0000

> <r_epik_Charging_Adjusted_Penalty>
0

> <i_epik_Tot_Q>
0

> <i_epik_Tot_abs_Q>
0

> <s_epik_Chemistry_Notes>
This compound contains an acetal/aminal-like group ( X-CH(R)-Y where X, Y are N, S, or O) that may be acid/base labile, releasing an aldehyde.

$$$$
