2dbl_ligand
                    3D
 Schrodinger Suite 2020-3.
 67 70  0  0  1  0            999 V2000
  -19.6090   43.2120  -15.0920 C   0  0  0  0  0  0
  -18.2840   42.9280  -15.8780 C   0  0  0  0  0  0
  -17.0210   43.6270  -15.3230 C   0  0  2  0  0  0
  -15.8150   43.1030  -15.9000 O   0  0  0  0  0  0
  -17.0020   43.4450  -13.7690 C   0  0  0  0  0  0
  -18.1920   44.1920  -13.1820 C   0  0  2  0  0  0
  -18.0910   44.3490  -11.6990 C   0  0  0  0  0  0
  -19.2540   45.1550  -11.1500 C   0  0  0  0  0  0
  -20.6460   44.6780  -11.6080 C   0  0  2  0  0  0
  -20.6780   44.4100  -13.1300 C   0  0  1  0  0  0
  -19.5160   43.4610  -13.5270 C   0  0  1  0  0  0
  -22.0670   43.9550  -13.5650 C   0  0  0  0  0  0
  -23.2140   44.8570  -13.0210 C   0  0  0  0  0  0
  -23.0010   45.2830  -11.5450 C   0  0  1  0  0  0
  -21.6360   45.7790  -11.3530 C   0  0  1  0  0  0
  -21.6730   46.4880  -10.0120 C   0  0  0  0  0  0
  -23.1430   46.9640   -9.8590 C   0  0  0  0  0  0
  -23.9250   46.3880  -11.0620 C   0  0  2  0  0  0
  -23.1810   44.0340  -10.6790 C   0  0  0  0  0  0
  -19.6290   42.1340  -12.7500 C   0  0  0  0  0  0
  -25.3060   45.9000  -10.7100 C   0  0  0  0  0  0
  -25.5100   45.1730   -9.7510 O   0  0  0  0  0  0
  -26.4650   46.2830  -11.5540 C   0  0  0  0  0  0
  -15.7850   42.3040  -16.8680 C   0  0  0  0  0  0
  -16.1250   42.6330  -18.0320 O   0  0  0  0  0  0
  -15.2480   40.8890  -16.6710 C   0  0  0  0  0  0
  -13.7450   40.8590  -16.6750 C   0  0  0  0  0  0
  -13.1960   41.4700  -15.4050 C   0  0  0  0  0  0
  -13.9720   41.4280  -14.3970 O   0  0  0  0  0  0
  -12.0220   41.9830  -15.4060 O   0  5  0  0  0  0
  -20.0874   44.1170  -15.4947 H   0  0  0  0  0  0
  -20.2915   42.3564  -15.2025 H   0  0  0  0  0  0
  -18.0737   41.8484  -15.8642 H   0  0  0  0  0  0
  -18.3952   43.2666  -16.9187 H   0  0  0  0  0  0
  -16.9925   44.6802  -15.6393 H   0  0  0  0  0  0
  -17.0720   42.3748  -13.5243 H   0  0  0  0  0  0
  -16.0646   43.8533  -13.3634 H   0  0  0  0  0  0
  -18.1666   45.2070  -13.6053 H   0  0  0  0  0  0
  -18.0974   43.3569  -11.2240 H   0  0  0  0  0  0
  -17.1549   44.8695  -11.4483 H   0  0  0  0  0  0
  -19.2482   45.1053  -10.0511 H   0  0  0  0  0  0
  -19.1574   46.2029  -11.4702 H   0  0  0  0  0  0
  -20.9030   43.7680  -11.0460 H   0  0  0  0  0  0
  -20.5183   45.3402  -13.6950 H   0  0  0  0  0  0
  -22.1300   43.9682  -14.6631 H   0  0  0  0  0  0
  -22.2495   42.9336  -13.1996 H   0  0  0  0  0  0
  -23.2792   45.7726  -13.6271 H   0  0  0  0  0  0
  -24.1675   44.3114  -13.0772 H   0  0  0  0  0  0
  -21.2941   46.5158  -12.0948 H   0  0  0  0  0  0
  -21.3866   45.7838   -9.2169 H   0  0  0  0  0  0
  -20.9689   47.3331  -10.0245 H   0  0  0  0  0  0
  -23.5531   46.5883   -8.9100 H   0  0  0  0  0  0
  -23.1746   48.0635   -9.8624 H   0  0  0  0  0  0
  -24.1613   47.1274  -11.8414 H   0  0  0  0  0  0
  -22.5084   43.2402  -11.0361 H   0  0  0  0  0  0
  -24.2233   43.6889  -10.7454 H   0  0  0  0  0  0
  -22.9406   44.2753   -9.6331 H   0  0  0  0  0  0
  -18.8016   41.4688  -13.0381 H   0  0  0  0  0  0
  -20.5880   41.6505  -12.9877 H   0  0  0  0  0  0
  -19.5779   42.3361  -11.6699 H   0  0  0  0  0  0
  -26.1236   46.9349  -12.3716 H   0  0  0  0  0  0
  -27.2036   46.8201  -10.9408 H   0  0  0  0  0  0
  -26.9268   45.3779  -11.9752 H   0  0  0  0  0  0
  -15.5995   40.4945  -15.7062 H   0  0  0  0  0  0
  -15.6093   40.2431  -17.4848 H   0  0  0  0  0  0
  -13.3993   39.8172  -16.7472 H   0  0  0  0  0  0
  -13.3691   41.4306  -17.5364 H   0  0  0  0  0  0
  1  2  1  0  0  0
  1 11  1  0  0  0
  1 31  1  0  0  0
  1 32  1  0  0  0
  2  3  1  0  0  0
  2 33  1  0  0  0
  2 34  1  0  0  0
  3  4  1  0  0  0
  3  5  1  0  0  0
  3 35  1  0  0  0
  4 24  1  0  0  0
  5  6  1  0  0  0
  5 36  1  0  0  0
  5 37  1  0  0  0
  6  7  1  0  0  0
  6 11  1  0  0  0
  6 38  1  0  0  0
  7  8  1  0  0  0
  7 39  1  0  0  0
  7 40  1  0  0  0
  8  9  1  0  0  0
  8 41  1  0  0  0
  8 42  1  0  0  0
  9 10  1  0  0  0
  9 15  1  0  0  0
  9 43  1  0  0  0
 10 11  1  0  0  0
 10 12  1  0  0  0
 10 44  1  0  0  0
 11 20  1  0  0  0
 12 13  1  0  0  0
 12 45  1  0  0  0
 12 46  1  0  0  0
 13 14  1  0  0  0
 13 47  1  0  0  0
 13 48  1  0  0  0
 14 15  1  0  0  0
 14 18  1  0  0  0
 14 19  1  0  0  0
 15 16  1  0  0  0
 15 49  1  0  0  0
 16 17  1  0  0  0
 16 50  1  0  0  0
 16 51  1  0  0  0
 17 18  1  0  0  0
 17 52  1  0  0  0
 17 53  1  0  0  0
 18 21  1  0  0  0
 18 54  1  0  0  0
 19 55  1  0  0  0
 19 56  1  0  0  0
 19 57  1  0  0  0
 20 58  1  0  0  0
 20 59  1  0  0  0
 20 60  1  0  0  0
 21 22  2  0  0  0
 21 23  1  0  0  0
 23 61  1  0  0  0
 23 62  1  0  0  0
 23 63  1  0  0  0
 24 25  2  0  0  0
 24 26  1  0  0  0
 26 27  1  0  0  0
 26 64  1  0  0  0
 26 65  1  0  0  0
 27 28  1  0  0  0
 27 66  1  0  0  0
 27 67  1  0  0  0
 28 29  2  0  0  0
 28 30  1  0  0  0
M  CHG  1  30  -1
M  END
> <s_m_source_file>
../2dbl_ligand.sdf

> <i_m_source_file_index>
1

> <s_epik_input>
Tz1DKFtPSF0pW0NIMl1bQ0gyXUMoPU8pT1tDQEBIXShbQ0gyXVtDSDJdMSlbQ0gyXVtDQEBIXShbQ0BdMTJbQ0gzXSlbQ0gyXVtDSDJdW0NAQEhdM1tDQEBIXTJbQ0gyXVtDSDJdW0NAQF00KFtDSDNdKVtDQEhdM1tDSDJdW0NIMl1bQ0BASF00Qyg9TylbQ0gzXQ==

> <s_epik_cmdline>
J2VwaWtfYXBwJywgJy1pbWFlJywgJ2xpZ2FuZF9wcm8ubWFlJywgJy1vbWFlJywgJ2xpZ2FuZF9wcmVwLm1hZScsICctbXMnLCAnMScsICctcGgnLCAnNycsICctcGh0JywgJzAuNScsICctbnQn

> <r_lp_tautomer_probability>
1

> <r_epik_Ionization_Penalty>
  0.0016

> <r_epik_Ionization_Penalty_Charging>
  0.0016

> <r_epik_Ionization_Penalty_Neutral>
  0.0000

> <r_epik_State_Penalty>
 -0.0000

> <r_epik_Charging_Adjusted_Penalty>
0.00162566979485567

> <i_epik_Tot_Q>
-1

> <i_epik_Tot_abs_Q>
1

> <s_epik_Chemistry_Notes>
This compound has an ester and may undergo hydrolysis at high or low pH.

$$$$
