2ddf_ligand
                    3D
 Schrodinger Suite 2020-3.
 67 66  0  0  1  0            999 V2000
    6.6900    6.1150   24.3260 N   0  0  0  0  0  0
    6.9540    8.2940   28.8890 C   0  0  0  0  0  0
    7.7780    3.6270   25.0580 O   0  0  0  0  0  0
    6.5750   -0.5610   25.2380 N   0  0  0  0  0  0
    5.9330    7.1070   24.7930 C   0  0  0  0  0  0
    6.6690   13.0290   24.9480 O   0  0  0  0  0  0
    6.0960    4.8380   23.9740 C   0  0  1  0  0  0
    6.2860    4.5320   22.4680 C   0  0  0  0  0  0
    5.5240    5.5360   21.5980 C   0  0  0  0  0  0
    5.8050    3.1130   22.1060 C   0  0  0  0  0  0
    6.5750    3.7070   24.8370 C   0  0  0  0  0  0
    6.0000    1.6660   26.0770 C   0  0  2  0  0  0
    5.2280    1.4980   27.3760 C   0  0  0  0  0  0
    6.0920   11.7800   24.8010 N   0  0  0  0  0  0
    6.7270   10.7850   24.2030 C   0  0  0  0  0  0
    7.8230   10.8830   23.6990 O   0  0  0  0  0  0
    5.9850    9.4640   24.1220 C   0  0  0  0  0  0
    6.6540    8.4200   25.0290 C   0  0  1  0  0  0
    6.5220    8.8400   26.4960 C   0  0  0  0  0  0
    7.2290    7.8710   27.4360 C   0  0  0  0  0  0
    8.7250    7.8040   27.1640 C   0  0  0  0  0  0
    4.7530    7.0060   25.0140 O   0  0  0  0  0  0
    7.7630    4.5700   22.0520 C   0  0  0  0  0  0
    5.6560    2.8510   25.2970 N   0  0  0  0  0  0
    5.7250    0.4590   25.2010 C   0  0  0  0  0  0
    4.7490    0.4090   24.4670 O   0  0  0  0  0  0
    6.3620   -1.7420   24.3930 C   0  0  0  0  0  0
    6.6190   -1.4500   22.9170 C   0  0  0  0  0  0
    5.3400   -1.2050   22.2540 N   0  3  0  0  0  0
    7.7727    6.2692   24.2079 H   0  0  0  0  0  0
    5.8681    8.3348   29.0597 H   0  0  0  0  0  0
    7.3914    9.2868   29.0709 H   0  0  0  0  0  0
    7.4059    7.5629   29.5755 H   0  0  0  0  0  0
    7.4448   -0.5150   25.9098 H   0  0  0  0  0  0
    6.1144   13.8354   25.4502 H   0  0  0  0  0  0
    5.0322    4.9728   24.2191 H   0  0  0  0  0  0
    4.4598    5.5288   21.8763 H   0  0  0  0  0  0
    5.6280    5.2567   20.5391 H   0  0  0  0  0  0
    5.9369    6.5436   21.7537 H   0  0  0  0  0  0
    4.7442    3.0053   22.3764 H   0  0  0  0  0  0
    6.4012    2.3717   22.6583 H   0  0  0  0  0  0
    5.9264    2.9494   21.0250 H   0  0  0  0  0  0
    7.0563    1.8103   26.3481 H   0  0  0  0  0  0
    5.4137    2.3646   28.0276 H   0  0  0  0  0  0
    5.5594    0.5800   27.8834 H   0  0  0  0  0  0
    4.1523    1.4279   27.1568 H   0  0  0  0  0  0
    5.0787   11.5935   25.1863 H   0  0  0  0  0  0
    4.9440    9.6077   24.4471 H   0  0  0  0  0  0
    5.9980    9.0991   23.0844 H   0  0  0  0  0  0
    7.7249    8.3138   24.8010 H   0  0  0  0  0  0
    6.9670    9.8365   26.6335 H   0  0  0  0  0  0
    5.4582    8.8719   26.7740 H   0  0  0  0  0  0
    6.8368    6.8599   27.2521 H   0  0  0  0  0  0
    9.1933    7.0953   27.8628 H   0  0  0  0  0  0
    9.1677    8.8015   27.3017 H   0  0  0  0  0  0
    8.8951    7.4668   26.1309 H   0  0  0  0  0  0
    8.1828    5.5608   22.2803 H   0  0  0  0  0  0
    7.8448    4.3771   20.9722 H   0  0  0  0  0  0
    8.3197    3.7994   22.6054 H   0  0  0  0  0  0
    4.6033    3.0703   25.0650 H   0  0  0  0  0  0
    7.0455   -2.5450   24.7061 H   0  0  0  0  0  0
    5.3219   -2.0846   24.4971 H   0  0  0  0  0  0
    7.2617   -0.5620   22.8254 H   0  0  0  0  0  0
    7.1187   -2.3136   22.4540 H   0  0  0  0  0  0
    5.5139   -0.9933   21.1887 H   0  0  0  0  0  0
    4.8432   -0.3428   22.7229 H   0  0  0  0  0  0
    4.7002   -2.0945   22.3514 H   0  0  0  0  0  0
  1  5  1  0  0  0
  1  7  1  0  0  0
  1 30  1  0  0  0
  2 20  1  0  0  0
  2 31  1  0  0  0
  2 32  1  0  0  0
  2 33  1  0  0  0
  3 11  2  0  0  0
  4 25  1  0  0  0
  4 27  1  0  0  0
  4 34  1  0  0  0
  5 18  1  0  0  0
  5 22  2  0  0  0
  6 14  1  0  0  0
  6 35  1  0  0  0
  7  8  1  0  0  0
  7 11  1  0  0  0
  7 36  1  0  0  0
  8  9  1  0  0  0
  8 10  1  0  0  0
  8 23  1  0  0  0
  9 37  1  0  0  0
  9 38  1  0  0  0
  9 39  1  0  0  0
 10 40  1  0  0  0
 10 41  1  0  0  0
 10 42  1  0  0  0
 11 24  1  0  0  0
 12 13  1  0  0  0
 12 24  1  0  0  0
 12 25  1  0  0  0
 12 43  1  0  0  0
 13 44  1  0  0  0
 13 45  1  0  0  0
 13 46  1  0  0  0
 14 15  1  0  0  0
 14 47  1  0  0  0
 15 16  2  0  0  0
 15 17  1  0  0  0
 17 18  1  0  0  0
 17 48  1  0  0  0
 17 49  1  0  0  0
 18 19  1  0  0  0
 18 50  1  0  0  0
 19 20  1  0  0  0
 19 51  1  0  0  0
 19 52  1  0  0  0
 20 21  1  0  0  0
 20 53  1  0  0  0
 21 54  1  0  0  0
 21 55  1  0  0  0
 21 56  1  0  0  0
 23 57  1  0  0  0
 23 58  1  0  0  0
 23 59  1  0  0  0
 24 60  1  0  0  0
 25 26  2  0  0  0
 27 28  1  0  0  0
 27 61  1  0  0  0
 27 62  1  0  0  0
 28 29  1  0  0  0
 28 63  1  0  0  0
 28 64  1  0  0  0
 29 65  1  0  0  0
 29 66  1  0  0  0
 29 67  1  0  0  0
M  CHG  1  29   1
M  END
> <s_m_source_file>
../2ddf_ligand.sdf

> <i_m_source_file_index>
1

> <s_epik_input>
W09IXVtOSF1DKD1PKVtDSDJdW0NAQEhdKFtDSDJdW0NIXShbQ0gzXSlbQ0gzXSlDKD1PKVtOSF1bQ0BASF0oQyhbQ0gzXSkoW0NIM10pW0NIM10pQyg9TylbTkhdW0NAQEhdKFtDSDNdKUMoPU8pW05IXVtDSDJdW0NIMl1bTkgzK10=

> <s_epik_cmdline>
J2VwaWtfYXBwJywgJy1pbWFlJywgJ2xpZ2FuZF9wcm8ubWFlJywgJy1vbWFlJywgJ2xpZ2FuZF9wcmVwLm1hZScsICctbXMnLCAnMScsICctcGgnLCAnNycsICctcGh0JywgJzAuNScsICctbnQn

> <r_lp_tautomer_probability>
1

> <r_epik_Ionization_Penalty>
  0.0076

> <r_epik_Ionization_Penalty_Charging>
  0.0022

> <r_epik_Ionization_Penalty_Neutral>
  0.0053

> <r_epik_State_Penalty>
 -0.0000

> <r_epik_Charging_Adjusted_Penalty>
0.00222889603971561

> <i_epik_Tot_Q>
1

> <i_epik_Tot_abs_Q>
1

> <s_epik_Chemistry_Notes>
This compound has a N-S or N-O group and may undergo hydrolysis at high or low pH.

$$$$
