2df6_ligand
                    3D
 Schrodinger Suite 2020-3.
295300  0  0  1  0            999 V2000
   54.3450   20.4350    2.3490 N   0  3  0  0  0  0
   53.3990   21.4770    1.8980 C   0  0  2  0  0  0
   53.8150   22.8490    2.4240 C   0  0  0  0  0  0
   54.6090   22.9530    3.3580 O   0  0  0  0  0  0
   52.0290   21.0820    2.4270 C   0  0  0  0  0  0
   52.4110   20.2940    3.6730 C   0  0  0  0  0  0
   53.6570   19.4980    3.2550 C   0  0  0  0  0  0
   53.2850   23.9220    1.8240 N   0  0  0  0  0  0
   53.6270   25.2750    2.2630 C   0  0  2  0  0  0
   53.2570   25.5480    3.7110 C   0  0  0  0  0  0
   52.4310   24.8520    4.3080 O   0  0  0  0  0  0
   52.8780   26.1690    1.2730 C   0  0  0  0  0  0
   51.7590   25.3180    0.7990 C   0  0  0  0  0  0
   52.3740   23.9570    0.6710 C   0  0  0  0  0  0
   53.8920   26.5630    4.2810 N   0  0  0  0  0  0
   53.6340   26.9260    5.6590 C   0  0  2  0  0  0
   52.2730   27.5820    5.7640 C   0  0  0  0  0  0
   51.9480   28.4920    5.0030 O   0  0  0  0  0  0
   54.7030   27.8950    6.1860 C   0  0  0  0  0  0
   54.3990   28.2750    7.6250 C   0  0  0  0  0  0
   56.0740   27.2470    6.0810 C   0  0  0  0  0  0
   51.4770   27.0980    6.7060 N   0  0  0  0  0  0
   50.1500   27.6380    6.9310 C   0  0  2  0  0  0
   50.2370   28.6720    8.0330 C   0  0  0  0  0  0
   50.5790   28.3550    9.1710 O   0  0  0  0  0  0
   49.1800   26.5430    7.3660 C   0  0  2  0  0  0
   49.0230   25.5230    6.2400 C   0  0  0  0  0  0
   47.8430   27.1530    7.7260 C   0  0  0  0  0  0
   48.1550   24.3510    6.6050 C   0  0  0  0  0  0
   49.9350   29.9150    7.6930 N   0  0  0  0  0  0
   49.9860   30.9730    8.6830 C   0  0  2  0  0  0
   48.9220   30.7160    9.7350 C   0  0  0  0  0  0
   47.9020   30.0870    9.4620 O   0  0  0  0  0  0
   49.7500   32.3220    8.0190 C   0  0  0  0  0  0
   49.1610   31.1630   10.9700 N   0  0  0  0  0  0
   48.1230   30.9200   11.9680 C   0  0  2  0  0  0
   46.9140   31.7220   11.5070 C   0  0  0  0  0  0
   47.0680   32.7720   10.8840 O   0  0  0  0  0  0
   48.7320   31.4900   13.2430 C   0  0  0  0  0  0
   50.2080   31.2980   13.0280 C   0  0  0  0  0  0
   50.3780   31.7130   11.5900 C   0  0  0  0  0  0
   45.7190   31.2290   11.7870 N   0  0  0  0  0  0
   44.5230   31.9560   11.3920 C   0  0  2  0  0  0
   44.5810   33.3530   11.9910 C   0  0  0  0  0  0
   44.7090   33.5070   13.1990 O   0  0  0  0  0  0
   43.2690   31.2550   11.9160 C   0  0  0  0  0  0
   42.8030   30.0780   11.0880 C   0  0  0  0  0  0
   42.2130   30.5570    9.7800 C   0  0  0  0  0  0
   40.9600   31.2760    9.9710 N   0  0  0  0  0  0
   39.8110   30.6950   10.2960 C   0  0  0  0  0  0
   39.7590   29.3810   10.4660 N   0  0  0  0  0  0
   38.7160   31.4260   10.4430 N   0  0  0  0  0  0
   44.5200   34.3930   11.1510 N   0  0  0  0  0  0
   44.5610   35.7420   11.7110 C   0  0  2  0  0  0
   43.2270   35.9670   12.3880 C   0  0  0  0  0  0
   42.2120   35.4250   11.9570 O   0  0  0  0  0  0
   44.7110   36.6260   10.4830 C   0  0  0  0  0  0
   45.3650   35.7460    9.4870 C   0  0  0  0  0  0
   44.6740   34.4270    9.6890 C   0  0  0  0  0  0
   43.2220   36.7710   13.4370 N   0  0  0  0  0  0
   41.9880   37.0340   14.1440 C   0  0  2  0  0  0
   40.9280   37.6270   13.2300 C   0  0  0  0  0  0
   39.7430   37.3400   13.3800 O   0  0  0  0  0  0
   42.2480   37.9860   15.3050 C   0  0  0  0  0  0
   41.0210   38.2540   16.1440 C   0  0  0  0  0  0
   40.4160   36.9820   16.6990 C   0  0  0  0  0  0
   41.1680   36.1760   17.2860 O   0  0  0  0  0  0
   39.1890   36.7940   16.5520 O   0  0  0  0  0  0
   41.3430   38.4470   12.2700 N   0  0  0  0  0  0
   40.3710   39.0700   11.3890 C   0  0  2  0  0  0
   39.6830   38.0980   10.4460 C   0  0  0  0  0  0
   38.8180   38.4900    9.6690 O   0  0  0  0  0  0
   40.9970   40.2180   10.5960 C   0  0  0  0  0  0
   42.0900   39.7950    9.6720 C   0  0  0  0  0  0
   43.3740   39.5420   10.1020 N   0  0  0  0  0  0
   42.0950   39.6010    8.3330 C   0  0  0  0  0  0
   44.1250   39.2170    9.0660 C   0  0  0  0  0  0
   43.3720   39.2450    7.9810 N   0  0  0  0  0  0
   40.0740   36.8310   10.5040 N   0  0  0  0  0  0
   39.4290   35.8240    9.6700 C   0  0  2  0  0  0
   38.6000   34.9190   10.5580 C   0  0  0  0  0  0
   37.8960   34.0400   10.0740 O   0  0  0  0  0  0
   40.4310   34.9230    8.9440 C   0  0  2  0  0  0
   41.1040   34.0900    9.8940 O   0  0  0  0  0  0
   41.4340   35.7520    8.1830 C   0  0  0  0  0  0
   38.6920   35.1350   11.8620 N   0  0  0  0  0  0
   37.9690   34.3050   12.8040 C   0  0  2  0  0  0
   36.6030   34.8200   13.1940 C   0  0  0  0  0  0
   36.2630   35.9830   12.9900 O   0  0  0  0  0  0
   38.7980   34.1120   14.0660 C   0  0  0  0  0  0
   40.1230   33.4380   13.8230 C   0  0  0  0  0  0
   40.8590   33.2200   15.1270 C   0  0  0  0  0  0
   42.1800   32.5240   14.8980 C   0  0  0  0  0  0
   42.8640   32.2230   16.1840 N   0  3  0  0  0  0
   35.8250   33.9110   13.7610 N   0  0  0  0  0  0
   34.4890   34.2060   14.2410 C   0  0  2  0  0  0
   34.2780   33.1810   15.3380 C   0  0  0  0  0  0
   35.1850   32.4070   15.6480 O   0  0  0  0  0  0
   33.4580   34.0040   13.1360 C   0  0  0  0  0  0
   33.2680   32.6250   12.8770 O   0  0  0  0  0  0
   33.0920   33.1710   15.9310 N   0  0  0  0  0  0
   32.8130   32.2080   16.9850 C   0  0  2  0  0  0
   32.8480   30.8050   16.3920 C   0  0  0  0  0  0
   32.9280   29.8180   17.1180 O   0  0  0  0  0  0
   31.4260   32.4460   17.6310 C   0  0  2  0  0  0
   30.3130   32.2240   16.6040 C   0  0  0  0  0  0
   31.3620   33.8520   18.2110 C   0  0  0  0  0  0
   30.2480   33.2600   15.5060 C   0  0  0  0  0  0
   32.8080   30.7290   15.0640 N   0  0  0  0  0  0
   32.8280   29.4480   14.3720 C   0  0  2  0  0  0
   34.2260   28.8960   14.1650 C   0  0  0  0  0  0
   34.4010   27.7750   13.6920 O   0  0  0  0  0  0
   32.0910   29.5740   13.0430 C   0  0  0  0  0  0
   30.6420   29.8890   13.2750 C   0  0  0  0  0  0
   30.0850   31.0950   12.8560 C   0  0  0  0  0  0
   29.8420   29.0050   13.9950 C   0  0  0  0  0  0
   28.7680   31.4140   13.1570 C   0  0  0  0  0  0
   28.5340   29.3130   14.3010 C   0  0  0  0  0  0
   28.0020   30.5170   13.8830 C   0  0  0  0  0  0
   26.7070   30.8240   14.2030 O   0  0  0  0  0  0
   35.2270   29.6850   14.5320 N   0  0  0  0  0  0
   36.5980   29.2330   14.4040 C   0  0  2  0  0  0
   36.8950   28.3880   15.6360 C   0  0  0  0  0  0
   37.6210   28.8110   16.5340 O   0  0  0  0  0  0
   37.5610   30.4210   14.3430 C   0  0  2  0  0  0
   37.1120   31.3360   13.3370 O   0  0  0  0  0  0
   38.9620   29.9480   14.0020 C   0  0  0  0  0  0
   36.3050   27.1970   15.6720 N   0  0  0  0  0  0
   36.4800   26.2750   16.7920 C   0  0  2  0  0  0
   37.4670   25.1760   16.4190 C   0  0  0  0  0  0
   37.3960   24.6130   15.3260 O   0  0  0  0  0  0
   35.1460   25.6200   17.1620 C   0  0  0  0  0  0
   33.9410   26.5450   17.1640 C   0  0  0  0  0  0
   32.6660   25.7440   17.3990 C   0  0  0  0  0  0
   31.4610   26.5130   17.1080 N   0  0  0  0  0  0
   30.2270   26.0160   17.1440 C   0  0  0  0  0  0
   30.0300   24.7420   17.4610 N   0  0  0  0  0  0
   29.1900   26.7900   16.8500 N   0  0  0  0  0  0
   38.3770   24.8650   17.3350 N   0  0  0  0  0  0
   39.3680   23.8220   17.0990 C   0  0  2  0  0  0
   39.1960   22.6990   18.1170 C   0  0  0  0  0  0
   40.1430   22.4500   18.8920 O   0  0  0  0  0  0
   40.7810   24.4020   17.1950 C   0  0  0  0  0  0
   41.7560   23.4190   16.8870 O   0  0  0  0  0  0
   38.1090   22.0830   18.1290 O   0  0  0  0  0  0
   54.7272   19.8845    1.4767 H   0  0  0  0  0  0
   55.1841   20.9070    2.8812 H   0  0  0  0  0  0
   53.4048   21.5244    0.7990 H   0  0  0  0  0  0
   51.4445   21.9882    2.6439 H   0  0  0  0  0  0
   51.5040   20.4792    1.6714 H   0  0  0  0  0  0
   52.6258   20.9912    4.4962 H   0  0  0  0  0  0
   51.5787   19.6342    3.9591 H   0  0  0  0  0  0
   53.4108   18.5749    2.7098 H   0  0  0  0  0  0
   54.3150   19.2584    4.1033 H   0  0  0  0  0  0
   54.7181   25.4139    2.2488 H   0  0  0  0  0  0
   52.5222   27.0719    1.7909 H   0  0  0  0  0  0
   53.5547   26.4580    0.4554 H   0  0  0  0  0  0
   50.9443   25.3386    1.5378 H   0  0  0  0  0  0
   51.3902   25.7002   -0.1643 H   0  0  0  0  0  0
   52.9516   23.8311   -0.2566 H   0  0  0  0  0  0
   51.6397   23.1427    0.7590 H   0  0  0  0  0  0
   54.6245   27.1325    3.6901 H   0  0  0  0  0  0
   53.6595   25.9793    6.2186 H   0  0  0  0  0  0
   54.7045   28.8163    5.5850 H   0  0  0  0  0  0
   53.4042   28.7414    7.6787 H   0  0  0  0  0  0
   55.1573   28.9861    7.9845 H   0  0  0  0  0  0
   54.4153   27.3726    8.2538 H   0  0  0  0  0  0
   56.2741   26.9800    5.0328 H   0  0  0  0  0  0
   56.0990   26.3392    6.7018 H   0  0  0  0  0  0
   56.8410   27.9528    6.4324 H   0  0  0  0  0  0
   51.8446   26.2663    7.3250 H   0  0  0  0  0  0
   49.8265   28.0759    5.9752 H   0  0  0  0  0  0
   49.5698   26.0334    8.2595 H   0  0  0  0  0  0
   48.5664   26.0096    5.3655 H   0  0  0  0  0  0
   50.0112   25.1261    5.9644 H   0  0  0  0  0  0
   47.9797   27.8831    8.5373 H   0  0  0  0  0  0
   47.1559   26.3606    8.0577 H   0  0  0  0  0  0
   47.4215   27.6587    6.8447 H   0  0  0  0  0  0
   48.0890   23.6630    5.7492 H   0  0  0  0  0  0
   47.1481   24.7080    6.8670 H   0  0  0  0  0  0
   48.5929   23.8245    7.4659 H   0  0  0  0  0  0
   49.6449   30.1446    6.6571 H   0  0  0  0  0  0
   50.9905   30.9477    9.1306 H   0  0  0  0  0  0
   50.5260   32.4975    7.2594 H   0  0  0  0  0  0
   49.7935   33.1169    8.7781 H   0  0  0  0  0  0
   48.7599   32.3265    7.5397 H   0  0  0  0  0  0
   47.8368   29.8647   12.0882 H   0  0  0  0  0  0
   48.4533   32.5496   13.3406 H   0  0  0  0  0  0
   48.3549   30.9302   14.1116 H   0  0  0  0  0  0
   50.7666   31.9369   13.7278 H   0  0  0  0  0  0
   50.4702   30.2444   13.2043 H   0  0  0  0  0  0
   51.2647   31.2689   11.1141 H   0  0  0  0  0  0
   50.3973   32.8045   11.4547 H   0  0  0  0  0  0
   45.6294   30.2699   12.3182 H   0  0  0  0  0  0
   44.5230   31.9785   10.2922 H   0  0  0  0  0  0
   43.4594   30.8722   12.9295 H   0  0  0  0  0  0
   42.4340   31.9705   11.9452 H   0  0  0  0  0  0
   43.6569   29.4177   10.8763 H   0  0  0  0  0  0
   42.0363   29.5189   11.6444 H   0  0  0  0  0  0
   42.9232   31.2348    9.2838 H   0  0  0  0  0  0
   42.0148   29.6929    9.1288 H   0  0  0  0  0  0
   40.9282   32.3684    9.8461 H   0  0  0  0  0  0
   40.6683   28.7742   10.3439 H   0  0  0  0  0  0
   38.8065   28.8977   10.7291 H   0  0  0  0  0  0
   38.7594   32.5161   10.3019 H   0  0  0  0  0  0
   45.3674   35.9000   12.4423 H   0  0  0  0  0  0
   43.7181   36.9629   10.1503 H   0  0  0  0  0  0
   45.3298   37.5002   10.7338 H   0  0  0  0  0  0
   45.2073   36.1540    8.4777 H   0  0  0  0  0  0
   46.4435   35.6930    9.6967 H   0  0  0  0  0  0
   45.2776   33.5668    9.3638 H   0  0  0  0  0  0
   43.6827   34.3795    9.2147 H   0  0  0  0  0  0
   44.1587   37.2404   13.7721 H   0  0  0  0  0  0
   41.6540   36.0475   14.4980 H   0  0  0  0  0  0
   43.0145   37.5564   15.9668 H   0  0  0  0  0  0
   42.6002   38.9524   14.9150 H   0  0  0  0  0  0
   41.2906   38.9012   16.9916 H   0  0  0  0  0  0
   40.2583   38.7540   15.5290 H   0  0  0  0  0  0
   38.7218   35.8789   16.9449 H   0  0  0  0  0  0
   42.4154   38.6549   12.1405 H   0  0  0  0  0  0
   39.6162   39.4407   12.0981 H   0  0  0  0  0  0
   40.2242   40.7039    9.9823 H   0  0  0  0  0  0
   41.4278   40.9525   11.2923 H   0  0  0  0  0  0
   41.3132   39.6770    7.5629 H   0  0  0  0  0  0
   45.1856   38.9680    9.1001 H   0  0  0  0  0  0
   40.8882   36.5419   11.1848 H   0  0  0  0  0  0
   38.8356   36.4036    8.9475 H   0  0  0  0  0  0
   39.9189   34.2415    8.2488 H   0  0  0  0  0  0
   40.5249   33.4143   10.5406 H   0  0  0  0  0  0
   40.9077   36.3882    7.4561 H   0  0  0  0  0  0
   42.1311   35.0874    7.6516 H   0  0  0  0  0  0
   41.9950   36.3853    8.8860 H   0  0  0  0  0  0
   39.3267   35.9560   12.2267 H   0  0  0  0  0  0
   37.8192   33.3773   12.2322 H   0  0  0  0  0  0
   39.0075   35.0916   14.5205 H   0  0  0  0  0  0
   38.2396   33.4885   14.7798 H   0  0  0  0  0  0
   39.9556   32.4631   13.3419 H   0  0  0  0  0  0
   40.7407   34.0692   13.1673 H   0  0  0  0  0  0
   41.0522   34.1913   15.6058 H   0  0  0  0  0  0
   40.2453   32.5976   15.7948 H   0  0  0  0  0  0
   42.0082   31.5778   14.3639 H   0  0  0  0  0  0
   42.8358   33.1707   14.2965 H   0  0  0  0  0  0
   43.8199   31.7178   15.9814 H   0  0  0  0  0  0
   42.2252   31.5679   16.7945 H   0  0  0  0  0  0
   43.0528   33.1607   16.7271 H   0  0  0  0  0  0
   36.2333   32.8945   13.8607 H   0  0  0  0  0  0
   34.4244   35.2517   14.5763 H   0  0  0  0  0  0
   32.4983   34.4438   13.4451 H   0  0  0  0  0  0
   33.8065   34.4946   12.2152 H   0  0  0  0  0  0
   32.5540   32.3038   12.1043 H   0  0  0  0  0  0
   32.3189   33.8914   15.6255 H   0  0  0  0  0  0
   33.6098   32.3580   17.7284 H   0  0  0  0  0  0
   31.2679   31.7336   18.4541 H   0  0  0  0  0  0
   30.4562   31.2502   16.1129 H   0  0  0  0  0  0
   29.3373   32.2386   17.1117 H   0  0  0  0  0  0
   32.1714   33.9833   18.9443 H   0  0  0  0  0  0
   30.3910   34.0005   18.7061 H   0  0  0  0  0  0
   31.4774   34.5881   17.4017 H   0  0  0  0  0  0
   29.4221   33.0172   14.8212 H   0  0  0  0  0  0
   31.1967   33.2643   14.9493 H   0  0  0  0  0  0
   30.0779   34.2527   15.9482 H   0  0  0  0  0  0
   32.7588   31.6647   14.4878 H   0  0  0  0  0  0
   32.3102   28.7573   15.0538 H   0  0  0  0  0  0
   32.5422   30.3822   12.4487 H   0  0  0  0  0  0
   32.1671   28.6260   12.4902 H   0  0  0  0  0  0
   30.6913   31.7975   12.2842 H   0  0  0  0  0  0
   30.2580   28.0522   14.3224 H   0  0  0  0  0  0
   28.3411   32.3605   12.8255 H   0  0  0  0  0  0
   27.9235   28.6111   14.8691 H   0  0  0  0  0  0
   26.2714   31.7797   13.8761 H   0  0  0  0  0  0
   35.0132   30.6860   14.9349 H   0  0  0  0  0  0
   36.6780   28.6603   13.4682 H   0  0  0  0  0  0
   37.5691   30.9729   15.2945 H   0  0  0  0  0  0
   36.1123   31.7887   13.4120 H   0  0  0  0  0  0
   39.3095   29.2449   14.7733 H   0  0  0  0  0  0
   39.6410   30.8124   13.9612 H   0  0  0  0  0  0
   38.9510   29.4439   13.0244 H   0  0  0  0  0  0
   35.6678   26.9141   14.8212 H   0  0  0  0  0  0
   36.8649   26.8884   17.6200 H   0  0  0  0  0  0
   34.9198   24.8178   16.4441 H   0  0  0  0  0  0
   35.2137   25.1970   18.1751 H   0  0  0  0  0  0
   34.0520   27.2900   17.9656 H   0  0  0  0  0  0
   33.8711   27.0582   16.1936 H   0  0  0  0  0  0
   32.6659   24.8561   16.7497 H   0  0  0  0  0  0
   32.6200   25.4284   18.4517 H   0  0  0  0  0  0
   31.5391   27.5763   16.8374 H   0  0  0  0  0  0
   30.8870   24.0972   17.7053 H   0  0  0  0  0  0
   29.0097   24.3312   17.4793 H   0  0  0  0  0  0
   29.3491   27.8461   16.5868 H   0  0  0  0  0  0
   38.3723   25.4136   18.2884 H   0  0  0  0  0  0
   39.1798   23.4456   16.0827 H   0  0  0  0  0  0
   40.8841   25.2357   16.4849 H   0  0  0  0  0  0
   40.9589   24.7670   18.2173 H   0  0  0  0  0  0
   42.8248   23.6780   16.9110 H   0  0  0  0  0  0
   37.9472   21.2669   18.8486 H   0  0  0  0  0  0
  1  2  1  0  0  0
  1  7  1  0  0  0
  1146  1  0  0  0
  1147  1  0  0  0
  2  3  1  0  0  0
  2  5  1  0  0  0
  2148  1  0  0  0
  3  4  2  0  0  0
  3  8  1  0  0  0
  5  6  1  0  0  0
  5149  1  0  0  0
  5150  1  0  0  0
  6  7  1  0  0  0
  6151  1  0  0  0
  6152  1  0  0  0
  7153  1  0  0  0
  7154  1  0  0  0
  8  9  1  0  0  0
  8 14  1  0  0  0
  9 10  1  0  0  0
  9 12  1  0  0  0
  9155  1  0  0  0
 10 11  2  0  0  0
 10 15  1  0  0  0
 12 13  1  0  0  0
 12156  1  0  0  0
 12157  1  0  0  0
 13 14  1  0  0  0
 13158  1  0  0  0
 13159  1  0  0  0
 14160  1  0  0  0
 14161  1  0  0  0
 15 16  1  0  0  0
 15162  1  0  0  0
 16 17  1  0  0  0
 16 19  1  0  0  0
 16163  1  0  0  0
 17 18  2  0  0  0
 17 22  1  0  0  0
 19 20  1  0  0  0
 19 21  1  0  0  0
 19164  1  0  0  0
 20165  1  0  0  0
 20166  1  0  0  0
 20167  1  0  0  0
 21168  1  0  0  0
 21169  1  0  0  0
 21170  1  0  0  0
 22 23  1  0  0  0
 22171  1  0  0  0
 23 24  1  0  0  0
 23 26  1  0  0  0
 23172  1  0  0  0
 24 25  2  0  0  0
 24 30  1  0  0  0
 26 27  1  0  0  0
 26 28  1  0  0  0
 26173  1  0  0  0
 27 29  1  0  0  0
 27174  1  0  0  0
 27175  1  0  0  0
 28176  1  0  0  0
 28177  1  0  0  0
 28178  1  0  0  0
 29179  1  0  0  0
 29180  1  0  0  0
 29181  1  0  0  0
 30 31  1  0  0  0
 30182  1  0  0  0
 31 32  1  0  0  0
 31 34  1  0  0  0
 31183  1  0  0  0
 32 33  2  0  0  0
 32 35  1  0  0  0
 34184  1  0  0  0
 34185  1  0  0  0
 34186  1  0  0  0
 35 36  1  0  0  0
 35 41  1  0  0  0
 36 37  1  0  0  0
 36 39  1  0  0  0
 36187  1  0  0  0
 37 38  2  0  0  0
 37 42  1  0  0  0
 39 40  1  0  0  0
 39188  1  0  0  0
 39189  1  0  0  0
 40 41  1  0  0  0
 40190  1  0  0  0
 40191  1  0  0  0
 41192  1  0  0  0
 41193  1  0  0  0
 42 43  1  0  0  0
 42194  1  0  0  0
 43 44  1  0  0  0
 43 46  1  0  0  0
 43195  1  0  0  0
 44 45  2  0  0  0
 44 53  1  0  0  0
 46 47  1  0  0  0
 46196  1  0  0  0
 46197  1  0  0  0
 47 48  1  0  0  0
 47198  1  0  0  0
 47199  1  0  0  0
 48 49  1  0  0  0
 48200  1  0  0  0
 48201  1  0  0  0
 49 50  1  0  0  0
 49202  1  0  0  0
 50 51  1  0  0  0
 50 52  2  0  0  0
 51203  1  0  0  0
 51204  1  0  0  0
 52205  1  0  0  0
 53 54  1  0  0  0
 53 59  1  0  0  0
 54 55  1  0  0  0
 54 57  1  0  0  0
 54206  1  0  0  0
 55 56  2  0  0  0
 55 60  1  0  0  0
 57 58  1  0  0  0
 57207  1  0  0  0
 57208  1  0  0  0
 58 59  1  0  0  0
 58209  1  0  0  0
 58210  1  0  0  0
 59211  1  0  0  0
 59212  1  0  0  0
 60 61  1  0  0  0
 60213  1  0  0  0
 61 62  1  0  0  0
 61 64  1  0  0  0
 61214  1  0  0  0
 62 63  2  0  0  0
 62 69  1  0  0  0
 64 65  1  0  0  0
 64215  1  0  0  0
 64216  1  0  0  0
 65 66  1  0  0  0
 65217  1  0  0  0
 65218  1  0  0  0
 66 67  2  0  0  0
 66 68  1  0  0  0
 68219  1  0  0  0
 69 70  1  0  0  0
 69220  1  0  0  0
 70 71  1  0  0  0
 70 73  1  0  0  0
 70221  1  0  0  0
 71 72  2  0  0  0
 71 79  1  0  0  0
 73 74  1  0  0  0
 73222  1  0  0  0
 73223  1  0  0  0
 74 75  2  0  0  0
 74 76  1  0  0  0
 75 77  1  0  0  0
 76 78  2  0  0  0
 76224  1  0  0  0
 77 78  1  0  0  0
 77225  1  0  0  0
 79 80  1  0  0  0
 79226  1  0  0  0
 80 81  1  0  0  0
 80 83  1  0  0  0
 80227  1  0  0  0
 81 82  2  0  0  0
 81 86  1  0  0  0
 83 84  1  0  0  0
 83 85  1  0  0  0
 83228  1  0  0  0
 84229  1  0  0  0
 85230  1  0  0  0
 85231  1  0  0  0
 85232  1  0  0  0
 86 87  1  0  0  0
 86233  1  0  0  0
 87 88  1  0  0  0
 87 90  1  0  0  0
 87234  1  0  0  0
 88 89  2  0  0  0
 88 95  1  0  0  0
 90 91  1  0  0  0
 90235  1  0  0  0
 90236  1  0  0  0
 91 92  1  0  0  0
 91237  1  0  0  0
 91238  1  0  0  0
 92 93  1  0  0  0
 92239  1  0  0  0
 92240  1  0  0  0
 93 94  1  0  0  0
 93241  1  0  0  0
 93242  1  0  0  0
 94243  1  0  0  0
 94244  1  0  0  0
 94245  1  0  0  0
 95 96  1  0  0  0
 95246  1  0  0  0
 96 97  1  0  0  0
 96 99  1  0  0  0
 96247  1  0  0  0
 97 98  2  0  0  0
 97101  1  0  0  0
 99100  1  0  0  0
 99248  1  0  0  0
 99249  1  0  0  0
100250  1  0  0  0
101102  1  0  0  0
101251  1  0  0  0
102103  1  0  0  0
102105  1  0  0  0
102252  1  0  0  0
103104  2  0  0  0
103109  1  0  0  0
105106  1  0  0  0
105107  1  0  0  0
105253  1  0  0  0
106108  1  0  0  0
106254  1  0  0  0
106255  1  0  0  0
107256  1  0  0  0
107257  1  0  0  0
107258  1  0  0  0
108259  1  0  0  0
108260  1  0  0  0
108261  1  0  0  0
109110  1  0  0  0
109262  1  0  0  0
110111  1  0  0  0
110113  1  0  0  0
110263  1  0  0  0
111112  2  0  0  0
111121  1  0  0  0
113114  1  0  0  0
113264  1  0  0  0
113265  1  0  0  0
114115  2  0  0  0
114116  1  0  0  0
115117  1  0  0  0
115266  1  0  0  0
116118  2  0  0  0
116267  1  0  0  0
117119  2  0  0  0
117268  1  0  0  0
118119  1  0  0  0
118269  1  0  0  0
119120  1  0  0  0
120270  1  0  0  0
121122  1  0  0  0
121271  1  0  0  0
122123  1  0  0  0
122125  1  0  0  0
122272  1  0  0  0
123124  2  0  0  0
123128  1  0  0  0
125126  1  0  0  0
125127  1  0  0  0
125273  1  0  0  0
126274  1  0  0  0
127275  1  0  0  0
127276  1  0  0  0
127277  1  0  0  0
128129  1  0  0  0
128278  1  0  0  0
129130  1  0  0  0
129132  1  0  0  0
129279  1  0  0  0
130131  2  0  0  0
130139  1  0  0  0
132133  1  0  0  0
132280  1  0  0  0
132281  1  0  0  0
133134  1  0  0  0
133282  1  0  0  0
133283  1  0  0  0
134135  1  0  0  0
134284  1  0  0  0
134285  1  0  0  0
135136  1  0  0  0
135286  1  0  0  0
136137  1  0  0  0
136138  2  0  0  0
137287  1  0  0  0
137288  1  0  0  0
138289  1  0  0  0
139140  1  0  0  0
139290  1  0  0  0
140141  1  0  0  0
140143  1  0  0  0
140291  1  0  0  0
141142  2  0  0  0
141145  1  0  0  0
143144  1  0  0  0
143292  1  0  0  0
143293  1  0  0  0
144294  1  0  0  0
145295  1  0  0  0
M  CHG  2   1   1  94   1
M  END
> <s_m_source_file>
../2df6_ligand.sdf

> <i_m_source_file_index>
1

> <s_epik_input>
W0NIMl0xW0NIMl1bQ0gyXVtOSDIrXVtDQEBIXTFDKD1PKU4yW0NAQEhdKFtDSDJdW0NIMl1bQ0gyXTIpQyg9TylbTkhdW0NAQEhdKFtDSF0oW0NIM10pW0NIM10pQyg9TylbTkhdW0NAQEhdKFtDQEBIXShbQ0gzXSlbQ0gyXVtDSDNdKUMoPU8pW05IXVtDQEBIXShbQ0gzXSlDKD1PKU4zW0NAQEhdKFtDSDJdW0NIMl1bQ0gyXTMpQyg9TylbTkhdW0NAQEhdKFtDSDJdW0NIMl1bQ0gyXVtOSF0vQyhbTkgyXSk9TlxbSF0pQyg9TylONFtDQEBIXShbQ0gyXVtDSDJdW0NIMl00KUMoPU8pW05IXVtDQEBIXShbQ0gyXVtDSDJdQyg9TylbT0hdKUMoPU8pW05IXVtDQEBIXShbQ0gyXUM1PU5bQ0gyXU49W0NIXTUpQyg9TylbTkhdW0NAQEhdKFtDQEhdKFtPSF0pW0NIM10pQyg9TylbTkhdW0NAQEhdKFtDSDJdW0NIMl1bQ0gyXVtDSDJdW05IMytdKUMoPU8pW05IXVtDQEBIXShbQ0gyXVtPSF0pQyg9TylbTkhdW0NAQEhdKFtDQEBIXShbQ0gzXSlbQ0gyXVtDSDNdKUMoPU8pW05IXVtDQEBIXShbQ0gyXWM2W2NIXVtjSF1jKFtPSF0pW2NIXVtjSF02KUMoPU8pW05IXVtDQEBIXShbQ0BIXShbT0hdKVtDSDNdKUMoPU8pW05IXVtDQEhdKEMoPU8pW05IXVtDQEhdKEMoPU8pW09IXSlbQ0gyXVtPSF0pW0NIMl1bQ0gyXVtDSDJdW05IXS9DKFtOSDJdKT1OXFtIXQ==

> <s_epik_cmdline>
J2VwaWtfYXBwJywgJy1pbWFlJywgJ2xpZ2FuZF9wcm8ubWFlJywgJy1vbWFlJywgJ2xpZ2FuZF9wcmVwLm1hZScsICctbXMnLCAnMScsICctcGgnLCAnNycsICctcGh0JywgJzAuNScsICctbnQn

> <s_epik_pKa_notes>
Molecule size exceeds maximum supported for generating protonation states

> <s_epik_Chemistry_Notes>
This compound has an imine and may undergo hydrolysis.

$$$$
