2doo_ligand
                    3D
 Schrodinger Suite 2020-3.
 54 55  0  0  1  0            999 V2000
   29.6070   45.8040   33.4710 C   0  0  0  0  0  0
   28.8450   44.6830   32.9420 C   0  0  0  0  0  0
   30.2050   46.9530   32.6940 C   0  0  0  0  0  0
   30.1240   47.1320   31.1460 N   0  0  0  0  0  0
   28.9900   47.7580   30.8110 C   0  0  0  0  0  0
   30.3060   46.1350   30.4870 C   0  0  0  0  0  0
   30.9150   47.9550   33.4300 C   0  0  0  0  0  0
   31.0680   47.9150   34.8450 C   0  0  0  0  0  0
   30.5070   46.8380   35.5810 C   0  0  0  0  0  0
   29.7670   45.7720   34.9400 C   0  0  0  0  0  0
   29.2020   44.6540   35.7550 C   0  0  0  0  0  0
   28.4680   43.6060   35.1070 C   0  0  0  0  0  0
   28.3030   43.6310   33.7190 C   0  0  0  0  0  0
   29.4140   44.6000   37.5190 S   0  0  0  0  0  0
   30.8320   44.4080   37.9770 N   0  0  3  0  0  0
   31.8760   43.8390   37.0940 C   0  0  0  0  0  0
   32.5270   42.5660   37.7580 C   0  0  0  0  0  0
   33.0550   42.9310   39.2220 C   0  0  0  0  0  0
   33.7680   41.7850   39.9060 C   0  0  0  0  0  0
   33.9520   42.0030   41.3800 N   0  0  0  0  0  0
   33.1670   41.1300   42.3080 C   0  0  0  0  0  0
   32.4080   40.2780   41.8450 O   0  0  0  0  0  0
   33.3510   41.3770   43.8440 C   0  0  0  0  0  0
   32.1730   40.9190   44.6920 C   0  0  0  0  0  0
   30.6760   41.9520   44.8060 S   0  0  0  0  0  0
   28.5580   43.5070   38.1010 O   0  0  0  0  0  0
   29.0090   45.9080   38.0760 O   0  0  0  0  0  0
   28.6788   44.6507   31.8652 H   0  0  0  0  0  0
   28.8684   48.6555   31.4353 H   0  0  0  0  0  0
   28.1371   47.0820   30.9707 H   0  0  0  0  0  0
   29.0322   48.0512   29.7516 H   0  0  0  0  0  0
   31.2467   45.6569   30.7976 H   0  0  0  0  0  0
   30.3660   46.4051   29.4224 H   0  0  0  0  0  0
   29.4709   45.4359   30.6414 H   0  0  0  0  0  0
   31.3586   48.7863   32.8821 H   0  0  0  0  0  0
   31.6125   48.7063   35.3602 H   0  0  0  0  0  0
   30.6378   46.8133   36.6628 H   0  0  0  0  0  0
   28.0405   42.7933   35.6943 H   0  0  0  0  0  0
   27.7498   42.8300   33.2286 H   0  0  0  0  0  0
   31.0365   44.5525   39.0481 H   0  0  0  0  0  0
   31.4257   43.5499   36.1329 H   0  0  0  0  0  0
   32.6593   44.5915   36.9203 H   0  0  0  0  0  0
   31.7758   41.7657   37.8307 H   0  0  0  0  0  0
   33.3707   42.2220   37.1418 H   0  0  0  0  0  0
   33.7636   43.7699   39.1576 H   0  0  0  0  0  0
   32.2043   43.2176   39.8577 H   0  0  0  0  0  0
   33.1858   40.8609   39.7756 H   0  0  0  0  0  0
   34.7656   41.6558   39.4608 H   0  0  0  0  0  0
   34.6426   42.7803   41.7390 H   0  0  0  0  0  0
   34.2375   40.8314   44.1995 H   0  0  0  0  0  0
   33.4842   42.4531   44.0290 H   0  0  0  0  0  0
   31.8023   39.9547   44.3143 H   0  0  0  0  0  0
   32.4964   40.8036   45.7370 H   0  0  0  0  0  0
   29.8247   41.6209   45.4189 H   0  0  0  0  0  0
  1  2  2  0  0  0
  1  3  1  0  0  0
  1 10  1  0  0  0
  2 13  1  0  0  0
  2 28  1  0  0  0
  3  4  1  0  0  0
  3  7  2  0  0  0
  4  5  1  0  0  0
  4  6  1  0  0  0
  5 29  1  0  0  0
  5 30  1  0  0  0
  5 31  1  0  0  0
  6 32  1  0  0  0
  6 33  1  0  0  0
  6 34  1  0  0  0
  7  8  1  0  0  0
  7 35  1  0  0  0
  8  9  2  0  0  0
  8 36  1  0  0  0
  9 10  1  0  0  0
  9 37  1  0  0  0
 10 11  2  0  0  0
 11 12  1  0  0  0
 11 14  1  0  0  0
 12 13  2  0  0  0
 12 38  1  0  0  0
 13 39  1  0  0  0
 14 15  1  0  0  0
 14 26  2  0  0  0
 14 27  2  0  0  0
 15 16  1  0  0  0
 15 40  1  0  0  0
 16 17  1  0  0  0
 16 41  1  0  0  0
 16 42  1  0  0  0
 17 18  1  0  0  0
 17 43  1  0  0  0
 17 44  1  0  0  0
 18 19  1  0  0  0
 18 45  1  0  0  0
 18 46  1  0  0  0
 19 20  1  0  0  0
 19 47  1  0  0  0
 19 48  1  0  0  0
 20 21  1  0  0  0
 20 49  1  0  0  0
 21 22  2  0  0  0
 21 23  1  0  0  0
 23 24  1  0  0  0
 23 50  1  0  0  0
 23 51  1  0  0  0
 24 25  1  0  0  0
 24 52  1  0  0  0
 24 53  1  0  0  0
 25 54  1  0  0  0
M  END
> <s_m_source_file>
../2doo_ligand.sdf

> <i_m_source_file_index>
1

> <s_epik_input>
W0NIM11OKFtDSDNdKWMxW2NIXVtjSF1bY0hdYyhjMTIpYyhbY0hdW2NIXVtjSF0yKVMoPU8pKD1PKVtOSF1bQ0gyXVtDSDJdW0NIMl1bQ0gyXVtOSF1DKD1PKVtDSDJdW0NIMl1bU0hd

> <s_epik_cmdline>
J2VwaWtfYXBwJywgJy1pbWFlJywgJ2xpZ2FuZF9wcm8ubWFlJywgJy1vbWFlJywgJ2xpZ2FuZF9wcmVwLm1hZScsICctbXMnLCAnMScsICctcGgnLCAnNycsICctcGh0JywgJzAuNScsICctbnQn

> <r_lp_tautomer_probability>
1

> <r_epik_Ionization_Penalty>
  0.0028

> <r_epik_Ionization_Penalty_Charging>
  0.0000

> <r_epik_Ionization_Penalty_Neutral>
  0.0028

> <r_epik_State_Penalty>
 -0.0000

> <r_epik_Charging_Adjusted_Penalty>
0

> <i_epik_Tot_Q>
0

> <i_epik_Tot_abs_Q>
0

$$$$
