2dq7_ligand
                    3D
 Schrodinger Suite 2020-3.
 62 69  0  0  1  0            999 V2000
  -15.0110   20.1620  -13.9350 O   0  0  0  0  0  0
  -14.8410   18.9340  -14.6700 C   0  0  2  0  0  0
  -15.7380   18.7990  -15.9230 C   0  0  0  0  0  0
  -16.4480   20.0920  -16.1960 C   0  0  2  0  0  0
  -17.2790   20.3420  -14.9420 C   0  0  2  0  0  0
  -16.3160   20.6850  -13.7260 C   0  0  2  0  0  0
  -16.0520   22.1960  -13.5440 C   0  0  0  0  0  0
  -16.9390   20.2490  -12.4460 N   0  0  0  0  0  0
  -16.7450   18.9490  -12.1130 C   0  0  0  0  0  0
  -15.9190   17.9010  -12.6540 C   0  0  0  0  0  0
  -15.8730   16.6270  -11.9850 C   0  0  0  0  0  0
  -16.6140   16.3480  -10.7920 C   0  0  0  0  0  0
  -17.4360   17.3700  -10.2580 C   0  0  0  0  0  0
  -17.4610   18.6370  -10.9240 C   0  0  0  0  0  0
  -18.2560   19.7840  -10.5930 C   0  0  0  0  0  0
  -17.8200   20.7400  -11.5370 C   0  0  0  0  0  0
  -18.4210   21.9960  -11.5170 C   0  0  0  0  0  0
  -19.3910   22.3400  -10.5460 C   0  0  0  0  0  0
  -19.7650   21.3880   -9.5730 C   0  0  0  0  0  0
  -19.2000   20.0680   -9.5850 C   0  0  0  0  0  0
  -18.1120   16.7780   -9.0440 C   0  0  0  0  0  0
  -17.5470   15.3950   -9.0420 N   0  0  0  0  0  0
  -16.6510   15.1550  -10.0520 C   0  0  0  0  0  0
  -16.0100   14.1080  -10.2170 O   0  0  0  0  0  0
  -15.0000   15.7690  -12.7170 C   0  0  0  0  0  0
  -14.5650   16.6060  -13.8000 C   0  0  0  0  0  0
  -13.6730   16.0910  -14.7720 C   0  0  0  0  0  0
  -13.2370   14.7330  -14.6380 C   0  0  0  0  0  0
  -13.6650   13.9260  -13.5580 C   0  0  0  0  0  0
  -14.5650   14.4400  -12.5740 C   0  0  0  0  0  0
  -15.1080   17.8510  -13.7350 N   0  0  0  0  0  0
  -18.0390   19.1520  -14.7230 O   0  0  0  0  0  0
  -19.4150   19.3850  -14.3480 C   0  0  0  0  0  0
  -17.2800   19.9270  -17.4030 N   0  3  0  0  0  0
  -17.8560   21.2250  -17.8740 C   0  0  0  0  0  0
  -13.7911   18.9261  -14.9982 H   0  0  0  0  0  0
  -15.1164   18.5398  -16.7927 H   0  0  0  0  0  0
  -16.4838   18.0077  -15.7565 H   0  0  0  0  0  0
  -15.7810   20.9375  -16.4200 H   0  0  0  0  0  0
  -18.0281   21.1368  -15.0731 H   0  0  0  0  0  0
  -15.5874   22.5995  -14.4558 H   0  0  0  0  0  0
  -15.3767   22.3499  -12.6894 H   0  0  0  0  0  0
  -17.0039   22.7146  -13.3572 H   0  0  0  0  0  0
  -18.1370   22.7328  -12.2684 H   0  0  0  0  0  0
  -19.8452   23.3308  -10.5492 H   0  0  0  0  0  0
  -20.4899   21.6577   -8.8050 H   0  0  0  0  0  0
  -19.4881   19.3188   -8.8476 H   0  0  0  0  0  0
  -17.8412   17.3622   -8.1522 H   0  0  0  0  0  0
  -19.2029   16.8045   -9.1824 H   0  0  0  0  0  0
  -17.8597   14.6742   -8.2721 H   0  0  0  0  0  0
  -13.3277   16.7109  -15.5994 H   0  0  0  0  0  0
  -12.5617   14.3130  -15.3835 H   0  0  0  0  0  0
  -13.3044   12.9007  -13.4753 H   0  0  0  0  0  0
  -14.9025   13.8228  -11.7414 H   0  0  0  0  0  0
  -19.9230   18.4206  -14.2001 H   0  0  0  0  0  0
  -19.9220   19.9481  -15.1454 H   0  0  0  0  0  0
  -19.4473   19.9637  -13.4131 H   0  0  0  0  0  0
  -16.6678   19.5098  -18.2161 H   0  0  0  0  0  0
  -18.1131   19.2431  -17.1834 H   0  0  0  0  0  0
  -18.4660   21.0508  -18.7727 H   0  0  0  0  0  0
  -17.0401   21.9225  -18.1142 H   0  0  0  0  0  0
  -18.4854   21.6559  -17.0814 H   0  0  0  0  0  0
  1  2  1  0  0  0
  1  6  1  0  0  0
  2  3  1  0  0  0
  2 31  1  0  0  0
  2 36  1  0  0  0
  3  4  1  0  0  0
  3 37  1  0  0  0
  3 38  1  0  0  0
  4  5  1  0  0  0
  4 34  1  0  0  0
  4 39  1  0  0  0
  5  6  1  0  0  0
  5 32  1  0  0  0
  5 40  1  0  0  0
  6  7  1  0  0  0
  6  8  1  0  0  0
  7 41  1  0  0  0
  7 42  1  0  0  0
  7 43  1  0  0  0
  8  9  1  0  0  0
  8 16  1  0  0  0
  9 10  2  0  0  0
  9 14  1  0  0  0
 10 11  1  0  0  0
 10 31  1  0  0  0
 11 12  2  0  0  0
 11 25  1  0  0  0
 12 13  1  0  0  0
 12 23  1  0  0  0
 13 14  2  0  0  0
 13 21  1  0  0  0
 14 15  1  0  0  0
 15 16  2  0  0  0
 15 20  1  0  0  0
 16 17  1  0  0  0
 17 18  2  0  0  0
 17 44  1  0  0  0
 18 19  1  0  0  0
 18 45  1  0  0  0
 19 20  2  0  0  0
 19 46  1  0  0  0
 20 47  1  0  0  0
 21 22  1  0  0  0
 21 48  1  0  0  0
 21 49  1  0  0  0
 22 23  1  0  0  0
 22 50  1  0  0  0
 23 24  2  0  0  0
 25 26  2  0  0  0
 25 30  1  0  0  0
 26 27  1  0  0  0
 26 31  1  0  0  0
 27 28  2  0  0  0
 27 51  1  0  0  0
 28 29  1  0  0  0
 28 52  1  0  0  0
 29 30  2  0  0  0
 29 53  1  0  0  0
 30 54  1  0  0  0
 32 33  1  0  0  0
 33 55  1  0  0  0
 33 56  1  0  0  0
 33 57  1  0  0  0
 34 35  1  0  0  0
 34 58  1  0  0  0
 34 59  1  0  0  0
 35 60  1  0  0  0
 35 61  1  0  0  0
 35 62  1  0  0  0
M  CHG  1  34   1
M  END
> <s_m_source_file>
../2dq7_ligand.sdf

> <i_m_source_file_index>
1

> <s_epik_input>
W0NIM11PW0NAQEhdMVtDQEhdKFtOSDIrXVtDSDNdKVtDSDJdW0NAQEhdKE8yKW4zYyhbY0hdW2NIXVtjSF1bY0hdNCljNGMoYzNjNW42W0NAXTEyW0NIM10pYzdjKFtDSDJdW05IXUM3PU8pYzVjOGM2W2NIXVtjSF1bY0hdW2NIXTg=

> <s_epik_cmdline>
J2VwaWtfYXBwJywgJy1pbWFlJywgJ2xpZ2FuZF9wcm8ubWFlJywgJy1vbWFlJywgJ2xpZ2FuZF9wcmVwLm1hZScsICctbXMnLCAnMScsICctcGgnLCAnNycsICctcGh0JywgJzAuNScsICctbnQn

> <r_epik_Ionization_Penalty>
  0.0560

> <r_epik_Ionization_Penalty_Charging>
  0.0560

> <r_epik_Ionization_Penalty_Neutral>
  0.0000

> <r_epik_State_Penalty>
  0.0482

> <r_epik_Charging_Adjusted_Penalty>
0.104192696511962

> <i_epik_Tot_Q>
1

> <i_epik_Tot_abs_Q>
1

> <s_epik_Chemistry_Notes>
This compound contains an acetal/aminal-like group ( X-CH(R)-Y where X, Y are N, S, or O) that may be acid/base labile, releasing an aldehyde.

$$$$
