2dri_ligand
                    3D
 Schrodinger Suite 2020-3.
 20 20  0  0  1  0            999 V2000
   50.1440   33.6000   44.1560 C   0  0  2  0  0  0
   49.4580   33.0880   45.4190 C   0  0  1  0  0  0
   49.0810   34.2650   46.3280 C   0  0  1  0  0  0
   50.3330   35.1100   46.6080 C   0  0  1  0  0  0
   50.9730   35.5300   45.2930 C   0  0  0  0  0  0
   50.5540   32.5410   43.3290 O   0  0  0  0  0  0
   48.3010   32.3610   45.0800 O   0  0  0  0  0  0
   48.0780   35.0500   45.6860 O   0  0  0  0  0  0
   50.0130   36.2510   47.3700 O   0  0  0  0  0  0
   51.2830   34.3700   44.5110 O   0  0  0  0  0  0
   49.4748   34.2212   43.5426 H   0  0  0  0  0  0
   50.0979   32.3620   45.9420 H   0  0  0  0  0  0
   48.6181   33.9300   47.2679 H   0  0  0  0  0  0
   51.0447   34.5633   47.2441 H   0  0  0  0  0  0
   50.2748   36.1697   44.7333 H   0  0  0  0  0  0
   51.8984   36.0884   45.4974 H   0  0  0  0  0  0
   49.8129   31.8249   42.9443 H   0  0  0  0  0  0
   48.3777   31.4768   44.4302 H   0  0  0  0  0  0
   47.1139   34.5953   45.4144 H   0  0  0  0  0  0
   49.5402   36.1385   48.3568 H   0  0  0  0  0  0
  1  2  1  0  0  0
  1  6  1  0  0  0
  1 10  1  0  0  0
  1 11  1  0  0  0
  2  3  1  0  0  0
  2  7  1  0  0  0
  2 12  1  0  0  0
  3  4  1  0  0  0
  3  8  1  0  0  0
  3 13  1  0  0  0
  4  5  1  0  0  0
  4  9  1  0  0  0
  4 14  1  0  0  0
  5 10  1  0  0  0
  5 15  1  0  0  0
  5 16  1  0  0  0
  6 17  1  0  0  0
  7 18  1  0  0  0
  8 19  1  0  0  0
  9 20  1  0  0  0
M  END
> <s_m_source_file>
../2dri_ligand.sdf

> <i_m_source_file_index>
1

> <s_epik_input>
W09IXVtDQEhdMVtDQEhdKFtPSF0pW0NASF0oW09IXSlbQ0BASF0oW0NIMl1PMSlbT0hd

> <s_epik_cmdline>
J2VwaWtfYXBwJywgJy1pbWFlJywgJ2xpZ2FuZF9wcm8ubWFlJywgJy1vbWFlJywgJ2xpZ2FuZF9wcmVwLm1hZScsICctbXMnLCAnMScsICctcGgnLCAnNycsICctcGh0JywgJzAuNScsICctbnQn

> <r_lp_tautomer_probability>
1

> <r_epik_Ionization_Penalty>
  0.0000

> <r_epik_Ionization_Penalty_Charging>
  0.0000

> <r_epik_Ionization_Penalty_Neutral>
  0.0000

> <r_epik_State_Penalty>
 -0.0000

> <r_epik_Charging_Adjusted_Penalty>
0

> <i_epik_Tot_Q>
0

> <i_epik_Tot_abs_Q>
0

> <s_epik_Chemistry_Notes>
This compound contains an acetal/aminal-like group ( X-CH(R)-Y where X, Y are N, S, or O) that may be acid/base labile, releasing an aldehyde.

$$$$
