2ds1_ligand
                    3D
 Schrodinger Suite 2020-3.
 54 59  0  0  1  0            999 V2000
   -6.7810   10.0080   12.8240 C   0  0  0  0  0  0
   -6.9360    8.2690   14.5930 N   0  3  2  0  0  0
   -7.6640    6.9900   14.3740 C   0  0  0  0  0  0
   -8.1390    7.0520   12.9180 C   0  0  2  0  0  0
   -6.7440    7.4970   12.5030 C   0  0  0  0  0  0
   -6.2410    8.6700   13.3410 C   0  0  1  0  0  0
  -10.4200    9.5770   11.5360 C   0  0  0  0  0  0
   -9.7580    8.2790   11.5480 C   0  0  0  0  0  0
  -11.2410    9.9780   10.3760 C   0  0  0  0  0  0
  -10.2140   10.3950   12.6260 N   0  0  0  0  0  0
   -9.8580    7.3430   10.4130 C   0  0  0  0  0  0
   -9.1010    8.0920   12.7620 O   0  0  0  0  0  0
  -11.3400    9.0350    9.2620 C   0  0  0  0  0  0
  -11.7780   11.2250   10.5350 N   0  0  0  0  0  0
  -10.6960   11.6760   12.8380 C   0  0  2  0  0  0
  -10.6590    7.7260    9.2510 C   0  0  0  0  0  0
  -11.5920   12.0950   11.6420 C   0  0  0  0  0  0
  -10.1150   12.5160   13.9300 C   0  0  0  0  0  0
  -12.1290   13.1970   11.7080 O   0  0  0  0  0  0
   -9.1810   11.8710   14.9830 C   0  0  0  0  0  0
  -10.2300   13.9710   13.8410 C   0  0  0  0  0  0
   -8.3650   12.7480   15.8740 C   0  0  0  0  0  0
   -8.7960   10.6110   15.3440 N   0  0  0  0  0  0
   -9.4210   14.7740   14.7440 C   0  0  0  0  0  0
   -7.5560   11.8010   16.6560 C   0  0  0  0  0  0
   -8.5010   14.2040   15.7380 C   0  0  0  0  0  0
   -7.8330   10.4980   16.3140 N   0  0  0  0  0  0
   -7.2100    9.2910   16.8760 C   0  0  0  0  0  0
   -6.7310   12.1390   17.5080 O   0  0  0  0  0  0
   -6.2780    8.6110   15.8740 C   0  0  0  0  0  0
   -6.3972   10.8255   13.4520 H   0  0  0  0  0  0
   -7.8802    9.9998   12.8641 H   0  0  0  0  0  0
   -6.4531   10.1588   11.7849 H   0  0  0  0  0  0
   -6.9802    6.1452   14.5435 H   0  0  0  0  0  0
   -8.5088    6.9242   15.0754 H   0  0  0  0  0  0
   -8.6630    6.2307   12.4072 H   0  0  0  0  0  0
   -6.0402    6.6609   12.6276 H   0  0  0  0  0  0
   -6.7576    7.8107   11.4488 H   0  0  0  0  0  0
   -5.1529    8.8178   13.4055 H   0  0  0  0  0  0
   -9.3438    6.3823   10.4397 H   0  0  0  0  0  0
  -11.9455    9.3125    8.3992 H   0  0  0  0  0  0
  -12.4290   11.6470    9.7552 H   0  0  0  0  0  0
  -11.2090   11.7436   13.8087 H   0  0  0  0  0  0
  -10.7511    7.0583    8.3944 H   0  0  0  0  0  0
  -10.9009   14.4389   13.1206 H   0  0  0  0  0  0
   -9.5015   15.8591   14.6800 H   0  0  0  0  0  0
   -7.9165   14.8652   16.3777 H   0  0  0  0  0  0
   -6.6212    9.5622   17.7647 H   0  0  0  0  0  0
   -7.9930    8.5726   17.1602 H   0  0  0  0  0  0
   -5.8986    7.6936   16.3477 H   0  0  0  0  0  0
   -5.4408    9.2988   15.6841 H   0  0  0  0  0  0
   -9.5809    9.9129   13.3854 H   0  0  0  0  0  0
   -7.7496    8.9668   14.8403 H   0  0  0  0  0  0
   -9.2553    9.7360   14.8609 H   0  0  0  0  0  0
  1  6  1  0  0  0
  1 31  1  0  0  0
  1 32  1  0  0  0
  1 33  1  0  0  0
  2  3  1  0  0  0
  2  6  1  0  0  0
  2 30  1  0  0  0
  2 53  1  0  0  0
  3  4  1  0  0  0
  3 34  1  0  0  0
  3 35  1  0  0  0
  4  5  1  0  0  0
  4 12  1  0  0  0
  4 36  1  0  0  0
  5  6  1  0  0  0
  5 37  1  0  0  0
  5 38  1  0  0  0
  6 39  1  0  0  0
  7  8  2  0  0  0
  7  9  1  0  0  0
  7 10  1  0  0  0
  8 11  1  0  0  0
  8 12  1  0  0  0
  9 13  2  0  0  0
  9 14  1  0  0  0
 10 15  1  0  0  0
 10 52  1  0  0  0
 11 16  2  0  0  0
 11 40  1  0  0  0
 13 16  1  0  0  0
 13 41  1  0  0  0
 14 17  1  0  0  0
 14 42  1  0  0  0
 15 17  1  0  0  0
 15 18  1  0  0  0
 15 43  1  0  0  0
 16 44  1  0  0  0
 17 19  2  0  0  0
 18 20  2  0  0  0
 18 21  1  0  0  0
 20 22  1  0  0  0
 20 23  1  0  0  0
 21 24  2  0  0  0
 21 45  1  0  0  0
 22 25  1  0  0  0
 22 26  2  0  0  0
 23 27  1  0  0  0
 23 54  1  0  0  0
 24 26  1  0  0  0
 24 46  1  0  0  0
 25 27  1  0  0  0
 25 29  2  0  0  0
 26 47  1  0  0  0
 27 28  1  0  0  0
 28 30  1  0  0  0
 28 48  1  0  0  0
 28 49  1  0  0  0
 30 50  1  0  0  0
 30 51  1  0  0  0
M  CHG  1   2   1
M  END
> <s_m_source_file>
../2ds1_ligand.sdf

> <i_m_source_file_index>
1

> <s_epik_input>
W0NIM11bQ0BASF0xW0NIMl1bQ0BASF0oW0NIMl1bTkBIK10xMilPYzNjNGMoW2NIXVtjSF1bY0hdMylbTkhdQyg9TylbQ0BASF0oW05IXTQpYzVjNmMoW2NIXVtjSF1bY0hdNSljKD1PKW4oW25IXTYpW0NIMl1bQ0gyXTI=

> <s_epik_cmdline>
J2VwaWtfYXBwJywgJy1pbWFlJywgJ2xpZ2FuZF9wcm8ubWFlJywgJy1vbWFlJywgJ2xpZ2FuZF9wcmVwLm1hZScsICctbXMnLCAnMScsICctcGgnLCAnNycsICctcGh0JywgJzAuNScsICctbnQn

> <r_epik_Ionization_Penalty>
  1.1581

> <r_epik_Ionization_Penalty_Charging>
  1.0050

> <r_epik_Ionization_Penalty_Neutral>
  0.1531

> <r_epik_State_Penalty>
  0.0096

> <r_epik_Charging_Adjusted_Penalty>
1.01457891459582

> <i_epik_Tot_Q>
1

> <i_epik_Tot_abs_Q>
1

$$$$
