2duv_ligand
                    3D
 Schrodinger Suite 2020-3.
 45 48  0  0  1  0            999 V2000
   26.7820   29.0830   26.8430 O   0  0  0  0  0  0
   27.3150   30.3250   27.1130 C   0  0  0  0  0  0
   26.7270   31.1880   28.0230 C   0  0  0  0  0  0
   25.4570   30.7340   28.7240 C   0  0  0  0  0  0
   23.7360   28.8650   28.9870 C   0  0  0  0  0  0
   23.2560   27.5740   28.6410 C   0  0  0  0  0  0
   23.9780   26.7840   27.6850 C   0  0  0  0  0  0
   25.1690   27.2930   27.0840 C   0  0  0  0  0  0
   25.6240   28.5910   27.4430 C   0  0  0  0  0  0
   24.9140   29.3780   28.3940 C   0  0  0  0  0  0
   24.9810   31.5560   29.5170 O   0  0  0  0  0  0
   28.5350   30.6160   26.3370 C   0  0  0  0  0  0
   28.8470   31.9240   25.8360 C   0  0  0  0  0  0
   30.0220   32.1400   25.0780 C   0  0  0  0  0  0
   30.8760   31.0490   24.8190 C   0  0  0  0  0  0
   30.5740   29.7360   25.3140 C   0  0  0  0  0  0
   29.4110   29.5290   26.0660 C   0  0  0  0  0  0
   21.9930   27.0560   29.2860 C   0  0  0  0  0  0
   27.1770   32.4440   28.3640 O   0  0  0  0  0  0
   31.4670   28.7080   25.0110 O   0  0  0  0  0  0
   32.0230   31.2020   24.0840 O   0  0  0  0  0  0
   26.5620   25.5410   24.0630 C   0  0  0  0  0  0
   25.4590   26.3660   24.7790 C   0  0  0  0  0  0
   25.9100   26.5850   26.1550 N   0  0  0  0  0  0
   27.3570   25.8980   26.4190 S   0  0  0  0  0  0
   27.9000   25.8740   24.7420 C   0  0  0  0  0  0
   27.0860   24.5620   26.8660 O   0  0  0  0  0  0
   28.1790   26.7660   27.2180 O   0  0  0  0  0  0
   23.1922   29.4661   29.7158 H   0  0  0  0  0  0
   23.6158   25.7916   27.4166 H   0  0  0  0  0  0
   28.1742   32.7568   26.0408 H   0  0  0  0  0  0
   30.2628   33.1338   24.7005 H   0  0  0  0  0  0
   29.1769   28.5338   26.4440 H   0  0  0  0  0  0
   21.6003   27.8117   29.9822 H   0  0  0  0  0  0
   22.2157   26.1304   29.8370 H   0  0  0  0  0  0
   21.2428   26.8486   28.5087 H   0  0  0  0  0  0
   28.0901   32.8457   27.9005 H   0  0  0  0  0  0
   32.3680   28.9196   24.4166 H   0  0  0  0  0  0
   32.2929   32.1910   23.6853 H   0  0  0  0  0  0
   26.3381   24.4683   24.1591 H   0  0  0  0  0  0
   26.5920   25.8153   22.9982 H   0  0  0  0  0  0
   25.3225   27.3253   24.2583 H   0  0  0  0  0  0
   24.5136   25.8037   24.7656 H   0  0  0  0  0  0
   28.6336   25.0873   24.5121 H   0  0  0  0  0  0
   28.2699   26.8405   24.3692 H   0  0  0  0  0  0
  1  2  1  0  0  0
  1  9  1  0  0  0
  2  3  2  0  0  0
  2 12  1  0  0  0
  3  4  1  0  0  0
  3 19  1  0  0  0
  4 10  1  0  0  0
  4 11  2  0  0  0
  5  6  2  0  0  0
  5 10  1  0  0  0
  5 29  1  0  0  0
  6  7  1  0  0  0
  6 18  1  0  0  0
  7  8  2  0  0  0
  7 30  1  0  0  0
  8  9  1  0  0  0
  8 24  1  0  0  0
  9 10  2  0  0  0
 12 13  2  0  0  0
 12 17  1  0  0  0
 13 14  1  0  0  0
 13 31  1  0  0  0
 14 15  2  0  0  0
 14 32  1  0  0  0
 15 16  1  0  0  0
 15 21  1  0  0  0
 16 17  2  0  0  0
 16 20  1  0  0  0
 17 33  1  0  0  0
 18 34  1  0  0  0
 18 35  1  0  0  0
 18 36  1  0  0  0
 19 37  1  0  0  0
 20 38  1  0  0  0
 21 39  1  0  0  0
 22 23  1  0  0  0
 22 26  1  0  0  0
 22 40  1  0  0  0
 22 41  1  0  0  0
 23 24  1  0  0  0
 23 42  1  0  0  0
 23 43  1  0  0  0
 24 25  1  0  0  0
 25 26  1  0  0  0
 25 27  2  0  0  0
 25 28  2  0  0  0
 26 44  1  0  0  0
 26 45  1  0  0  0
M  END
> <s_m_source_file>
../2duv_ligand.sdf

> <i_m_source_file_index>
1

> <s_epik_input>
W2NIXTFjKFtPSF0pYyhbT0hdKVtjSF1bY0hdYzEtYyhvMiljKFtPSF0pYyg9TyljKGMyMylbY0hdYyhbQ0gzXSlbY0hdYzNOKFM0KD1PKT1PKVtDSDJdW0NIMl1bQ0gyXTQ=

> <s_epik_cmdline>
J2VwaWtfYXBwJywgJy1pbWFlJywgJ2xpZ2FuZF9wcm8ubWFlJywgJy1vbWFlJywgJ2xpZ2FuZF9wcmVwLm1hZScsICctbXMnLCAnMScsICctcGgnLCAnNycsICctcGh0JywgJzAuNScsICctbnQn

> <r_lp_tautomer_probability>
0.999999999999776

> <r_epik_Ionization_Penalty>
  0.2539

> <r_epik_Ionization_Penalty_Charging>
  0.0000

> <r_epik_Ionization_Penalty_Neutral>
  0.2539

> <r_epik_State_Penalty>
  0.2428

> <r_epik_Charging_Adjusted_Penalty>
0.242831177465594

> <i_epik_Tot_Q>
0

> <i_epik_Tot_abs_Q>
0

$$$$
