2dwx_ligand
                    3D
 Schrodinger Suite 2020-3.
118120  0  0  1  0            999 V2000
   -9.3890  -23.6380  132.6930 N   0  3  0  0  0  0
  -10.1580  -22.3680  132.5030 C   0  0  0  0  0  0
   -9.9450  -21.8680  131.0920 C   0  0  0  0  0  0
  -10.4720  -22.4570  130.1510 O   0  0  0  0  0  0
   -9.1680  -20.7920  130.9580 N   0  0  0  0  0  0
   -8.6730  -20.3070  129.6600 C   0  0  2  0  0  0
   -7.1470  -20.2460  129.6110 C   0  0  0  0  0  0
   -6.4680  -20.3050  130.6360 O   0  0  0  0  0  0
   -9.2380  -18.9240  129.2520 C   0  0  0  0  0  0
   -9.8930  -18.0880  130.3050 C   0  0  0  0  0  0
   -9.4610  -17.8690  131.5750 C   0  0  0  0  0  0
  -11.0880  -17.3160  130.1480 C   0  0  0  0  0  0
  -10.3290  -17.0300  132.2320 N   0  3  0  0  0  0
  -11.3390  -16.6740  131.3780 C   0  0  0  0  0  0
  -11.9820  -17.1090  129.0900 C   0  0  0  0  0  0
  -12.4510  -15.8510  131.5890 C   0  0  0  0  0  0
  -13.0820  -16.2900  129.2950 C   0  0  0  0  0  0
  -13.3030  -15.6650  130.5370 C   0  0  0  0  0  0
   -6.6240  -20.1140  128.3960 N   0  0  0  0  0  0
   -5.1910  -19.9660  128.1630 C   0  0  2  0  0  0
   -4.7470  -18.5470  128.5130 C   0  0  0  0  0  0
   -5.5570  -17.7180  128.9610 O   0  0  0  0  0  0
   -4.8210  -20.2940  126.6990 C   0  0  0  0  0  0
   -5.8210  -21.2370  126.0270 C   0  0  0  0  0  0
   -5.9080  -22.4100  126.3830 O   0  0  0  0  0  0
   -6.5930  -20.7150  125.0640 N   0  0  0  0  0  0
   -3.4580  -18.2780  128.3100 N   0  0  0  0  0  0
   -2.9020  -16.9430  128.5130 C   0  0  2  0  0  0
   -3.3530  -15.9900  127.4060 C   0  0  0  0  0  0
   -3.9270  -16.4110  126.4010 O   0  0  0  0  0  0
   -1.3690  -16.9950  128.6090 C   0  0  0  0  0  0
   -0.7700  -17.5040  127.4310 O   0  0  0  0  0  0
   -3.1100  -14.7000  127.6140 N   0  0  0  0  0  0
   -3.4900  -13.6760  126.6410 C   0  0  2  0  0  0
   -2.5380  -13.7300  125.4650 C   0  0  0  0  0  0
   -1.4330  -14.2430  125.5860 O   0  0  0  0  0  0
   -3.4780  -12.2790  127.2760 C   0  0  0  0  0  0
   -4.5620  -12.0700  128.2990 C   0  0  0  0  0  0
   -4.3830  -12.4690  129.6110 C   0  0  0  0  0  0
   -5.7710  -11.4860  127.9430 C   0  0  0  0  0  0
   -5.3750  -12.2790  130.5430 C   0  0  0  0  0  0
   -6.7610  -11.2980  128.8690 C   0  0  0  0  0  0
   -6.5640  -11.6940  130.1670 C   0  0  0  0  0  0
   -2.9590  -13.1840  124.3330 N   0  0  0  0  0  0
   -2.1870  -13.2780  123.0970 C   0  0  2  0  0  0
   -1.9520  -11.8830  122.5200 C   0  0  0  0  0  0
   -2.8590  -11.0640  122.4840 O   0  0  0  0  0  0
   -2.9100  -14.1720  122.0800 C   0  0  0  0  0  0
   -3.1080  -15.6180  122.5220 C   0  0  0  0  0  0
   -1.8120  -16.3550  122.7220 C   0  0  0  0  0  0
   -1.5950  -16.9600  123.7600 O   0  0  0  0  0  0
   -0.9520  -16.3200  121.7220 N   0  0  0  0  0  0
   -0.7270  -11.6350  122.0690 N   0  0  0  0  0  0
   -0.3080  -10.3330  121.5700 C   0  0  2  0  0  0
   -0.1460  -10.4140  120.0550 C   0  0  0  0  0  0
   -0.4900  -11.4460  119.4520 O   0  0  0  0  0  0
    1.0060   -9.9160  122.2310 C   0  0  0  0  0  0
    0.9360  -10.0710  123.6390 O   0  0  0  0  0  0
    0.3950   -9.3410  119.4580 N   0  0  0  0  0  0
    0.4050   -9.1280  117.9960 C   0  0  2  0  0  0
    1.4070  -10.0180  117.2410 C   0  0  0  0  0  0
    0.9720  -10.5820  116.2160 O   0  5  0  0  0  0
    0.6780   -7.6460  117.6710 C   0  0  0  0  0  0
   -0.0760   -6.7780  118.4990 O   0  0  0  0  0  0
    2.5680  -10.1680  117.6090 O   0  0  0  0  0  0
   -9.5394  -24.0078  133.7180 H   0  0  0  0  0  0
   -8.3187  -23.4471  132.5253 H   0  0  0  0  0  0
   -9.7438  -24.3923  131.9753 H   0  0  0  0  0  0
  -11.2283  -22.5589  132.6707 H   0  0  0  0  0  0
   -9.8033  -21.6137  133.2207 H   0  0  0  0  0  0
   -8.8997  -20.2599  131.8826 H   0  0  0  0  0  0
   -9.0505  -21.0838  128.9788 H   0  0  0  0  0  0
   -8.4243  -18.2972  128.8583 H   0  0  0  0  0  0
  -10.0069  -19.0563  128.4766 H   0  0  0  0  0  0
   -8.5344  -18.3435  131.9303 H   0  0  0  0  0  0
  -11.8161  -17.5832  128.1227 H   0  0  0  0  0  0
  -12.6304  -15.3772  132.5541 H   0  0  0  0  0  0
  -13.7878  -16.1273  128.4805 H   0  0  0  0  0  0
  -14.1721  -15.0191  130.6621 H   0  0  0  0  0  0
   -7.3218  -20.1196  127.5457 H   0  0  0  0  0  0
   -4.7153  -20.6907  128.8401 H   0  0  0  0  0  0
   -4.7911  -19.3646  126.1113 H   0  0  0  0  0  0
   -3.8337  -20.7781  126.6699 H   0  0  0  0  0  0
   -6.4784  -19.6587  124.7794 H   0  0  0  0  0  0
   -7.3413  -21.3429  124.5582 H   0  0  0  0  0  0
   -2.8069  -19.1005  127.9790 H   0  0  0  0  0  0
   -3.3175  -16.6001  129.4721 H   0  0  0  0  0  0
   -0.9776  -15.9809  128.7775 H   0  0  0  0  0  0
   -1.0759  -17.6450  129.4466 H   0  0  0  0  0  0
    0.3243  -17.5950  127.3655 H   0  0  0  0  0  0
   -2.6082  -14.4108  128.5492 H   0  0  0  0  0  0
   -4.5115  -13.9184  126.3127 H   0  0  0  0  0  0
   -2.5149  -12.1142  127.7812 H   0  0  0  0  0  0
   -3.6160  -11.5190  126.4928 H   0  0  0  0  0  0
   -3.4457  -12.9389  129.9089 H   0  0  0  0  0  0
   -5.9335  -11.1731  126.9116 H   0  0  0  0  0  0
   -5.2214  -12.5902  131.5763 H   0  0  0  0  0  0
   -7.7032  -10.8349  128.5757 H   0  0  0  0  0  0
   -7.3523  -11.5451  130.9049 H   0  0  0  0  0  0
   -3.9196  -12.6482  124.3421 H   0  0  0  0  0  0
   -1.2236  -13.7329  123.3707 H   0  0  0  0  0  0
   -3.9113  -13.7633  121.8792 H   0  0  0  0  0  0
   -2.3326  -14.2041  121.1443 H   0  0  0  0  0  0
   -3.6541  -15.6381  123.4766 H   0  0  0  0  0  0
   -3.6853  -16.1592  121.7579 H   0  0  0  0  0  0
   -1.1951  -15.7601  120.8069 H   0  0  0  0  0  0
    0.0081  -16.8507  121.8034 H   0  0  0  0  0  0
   -0.0147  -12.4731  122.0850 H   0  0  0  0  0  0
   -1.0961   -9.6127  121.8347 H   0  0  0  0  0  0
    1.8246  -10.5422  121.8467 H   0  0  0  0  0  0
    1.2131   -8.8603  122.0015 H   0  0  0  0  0  0
    1.8033   -9.8132  124.2645 H   0  0  0  0  0  0
    0.8499   -8.5945  120.1257 H   0  0  0  0  0  0
   -0.6072   -9.4313  117.6903 H   0  0  0  0  0  0
    1.7453   -7.4278  117.8234 H   0  0  0  0  0  0
    0.4085   -7.4446  116.6237 H   0  0  0  0  0  0
    0.0159   -5.6882  118.3813 H   0  0  0  0  0  0
  -10.1409  -16.7554  133.2804 H   0  0  0  0  0  0
  1  2  1  0  0  0
  1 66  1  0  0  0
  1 67  1  0  0  0
  1 68  1  0  0  0
  2  3  1  0  0  0
  2 69  1  0  0  0
  2 70  1  0  0  0
  3  4  2  0  0  0
  3  5  1  0  0  0
  5  6  1  0  0  0
  5 71  1  0  0  0
  6  7  1  0  0  0
  6  9  1  0  0  0
  6 72  1  0  0  0
  7  8  2  0  0  0
  7 19  1  0  0  0
  9 10  1  0  0  0
  9 73  1  0  0  0
  9 74  1  0  0  0
 10 11  2  0  0  0
 10 12  1  0  0  0
 11 13  1  0  0  0
 11 75  1  0  0  0
 12 14  2  0  0  0
 12 15  1  0  0  0
 13 14  1  0  0  0
 13118  1  0  0  0
 14 16  1  0  0  0
 15 17  2  0  0  0
 15 76  1  0  0  0
 16 18  2  0  0  0
 16 77  1  0  0  0
 17 18  1  0  0  0
 17 78  1  0  0  0
 18 79  1  0  0  0
 19 20  1  0  0  0
 19 80  1  0  0  0
 20 21  1  0  0  0
 20 23  1  0  0  0
 20 81  1  0  0  0
 21 22  2  0  0  0
 21 27  1  0  0  0
 23 24  1  0  0  0
 23 82  1  0  0  0
 23 83  1  0  0  0
 24 25  2  0  0  0
 24 26  1  0  0  0
 26 84  1  0  0  0
 26 85  1  0  0  0
 27 28  1  0  0  0
 27 86  1  0  0  0
 28 29  1  0  0  0
 28 31  1  0  0  0
 28 87  1  0  0  0
 29 30  2  0  0  0
 29 33  1  0  0  0
 31 32  1  0  0  0
 31 88  1  0  0  0
 31 89  1  0  0  0
 32 90  1  0  0  0
 33 34  1  0  0  0
 33 91  1  0  0  0
 34 35  1  0  0  0
 34 37  1  0  0  0
 34 92  1  0  0  0
 35 36  2  0  0  0
 35 44  1  0  0  0
 37 38  1  0  0  0
 37 93  1  0  0  0
 37 94  1  0  0  0
 38 39  2  0  0  0
 38 40  1  0  0  0
 39 41  1  0  0  0
 39 95  1  0  0  0
 40 42  2  0  0  0
 40 96  1  0  0  0
 41 43  2  0  0  0
 41 97  1  0  0  0
 42 43  1  0  0  0
 42 98  1  0  0  0
 43 99  1  0  0  0
 44 45  1  0  0  0
 44100  1  0  0  0
 45 46  1  0  0  0
 45 48  1  0  0  0
 45101  1  0  0  0
 46 47  2  0  0  0
 46 53  1  0  0  0
 48 49  1  0  0  0
 48102  1  0  0  0
 48103  1  0  0  0
 49 50  1  0  0  0
 49104  1  0  0  0
 49105  1  0  0  0
 50 51  2  0  0  0
 50 52  1  0  0  0
 52106  1  0  0  0
 52107  1  0  0  0
 53 54  1  0  0  0
 53108  1  0  0  0
 54 55  1  0  0  0
 54 57  1  0  0  0
 54109  1  0  0  0
 55 56  2  0  0  0
 55 59  1  0  0  0
 57 58  1  0  0  0
 57110  1  0  0  0
 57111  1  0  0  0
 58112  1  0  0  0
 59 60  1  0  0  0
 59113  1  0  0  0
 60 61  1  0  0  0
 60 63  1  0  0  0
 60114  1  0  0  0
 61 62  1  0  0  0
 61 65  2  0  0  0
 63 64  1  0  0  0
 63115  1  0  0  0
 63116  1  0  0  0
 64117  1  0  0  0
M  CHG  3   1   1  13   1  62  -1
M  END
> <s_m_source_file>
../2dwx_ligand.sdf

> <i_m_source_file_index>
1

> <s_epik_input>
W2NIXTFbY0hdW2NIXVtjSF1jKGMxMilbbkhdW2NIXWMyW0NIMl1bQ0BIXShbTkhdQyg9TylbQ0gyXVtOSDMrXSlDKD1PKVtOSF1bQ0BASF0oW0NIMl1DKD1PKVtOSDJdKUMoPU8pW05IXVtDQEBIXShbQ0gyXVtPSF0pQyg9TylbTkhdW0NAQEhdKFtDSDJdYzNbY0hdW2NIXVtjSF1bY0hdW2NIXTMpQyg9TylbTkhdW0NAQEhdKFtDSDJdW0NIMl1DKD1PKVtOSDJdKUMoPU8pW05IXVtDQEBIXShbQ0gyXVtPSF0pQyg9TylbTkhdW0NASF0oQyg9TylbT0hdKVtDSDJdW09IXQ==

> <s_epik_cmdline>
J2VwaWtfYXBwJywgJy1pbWFlJywgJ2xpZ2FuZF9wcm8ubWFlJywgJy1vbWFlJywgJ2xpZ2FuZF9wcmVwLm1hZScsICctbXMnLCAnMScsICctcGgnLCAnNycsICctcGh0JywgJzAuNScsICctbnQn

> <r_epik_Ionization_Penalty>
  0.1299

> <r_epik_Ionization_Penalty_Charging>
  0.1299

> <r_epik_Ionization_Penalty_Neutral>
  0.0000

> <r_epik_State_Penalty>
  0.1193

> <r_epik_Charging_Adjusted_Penalty>
0.249212622950897

> <i_epik_Tot_Q>
1

> <i_epik_Tot_abs_Q>
3

$$$$
