2dxs_ligand
                    3D
 Schrodinger Suite 2020-3.
 62 66  0  0  1  0            999 V2000
  -18.2950   -5.9650    2.1880 C   0  0  0  0  0  0
  -17.1200   -5.1140    1.6440 C   0  0  0  0  0  0
  -16.1110   -4.8420    2.7030 N   0  0  0  0  0  0
  -15.2500   -5.7360    3.3080 C   0  0  0  0  0  0
  -14.3830   -5.1880    4.3870 C   0  0  0  0  0  0
  -13.4140   -6.0480    4.9890 C   0  0  0  0  0  0
  -12.5740   -5.5720    6.0210 C   0  0  0  0  0  0
  -12.6680   -4.2500    6.4780 C   0  0  0  0  0  0
  -13.6410   -3.3680    5.8810 C   0  0  0  0  0  0
  -13.5230   -2.1290    6.5120 N   0  0  0  0  0  0
  -12.5230   -2.2060    7.4750 C   0  0  0  0  0  0
  -12.1770   -0.9930    8.3190 C   0  0  0  0  0  0
  -12.0050    0.2560    7.6500 C   0  0  0  0  0  0
  -11.6830    1.4300    8.3750 C   0  0  0  0  0  0
  -11.5300    1.3760    9.7800 C   0  0  0  0  0  0
  -11.7020    0.1400   10.4510 C   0  0  0  0  0  0
  -12.0230   -1.0320    9.7280 C   0  0  0  0  0  0
  -12.1550    0.3400    6.2580 O   0  0  0  0  0  0
  -13.5150    0.3300    5.7880 C   0  0  0  0  0  0
  -14.3530   -0.9200    6.1910 C   0  0  0  0  0  0
  -11.9480   -3.4990    7.5060 C   0  0  0  0  0  0
  -10.8130   -4.0070    8.4250 C   0  0  0  0  0  0
   -9.5310   -4.4170    7.6450 C   0  0  0  0  0  0
   -8.4400   -4.9250    8.6190 C   0  0  0  0  0  0
   -8.9490   -6.0890    9.4890 C   0  0  0  0  0  0
  -10.2090   -5.6800   10.2710 C   0  0  0  0  0  0
  -11.3320   -5.1560    9.3450 C   0  0  0  0  0  0
  -14.4780   -3.8350    4.8540 C   0  0  0  0  0  0
  -15.2060   -6.9230    2.9850 O   0  0  0  0  0  0
  -16.4560   -5.7790    0.3780 C   0  0  0  0  0  0
  -16.6000   -7.1300    0.3430 O   0  5  0  0  0  0
  -15.8580   -5.1730   -0.4650 O   0  0  0  0  0  0
  -17.6670   -3.7310    1.2430 C   0  0  0  0  0  0
  -17.9237   -6.9583    2.4803 H   0  0  0  0  0  0
  -19.0607   -6.0752    1.4060 H   0  0  0  0  0  0
  -18.7347   -5.4656    3.0639 H   0  0  0  0  0  0
  -15.9866   -3.8218    3.0952 H   0  0  0  0  0  0
  -13.3218   -7.0797    4.6496 H   0  0  0  0  0  0
  -11.8414   -6.2434    6.4688 H   0  0  0  0  0  0
  -11.5530    2.3759    7.8493 H   0  0  0  0  0  0
  -11.2821    2.2768   10.3414 H   0  0  0  0  0  0
  -11.5859    0.0922   11.5337 H   0  0  0  0  0  0
  -12.1534   -1.9749   10.2591 H   0  0  0  0  0  0
  -14.0482    1.2043    6.1896 H   0  0  0  0  0  0
  -13.5234    0.3686    4.6887 H   0  0  0  0  0  0
  -15.0234   -1.1484    5.3493 H   0  0  0  0  0  0
  -14.9512   -0.6417    7.0711 H   0  0  0  0  0  0
  -10.5121   -3.1570    9.0550 H   0  0  0  0  0  0
   -9.7756   -5.2197    6.9337 H   0  0  0  0  0  0
   -9.1417   -3.5468    7.0962 H   0  0  0  0  0  0
   -7.5707   -5.2772    8.0444 H   0  0  0  0  0  0
   -8.1319   -4.1050    9.2844 H   0  0  0  0  0  0
   -9.1950   -6.9470    8.8461 H   0  0  0  0  0  0
   -8.1671   -6.3802   10.2058 H   0  0  0  0  0  0
  -10.5987   -6.5502   10.8194 H   0  0  0  0  0  0
   -9.9552   -4.8812   10.9834 H   0  0  0  0  0  0
  -12.1563   -4.7815    9.9697 H   0  0  0  0  0  0
  -11.6922   -5.9890    8.7235 H   0  0  0  0  0  0
  -15.2085   -3.1611    4.4065 H   0  0  0  0  0  0
  -18.1340   -3.2539    2.1172 H   0  0  0  0  0  0
  -18.4161   -3.8499    0.4463 H   0  0  0  0  0  0
  -16.8415   -3.1016    0.8791 H   0  0  0  0  0  0
  1  2  1  0  0  0
  1 34  1  0  0  0
  1 35  1  0  0  0
  1 36  1  0  0  0
  2  3  1  0  0  0
  2 30  1  0  0  0
  2 33  1  0  0  0
  3  4  1  0  0  0
  3 37  1  0  0  0
  4  5  1  0  0  0
  4 29  2  0  0  0
  5  6  2  0  0  0
  5 28  1  0  0  0
  6  7  1  0  0  0
  6 38  1  0  0  0
  7  8  2  0  0  0
  7 39  1  0  0  0
  8  9  1  0  0  0
  8 21  1  0  0  0
  9 10  1  0  0  0
  9 28  2  0  0  0
 10 11  1  0  0  0
 10 20  1  0  0  0
 11 12  1  0  0  0
 11 21  2  0  0  0
 12 13  2  0  0  0
 12 17  1  0  0  0
 13 14  1  0  0  0
 13 18  1  0  0  0
 14 15  2  0  0  0
 14 40  1  0  0  0
 15 16  1  0  0  0
 15 41  1  0  0  0
 16 17  2  0  0  0
 16 42  1  0  0  0
 17 43  1  0  0  0
 18 19  1  0  0  0
 19 20  1  0  0  0
 19 44  1  0  0  0
 19 45  1  0  0  0
 20 46  1  0  0  0
 20 47  1  0  0  0
 21 22  1  0  0  0
 22 23  1  0  0  0
 22 27  1  0  0  0
 22 48  1  0  0  0
 23 24  1  0  0  0
 23 49  1  0  0  0
 23 50  1  0  0  0
 24 25  1  0  0  0
 24 51  1  0  0  0
 24 52  1  0  0  0
 25 26  1  0  0  0
 25 53  1  0  0  0
 25 54  1  0  0  0
 26 27  1  0  0  0
 26 55  1  0  0  0
 26 56  1  0  0  0
 27 57  1  0  0  0
 27 58  1  0  0  0
 28 59  1  0  0  0
 30 31  1  0  0  0
 30 32  2  0  0  0
 33 60  1  0  0  0
 33 61  1  0  0  0
 33 62  1  0  0  0
M  CHG  1  31  -1
M  END
> <s_m_source_file>
../2dxs_ligand.sdf

> <i_m_source_file_index>
1

> <s_epik_input>
W09IXUMoPU8pQyhbQ0gzXSkoW0NIM10pW05IXUMoPU8pYyhbY0hdW2NIXTEpW2NIXWMoYzEyKW4zYyhjNGMoT1tDSDJdW0NIMl0zKVtjSF1bY0hdW2NIXVtjSF00KWMyW0NIXTVbQ0gyXVtDSDJdW0NIMl1bQ0gyXVtDSDJdNQ==

> <s_epik_cmdline>
J2VwaWtfYXBwJywgJy1pbWFlJywgJ2xpZ2FuZF9wcm8ubWFlJywgJy1vbWFlJywgJ2xpZ2FuZF9wcmVwLm1hZScsICctbXMnLCAnMScsICctcGgnLCAnNycsICctcGh0JywgJzAuNScsICctbnQn

> <r_lp_tautomer_probability>
1

> <r_epik_Ionization_Penalty>
  0.0004

> <r_epik_Ionization_Penalty_Charging>
  0.0004

> <r_epik_Ionization_Penalty_Neutral>
  0.0000

> <r_epik_State_Penalty>
 -0.0000

> <r_epik_Charging_Adjusted_Penalty>
0.00036689639688801

> <i_epik_Tot_Q>
-1

> <i_epik_Tot_abs_Q>
1

$$$$
