2e2b_ligand
                    3D
 Schrodinger Suite 2020-3.
 74 78  0  0  1  0            999 V2000
   15.6550   50.5460   16.6180 C   0  0  0  0  0  0
   16.7720   49.6800   16.8410 C   0  0  0  0  0  0
   16.6580   48.5680   17.7030 C   0  0  0  0  0  0
   15.4080   48.2740   18.3950 C   0  0  0  0  0  0
   14.2470   49.1670   18.1710 C   0  0  0  0  0  0
   14.4220   50.2630   17.2900 C   0  0  0  0  0  0
   12.8320   49.0030   18.8360 C   0  0  0  0  0  0
   12.9460   49.1650   20.1830 F   0  0  0  0  0  0
   12.3190   47.7720   18.5830 F   0  0  0  0  0  0
   11.9420   49.9650   18.4300 F   0  0  0  0  0  0
   15.4200   47.0200   19.3230 C   0  0  0  0  0  0
   16.6820   46.6270   20.0070 N   0  0  2  0  0  0
   16.6770   45.3040   20.6620 C   0  0  0  0  0  0
   17.1820   45.5670   22.0850 C   0  0  0  0  0  0
   18.0920   46.7950   21.8390 C   0  0  1  0  0  0
   17.1450   47.6240   21.0090 C   0  0  0  0  0  0
   18.6280   47.5080   23.0830 N   0  3  0  0  0  0
   19.5410   46.7250   23.9420 C   0  0  0  0  0  0
   19.2540   48.8230   22.6890 C   0  0  0  0  0  0
   11.5450   62.0160   12.1620 N   0  0  0  0  0  0
   10.6260   61.3800   11.4130 C   0  0  0  0  0  0
   10.6700   60.1010   11.0160 N   0  0  0  0  0  0
   11.7450   59.3640   11.4040 C   0  0  0  0  0  0
   12.8520   59.9020   12.2290 C   0  0  0  0  0  0
   12.6290   61.3150   12.5630 C   0  0  0  0  0  0
   13.9470   59.1190   12.6150 C   0  0  0  0  0  0
   13.9940   57.8030   12.2150 N   0  0  0  0  0  0
   15.0140   57.0320   12.5580 C   0  0  0  0  0  0
   16.0610   57.4220   13.2720 N   0  0  0  0  0  0
   16.1060   58.7230   13.7210 C   0  0  0  0  0  0
   15.0700   59.6490   13.4250 C   0  0  0  0  0  0
   14.9480   55.7250   12.0930 N   0  0  0  0  0  0
   15.7000   53.8490   13.3820 C   0  0  0  0  0  0
   16.6380   52.7710   13.6250 C   0  0  0  0  0  0
   17.7250   52.5870   12.7390 C   0  0  0  0  0  0
   17.8950   53.4590   11.6120 C   0  0  0  0  0  0
   16.9640   54.5200   11.3800 C   0  0  0  0  0  0
   15.8750   54.6970   12.2750 C   0  0  0  0  0  0
   17.2370   55.3920   10.1560 C   0  0  0  0  0  0
   16.5330   51.8610   14.7350 N   0  0  0  0  0  0
   15.6600   51.7530   15.7370 C   0  0  0  0  0  0
   14.8550   52.6550   15.9710 O   0  0  0  0  0  0
   17.7194   49.8808   16.3408 H   0  0  0  0  0  0
   17.5194   47.9174   17.8542 H   0  0  0  0  0  0
   13.5742   50.9252   17.1145 H   0  0  0  0  0  0
   14.7009   47.1637   20.1429 H   0  0  0  0  0  0
   15.1390   46.1301   18.7406 H   0  0  0  0  0  0
   15.6545   44.8985   20.6616 H   0  0  0  0  0  0
   17.3425   44.6209   20.1138 H   0  0  0  0  0  0
   16.3268   45.7744   22.7451 H   0  0  0  0  0  0
   17.7221   44.6817   22.4519 H   0  0  0  0  0  0
   19.0545   46.5662   21.3581 H   0  0  0  0  0  0
   17.6369   48.4615   20.4926 H   0  0  0  0  0  0
   16.2819   48.0001   21.5779 H   0  0  0  0  0  0
   17.7679   47.6632   23.7510 H   0  0  0  0  0  0
   19.0618   45.7731   24.2145 H   0  0  0  0  0  0
   19.7663   47.2966   24.8544 H   0  0  0  0  0  0
   20.4744   46.5226   23.3963 H   0  0  0  0  0  0
   18.5557   49.3851   22.0515 H   0  0  0  0  0  0
   20.1854   48.6343   22.1350 H   0  0  0  0  0  0
   19.4773   49.4083   23.5932 H   0  0  0  0  0  0
    9.7603   61.9626   11.0981 H   0  0  0  0  0  0
   11.7950   58.3211   11.0912 H   0  0  0  0  0  0
   13.3785   61.8261   13.1672 H   0  0  0  0  0  0
   16.9572   59.0503   14.3180 H   0  0  0  0  0  0
   15.0989   60.6822   13.7710 H   0  0  0  0  0  0
   14.0820   55.3951   11.5004 H   0  0  0  0  0  0
   14.8587   54.0020   14.0580 H   0  0  0  0  0  0
   18.4364   51.7797   12.9129 H   0  0  0  0  0  0
   18.7343   53.3127   10.9321 H   0  0  0  0  0  0
   18.1418   55.0325    9.6441 H   0  0  0  0  0  0
   17.3855   56.4344   10.4742 H   0  0  0  0  0  0
   16.3803   55.3370    9.4682 H   0  0  0  0  0  0
   17.2778   51.0618   14.8634 H   0  0  0  0  0  0
  1  2  2  0  0  0
  1  6  1  0  0  0
  1 41  1  0  0  0
  2  3  1  0  0  0
  2 43  1  0  0  0
  3  4  2  0  0  0
  3 44  1  0  0  0
  4  5  1  0  0  0
  4 11  1  0  0  0
  5  6  2  0  0  0
  5  7  1  0  0  0
  6 45  1  0  0  0
  7  8  1  0  0  0
  7  9  1  0  0  0
  7 10  1  0  0  0
 11 12  1  0  0  0
 11 46  1  0  0  0
 11 47  1  0  0  0
 12 13  1  0  0  0
 12 16  1  0  0  0
 13 14  1  0  0  0
 13 48  1  0  0  0
 13 49  1  0  0  0
 14 15  1  0  0  0
 14 50  1  0  0  0
 14 51  1  0  0  0
 15 16  1  0  0  0
 15 17  1  0  0  0
 15 52  1  0  0  0
 16 53  1  0  0  0
 16 54  1  0  0  0
 17 18  1  0  0  0
 17 19  1  0  0  0
 17 55  1  0  0  0
 18 56  1  0  0  0
 18 57  1  0  0  0
 18 58  1  0  0  0
 19 59  1  0  0  0
 19 60  1  0  0  0
 19 61  1  0  0  0
 20 21  2  0  0  0
 20 25  1  0  0  0
 21 22  1  0  0  0
 21 62  1  0  0  0
 22 23  2  0  0  0
 23 24  1  0  0  0
 23 63  1  0  0  0
 24 25  2  0  0  0
 24 26  1  0  0  0
 25 64  1  0  0  0
 26 27  2  0  0  0
 26 31  1  0  0  0
 27 28  1  0  0  0
 28 29  2  0  0  0
 28 32  1  0  0  0
 29 30  1  0  0  0
 30 31  2  0  0  0
 30 65  1  0  0  0
 31 66  1  0  0  0
 32 38  1  0  0  0
 32 67  1  0  0  0
 33 34  2  0  0  0
 33 38  1  0  0  0
 33 68  1  0  0  0
 34 35  1  0  0  0
 34 40  1  0  0  0
 35 36  2  0  0  0
 35 69  1  0  0  0
 36 37  1  0  0  0
 36 70  1  0  0  0
 37 38  2  0  0  0
 37 39  1  0  0  0
 39 71  1  0  0  0
 39 72  1  0  0  0
 39 73  1  0  0  0
 40 41  1  0  0  0
 40 74  1  0  0  0
 41 42  2  0  0  0
M  CHG  1  17   1
M  END
> <s_m_source_file>
../2e2b_ligand.sdf

> <i_m_source_file_index>
1

> <s_epik_input>
W0NIM11bTkgrXShbQ0gzXSlbQ0BIXShbQ0gyXTEpW0NIMl1bQ0gyXVtOQEgrXTFbQ0gyXWMoYyhbY0hdMilDKEYpKEYpRilbY0hdW2NIXWMyQyg9TylbTkhdYzNbY0hdYyhjKFtDSDNdKVtjSF1bY0hdMylbTkhdYyhuW2NIXVtjSF00KW5jNC1jNVtjSF1uW2NIXW5bY0hdNQ==

> <s_epik_cmdline>
J2VwaWtfYXBwJywgJy1pbWFlJywgJ2xpZ2FuZF9wcm8ubWFlJywgJy1vbWFlJywgJ2xpZ2FuZF9wcmVwLm1hZScsICctbXMnLCAnMScsICctcGgnLCAnNycsICctcGh0JywgJzAuNScsICctbnQn

> <r_lp_tautomer_probability>
0.999999987636

> <r_epik_Ionization_Penalty>
  0.0081

> <r_epik_Ionization_Penalty_Charging>
  0.0050

> <r_epik_Ionization_Penalty_Neutral>
  0.0031

> <r_epik_State_Penalty>
  0.0259

> <r_epik_Charging_Adjusted_Penalty>
0.0309220022933039

> <i_epik_Tot_Q>
1

> <i_epik_Tot_abs_Q>
1

$$$$
