2e2p_ligand
                    3D
 Schrodinger Suite 2020-3.
 39 41  0  0  1  0            999 V2000
    6.6670   -5.0820   28.7580 P   0  0  0  0  0  0
    6.8300   -4.5560   27.3790 O   0  0  0  0  0  0
    7.3750   -4.2660   29.7990 O   0  5  0  0  0  0
    5.1520   -5.3240   29.1150 O   0  5  0  0  0  0
    8.3280   -7.2220   27.7080 P   0  0  1  0  0  0
    9.2910   -6.2070   27.1310 O   0  5  0  0  0  0
    8.9700   -8.4390   28.3270 O   0  0  0  0  0  0
    7.3980   -6.5140   28.7590 O   0  0  0  0  0  0
    7.3590   -7.5360   26.4880 O   0  0  0  0  0  0
    6.6750   -8.8270   26.3900 C   0  0  0  0  0  0
    5.7130   -8.8750   25.2120 C   0  0  1  0  0  0
    6.3840   -9.3200   24.0110 O   0  0  0  0  0  0
    4.4580   -9.7750   25.3390 C   0  0  1  0  0  0
    3.3240   -8.9820   24.9460 O   0  0  0  0  0  0
    4.7480  -10.9770   24.4310 C   0  0  1  0  0  0
    3.6140  -11.4300   23.6680 O   0  0  0  0  0  0
    5.8340  -10.5090   23.4760 C   0  0  2  0  0  0
    6.8770  -11.5650   23.2290 N   0  0  0  0  0  0
    7.7410  -12.1380   24.1060 C   0  0  0  0  0  0
    8.5360  -13.0580   23.5230 N   0  0  0  0  0  0
    8.1390  -13.0560   22.2210 C   0  0  0  0  0  0
    8.5990  -13.8130   21.0660 C   0  0  0  0  0  0
    9.5290  -14.7100   21.0600 N   0  0  0  0  0  0
    7.9260  -13.5100   19.8890 N   0  0  0  0  0  0
    6.9100  -12.5620   19.8030 C   0  0  0  0  0  0
    6.4810  -11.8590   20.8550 N   0  0  0  0  0  0
    7.1200  -12.1290   22.0220 C   0  0  0  0  0  0
    7.4186   -9.6269   26.2587 H   0  0  0  0  0  0
    6.1002   -9.0082   27.3102 H   0  0  0  0  0  0
    5.4061   -7.8221   25.1276 H   0  0  0  0  0  0
    4.1691  -10.1201   26.3427 H   0  0  0  0  0  0
    3.0389   -8.0992   25.5370 H   0  0  0  0  0  0
    4.9958  -11.8692   25.0248 H   0  0  0  0  0  0
    2.7200  -11.8098   24.1842 H   0  0  0  0  0  0
    5.4309  -10.2427   22.4878 H   0  0  0  0  0  0
    7.7869  -11.8824   25.1646 H   0  0  0  0  0  0
   10.0646  -14.9532   21.9895 H   0  0  0  0  0  0
    9.7852  -15.2304   20.1254 H   0  0  0  0  0  0
    6.4436  -12.3854   18.8338 H   0  0  0  0  0  0
  1  2  2  0  0  0
  1  3  1  0  0  0
  1  4  1  0  0  0
  1  8  1  0  0  0
  5  6  1  0  0  0
  5  7  2  0  0  0
  5  8  1  0  0  0
  5  9  1  0  0  0
  9 10  1  0  0  0
 10 11  1  0  0  0
 10 28  1  0  0  0
 10 29  1  0  0  0
 11 12  1  0  0  0
 11 13  1  0  0  0
 11 30  1  0  0  0
 12 17  1  0  0  0
 13 14  1  0  0  0
 13 15  1  0  0  0
 13 31  1  0  0  0
 14 32  1  0  0  0
 15 16  1  0  0  0
 15 17  1  0  0  0
 15 33  1  0  0  0
 16 34  1  0  0  0
 17 18  1  0  0  0
 17 35  1  0  0  0
 18 19  1  0  0  0
 18 27  1  0  0  0
 19 20  2  0  0  0
 19 36  1  0  0  0
 20 21  1  0  0  0
 21 22  2  0  0  0
 21 27  1  0  0  0
 22 23  1  0  0  0
 22 24  1  0  0  0
 23 37  1  0  0  0
 23 38  1  0  0  0
 24 25  2  0  0  0
 25 26  1  0  0  0
 25 39  1  0  0  0
 26 27  2  0  0  0
M  CHG  3   3  -1   4  -1   6  -1
M  END
> <s_m_source_file>
../2e2p_ligand.sdf

> <i_m_source_file_index>
1

> <s_epik_input>
Tz1QKFtPSF0pKFtPSF0pT1tQQF0oPU8pKFtPSF0pT1tDSDJdW0NASF0xT1tDQEhdKFtDQEhdKFtPSF0pW0NAQEhdMVtPSF0pbihbY0hdbjIpYyhjMjMpbltjSF1uYzNbTkgyXQ==

> <s_epik_cmdline>
J2VwaWtfYXBwJywgJy1pbWFlJywgJ2xpZ2FuZF9wcm8ubWFlJywgJy1vbWFlJywgJ2xpZ2FuZF9wcmVwLm1hZScsICctbXMnLCAnMScsICctcGgnLCAnNycsICctcGh0JywgJzAuNScsICctbnQn

> <r_lp_tautomer_probability>
0.999997216410988

> <r_epik_Ionization_Penalty>
  0.1037

> <r_epik_Ionization_Penalty_Charging>
  0.1033

> <r_epik_Ionization_Penalty_Neutral>
  0.0004

> <r_epik_State_Penalty>
  0.0922

> <r_epik_Charging_Adjusted_Penalty>
0.19546844050481

> <i_epik_Tot_Q>
-3

> <i_epik_Tot_abs_Q>
3

> <s_epik_Chemistry_Notes>
This compound contains an acetal/aminal-like group ( X-CH(R)-Y where X, Y are N, S, or O) that may be acid/base labile, releasing an aldehyde.

$$$$
