2e2r_ligand
                    3D
 Schrodinger Suite 2020-3.
 33 34  0  0  1  0            999 V2000
  -15.4450   -8.5040  -26.0930 O   0  0  0  0  0  0
  -15.7110   -7.2250  -26.3890 C   0  0  0  0  0  0
  -14.9260   -6.5570  -27.3240 C   0  0  0  0  0  0
  -15.1840   -5.2140  -27.6120 C   0  0  0  0  0  0
  -16.7690   -6.5360  -25.7910 C   0  0  0  0  0  0
  -17.0320   -5.1930  -26.0930 C   0  0  0  0  0  0
  -16.2410   -4.5020  -27.0230 C   0  0  0  0  0  0
  -16.4780   -3.0370  -27.3560 C   0  0  0  0  0  0
  -17.8150   -2.5040  -26.8370 C   0  0  0  0  0  0
  -15.4060   -2.2610  -26.5980 C   0  0  0  0  0  0
  -16.4130   -2.8260  -28.8560 C   0  0  0  0  0  0
  -17.4580   -3.3050  -29.6390 C   0  0  0  0  0  0
  -17.4560   -3.1530  -31.0140 C   0  0  0  0  0  0
  -15.3450   -2.1930  -29.4950 C   0  0  0  0  0  0
  -15.3570   -2.0410  -30.8900 C   0  0  0  0  0  0
  -16.4030   -2.5220  -31.6510 C   0  0  0  0  0  0
  -16.4200   -2.3820  -32.9910 O   0  0  0  0  0  0
  -14.6043   -9.0182  -26.5816 H   0  0  0  0  0  0
  -14.1135   -7.0789  -27.8295 H   0  0  0  0  0  0
  -14.5383   -4.6983  -28.3228 H   0  0  0  0  0  0
  -17.4044   -7.0548  -25.0732 H   0  0  0  0  0  0
  -17.8587   -4.6807  -25.6008 H   0  0  0  0  0  0
  -17.8714   -2.6528  -25.7486 H   0  0  0  0  0  0
  -18.6395   -3.0451  -27.3243 H   0  0  0  0  0  0
  -17.8953   -1.4309  -27.0650 H   0  0  0  0  0  0
  -15.5061   -2.4553  -25.5199 H   0  0  0  0  0  0
  -15.5281   -1.1847  -26.7895 H   0  0  0  0  0  0
  -14.4107   -2.5834  -26.9379 H   0  0  0  0  0  0
  -18.2960   -3.8107  -29.1592 H   0  0  0  0  0  0
  -18.2919   -3.5340  -31.6007 H   0  0  0  0  0  0
  -14.5041   -1.8179  -28.9117 H   0  0  0  0  0  0
  -14.5260   -1.5344  -31.3809 H   0  0  0  0  0  0
  -17.2659   -2.7746  -33.5743 H   0  0  0  0  0  0
  1  2  1  0  0  0
  1 18  1  0  0  0
  2  3  2  0  0  0
  2  5  1  0  0  0
  3  4  1  0  0  0
  3 19  1  0  0  0
  4  7  2  0  0  0
  4 20  1  0  0  0
  5  6  2  0  0  0
  5 21  1  0  0  0
  6  7  1  0  0  0
  6 22  1  0  0  0
  7  8  1  0  0  0
  8  9  1  0  0  0
  8 10  1  0  0  0
  8 11  1  0  0  0
  9 23  1  0  0  0
  9 24  1  0  0  0
  9 25  1  0  0  0
 10 26  1  0  0  0
 10 27  1  0  0  0
 10 28  1  0  0  0
 11 12  2  0  0  0
 11 14  1  0  0  0
 12 13  1  0  0  0
 12 29  1  0  0  0
 13 16  2  0  0  0
 13 30  1  0  0  0
 14 15  2  0  0  0
 14 31  1  0  0  0
 15 16  1  0  0  0
 15 32  1  0  0  0
 16 17  1  0  0  0
 17 33  1  0  0  0
M  END
> <s_m_source_file>
../2e2r_ligand.sdf

> <i_m_source_file_index>
1

> <s_epik_input>
W09IXWMxW2NIXVtjSF1jKFtjSF1bY0hdMSlDKFtDSDNdKShbQ0gzXSljMltjSF1bY0hdYyhbT0hdKVtjSF1bY0hdMg==

> <s_epik_cmdline>
J2VwaWtfYXBwJywgJy1pbWFlJywgJ2xpZ2FuZF9wcm8ubWFlJywgJy1vbWFlJywgJ2xpZ2FuZF9wcmVwLm1hZScsICctbXMnLCAnMScsICctcGgnLCAnNycsICctcGh0JywgJzAuNScsICctbnQn

> <r_lp_tautomer_probability>
0.99999999999473

> <r_epik_Ionization_Penalty>
  0.0746

> <r_epik_Ionization_Penalty_Charging>
  0.0000

> <r_epik_Ionization_Penalty_Neutral>
  0.0746

> <r_epik_State_Penalty>
  0.0657

> <r_epik_Charging_Adjusted_Penalty>
0.0657047236635915

> <i_epik_Tot_Q>
0

> <i_epik_Tot_abs_Q>
0

$$$$
