2e5y_ligand
                    3D
 Schrodinger Suite 2020-3.
 43 45  0  0  1  0            999 V2000
   24.3820   13.9950    9.7310 P   0  0  0  0  0  0
   23.8720   12.9180   10.6960 O   0  5  0  0  0  0
   23.2910   14.9340    9.3410 O   0  0  0  0  0  0
   25.1830   13.4800    8.5500 O   0  5  0  0  0  0
   26.3190   16.1500   10.1240 P   0  0  2  0  0  0
   26.1120   16.4690    8.6530 O   0  5  0  0  0  0
   27.6910   16.1670   10.6880 O   0  0  0  0  0  0
   25.5190   14.8130   10.5180 O   0  0  0  0  0  0
   25.8500   18.7340   11.3740 P   0  0  1  0  0  0
   27.0770   18.8040   12.2340 O   0  0  0  0  0  0
   25.8890   19.5080   10.0700 O   0  5  0  0  0  0
   25.4790   17.2150   11.0070 O   0  0  0  0  0  0
   24.4920   19.2300   12.1040 O   0  0  0  0  0  0
   23.3000   19.5510   11.3900 C   0  0  0  0  0  0
   22.1560   19.6980   12.3910 C   0  0  1  0  0  0
   21.7830   18.3960   12.8280 O   0  0  0  0  0  0
   22.6790   20.4250   13.6090 C   0  0  1  0  0  0
   21.4900   21.0480   14.0690 O   0  0  0  0  0  0
   22.8330   19.4110   14.7060 C   0  0  1  0  0  0
   22.6920   19.8860   16.0490 O   0  0  0  0  0  0
   22.0670   18.1990   14.2330 C   0  0  2  0  0  0
   22.6830   16.9140   14.4720 N   0  0  0  0  0  0
   23.7800   16.4020   13.6830 C   0  0  0  0  0  0
   24.0280   15.1110   14.2240 N   0  0  0  0  0  0
   23.2260   14.9010   15.3750 C   0  0  0  0  0  0
   23.0860   13.7380   16.2970 C   0  0  0  0  0  0
   23.6640   12.5210   15.9050 N   0  0  0  0  0  0
   22.0020   13.9280   17.2340 N   0  0  0  0  0  0
   21.1440   15.1030   17.3890 C   0  0  0  0  0  0
   21.2840   16.2200   16.4710 N   0  0  0  0  0  0
   22.3690   16.0590   15.5380 C   0  0  0  0  0  0
   23.4428   20.4950   10.8437 H   0  0  0  0  0  0
   23.0717   18.7455   10.6766 H   0  0  0  0  0  0
   21.2772   20.1883   11.9468 H   0  0  0  0  0  0
   23.5591   21.0565   13.4175 H   0  0  0  0  0  0
   21.0478   21.8781   13.4985 H   0  0  0  0  0  0
   23.8752   19.1389   14.9290 H   0  0  0  0  0  0
   23.2555   20.7702   16.3817 H   0  0  0  0  0  0
   21.1410   18.0944   14.8174 H   0  0  0  0  0  0
   24.2991   16.8937   12.8603 H   0  0  0  0  0  0
   24.4896   12.5131   15.1782 H   0  0  0  0  0  0
   23.2915   11.5748   16.3245 H   0  0  0  0  0  0
   20.4041   15.1399   18.1886 H   0  0  0  0  0  0
  1  2  1  0  0  0
  1  3  2  0  0  0
  1  4  1  0  0  0
  1  8  1  0  0  0
  5  6  1  0  0  0
  5  7  2  0  0  0
  5  8  1  0  0  0
  5 12  1  0  0  0
  9 10  2  0  0  0
  9 11  1  0  0  0
  9 12  1  0  0  0
  9 13  1  0  0  0
 13 14  1  0  0  0
 14 15  1  0  0  0
 14 32  1  0  0  0
 14 33  1  0  0  0
 15 16  1  0  0  0
 15 17  1  0  0  0
 15 34  1  0  0  0
 16 21  1  0  0  0
 17 18  1  0  0  0
 17 19  1  0  0  0
 17 35  1  0  0  0
 18 36  1  0  0  0
 19 20  1  0  0  0
 19 21  1  0  0  0
 19 37  1  0  0  0
 20 38  1  0  0  0
 21 22  1  0  0  0
 21 39  1  0  0  0
 22 23  1  0  0  0
 22 31  1  0  0  0
 23 24  2  0  0  0
 23 40  1  0  0  0
 24 25  1  0  0  0
 25 26  2  0  0  0
 25 31  1  0  0  0
 26 27  1  0  0  0
 26 28  1  0  0  0
 27 41  1  0  0  0
 27 42  1  0  0  0
 28 29  2  0  0  0
 29 30  1  0  0  0
 29 43  1  0  0  0
 30 31  2  0  0  0
M  CHG  4   2  -1   4  -1   6  -1  11  -1
M  END
> <s_m_source_file>
../2e5y_ligand.sdf

> <i_m_source_file_index>
1

> <s_epik_input>
W09IXVAoPU8pKFtPSF0pT1tQQEBdKD1PKShbT0hdKU9bUEBAXSg9TykoW09IXSlPW0NIMl1bQ0BIXTFPW0NASF0oW0NASF0oW09IXSlbQ0BASF0xW09IXSluKFtjSF1uMiljKGMyMyluW2NIXW5jM1tOSDJd

> <s_epik_cmdline>
J2VwaWtfYXBwJywgJy1pbWFlJywgJ2xpZ2FuZF9wcm8ubWFlJywgJy1vbWFlJywgJ2xpZ2FuZF9wcmVwLm1hZScsICctbXMnLCAnMScsICctcGgnLCAnNycsICctcGh0JywgJzAuNScsICctbnQn

> <r_lp_tautomer_probability>
0.999997216410988

> <r_epik_Ionization_Penalty>
  0.0818

> <r_epik_Ionization_Penalty_Charging>
  0.0813

> <r_epik_Ionization_Penalty_Neutral>
  0.0004

> <r_epik_State_Penalty>
  0.0708

> <r_epik_Charging_Adjusted_Penalty>
0.152157994418768

> <i_epik_Tot_Q>
-4

> <i_epik_Tot_abs_Q>
4

> <s_epik_Chemistry_Notes>
This compound contains an acetal/aminal-like group ( X-CH(R)-Y where X, Y are N, S, or O) that may be acid/base labile, releasing an aldehyde.

$$$$
