2e7l_ligand
                    3D
 Schrodinger Suite 2020-3.
151154  0  0  1  0            999 V2000
   32.3210  -44.1700   61.1760 N   0  3  0  0  0  0
   33.4600  -43.2760   61.5160 C   0  0  2  0  0  0
   33.2190  -41.8240   61.2060 C   0  0  0  0  0  0
   32.6560  -41.4680   60.1740 O   0  0  0  0  0  0
   34.7220  -43.7290   60.8240 C   0  0  0  0  0  0
   35.2850  -44.9600   61.4340 C   0  0  0  0  0  0
   34.7660  -45.1480   62.8090 C   0  0  0  0  0  0
   35.4700  -44.8930   63.7860 O   0  0  0  0  0  0
   33.5090  -45.5730   62.9120 N   0  0  0  0  0  0
   33.6830  -41.0040   62.1330 N   0  0  0  0  0  0
   33.4320  -39.5910   62.1330 C   0  0  2  0  0  0
   34.6050  -38.8080   61.5610 C   0  0  0  0  0  0
   35.6950  -39.3450   61.3690 O   0  0  0  0  0  0
   33.1710  -39.1570   63.5750 C   0  0  0  0  0  0
   31.7580  -39.2920   64.1590 C   0  0  0  0  0  0
   30.8650  -40.2970   63.4230 C   0  0  0  0  0  0
   31.8590  -39.6220   65.6470 C   0  0  0  0  0  0
   34.3630  -37.5300   61.3080 N   0  0  0  0  0  0
   35.3960  -36.5880   60.9370 C   0  0  2  0  0  0
   36.4650  -36.5180   62.0240 C   0  0  0  0  0  0
   36.1440  -36.5670   63.2150 O   0  0  0  0  0  0
   34.7740  -35.2030   60.7450 C   0  0  0  0  0  0
   35.7720  -34.2080   60.6050 O   0  0  0  0  0  0
   37.7430  -36.3660   61.6180 N   0  0  0  0  0  0
   38.8250  -36.1900   62.5830 C   0  0  2  0  0  0
   38.6240  -34.8930   63.3400 C   0  0  0  0  0  0
   37.7470  -34.0970   62.9870 O   0  0  0  0  0  0
   40.0680  -36.0790   61.6990 C   0  0  0  0  0  0
   39.5470  -35.5150   60.4070 C   0  0  0  0  0  0
   38.2500  -36.2970   60.2330 C   0  0  0  0  0  0
   39.4280  -34.7070   64.3860 N   0  0  0  0  0  0
   39.4350  -33.5010   65.1990 C   0  0  2  0  0  0
   39.6360  -32.2630   64.3090 C   0  0  0  0  0  0
   40.5570  -32.2370   63.4890 O   0  0  0  0  0  0
   40.5920  -33.6210   66.1870 C   0  0  0  0  0  0
   40.5390  -32.6540   67.3350 C   0  0  0  0  0  0
   39.8190  -32.9580   68.4880 C   0  0  0  0  0  0
   41.2400  -31.4640   67.2800 C   0  0  0  0  0  0
   39.7870  -32.0710   69.5640 C   0  0  0  0  0  0
   41.2200  -30.5740   68.3410 C   0  0  0  0  0  0
   40.5010  -30.8870   69.4960 C   0  0  0  0  0  0
   38.7820  -31.2370   64.4670 N   0  0  0  0  0  0
   38.8490  -30.0330   63.6300 C   0  0  2  0  0  0
   40.0720  -29.1690   63.9340 C   0  0  0  0  0  0
   40.6670  -29.3080   64.9930 O   0  0  0  0  0  0
   37.5730  -29.2660   64.0180 C   0  0  0  0  0  0
   36.7340  -30.2350   64.7280 C   0  0  0  0  0  0
   37.6830  -31.1330   65.4340 C   0  0  0  0  0  0
   40.4310  -28.2750   63.0160 N   0  0  0  0  0  0
   41.5090  -27.3180   63.2590 C   0  0  2  0  0  0
   41.0670  -26.2490   64.2420 C   0  0  0  0  0  0
   39.8600  -26.0690   64.4860 O   0  0  0  0  0  0
   41.9560  -26.6770   61.9550 C   0  0  0  0  0  0
   42.9370  -27.5130   61.1590 C   0  0  0  0  0  0
   43.8990  -26.8960   60.3650 C   0  0  0  0  0  0
   42.9040  -28.9090   61.2040 C   0  0  0  0  0  0
   44.8080  -27.6560   59.6150 C   0  0  0  0  0  0
   43.8110  -29.6720   60.4660 C   0  0  0  0  0  0
   44.7590  -29.0440   59.6600 C   0  0  0  0  0  0
   42.0480  -25.5670   64.8320 N   0  0  0  0  0  0
   41.7890  -24.4160   65.6880 C   0  0  2  0  0  0
   41.0570  -23.3460   64.8840 C   0  0  0  0  0  0
   41.4190  -23.0490   63.7290 O   0  0  0  0  0  0
   43.0980  -23.7970   66.1780 C   0  0  0  0  0  0
   43.8890  -24.6970   67.1270 C   0  0  0  0  0  0
   43.6150  -25.9200   67.2410 O   0  0  0  0  0  0
   44.8180  -24.1540   67.7650 O   0  0  0  0  0  0
   40.0240  -22.7740   65.4880 N   0  0  0  0  0  0
   39.4460  -21.5460   64.9830 C   0  0  2  0  0  0
   40.4150  -20.3910   65.2290 C   0  0  0  0  0  0
   40.4080  -19.3940   64.4860 O   0  0  0  0  0  0
   38.1060  -21.2760   65.6690 C   0  0  0  0  0  0
   36.7820  -21.6860   65.0030 C   0  0  0  0  0  0
   36.8770  -22.9070   64.1040 C   0  0  0  0  0  0
   35.7020  -21.8610   66.0540 C   0  0  0  0  0  0
   41.2717  -20.4522   66.2445 O   0  0  0  0  0  0
   32.5799  -45.2077   61.4333 H   0  0  0  0  0  0
   32.1097  -44.1011   60.0987 H   0  0  0  0  0  0
   31.4310  -43.8624   61.7446 H   0  0  0  0  0  0
   33.5561  -43.3615   62.6085 H   0  0  0  0  0  0
   34.5047  -43.9402   59.7666 H   0  0  0  0  0  0
   35.4817  -42.9363   60.8909 H   0  0  0  0  0  0
   35.0038  -45.8323   60.8257 H   0  0  0  0  0  0
   36.3813  -44.8802   61.4758 H   0  0  0  0  0  0
   32.9245  -45.7863   62.0049 H   0  0  0  0  0  0
   33.0546  -45.7110   63.9042 H   0  0  0  0  0  0
   34.2890  -41.4550   62.9326 H   0  0  0  0  0  0
   32.5591  -39.4439   61.4800 H   0  0  0  0  0  0
   33.8035  -39.7461   64.2554 H   0  0  0  0  0  0
   33.4095  -38.0889   63.6853 H   0  0  0  0  0  0
   31.2563  -38.3225   64.0233 H   0  0  0  0  0  0
   30.8144  -40.0305   62.3570 H   0  0  0  0  0  0
   29.8537  -40.2740   63.8552 H   0  0  0  0  0  0
   31.2861  -41.3077   63.5287 H   0  0  0  0  0  0
   32.5053  -38.8832   66.1434 H   0  0  0  0  0  0
   32.2884  -40.6271   65.7713 H   0  0  0  0  0  0
   30.8560  -39.5934   66.0978 H   0  0  0  0  0  0
   33.3183  -37.1960   61.3914 H   0  0  0  0  0  0
   35.8297  -36.9676   60.0001 H   0  0  0  0  0  0
   34.1499  -35.2037   59.8392 H   0  0  0  0  0  0
   34.1524  -34.9559   61.6183 H   0  0  0  0  0  0
   35.4837  -33.1565   60.4590 H   0  0  0  0  0  0
   38.8517  -37.0129   63.3124 H   0  0  0  0  0  0
   40.7996  -35.4112   62.1773 H   0  0  0  0  0  0
   40.5136  -37.0759   61.5660 H   0  0  0  0  0  0
   39.3899  -34.4318   60.5167 H   0  0  0  0  0  0
   40.2770  -35.7003   59.6052 H   0  0  0  0  0  0
   38.4097  -37.3157   59.8498 H   0  0  0  0  0  0
   37.5160  -35.7777   59.5993 H   0  0  0  0  0  0
   40.1147  -35.5333   64.6219 H   0  0  0  0  0  0
   38.4644  -33.4378   65.7127 H   0  0  0  0  0  0
   40.5993  -34.6313   66.6221 H   0  0  0  0  0  0
   41.5421  -33.4407   65.6627 H   0  0  0  0  0  0
   39.2742  -33.9000   68.5501 H   0  0  0  0  0  0
   41.8175  -31.2223   66.3877 H   0  0  0  0  0  0
   39.2032  -32.3088   70.4532 H   0  0  0  0  0  0
   41.7641  -29.6319   68.2744 H   0  0  0  0  0  0
   40.5018  -30.2004   70.3426 H   0  0  0  0  0  0
   38.9319  -30.3280   62.5736 H   0  0  0  0  0  0
   37.8383  -28.4156   64.6633 H   0  0  0  0  0  0
   37.0771  -28.8955   63.1087 H   0  0  0  0  0  0
   36.0792  -29.7045   65.4349 H   0  0  0  0  0  0
   36.1190  -30.7882   64.0030 H   0  0  0  0  0  0
   37.2678  -32.1333   65.6261 H   0  0  0  0  0  0
   38.0614  -30.7062   66.3746 H   0  0  0  0  0  0
   39.8949  -28.2674   62.0555 H   0  0  0  0  0  0
   42.3361  -27.8984   63.6937 H   0  0  0  0  0  0
   41.0804  -26.5056   61.3117 H   0  0  0  0  0  0
   42.4479  -25.7165   62.1683 H   0  0  0  0  0  0
   43.9466  -25.8078   60.3256 H   0  0  0  0  0  0
   42.1599  -29.4094   61.8238 H   0  0  0  0  0  0
   45.5539  -27.1574   58.9960 H   0  0  0  0  0  0
   43.7777  -30.7601   60.5202 H   0  0  0  0  0  0
   45.4569  -29.6374   59.0693 H   0  0  0  0  0  0
   43.0816  -25.8992   64.6549 H   0  0  0  0  0  0
   41.1900  -24.8015   66.5263 H   0  0  0  0  0  0
   43.7467  -23.5812   65.3162 H   0  0  0  0  0  0
   42.8825  -22.8630   66.7177 H   0  0  0  0  0  0
   44.1956  -26.5519   67.9292 H   0  0  0  0  0  0
   39.6064  -23.2491   66.3879 H   0  0  0  0  0  0
   39.2906  -21.6939   63.9041 H   0  0  0  0  0  0
   38.0785  -21.7966   66.6376 H   0  0  0  0  0  0
   37.9882  -20.1943   65.8307 H   0  0  0  0  0  0
   36.5006  -20.8676   64.3240 H   0  0  0  0  0  0
   37.6667  -22.7499   63.3545 H   0  0  0  0  0  0
   35.9144  -23.0634   63.5952 H   0  0  0  0  0  0
   37.1187  -23.7916   64.7114 H   0  0  0  0  0  0
   35.6579  -20.9628   66.6875 H   0  0  0  0  0  0
   35.9347  -22.7376   66.6764 H   0  0  0  0  0  0
   34.7304  -22.0094   65.5601 H   0  0  0  0  0  0
   41.9710  -19.6225   66.4249 H   0  0  0  0  0  0
  1  2  1  0  0  0
  1 77  1  0  0  0
  1 78  1  0  0  0
  1 79  1  0  0  0
  2  5  1  0  0  0
  2  3  1  0  0  0
  2 80  1  0  0  0
  3  4  2  0  0  0
  3 10  1  0  0  0
  5  6  1  0  0  0
  5 81  1  0  0  0
  5 82  1  0  0  0
  6  7  1  0  0  0
  6 83  1  0  0  0
  6 84  1  0  0  0
  7  9  1  0  0  0
  7  8  2  0  0  0
  9 85  1  0  0  0
  9 86  1  0  0  0
 10 11  1  0  0  0
 10 87  1  0  0  0
 11 14  1  0  0  0
 11 12  1  0  0  0
 11 88  1  0  0  0
 12 13  2  0  0  0
 12 18  1  0  0  0
 14 15  1  0  0  0
 14 89  1  0  0  0
 14 90  1  0  0  0
 15 16  1  0  0  0
 15 17  1  0  0  0
 15 91  1  0  0  0
 16 92  1  0  0  0
 16 93  1  0  0  0
 16 94  1  0  0  0
 17 95  1  0  0  0
 17 96  1  0  0  0
 17 97  1  0  0  0
 18 19  1  0  0  0
 18 98  1  0  0  0
 19 22  1  0  0  0
 19 20  1  0  0  0
 19 99  1  0  0  0
 20 21  2  0  0  0
 20 24  1  0  0  0
 22 23  1  0  0  0
 22100  1  0  0  0
 22101  1  0  0  0
 23102  1  0  0  0
 24 25  1  0  0  0
 24 30  1  0  0  0
 25 26  1  0  0  0
 25 28  1  0  0  0
 25103  1  0  0  0
 26 27  2  0  0  0
 26 31  1  0  0  0
 28 29  1  0  0  0
 28104  1  0  0  0
 28105  1  0  0  0
 29 30  1  0  0  0
 29106  1  0  0  0
 29107  1  0  0  0
 30108  1  0  0  0
 30109  1  0  0  0
 31 32  1  0  0  0
 31110  1  0  0  0
 32 35  1  0  0  0
 32 33  1  0  0  0
 32111  1  0  0  0
 33 34  2  0  0  0
 33 42  1  0  0  0
 35 36  1  0  0  0
 35112  1  0  0  0
 35113  1  0  0  0
 36 37  2  0  0  0
 36 38  1  0  0  0
 37 39  1  0  0  0
 37114  1  0  0  0
 38 40  2  0  0  0
 38115  1  0  0  0
 39 41  2  0  0  0
 39116  1  0  0  0
 40 41  1  0  0  0
 40117  1  0  0  0
 41118  1  0  0  0
 42 43  1  0  0  0
 42 48  1  0  0  0
 43 44  1  0  0  0
 43 46  1  0  0  0
 43119  1  0  0  0
 44 45  2  0  0  0
 44 49  1  0  0  0
 46 47  1  0  0  0
 46120  1  0  0  0
 46121  1  0  0  0
 47 48  1  0  0  0
 47122  1  0  0  0
 47123  1  0  0  0
 48124  1  0  0  0
 48125  1  0  0  0
 49 50  1  0  0  0
 49126  1  0  0  0
 50 53  1  0  0  0
 50 51  1  0  0  0
 50127  1  0  0  0
 51 52  2  0  0  0
 51 60  1  0  0  0
 53 54  1  0  0  0
 53128  1  0  0  0
 53129  1  0  0  0
 54 55  2  0  0  0
 54 56  1  0  0  0
 55 57  1  0  0  0
 55130  1  0  0  0
 56 58  2  0  0  0
 56131  1  0  0  0
 57 59  2  0  0  0
 57132  1  0  0  0
 58 59  1  0  0  0
 58133  1  0  0  0
 59134  1  0  0  0
 60 61  1  0  0  0
 60135  1  0  0  0
 61 64  1  0  0  0
 61 62  1  0  0  0
 61136  1  0  0  0
 62 63  2  0  0  0
 62 68  1  0  0  0
 64 65  1  0  0  0
 64137  1  0  0  0
 64138  1  0  0  0
 65 66  1  0  0  0
 65 67  2  0  0  0
 66139  1  0  0  0
 68 69  1  0  0  0
 68140  1  0  0  0
 69 72  1  0  0  0
 69 70  1  0  0  0
 69141  1  0  0  0
 70 71  2  0  0  0
 70 76  1  0  0  0
 72 73  1  0  0  0
 72142  1  0  0  0
 72143  1  0  0  0
 73 74  1  0  0  0
 73 75  1  0  0  0
 73144  1  0  0  0
 74145  1  0  0  0
 74146  1  0  0  0
 74147  1  0  0  0
 75148  1  0  0  0
 75149  1  0  0  0
 75150  1  0  0  0
 76151  1  0  0  0
M  CHG  1   1   1
M  END
> <s_m_source_file>
../2e7l_ligand.sdf

> <i_m_source_file_index>
1

> <s_epik_input>
Tz1DKFtOSDJdKVtDSDJdW0NIMl1bQ0BIXShbTkgzK10pQyg9TylbTkhdW0NAQEhdKFtDSDJdW0NIXShbQ0gzXSlbQ0gzXSlDKD1PKVtOSF1bQ0BASF0oW0NIMl1bT0hdKUMoPU8pTjFbQ0BASF0oW0NIMl1bQ0gyXVtDSDJdMSlDKD1PKVtOSF1bQ0BASF0oW0NIMl1jMltjSF1bY0hdW2NIXVtjSF1bY0hdMilDKD1PKU4zW0NAQEhdKFtDSDJdW0NIMl1bQ0gyXTMpQyg9TylbTkhdW0NAQEhdKFtDSDJdYzRbY0hdW2NIXVtjSF1bY0hdW2NIXTQpQyg9TylbTkhdW0NAQEhdKFtDSDJdQyg9TylbT0hdKUMoPU8pW05IXVtDQEhdKEMoPU8pW09IXSlbQ0gyXVtDSF0oW0NIM10pW0NIM10=

> <s_epik_cmdline>
J2VwaWtfYXBwJywgJy1pbWFlJywgJ2xpZ2FuZF9wcm8ubWFlJywgJy1vbWFlJywgJ2xpZ2FuZF9wcmVwLm1hZScsICctbXMnLCAnMScsICctcGgnLCAnNycsICctcGh0JywgJzAuNScsICctbnQn

> <s_epik_pKa_notes>
Molecule size exceeds maximum supported for generating protonation states

$$$$
