2e91_ligand
                    3D
 Schrodinger Suite 2020-3.
 24 24  0  0  1  0            999 V2000
   28.9780   43.4940    5.0900 O   0  5  0  0  0  0
   29.5310   44.9490    4.6960 P   0  0  0  0  0  0
   28.9690   45.3700    3.2410 O   0  5  0  0  0  0
   31.0030   45.0270    4.8460 O   0  0  0  0  0  0
   28.6380   46.1140    5.8410 C   0  0  2  0  0  0
   26.8200   45.7440    5.6160 P   0  0  0  0  0  0
   26.5750   44.2930    6.2630 O   0  5  0  0  0  0
   26.0330   46.8350    6.4970 O   0  0  0  0  0  0
   26.4830   45.7670    4.1690 O   0  0  0  0  0  0
   28.9140   47.4520    5.4150 O   0  0  0  0  0  0
   29.1060   45.8650    7.2780 C   0  0  0  0  0  0
   28.4500   46.7580    8.2490 N   0  0  0  0  0  0
   28.3730   48.0790    8.1550 C   0  0  0  0  0  0
   27.7660   48.4950    9.2680 N   0  3  0  0  0  0
   27.4810   47.4440   10.0340 C   0  0  0  0  0  0
   27.9080   46.3560    9.3960 C   0  0  0  0  0  0
   26.2118   46.8997    7.5804 H   0  0  0  0  0  0
   28.6327   47.7758    4.4020 H   0  0  0  0  0  0
   28.8766   44.8278    7.5638 H   0  0  0  0  0  0
   30.1912   46.0321    7.3444 H   0  0  0  0  0  0
   28.7329   48.6994    7.3342 H   0  0  0  0  0  0
   26.9881   47.4695   11.0059 H   0  0  0  0  0  0
   27.8284   45.3274    9.7478 H   0  0  0  0  0  0
   27.5798   49.5677    9.4248 H   0  0  0  0  0  0
  1  2  1  0  0  0
  2  3  1  0  0  0
  2  4  2  0  0  0
  2  5  1  0  0  0
  5  6  1  0  0  0
  5 10  1  0  0  0
  5 11  1  0  0  0
  6  7  1  0  0  0
  6  8  1  0  0  0
  6  9  2  0  0  0
  8 17  1  0  0  0
 10 18  1  0  0  0
 11 12  1  0  0  0
 11 19  1  0  0  0
 11 20  1  0  0  0
 12 13  1  0  0  0
 12 16  1  0  0  0
 13 14  2  0  0  0
 13 21  1  0  0  0
 14 15  1  0  0  0
 14 24  1  0  0  0
 15 16  2  0  0  0
 15 22  1  0  0  0
 16 23  1  0  0  0
M  CHG  4   1  -1   3  -1   7  -1  14   1
M  END
> <s_m_source_file>
../2e91_ligand.sdf

> <i_m_source_file_index>
1

> <s_epik_input>
W09IXVAoPU8pKFtPSF0pQyhbT0hdKShQKD1PKShbT0hdKVtPSF0pW0NIMl1uMVtjSF1uW2NIXVtjSF0x

> <s_epik_cmdline>
J2VwaWtfYXBwJywgJy1pbWFlJywgJ2xpZ2FuZF9wcm8ubWFlJywgJy1vbWFlJywgJ2xpZ2FuZF9wcmVwLm1hZScsICctbXMnLCAnMScsICctcGgnLCAnNycsICctcGh0JywgJzAuNScsICctbnQn

> <r_lp_tautomer_probability>
1

> <r_epik_Ionization_Penalty>
  0.4852

> <r_epik_Ionization_Penalty_Charging>
  0.1152

> <r_epik_Ionization_Penalty_Neutral>
  0.3700

> <r_epik_State_Penalty>
  0.3673

> <r_epik_Charging_Adjusted_Penalty>
0.482509133999399

> <i_epik_Tot_Q>
-2

> <i_epik_Tot_abs_Q>
4

$$$$
