2e93_ligand
                    3D
 Schrodinger Suite 2020-3.
 45 48  0  0  1  0            999 V2000
   28.7180   45.6620   16.0090 C   0  0  0  0  0  0
   28.8110   45.0750   17.2650 C   0  0  0  0  0  0
   29.7530   45.5310   18.1810 C   0  0  0  0  0  0
   30.5920   46.5860   17.8410 C   0  0  0  0  0  0
   30.4910   47.1780   16.5850 C   0  0  0  0  0  0
   29.5560   46.7160   15.6630 C   0  0  0  0  0  0
   29.3680   46.9950   14.3370 O   0  0  0  0  0  0
   28.4430   46.1320   13.8280 C   0  0  0  0  0  0
   28.0340   45.2910   14.8580 C   0  0  0  0  0  0
   27.1820   44.2210   14.5920 C   0  0  0  0  0  0
   26.7360   44.0050   13.2920 C   0  0  0  0  0  0
   27.1300   44.8640   12.2680 C   0  0  0  0  0  0
   27.9840   45.9300   12.5300 C   0  0  0  0  0  0
   28.3710   46.7800   11.5000 C   0  0  0  0  0  0
   28.7110   46.2500   10.2600 C   0  0  0  0  0  0
   28.4540   48.1560   11.6950 C   0  0  0  0  0  0
   28.8650   48.9930   10.6610 C   0  0  0  0  0  0
   29.2050   48.4530    9.4240 C   0  0  0  0  0  0
   29.1360   47.0780    9.2240 C   0  0  0  0  0  0
   29.6740   46.4280    7.9430 C   0  0  0  0  0  0
   29.0730   46.9280    6.6250 C   0  0  1  0  0  0
   29.7820   45.8270    5.2990 P   0  0  0  0  0  0
   29.4530   46.4590    3.8620 O   0  5  0  0  0  0
   31.3590   46.0250    5.5480 O   0  5  0  0  0  0
   29.3550   44.4150    5.4330 O   0  0  0  0  0  0
   27.2080   46.8410    6.6760 P   0  0  0  0  0  0
   26.8550   45.5290    7.5310 O   0  5  0  0  0  0
   26.7840   48.1310    7.5450 O   0  0  0  0  0  0
   26.5750   46.8840    5.3420 O   0  0  0  0  0  0
   29.4970   48.2720    6.3760 O   0  0  0  0  0  0
   28.1443   44.2554   17.5330 H   0  0  0  0  0  0
   29.8331   45.0628   19.1621 H   0  0  0  0  0  0
   31.3286   46.9496   18.5575 H   0  0  0  0  0  0
   31.1474   48.0075   16.3222 H   0  0  0  0  0  0
   26.8669   43.5574   15.3973 H   0  0  0  0  0  0
   26.0782   43.1636   13.0744 H   0  0  0  0  0  0
   26.7661   44.6992   11.2538 H   0  0  0  0  0  0
   28.6441   45.1743   10.0971 H   0  0  0  0  0  0
   28.1952   48.5813   12.6646 H   0  0  0  0  0  0
   28.9204   50.0699   10.8201 H   0  0  0  0  0  0
   29.5250   49.1069    8.6127 H   0  0  0  0  0  0
   30.7570   46.6057    7.8686 H   0  0  0  0  0  0
   29.4812   45.3454    7.9723 H   0  0  0  0  0  0
   27.1691   48.2559    8.5678 H   0  0  0  0  0  0
   30.5696   48.5077    6.3134 H   0  0  0  0  0  0
  1  2  2  0  0  0
  1  6  1  0  0  0
  1  9  1  0  0  0
  2  3  1  0  0  0
  2 31  1  0  0  0
  3  4  2  0  0  0
  3 32  1  0  0  0
  4  5  1  0  0  0
  4 33  1  0  0  0
  5  6  2  0  0  0
  5 34  1  0  0  0
  6  7  1  0  0  0
  7  8  1  0  0  0
  8  9  2  0  0  0
  8 13  1  0  0  0
  9 10  1  0  0  0
 10 11  2  0  0  0
 10 35  1  0  0  0
 11 12  1  0  0  0
 11 36  1  0  0  0
 12 13  2  0  0  0
 12 37  1  0  0  0
 13 14  1  0  0  0
 14 15  2  0  0  0
 14 16  1  0  0  0
 15 19  1  0  0  0
 15 38  1  0  0  0
 16 17  2  0  0  0
 16 39  1  0  0  0
 17 18  1  0  0  0
 17 40  1  0  0  0
 18 19  2  0  0  0
 18 41  1  0  0  0
 19 20  1  0  0  0
 20 21  1  0  0  0
 20 42  1  0  0  0
 20 43  1  0  0  0
 21 22  1  0  0  0
 21 26  1  0  0  0
 21 30  1  0  0  0
 22 23  1  0  0  0
 22 24  1  0  0  0
 22 25  2  0  0  0
 26 27  1  0  0  0
 26 28  1  0  0  0
 26 29  2  0  0  0
 28 44  1  0  0  0
 30 45  1  0  0  0
M  CHG  3  23  -1  24  -1  27  -1
M  END
> <s_m_source_file>
../2e93_ligand.sdf

> <i_m_source_file_index>
1

> <s_epik_input>
W2NIXTFbY0hdW2NIXVtjSF1jKGMxMilvYzNjMltjSF1bY0hdW2NIXWMzLWM0W2NIXWMoW2NIXVtjSF1bY0hdNClbQ0gyXUMoW09IXSkoUCg9TykoW09IXSlbT0hdKVAoPU8pKFtPSF0pW09IXQ==

> <s_epik_cmdline>
J2VwaWtfYXBwJywgJy1pbWFlJywgJ2xpZ2FuZF9wcm8ubWFlJywgJy1vbWFlJywgJ2xpZ2FuZF9wcmVwLm1hZScsICctbXMnLCAnMScsICctcGgnLCAnNycsICctcGh0JywgJzAuNScsICctbnQn

> <r_epik_Ionization_Penalty>
  0.1987

> <r_epik_Ionization_Penalty_Charging>
  0.1986

> <r_epik_Ionization_Penalty_Neutral>
  0.0000

> <r_epik_State_Penalty>
  0.1884

> <r_epik_Charging_Adjusted_Penalty>
0.387000418665595

> <i_epik_Tot_Q>
-3

> <i_epik_Tot_abs_Q>
3

$$$$
