2e98_ligand
                    3D
 Schrodinger Suite 2020-3.
 45 48  0  0  1  0            999 V2000
   43.1330   34.0200   56.1400 C   0  0  0  0  0  0
   44.0200   32.9500   56.1970 C   0  0  0  0  0  0
   44.1470   32.0800   55.1180 C   0  0  0  0  0  0
   43.3900   32.2830   53.9690 C   0  0  0  0  0  0
   42.5050   33.3540   53.9100 C   0  0  0  0  0  0
   42.3690   34.2160   54.9950 C   0  0  0  0  0  0
   41.5870   35.3190   55.1950 O   0  0  0  0  0  0
   41.8490   35.8420   56.4330 C   0  0  0  0  0  0
   42.8140   35.0390   57.0330 C   0  0  0  0  0  0
   43.3210   35.4000   58.2770 C   0  0  0  0  0  0
   42.8720   36.5520   58.9160 C   0  0  0  0  0  0
   41.9050   37.3470   58.3080 C   0  0  0  0  0  0
   41.3880   36.9940   57.0650 C   0  0  0  0  0  0
   40.4030   37.7720   56.4580 C   0  0  0  0  0  0
   40.5270   39.1540   56.3450 C   0  0  0  0  0  0
   39.3000   37.1480   55.8810 C   0  0  0  0  0  0
   38.3570   37.9050   55.1910 C   0  0  0  0  0  0
   38.4870   39.2850   55.0690 C   0  0  0  0  0  0
   39.5810   39.9140   55.6560 C   0  0  0  0  0  0
   39.7850   41.4150   55.4230 C   0  0  0  0  0  0
   39.2080   42.3040   56.5300 C   0  0  1  0  0  0
   39.9670   43.9970   56.3900 P   0  0  0  0  0  0
   39.5310   44.6800   55.0070 O   0  5  0  0  0  0
   39.3030   44.8710   57.5640 O   0  5  0  0  0  0
   41.4280   43.8580   56.6000 O   0  0  0  0  0  0
   37.3510   42.4850   56.4790 P   0  0  0  0  0  0
   36.9560   42.8560   54.9720 O   0  5  0  0  0  0
   36.8220   41.0300   56.9030 O   0  0  0  0  0  0
   36.9300   43.5720   57.3950 O   0  0  0  0  0  0
   39.5700   41.8060   57.8200 O   0  0  0  0  0  0
   44.6200   32.7917   57.0932 H   0  0  0  0  0  0
   44.8394   31.2400   55.1734 H   0  0  0  0  0  0
   43.4898   31.6067   53.1200 H   0  0  0  0  0  0
   41.9143   33.5197   53.0091 H   0  0  0  0  0  0
   44.0759   34.7758   58.7551 H   0  0  0  0  0  0
   43.2763   36.8306   59.8892 H   0  0  0  0  0  0
   41.5513   38.2492   58.8070 H   0  0  0  0  0  0
   41.3806   39.6527   56.8042 H   0  0  0  0  0  0
   39.1751   36.0688   55.9694 H   0  0  0  0  0  0
   37.5001   37.4069   54.7375 H   0  0  0  0  0  0
   37.7434   39.8646   54.5220 H   0  0  0  0  0  0
   40.8613   41.6334   55.3605 H   0  0  0  0  0  0
   39.2958   41.7100   54.4830 H   0  0  0  0  0  0
   37.0772   40.1522   56.2912 H   0  0  0  0  0  0
   40.6275   41.6256   58.0630 H   0  0  0  0  0  0
  1  2  2  0  0  0
  1  6  1  0  0  0
  1  9  1  0  0  0
  2  3  1  0  0  0
  2 31  1  0  0  0
  3  4  2  0  0  0
  3 32  1  0  0  0
  4  5  1  0  0  0
  4 33  1  0  0  0
  5  6  2  0  0  0
  5 34  1  0  0  0
  6  7  1  0  0  0
  7  8  1  0  0  0
  8  9  2  0  0  0
  8 13  1  0  0  0
  9 10  1  0  0  0
 10 11  2  0  0  0
 10 35  1  0  0  0
 11 12  1  0  0  0
 11 36  1  0  0  0
 12 13  2  0  0  0
 12 37  1  0  0  0
 13 14  1  0  0  0
 14 15  2  0  0  0
 14 16  1  0  0  0
 15 19  1  0  0  0
 15 38  1  0  0  0
 16 17  2  0  0  0
 16 39  1  0  0  0
 17 18  1  0  0  0
 17 40  1  0  0  0
 18 19  2  0  0  0
 18 41  1  0  0  0
 19 20  1  0  0  0
 20 21  1  0  0  0
 20 42  1  0  0  0
 20 43  1  0  0  0
 21 22  1  0  0  0
 21 26  1  0  0  0
 21 30  1  0  0  0
 22 23  1  0  0  0
 22 24  1  0  0  0
 22 25  2  0  0  0
 26 27  1  0  0  0
 26 28  1  0  0  0
 26 29  2  0  0  0
 28 44  1  0  0  0
 30 45  1  0  0  0
M  CHG  3  23  -1  24  -1  27  -1
M  END
> <s_m_source_file>
../2e98_ligand.sdf

> <i_m_source_file_index>
1

> <s_epik_input>
W2NIXTFbY0hdW2NIXVtjSF1jKGMxMilvYzNjMltjSF1bY0hdW2NIXWMzLWM0W2NIXWMoW2NIXVtjSF1bY0hdNClbQ0gyXUMoW09IXSkoUCg9TykoW09IXSlbT0hdKVAoPU8pKFtPSF0pW09IXQ==

> <s_epik_cmdline>
J2VwaWtfYXBwJywgJy1pbWFlJywgJ2xpZ2FuZF9wcm8ubWFlJywgJy1vbWFlJywgJ2xpZ2FuZF9wcmVwLm1hZScsICctbXMnLCAnMScsICctcGgnLCAnNycsICctcGh0JywgJzAuNScsICctbnQn

> <r_epik_Ionization_Penalty>
  0.1987

> <r_epik_Ionization_Penalty_Charging>
  0.1986

> <r_epik_Ionization_Penalty_Neutral>
  0.0000

> <r_epik_State_Penalty>
  0.1884

> <r_epik_Charging_Adjusted_Penalty>
0.387000418665595

> <i_epik_Tot_Q>
-3

> <i_epik_Tot_abs_Q>
3

$$$$
