2e9n_ligand
                    3D
 Schrodinger Suite 2020-3.
 62 67  0  0  1  0            999 V2000
  -13.4960    9.4900  -13.8670 O   0  0  0  0  0  0
   -9.6580    9.3950  -16.0270 C   0  0  0  0  0  0
  -10.3360    8.1260  -15.6120 C   0  0  0  0  0  0
  -11.6250    8.1580  -14.8870 C   0  0  0  0  0  0
  -12.2860    9.4560  -14.5480 C   0  0  0  0  0  0
  -11.6410   10.7100  -14.9420 C   0  0  0  0  0  0
  -10.3660   10.6880  -15.6600 C   0  0  0  0  0  0
   -5.7140    9.6140  -18.3310 C   0  0  0  0  0  0
   -6.1180    8.3060  -17.6850 C   0  0  0  0  0  0
   -7.3940    8.2220  -16.9350 C   0  0  0  0  0  0
   -8.2980    9.4160  -16.8020 C   0  0  0  0  0  0
   -7.8550   10.6720  -17.4560 C   0  0  0  0  0  0
   -6.6180   10.7760  -18.1890 C   0  0  0  0  0  0
   -4.4200    9.8530  -19.1240 C   0  0  0  0  0  0
   -4.2420   10.5910  -20.2580 N   0  3  0  0  0  0
   -2.9630   10.6280  -20.7230 N   0  0  0  0  0  0
   -2.2310    9.8610  -19.8500 C   0  0  0  0  0  0
   -3.1120    9.3620  -18.8240 C   0  0  0  0  0  0
   -0.9270    9.4350  -19.6310 C   0  0  0  0  0  0
   -0.9940    8.6030  -18.3890 C   0  0  0  0  0  0
   -2.3500    8.5850  -17.9410 C   0  0  0  0  0  0
    0.3570    9.6330  -20.3260 C   0  0  0  0  0  0
    1.6120    8.9950  -19.7760 C   0  0  0  0  0  0
    1.5530    8.1490  -18.5110 C   0  0  0  0  0  0
    0.2170    7.9750  -17.8480 C   0  0  0  0  0  0
    2.7020    7.5290  -17.9170 C   0  0  0  0  0  0
    3.5980    6.8640  -18.7560 N   0  0  0  0  0  0
    2.9080    7.5990  -16.6860 O   0  0  0  0  0  0
    4.8400    6.2040  -18.2460 C   0  0  1  0  0  0
    4.9170    4.6690  -18.5860 C   0  0  0  0  0  0
    6.2470    3.9840  -18.0630 C   0  0  0  0  0  0
    7.6020    4.7180  -18.4660 C   0  0  1  0  0  0
    7.4890    6.3300  -18.2950 C   0  0  0  0  0  0
    6.1300    6.9430  -18.8160 C   0  0  0  0  0  0
    8.6830    4.2490  -17.5860 O   0  0  0  0  0  0
  -13.9856    8.5513  -13.5683 H   0  0  0  0  0  0
   -9.8741    7.1671  -15.8470 H   0  0  0  0  0  0
  -12.1002    7.2214  -14.5954 H   0  0  0  0  0  0
  -12.1119   11.6627  -14.6998 H   0  0  0  0  0  0
   -9.9069   11.6354  -15.9422 H   0  0  0  0  0  0
   -5.4742    7.4306  -17.7708 H   0  0  0  0  0  0
   -7.6818    7.2782  -16.4719 H   0  0  0  0  0  0
   -8.4918   11.5533  -17.3790 H   0  0  0  0  0  0
   -6.3443   11.7269  -18.6462 H   0  0  0  0  0  0
   -2.4194    9.0072  -16.9276 H   0  0  0  0  0  0
   -2.7332    7.5539  -17.9356 H   0  0  0  0  0  0
    0.4016   10.2367  -21.2325 H   0  0  0  0  0  0
    2.5636    9.1411  -20.2871 H   0  0  0  0  0  0
    0.1451    7.3689  -16.9449 H   0  0  0  0  0  0
    3.3619    6.8366  -19.8300 H   0  0  0  0  0  0
    4.7440    6.3085  -17.1552 H   0  0  0  0  0  0
    4.0677    4.1474  -18.1207 H   0  0  0  0  0  0
    4.8780    4.5326  -19.6768 H   0  0  0  0  0  0
    6.2313    3.9444  -16.9638 H   0  0  0  0  0  0
    6.3163    2.9627  -18.4657 H   0  0  0  0  0  0
    7.8750    4.4295  -19.4918 H   0  0  0  0  0  0
    7.5740    6.5926  -17.2302 H   0  0  0  0  0  0
    8.2991    6.8162  -18.8584 H   0  0  0  0  0  0
    6.1371    6.8738  -19.9138 H   0  0  0  0  0  0
    6.1094    8.0009  -18.5154 H   0  0  0  0  0  0
    8.9330    3.1786  -17.5444 H   0  0  0  0  0  0
   -5.0993   11.0991  -20.7238 H   0  0  0  0  0  0
  1  5  1  0  0  0
  1 36  1  0  0  0
  2  3  2  0  0  0
  2  7  1  0  0  0
  2 11  1  0  0  0
  3  4  1  0  0  0
  3 37  1  0  0  0
  4  5  2  0  0  0
  4 38  1  0  0  0
  5  6  1  0  0  0
  6  7  2  0  0  0
  6 39  1  0  0  0
  7 40  1  0  0  0
  8  9  2  0  0  0
  8 13  1  0  0  0
  8 14  1  0  0  0
  9 10  1  0  0  0
  9 41  1  0  0  0
 10 11  2  0  0  0
 10 42  1  0  0  0
 11 12  1  0  0  0
 12 13  2  0  0  0
 12 43  1  0  0  0
 13 44  1  0  0  0
 14 15  2  0  0  0
 14 18  1  0  0  0
 15 16  1  0  0  0
 15 62  1  0  0  0
 16 17  1  0  0  0
 17 18  2  0  0  0
 17 19  1  0  0  0
 18 21  1  0  0  0
 19 20  2  0  0  0
 19 22  1  0  0  0
 20 21  1  0  0  0
 20 25  1  0  0  0
 21 45  1  0  0  0
 21 46  1  0  0  0
 22 23  2  0  0  0
 22 47  1  0  0  0
 23 24  1  0  0  0
 23 48  1  0  0  0
 24 25  2  0  0  0
 24 26  1  0  0  0
 25 49  1  0  0  0
 26 27  1  0  0  0
 26 28  2  0  0  0
 27 29  1  0  0  0
 27 50  1  0  0  0
 29 30  1  0  0  0
 29 34  1  0  0  0
 29 51  1  0  0  0
 30 31  1  0  0  0
 30 52  1  0  0  0
 30 53  1  0  0  0
 31 32  1  0  0  0
 31 54  1  0  0  0
 31 55  1  0  0  0
 32 33  1  0  0  0
 32 35  1  0  0  0
 32 56  1  0  0  0
 33 34  1  0  0  0
 33 57  1  0  0  0
 33 58  1  0  0  0
 34 59  1  0  0  0
 34 60  1  0  0  0
 35 61  1  0  0  0
M  CHG  1  15   1
M  END
> <s_m_source_file>
../2e9n_ligand.sdf

> <i_m_source_file_index>
1

> <s_epik_input>
W2NIXTFbY0hdYyhbT0hdKVtjSF1bY0hdYzEtYyhbY0hdW2NIXTIpW2NIXVtjSF1jMi1jKG5bbkhdMyljKGMzNClbQ0gyXWM1YzRbY0hdW2NIXWMoW2NIXTUpQyg9TylbTkhdW0NASF02W0NIMl1bQ0gyXVtDQEhdKFtPSF0pW0NIMl1bQ0gyXTY=

> <s_epik_cmdline>
J2VwaWtfYXBwJywgJy1pbWFlJywgJ2xpZ2FuZF9wcm8ubWFlJywgJy1vbWFlJywgJ2xpZ2FuZF9wcmVwLm1hZScsICctbXMnLCAnMScsICctcGgnLCAnNycsICctcGh0JywgJzAuNScsICctbnQn

> <r_epik_Ionization_Penalty>
  0.0010

> <r_epik_Ionization_Penalty_Charging>
  0.0000

> <r_epik_Ionization_Penalty_Neutral>
  0.0010

> <r_epik_State_Penalty>
  0.4107

> <r_epik_Charging_Adjusted_Penalty>
0.410679838952602

> <i_epik_Tot_Q>
1

> <i_epik_Tot_abs_Q>
1

$$$$
