2e9o_ligand
                    3D
 Schrodinger Suite 2020-3.
 57 61  0  0  1  0            999 V2000
    3.0080    2.9230  -22.7750 C   0  0  0  0  0  0
    3.1670    5.9420  -20.4040 C   0  0  1  0  0  0
    3.0850    4.4450  -19.9610 C   0  0  0  0  0  0
    4.1400    3.5350  -20.6800 C   0  0  0  0  0  0
    4.1630    3.6650  -22.2410 C   0  0  2  0  0  0
    4.1830    5.2180  -22.6670 C   0  0  0  0  0  0
    3.0790    6.0660  -21.9610 C   0  0  0  0  0  0
    2.0320    6.7120  -19.7640 N   0  3  0  0  0  0
    2.2110    8.1770  -19.6710 C   0  0  0  0  0  0
    0.9070    8.9250  -19.8020 C   0  0  0  0  0  0
   -0.2510    8.4520  -19.0310 C   0  0  0  0  0  0
   -1.5190    9.1080  -19.1170 C   0  0  0  0  0  0
   -1.6660   10.2810  -19.9980 C   0  0  0  0  0  0
   -0.5430   10.7690  -20.7650 C   0  0  0  0  0  0
    0.7520   10.0950  -20.6750 C   0  0  0  0  0  0
   -2.7960    8.8560  -18.4800 C   0  0  0  0  0  0
   -3.7050    9.8410  -18.9530 C   0  0  0  0  0  0
   -2.9930   10.6720  -19.8550 C   0  0  0  0  0  0
   -5.0410   10.3910  -18.9290 C   0  0  0  0  0  0
   -5.0860   11.4740  -19.7740 N   0  3  0  0  0  0
   -3.8370   11.6120  -20.3130 N   0  0  0  0  0  0
   -6.2170    9.8790  -18.1000 C   0  0  0  0  0  0
   -7.4020   10.7280  -17.9740 C   0  0  0  0  0  0
   -8.5540   10.3070  -17.1840 C   0  0  0  0  0  0
   -8.5440    9.0030  -16.4920 C   0  0  0  0  0  0
   -7.3590    8.1460  -16.6170 C   0  0  0  0  0  0
   -6.2230    8.5820  -17.4050 C   0  0  0  0  0  0
   -9.6960    8.5740  -15.6940 C   0  0  0  0  0  0
  -10.7960    9.3360  -15.7400 O   0  5  0  0  0  0
   -9.6480    7.5760  -15.0240 O   0  0  0  0  0  0
    3.0609    1.8751  -22.4448 H   0  0  0  0  0  0
    3.0234    2.9623  -23.8742 H   0  0  0  0  0  0
    2.0772    3.3776  -22.4048 H   0  0  0  0  0  0
    4.1153    6.3802  -20.0595 H   0  0  0  0  0  0
    3.2641    4.3728  -18.8781 H   0  0  0  0  0  0
    2.0863    4.0476  -20.1948 H   0  0  0  0  0  0
    5.1488    3.7925  -20.3251 H   0  0  0  0  0  0
    3.9296    2.4796  -20.4525 H   0  0  0  0  0  0
    5.0285    3.1560  -22.6902 H   0  0  0  0  0  0
    5.1567    5.6576  -22.4049 H   0  0  0  0  0  0
    4.0226    5.3027  -23.7519 H   0  0  0  0  0  0
    2.0958    5.7098  -22.3022 H   0  0  0  0  0  0
    3.2093    7.1185  -22.2530 H   0  0  0  0  0  0
    1.1098    6.5541  -20.3424 H   0  0  0  0  0  0
    1.8836    6.3574  -18.7334 H   0  0  0  0  0  0
    2.6521    8.4313  -18.6959 H   0  0  0  0  0  0
    2.8797    8.5165  -20.4757 H   0  0  0  0  0  0
   -0.1415    7.5841  -18.3807 H   0  0  0  0  0  0
   -0.6608   11.6393  -21.4106 H   0  0  0  0  0  0
    1.5997   10.4605  -21.2546 H   0  0  0  0  0  0
   -3.1459    7.8477  -18.7463 H   0  0  0  0  0  0
   -2.6818    8.9281  -17.3883 H   0  0  0  0  0  0
   -7.4245   11.6932  -18.4799 H   0  0  0  0  0  0
   -9.4250   10.9575  -17.1044 H   0  0  0  0  0  0
   -7.3330    7.1785  -16.1157 H   0  0  0  0  0  0
   -5.3512    7.9326  -17.4847 H   0  0  0  0  0  0
   -6.0234   12.0360  -19.8983 H   0  0  0  0  0  0
  1  5  1  0  0  0
  1 31  1  0  0  0
  1 32  1  0  0  0
  1 33  1  0  0  0
  2  3  1  0  0  0
  2  7  1  0  0  0
  2  8  1  0  0  0
  2 34  1  0  0  0
  3  4  1  0  0  0
  3 35  1  0  0  0
  3 36  1  0  0  0
  4  5  1  0  0  0
  4 37  1  0  0  0
  4 38  1  0  0  0
  5  6  1  0  0  0
  5 39  1  0  0  0
  6  7  1  0  0  0
  6 40  1  0  0  0
  6 41  1  0  0  0
  7 42  1  0  0  0
  7 43  1  0  0  0
  8  9  1  0  0  0
  8 44  1  0  0  0
  8 45  1  0  0  0
  9 10  1  0  0  0
  9 46  1  0  0  0
  9 47  1  0  0  0
 10 11  2  0  0  0
 10 15  1  0  0  0
 11 12  1  0  0  0
 11 48  1  0  0  0
 12 13  2  0  0  0
 12 16  1  0  0  0
 13 14  1  0  0  0
 13 18  1  0  0  0
 14 15  2  0  0  0
 14 49  1  0  0  0
 15 50  1  0  0  0
 16 17  1  0  0  0
 16 51  1  0  0  0
 16 52  1  0  0  0
 17 18  2  0  0  0
 17 19  1  0  0  0
 18 21  1  0  0  0
 19 20  2  0  0  0
 19 22  1  0  0  0
 20 21  1  0  0  0
 20 57  1  0  0  0
 22 23  2  0  0  0
 22 27  1  0  0  0
 23 24  1  0  0  0
 23 53  1  0  0  0
 24 25  2  0  0  0
 24 54  1  0  0  0
 25 26  1  0  0  0
 25 28  1  0  0  0
 26 27  2  0  0  0
 26 55  1  0  0  0
 27 56  1  0  0  0
 28 29  1  0  0  0
 28 30  2  0  0  0
M  CHG  3   8   1  20   1  29  -1
M  END
> <s_m_source_file>
../2e9o_ligand.sdf

> <i_m_source_file_index>
1

> <s_epik_input>
W0NIMl0xW0NIMl1bQ0BIXShbQ0gzXSlbQ0gyXVtDSDJdW0NAQEhdMVtOSDIrXVtDSDJdYyhbY0hdMilbY0hdW2NIXWMoYzIzKWM0YyhbQ0gyXTMpYyhuW25IXTQpLWM1W2NIXVtjSF1jKFtjSF1bY0hdNSlDKD1PKVtPSF0=

> <s_epik_cmdline>
J2VwaWtfYXBwJywgJy1pbWFlJywgJ2xpZ2FuZF9wcm8ubWFlJywgJy1vbWFlJywgJ2xpZ2FuZF9wcmVwLm1hZScsICctbXMnLCAnMScsICctcGgnLCAnNycsICctcGh0JywgJzAuNScsICctbnQn

> <r_epik_Ionization_Penalty>
  0.0100

> <r_epik_Ionization_Penalty_Charging>
  0.0100

> <r_epik_Ionization_Penalty_Neutral>
  0.0000

> <r_epik_State_Penalty>
  0.1631

> <r_epik_Charging_Adjusted_Penalty>
0.173076880288159

> <i_epik_Tot_Q>
1

> <i_epik_Tot_abs_Q>
3

$$$$
