2e9u_ligand
                    3D
 Schrodinger Suite 2020-3.
 41 43  0  0  1  0            999 V2000
   -0.7220    8.0620  -18.4090 C   0  0  0  0  0  0
   -2.0890    8.4990  -18.2990 C   0  0  0  0  0  0
   -2.5220    9.6350  -19.0550 C   0  0  0  0  0  0
   -1.5840   10.3100  -19.9000 C   0  0  0  0  0  0
   -0.2530    9.8530  -19.9820 C   0  0  0  0  0  0
    0.1910    8.7380  -19.2490 C   0  0  0  0  0  0
    0.8580   10.6870  -21.0100 Cl  0  0  0  0  0  0
   -3.0670    7.8880  -17.4890 O   0  0  0  0  0  0
   -2.6230    7.1160  -16.3810 C   0  0  0  0  0  0
   -3.8570   10.0630  -18.9460 N   0  0  0  0  0  0
   -4.4910   11.0210  -19.7270 C   0  0  0  0  0  0
   -5.7980   11.2770  -19.4340 N   0  0  0  0  0  0
   -3.9380   11.6280  -20.6380 O   0  0  0  0  0  0
   -6.6400   10.7530  -18.4770 C   0  0  0  0  0  0
   -6.3130    9.5120  -17.9960 N   0  0  0  0  0  0
   -7.1220    8.9440  -17.0440 C   0  0  0  0  0  0
   -8.2790    9.6390  -16.5680 C   0  0  0  0  0  0
   -8.6090   10.8730  -17.0400 N   0  0  0  0  0  0
   -7.7980   11.4260  -17.9880 C   0  0  0  0  0  0
   -6.7120    7.6720  -16.6140 O   0  0  0  0  0  0
   -6.7320    7.3930  -15.2070 C   0  0  0  0  0  0
   -5.4230    7.8650  -14.5490 C   0  0  0  0  0  0
   -3.7500    6.2040  -15.9100 C   0  0  0  0  0  0
   -4.3770    6.7850  -14.6370 C   0  0  0  0  0  0
   -0.3865    7.1974  -17.8362 H   0  0  0  0  0  0
   -1.8990   11.1774  -20.4800 H   0  0  0  0  0  0
    1.2244    8.4003  -19.3278 H   0  0  0  0  0  0
   -1.7595    6.5048  -16.6825 H   0  0  0  0  0  0
   -2.3286    7.7873  -15.5608 H   0  0  0  0  0  0
   -4.5135    9.6267  -18.1788 H   0  0  0  0  0  0
   -6.3568   12.0228  -20.0184 H   0  0  0  0  0  0
   -8.9092    9.1708  -15.8119 H   0  0  0  0  0  0
   -8.0428   12.4119  -18.3833 H   0  0  0  0  0  0
   -7.5779    7.9194  -14.7408 H   0  0  0  0  0  0
   -6.8424    6.3100  -15.0495 H   0  0  0  0  0  0
   -5.0562    8.7641  -15.0659 H   0  0  0  0  0  0
   -5.6087    8.1006  -13.4907 H   0  0  0  0  0  0
   -4.5157    6.1312  -16.6964 H   0  0  0  0  0  0
   -3.3469    5.2029  -15.6970 H   0  0  0  0  0  0
   -3.4693    7.1097  -14.1072 H   0  0  0  0  0  0
   -4.7614    5.8637  -14.1750 H   0  0  0  0  0  0
  1  2  2  0  0  0
  1  6  1  0  0  0
  1 25  1  0  0  0
  2  3  1  0  0  0
  2  8  1  0  0  0
  3  4  2  0  0  0
  3 10  1  0  0  0
  4  5  1  0  0  0
  4 26  1  0  0  0
  5  6  2  0  0  0
  5  7  1  0  0  0
  6 27  1  0  0  0
  8  9  1  0  0  0
  9 23  1  0  0  0
  9 28  1  0  0  0
  9 29  1  0  0  0
 10 11  1  0  0  0
 10 30  1  0  0  0
 11 12  1  0  0  0
 11 13  2  0  0  0
 12 14  1  0  0  0
 12 31  1  0  0  0
 14 15  2  0  0  0
 14 19  1  0  0  0
 15 16  1  0  0  0
 16 17  2  0  0  0
 16 20  1  0  0  0
 17 18  1  0  0  0
 17 32  1  0  0  0
 18 19  2  0  0  0
 19 33  1  0  0  0
 20 21  1  0  0  0
 21 22  1  0  0  0
 21 34  1  0  0  0
 21 35  1  0  0  0
 22 24  1  0  0  0
 22 36  1  0  0  0
 22 37  1  0  0  0
 23 24  1  0  0  0
 23 38  1  0  0  0
 23 39  1  0  0  0
 24 40  1  0  0  0
 24 41  1  0  0  0
M  END
> <s_m_source_file>
../2e9u_ligand.sdf

> <i_m_source_file_index>
1

> <s_epik_input>
W2NIXTFbY0hdYyhDbClbY0hdYyhjMTIpW05IXUMoPU8pW05IXWMzbmMoW2NIXW5bY0hdMylPW0NIMl1bQ0gyXVtDSDJdW0NIMl1bQ0gyXU8y

> <s_epik_cmdline>
J2VwaWtfYXBwJywgJy1pbWFlJywgJ2xpZ2FuZF9wcm8ubWFlJywgJy1vbWFlJywgJ2xpZ2FuZF9wcmVwLm1hZScsICctbXMnLCAnMScsICctcGgnLCAnNycsICctcGh0JywgJzAuNScsICctbnQn

> <r_lp_tautomer_probability>
1

> <r_epik_Ionization_Penalty>
  0.0000

> <r_epik_Ionization_Penalty_Charging>
  0.0000

> <r_epik_Ionization_Penalty_Neutral>
  0.0000

> <r_epik_State_Penalty>
 -0.0000

> <r_epik_Charging_Adjusted_Penalty>
0

> <i_epik_Tot_Q>
0

> <i_epik_Tot_abs_Q>
0

$$$$
