2ea2_ligand
                    3D
 Schrodinger Suite 2020-3.
 38 39  0  0  1  0            999 V2000
   19.9380   34.1400   16.4480 C   0  0  0  0  0  0
   19.0920   33.5110   15.3240 C   0  0  0  0  0  0
   18.1750   32.4030   15.8190 C   0  0  0  0  0  0
   16.7760   32.6880   16.0440 C   0  0  0  0  0  0
   15.8790   31.6690   16.5100 C   0  0  0  0  0  0
   16.3490   30.3280   16.7710 C   0  0  0  0  0  0
   17.7540   30.0170   16.5550 C   0  0  0  0  0  0
   18.6610   31.0510   16.0750 C   0  0  0  0  0  0
   20.1560   30.7190   15.8360 C   0  0  0  0  0  0
   18.2950   28.6650   16.8110 C   0  0  0  0  0  0
   17.8230   27.6520   16.0710 O   0  5  0  0  0  0
   19.0990   28.4970   17.6750 O   0  0  0  0  0  0
   15.4730   29.3430   17.2220 N   0  0  0  0  0  0
   14.8530   29.1810   18.7260 S   0  0  0  0  0  0
   13.9540   28.0640   18.6920 O   0  0  0  0  0  0
   14.2850   30.4760   19.0650 O   0  0  0  0  0  0
   16.1930   28.8130   19.8010 C   0  0  0  0  0  0
   16.6840   27.4840   19.8840 C   0  0  0  0  0  0
   17.7690   27.1900   20.7450 C   0  0  0  0  0  0
   18.3340   28.2370   21.5030 C   0  0  0  0  0  0
   17.8560   29.5530   21.4310 C   0  0  0  0  0  0
   16.7760   29.8410   20.5710 C   0  0  0  0  0  0
   19.3510   27.9740   22.3150 F   0  0  0  0  0  0
   20.5768   34.9306   16.0274 H   0  0  0  0  0  0
   20.5686   33.3657   16.9093 H   0  0  0  0  0  0
   19.2725   34.5726   17.2095 H   0  0  0  0  0  0
   18.4614   34.2853   14.8627 H   0  0  0  0  0  0
   19.7575   33.0784   14.5624 H   0  0  0  0  0  0
   16.3962   33.6924   15.8569 H   0  0  0  0  0  0
   14.8281   31.9104   16.6693 H   0  0  0  0  0  0
   20.6784   31.6181   15.4772 H   0  0  0  0  0  0
   20.2386   29.9217   15.0827 H   0  0  0  0  0  0
   20.6119   30.3816   16.7785 H   0  0  0  0  0  0
   15.2038   28.6225   16.4356 H   0  0  0  0  0  0
   16.2281   26.6935   19.2879 H   0  0  0  0  0  0
   18.1597   26.1753   20.8206 H   0  0  0  0  0  0
   18.3119   30.3411   22.0303 H   0  0  0  0  0  0
   16.3916   30.8586   20.5013 H   0  0  0  0  0  0
  1  2  1  0  0  0
  1 24  1  0  0  0
  1 25  1  0  0  0
  1 26  1  0  0  0
  2  3  1  0  0  0
  2 27  1  0  0  0
  2 28  1  0  0  0
  3  4  2  0  0  0
  3  8  1  0  0  0
  4  5  1  0  0  0
  4 29  1  0  0  0
  5  6  2  0  0  0
  5 30  1  0  0  0
  6  7  1  0  0  0
  6 13  1  0  0  0
  7  8  2  0  0  0
  7 10  1  0  0  0
  8  9  1  0  0  0
  9 31  1  0  0  0
  9 32  1  0  0  0
  9 33  1  0  0  0
 10 11  1  0  0  0
 10 12  2  0  0  0
 13 14  1  0  0  0
 13 34  1  0  0  0
 14 15  2  0  0  0
 14 16  2  0  0  0
 14 17  1  0  0  0
 17 18  2  0  0  0
 17 22  1  0  0  0
 18 19  1  0  0  0
 18 35  1  0  0  0
 19 20  2  0  0  0
 19 36  1  0  0  0
 20 21  1  0  0  0
 20 23  1  0  0  0
 21 22  2  0  0  0
 21 37  1  0  0  0
 22 38  1  0  0  0
M  CHG  1  11  -1
M  END
> <s_m_source_file>
../2ea2_ligand.sdf

> <i_m_source_file_index>
1

> <s_epik_input>
W0NIM11bQ0gyXWMxW2NIXVtjSF1jKGMoYzFbQ0gzXSlDKD1PKVtPSF0pW05IXVMoPU8pKD1PKWMyW2NIXVtjSF1jKEYpW2NIXVtjSF0y

> <s_epik_cmdline>
J2VwaWtfYXBwJywgJy1pbWFlJywgJ2xpZ2FuZF9wcm8ubWFlJywgJy1vbWFlJywgJ2xpZ2FuZF9wcmVwLm1hZScsICctbXMnLCAnMScsICctcGgnLCAnNycsICctcGh0JywgJzAuNScsICctbnQn

> <r_lp_tautomer_probability>
1

> <r_epik_Ionization_Penalty>
  0.0076

> <r_epik_Ionization_Penalty_Charging>
  0.0000

> <r_epik_Ionization_Penalty_Neutral>
  0.0076

> <r_epik_State_Penalty>
 -0.0000

> <r_epik_Charging_Adjusted_Penalty>
3.10479511807517e-05

> <i_epik_Tot_Q>
-1

> <i_epik_Tot_abs_Q>
1

$$$$
