2eep_ligand
                    3D
 Schrodinger Suite 2020-3.
 51 51  0  0  1  0            999 V2000
   -7.2690   43.5860   67.0440 O   0  0  0  0  0  0
   -7.4960   43.4970   65.8620 C   0  0  0  0  0  0
   -7.0760   44.6040   64.9320 C   0  0  0  0  0  0
   -5.5370   44.5690   64.9420 C   0  0  0  0  0  0
   -4.8600   45.6980   64.1670 C   0  0  0  0  0  0
   -5.1740   45.6940   62.7070 C   0  0  0  0  0  0
   -4.9800   43.2060   64.5100 C   0  0  0  0  0  0
   -7.4780   45.8550   65.5150 N   0  0  0  0  0  0
   -8.6960   46.3900   65.3370 C   0  0  0  0  0  0
   -9.6350   45.7640   64.8660 O   0  0  0  0  0  0
   -8.8930   47.8280   65.7670 C   0  0  0  0  0  0
   -9.3030   47.7630   67.2480 C   0  0  0  0  0  0
   -9.9680   48.4590   64.9700 N   0  3  0  0  0  0
   -8.1170   42.4260   65.4310 N   0  0  0  0  0  0
   -8.4860   42.0360   64.0710 C   0  0  0  0  0  0
   -9.2600   40.7240   64.2730 C   0  0  0  0  0  0
   -9.5930   40.6500   65.7550 C   0  0  0  0  0  0
   -8.5390   41.4710   66.4720 C   0  0  0  0  0  0
   -7.2270   40.6280   66.9520 B   0  0  0  0  0  0
   -6.2740   41.1110   68.0600 O   0  0  0  0  0  0
   -6.5120   39.7740   65.9190 O   0  0  0  0  0  0
   -7.5436   44.5329   63.9389 H   0  0  0  0  0  0
   -5.2729   44.7413   65.9958 H   0  0  0  0  0  0
   -5.1876   46.6675   64.5704 H   0  0  0  0  0  0
   -3.7683   45.6089   64.2681 H   0  0  0  0  0  0
   -4.6540   46.5309   62.2178 H   0  0  0  0  0  0
   -6.2593   45.8034   62.5651 H   0  0  0  0  0  0
   -4.8400   44.7448   62.2627 H   0  0  0  0  0  0
   -5.4800   42.4085   65.0792 H   0  0  0  0  0  0
   -3.8981   43.1733   64.7059 H   0  0  0  0  0  0
   -5.1626   43.0592   63.4352 H   0  0  0  0  0  0
   -6.7732   46.4216   66.1413 H   0  0  0  0  0  0
   -7.9940   48.4366   65.5897 H   0  0  0  0  0  0
   -8.4976   47.2926   67.8311 H   0  0  0  0  0  0
  -10.2232   47.1687   67.3479 H   0  0  0  0  0  0
   -9.4814   48.7812   67.6241 H   0  0  0  0  0  0
   -9.6649   48.5005   63.9134 H   0  0  0  0  0  0
  -10.1483   49.4791   65.3401 H   0  0  0  0  0  0
  -10.8900   47.8665   65.0640 H   0  0  0  0  0  0
   -9.1070   42.8237   63.6195 H   0  0  0  0  0  0
   -7.5755   41.8971   63.4696 H   0  0  0  0  0  0
  -10.1750   40.7404   63.6627 H   0  0  0  0  0  0
   -8.6302   39.8758   63.9667 H   0  0  0  0  0  0
  -10.5980   41.0632   65.9260 H   0  0  0  0  0  0
   -9.5669   39.6009   66.0848 H   0  0  0  0  0  0
   -8.9651   41.9930   67.3414 H   0  0  0  0  0  0
   -7.6983   40.8411   66.7982 H   0  0  0  0  0  0
   -5.8992   40.3592   68.5038 H   0  0  0  0  0  0
   -5.8992   40.3592   68.5038 H   0  0  0  0  0  0
   -5.8190   40.2824   65.5143 H   0  0  0  0  0  0
   -5.8191   40.2824   65.5143 H   0  0  0  0  0  0
  1  2  2  0  0  0
  2  3  1  0  0  0
  2 14  1  0  0  0
  3  4  1  0  0  0
  3  8  1  0  0  0
  3 22  1  0  0  0
  4  5  1  0  0  0
  4  7  1  0  0  0
  4 23  1  0  0  0
  5  6  1  0  0  0
  5 24  1  0  0  0
  5 25  1  0  0  0
  6 26  1  0  0  0
  6 27  1  0  0  0
  6 28  1  0  0  0
  7 29  1  0  0  0
  7 30  1  0  0  0
  7 31  1  0  0  0
  8  9  1  0  0  0
  8 32  1  0  0  0
  9 10  2  0  0  0
  9 11  1  0  0  0
 11 12  1  0  0  0
 11 13  1  0  0  0
 11 33  1  0  0  0
 12 34  1  0  0  0
 12 35  1  0  0  0
 12 36  1  0  0  0
 13 37  1  0  0  0
 13 38  1  0  0  0
 13 39  1  0  0  0
 14 15  1  0  0  0
 14 18  1  0  0  0
 15 16  1  0  0  0
 15 40  1  0  0  0
 15 41  1  0  0  0
 16 17  1  0  0  0
 16 42  1  0  0  0
 16 43  1  0  0  0
 17 18  1  0  0  0
 17 44  1  0  0  0
 17 45  1  0  0  0
 18 19  1  0  0  0
 18 46  1  0  0  0
 18 47  1  0  0  0
 19 20  1  0  0  0
 19 21  1  0  0  0
 20 48  1  0  0  0
 20 49  1  0  0  0
 21 50  1  0  0  0
 21 51  1  0  0  0
M  CHG  1  13   1
M  END
> <MOLECULAR_FORMULA>
C13H30N3O4B

> <MOLECULAR_WEIGHT>
303

> <NUM_HB_ATOMS>
6

> <NUM_ROTOR>
6

> <XLOGP2>
-0.59

> <s_m_source_file>
../2eep_ligand.sdf

> <i_m_source_file_index>
1

> <s_epik_input>
W0NIM11bQ0hdKFtOSDMrXSlDKD1PKVtOSF1bQ0hdKFtDSF0oW0NIM10pW0NIMl1bQ0gzXSlDKD1PKU4xW0NIMl1bQ0gyXVtDSDJdW0NIMl0xQihbT0gyXSlbT0gyXQ==

> <s_epik_cmdline>
J2VwaWtfYXBwJywgJy1pbWFlJywgJ2xpZ2FuZF9wcm8ubWFlJywgJy1vbWFlJywgJ2xpZ2FuZF9wcmVwLm1hZScsICctbXMnLCAnMScsICctcGgnLCAnNycsICctcGh0JywgJzAuNScsICctbnQn

> <r_epik_Ionization_Penalty>
  0.1177

> <r_epik_Ionization_Penalty_Charging>
  0.1177

> <r_epik_Ionization_Penalty_Neutral>
  0.0000

> <r_epik_State_Penalty>
  0.1073

> <r_epik_Charging_Adjusted_Penalty>
0.224980407846012

> <i_epik_Tot_Q>
1

> <i_epik_Tot_abs_Q>
1

$$$$
