2eg7_ligand
                    3D
 Schrodinger Suite 2020-3.
 17 17  0  0  1  0            999 V2000
   26.3330   38.8610   73.3320 N   0  0  0  0  0  0
   24.7630   40.3600   72.2640 N   0  0  0  0  0  0
   25.5910   41.4710   72.5010 C   0  0  0  0  0  0
   26.7890   41.3490   73.1630 C   0  0  0  0  0  0
   27.1900   39.9630   73.7130 C   0  0  2  0  0  0
   28.9890   38.6480   72.8760 O   0  5  0  0  0  0
   28.6510   39.6490   73.5420 C   0  0  0  0  0  0
   29.3680   40.4210   74.1490 O   0  0  0  0  0  0
   25.1280   42.8190   72.0260 C   0  0  0  0  0  0
   25.8460   43.8340   72.2450 O   0  5  0  0  0  0
   24.0210   42.7850   71.4300 O   0  0  0  0  0  0
   25.1320   39.0690   72.6790 C   0  0  0  0  0  0
   24.4370   38.0750   72.4690 O   0  0  0  0  0  0
   26.6316   37.8274   73.5611 H   0  0  0  0  0  0
   23.8029   40.4907   71.7434 H   0  0  0  0  0  0
   27.4385   42.2275   73.2913 H   0  0  0  0  0  0
   26.9908   39.9924   74.7944 H   0  0  0  0  0  0
  1  5  1  0  0  0
  1 12  1  0  0  0
  1 14  1  0  0  0
  2  3  1  0  0  0
  2 12  1  0  0  0
  2 15  1  0  0  0
  3  4  2  0  0  0
  3  9  1  0  0  0
  4  5  1  0  0  0
  4 16  1  0  0  0
  5  7  1  0  0  0
  5 17  1  0  0  0
  6  7  1  0  0  0
  7  8  2  0  0  0
  9 10  1  0  0  0
  9 11  2  0  0  0
 12 13  2  0  0  0
M  CHG  2   6  -1  10  -1
M  END
> <s_m_source_file>
../2eg7_ligand.sdf

> <i_m_source_file_index>
1

> <s_epik_input>
W05IXTFDKD1PKVtOSF1bQ0BASF0oQyg9TylbT0hdKVtDSF09QzFDKD1PKVtPSF0=

> <s_epik_cmdline>
J2VwaWtfYXBwJywgJy1pbWFlJywgJ2xpZ2FuZF9wcm8ubWFlJywgJy1vbWFlJywgJ2xpZ2FuZF9wcmVwLm1hZScsICctbXMnLCAnMScsICctcGgnLCAnNycsICctcGh0JywgJzAuNScsICctbnQn

> <r_lp_tautomer_probability>
1

> <r_epik_Ionization_Penalty>
  0.0014

> <r_epik_Ionization_Penalty_Charging>
  0.0013

> <r_epik_Ionization_Penalty_Neutral>
  0.0001

> <r_epik_State_Penalty>
 -0.0000

> <r_epik_Charging_Adjusted_Penalty>
0.00130892901324803

> <i_epik_Tot_Q>
-2

> <i_epik_Tot_abs_Q>
2

$$$$
