2eh8_ligand
                    3D
 Schrodinger Suite 2020-3.
148151  0  0  1  0            999 V2000
   29.8400   -1.4950   49.3930 N   0  3  0  0  0  0
   29.5570   -1.1390   47.9740 C   0  0  2  0  0  0
   30.0620   -2.2320   47.0300 C   0  0  0  0  0  0
   30.9930   -2.9710   47.3610 O   0  0  0  0  0  0
   30.2150    0.1940   47.6390 C   0  0  0  0  0  0
   29.4430   -2.3340   45.8550 N   0  0  0  0  0  0
   29.8330   -3.3460   44.8790 C   0  0  2  0  0  0
   31.3360   -3.4110   44.6270 C   0  0  0  0  0  0
   31.9670   -2.4120   44.2750 O   0  0  0  0  0  0
   29.0960   -3.1240   43.5550 C   0  0  0  0  0  0
   29.6870   -3.9340   42.4150 C   0  0  0  0  0  0
   30.1840   -5.0430   42.6130 O   0  0  0  0  0  0
   29.6090   -3.3900   41.2090 N   0  0  0  0  0  0
   31.8930   -4.6060   44.8140 N   0  0  0  0  0  0
   33.3170   -4.8560   44.6130 C   0  0  2  0  0  0
   33.5540   -5.6280   43.3180 C   0  0  0  0  0  0
   34.6890   -5.7270   42.8470 O   0  0  0  0  0  0
   33.8900   -5.6540   45.7880 C   0  0  0  0  0  0
   33.3010   -6.9420   45.8600 O   0  0  0  0  0  0
   32.4880   -6.1940   42.7570 N   0  0  0  0  0  0
   32.6040   -6.9330   41.5080 C   0  0  2  0  0  0
   32.8150   -5.9660   40.3430 C   0  0  0  0  0  0
   33.4840   -6.2970   39.3660 O   0  0  0  0  0  0
   31.3530   -7.7790   41.2600 C   0  0  0  0  0  0
   31.3240   -9.0440   42.1000 C   0  0  0  0  0  0
   32.2920   -9.8060   42.1320 O   0  0  0  0  0  0
   30.2010   -9.2830   42.7710 N   0  0  0  0  0  0
   32.2470   -4.7680   40.4580 N   0  0  0  0  0  0
   32.3770   -3.7550   39.4180 C   0  0  2  0  0  0
   32.4170   -2.3620   40.0550 C   0  0  0  0  0  0
   31.5300   -1.5400   39.8480 O   0  0  0  0  0  0
   31.2040   -3.8690   38.4310 C   0  0  0  0  0  0
   31.1900   -5.1980   37.6940 C   0  0  0  0  0  0
   32.0980   -5.5050   36.9170 O   0  0  0  0  0  0
   30.1640   -5.9990   37.9430 N   0  0  0  0  0  0
   33.4800   -2.0740   40.8160 N   0  0  0  0  0  0
   33.6570   -0.7880   41.4970 C   0  0  2  0  0  0
   33.2410    0.4730   40.7250 C   0  0  0  0  0  0
   32.5480    1.3350   41.2760 O   0  0  0  0  0  0
   35.1470   -0.7920   41.8600 C   0  0  0  0  0  0
   35.7580   -1.6910   40.8310 C   0  0  0  0  0  0
   34.7520   -2.8140   40.7810 C   0  0  0  0  0  0
   33.6490    0.5810   39.4590 N   0  0  0  0  0  0
   33.3230    1.7660   38.6570 C   0  0  2  0  0  0
   31.8290    2.0040   38.4260 C   0  0  0  0  0  0
   31.4460    2.9110   37.6890 O   0  0  0  0  0  0
   34.0780    1.7380   37.3160 C   0  0  0  0  0  0
   33.6360    0.6130   36.4050 C   0  0  0  0  0  0
   33.4080   -0.5200   36.8890 O   0  5  0  0  0  0
   33.5380    0.8650   35.1880 O   0  0  0  0  0  0
   30.9930    1.2000   39.0760 N   0  0  0  0  0  0
   29.5450    1.3430   38.9720 C   0  0  2  0  0  0
   28.9980    2.1720   40.1350 C   0  0  0  0  0  0
   27.7850    2.2620   40.3270 O   0  0  0  0  0  0
   28.8730   -0.0350   38.9550 C   0  0  0  0  0  0
   28.8710   -0.6830   37.6000 C   0  0  0  0  0  0
   29.9360   -0.8280   36.7610 C   0  0  0  0  0  0
   27.7500   -1.2760   36.9310 C   0  0  0  0  0  0
   29.5510   -1.4730   35.6090 N   0  3  0  0  0  0
   28.2140   -1.7620   35.6870 C   0  0  0  0  0  0
   26.3990   -1.4460   37.2620 C   0  0  0  0  0  0
   27.3770   -2.4060   34.7720 C   0  0  0  0  0  0
   25.5640   -2.0880   36.3520 C   0  0  0  0  0  0
   26.0600   -2.5600   35.1200 C   0  0  0  0  0  0
   29.9070    2.7650   40.9100 N   0  0  0  0  0  0
   29.5510    3.6040   42.0560 C   0  0  2  0  0  0
   30.0570    5.0210   41.7910 C   0  0  0  0  0  0
   31.2640    5.2310   41.6500 O   0  0  0  0  0  0
   30.1810    3.0400   43.3340 C   0  0  0  0  0  0
   29.4230    1.8370   43.8810 C   0  0  0  0  0  0
   30.0660    0.9370   44.4690 O   0  0  0  0  0  0
   28.1790    1.7970   43.7320 O   0  5  0  0  0  0
   29.1420    5.9910   41.7270 N   0  0  0  0  0  0
   29.5200    7.3780   41.4380 C   0  0  2  0  0  0
   28.5600    8.4490   41.9650 C   0  0  0  0  0  0
   29.0550    9.5260   42.3760 O   0  5  0  0  0  0
   29.6970    7.5400   39.9250 C   0  0  0  0  0  0
   28.6410    6.8330   39.1130 C   0  0  0  0  0  0
   27.3680    7.3770   38.9710 C   0  0  0  0  0  0
   28.9100    5.5960   38.5290 C   0  0  0  0  0  0
   26.3830    6.7020   38.2650 C   0  0  0  0  0  0
   27.9310    4.9120   37.8220 C   0  0  0  0  0  0
   26.6660    5.4630   37.6890 C   0  0  0  0  0  0
   27.3330    8.1890   41.9560 O   0  0  0  0  0  0
   29.3638   -2.4574   49.6315 H   0  0  0  0  0  0
   29.4382   -0.7132   50.0543 H   0  0  0  0  0  0
   30.9269   -1.5772   49.5406 H   0  0  0  0  0  0
   28.4656   -1.0514   47.8683 H   0  0  0  0  0  0
   29.8428    0.9692   48.3249 H   0  0  0  0  0  0
   29.9714    0.4731   46.6033 H   0  0  0  0  0  0
   31.3058    0.1018   47.7470 H   0  0  0  0  0  0
   28.6235   -1.6367   45.6267 H   0  0  0  0  0  0
   29.5304   -4.2869   45.3619 H   0  0  0  0  0  0
   28.0423   -3.4189   43.6680 H   0  0  0  0  0  0
   29.1516   -2.0609   43.2782 H   0  0  0  0  0  0
   29.1558   -2.3957   41.0824 H   0  0  0  0  0  0
   29.9975   -3.9328   40.3346 H   0  0  0  0  0  0
   31.2307   -5.4240   45.1337 H   0  0  0  0  0  0
   33.7802   -3.8602   44.5519 H   0  0  0  0  0  0
   34.9763   -5.7687   45.6583 H   0  0  0  0  0  0
   33.6874   -5.1195   46.7278 H   0  0  0  0  0  0
   33.6052   -7.6424   46.6518 H   0  0  0  0  0  0
   31.5095   -6.0975   43.2501 H   0  0  0  0  0  0
   33.4809   -7.5854   41.6324 H   0  0  0  0  0  0
   30.4573   -7.1902   41.5071 H   0  0  0  0  0  0
   31.3156   -8.0767   40.2017 H   0  0  0  0  0  0
   29.3630   -8.5729   42.7115 H   0  0  0  0  0  0
   30.1101  -10.1908   43.3855 H   0  0  0  0  0  0
   31.6674   -4.5513   41.3675 H   0  0  0  0  0  0
   33.3263   -3.9549   38.8994 H   0  0  0  0  0  0
   30.2542   -3.7753   38.9779 H   0  0  0  0  0  0
   31.2762   -3.0671   37.6815 H   0  0  0  0  0  0
   29.3771   -5.6832   38.6437 H   0  0  0  0  0  0
   30.0993   -6.9797   37.4490 H   0  0  0  0  0  0
   32.9582   -0.7654   42.3462 H   0  0  0  0  0  0
   35.5405    0.2337   41.8050 H   0  0  0  0  0  0
   35.2745   -1.1793   42.8816 H   0  0  0  0  0  0
   35.8525   -1.1478   39.8792 H   0  0  0  0  0  0
   36.7538   -2.0127   41.1699 H   0  0  0  0  0  0
   34.8088   -3.4868   41.6494 H   0  0  0  0  0  0
   34.8069   -3.4052   39.8550 H   0  0  0  0  0  0
   34.2386   -0.2363   39.0181 H   0  0  0  0  0  0
   33.6700    2.5852   39.3039 H   0  0  0  0  0  0
   33.9096    2.6840   36.7806 H   0  0  0  0  0  0
   35.1542    1.6095   37.5037 H   0  0  0  0  0  0
   31.4236    0.4084   39.7069 H   0  0  0  0  0  0
   29.3709    1.8691   38.0218 H   0  0  0  0  0  0
   29.4036   -0.7102   39.6424 H   0  0  0  0  0  0
   27.8251    0.0641   39.2745 H   0  0  0  0  0  0
   30.9249   -0.4476   37.0567 H   0  0  0  0  0  0
   26.0098   -1.0827   38.2131 H   0  0  0  0  0  0
   27.7567   -2.7719   33.8180 H   0  0  0  0  0  0
   24.5109   -2.2278   36.5958 H   0  0  0  0  0  0
   25.3811   -3.0587   34.4283 H   0  0  0  0  0  0
   30.9646    2.6008   40.6560 H   0  0  0  0  0  0
   28.4554    3.5937   42.1537 H   0  0  0  0  0  0
   31.2128    2.7215   43.1244 H   0  0  0  0  0  0
   30.1881    3.8167   44.1129 H   0  0  0  0  0  0
   28.0863    5.7325   41.8962 H   0  0  0  0  0  0
   30.4571    7.5023   42.0006 H   0  0  0  0  0  0
   29.6522    8.6074   39.6628 H   0  0  0  0  0  0
   30.6719    7.1291   39.6238 H   0  0  0  0  0  0
   27.1423    8.3444   39.4196 H   0  0  0  0  0  0
   29.9038    5.1596   38.6291 H   0  0  0  0  0  0
   25.3898    7.1387   38.1604 H   0  0  0  0  0  0
   28.1561    3.9447   37.3728 H   0  0  0  0  0  0
   25.8936    4.9292   37.1353 H   0  0  0  0  0  0
   30.2883   -1.6718   34.8173 H   0  0  0  0  0  0
  1  2  1  0  0  0
  1 85  1  0  0  0
  1 86  1  0  0  0
  1 87  1  0  0  0
  2  3  1  0  0  0
  2  5  1  0  0  0
  2 88  1  0  0  0
  3  4  2  0  0  0
  3  6  1  0  0  0
  5 89  1  0  0  0
  5 90  1  0  0  0
  5 91  1  0  0  0
  6  7  1  0  0  0
  6 92  1  0  0  0
  7  8  1  0  0  0
  7 10  1  0  0  0
  7 93  1  0  0  0
  8  9  2  0  0  0
  8 14  1  0  0  0
 10 11  1  0  0  0
 10 94  1  0  0  0
 10 95  1  0  0  0
 11 12  2  0  0  0
 11 13  1  0  0  0
 13 96  1  0  0  0
 13 97  1  0  0  0
 14 15  1  0  0  0
 14 98  1  0  0  0
 15 16  1  0  0  0
 15 18  1  0  0  0
 15 99  1  0  0  0
 16 17  2  0  0  0
 16 20  1  0  0  0
 18 19  1  0  0  0
 18100  1  0  0  0
 18101  1  0  0  0
 19102  1  0  0  0
 20 21  1  0  0  0
 20103  1  0  0  0
 21 22  1  0  0  0
 21 24  1  0  0  0
 21104  1  0  0  0
 22 23  2  0  0  0
 22 28  1  0  0  0
 24 25  1  0  0  0
 24105  1  0  0  0
 24106  1  0  0  0
 25 26  2  0  0  0
 25 27  1  0  0  0
 27107  1  0  0  0
 27108  1  0  0  0
 28 29  1  0  0  0
 28109  1  0  0  0
 29 30  1  0  0  0
 29 32  1  0  0  0
 29110  1  0  0  0
 30 31  2  0  0  0
 30 36  1  0  0  0
 32 33  1  0  0  0
 32111  1  0  0  0
 32112  1  0  0  0
 33 34  2  0  0  0
 33 35  1  0  0  0
 35113  1  0  0  0
 35114  1  0  0  0
 36 37  1  0  0  0
 36 42  1  0  0  0
 37 38  1  0  0  0
 37 40  1  0  0  0
 37115  1  0  0  0
 38 39  2  0  0  0
 38 43  1  0  0  0
 40 41  1  0  0  0
 40116  1  0  0  0
 40117  1  0  0  0
 41 42  1  0  0  0
 41118  1  0  0  0
 41119  1  0  0  0
 42120  1  0  0  0
 42121  1  0  0  0
 43 44  1  0  0  0
 43122  1  0  0  0
 44 45  1  0  0  0
 44 47  1  0  0  0
 44123  1  0  0  0
 45 46  2  0  0  0
 45 51  1  0  0  0
 47 48  1  0  0  0
 47124  1  0  0  0
 47125  1  0  0  0
 48 49  1  0  0  0
 48 50  2  0  0  0
 51 52  1  0  0  0
 51126  1  0  0  0
 52 53  1  0  0  0
 52 55  1  0  0  0
 52127  1  0  0  0
 53 54  2  0  0  0
 53 65  1  0  0  0
 55 56  1  0  0  0
 55128  1  0  0  0
 55129  1  0  0  0
 56 57  2  0  0  0
 56 58  1  0  0  0
 57 59  1  0  0  0
 57130  1  0  0  0
 58 60  2  0  0  0
 58 61  1  0  0  0
 59 60  1  0  0  0
 59148  1  0  0  0
 60 62  1  0  0  0
 61 63  2  0  0  0
 61131  1  0  0  0
 62 64  2  0  0  0
 62132  1  0  0  0
 63 64  1  0  0  0
 63133  1  0  0  0
 64134  1  0  0  0
 65 66  1  0  0  0
 65135  1  0  0  0
 66 67  1  0  0  0
 66 69  1  0  0  0
 66136  1  0  0  0
 67 68  2  0  0  0
 67 73  1  0  0  0
 69 70  1  0  0  0
 69137  1  0  0  0
 69138  1  0  0  0
 70 71  2  0  0  0
 70 72  1  0  0  0
 73 74  1  0  0  0
 73139  1  0  0  0
 74 75  1  0  0  0
 74 77  1  0  0  0
 74140  1  0  0  0
 75 76  1  0  0  0
 75 84  2  0  0  0
 77 78  1  0  0  0
 77141  1  0  0  0
 77142  1  0  0  0
 78 79  2  0  0  0
 78 80  1  0  0  0
 79 81  1  0  0  0
 79143  1  0  0  0
 80 82  2  0  0  0
 80144  1  0  0  0
 81 83  2  0  0  0
 81145  1  0  0  0
 82 83  1  0  0  0
 82146  1  0  0  0
 83147  1  0  0  0
M  CHG  5   1   1  49  -1  59   1  72  -1  76  -1
M  END
> <s_m_source_file>
../2eh8_ligand.sdf

> <i_m_source_file_index>
1

> <s_epik_input>
W05IMytdW0NAQEhdKFtDSDNdKUMoPU8pW05IXVtDQEBIXShbQ0gyXUMoPU8pW05IMl0pQyg9TylbTkhdW0NAQEhdKFtDSDJdW09IXSlDKD1PKVtOSF1bQ0BASF0oW0NIMl1DKD1PKVtOSDJdKUMoPU8pW05IXVtDQEBIXShbQ0gyXUMoPU8pW05IMl0pQyg9TylOMVtDQEBIXShbQ0gyXVtDSDJdW0NIMl0xKUMoPU8pW05IXVtDQEBIXShbQ0gyXUMoPU8pW09IXSlDKD1PKVtOSF1bQ0BASF0oW0NIMl1jMltjSF1bbkhdYyhjMjMpW2NIXVtjSF1bY0hdW2NIXTMpQyg9TylbTkhdW0NAQEhdKFtDSDJdQyg9TylbT0hdKUMoPU8pW05IXVtDQEhdKEMoPU8pW09IXSlbQ0gyXWM0W2NIXVtjSF1bY0hdW2NIXVtjSF00

> <s_epik_cmdline>
J2VwaWtfYXBwJywgJy1pbWFlJywgJ2xpZ2FuZF9wcm8ubWFlJywgJy1vbWFlJywgJ2xpZ2FuZF9wcmVwLm1hZScsICctbXMnLCAnMScsICctcGgnLCAnNycsICctcGh0JywgJzAuNScsICctbnQn

> <r_epik_Ionization_Penalty>
  0.1337

> <r_epik_Ionization_Penalty_Charging>
  0.1337

> <r_epik_Ionization_Penalty_Neutral>
  0.0000

> <r_epik_State_Penalty>
  0.1202

> <r_epik_Charging_Adjusted_Penalty>
0.253865162284858

> <i_epik_Tot_Q>
-1

> <i_epik_Tot_abs_Q>
5

$$$$
