2ei6_ligand
                    3D
 Schrodinger Suite 2020-3.
 57 61  0  0  1  0            999 V2000
   14.0770    7.7180   26.5680 Cl  0  0  0  0  0  0
   12.3270    7.8370   26.5040 C   0  0  0  0  0  0
   11.6240    7.5030   27.6670 C   0  0  0  0  0  0
   10.2400    7.5420   27.7080 C   0  0  0  0  0  0
    9.5830    7.9160   26.5340 C   0  0  0  0  0  0
    8.2360    8.0270   26.3520 N   0  0  0  0  0  0
   11.7000    8.2250   25.3240 C   0  0  0  0  0  0
   10.2930    8.2640   25.3350 C   0  0  0  0  0  0
    9.3760    8.5820   24.3380 C   0  0  0  0  0  0
    8.1160    8.4280   24.9900 C   0  0  0  0  0  0
    6.7270    8.7670   24.4790 C   0  0  0  0  0  0
    5.7740    8.6560   25.2400 O   0  0  0  0  0  0
    6.5760    9.1670   23.2220 N   0  0  0  0  0  0
    5.2150    9.1900   22.6150 C   0  0  1  0  0  0
    5.3070    9.8700   21.2070 C   0  0  0  0  0  0
    4.2090    9.4060   20.2050 C   0  0  0  0  0  0
    2.9310    8.9470   20.9560 C   0  0  0  0  0  0
    3.1650    7.7310   21.9360 C   0  0  0  0  0  0
    4.6070    7.7120   22.5180 C   0  0  1  0  0  0
    5.3980    6.7500   21.7000 N   0  0  0  0  0  0
    5.4950    5.4190   21.8810 C   0  0  0  0  0  0
    4.9370    4.8300   22.7780 O   0  0  0  0  0  0
    6.3900    4.6510   20.9340 C   0  0  0  0  0  0
    6.5400    2.9290   21.0340 S   0  0  0  0  0  0
    7.6460    3.0170   19.7250 C   0  0  0  0  0  0
    8.3200    1.7890   19.1180 C   0  0  0  0  0  0
    8.9010    2.0930   17.7690 N   0  0  2  0  0  0
    9.7450    1.0050   17.2170 C   0  0  0  0  0  0
    9.5740    3.4330   17.5840 C   0  0  0  0  0  0
    8.8020    4.6480   18.1630 C   0  0  0  0  0  0
    7.8530    4.3070   19.3040 C   0  0  0  0  0  0
    7.1460    5.2510   19.9800 N   0  0  0  0  0  0
   12.1766    7.2062   28.5584 H   0  0  0  0  0  0
    9.6892    7.2923   28.6148 H   0  0  0  0  0  0
   12.2713    8.4864   24.4333 H   0  0  0  0  0  0
    9.5727    8.8775   23.3074 H   0  0  0  0  0  0
    7.4480    9.4803   22.6291 H   0  0  0  0  0  0
    4.5875    9.7996   23.2818 H   0  0  0  0  0  0
    5.2043   10.9595   21.3186 H   0  0  0  0  0  0
    6.2808    9.6383   20.7508 H   0  0  0  0  0  0
    3.9461   10.2397   19.5372 H   0  0  0  0  0  0
    4.5895    8.5641   19.6080 H   0  0  0  0  0  0
    2.5410    9.7801   21.5592 H   0  0  0  0  0  0
    2.1693    8.6345   20.2265 H   0  0  0  0  0  0
    2.4589    7.7966   22.7769 H   0  0  0  0  0  0
    3.0035    6.7873   21.3944 H   0  0  0  0  0  0
    4.6406    7.2944   23.5351 H   0  0  0  0  0  0
    5.9858    7.1103   20.8428 H   0  0  0  0  0  0
    9.1318    1.4519   19.7793 H   0  0  0  0  0  0
    7.5802    0.9828   19.0053 H   0  0  0  0  0  0
    9.2386    0.0392   17.3611 H   0  0  0  0  0  0
   10.7138    0.9924   17.7378 H   0  0  0  0  0  0
    9.9083    1.1767   16.1428 H   0  0  0  0  0  0
   10.5558    3.4218   18.0799 H   0  0  0  0  0  0
    9.7078    3.6310   16.5103 H   0  0  0  0  0  0
    9.5187    5.3860   18.5525 H   0  0  0  0  0  0
    8.1957    5.1092   17.3695 H   0  0  0  0  0  0
  1  2  1  0  0  0
  2  3  2  0  0  0
  2  7  1  0  0  0
  3  4  1  0  0  0
  3 33  1  0  0  0
  4  5  2  0  0  0
  4 34  1  0  0  0
  5  6  1  0  0  0
  5  8  1  0  0  0
  6 10  2  0  0  0
  7  8  2  0  0  0
  7 35  1  0  0  0
  8  9  1  0  0  0
  9 10  1  0  0  0
  9 36  1  0  0  0
 10 11  1  0  0  0
 11 12  2  0  0  0
 11 13  1  0  0  0
 13 14  1  0  0  0
 13 37  1  0  0  0
 14 15  1  0  0  0
 14 19  1  0  0  0
 14 38  1  0  0  0
 15 16  1  0  0  0
 15 39  1  0  0  0
 15 40  1  0  0  0
 16 17  1  0  0  0
 16 41  1  0  0  0
 16 42  1  0  0  0
 17 18  1  0  0  0
 17 43  1  0  0  0
 17 44  1  0  0  0
 18 19  1  0  0  0
 18 45  1  0  0  0
 18 46  1  0  0  0
 19 20  1  0  0  0
 19 47  1  0  0  0
 20 21  1  0  0  0
 20 48  1  0  0  0
 21 22  2  0  0  0
 21 23  1  0  0  0
 23 24  1  0  0  0
 23 32  2  0  0  0
 24 25  1  0  0  0
 25 26  1  0  0  0
 25 31  2  0  0  0
 26 27  1  0  0  0
 26 49  1  0  0  0
 26 50  1  0  0  0
 27 28  1  0  0  0
 27 29  1  0  0  0
 28 51  1  0  0  0
 28 52  1  0  0  0
 28 53  1  0  0  0
 29 30  1  0  0  0
 29 54  1  0  0  0
 29 55  1  0  0  0
 30 31  1  0  0  0
 30 56  1  0  0  0
 30 57  1  0  0  0
 31 32  1  0  0  0
M  END
> <s_m_source_file>
../2ei6_ligand.sdf

> <i_m_source_file_index>
1

> <s_epik_input>
W2NIXTFbY0hdYyhDbClbY0hdYyhjMTIpW0NIMl1DKD1OMilDKD1PKVtOSF1bQ0BIXTNbQ0gyXVtDSDJdW0NIMl1bQ0gyXVtDQEhdM1tOSF1DKD1PKWMoczQpbmMoYzQ1KVtDSDJdW0NIMl1bTkBIK10oW0NIMl01KVtDSDNd

> <s_epik_cmdline>
J2VwaWtfYXBwJywgJy1pbWFlJywgJ2xpZ2FuZF9wcm8ubWFlJywgJy1vbWFlJywgJ2xpZ2FuZF9wcmVwLm1hZScsICctbXMnLCAnMScsICctcGgnLCAnNycsICctcGh0JywgJzAuNScsICctbnQn

> <r_epik_Ionization_Penalty>
  0.2416

> <r_epik_Ionization_Penalty_Charging>
  0.0000

> <r_epik_Ionization_Penalty_Neutral>
  0.2416

> <r_epik_State_Penalty>
  0.2309

> <r_epik_Charging_Adjusted_Penalty>
0.230908979395978

> <i_epik_Tot_Q>
0

> <i_epik_Tot_abs_Q>
0

> <s_epik_Chemistry_Notes>
This compound has an imine and may undergo hydrolysis.

$$$$
