2emt_ligand
                    3D
 Schrodinger Suite 2020-3.
261265  0  0  1  0            999 V2000
   58.5060   12.9850   65.1160 N   0  3  0  0  0  0
   59.7680   12.3890   65.6720 C   0  0  2  0  0  0
   59.4920   11.1850   66.5790 C   0  0  0  0  0  0
   58.6170   10.3630   66.2820 O   0  0  0  0  0  0
   60.5210   13.4240   66.4860 C   0  0  0  0  0  0
   60.8680   14.6880   65.7470 C   0  0  0  0  0  0
   62.2960   15.0320   66.0330 C   0  0  0  0  0  0
   62.6810   16.3160   65.4750 N   0  0  0  0  0  0
   63.9400   16.7130   65.3630 C   0  0  0  0  0  0
   64.9140   15.9110   65.7660 N   0  0  0  0  0  0
   64.2220   17.9110   64.8660 N   0  0  0  0  0  0
   60.2580   11.0850   67.6700 N   0  0  0  0  0  0
   60.1210   10.0190   68.6660 C   0  0  2  0  0  0
   59.6400   10.6580   69.9710 C   0  0  0  0  0  0
   59.5610    9.9950   71.0120 O   0  0  0  0  0  0
   61.4710    9.3040   68.8850 C   0  0  0  0  0  0
   59.3050   11.9500   69.8880 N   0  0  0  0  0  0
   58.8190   12.7250   71.0330 C   0  0  2  0  0  0
   57.5900   13.5560   70.6730 C   0  0  0  0  0  0
   57.0720   13.4690   69.5550 O   0  0  0  0  0  0
   59.9170   13.6480   71.5530 C   0  0  0  0  0  0
   60.9840   12.9000   72.0970 O   0  0  0  0  0  0
   57.1190   14.3500   71.6330 N   0  0  0  0  0  0
   55.9400   15.1930   71.4380 C   0  0  2  0  0  0
   56.2210   16.6680   71.7160 C   0  0  0  0  0  0
   56.9420   17.0120   72.6510 O   0  0  0  0  0  0
   54.7970   14.7060   72.3320 C   0  0  0  0  0  0
   55.6370   17.5310   70.8940 N   0  0  0  0  0  0
   55.8090   18.9680   71.0310 C   0  0  2  0  0  0
   54.4520   19.6510   70.8960 C   0  0  0  0  0  0
   53.4310   18.9870   70.7290 O   0  0  0  0  0  0
   56.7570   19.4850   69.9520 C   0  0  0  0  0  0
   56.2460   19.2710   68.5460 C   0  0  0  0  0  0
   57.0620   20.0400   67.5440 C   0  0  0  0  0  0
   56.4120   19.9950   66.1740 C   0  0  0  0  0  0
   57.1340   20.8050   65.1610 N   0  3  0  0  0  0
   54.4470   20.9790   70.9570 N   0  0  0  0  0  0
   53.2090   21.7420   70.8540 C   0  0  2  0  0  0
   53.0250   22.4300   69.4860 C   0  0  0  0  0  0
   53.9190   23.1210   68.9850 O   0  0  0  0  0  0
   53.1260   22.8060   71.9900 C   0  0  2  0  0  0
   53.5560   22.2200   73.2210 O   0  0  0  0  0  0
   51.6950   23.2940   72.1900 C   0  0  0  0  0  0
   51.8570   22.2010   68.8850 N   0  0  0  0  0  0
   51.4810   22.7840   67.6000 C   0  0  2  0  0  0
   50.3380   23.7220   67.9160 C   0  0  0  0  0  0
   49.4420   23.3830   68.6810 O   0  0  0  0  0  0
   50.9640   21.7250   66.6240 C   0  0  0  0  0  0
   51.9040   20.5830   66.3960 C   0  0  0  0  0  0
   52.1630   20.0790   65.1380 N   0  0  0  0  0  0
   52.6040   19.8130   67.2630 C   0  0  0  0  0  0
   52.9800   19.0470   65.2400 C   0  0  0  0  0  0
   53.2630   18.8640   66.5190 N   0  0  0  0  0  0
   50.3470   24.8960   67.3160 N   0  0  0  0  0  0
   49.2980   25.8520   67.5990 C   0  0  2  0  0  0
   49.0140   26.7070   66.3810 C   0  0  0  0  0  0
   49.9240   27.1090   65.6610 O   0  0  0  0  0  0
   49.7170   26.7170   68.7910 C   0  0  0  0  0  0
   48.8150   27.8920   69.0920 C   0  0  0  0  0  0
   49.3430   29.4510   68.3110 S   0  0  0  0  0  0
   50.5220   30.1090   69.5620 C   0  0  0  0  0  0
   47.7340   26.9610   66.1440 N   0  0  0  0  0  0
   47.3000   27.7700   65.0290 C   0  0  2  0  0  0
   46.3580   28.8240   65.5600 C   0  0  0  0  0  0
   45.3460   28.4930   66.1920 O   0  0  0  0  0  0
   46.5690   26.9140   64.0110 C   0  0  0  0  0  0
   45.7680   27.7300   63.0360 C   0  0  0  0  0  0
   44.3930   27.8810   63.1890 C   0  0  0  0  0  0
   46.3890   28.3890   61.9740 C   0  0  0  0  0  0
   43.6580   28.6680   62.3050 C   0  0  0  0  0  0
   45.6650   29.1760   61.0890 C   0  0  0  0  0  0
   44.3040   29.3100   61.2600 C   0  0  0  0  0  0
   43.5890   30.0790   60.3840 O   0  0  0  0  0  0
   46.6810   30.1110   65.3290 N   0  0  0  0  0  0
   45.8820   31.2670   65.7660 C   0  0  2  0  0  0
   44.7110   31.5340   64.8310 C   0  0  0  0  0  0
   44.9050   31.9110   63.6840 O   0  0  0  0  0  0
   46.8930   32.4010   65.7510 C   0  0  0  0  0  0
   47.7770   32.0210   64.5990 C   0  0  0  0  0  0
   47.9880   30.5470   64.8030 C   0  0  0  0  0  0
   43.4920   31.3400   65.3170 N   0  0  0  0  0  0
   42.3170   31.5580   64.4810 C   0  0  2  0  0  0
   42.0430   33.0430   64.4250 C   0  0  0  0  0  0
   41.1690   33.5100   63.7000 O   0  0  0  0  0  0
   41.0970   30.8200   65.0430 C   0  0  0  0  0  0
   39.9230   30.9840   64.1070 C   0  0  0  0  0  0
   41.4310   29.3370   65.2290 C   0  0  0  0  0  0
   42.8220   33.7660   65.2190 N   0  0  0  0  0  0
   42.7730   35.2190   65.3260 C   0  0  2  0  0  0
   44.2320   35.6470   65.2530 C   0  0  0  0  0  0
   45.0340   35.3070   66.1290 O   0  0  0  0  0  0
   42.1750   35.6550   66.6730 C   0  0  0  0  0  0
   42.0490   37.1780   66.8430 C   0  0  0  0  0  0
   42.9310   37.7450   67.9700 C   0  0  0  0  0  0
   42.4900   37.3550   69.3130 N   0  0  0  0  0  0
   43.0250   37.8090   70.4460 C   0  0  0  0  0  0
   44.0260   38.6750   70.4110 N   0  0  0  0  0  0
   42.5580   37.3980   71.6190 N   0  0  0  0  0  0
   44.5810   36.3710   64.1970 N   0  0  0  0  0  0
   45.9490   36.8280   64.0150 C   0  0  2  0  0  0
   46.3250   37.8910   65.0440 C   0  0  0  0  0  0
   45.4910   38.3370   65.8290 O   0  0  0  0  0  0
   46.1230   37.3930   62.6100 C   0  0  0  0  0  0
   45.2490   38.6040   62.3630 C   0  0  0  0  0  0
   45.2760   39.1870   61.2820 O   0  0  0  0  0  0
   44.4700   38.9920   63.3670 N   0  0  0  0  0  0
   47.5860   38.3030   65.0210 N   0  0  0  0  0  0
   48.0780   39.3080   65.9490 C   0  0  2  0  0  0
   47.9370   40.6980   65.3460 C   0  0  0  0  0  0
   48.7450   41.5820   65.6150 O   0  0  0  0  0  0
   49.5440   39.0210   66.2810 C   0  0  0  0  0  0
   49.7760   37.6100   66.7780 C   0  0  0  0  0  0
   49.7510   36.5250   65.9020 C   0  0  0  0  0  0
   49.9620   37.3540   68.1370 C   0  0  0  0  0  0
   49.9000   35.2220   66.3710 C   0  0  0  0  0  0
   50.1100   36.0600   68.6140 C   0  0  0  0  0  0
   50.0770   35.0000   67.7320 C   0  0  0  0  0  0
   50.2110   33.7230   68.2260 O   0  0  0  0  0  0
   46.9030   40.8870   64.5330 N   0  0  0  0  0  0
   46.6610   42.1680   63.8790 C   0  0  2  0  0  0
   47.9090   42.6820   63.1450 C   0  0  0  0  0  0
   48.3960   43.7810   63.4230 O   0  0  0  0  0  0
   46.1870   43.2040   64.9080 C   0  0  0  0  0  0
   44.8910   42.8880   65.3920 O   0  0  0  0  0  0
   48.4360   41.8870   62.1910 N   0  0  0  0  0  0
   49.6240   42.2280   61.3970 C   0  0  2  0  0  0
   49.4520   43.4460   60.4880 C   0  0  0  0  0  0
   48.3420   44.0170   60.4680 O   0  0  0  0  0  0
   49.8810   40.9510   60.5980 C   0  0  0  0  0  0
   48.5200   40.3760   60.4300 C   0  0  0  0  0  0
   47.9370   40.5530   61.8120 C   0  0  0  0  0  0
   50.4589   43.8854   59.7383 O   0  0  0  0  0  0
   58.7572   13.8424   64.4743 H   0  0  0  0  0  0
   57.8641   13.3218   65.9434 H   0  0  0  0  0  0
   57.9728   12.2271   64.5233 H   0  0  0  0  0  0
   60.3561   12.0691   64.7992 H   0  0  0  0  0  0
   59.9121   13.7234   67.3518 H   0  0  0  0  0  0
   61.4709   12.9944   66.8368 H   0  0  0  0  0  0
   60.7298   14.5310   64.6671 H   0  0  0  0  0  0
   60.2115   15.5029   66.0860 H   0  0  0  0  0  0
   62.4519   15.0751   67.1210 H   0  0  0  0  0  0
   62.9524   14.2635   65.5987 H   0  0  0  0  0  0
   61.9095   17.0147   65.1193 H   0  0  0  0  0  0
   64.6751   14.9191   66.1772 H   0  0  0  0  0  0
   63.4095   18.5733   64.5327 H   0  0  0  0  0  0
   65.2682   18.2415   64.7874 H   0  0  0  0  0  0
   61.0254   11.8625   67.7985 H   0  0  0  0  0  0
   59.3867    9.2964   68.2806 H   0  0  0  0  0  0
   61.8033    8.8504   67.9396 H   0  0  0  0  0  0
   61.3509    8.5189   69.6461 H   0  0  0  0  0  0
   62.2210   10.0331   69.2254 H   0  0  0  0  0  0
   59.4083   12.4294   68.9034 H   0  0  0  0  0  0
   58.5466   11.9737   71.7889 H   0  0  0  0  0  0
   60.3006   14.2636   70.7260 H   0  0  0  0  0  0
   59.5061   14.3015   72.3366 H   0  0  0  0  0  0
   61.8598   13.4164   72.5169 H   0  0  0  0  0  0
   57.6477   14.3584   72.5976 H   0  0  0  0  0  0
   55.6928   15.0799   70.3721 H   0  0  0  0  0  0
   54.5989   13.6435   72.1277 H   0  0  0  0  0  0
   53.8916   15.2946   72.1228 H   0  0  0  0  0  0
   55.0791   14.8300   73.3880 H   0  0  0  0  0  0
   55.0059   17.1269   70.0888 H   0  0  0  0  0  0
   56.2380   19.1430   72.0286 H   0  0  0  0  0  0
   56.9096   20.5662   70.0854 H   0  0  0  0  0  0
   57.7232   18.9656   70.0333 H   0  0  0  0  0  0
   56.3012   18.2015   68.2946 H   0  0  0  0  0  0
   55.2015   19.6098   68.4799 H   0  0  0  0  0  0
   57.1426   21.0892   67.8646 H   0  0  0  0  0  0
   58.0676   19.5996   67.4746 H   0  0  0  0  0  0
   56.3870   18.9559   65.8140 H   0  0  0  0  0  0
   55.3854   20.3842   66.2422 H   0  0  0  0  0  0
   56.6146   20.7307   64.1942 H   0  0  0  0  0  0
   58.1619   20.4281   65.0550 H   0  0  0  0  0  0
   57.1604   21.8564   65.4832 H   0  0  0  0  0  0
   55.4059   21.5017   71.0884 H   0  0  0  0  0  0
   52.4417   20.9605   70.9559 H   0  0  0  0  0  0
   53.7948   23.6525   71.7751 H   0  0  0  0  0  0
   54.5683   21.7980   73.3052 H   0  0  0  0  0  0
   51.3305   23.7525   71.2589 H   0  0  0  0  0  0
   51.6713   24.0387   72.9992 H   0  0  0  0  0  0
   51.0511   22.4427   72.4561 H   0  0  0  0  0  0
   51.1596   21.5321   69.4106 H   0  0  0  0  0  0
   52.3681   23.2704   67.1682 H   0  0  0  0  0  0
   50.0270   21.2971   67.0098 H   0  0  0  0  0  0
   50.7790   22.1888   65.6439 H   0  0  0  0  0  0
   52.7149   19.8285   68.3573 H   0  0  0  0  0  0
   53.3571   18.4478   64.4113 H   0  0  0  0  0  0
   51.1457   25.1507   66.6038 H   0  0  0  0  0  0
   48.3952   25.2694   67.8346 H   0  0  0  0  0  0
   49.7377   26.1007   69.7019 H   0  0  0  0  0  0
   50.7183   27.1339   68.6076 H   0  0  0  0  0  0
   47.7987   27.6760   68.7308 H   0  0  0  0  0  0
   48.7890   28.0656   70.1779 H   0  0  0  0  0  0
   50.9279   31.0701   69.2134 H   0  0  0  0  0  0
   51.3450   29.3928   69.7026 H   0  0  0  0  0  0
   49.9977   30.2573   70.5176 H   0  0  0  0  0  0
   46.9923   26.5308   66.8330 H   0  0  0  0  0  0
   48.1981   28.2129   64.5738 H   0  0  0  0  0  0
   47.2984   26.3236   63.4371 H   0  0  0  0  0  0
   45.8768   26.2359   64.5316 H   0  0  0  0  0  0
   43.8846   27.3771   64.0110 H   0  0  0  0  0  0
   47.4651   28.2835   61.8366 H   0  0  0  0  0  0
   42.5813   28.7782   62.4343 H   0  0  0  0  0  0
   46.1684   29.6835   60.2661 H   0  0  0  0  0  0
   42.5023   30.1923   60.5118 H   0  0  0  0  0  0
   45.4275   31.0928   66.7525 H   0  0  0  0  0  0
   46.3703   33.3562   65.5947 H   0  0  0  0  0  0
   47.4275   32.4285   66.7120 H   0  0  0  0  0  0
   47.2635   32.2467   63.6528 H   0  0  0  0  0  0
   48.7151   32.5929   64.6525 H   0  0  0  0  0  0
   48.7728   30.3250   65.5411 H   0  0  0  0  0  0
   48.2034   30.0117   63.8665 H   0  0  0  0  0  0
   43.3717   31.0119   66.3600 H   0  0  0  0  0  0
   42.5545   31.1641   63.4818 H   0  0  0  0  0  0
   40.8154   31.2506   66.0153 H   0  0  0  0  0  0
   39.6977   32.0538   63.9854 H   0  0  0  0  0  0
   39.0455   30.4698   64.5259 H   0  0  0  0  0  0
   40.1709   30.5479   63.1280 H   0  0  0  0  0  0
   42.2870   29.2369   65.9126 H   0  0  0  0  0  0
   41.6856   28.8936   64.2551 H   0  0  0  0  0  0
   40.5602   28.8154   65.6530 H   0  0  0  0  0  0
   43.5419   33.1940   65.8228 H   0  0  0  0  0  0
   42.1445   35.6258   64.5200 H   0  0  0  0  0  0
   41.1644   35.2337   66.7791 H   0  0  0  0  0  0
   42.8121   35.2904   67.4922 H   0  0  0  0  0  0
   42.3468   37.6771   65.9091 H   0  0  0  0  0  0
   41.0061   37.4355   67.0799 H   0  0  0  0  0  0
   43.9625   37.3839   67.8452 H   0  0  0  0  0  0
   42.9196   38.8441   67.9268 H   0  0  0  0  0  0
   41.6628   36.6401   69.4343 H   0  0  0  0  0  0
   44.4199   39.0215   69.4442 H   0  0  0  0  0  0
   41.7267   36.6787   71.6586 H   0  0  0  0  0  0
   43.0024   37.7768   72.5512 H   0  0  0  0  0  0
   43.8127   36.6243   63.4516 H   0  0  0  0  0  0
   46.5732   35.9344   64.1630 H   0  0  0  0  0  0
   47.1706   37.6945   62.4632 H   0  0  0  0  0  0
   45.8555   36.6244   61.8700 H   0  0  0  0  0  0
   44.4803   38.4377   64.3171 H   0  0  0  0  0  0
   43.8148   39.8675   63.2481 H   0  0  0  0  0  0
   48.2648   37.8639   64.2751 H   0  0  0  0  0  0
   47.4518   39.2343   66.8504 H   0  0  0  0  0  0
   50.1584   39.1616   65.3795 H   0  0  0  0  0  0
   49.8837   39.7110   67.0675 H   0  0  0  0  0  0
   49.6129   36.6993   64.8349 H   0  0  0  0  0  0
   49.9916   38.1880   68.8381 H   0  0  0  0  0  0
   49.8780   34.3825   65.6761 H   0  0  0  0  0  0
   50.2516   35.8817   69.6800 H   0  0  0  0  0  0
   50.1876   32.8629   67.5407 H   0  0  0  0  0  0
   46.2196   40.0428   64.3590 H   0  0  0  0  0  0
   45.8718   41.9590   63.1418 H   0  0  0  0  0  0
   46.8850   43.2224   65.7580 H   0  0  0  0  0  0
   46.1543   44.1984   64.4389 H   0  0  0  0  0  0
   44.4094   43.5366   66.1386 H   0  0  0  0  0  0
   50.4398   42.5238   62.0730 H   0  0  0  0  0  0
   50.3512   41.2080   59.6373 H   0  0  0  0  0  0
   50.5500   40.2899   61.1684 H   0  0  0  0  0  0
   47.9772   40.9387   59.6562 H   0  0  0  0  0  0
   48.6022   39.3218   60.1269 H   0  0  0  0  0  0
   48.3035   39.8063   62.5318 H   0  0  0  0  0  0
   46.8370   40.5579   61.8169 H   0  0  0  0  0  0
   50.3195   44.7628   59.0896 H   0  0  0  0  0  0
  1  2  1  0  0  0
  1133  1  0  0  0
  1134  1  0  0  0
  1135  1  0  0  0
  2  5  1  0  0  0
  2  3  1  0  0  0
  2136  1  0  0  0
  3  4  2  0  0  0
  3 12  1  0  0  0
  5  6  1  0  0  0
  5137  1  0  0  0
  5138  1  0  0  0
  6  7  1  0  0  0
  6139  1  0  0  0
  6140  1  0  0  0
  7  8  1  0  0  0
  7141  1  0  0  0
  7142  1  0  0  0
  8  9  1  0  0  0
  8143  1  0  0  0
  9 11  1  0  0  0
  9 10  2  0  0  0
 10144  1  0  0  0
 11145  1  0  0  0
 11146  1  0  0  0
 12 13  1  0  0  0
 12147  1  0  0  0
 13 16  1  0  0  0
 13 14  1  0  0  0
 13148  1  0  0  0
 14 15  2  0  0  0
 14 17  1  0  0  0
 16149  1  0  0  0
 16150  1  0  0  0
 16151  1  0  0  0
 17 18  1  0  0  0
 17152  1  0  0  0
 18 21  1  0  0  0
 18 19  1  0  0  0
 18153  1  0  0  0
 19 20  2  0  0  0
 19 23  1  0  0  0
 21 22  1  0  0  0
 21154  1  0  0  0
 21155  1  0  0  0
 22156  1  0  0  0
 23 24  1  0  0  0
 23157  1  0  0  0
 24 27  1  0  0  0
 24 25  1  0  0  0
 24158  1  0  0  0
 25 26  2  0  0  0
 25 28  1  0  0  0
 27159  1  0  0  0
 27160  1  0  0  0
 27161  1  0  0  0
 28 29  1  0  0  0
 28162  1  0  0  0
 29 32  1  0  0  0
 29 30  1  0  0  0
 29163  1  0  0  0
 30 31  2  0  0  0
 30 37  1  0  0  0
 32 33  1  0  0  0
 32164  1  0  0  0
 32165  1  0  0  0
 33 34  1  0  0  0
 33166  1  0  0  0
 33167  1  0  0  0
 34 35  1  0  0  0
 34168  1  0  0  0
 34169  1  0  0  0
 35 36  1  0  0  0
 35170  1  0  0  0
 35171  1  0  0  0
 36172  1  0  0  0
 36173  1  0  0  0
 36174  1  0  0  0
 37 38  1  0  0  0
 37175  1  0  0  0
 38 41  1  0  0  0
 38 39  1  0  0  0
 38176  1  0  0  0
 39 40  2  0  0  0
 39 44  1  0  0  0
 41 43  1  0  0  0
 41 42  1  0  0  0
 41177  1  0  0  0
 42178  1  0  0  0
 43179  1  0  0  0
 43180  1  0  0  0
 43181  1  0  0  0
 44 45  1  0  0  0
 44182  1  0  0  0
 45 48  1  0  0  0
 45 46  1  0  0  0
 45183  1  0  0  0
 46 47  2  0  0  0
 46 54  1  0  0  0
 48 49  1  0  0  0
 48184  1  0  0  0
 48185  1  0  0  0
 49 50  2  0  0  0
 49 51  1  0  0  0
 50 52  1  0  0  0
 51 53  2  0  0  0
 51186  1  0  0  0
 52 53  1  0  0  0
 52187  1  0  0  0
 54 55  1  0  0  0
 54188  1  0  0  0
 55 58  1  0  0  0
 55 56  1  0  0  0
 55189  1  0  0  0
 56 57  2  0  0  0
 56 62  1  0  0  0
 58 59  1  0  0  0
 58190  1  0  0  0
 58191  1  0  0  0
 59 60  1  0  0  0
 59192  1  0  0  0
 59193  1  0  0  0
 60 61  1  0  0  0
 61194  1  0  0  0
 61195  1  0  0  0
 61196  1  0  0  0
 62 63  1  0  0  0
 62197  1  0  0  0
 63 66  1  0  0  0
 63 64  1  0  0  0
 63198  1  0  0  0
 64 65  2  0  0  0
 64 74  1  0  0  0
 66 67  1  0  0  0
 66199  1  0  0  0
 66200  1  0  0  0
 67 68  2  0  0  0
 67 69  1  0  0  0
 68 70  1  0  0  0
 68201  1  0  0  0
 69 71  2  0  0  0
 69202  1  0  0  0
 70 72  2  0  0  0
 70203  1  0  0  0
 71 72  1  0  0  0
 71204  1  0  0  0
 72 73  1  0  0  0
 73205  1  0  0  0
 74 75  1  0  0  0
 74 80  1  0  0  0
 75 76  1  0  0  0
 75 78  1  0  0  0
 75206  1  0  0  0
 76 77  2  0  0  0
 76 81  1  0  0  0
 78 79  1  0  0  0
 78207  1  0  0  0
 78208  1  0  0  0
 79 80  1  0  0  0
 79209  1  0  0  0
 79210  1  0  0  0
 80211  1  0  0  0
 80212  1  0  0  0
 81 82  1  0  0  0
 81213  1  0  0  0
 82 85  1  0  0  0
 82 83  1  0  0  0
 82214  1  0  0  0
 83 84  2  0  0  0
 83 88  1  0  0  0
 85 87  1  0  0  0
 85 86  1  0  0  0
 85215  1  0  0  0
 86216  1  0  0  0
 86217  1  0  0  0
 86218  1  0  0  0
 87219  1  0  0  0
 87220  1  0  0  0
 87221  1  0  0  0
 88 89  1  0  0  0
 88222  1  0  0  0
 89 92  1  0  0  0
 89 90  1  0  0  0
 89223  1  0  0  0
 90 91  2  0  0  0
 90 99  1  0  0  0
 92 93  1  0  0  0
 92224  1  0  0  0
 92225  1  0  0  0
 93 94  1  0  0  0
 93226  1  0  0  0
 93227  1  0  0  0
 94 95  1  0  0  0
 94228  1  0  0  0
 94229  1  0  0  0
 95 96  1  0  0  0
 95230  1  0  0  0
 96 98  1  0  0  0
 96 97  2  0  0  0
 97231  1  0  0  0
 98232  1  0  0  0
 98233  1  0  0  0
 99100  1  0  0  0
 99234  1  0  0  0
100103  1  0  0  0
100101  1  0  0  0
100235  1  0  0  0
101102  2  0  0  0
101107  1  0  0  0
103104  1  0  0  0
103236  1  0  0  0
103237  1  0  0  0
104106  1  0  0  0
104105  2  0  0  0
106238  1  0  0  0
106239  1  0  0  0
107108  1  0  0  0
107240  1  0  0  0
108111  1  0  0  0
108109  1  0  0  0
108241  1  0  0  0
109110  2  0  0  0
109119  1  0  0  0
111112  1  0  0  0
111242  1  0  0  0
111243  1  0  0  0
112113  2  0  0  0
112114  1  0  0  0
113115  1  0  0  0
113244  1  0  0  0
114116  2  0  0  0
114245  1  0  0  0
115117  2  0  0  0
115246  1  0  0  0
116117  1  0  0  0
116247  1  0  0  0
117118  1  0  0  0
118248  1  0  0  0
119120  1  0  0  0
119249  1  0  0  0
120123  1  0  0  0
120121  1  0  0  0
120250  1  0  0  0
121122  2  0  0  0
121125  1  0  0  0
123124  1  0  0  0
123251  1  0  0  0
123252  1  0  0  0
124253  1  0  0  0
125126  1  0  0  0
125131  1  0  0  0
126127  1  0  0  0
126129  1  0  0  0
126254  1  0  0  0
127128  2  0  0  0
127132  1  0  0  0
129130  1  0  0  0
129255  1  0  0  0
129256  1  0  0  0
130131  1  0  0  0
130257  1  0  0  0
130258  1  0  0  0
131259  1  0  0  0
131260  1  0  0  0
132261  1  0  0  0
M  CHG  2   1   1  36   1
M  END
> <s_m_source_file>
../2emt_ligand.sdf

> <i_m_source_file_index>
1

> <s_epik_input>
W0hdL049QyhbTkgyXSlcW05IXVtDSDJdW0NIMl1bQ0gyXVtDQEhdKFtOSDMrXSlDKD1PKVtOSF1bQ0BASF0oW0NIM10pQyg9TylbTkhdW0NAQEhdKFtDSDJdW09IXSlDKD1PKVtOSF1bQ0BASF0oW0NIM10pQyg9TylbTkhdW0NAQEhdKFtDSDJdW0NIMl1bQ0gyXVtDSDJdW05IMytdKUMoPU8pW05IXVtDQEBIXShbQ0BIXShbT0hdKVtDSDNdKUMoPU8pW05IXVtDQEBIXShbQ0gyXUMxPU5bQ0gyXU49W0NIXTEpQyg9TylbTkhdW0NAQEhdKFtDSDJdW0NIMl1TW0NIM10pQyg9TylbTkhdW0NAQEhdKFtDSDJdYzJbY0hdW2NIXWMoW09IXSlbY0hdW2NIXTIpQyg9TylOM1tDQEBIXShbQ0gyXVtDSDJdW0NIMl0zKUMoPU8pW05IXVtDQEBIXShbQ0hdKFtDSDNdKVtDSDNdKUMoPU8pW05IXVtDQEBIXShbQ0gyXVtDSDJdW0NIMl1bTkhdL0MoPU5cW0hdKVtOSDJdKUMoPU8pW05IXVtDQEBIXShbQ0gyXUMoPU8pW05IMl0pQyg9TylbTkhdW0NAQEhdKFtDSDJdYzRbY0hdW2NIXWMoW09IXSlbY0hdW2NIXTQpQyg9TylbTkhdW0NAQEhdKFtDSDJdW09IXSlDKD1PKU41W0NASF0oQyg9TylbT0hdKVtDSDJdW0NIMl1bQ0gyXTU=

> <s_epik_cmdline>
J2VwaWtfYXBwJywgJy1pbWFlJywgJ2xpZ2FuZF9wcm8ubWFlJywgJy1vbWFlJywgJ2xpZ2FuZF9wcmVwLm1hZScsICctbXMnLCAnMScsICctcGgnLCAnNycsICctcGh0JywgJzAuNScsICctbnQn

> <s_epik_pKa_notes>
Molecule size exceeds maximum supported for generating protonation states

> <s_epik_Chemistry_Notes>
This compound has an imine and may undergo hydrolysis.

$$$$
