2er0_ligand
                    3D
 Schrodinger Suite 2020-3.
136140  0  0  1  0            999 V2000
    1.6070   20.5290   23.8140 C   0  0  0  0  0  0
    0.2090   21.1020   24.0810 C   0  0  0  0  0  0
   -0.4260   21.6970   22.8230 C   0  0  0  0  0  0
   -0.7880   20.0600   24.5950 C   0  0  0  0  0  0
    2.1240   21.9550   24.0220 C   0  0  0  0  0  0
    1.7970   22.6420   24.9860 O   0  0  0  0  0  0
    2.9420   22.4360   23.1030 N   0  0  0  0  0  0
    3.4890   23.7950   23.2600 C   0  0  2  0  0  0
    3.6050   24.5140   21.8990 C   0  0  0  0  0  0
    4.7060   24.8940   21.4720 O   0  0  0  0  0  0
    4.8570   23.7060   23.9540 C   0  0  0  0  0  0
    4.8850   22.6870   25.1160 C   0  0  0  0  0  0
    4.3660   22.9800   26.3800 N   0  0  0  0  0  0
    5.3600   21.4100   25.2030 C   0  0  0  0  0  0
    4.5340   21.9200   27.1570 C   0  0  0  0  0  0
    5.1240   20.9770   26.4700 N   0  0  0  0  0  0
    2.4880   24.7430   21.1630 N   0  0  0  0  0  0
    2.5300   25.3960   19.8490 C   0  0  2  0  0  0
    3.0800   26.8110   19.8890 C   0  0  0  0  0  0
    2.9930   27.4800   20.9690 O   0  0  0  0  0  0
    1.0930   25.4170   19.3910 C   0  0  0  0  0  0
    0.2490   24.7660   20.4720 C   0  0  0  0  0  0
    1.1440   24.3500   21.6040 C   0  0  0  0  0  0
    3.5990   27.1810   18.7160 N   0  0  0  0  0  0
    4.1870   28.5050   18.4150 C   0  0  2  0  0  0
    3.4760   29.1240   17.2060 C   0  0  0  0  0  0
    3.1640   28.4330   16.2260 O   0  0  0  0  0  0
    5.6570   28.3650   17.9900 C   0  0  0  0  0  0
    6.6470   28.2490   19.1480 C   0  0  0  0  0  0
    6.1880   28.2210   20.4680 C   0  0  0  0  0  0
    8.0190   28.1670   18.8760 C   0  0  0  0  0  0
    7.1030   28.1040   21.5220 C   0  0  0  0  0  0
    8.9330   28.0480   19.9290 C   0  0  0  0  0  0
    8.4750   28.0150   21.2520 C   0  0  0  0  0  0
    3.2320   30.4140   17.2920 N   0  0  0  0  0  0
    2.6040   31.1570   16.1900 C   0  0  2  0  0  0
    3.3310   32.4810   15.9830 C   0  0  0  0  0  0
    3.0200   33.4860   16.6420 O   0  0  0  0  0  0
    1.1250   31.4180   16.4680 C   0  0  0  0  0  0
    0.3070   31.4440   15.1760 C   0  0  0  0  0  0
    0.9190   31.5190   13.9280 N   0  0  0  0  0  0
   -1.0300   31.4050   14.9390 C   0  0  0  0  0  0
   -0.0250   31.5230   13.0050 C   0  0  0  0  0  0
   -1.1930   31.4560   13.5910 N   0  0  0  0  0  0
    4.2800   32.4090   15.0630 N   0  0  0  0  0  0
    5.1410   33.5410   14.6890 C   0  0  1  0  0  0
    6.6250   33.1820   14.8800 C   0  0  0  0  0  0
    6.9860   32.5990   16.2540 C   0  0  0  0  0  0
    6.4840   33.5280   17.3700 C   0  0  0  0  0  0
    8.3860   32.4700   16.3340 C   0  0  0  0  0  0
    6.8590   32.9680   18.7500 C   0  0  0  0  0  0
    8.8000   31.8410   17.6700 C   0  0  0  0  0  0
    8.3660   32.7370   18.8260 C   0  0  0  0  0  0
    4.9870   33.8990   13.1960 C   0  0  1  0  0  0
    5.4740   32.8380   12.3880 O   0  0  0  0  0  0
    3.5220   34.1400   12.8070 C   0  0  0  0  0  0
    3.0610   35.5360   13.2460 C   0  0  0  0  0  0
    2.9260   35.8300   14.4350 O   0  0  0  0  0  0
    2.8230   36.4110   12.2820 N   0  0  0  0  0  0
    2.3090   37.7560   12.6010 C   0  0  2  0  0  0
    0.7750   37.6750   12.6530 C   0  0  0  0  0  0
    0.1300   38.2210   13.5570 O   0  0  0  0  0  0
    2.7180   38.7800   11.5350 C   0  0  0  0  0  0
    3.8730   39.7450   11.9090 C   0  0  0  0  0  0
    4.0160   40.8950   10.8920 C   0  0  0  0  0  0
    3.7200   40.4410   13.2640 C   0  0  0  0  0  0
    0.1560   37.0430   11.7750 N   0  0  0  0  0  0
    1.8356   19.7562   24.5627 H   0  0  0  0  0  0
    1.6352   20.0847   22.8081 H   0  0  0  0  0  0
    0.3859   21.8731   24.8453 H   0  0  0  0  0  0
    0.2443   22.4594   22.3995 H   0  0  0  0  0  0
   -1.3898   22.1594   23.0824 H   0  0  0  0  0  0
   -0.5891   20.9000   22.0826 H   0  0  0  0  0  0
   -0.3898   19.5898   25.5062 H   0  0  0  0  0  0
   -0.9449   19.2911   23.8241 H   0  0  0  0  0  0
   -1.7456   20.5505   24.8239 H   0  0  0  0  0  0
    3.2155   21.8309   22.2260 H   0  0  0  0  0  0
    2.7758   24.3499   23.8872 H   0  0  0  0  0  0
    5.7623   24.2776   23.7018 H   0  0  0  0  0  0
    5.8540   20.7464   24.4780 H   0  0  0  0  0  0
    4.2293   21.8461   28.2009 H   0  0  0  0  0  0
    3.2069   24.8255   19.1961 H   0  0  0  0  0  0
    0.7735   26.4578   19.2337 H   0  0  0  0  0  0
    1.0005   24.8585   18.4478 H   0  0  0  0  0  0
   -0.4999   25.4851   20.8353 H   0  0  0  0  0  0
   -0.2607   23.8837   20.0576 H   0  0  0  0  0  0
    1.1170   23.2635   21.7739 H   0  0  0  0  0  0
    0.8972   24.8737   22.5394 H   0  0  0  0  0  0
    3.5652   26.4044   17.9377 H   0  0  0  0  0  0
    4.0685   29.0905   19.3387 H   0  0  0  0  0  0
    5.7768   27.4596   17.3769 H   0  0  0  0  0  0
    5.9548   29.2468   17.4037 H   0  0  0  0  0  0
    5.1204   28.2901   20.6766 H   0  0  0  0  0  0
    8.3739   28.1959   17.8458 H   0  0  0  0  0  0
    6.7477   28.0822   22.5523 H   0  0  0  0  0  0
   10.0006   27.9810   19.7196 H   0  0  0  0  0  0
    9.1864   27.9200   22.0723 H   0  0  0  0  0  0
    3.5108   30.9364   18.2190 H   0  0  0  0  0  0
    2.6981   30.5179   15.2997 H   0  0  0  0  0  0
    0.6285   31.5773   17.4366 H   0  0  0  0  0  0
   -1.9091   31.3449   15.5974 H   0  0  0  0  0  0
    0.1416   31.5739   11.9290 H   0  0  0  0  0  0
    4.4070   31.4346   14.5687 H   0  0  0  0  0  0
    4.8055   34.3514   15.3528 H   0  0  0  0  0  0
    6.9191   32.4292   14.1338 H   0  0  0  0  0  0
    7.2401   34.0849   14.7520 H   0  0  0  0  0  0
    6.5907   31.5809   16.3850 H   0  0  0  0  0  0
    6.9407   34.5218   17.2529 H   0  0  0  0  0  0
    5.3895   33.6179   17.3077 H   0  0  0  0  0  0
    8.7425   31.8284   15.5147 H   0  0  0  0  0  0
    8.8511   33.4633   16.2508 H   0  0  0  0  0  0
    6.5625   33.6851   19.5296 H   0  0  0  0  0  0
    6.3373   32.0133   18.9124 H   0  0  0  0  0  0
    8.3208   30.8565   17.7759 H   0  0  0  0  0  0
    9.8932   31.7214   17.6958 H   0  0  0  0  0  0
    8.8888   33.7025   18.7588 H   0  0  0  0  0  0
    8.6148   32.2510   19.7810 H   0  0  0  0  0  0
    5.6045   34.7819   12.9742 H   0  0  0  0  0  0
    6.5131   32.4945   12.4990 H   0  0  0  0  0  0
    3.4145   34.0594   11.7152 H   0  0  0  0  0  0
    2.8846   33.3877   13.2947 H   0  0  0  0  0  0
    3.0116   36.1281   11.2359 H   0  0  0  0  0  0
    2.7510   38.0468   13.5654 H   0  0  0  0  0  0
    3.0489   38.2528   10.6280 H   0  0  0  0  0  0
    1.8575   39.4211   11.2931 H   0  0  0  0  0  0
    4.7501   39.0817   11.9361 H   0  0  0  0  0  0
    4.1319   40.4779    9.8808 H   0  0  0  0  0  0
    4.9005   41.4987   11.1432 H   0  0  0  0  0  0
    3.1176   41.5288   10.9265 H   0  0  0  0  0  0
    3.6111   39.6841   14.0547 H   0  0  0  0  0  0
    2.8280   41.0845   13.2470 H   0  0  0  0  0  0
    4.6109   41.0545   13.4638 H   0  0  0  0  0  0
    0.7072   36.5491   10.9612 H   0  0  0  0  0  0
   -0.9415   36.9792   11.8139 H   0  0  0  0  0  0
    2.0157   31.5625   13.8550 H   0  0  0  0  0  0
    3.9168   23.9649   26.5753 H   0  0  0  0  0  0
  1  2  1  0  0  0
  1  5  1  0  0  0
  1 68  1  0  0  0
  1 69  1  0  0  0
  2  3  1  0  0  0
  2  4  1  0  0  0
  2 70  1  0  0  0
  3 71  1  0  0  0
  3 72  1  0  0  0
  3 73  1  0  0  0
  4 74  1  0  0  0
  4 75  1  0  0  0
  4 76  1  0  0  0
  5  6  2  0  0  0
  5  7  1  0  0  0
  7  8  1  0  0  0
  7 77  1  0  0  0
  8  9  1  0  0  0
  8 11  1  0  0  0
  8 78  1  0  0  0
  9 10  2  0  0  0
  9 17  1  0  0  0
 11 12  2  0  0  0
 11 79  1  0  0  0
 12 13  1  0  0  0
 12 14  1  0  0  0
 13 15  1  0  0  0
 13136  1  0  0  0
 14 16  2  0  0  0
 14 80  1  0  0  0
 15 16  1  0  0  0
 15 81  1  0  0  0
 17 18  1  0  0  0
 17 23  1  0  0  0
 18 19  1  0  0  0
 18 21  1  0  0  0
 18 82  1  0  0  0
 19 20  2  0  0  0
 19 24  1  0  0  0
 21 22  1  0  0  0
 21 83  1  0  0  0
 21 84  1  0  0  0
 22 23  1  0  0  0
 22 85  1  0  0  0
 22 86  1  0  0  0
 23 87  1  0  0  0
 23 88  1  0  0  0
 24 25  1  0  0  0
 24 89  1  0  0  0
 25 26  1  0  0  0
 25 28  1  0  0  0
 25 90  1  0  0  0
 26 27  2  0  0  0
 26 35  1  0  0  0
 28 29  1  0  0  0
 28 91  1  0  0  0
 28 92  1  0  0  0
 29 30  2  0  0  0
 29 31  1  0  0  0
 30 32  1  0  0  0
 30 93  1  0  0  0
 31 33  2  0  0  0
 31 94  1  0  0  0
 32 34  2  0  0  0
 32 95  1  0  0  0
 33 34  1  0  0  0
 33 96  1  0  0  0
 34 97  1  0  0  0
 35 36  1  0  0  0
 35 98  1  0  0  0
 36 37  1  0  0  0
 36 39  1  0  0  0
 36 99  1  0  0  0
 37 38  2  0  0  0
 37 45  1  0  0  0
 39 40  2  0  0  0
 39100  1  0  0  0
 40 41  1  0  0  0
 40 42  1  0  0  0
 41 43  1  0  0  0
 41135  1  0  0  0
 42 44  2  0  0  0
 42101  1  0  0  0
 43 44  1  0  0  0
 43102  1  0  0  0
 45 46  1  0  0  0
 45103  1  0  0  0
 46 47  1  0  0  0
 46 54  1  0  0  0
 46104  1  0  0  0
 47 48  1  0  0  0
 47105  1  0  0  0
 47106  1  0  0  0
 48 49  1  0  0  0
 48 50  1  0  0  0
 48107  1  0  0  0
 49 51  1  0  0  0
 49108  1  0  0  0
 49109  1  0  0  0
 50 52  1  0  0  0
 50110  1  0  0  0
 50111  1  0  0  0
 51 53  1  0  0  0
 51112  1  0  0  0
 51113  1  0  0  0
 52 53  1  0  0  0
 52114  1  0  0  0
 52115  1  0  0  0
 53116  1  0  0  0
 53117  1  0  0  0
 54 55  1  0  0  0
 54 56  1  0  0  0
 54118  1  0  0  0
 55119  1  0  0  0
 56 57  1  0  0  0
 56120  1  0  0  0
 56121  1  0  0  0
 57 58  2  0  0  0
 57 59  1  0  0  0
 59 60  1  0  0  0
 59122  1  0  0  0
 60 61  1  0  0  0
 60 63  1  0  0  0
 60123  1  0  0  0
 61 62  2  0  0  0
 61 67  1  0  0  0
 63 64  1  0  0  0
 63124  1  0  0  0
 63125  1  0  0  0
 64 65  1  0  0  0
 64 66  1  0  0  0
 64126  1  0  0  0
 65127  1  0  0  0
 65128  1  0  0  0
 65129  1  0  0  0
 66130  1  0  0  0
 66131  1  0  0  0
 66132  1  0  0  0
 67133  1  0  0  0
 67134  1  0  0  0
M  END
> <s_m_source_file>
../2er0_ligand.sdf

> <i_m_source_file_index>
1

> <s_epik_input>
W0NIXTE9TltDSDJdTj1DMVtDSDJdW0NASF0oW05IXUMoPU8pW0NIMl1bQ0hdKFtDSDNdKVtDSDNdKUMoPU8pTjJbQ0BASF0oW0NIMl1bQ0gyXVtDSDJdMilDKD1PKVtOSF1bQ0BASF0oW0NIMl1jM1tjSF1bY0hdW2NIXVtjSF1bY0hdMylDKD1PKVtOSF1bQ0BASF0oW0NIMl1DND1OW0NIMl1OPVtDSF00KUMoPU8pW05IXVtDQEBIXShbQ0gyXVtDSF01W0NIMl1bQ0gyXVtDSDJdW0NIMl1bQ0gyXTUpW0NAQEhdKFtPSF0pW0NIMl1DKD1PKVtOSF1bQ0BIXShDKD1PKVtOSDJdKVtDSDJdW0NIXShbQ0gzXSlbQ0gzXQ==

> <s_epik_cmdline>
J2VwaWtfYXBwJywgJy1pbWFlJywgJ2xpZ2FuZF9wcm8ubWFlJywgJy1vbWFlJywgJ2xpZ2FuZF9wcmVwLm1hZScsICctbXMnLCAnMScsICctcGgnLCAnNycsICctcGh0JywgJzAuNScsICctbnQn

> <r_lp_tautomer_probability>
1

> <r_epik_Ionization_Penalty>
  0.0000

> <r_epik_Ionization_Penalty_Charging>
  0.0000

> <r_epik_Ionization_Penalty_Neutral>
  0.0000

> <r_epik_State_Penalty>
 -0.0000

> <r_epik_Charging_Adjusted_Penalty>
8.5699406512078e-07

> <i_epik_Tot_Q>
0

> <i_epik_Tot_abs_Q>
0

> <s_epik_Chemistry_Notes>
This compound has an imine and may undergo hydrolysis.

$$$$
