2er6_ligand
                    3D
 Schrodinger Suite 2020-3.
126128  0  0  1  0            999 V2000
   33.2910   -5.2060   -6.5530 N   0  3  0  0  0  0
   32.8050   -5.8600   -5.3720 C   0  0  2  0  0  0
   33.9550   -6.2230   -4.5050 C   0  0  0  0  0  0
   35.0930   -6.4100   -5.0360 O   0  0  0  0  0  0
   32.0700   -7.0810   -5.8950 C   0  0  0  0  0  0
   32.1920   -7.0710   -7.4250 C   0  0  0  0  0  0
   32.9830   -5.8700   -7.8300 C   0  0  0  0  0  0
   33.6640   -6.2890   -3.2520 N   0  0  0  0  0  0
   34.6320   -6.6340   -2.2380 C   0  0  2  0  0  0
   33.9930   -7.6640   -1.2870 C   0  0  0  0  0  0
   32.7650   -7.8040   -1.2290 O   0  0  0  0  0  0
   35.2880   -5.3470   -1.7290 C   0  0  2  0  0  0
   34.2910   -4.3840   -1.4070 O   0  0  0  0  0  0
   36.1580   -4.6640   -2.7940 C   0  0  0  0  0  0
   34.8370   -8.4880   -0.7070 N   0  0  0  0  0  0
   34.3970   -9.5500    0.2240 C   0  0  2  0  0  0
   35.2890   -9.5610    1.4610 C   0  0  0  0  0  0
   36.1040  -10.4760    1.6510 O   0  0  0  0  0  0
   34.5220  -10.9280   -0.4420 C   0  0  0  0  0  0
   33.7520  -11.0340   -1.7620 C   0  0  0  0  0  0
   33.7760  -12.4480   -2.3570 C   0  0  0  0  0  0
   32.7840  -13.2490   -2.1580 O   0  0  0  0  0  0
   34.7900  -12.8380   -3.0540 O   0  5  0  0  0  0
   35.1440   -8.5190    2.2170 N   0  0  0  0  0  0
   35.8970   -8.3280    3.4640 C   0  0  2  0  0  0
   35.1120   -8.9140    4.6350 C   0  0  0  0  0  0
   36.1370   -6.8370    3.7070 C   0  0  0  0  0  0
   36.8830   -6.1570    2.5570 C   0  0  0  0  0  0
   36.6390   -4.8100    2.2640 C   0  0  0  0  0  0
   37.8090   -6.8820    1.7970 C   0  0  0  0  0  0
   37.3210   -4.1880    1.2120 C   0  0  0  0  0  0
   38.4910   -6.2600    0.7450 C   0  0  0  0  0  0
   38.2470   -4.9130    0.4520 C   0  0  0  0  0  0
   35.0220  -10.3550    4.4950 N   0  0  1  0  0  0
   35.2990  -11.2700    5.6020 C   0  0  2  0  0  0
   36.7430  -11.7550    5.5460 C   0  0  0  0  0  0
   37.3100  -11.9480    4.4600 O   0  0  0  0  0  0
   34.3180  -12.4480    5.5900 C   0  0  0  0  0  0
   34.4040  -13.2950    4.3210 C   0  0  0  0  0  0
   33.7510  -12.8750    3.1580 C   0  0  0  0  0  0
   35.1220  -14.4980    4.3270 C   0  0  0  0  0  0
   33.8170  -13.6550    1.9980 C   0  0  0  0  0  0
   35.1880  -15.2790    3.1670 C   0  0  0  0  0  0
   34.5360  -14.8570    2.0020 C   0  0  0  0  0  0
   37.2650  -11.9090    6.7440 N   0  0  0  0  0  0
   38.6080  -12.4270    6.9880 C   0  0  2  0  0  0
   38.6470  -13.9200    6.6700 C   0  0  0  0  0  0
   37.7460  -14.6790    7.0570 O   0  0  0  0  0  0
   38.9430  -12.2840    8.4720 C   0  0  0  0  0  0
   40.4000  -11.9070    8.7270 C   0  0  0  0  0  0
   40.9600  -12.5280   10.0060 C   0  0  0  0  0  0
   42.1640  -13.3350    9.7690 N   0  0  0  0  0  0
   42.6720  -14.2010   10.6550 C   0  0  0  0  0  0
   42.0920  -14.3900   11.8480 N   0  3  0  0  0  0
   43.7720  -14.9360   10.4380 N   0  0  0  0  0  0
   39.6930  -14.3230    6.0280 N   0  0  0  0  0  0
   39.9350  -15.7430    5.7390 C   0  0  2  0  0  0
   41.3950  -16.0920    6.0230 C   0  0  0  0  0  0
   41.7550  -16.4550    7.1520 O   0  0  0  0  0  0
   39.5730  -16.0550    4.2880 C   0  0  0  0  0  0
   38.2990  -16.8910    4.1640 C   0  0  0  0  0  0
   38.1770  -17.5990    2.8150 C   0  0  0  0  0  0
   38.0340  -18.8800    2.7690 O   0  0  0  0  0  0
   38.2160  -16.9150    1.7220 O   0  5  0  0  0  0
   42.2380  -16.0160    5.1160 O   0  5  0  0  0  0
   32.8554   -4.1981   -6.6195 H   0  0  0  0  0  0
   34.3873   -5.1292   -6.5048 H   0  0  0  0  0  0
   32.1622   -5.1965   -4.7749 H   0  0  0  0  0  0
   32.5273   -7.9906   -5.4784 H   0  0  0  0  0  0
   31.0135   -7.0304   -5.5928 H   0  0  0  0  0  0
   32.7027   -7.9865   -7.7581 H   0  0  0  0  0  0
   31.1881   -7.0276   -7.8726 H   0  0  0  0  0  0
   32.4043   -5.1863   -8.4685 H   0  0  0  0  0  0
   33.9204   -6.1408   -8.3379 H   0  0  0  0  0  0
   32.6246   -6.0681   -2.9677 H   0  0  0  0  0  0
   35.4961   -7.1810   -2.6432 H   0  0  0  0  0  0
   35.8548   -5.6069   -0.8228 H   0  0  0  0  0  0
   33.5222   -4.6183   -0.6559 H   0  0  0  0  0  0
   36.9632   -5.3469   -3.1028 H   0  0  0  0  0  0
   36.5962   -3.7458   -2.3758 H   0  0  0  0  0  0
   35.5379   -4.4100   -3.6663 H   0  0  0  0  0  0
   35.9059   -8.3658   -0.9364 H   0  0  0  0  0  0
   33.3536   -9.3158    0.4818 H   0  0  0  0  0  0
   35.5803  -11.1363   -0.6578 H   0  0  0  0  0  0
   34.1271  -11.6997    0.2351 H   0  0  0  0  0  0
   32.7000  -10.7589   -1.5959 H   0  0  0  0  0  0
   34.1969  -10.3523   -2.5018 H   0  0  0  0  0  0
   34.4199   -7.7584    1.8898 H   0  0  0  0  0  0
   36.8547   -8.8548    3.3408 H   0  0  0  0  0  0
   35.6244   -8.6717    5.5777 H   0  0  0  0  0  0
   34.0987   -8.4861    4.6479 H   0  0  0  0  0  0
   35.1709   -6.3251    3.8279 H   0  0  0  0  0  0
   36.7379   -6.7062    4.6190 H   0  0  0  0  0  0
   35.9178   -4.2456    2.8552 H   0  0  0  0  0  0
   37.9987   -7.9309    2.0247 H   0  0  0  0  0  0
   37.1313   -3.1391    0.9843 H   0  0  0  0  0  0
   39.2122   -6.8244    0.1538 H   0  0  0  0  0  0
   38.7778   -4.4286   -0.3676 H   0  0  0  0  0  0
   33.9979  -10.6319    4.2042 H   0  0  0  0  0  0
   35.1534  -10.6845    6.5218 H   0  0  0  0  0  0
   34.5283  -13.1090    6.4437 H   0  0  0  0  0  0
   33.2883  -12.0685    5.6652 H   0  0  0  0  0  0
   33.1906  -11.9401    3.1550 H   0  0  0  0  0  0
   35.6291  -14.8258    5.2345 H   0  0  0  0  0  0
   33.3088  -13.3271    1.0912 H   0  0  0  0  0  0
   35.7466  -16.2150    3.1708 H   0  0  0  0  0  0
   34.5880  -15.4639    1.0981 H   0  0  0  0  0  0
   36.6245  -11.6206    7.5905 H   0  0  0  0  0  0
   39.2847  -11.8460    6.3441 H   0  0  0  0  0  0
   38.3143  -11.4979    8.9157 H   0  0  0  0  0  0
   38.7527  -13.2385    8.9845 H   0  0  0  0  0  0
   41.0206  -12.2528    7.8872 H   0  0  0  0  0  0
   40.4851  -10.8143    8.8201 H   0  0  0  0  0  0
   41.2254  -11.7302   10.7152 H   0  0  0  0  0  0
   40.2009  -13.1831   10.4584 H   0  0  0  0  0  0
   42.7061  -13.2473    8.8159 H   0  0  0  0  0  0
   41.1837  -13.8290   12.1130 H   0  0  0  0  0  0
   44.3143  -14.8463    9.4852 H   0  0  0  0  0  0
   44.1322  -15.6288   11.2127 H   0  0  0  0  0  0
   40.4151  -13.5631    5.6947 H   0  0  0  0  0  0
   39.2821  -16.3219    6.4087 H   0  0  0  0  0  0
   39.4136  -15.1149    3.7396 H   0  0  0  0  0  0
   40.3927  -16.6187    3.8187 H   0  0  0  0  0  0
   38.2891  -17.6626    4.9479 H   0  0  0  0  0  0
   37.4202  -16.2395    4.2796 H   0  0  0  0  0  0
   42.5242  -15.1062   12.5624 H   0  0  0  0  0  0
  1  2  1  0  0  0
  1  7  1  0  0  0
  1 66  1  0  0  0
  1 67  1  0  0  0
  2  3  1  0  0  0
  2  5  1  0  0  0
  2 68  1  0  0  0
  3  4  2  0  0  0
  3  8  1  0  0  0
  5  6  1  0  0  0
  5 69  1  0  0  0
  5 70  1  0  0  0
  6  7  1  0  0  0
  6 71  1  0  0  0
  6 72  1  0  0  0
  7 73  1  0  0  0
  7 74  1  0  0  0
  8  9  1  0  0  0
  8 75  1  0  0  0
  9 12  1  0  0  0
  9 10  1  0  0  0
  9 76  1  0  0  0
 10 11  2  0  0  0
 10 15  1  0  0  0
 12 14  1  0  0  0
 12 13  1  0  0  0
 12 77  1  0  0  0
 13 78  1  0  0  0
 14 79  1  0  0  0
 14 80  1  0  0  0
 14 81  1  0  0  0
 15 16  1  0  0  0
 15 82  1  0  0  0
 16 19  1  0  0  0
 16 17  1  0  0  0
 16 83  1  0  0  0
 17 18  2  0  0  0
 17 24  1  0  0  0
 19 20  1  0  0  0
 19 84  1  0  0  0
 19 85  1  0  0  0
 20 21  1  0  0  0
 20 86  1  0  0  0
 20 87  1  0  0  0
 21 23  1  0  0  0
 21 22  2  0  0  0
 24 25  1  0  0  0
 24 88  1  0  0  0
 25 27  1  0  0  0
 25 26  1  0  0  0
 25 89  1  0  0  0
 26 34  1  0  0  0
 26 90  1  0  0  0
 26 91  1  0  0  0
 27 28  1  0  0  0
 27 92  1  0  0  0
 27 93  1  0  0  0
 28 29  2  0  0  0
 28 30  1  0  0  0
 29 31  1  0  0  0
 29 94  1  0  0  0
 30 32  2  0  0  0
 30 95  1  0  0  0
 31 33  2  0  0  0
 31 96  1  0  0  0
 32 33  1  0  0  0
 32 97  1  0  0  0
 33 98  1  0  0  0
 34 35  1  0  0  0
 34 99  1  0  0  0
 35 38  1  0  0  0
 35 36  1  0  0  0
 35100  1  0  0  0
 36 37  2  0  0  0
 36 45  1  0  0  0
 38 39  1  0  0  0
 38101  1  0  0  0
 38102  1  0  0  0
 39 40  2  0  0  0
 39 41  1  0  0  0
 40 42  1  0  0  0
 40103  1  0  0  0
 41 43  2  0  0  0
 41104  1  0  0  0
 42 44  2  0  0  0
 42105  1  0  0  0
 43 44  1  0  0  0
 43106  1  0  0  0
 44107  1  0  0  0
 45 46  1  0  0  0
 45108  1  0  0  0
 46 49  1  0  0  0
 46 47  1  0  0  0
 46109  1  0  0  0
 47 48  2  0  0  0
 47 56  1  0  0  0
 49 50  1  0  0  0
 49110  1  0  0  0
 49111  1  0  0  0
 50 51  1  0  0  0
 50112  1  0  0  0
 50113  1  0  0  0
 51 52  1  0  0  0
 51114  1  0  0  0
 51115  1  0  0  0
 52 53  1  0  0  0
 52116  1  0  0  0
 53 55  1  0  0  0
 53 54  2  0  0  0
 54117  1  0  0  0
 54126  1  0  0  0
 55118  1  0  0  0
 55119  1  0  0  0
 56 57  1  0  0  0
 56120  1  0  0  0
 57 60  1  0  0  0
 57 58  1  0  0  0
 57121  1  0  0  0
 58 59  2  0  0  0
 58 65  1  0  0  0
 60 61  1  0  0  0
 60122  1  0  0  0
 60123  1  0  0  0
 61 62  1  0  0  0
 61124  1  0  0  0
 61125  1  0  0  0
 62 64  1  0  0  0
 62 63  2  0  0  0
M  CHG  5   1   1  23  -1  54   1  64  -1  65  -1
M  END
> <s_m_source_file>
../2er6_ligand.sdf

> <i_m_source_file_index>
1

> <s_epik_input>
W0NIMl0xW0NIMl1bQ0gyXVtOSDIrXVtDQEBIXTFDKD1PKVtOSF1bQ0BASF0oW0NASF0oW09IXSlbQ0gzXSlDKD1PKVtOSF1bQ0BASF0oW0NIMl1bQ0gyXUMoPU8pW09IXSlDKD1PKVtOSF1bQ0BASF0oW0NIMl1jMltjSF1bY0hdW2NIXVtjSF1bY0hdMilbQ0gyXVtOSDIrXVtDQEBIXShbQ0gyXWMzW2NIXVtjSF1bY0hdW2NIXVtjSF0zKUMoPU8pW05IXVtDQEBIXShbQ0gyXVtDSDJdW0NIMl1bTkhdL0MoPU5cW0hdKVtOSDJdKUMoPU8pW05IXVtDQEhdKEMoPU8pW09IXSlbQ0gyXVtDSDJdQyg9TylbT0hd

> <s_epik_cmdline>
J2VwaWtfYXBwJywgJy1pbWFlJywgJ2xpZ2FuZF9wcm8ubWFlJywgJy1vbWFlJywgJ2xpZ2FuZF9wcmVwLm1hZScsICctbXMnLCAnMScsICctcGgnLCAnNycsICctcGh0JywgJzAuNScsICctbnQn

> <r_epik_Ionization_Penalty>
  0.4459

> <r_epik_Ionization_Penalty_Charging>
  0.0472

> <r_epik_Ionization_Penalty_Neutral>
  0.3987

> <r_epik_State_Penalty>
  0.4161

> <r_epik_Charging_Adjusted_Penalty>
0.463305799226715

> <i_epik_Tot_Q>
-1

> <i_epik_Tot_abs_Q>
5

> <s_epik_Chemistry_Notes>
This compound has an imine and may undergo hydrolysis.

$$$$
