2er9_ligand
                    3D
 Schrodinger Suite 2020-3.
130133  0  0  1  0            999 V2000
   32.9440   -4.9710  -11.3300 O   0  0  0  0  0  0
   32.0340   -4.6980  -10.5550 C   0  0  0  0  0  0
   30.6570   -4.7680  -10.8890 O   0  0  0  0  0  0
   30.4470   -5.2750  -12.1930 C   0  0  0  0  0  0
   30.8750   -4.2200  -13.2280 C   0  0  0  0  0  0
   28.9400   -5.5710  -12.3680 C   0  0  0  0  0  0
   31.2390   -6.5710  -12.4030 C   0  0  0  0  0  0
   32.2360   -4.2970   -9.3080 N   0  0  0  0  0  0
   33.5710   -4.3610   -8.6750 C   0  0  2  0  0  0
   33.3970   -4.7760   -7.2060 C   0  0  0  0  0  0
   33.7020   -3.9880   -6.3210 O   0  0  0  0  0  0
   34.2240   -2.9720   -8.7110 C   0  0  0  0  0  0
   34.0100   -2.2980  -10.0640 C   0  0  0  0  0  0
   32.9450   -1.4820  -10.4290 N   0  0  0  0  0  0
   34.8750   -2.3950  -11.1580 C   0  0  0  0  0  0
   33.1420   -1.0770  -11.7500 C   0  0  0  0  0  0
   34.3380   -1.6410  -12.2010 N   0  0  0  0  0  0
   32.9160   -5.9870   -6.9810 N   0  0  0  0  0  0
   32.4940   -6.4320   -5.6710 C   0  0  2  0  0  0
   33.6560   -6.5580   -4.6880 C   0  0  0  0  0  0
   34.8250   -6.5470   -5.0360 O   0  0  0  0  0  0
   31.9240   -7.7960   -5.9970 C   0  0  0  0  0  0
   32.5500   -8.2490   -7.2920 C   0  0  0  0  0  0
   32.7690   -6.9650   -8.0660 C   0  0  0  0  0  0
   33.2950   -6.6630   -3.4370 N   0  0  0  0  0  0
   34.2820   -6.7970   -2.3380 C   0  0  2  0  0  0
   33.7670   -7.9640   -1.4570 C   0  0  0  0  0  0
   32.5930   -8.0030   -1.2270 O   0  0  0  0  0  0
   34.1210   -5.5090   -1.4650 C   0  0  0  0  0  0
   34.8830   -4.3720   -2.1480 C   0  0  0  0  0  0
   34.2450   -3.5600   -3.0740 C   0  0  0  0  0  0
   36.2210   -4.1670   -1.8240 C   0  0  0  0  0  0
   34.9460   -2.5290   -3.6890 C   0  0  0  0  0  0
   36.9260   -3.1300   -2.4420 C   0  0  0  0  0  0
   36.2830   -2.3210   -3.3670 C   0  0  0  0  0  0
   34.6540   -8.8030   -1.0470 N   0  0  0  0  0  0
   34.4250   -9.8190    0.0040 C   0  0  2  0  0  0
   35.5400   -9.7320    1.0430 C   0  0  0  0  0  0
   36.6080  -10.2910    0.8830 O   0  0  0  0  0  0
   34.3650  -11.1730   -0.6570 C   0  0  0  0  0  0
   34.3570  -12.3510    0.2920 C   0  0  0  0  0  0
   33.9000  -12.3850    1.5950 N   0  0  0  0  0  0
   34.8320  -13.6320   -0.0450 C   0  0  0  0  0  0
   34.0890  -13.6830    2.0850 C   0  0  0  0  0  0
   34.6520  -14.4270    1.0780 N   0  0  0  0  0  0
   35.2660   -9.0110    2.1230 N   0  0  0  0  0  0
   36.2400   -8.7630    3.1850 C   0  0  1  0  0  0
   36.7490   -7.3720    3.2110 C   0  0  0  0  0  0
   37.2040   -6.7510    1.9200 C   0  0  0  0  0  0
   37.3720   -5.2440    2.0540 C   0  0  0  0  0  0
   38.5740   -7.3000    1.4150 C   0  0  0  0  0  0
   35.6950   -9.2000    4.5530 C   0  0  1  0  0  0
   34.5450   -8.4800    4.9000 O   0  0  0  0  0  0
   35.3740  -10.7030    4.5640 C   0  0  0  0  0  0
   36.6380  -11.5220    4.7400 C   0  0  0  0  0  0
   37.4860  -11.5300    3.8500 O   0  0  0  0  0  0
   36.7890  -12.2010    5.8630 N   0  0  0  0  0  0
   37.8180  -13.2800    5.9280 C   0  0  2  0  0  0
   37.2760  -14.5430    5.2570 C   0  0  0  0  0  0
   36.1000  -14.8770    5.4240 O   0  0  0  0  0  0
   38.1510  -13.5490    7.3840 C   0  0  0  0  0  0
   38.9300  -12.4170    8.0130 C   0  0  0  0  0  0
   38.7780  -12.3690    9.5270 C   0  0  0  0  0  0
   40.3760  -12.3210    7.6040 C   0  0  0  0  0  0
   38.1100  -15.2360    4.5030 N   0  0  0  0  0  0
   30.3009   -3.2954  -13.0680 H   0  0  0  0  0  0
   30.6814   -4.6011  -14.2416 H   0  0  0  0  0  0
   31.9486   -4.0093  -13.1143 H   0  0  0  0  0  0
   28.3648   -4.6453  -12.2187 H   0  0  0  0  0  0
   28.6254   -6.3216  -11.6280 H   0  0  0  0  0  0
   28.7574   -5.9567  -13.3819 H   0  0  0  0  0  0
   32.3131   -6.3683  -12.2800 H   0  0  0  0  0  0
   31.0520   -6.9548  -13.4168 H   0  0  0  0  0  0
   30.9200   -7.3196  -11.6629 H   0  0  0  0  0  0
   31.3768   -3.9084   -8.7416 H   0  0  0  0  0  0
   34.1725   -5.0904   -9.2372 H   0  0  0  0  0  0
   34.7871   -2.4534   -7.9211 H   0  0  0  0  0  0
   35.8260   -2.9295  -11.2987 H   0  0  0  0  0  0
   32.4790   -0.4335  -12.3284 H   0  0  0  0  0  0
   31.7950   -5.7117   -5.2209 H   0  0  0  0  0  0
   32.1665   -8.4982   -5.1857 H   0  0  0  0  0  0
   30.8317   -7.7212   -6.1028 H   0  0  0  0  0  0
   33.4952   -8.7701   -7.0798 H   0  0  0  0  0  0
   31.8630   -8.9330   -7.8118 H   0  0  0  0  0  0
   31.9118   -6.6868   -8.6967 H   0  0  0  0  0  0
   33.6844   -6.9765   -8.6758 H   0  0  0  0  0  0
   32.2186   -6.6496   -3.2109 H   0  0  0  0  0  0
   35.2952   -6.9524   -2.7371 H   0  0  0  0  0  0
   33.0543   -5.2534   -1.3818 H   0  0  0  0  0  0
   34.5335   -5.6920   -0.4618 H   0  0  0  0  0  0
   33.1965   -3.7299   -3.3189 H   0  0  0  0  0  0
   36.7148   -4.8093   -1.0948 H   0  0  0  0  0  0
   34.4512   -1.8880   -4.4186 H   0  0  0  0  0  0
   37.9745   -2.9583   -2.1984 H   0  0  0  0  0  0
   36.8325   -1.5117   -3.8478 H   0  0  0  0  0  0
   35.6369   -8.7285   -1.5351 H   0  0  0  0  0  0
   33.4650   -9.6313    0.5072 H   0  0  0  0  0  0
   34.3284  -11.3417   -1.7434 H   0  0  0  0  0  0
   35.2753  -14.0597   -0.9563 H   0  0  0  0  0  0
   33.8353  -14.0380    3.0839 H   0  0  0  0  0  0
   34.2517   -8.5919    2.1981 H   0  0  0  0  0  0
   37.1105   -9.3715    2.8988 H   0  0  0  0  0  0
   35.9616   -6.7004    3.5837 H   0  0  0  0  0  0
   37.6245   -7.3142    3.8745 H   0  0  0  0  0  0
   36.3883   -7.0048    1.2271 H   0  0  0  0  0  0
   36.4303   -4.8003    2.4094 H   0  0  0  0  0  0
   37.6327   -4.8157    1.0749 H   0  0  0  0  0  0
   38.1744   -5.0272    2.7745 H   0  0  0  0  0  0
   38.5111   -8.3921    1.2991 H   0  0  0  0  0  0
   39.3593   -7.0533    2.1447 H   0  0  0  0  0  0
   38.8176   -6.8418    0.4451 H   0  0  0  0  0  0
   36.4157   -8.9307    5.3391 H   0  0  0  0  0  0
   34.5771   -7.3815    4.9467 H   0  0  0  0  0  0
   34.6886  -10.9255    5.3951 H   0  0  0  0  0  0
   34.8993  -10.9835    3.6122 H   0  0  0  0  0  0
   36.1678  -11.9796    6.7434 H   0  0  0  0  0  0
   38.7246  -12.9483    5.4007 H   0  0  0  0  0  0
   37.2199  -13.6801    7.9549 H   0  0  0  0  0  0
   38.7585  -14.4630    7.4584 H   0  0  0  0  0  0
   38.4624  -11.5200    7.5808 H   0  0  0  0  0  0
   37.7126  -12.4412    9.7910 H   0  0  0  0  0  0
   39.1864  -11.4208    9.9066 H   0  0  0  0  0  0
   39.3252  -13.2103    9.9773 H   0  0  0  0  0  0
   40.4501  -12.3586    6.5071 H   0  0  0  0  0  0
   40.9365  -13.1619    8.0384 H   0  0  0  0  0  0
   40.7977  -11.3724    7.9677 H   0  0  0  0  0  0
   39.1507  -14.9006    4.3824 H   0  0  0  0  0  0
   37.7640  -16.1486    3.9956 H   0  0  0  0  0  0
   33.4807  -11.4778    2.0546 H   0  0  0  0  0  0
   32.1438   -1.2673   -9.7065 H   0  0  0  0  0  0
  1  2  2  0  0  0
  2  3  1  0  0  0
  2  8  1  0  0  0
  3  4  1  0  0  0
  4  5  1  0  0  0
  4  6  1  0  0  0
  4  7  1  0  0  0
  5 66  1  0  0  0
  5 67  1  0  0  0
  5 68  1  0  0  0
  6 69  1  0  0  0
  6 70  1  0  0  0
  6 71  1  0  0  0
  7 72  1  0  0  0
  7 73  1  0  0  0
  7 74  1  0  0  0
  8  9  1  0  0  0
  8 75  1  0  0  0
  9 12  1  0  0  0
  9 10  1  0  0  0
  9 76  1  0  0  0
 10 11  2  0  0  0
 10 18  1  0  0  0
 12 13  2  0  0  0
 12 77  1  0  0  0
 13 14  1  0  0  0
 13 15  1  0  0  0
 14 16  1  0  0  0
 14130  1  0  0  0
 15 17  2  0  0  0
 15 78  1  0  0  0
 16 17  1  0  0  0
 16 79  1  0  0  0
 18 19  1  0  0  0
 18 24  1  0  0  0
 19 20  1  0  0  0
 19 22  1  0  0  0
 19 80  1  0  0  0
 20 21  2  0  0  0
 20 25  1  0  0  0
 22 23  1  0  0  0
 22 81  1  0  0  0
 22 82  1  0  0  0
 23 24  1  0  0  0
 23 83  1  0  0  0
 23 84  1  0  0  0
 24 85  1  0  0  0
 24 86  1  0  0  0
 25 26  1  0  0  0
 25 87  1  0  0  0
 26 29  1  0  0  0
 26 27  1  0  0  0
 26 88  1  0  0  0
 27 28  2  0  0  0
 27 36  1  0  0  0
 29 30  1  0  0  0
 29 89  1  0  0  0
 29 90  1  0  0  0
 30 31  2  0  0  0
 30 32  1  0  0  0
 31 33  1  0  0  0
 31 91  1  0  0  0
 32 34  2  0  0  0
 32 92  1  0  0  0
 33 35  2  0  0  0
 33 93  1  0  0  0
 34 35  1  0  0  0
 34 94  1  0  0  0
 35 95  1  0  0  0
 36 37  1  0  0  0
 36 96  1  0  0  0
 37 40  1  0  0  0
 37 38  1  0  0  0
 37 97  1  0  0  0
 38 39  2  0  0  0
 38 46  1  0  0  0
 40 41  2  0  0  0
 40 98  1  0  0  0
 41 42  1  0  0  0
 41 43  1  0  0  0
 42 44  1  0  0  0
 42129  1  0  0  0
 43 45  2  0  0  0
 43 99  1  0  0  0
 44 45  1  0  0  0
 44100  1  0  0  0
 46 47  1  0  0  0
 46101  1  0  0  0
 47 48  1  0  0  0
 47 52  1  0  0  0
 47102  1  0  0  0
 48 49  1  0  0  0
 48103  1  0  0  0
 48104  1  0  0  0
 49 50  1  0  0  0
 49 51  1  0  0  0
 49105  1  0  0  0
 50106  1  0  0  0
 50107  1  0  0  0
 50108  1  0  0  0
 51109  1  0  0  0
 51110  1  0  0  0
 51111  1  0  0  0
 52 53  1  0  0  0
 52 54  1  0  0  0
 52112  1  0  0  0
 53113  1  0  0  0
 54 55  1  0  0  0
 54114  1  0  0  0
 54115  1  0  0  0
 55 56  2  0  0  0
 55 57  1  0  0  0
 57 58  1  0  0  0
 57116  1  0  0  0
 58 61  1  0  0  0
 58 59  1  0  0  0
 58117  1  0  0  0
 59 60  2  0  0  0
 59 65  1  0  0  0
 61 62  1  0  0  0
 61118  1  0  0  0
 61119  1  0  0  0
 62 63  1  0  0  0
 62 64  1  0  0  0
 62120  1  0  0  0
 63121  1  0  0  0
 63122  1  0  0  0
 63123  1  0  0  0
 64124  1  0  0  0
 64125  1  0  0  0
 64126  1  0  0  0
 65127  1  0  0  0
 65128  1  0  0  0
M  END
> <s_m_source_file>
../2er9_ligand.sdf

> <i_m_source_file_index>
1

> <s_epik_input>
W0NIXTE9TltDSDJdTj1DMVtDSDJdW0NASF0oW05IXUMoPU8pT0MoW0NIM10pKFtDSDNdKVtDSDNdKUMoPU8pTjJbQ0BASF0oW0NIMl1bQ0gyXVtDSDJdMilDKD1PKVtOSF1bQ0BASF0oW0NIMl1jM1tjSF1bY0hdW2NIXVtjSF1bY0hdMylDKD1PKVtOSF1bQ0BASF0oW0NIMl1DND1OW0NIMl1OPVtDSF00KUMoPU8pW05IXVtDQEBIXShbQ0gyXVtDSF0oW0NIM10pW0NIM10pW0NAQEhdKFtPSF0pW0NIMl1DKD1PKVtOSF1bQ0BIXShDKD1PKVtOSDJdKVtDSDJdW0NIXShbQ0gzXSlbQ0gzXQ==

> <s_epik_cmdline>
J2VwaWtfYXBwJywgJy1pbWFlJywgJ2xpZ2FuZF9wcm8ubWFlJywgJy1vbWFlJywgJ2xpZ2FuZF9wcmVwLm1hZScsICctbXMnLCAnMScsICctcGgnLCAnNycsICctcGh0JywgJzAuNScsICctbnQn

> <r_lp_tautomer_probability>
1

> <r_epik_Ionization_Penalty>
  0.0000

> <r_epik_Ionization_Penalty_Charging>
  0.0000

> <r_epik_Ionization_Penalty_Neutral>
  0.0000

> <r_epik_State_Penalty>
 -0.0000

> <r_epik_Charging_Adjusted_Penalty>
1.00151250890396e-06

> <i_epik_Tot_Q>
0

> <i_epik_Tot_abs_Q>
0

> <s_epik_Chemistry_Notes>
This compound has an ester and may undergo hydrolysis at high or low pH. This compound has an imine and may undergo hydrolysis.

$$$$
