2erz_ligand
                    3D
 Schrodinger Suite 2020-3.
 39 41  0  0  1  0            999 V2000
    3.2140   10.1010    5.0010 O   0  0  0  0  0  0
    3.9290   10.0530    4.0080 C   0  0  0  0  0  0
    3.4180    9.8960    2.6910 N   0  0  0  0  0  0
    4.1710    9.7230    1.5130 C   0  0  0  0  0  0
    5.6280    9.6860    1.6100 C   0  0  0  0  0  0
    6.2700    9.8290    2.9300 C   0  0  0  0  0  0
    7.7840    9.7510    3.1200 C   0  0  0  0  0  0
    8.3480    9.8820    4.4760 C   0  0  0  0  0  0
    7.4880   10.0900    5.6350 C   0  0  0  0  0  0
    6.0260   10.1620    5.4880 C   0  0  0  0  0  0
    5.4050   10.0290    4.1800 C   0  0  0  0  0  0
    8.9840    9.4800    1.7980 S   0  0  0  0  0  0
    8.6930    8.2590    1.0890 O   0  0  0  0  0  0
    9.0520   10.6840    1.0040 O   0  0  0  0  0  0
   10.6270    9.1530    2.4630 N   0  0  1  0  0  0
   11.5000   10.1780    3.1110 C   0  0  0  0  0  0
   12.7050   10.4750    2.2230 C   0  0  0  0  0  0
   13.7050    9.3150    2.2280 C   0  0  0  0  0  0
   13.1750    8.1110    1.5490 N   0  3  0  0  0  0
   12.4060    7.2950    2.5170 C   0  0  0  0  0  0
   10.9790    7.7520    2.8260 C   0  0  0  0  0  0
    2.3317    9.9028    2.5181 H   0  0  0  0  0  0
    3.6758    9.6187    0.5476 H   0  0  0  0  0  0
    6.2354    9.5539    0.7146 H   0  0  0  0  0  0
    9.4275    9.8223    4.6146 H   0  0  0  0  0  0
    7.9345   10.1936    6.6239 H   0  0  0  0  0  0
    5.4021   10.3166    6.3683 H   0  0  0  0  0  0
   10.9266   11.1041    3.2640 H   0  0  0  0  0  0
   11.8511    9.7994    4.0823 H   0  0  0  0  0  0
   12.3670   10.6389    1.1891 H   0  0  0  0  0  0
   13.2166   11.3774    2.5889 H   0  0  0  0  0  0
   14.6246    9.6214    1.7079 H   0  0  0  0  0  0
   13.9446    9.0419    3.2663 H   0  0  0  0  0  0
   12.5163    8.4162    0.7226 H   0  0  0  0  0  0
   14.0107    7.5165    1.1514 H   0  0  0  0  0  0
   12.3130    6.2668    2.1374 H   0  0  0  0  0  0
   12.9300    7.2828    3.4841 H   0  0  0  0  0  0
   10.8501    7.6105    3.9092 H   0  0  0  0  0  0
   10.3209    7.0565    2.2845 H   0  0  0  0  0  0
  1  2  2  0  0  0
  2  3  1  0  0  0
  2 11  1  0  0  0
  3  4  1  0  0  0
  3 22  1  0  0  0
  4  5  2  0  0  0
  4 23  1  0  0  0
  5  6  1  0  0  0
  5 24  1  0  0  0
  6  7  2  0  0  0
  6 11  1  0  0  0
  7  8  1  0  0  0
  7 12  1  0  0  0
  8  9  2  0  0  0
  8 25  1  0  0  0
  9 10  1  0  0  0
  9 26  1  0  0  0
 10 11  2  0  0  0
 10 27  1  0  0  0
 12 13  2  0  0  0
 12 14  2  0  0  0
 12 15  1  0  0  0
 15 16  1  0  0  0
 15 21  1  0  0  0
 16 17  1  0  0  0
 16 28  1  0  0  0
 16 29  1  0  0  0
 17 18  1  0  0  0
 17 30  1  0  0  0
 17 31  1  0  0  0
 18 19  1  0  0  0
 18 32  1  0  0  0
 18 33  1  0  0  0
 19 20  1  0  0  0
 19 34  1  0  0  0
 19 35  1  0  0  0
 20 21  1  0  0  0
 20 36  1  0  0  0
 20 37  1  0  0  0
 21 38  1  0  0  0
 21 39  1  0  0  0
M  CHG  1  19   1
M  END
> <s_m_source_file>
../2erz_ligand.sdf

> <i_m_source_file_index>
1

> <s_epik_input>
W2NIXTFbY0hdW25IXWMoPU8pYyhjMTIpW2NIXVtjSF1bY0hdYzJTKD1PKSg9TylOM1tDSDJdW0NIMl1bQ0gyXVtOSDIrXVtDSDJdW0NIMl0z

> <s_epik_cmdline>
J2VwaWtfYXBwJywgJy1pbWFlJywgJ2xpZ2FuZF9wcm8ubWFlJywgJy1vbWFlJywgJ2xpZ2FuZF9wcmVwLm1hZScsICctbXMnLCAnMScsICctcGgnLCAnNycsICctcGh0JywgJzAuNScsICctbnQn

> <r_lp_tautomer_probability>
1

> <r_epik_Ionization_Penalty>
  0.0086

> <r_epik_Ionization_Penalty_Charging>
  0.0086

> <r_epik_Ionization_Penalty_Neutral>
  0.0000

> <r_epik_State_Penalty>
 -0.0000

> <r_epik_Charging_Adjusted_Penalty>
0.00856955283340152

> <i_epik_Tot_Q>
1

> <i_epik_Tot_abs_Q>
1

$$$$
