2esm_ligand
                    3D
 Schrodinger Suite 2020-3.
 38 40  0  0  1  0            999 V2000
   -0.8920  138.7790   19.7160 O   0  0  0  0  0  0
   -1.3530  137.4920   20.1620 S   0  0  0  0  0  0
   -0.9840  137.3570   21.5460 O   0  0  0  0  0  0
   -2.8780  137.3870   20.0410 N   0  0  3  0  0  0
   -3.5680  136.2000   20.5490 C   0  0  0  0  0  0
   -4.1360  136.5480   21.9250 C   0  0  0  0  0  0
   -4.9840  137.7260   21.8840 N   0  3  0  0  0  0
   -4.3730  139.0440   21.8310 C   0  0  0  0  0  0
   -4.0450  139.5290   20.4130 C   0  0  0  0  0  0
   -3.6640  138.4420   19.3950 C   0  0  0  0  0  0
   -0.6590  136.3250   19.3000 C   0  0  0  0  0  0
   -0.3290  135.1140   19.9190 C   0  0  0  0  0  0
    0.2710  134.0620   19.2200 C   0  0  0  0  0  0
    0.5770  134.1480   17.8600 C   0  0  0  0  0  0
    0.2950  135.3100   17.1460 C   0  0  0  0  0  0
   -0.3440  136.4640   17.8400 C   0  0  0  0  0  0
   -0.6130  137.6050   17.0850 C   0  0  0  0  0  0
    0.5890  135.4210   15.7900 C   0  0  0  0  0  0
    0.2990  136.5580   15.1300 N   0  0  0  0  0  0
   -0.2770  137.6190   15.7290 C   0  0  0  0  0  0
   -4.3785  135.9235   19.8587 H   0  0  0  0  0  0
   -2.8541  135.3669   20.6287 H   0  0  0  0  0  0
   -4.7377  135.7056   22.2970 H   0  0  0  0  0  0
   -3.3096  136.7451   22.6237 H   0  0  0  0  0  0
   -5.6231  137.6867   20.9896 H   0  0  0  0  0  0
   -5.6150  137.7551   22.7846 H   0  0  0  0  0  0
   -5.0564  139.7830   22.2746 H   0  0  0  0  0  0
   -3.4285  139.0333   22.3947 H   0  0  0  0  0  0
   -4.9191  140.0467   19.9912 H   0  0  0  0  0  0
   -3.1915  140.2219   20.4507 H   0  0  0  0  0  0
   -3.0715  138.8992   18.5889 H   0  0  0  0  0  0
   -4.5832  138.0087   18.9739 H   0  0  0  0  0  0
   -0.5466  134.9868   20.9795 H   0  0  0  0  0  0
    0.5082  133.1426   19.7553 H   0  0  0  0  0  0
    1.0394  133.3004   17.3543 H   0  0  0  0  0  0
   -1.0796  138.4751   17.5469 H   0  0  0  0  0  0
    1.0538  134.5878   15.2628 H   0  0  0  0  0  0
   -0.4863  138.5118   15.1398 H   0  0  0  0  0  0
  1  2  2  0  0  0
  2  3  2  0  0  0
  2  4  1  0  0  0
  2 11  1  0  0  0
  4  5  1  0  0  0
  4 10  1  0  0  0
  5  6  1  0  0  0
  5 21  1  0  0  0
  5 22  1  0  0  0
  6  7  1  0  0  0
  6 23  1  0  0  0
  6 24  1  0  0  0
  7  8  1  0  0  0
  7 25  1  0  0  0
  7 26  1  0  0  0
  8  9  1  0  0  0
  8 27  1  0  0  0
  8 28  1  0  0  0
  9 10  1  0  0  0
  9 29  1  0  0  0
  9 30  1  0  0  0
 10 31  1  0  0  0
 10 32  1  0  0  0
 11 12  2  0  0  0
 11 16  1  0  0  0
 12 13  1  0  0  0
 12 33  1  0  0  0
 13 14  2  0  0  0
 13 34  1  0  0  0
 14 15  1  0  0  0
 14 35  1  0  0  0
 15 16  2  0  0  0
 15 18  1  0  0  0
 16 17  1  0  0  0
 17 20  2  0  0  0
 17 36  1  0  0  0
 18 19  2  0  0  0
 18 37  1  0  0  0
 19 20  1  0  0  0
 20 38  1  0  0  0
M  CHG  1   7   1
M  END
> <s_m_source_file>
../2esm_ligand.sdf

> <i_m_source_file_index>
1

> <s_epik_input>
W2NIXTFuW2NIXVtjSF1jKGMxMiljKFtjSF1bY0hdW2NIXTIpUyg9TykoPU8pTjNbQ0gyXVtDSDJdW05IMitdW0NIMl1bQ0gyXVtDSDJdMw==

> <s_epik_cmdline>
J2VwaWtfYXBwJywgJy1pbWFlJywgJ2xpZ2FuZF9wcm8ubWFlJywgJy1vbWFlJywgJ2xpZ2FuZF9wcmVwLm1hZScsICctbXMnLCAnMScsICctcGgnLCAnNycsICctcGh0JywgJzAuNScsICctbnQn

> <r_lp_tautomer_probability>
1

> <r_epik_Ionization_Penalty>
  0.0088

> <r_epik_Ionization_Penalty_Charging>
  0.0081

> <r_epik_Ionization_Penalty_Neutral>
  0.0007

> <r_epik_State_Penalty>
 -0.0000

> <r_epik_Charging_Adjusted_Penalty>
0.00808172145150982

> <i_epik_Tot_Q>
1

> <i_epik_Tot_abs_Q>
1

$$$$
