2etk_ligand
                    3D
 Schrodinger Suite 2020-3.
 39 41  0  0  1  0            999 V2000
   50.1370   98.4500   24.9940 O   0  0  0  0  0  0
   50.2380   99.5810   25.5210 C   0  0  0  0  0  0
   49.9040  100.6800   24.8260 N   0  0  0  0  0  0
   49.9940  101.9200   25.3480 C   0  0  0  0  0  0
   50.4390  102.1680   26.6510 C   0  0  0  0  0  0
   50.8150  101.1100   27.4760 C   0  0  0  0  0  0
   51.3050  101.2740   28.8820 C   0  0  0  0  0  0
   51.6420  100.1120   29.5840 C   0  0  0  0  0  0
   51.5380   98.8390   29.0160 C   0  0  0  0  0  0
   51.0890   98.6440   27.7090 C   0  0  0  0  0  0
   50.7230   99.7330   26.9210 C   0  0  0  0  0  0
   51.4400  102.7120   29.5830 S   0  0  0  0  0  0
   52.1500  103.6120   28.7190 O   0  0  0  0  0  0
   50.1220  103.2420   29.7990 O   0  0  0  0  0  0
   52.1950  102.6000   30.9140 N   0  0  3  0  0  0
   53.6590  102.7090   30.9350 C   0  0  0  0  0  0
   54.0230  104.0180   31.6420 C   0  0  0  0  0  0
   53.8410  103.9030   33.1570 C   0  0  0  0  0  0
   52.4730  104.1420   33.6000 N   0  3  0  0  0  0
   51.2960  103.7010   32.8630 C   0  0  0  0  0  0
   51.4670  102.3510   32.1620 C   0  0  0  0  0  0
   49.5415  100.5875   23.7916 H   0  0  0  0  0  0
   49.7069  102.7680   24.7263 H   0  0  0  0  0  0
   50.4917  103.1916   27.0218 H   0  0  0  0  0  0
   51.9983  100.2024   30.6102 H   0  0  0  0  0  0
   51.8165   97.9707   29.6131 H   0  0  0  0  0  0
   51.0244   97.6346   27.3027 H   0  0  0  0  0  0
   54.0827  101.8518   31.4787 H   0  0  0  0  0  0
   54.0412  102.7141   29.9035 H   0  0  0  0  0  0
   55.0742  104.2668   31.4344 H   0  0  0  0  0  0
   53.3751  104.8266   31.2728 H   0  0  0  0  0  0
   54.1200  102.8905   33.4840 H   0  0  0  0  0  0
   54.4830  104.6408   33.6605 H   0  0  0  0  0  0
   52.3177  103.6700   34.5814 H   0  0  0  0  0  0
   52.2981  105.2249   33.6822 H   0  0  0  0  0  0
   50.4464  103.6012   33.5546 H   0  0  0  0  0  0
   51.0515  104.4404   32.0861 H   0  0  0  0  0  0
   50.4870  101.9072   31.9325 H   0  0  0  0  0  0
   52.0448  101.6584   32.7916 H   0  0  0  0  0  0
  1  2  2  0  0  0
  2  3  1  0  0  0
  2 11  1  0  0  0
  3  4  1  0  0  0
  3 22  1  0  0  0
  4  5  2  0  0  0
  4 23  1  0  0  0
  5  6  1  0  0  0
  5 24  1  0  0  0
  6  7  2  0  0  0
  6 11  1  0  0  0
  7  8  1  0  0  0
  7 12  1  0  0  0
  8  9  2  0  0  0
  8 25  1  0  0  0
  9 10  1  0  0  0
  9 26  1  0  0  0
 10 11  2  0  0  0
 10 27  1  0  0  0
 12 13  2  0  0  0
 12 14  2  0  0  0
 12 15  1  0  0  0
 15 16  1  0  0  0
 15 21  1  0  0  0
 16 17  1  0  0  0
 16 28  1  0  0  0
 16 29  1  0  0  0
 17 18  1  0  0  0
 17 30  1  0  0  0
 17 31  1  0  0  0
 18 19  1  0  0  0
 18 32  1  0  0  0
 18 33  1  0  0  0
 19 20  1  0  0  0
 19 34  1  0  0  0
 19 35  1  0  0  0
 20 21  1  0  0  0
 20 36  1  0  0  0
 20 37  1  0  0  0
 21 38  1  0  0  0
 21 39  1  0  0  0
M  CHG  1  19   1
M  END
> <s_m_source_file>
../2etk_ligand.sdf

> <i_m_source_file_index>
1

> <s_epik_input>
W2NIXTFbY0hdW25IXWMoPU8pYyhjMTIpW2NIXVtjSF1bY0hdYzJTKD1PKSg9TylOM1tDSDJdW0NIMl1bQ0gyXVtOSDIrXVtDSDJdW0NIMl0z

> <s_epik_cmdline>
J2VwaWtfYXBwJywgJy1pbWFlJywgJ2xpZ2FuZF9wcm8ubWFlJywgJy1vbWFlJywgJ2xpZ2FuZF9wcmVwLm1hZScsICctbXMnLCAnMScsICctcGgnLCAnNycsICctcGh0JywgJzAuNScsICctbnQn

> <r_lp_tautomer_probability>
1

> <r_epik_Ionization_Penalty>
  0.0086

> <r_epik_Ionization_Penalty_Charging>
  0.0086

> <r_epik_Ionization_Penalty_Neutral>
  0.0000

> <r_epik_State_Penalty>
 -0.0000

> <r_epik_Charging_Adjusted_Penalty>
0.00856955283340152

> <i_epik_Tot_Q>
1

> <i_epik_Tot_abs_Q>
1

$$$$
