2etr_ligand
                    3D
 Schrodinger Suite 2020-3.
 40 41  0  0  1  0            999 V2000
   50.2210  102.2230   28.6230 O   0  0  0  0  0  0
   51.0510  101.4790   29.1290 C   0  0  0  0  0  0
   51.8760  101.9220   30.3110 C   0  0  1  0  0  0
   52.8670  103.0170   29.9120 C   0  0  0  0  0  0
   53.7390  103.4220   31.1040 C   0  0  0  0  0  0
   52.9100  103.8740   32.3170 C   0  0  1  0  0  0
   51.8370  102.8340   32.6670 C   0  0  0  0  0  0
   50.9950  102.4390   31.4520 C   0  0  0  0  0  0
   53.7690  104.2330   33.5400 C   0  0  1  0  0  0
   54.6740  103.0980   34.0250 C   0  0  0  0  0  0
   54.5870  105.3960   33.2510 N   0  3  0  0  0  0
   51.3120  100.2310   28.7210 N   0  0  0  0  0  0
   50.9190   99.6340   27.5640 C   0  0  0  0  0  0
   50.4320  100.3340   26.4560 C   0  0  0  0  0  0
   50.0570   99.6300   25.3100 C   0  0  0  0  0  0
   50.1660   98.2910   25.2620 N   0  0  0  0  0  0
   50.6360   97.5930   26.3080 C   0  0  0  0  0  0
   51.0210   98.2460   27.4780 C   0  0  0  0  0  0
   52.4225  101.0285   30.6473 H   0  0  0  0  0  0
   53.5178  102.6466   29.1062 H   0  0  0  0  0  0
   52.3148  103.9009   29.5602 H   0  0  0  0  0  0
   54.3543  102.5652   31.4161 H   0  0  0  0  0  0
   54.3936  104.2567   30.8127 H   0  0  0  0  0  0
   52.4046  104.8051   32.0211 H   0  0  0  0  0  0
   52.3200  101.9260   33.0571 H   0  0  0  0  0  0
   51.1614  103.2469   33.4306 H   0  0  0  0  0  0
   50.4350  103.3224   31.1114 H   0  0  0  0  0  0
   50.2890  101.6520   31.7557 H   0  0  0  0  0  0
   53.0815  104.4964   34.3573 H   0  0  0  0  0  0
   54.0626  102.2109   34.2469 H   0  0  0  0  0  0
   55.2040  103.4151   34.9352 H   0  0  0  0  0  0
   55.4058  102.8523   33.2414 H   0  0  0  0  0  0
   53.9451  106.2180   32.9014 H   0  0  0  0  0  0
   55.3189  105.1444   32.4694 H   0  0  0  0  0  0
   55.1171  105.7073   34.1632 H   0  0  0  0  0  0
   51.9112   99.5595   29.3536 H   0  0  0  0  0  0
   50.3458  101.4202   26.4866 H   0  0  0  0  0  0
   49.6721  100.1714   24.4458 H   0  0  0  0  0  0
   50.7172   96.5080   26.2420 H   0  0  0  0  0  0
   51.4009   97.6728   28.3237 H   0  0  0  0  0  0
  1  2  2  0  0  0
  2  3  1  0  0  0
  2 12  1  0  0  0
  3  4  1  0  0  0
  3  8  1  0  0  0
  3 19  1  0  0  0
  4  5  1  0  0  0
  4 20  1  0  0  0
  4 21  1  0  0  0
  5  6  1  0  0  0
  5 22  1  0  0  0
  5 23  1  0  0  0
  6  7  1  0  0  0
  6  9  1  0  0  0
  6 24  1  0  0  0
  7  8  1  0  0  0
  7 25  1  0  0  0
  7 26  1  0  0  0
  8 27  1  0  0  0
  8 28  1  0  0  0
  9 10  1  0  0  0
  9 11  1  0  0  0
  9 29  1  0  0  0
 10 30  1  0  0  0
 10 31  1  0  0  0
 10 32  1  0  0  0
 11 33  1  0  0  0
 11 34  1  0  0  0
 11 35  1  0  0  0
 12 13  1  0  0  0
 12 36  1  0  0  0
 13 14  2  0  0  0
 13 18  1  0  0  0
 14 15  1  0  0  0
 14 37  1  0  0  0
 15 16  2  0  0  0
 15 38  1  0  0  0
 16 17  1  0  0  0
 17 18  2  0  0  0
 17 39  1  0  0  0
 18 40  1  0  0  0
M  CHG  1  11   1
M  END
> <s_m_source_file>
../2etr_ligand.sdf

> <i_m_source_file_index>
1

> <s_epik_input>
W0NIMl0xW0NIMl1bQ0BASF0oW0NAQEhdKFtDSDNdKVtOSDMrXSlbQ0gyXVtDSDJdW0NAQEhdMUMoPU8pW05IXWMyW2NIXVtjSF1uW2NIXVtjSF0y

> <s_epik_cmdline>
J2VwaWtfYXBwJywgJy1pbWFlJywgJ2xpZ2FuZF9wcm8ubWFlJywgJy1vbWFlJywgJ2xpZ2FuZF9wcmVwLm1hZScsICctbXMnLCAnMScsICctcGgnLCAnNycsICctcGh0JywgJzAuNScsICctbnQn

> <r_lp_tautomer_probability>
1

> <r_epik_Ionization_Penalty>
  0.0038

> <r_epik_Ionization_Penalty_Charging>
  0.0004

> <r_epik_Ionization_Penalty_Neutral>
  0.0035

> <r_epik_State_Penalty>
 -0.0000

> <r_epik_Charging_Adjusted_Penalty>
0.000353003559528669

> <i_epik_Tot_Q>
1

> <i_epik_Tot_abs_Q>
1

$$$$
