2eum_ligand
                    3D
 Schrodinger Suite 2020-3.
126127  0  0  1  0            999 V2000
   25.8640    4.6460   17.4650 C   0  0  2  0  0  0
   25.2490    5.7780   18.2860 C   0  0  1  0  0  0
   26.3210    6.8080   18.6700 C   0  0  2  0  0  0
   27.5250    6.1170   19.3180 C   0  0  2  0  0  0
   27.9740    4.9940   18.3790 C   0  0  1  0  0  0
   29.2470    4.2700   18.8030 C   0  0  0  0  0  0
   24.9230    3.6620   17.0940 O   0  0  0  0  0  0
   24.2490    6.3890   17.5110 O   0  0  0  0  0  0
   25.7900    7.8130   19.5120 O   0  0  0  0  0  0
   27.1970    5.6300   20.6050 O   0  0  0  0  0  0
   26.9300    4.0550   18.1710 O   0  0  0  0  0  0
   29.8360    3.7960   17.6030 O   0  0  0  0  0  0
   23.0680    0.4620   19.0850 C   0  0  1  0  0  0
   22.2710    1.7800   18.9350 C   0  0  1  0  0  0
   22.9050    2.8030   17.9950 C   0  0  2  0  0  0
   24.4280    2.7250   18.0200 C   0  0  1  0  0  0
   24.8770    1.3300   17.5750 C   0  0  1  0  0  0
   26.3930    1.1380   17.7220 C   0  0  0  0  0  0
   22.2120   -0.6450   18.9530 O   0  0  0  0  0  0
   20.9330    1.5440   18.5410 O   0  0  0  0  0  0
   22.4600    4.1050   18.3100 O   0  0  0  0  0  0
   24.1990    0.2550   18.2350 O   0  0  0  0  0  0
   26.7820    0.0230   16.9410 O   0  0  0  0  0  0
   22.4550   -1.9540   18.8780 C   0  0  0  0  0  0
   21.4090   -2.8080   19.5940 C   0  0  2  0  0  0
   20.0710   -2.4560   19.1420 N   0  3  0  0  0  0
   21.4890   -2.7060   21.1180 C   0  0  2  0  0  0
   22.7740   -3.1820   21.5490 O   0  0  0  0  0  0
   20.3670   -3.4920   21.8030 C   0  0  0  0  0  0
   19.6240   -2.9360   22.7680 C   0  0  0  0  0  0
   18.6120   -3.7680   23.5650 C   0  0  0  0  0  0
   19.1370   -4.2180   24.9380 C   0  0  0  0  0  0
   19.9870   -5.4950   24.8630 C   0  0  0  0  0  0
   21.2270   -5.4280   25.7440 C   0  0  0  0  0  0
   21.1970   -6.5340   26.7970 C   0  0  0  0  0  0
   21.9660   -6.1340   28.0510 C   0  0  0  0  0  0
   21.4340   -6.8580   29.2820 C   0  0  0  0  0  0
   21.8150   -6.1620   30.5900 C   0  0  0  0  0  0
   22.9020   -6.9260   31.3480 C   0  0  0  0  0  0
   22.3400   -7.8550   32.4240 C   0  0  0  0  0  0
   21.8090   -7.1110   33.6480 C   0  0  0  0  0  0
   21.6820   -8.0150   34.8730 C   0  0  0  0  0  0
   21.5260   -7.1820   36.1290 C   0  0  0  0  0  0
   19.0360   -2.5980   18.4380 C   0  0  2  0  0  0
   17.5450   -2.3030   18.3650 C   0  0  0  0  0  0
   16.8930   -2.5890   19.7090 C   0  0  0  0  0  0
   15.3880   -2.3970   19.6010 C   0  0  0  0  0  0
   14.6580   -3.5830   20.2090 C   0  0  0  0  0  0
   13.2750   -3.7200   19.5940 C   0  0  0  0  0  0
   12.6240   -4.9830   20.1380 C   0  0  0  0  0  0
   11.3670   -4.6310   20.9080 C   0  0  0  0  0  0
   19.2560   -4.0090   18.5970 O   0  0  0  0  0  0
   26.2688    5.0120   16.5099 H   0  0  0  0  0  0
   24.7395    5.4005   19.1848 H   0  0  0  0  0  0
   26.6398    7.3801   17.7862 H   0  0  0  0  0  0
   28.3456    6.8134   19.5453 H   0  0  0  0  0  0
   28.1610    5.4531   17.3970 H   0  0  0  0  0  0
   29.9124    4.9735   19.3248 H   0  0  0  0  0  0
   28.9895    3.4401   19.4775 H   0  0  0  0  0  0
   23.3971    5.7965   17.1459 H   0  0  0  0  0  0
   24.9194    8.4008   19.1854 H   0  0  0  0  0  0
   26.8573    6.3259   21.3863 H   0  0  0  0  0  0
   30.7795    3.2317   17.6390 H   0  0  0  0  0  0
   23.5286    0.4585   20.0839 H   0  0  0  0  0  0
   22.1924    2.2290   19.9361 H   0  0  0  0  0  0
   22.5484    2.6416   16.9670 H   0  0  0  0  0  0
   24.8367    2.9932   19.0054 H   0  0  0  0  0  0
   24.5522    1.2231   16.5295 H   0  0  0  0  0  0
   26.9127    2.0418   17.3714 H   0  0  0  0  0  0
   26.6393    0.9603   18.7792 H   0  0  0  0  0  0
   20.3116    0.8316   19.1034 H   0  0  0  0  0  0
   21.3830    4.3273   18.3344 H   0  0  0  0  0  0
   27.8375   -0.2850   16.9094 H   0  0  0  0  0  0
   22.4686   -2.2645   17.8228 H   0  0  0  0  0  0
   23.4303   -2.1728   19.3372 H   0  0  0  0  0  0
   21.5790   -3.8566   19.3086 H   0  0  0  0  0  0
   19.3721   -2.5077   19.9899 H   0  0  0  0  0  0
   20.0785   -1.4342   18.7348 H   0  0  0  0  0  0
   21.4250   -1.6539   21.4327 H   0  0  0  0  0  0
   23.6918   -2.7238   21.1519 H   0  0  0  0  0  0
   20.1760   -4.5292   21.4905 H   0  0  0  0  0  0
   19.7344   -1.8664   22.9997 H   0  0  0  0  0  0
   17.7033   -3.1727   23.7381 H   0  0  0  0  0  0
   18.3541   -4.6741   22.9972 H   0  0  0  0  0  0
   19.7633   -3.4233   25.3695 H   0  0  0  0  0  0
   18.2876   -4.4195   25.6073 H   0  0  0  0  0  0
   19.3859   -6.3554   25.1922 H   0  0  0  0  0  0
   20.3185   -5.6545   23.8263 H   0  0  0  0  0  0
   22.1258   -5.5518   25.1220 H   0  0  0  0  0  0
   21.2639   -4.4529   26.2517 H   0  0  0  0  0  0
   20.1547   -6.7426   27.0800 H   0  0  0  0  0  0
   21.6544   -7.4455   26.3846 H   0  0  0  0  0  0
   23.0286   -6.3900   27.9268 H   0  0  0  0  0  0
   21.8663   -5.0505   28.2123 H   0  0  0  0  0  0
   20.3361   -6.9049   29.2338 H   0  0  0  0  0  0
   21.8435   -7.8785   29.3128 H   0  0  0  0  0  0
   22.1928   -5.1523   30.3715 H   0  0  0  0  0  0
   20.9294   -6.0898   31.2384 H   0  0  0  0  0  0
   23.4771   -7.5427   30.6416 H   0  0  0  0  0  0
   23.5755   -6.2109   31.8429 H   0  0  0  0  0  0
   21.5078   -8.4399   32.0052 H   0  0  0  0  0  0
   23.1308   -8.5375   32.7687 H   0  0  0  0  0  0
   22.4942   -6.2892   33.9033 H   0  0  0  0  0  0
   20.8127   -6.7017   33.4246 H   0  0  0  0  0  0
   20.8002   -8.6630   34.7607 H   0  0  0  0  0  0
   22.5847   -8.6369   34.9650 H   0  0  0  0  0  0
   21.4359   -7.8466   37.0009 H   0  0  0  0  0  0
   20.6222   -6.5604   36.0468 H   0  0  0  0  0  0
   22.4066   -6.5343   36.2511 H   0  0  0  0  0  0
   19.2394   -1.7584   17.7570 H   0  0  0  0  0  0
   17.3929   -1.2447   18.1064 H   0  0  0  0  0  0
   17.0827   -2.9386   17.5954 H   0  0  0  0  0  0
   17.1075   -3.6258   20.0073 H   0  0  0  0  0  0
   17.2949   -1.8992   20.4657 H   0  0  0  0  0  0
   15.0956   -1.4826   20.1380 H   0  0  0  0  0  0
   15.1049   -2.3066   18.5419 H   0  0  0  0  0  0
   15.2298   -4.5030   20.0174 H   0  0  0  0  0  0
   14.5562   -3.4339   21.2941 H   0  0  0  0  0  0
   12.6674   -2.8420   19.8587 H   0  0  0  0  0  0
   13.3653   -3.7870   18.4998 H   0  0  0  0  0  0
   12.3611   -5.6489   19.3028 H   0  0  0  0  0  0
   13.3267   -5.4975   20.8099 H   0  0  0  0  0  0
   10.9052   -5.5508   21.2963 H   0  0  0  0  0  0
   10.6589   -4.1191   20.2397 H   0  0  0  0  0  0
   11.6245   -3.9677   21.7468 H   0  0  0  0  0  0
   20.2812   -4.4013   18.6677 H   0  0  0  0  0  0
  1  2  1  0  0  0
  1  7  1  0  0  0
  1 11  1  0  0  0
  1 53  1  0  0  0
  2  3  1  0  0  0
  2  8  1  0  0  0
  2 54  1  0  0  0
  3  4  1  0  0  0
  3  9  1  0  0  0
  3 55  1  0  0  0
  4  5  1  0  0  0
  4 10  1  0  0  0
  4 56  1  0  0  0
  5  6  1  0  0  0
  5 11  1  0  0  0
  5 57  1  0  0  0
  6 12  1  0  0  0
  6 58  1  0  0  0
  6 59  1  0  0  0
  7 16  1  0  0  0
  8 60  1  0  0  0
  9 61  1  0  0  0
 10 62  1  0  0  0
 12 63  1  0  0  0
 13 14  1  0  0  0
 13 19  1  0  0  0
 13 22  1  0  0  0
 13 64  1  0  0  0
 14 15  1  0  0  0
 14 20  1  0  0  0
 14 65  1  0  0  0
 15 16  1  0  0  0
 15 21  1  0  0  0
 15 66  1  0  0  0
 16 17  1  0  0  0
 16 67  1  0  0  0
 17 18  1  0  0  0
 17 22  1  0  0  0
 17 68  1  0  0  0
 18 23  1  0  0  0
 18 69  1  0  0  0
 18 70  1  0  0  0
 19 24  1  0  0  0
 20 71  1  0  0  0
 21 72  1  0  0  0
 23 73  1  0  0  0
 24 25  1  0  0  0
 24 74  1  0  0  0
 24 75  1  0  0  0
 25 26  1  0  0  0
 25 27  1  0  0  0
 25 76  1  0  0  0
 26 44  1  0  0  0
 26 77  1  0  0  0
 26 78  1  0  0  0
 27 28  1  0  0  0
 27 29  1  0  0  0
 27 79  1  0  0  0
 28 80  1  0  0  0
 29 30  2  0  0  0
 29 81  1  0  0  0
 30 31  1  0  0  0
 30 82  1  0  0  0
 31 32  1  0  0  0
 31 83  1  0  0  0
 31 84  1  0  0  0
 32 33  1  0  0  0
 32 85  1  0  0  0
 32 86  1  0  0  0
 33 34  1  0  0  0
 33 87  1  0  0  0
 33 88  1  0  0  0
 34 35  1  0  0  0
 34 89  1  0  0  0
 34 90  1  0  0  0
 35 36  1  0  0  0
 35 91  1  0  0  0
 35 92  1  0  0  0
 36 37  1  0  0  0
 36 93  1  0  0  0
 36 94  1  0  0  0
 37 38  1  0  0  0
 37 95  1  0  0  0
 37 96  1  0  0  0
 38 39  1  0  0  0
 38 97  1  0  0  0
 38 98  1  0  0  0
 39 40  1  0  0  0
 39 99  1  0  0  0
 39100  1  0  0  0
 40 41  1  0  0  0
 40101  1  0  0  0
 40102  1  0  0  0
 41 42  1  0  0  0
 41103  1  0  0  0
 41104  1  0  0  0
 42 43  1  0  0  0
 42105  1  0  0  0
 42106  1  0  0  0
 43107  1  0  0  0
 43108  1  0  0  0
 43109  1  0  0  0
 44 45  1  0  0  0
 44 52  1  0  0  0
 44110  1  0  0  0
 45 46  1  0  0  0
 45111  1  0  0  0
 45112  1  0  0  0
 46 47  1  0  0  0
 46113  1  0  0  0
 46114  1  0  0  0
 47 48  1  0  0  0
 47115  1  0  0  0
 47116  1  0  0  0
 48 49  1  0  0  0
 48117  1  0  0  0
 48118  1  0  0  0
 49 50  1  0  0  0
 49119  1  0  0  0
 49120  1  0  0  0
 50 51  1  0  0  0
 50121  1  0  0  0
 50122  1  0  0  0
 51123  1  0  0  0
 51124  1  0  0  0
 51125  1  0  0  0
 52126  1  0  0  0
M  CHG  1  26   1
M  END
> <s_m_source_file>
../2eum_ligand.sdf

> <i_m_source_file_index>
1

> <s_epik_input>
W09IXVtDSDJdW0NAQEhdKE8xKVtDQEhdKFtPSF0pW0NASF0oW09IXSlbQ0BASF0oW09IXSlbQ0BASF0xT1tDQEhdKFtDQEhdKE8yKVtDSDJdW09IXSlbQ0BIXShbT0hdKVtDQEBIXShbT0hdKVtDQEhdMk9bQ0gyXVtDQEhdKFtOSDIrXVtDQEBIXShbT0hdKVtDSDJdW0NIMl1bQ0gyXVtDSDJdW0NIMl1bQ0gyXVtDSDNdKVtDQEhdKFtPSF0pL1tDSF09W0NIXS9bQ0gyXVtDSDJdW0NIMl1bQ0gyXVtDSDJdW0NIMl1bQ0gyXVtDSDJdW0NIMl1bQ0gyXVtDSDJdW0NIMl1bQ0gzXQ==

> <s_epik_cmdline>
J2VwaWtfYXBwJywgJy1pbWFlJywgJ2xpZ2FuZF9wcm8ubWFlJywgJy1vbWFlJywgJ2xpZ2FuZF9wcmVwLm1hZScsICctbXMnLCAnMScsICctcGgnLCAnNycsICctcGh0JywgJzAuNScsICctbnQn

> <r_epik_Ionization_Penalty>
  0.1082

> <r_epik_Ionization_Penalty_Charging>
  0.0770

> <r_epik_Ionization_Penalty_Neutral>
  0.0311

> <r_epik_State_Penalty>
  0.0910

> <r_epik_Charging_Adjusted_Penalty>
0.167997870238656

> <i_epik_Tot_Q>
1

> <i_epik_Tot_abs_Q>
1

> <s_epik_Chemistry_Notes>
This compound contains an acetal/aminal-like group ( X-CH(R)-Y where X, Y are N, S, or O) that may be acid/base labile, releasing an aldehyde.

$$$$
