2evm_ligand
                    3D
 Schrodinger Suite 2020-3.
 21 22  0  0  1  0            999 V2000
   -1.7070   -0.8130    8.3700 O   0  0  0  0  0  0
   -0.6130   -0.5690    9.1090 C   0  0  0  0  0  0
    0.7290   -0.4710    8.5280 C   0  0  0  0  0  0
    0.8520   -0.6230    7.2880 O   0  5  0  0  0  0
   -1.0000   -0.4430   10.4300 C   0  0  0  0  0  0
   -2.4190   -0.6300   10.4580 C   0  0  0  0  0  0
   -2.8070   -0.8550    9.1550 C   0  0  0  0  0  0
    1.7290   -0.2460    9.2360 O   0  0  0  0  0  0
   -4.1450   -1.1170    8.5930 C   0  0  0  0  0  0
   -5.3680   -0.5780    9.1260 C   0  0  0  0  0  0
   -6.5990   -0.9010    8.4890 C   0  0  0  0  0  0
   -6.6170   -1.7440    7.3370 C   0  0  0  0  0  0
   -5.4070   -2.2650    6.8180 C   0  0  0  0  0  0
   -4.1820   -1.9550    7.4420 C   0  0  0  0  0  0
   -5.3810    0.4410   10.4970 Cl  0  0  0  0  0  0
   -5.4010   -3.2710    5.4330 Cl  0  0  0  0  0  0
   -0.3520   -0.2409   11.2829 H   0  0  0  0  0  0
   -3.0645   -0.6003   11.3358 H   0  0  0  0  0  0
   -7.5338   -0.5023    8.8831 H   0  0  0  0  0  0
   -7.5644   -1.9871    6.8559 H   0  0  0  0  0  0
   -3.2537   -2.3606    7.0398 H   0  0  0  0  0  0
  1  2  1  0  0  0
  1  7  1  0  0  0
  2  3  1  0  0  0
  2  5  2  0  0  0
  3  4  1  0  0  0
  3  8  2  0  0  0
  5  6  1  0  0  0
  5 17  1  0  0  0
  6  7  2  0  0  0
  6 18  1  0  0  0
  7  9  1  0  0  0
  9 10  2  0  0  0
  9 14  1  0  0  0
 10 11  1  0  0  0
 10 15  1  0  0  0
 11 12  2  0  0  0
 11 19  1  0  0  0
 12 13  1  0  0  0
 12 20  1  0  0  0
 13 14  2  0  0  0
 13 16  1  0  0  0
 14 21  1  0  0  0
M  CHG  1   4  -1
M  END
> <s_m_source_file>
../2evm_ligand.sdf

> <i_m_source_file_index>
1

> <s_epik_input>
W09IXUMoPU8pYzFvYyhbY0hdW2NIXTEpLWMyYyhDbClbY0hdW2NIXWMoQ2wpW2NIXTI=

> <s_epik_cmdline>
J2VwaWtfYXBwJywgJy1pbWFlJywgJ2xpZ2FuZF9wcm8ubWFlJywgJy1vbWFlJywgJ2xpZ2FuZF9wcmVwLm1hZScsICctbXMnLCAnMScsICctcGgnLCAnNycsICctcGh0JywgJzAuNScsICctbnQn

> <r_lp_tautomer_probability>
1

> <r_epik_Ionization_Penalty>
  0.0001

> <r_epik_Ionization_Penalty_Charging>
  0.0001

> <r_epik_Ionization_Penalty_Neutral>
  0.0000

> <r_epik_State_Penalty>
 -0.0000

> <r_epik_Charging_Adjusted_Penalty>
5.74985441322461e-05

> <i_epik_Tot_Q>
-1

> <i_epik_Tot_abs_Q>
1

$$$$
