2evo_ligand
                    3D
 Schrodinger Suite 2020-3.
 29 30  0  0  1  0            999 V2000
    8.1480   -0.2440   73.8210 O   0  0  0  0  0  0
    8.3050   -0.4570   72.5990 C   0  0  0  0  0  0
    9.2150    0.2700   71.8470 N   0  0  0  0  0  0
    9.9890    1.2540   72.3700 C   0  0  0  0  0  0
   10.8820    1.9860   71.6980 N   0  0  0  0  0  0
   10.0100    1.7810   73.9600 S   0  0  0  0  0  0
   11.1680    2.9650   73.8200 C   0  0  0  0  0  0
   11.5570    2.9520   72.4880 C   0  0  0  0  0  0
    7.6440   -1.7260   70.7170 O   0  0  0  0  0  0
    7.4940   -1.5100   71.9340 C   0  0  0  0  0  0
    6.5890   -2.2280   72.6770 N   0  0  0  0  0  0
    5.7520   -3.2800   72.0740 C   0  0  0  0  0  0
    6.0670   -4.7380   72.4580 C   0  0  0  0  0  0
    4.2490   -3.2100   72.3850 C   0  0  0  0  0  0
    4.0900   -3.9810   73.7040 C   0  0  0  0  0  0
    5.2700   -4.9710   73.7570 C   0  0  0  0  0  0
    9.3347    0.0592   70.7740 H   0  0  0  0  0  0
   11.5435    3.6158   74.6096 H   0  0  0  0  0  0
   12.3141    3.6244   72.0844 H   0  0  0  0  0  0
    6.4982   -2.0001   73.7493 H   0  0  0  0  0  0
    6.0306   -3.0133   71.0438 H   0  0  0  0  0  0
    5.7413   -5.4087   71.6492 H   0  0  0  0  0  0
    7.1501   -4.8504   72.6137 H   0  0  0  0  0  0
    3.9442   -2.1580   72.4865 H   0  0  0  0  0  0
    3.6829   -3.6783   71.5663 H   0  0  0  0  0  0
    4.1230   -3.2755   74.5473 H   0  0  0  0  0  0
    3.1254   -4.5097   73.7057 H   0  0  0  0  0  0
    4.9177   -6.0126   73.7892 H   0  0  0  0  0  0
    5.9176   -4.7760   74.6245 H   0  0  0  0  0  0
  1  2  2  0  0  0
  2  3  1  0  0  0
  2 10  1  0  0  0
  3  4  1  0  0  0
  3 17  1  0  0  0
  4  5  2  0  0  0
  4  6  1  0  0  0
  5  8  1  0  0  0
  6  7  1  0  0  0
  7  8  2  0  0  0
  7 18  1  0  0  0
  8 19  1  0  0  0
  9 10  2  0  0  0
 10 11  1  0  0  0
 11 12  1  0  0  0
 11 20  1  0  0  0
 12 13  1  0  0  0
 12 14  1  0  0  0
 12 21  1  0  0  0
 13 16  1  0  0  0
 13 22  1  0  0  0
 13 23  1  0  0  0
 14 15  1  0  0  0
 14 24  1  0  0  0
 14 25  1  0  0  0
 15 16  1  0  0  0
 15 26  1  0  0  0
 15 27  1  0  0  0
 16 28  1  0  0  0
 16 29  1  0  0  0
M  END
> <s_m_source_file>
../2evo_ligand.sdf

> <i_m_source_file_index>
1

> <s_epik_input>
czFbY0hdW2NIXW5jMVtOSF1DKD1PKUMoPU8pW05IXVtDSF0yW0NIMl1bQ0gyXVtDSDJdW0NIMl0y

> <s_epik_cmdline>
J2VwaWtfYXBwJywgJy1pbWFlJywgJ2xpZ2FuZF9wcm8ubWFlJywgJy1vbWFlJywgJ2xpZ2FuZF9wcmVwLm1hZScsICctbXMnLCAnMScsICctcGgnLCAnNycsICctcGh0JywgJzAuNScsICctbnQn

> <r_lp_tautomer_probability>
1

> <r_epik_Ionization_Penalty>
  0.0374

> <r_epik_Ionization_Penalty_Charging>
  0.0000

> <r_epik_Ionization_Penalty_Neutral>
  0.0374

> <r_epik_State_Penalty>
 -0.0000

> <r_epik_Charging_Adjusted_Penalty>
0

> <i_epik_Tot_Q>
0

> <i_epik_Tot_abs_Q>
0

$$$$
