2ew6_ligand
                    3D
 Schrodinger Suite 2020-3.
 39 40  0  0  1  0            999 V2000
  -53.5650  -92.9760  101.8340 C   0  0  0  0  0  0
  -52.2630  -93.4760  101.7900 O   0  0  0  0  0  0
  -53.8990  -91.7290  101.2340 C   0  0  0  0  0  0
  -55.2320  -91.2440  101.2920 C   0  0  0  0  0  0
  -56.2470  -91.9960  101.9500 C   0  0  0  0  0  0
  -57.6850  -91.4660  102.0040 C   0  0  0  0  0  0
  -58.5160  -92.0950  100.8640 C   0  0  0  0  0  0
  -58.1290  -91.4580   99.6030 N   0  0  0  0  0  0
  -58.7450  -91.8940   98.5500 C   0  0  0  0  0  0
  -58.3820  -91.2670   97.2450 C   0  0  0  0  0  0
  -58.9350  -91.6130   96.0560 C   0  0  0  0  0  0
  -58.6220  -91.0030   94.6880 C   0  0  0  0  0  0
  -59.2490  -91.5870   93.5430 C   0  0  0  0  0  0
  -59.0130  -91.0730   92.2360 C   0  0  0  0  0  0
  -58.1410  -89.9590   92.0430 C   0  0  0  0  0  0
  -57.8990  -89.4420   90.7530 O   0  0  0  0  0  0
  -57.5040  -89.3610   93.1800 C   0  0  0  0  0  0
  -56.6500  -88.2720   92.9900 O   0  0  0  0  0  0
  -57.7460  -89.8830   94.4910 C   0  0  0  0  0  0
  -59.6000  -92.7830   98.5750 O   0  0  0  0  0  0
  -55.9120  -93.2430  102.5520 C   0  0  0  0  0  0
  -54.5760  -93.7280  102.4930 C   0  0  0  0  0  0
  -51.4712  -92.9046  101.2835 H   0  0  0  0  0  0
  -53.1295  -91.1452  100.7289 H   0  0  0  0  0  0
  -55.4806  -90.2888  100.8294 H   0  0  0  0  0  0
  -58.1366  -91.7291  102.9719 H   0  0  0  0  0  0
  -57.6772  -90.3721  101.8883 H   0  0  0  0  0  0
  -58.3149  -93.1754  100.8168 H   0  0  0  0  0  0
  -59.5864  -91.9293  101.0560 H   0  0  0  0  0  0
  -57.3635  -90.6681   99.5981 H   0  0  0  0  0  0
  -57.6154  -90.4792   97.2865 H   0  0  0  0  0  0
  -59.6929  -92.4091   96.0128 H   0  0  0  0  0  0
  -59.9174  -92.4382   93.6726 H   0  0  0  0  0  0
  -59.5014  -91.5332   91.3771 H   0  0  0  0  0  0
  -58.3854  -89.8974   89.8778 H   0  0  0  0  0  0
  -56.4735  -87.8816   91.9768 H   0  0  0  0  0  0
  -57.2585  -89.4238   95.3510 H   0  0  0  0  0  0
  -56.6807  -93.8265  103.0587 H   0  0  0  0  0  0
  -54.3256  -94.6825  102.9561 H   0  0  0  0  0  0
  1  2  1  0  0  0
  1  3  2  0  0  0
  1 22  1  0  0  0
  2 23  1  0  0  0
  3  4  1  0  0  0
  3 24  1  0  0  0
  4  5  2  0  0  0
  4 25  1  0  0  0
  5  6  1  0  0  0
  5 21  1  0  0  0
  6  7  1  0  0  0
  6 26  1  0  0  0
  6 27  1  0  0  0
  7  8  1  0  0  0
  7 28  1  0  0  0
  7 29  1  0  0  0
  8  9  1  0  0  0
  8 30  1  0  0  0
  9 10  1  0  0  0
  9 20  2  0  0  0
 10 11  2  0  0  0
 10 31  1  0  0  0
 11 12  1  0  0  0
 11 32  1  0  0  0
 12 13  2  0  0  0
 12 19  1  0  0  0
 13 14  1  0  0  0
 13 33  1  0  0  0
 14 15  2  0  0  0
 14 34  1  0  0  0
 15 16  1  0  0  0
 15 17  1  0  0  0
 16 35  1  0  0  0
 17 18  1  0  0  0
 17 19  2  0  0  0
 18 36  1  0  0  0
 19 37  1  0  0  0
 21 22  2  0  0  0
 21 38  1  0  0  0
 22 39  1  0  0  0
M  END
> <s_m_source_file>
../2ew6_ligand.sdf

> <i_m_source_file_index>
1

> <s_epik_input>
W09IXWMxW2NIXVtjSF1jKFtjSF1bY0hdMSlbQ0gyXVtDSDJdW05IXUMoPU8pL1tDSF09W0NIXS9jMltjSF1bY0hdYyhbT0hdKWMoW09IXSlbY0hdMg==

> <s_epik_cmdline>
J2VwaWtfYXBwJywgJy1pbWFlJywgJ2xpZ2FuZF9wcm8ubWFlJywgJy1vbWFlJywgJ2xpZ2FuZF9wcmVwLm1hZScsICctbXMnLCAnMScsICctcGgnLCAnNycsICctcGh0JywgJzAuNScsICctbnQn

> <r_lp_tautomer_probability>
0.999999999997365

> <r_epik_Ionization_Penalty>
  0.0956

> <r_epik_Ionization_Penalty_Charging>
  0.0000

> <r_epik_Ionization_Penalty_Neutral>
  0.0956

> <r_epik_State_Penalty>
  0.0830

> <r_epik_Charging_Adjusted_Penalty>
0.0829617218716956

> <i_epik_Tot_Q>
0

> <i_epik_Tot_abs_Q>
0

$$$$
