2ewb_ligand
                    3D
 Schrodinger Suite 2020-3.
 39 40  0  0  1  0            999 V2000
   70.8920   50.9340   21.6910 C   0  0  0  0  0  0
   69.5490   50.6460   21.9880 C   0  0  0  0  0  0
   69.2400   49.4540   22.6750 C   0  0  0  0  0  0
   70.2630   48.5460   23.0640 C   0  0  0  0  0  0
   71.6150   48.8420   22.7620 C   0  0  0  0  0  0
   71.9330   50.0410   22.0750 C   0  0  0  0  0  0
   66.2400   49.9210   19.6000 C   0  0  2  0  0  0
   65.8970   49.4130   21.0150 C   0  0  0  0  0  0
   67.7420   49.9840   19.3070 C   0  0  0  0  0  0
   68.1060   51.4100   19.7000 C   0  0  1  0  0  0
   66.9760   52.1600   19.0450 C   0  0  0  0  0  0
   62.6680   53.2860   19.3200 C   0  0  0  0  0  0
   64.0380   52.9360   18.6940 C   0  0  1  0  0  0
   64.4920   51.5100   19.0410 C   0  0  0  0  0  0
   64.0020   53.2110   17.1850 C   0  0  0  0  0  0
   66.1820   48.2540   21.3310 O   0  0  0  0  0  0
   65.3420   50.1800   21.8110 O   0  5  0  0  0  0
   63.6610   50.5940   19.0620 O   0  0  0  0  0  0
   65.8040   51.3010   19.3300 N   0  0  0  0  0  0
   68.2350   51.7890   21.4790 S   0  0  0  0  0  0
   63.0650   52.0510   16.2040 S   0  0  0  0  0  0
   71.1403   51.8528   21.1598 H   0  0  0  0  0  0
   68.2009   49.2250   22.9116 H   0  0  0  0  0  0
   70.0081   47.6270   23.5918 H   0  0  0  0  0  0
   72.4061   48.1522   23.0560 H   0  0  0  0  0  0
   72.9709   50.2785   21.8415 H   0  0  0  0  0  0
   65.6942   49.2151   18.9568 H   0  0  0  0  0  0
   68.2658   49.2307   19.9137 H   0  0  0  0  0  0
   67.9163   49.7812   18.2400 H   0  0  0  0  0  0
   69.0583   51.6172   19.1900 H   0  0  0  0  0  0
   66.8894   53.1596   19.4959 H   0  0  0  0  0  0
   67.1776   52.2597   17.9682 H   0  0  0  0  0  0
   62.6977   53.0876   20.4016 H   0  0  0  0  0  0
   61.8844   52.6695   18.8555 H   0  0  0  0  0  0
   62.4475   54.3499   19.1483 H   0  0  0  0  0  0
   64.8110   53.5864   19.1292 H   0  0  0  0  0  0
   63.5537   54.1988   17.0029 H   0  0  0  0  0  0
   65.0264   53.1939   16.7846 H   0  0  0  0  0  0
   62.9940   52.1836   15.1143 H   0  0  0  0  0  0
  1  2  2  0  0  0
  1  6  1  0  0  0
  1 22  1  0  0  0
  2  3  1  0  0  0
  2 20  1  0  0  0
  3  4  2  0  0  0
  3 23  1  0  0  0
  4  5  1  0  0  0
  4 24  1  0  0  0
  5  6  2  0  0  0
  5 25  1  0  0  0
  6 26  1  0  0  0
  7  8  1  0  0  0
  7  9  1  0  0  0
  7 19  1  0  0  0
  7 27  1  0  0  0
  8 16  2  0  0  0
  8 17  1  0  0  0
  9 10  1  0  0  0
  9 28  1  0  0  0
  9 29  1  0  0  0
 10 11  1  0  0  0
 10 20  1  0  0  0
 10 30  1  0  0  0
 11 19  1  0  0  0
 11 31  1  0  0  0
 11 32  1  0  0  0
 12 13  1  0  0  0
 12 33  1  0  0  0
 12 34  1  0  0  0
 12 35  1  0  0  0
 13 14  1  0  0  0
 13 15  1  0  0  0
 13 36  1  0  0  0
 14 18  2  0  0  0
 14 19  1  0  0  0
 15 21  1  0  0  0
 15 37  1  0  0  0
 15 38  1  0  0  0
 21 39  1  0  0  0
M  CHG  1  17  -1
M  END
> <s_m_source_file>
../2ewb_ligand.sdf

> <i_m_source_file_index>
1

> <s_epik_input>
W2NIXTFbY0hdW2NIXVtjSF1bY0hdYzFTW0NAQEhdKFtDSDJdW0NASF0yQyg9TylbT0hdKVtDSDJdTjJDKD1PKVtDQEhdKFtDSDNdKVtDSDJdW1NIXQ==

> <s_epik_cmdline>
J2VwaWtfYXBwJywgJy1pbWFlJywgJ2xpZ2FuZF9wcm8ubWFlJywgJy1vbWFlJywgJ2xpZ2FuZF9wcmVwLm1hZScsICctbXMnLCAnMScsICctcGgnLCAnNycsICctcGh0JywgJzAuNScsICctbnQn

> <r_lp_tautomer_probability>
1

> <r_epik_Ionization_Penalty>
  0.0025

> <r_epik_Ionization_Penalty_Charging>
  0.0003

> <r_epik_Ionization_Penalty_Neutral>
  0.0022

> <r_epik_State_Penalty>
 -0.0000

> <r_epik_Charging_Adjusted_Penalty>
0.000288305066441907

> <i_epik_Tot_Q>
-1

> <i_epik_Tot_abs_Q>
1

$$$$
