2ews_ligand
                    3D
 Schrodinger Suite 2020-3.
 44 46  0  0  1  0            999 V2000
   19.1260   24.5240   -0.4790 P   0  0  0  0  0  0
   19.5070   25.4890    0.6100 O   0  5  0  0  0  0
   18.6610   23.2060    0.0600 O   0  0  0  0  0  0
   20.3230   24.1550   -1.3870 O   0  5  0  0  0  0
   17.1640   24.8150   -2.7860 P   0  0  1  0  0  0
   17.7180   23.6320   -3.3500 O   0  0  0  0  0  0
   15.6650   24.6830   -2.5850 O   0  5  0  0  0  0
   17.8700   25.2100   -1.3140 N   0  0  1  0  0  0
   17.1730   26.2570   -5.3440 P   0  0  1  0  0  0
   18.5210   26.1740   -6.1390 O   0  5  0  0  0  0
   16.1420   25.2760   -5.8070 O   0  0  0  0  0  0
   17.4840   26.0520   -3.7800 O   0  0  0  0  0  0
   12.5270   29.5350   -7.6100 N   0  0  0  0  0  0
   12.5850   29.0810   -8.8600 C   0  0  0  0  0  0
   11.4750   28.4930   -9.2730 N   0  0  0  0  0  0
   10.6220   28.5610   -8.2050 C   0  0  0  0  0  0
    9.2450   28.1130   -8.0040 C   0  0  0  0  0  0
    8.4450   27.5050   -8.7970 N   0  0  0  0  0  0
    8.7920   28.4060   -6.7540 N   0  0  0  0  0  0
    9.5040   29.0520   -5.7690 C   0  0  0  0  0  0
   10.7450   29.4670   -5.9340 N   0  0  0  0  0  0
   11.2640   29.2070   -7.1690 C   0  0  0  0  0  0
   16.6320   27.7660   -5.4630 O   0  0  0  0  0  0
   15.4000   28.0970   -4.7860 C   0  0  0  0  0  0
   15.0090   29.5140   -5.2090 C   0  0  1  0  0  0
   14.6320   29.4450   -6.5960 O   0  0  0  0  0  0
   13.7730   30.0210   -4.5170 C   0  0  1  0  0  0
   14.1130   30.6520   -3.2790 O   0  0  0  0  0  0
   13.1940   30.8980   -5.5660 C   0  0  1  0  0  0
   13.7740   32.2250   -5.4620 O   0  0  0  0  0  0
   13.5820   30.2670   -6.8540 C   0  0  2  0  0  0
   16.9577   25.1719   -0.7006 H   0  0  0  0  0  0
   13.4698   29.1848   -9.4880 H   0  0  0  0  0  0
    8.7699   27.2489   -9.8162 H   0  0  0  0  0  0
    7.4326   27.2387   -8.4592 H   0  0  0  0  0  0
    9.0200   29.2287   -4.8085 H   0  0  0  0  0  0
   14.6181   27.3798   -5.0762 H   0  0  0  0  0  0
   15.5553   28.0498   -3.6980 H   0  0  0  0  0  0
   15.8548   30.1916   -5.0207 H   0  0  0  0  0  0
   13.0417   29.2868   -4.1481 H   0  0  0  0  0  0
   14.5461   30.0589   -2.4601 H   0  0  0  0  0  0
   12.1055   31.0254   -5.4710 H   0  0  0  0  0  0
   13.5883   32.8379   -4.5676 H   0  0  0  0  0  0
   13.9206   31.0621   -7.5346 H   0  0  0  0  0  0
  1  2  1  0  0  0
  1  3  2  0  0  0
  1  4  1  0  0  0
  1  8  1  0  0  0
  5  6  2  0  0  0
  5  7  1  0  0  0
  5  8  1  0  0  0
  5 12  1  0  0  0
  8 32  1  0  0  0
  9 10  1  0  0  0
  9 11  2  0  0  0
  9 12  1  0  0  0
  9 23  1  0  0  0
 13 14  1  0  0  0
 13 22  1  0  0  0
 13 31  1  0  0  0
 14 15  2  0  0  0
 14 33  1  0  0  0
 15 16  1  0  0  0
 16 17  2  0  0  0
 16 22  1  0  0  0
 17 18  1  0  0  0
 17 19  1  0  0  0
 18 34  1  0  0  0
 18 35  1  0  0  0
 19 20  2  0  0  0
 20 21  1  0  0  0
 20 36  1  0  0  0
 21 22  2  0  0  0
 23 24  1  0  0  0
 24 25  1  0  0  0
 24 37  1  0  0  0
 24 38  1  0  0  0
 25 26  1  0  0  0
 25 27  1  0  0  0
 25 39  1  0  0  0
 26 31  1  0  0  0
 27 28  1  0  0  0
 27 29  1  0  0  0
 27 40  1  0  0  0
 28 41  1  0  0  0
 29 30  1  0  0  0
 29 31  1  0  0  0
 29 42  1  0  0  0
 30 43  1  0  0  0
 31 44  1  0  0  0
M  CHG  4   2  -1   4  -1   7  -1  10  -1
M  END
> <s_m_source_file>
../2ews_ligand.sdf

> <i_m_source_file_index>
1

> <s_epik_input>
W09IXVAoPU8pKFtPSF0pW05IXVtQQEBdKD1PKShbT0hdKU9bUEBdKD1PKShbT0hdKU9bQ0gyXVtDQEhdMU9bQ0BIXShbQ0BIXShbT0hdKVtDQEBIXTFbT0hdKW4oW2NIXW4yKWMoYzIzKW5bY0hdbmMzW05IMl0=

> <s_epik_cmdline>
J2VwaWtfYXBwJywgJy1pbWFlJywgJ2xpZ2FuZF9wcm8ubWFlJywgJy1vbWFlJywgJ2xpZ2FuZF9wcmVwLm1hZScsICctbXMnLCAnMScsICctcGgnLCAnNycsICctcGh0JywgJzAuNScsICctbnQn

> <r_lp_tautomer_probability>
0.999997216410988

> <r_epik_Ionization_Penalty>
  0.3578

> <r_epik_Ionization_Penalty_Charging>
  0.3346

> <r_epik_Ionization_Penalty_Neutral>
  0.0232

> <r_epik_State_Penalty>
  0.3402

> <r_epik_Charging_Adjusted_Penalty>
0.674771962662822

> <i_epik_Tot_Q>
-4

> <i_epik_Tot_abs_Q>
4

> <s_epik_Chemistry_Notes>
This compound contains an acetal/aminal-like group ( X-CH(R)-Y where X, Y are N, S, or O) that may be acid/base labile, releasing an aldehyde.

$$$$
