2ewy_ligand
                    3D
 Schrodinger Suite 2020-3.
 71 75  0  0  1  0            999 V2000
  107.1910   25.7420    1.6240 N   0  0  0  0  0  0
  107.8880   26.1820    2.8810 C   0  0  2  0  0  0
  107.0370   27.1410    3.7160 C   0  0  2  0  0  0
  107.7130   27.5260    4.8490 O   0  0  0  0  0  0
  105.7550   26.5120    4.1790 C   0  0  0  0  0  0
  104.9630   27.4260    4.9820 N   0  3  0  0  0  0
  104.1060   26.8440    6.0400 C   0  0  0  0  0  0
  104.7210   25.7210    6.9250 C   0  0  0  0  0  0
  105.9330   25.9350    7.8400 C   0  0  0  0  0  0
  106.4990   24.8120    8.6880 C   0  0  0  0  0  0
  105.8360   23.4350    8.6220 C   0  0  0  0  0  0
  104.6230   23.2080    7.7090 C   0  0  0  0  0  0
  104.0760   24.3490    6.8710 C   0  0  0  0  0  0
  107.7270   25.0800    9.5990 C   0  0  0  0  0  0
  109.2070   26.7720    2.4010 C   0  0  0  0  0  0
  110.0880   25.8130    1.5740 C   0  0  0  0  0  0
  110.7600   26.3290    0.3420 C   0  0  0  0  0  0
  111.6410   25.4220   -0.5050 C   0  0  0  0  0  0
  111.8280   23.9860   -0.0810 C   0  0  0  0  0  0
  111.1550   23.4710    1.1530 C   0  0  0  0  0  0
  110.3080   24.3500    1.9640 C   0  0  0  0  0  0
  106.5330   24.5220    1.4260 C   0  0  0  0  0  0
  106.4450   23.6250    2.3010 O   0  0  0  0  0  0
  105.8990   24.2200    0.1560 C   0  0  0  0  0  0
  104.5530   23.8510    0.1950 C   0  0  0  0  0  0
  103.6850   23.4850   -0.9760 C   0  0  0  0  0  0
  103.8370   24.1910   -2.3400 C   0  0  0  0  0  0
  102.9800   23.8200   -3.4690 C   0  0  0  0  0  0
  101.9740   22.7690   -3.2870 C   0  0  0  0  0  0
  101.8210   22.0760   -1.9530 C   0  0  0  0  0  0
  102.6880   22.4450   -0.7970 C   0  0  0  0  0  0
  104.8060   25.2120   -2.5160 O   0  0  0  0  0  0
  106.1290   24.8240   -2.5070 C   0  0  0  0  0  0
  106.7690   24.3140   -1.2080 C   0  0  0  0  0  0
  108.2210   23.9150   -1.2970 C   0  0  0  0  0  0
  108.9950   24.0190   -2.6100 C   0  0  0  0  0  0
  108.3240   24.5270   -3.8660 C   0  0  0  0  0  0
  106.8800   24.9290   -3.8030 C   0  0  0  0  0  0
  107.1672   26.4057    0.7471 H   0  0  0  0  0  0
  108.0620   25.3394    3.5663 H   0  0  0  0  0  0
  106.8504   28.0571    3.1365 H   0  0  0  0  0  0
  108.6934   28.0175    4.7642 H   0  0  0  0  0  0
  105.1566   26.2136    3.3056 H   0  0  0  0  0  0
  105.9811   25.6249    4.7889 H   0  0  0  0  0  0
  105.6300   28.1283    5.5034 H   0  0  0  0  0  0
  104.2773   27.9871    4.3300 H   0  0  0  0  0  0
  103.8025   27.6345    6.7421 H   0  0  0  0  0  0
  103.2113   26.3967    5.5824 H   0  0  0  0  0  0
  106.3996   26.9192    7.8820 H   0  0  0  0  0  0
  106.2254   22.6140    9.2240 H   0  0  0  0  0  0
  104.1536   22.2254    7.6625 H   0  0  0  0  0  0
  103.2136   24.1815    6.2258 H   0  0  0  0  0  0
  108.0404   26.1290    9.4927 H   0  0  0  0  0  0
  108.5544   24.4183    9.3031 H   0  0  0  0  0  0
  107.4563   24.8826   10.6467 H   0  0  0  0  0  0
  109.0073   27.6454    1.7628 H   0  0  0  0  0  0
  109.8076   27.0818    3.2690 H   0  0  0  0  0  0
  110.6170   27.3684    0.0466 H   0  0  0  0  0  0
  112.1284   25.8031   -1.4024 H   0  0  0  0  0  0
  112.4552   23.3215   -0.6752 H   0  0  0  0  0  0
  111.2963   22.4322    1.4512 H   0  0  0  0  0  0
  109.8272   23.9553    2.8591 H   0  0  0  0  0  0
  104.0225   23.8069    1.1576 H   0  0  0  0  0  0
  103.0889   24.3190   -4.4319 H   0  0  0  0  0  0
  101.3315   22.4853   -4.1205 H   0  0  0  0  0  0
  101.0679   21.2970   -1.8342 H   0  0  0  0  0  0
  102.5752   21.9433    0.1641 H   0  0  0  0  0  0
  108.7284   23.5449   -0.4061 H   0  0  0  0  0  0
  110.0437   23.7234   -2.6417 H   0  0  0  0  0  0
  108.8796   24.5999   -4.8009 H   0  0  0  0  0  0
  106.3766   25.2969   -4.6970 H   0  0  0  0  0  0
  1  2  1  0  0  0
  1 22  1  0  0  0
  1 39  1  0  0  0
  2  3  1  0  0  0
  2 15  1  0  0  0
  2 40  1  0  0  0
  3  4  1  0  0  0
  3  5  1  0  0  0
  3 41  1  0  0  0
  4 42  1  0  0  0
  5  6  1  0  0  0
  5 43  1  0  0  0
  5 44  1  0  0  0
  6  7  1  0  0  0
  6 45  1  0  0  0
  6 46  1  0  0  0
  7  8  1  0  0  0
  7 47  1  0  0  0
  7 48  1  0  0  0
  8  9  2  0  0  0
  8 13  1  0  0  0
  9 10  1  0  0  0
  9 49  1  0  0  0
 10 11  2  0  0  0
 10 14  1  0  0  0
 11 12  1  0  0  0
 11 50  1  0  0  0
 12 13  2  0  0  0
 12 51  1  0  0  0
 13 52  1  0  0  0
 14 53  1  0  0  0
 14 54  1  0  0  0
 14 55  1  0  0  0
 15 16  1  0  0  0
 15 56  1  0  0  0
 15 57  1  0  0  0
 16 17  2  0  0  0
 16 21  1  0  0  0
 17 18  1  0  0  0
 17 58  1  0  0  0
 18 19  2  0  0  0
 18 59  1  0  0  0
 19 20  1  0  0  0
 19 60  1  0  0  0
 20 21  2  0  0  0
 20 61  1  0  0  0
 21 62  1  0  0  0
 22 23  2  0  0  0
 22 24  1  0  0  0
 24 25  2  0  0  0
 24 34  1  0  0  0
 25 26  1  0  0  0
 25 63  1  0  0  0
 26 27  2  0  0  0
 26 31  1  0  0  0
 27 28  1  0  0  0
 27 32  1  0  0  0
 28 29  2  0  0  0
 28 64  1  0  0  0
 29 30  1  0  0  0
 29 65  1  0  0  0
 30 31  2  0  0  0
 30 66  1  0  0  0
 31 67  1  0  0  0
 32 33  1  0  0  0
 33 34  2  0  0  0
 33 38  1  0  0  0
 34 35  1  0  0  0
 35 36  2  0  0  0
 35 68  1  0  0  0
 36 37  1  0  0  0
 36 69  1  0  0  0
 37 38  2  0  0  0
 37 70  1  0  0  0
 38 71  1  0  0  0
M  CHG  1   6   1
M  END
> <s_m_source_file>
../2ewy_ligand.sdf

> <i_m_source_file_index>
1

> <s_epik_input>
W2NIXTFbY0hdW2NIXVtjSF1jKGMxMilPYzNjKFtjSF1bY0hdW2NIXVtjSF0zKUMoPVtDSF0yKUMoPU8pW05IXVtDQEBIXShbQ0gyXWM0W2NIXVtjSF1bY0hdW2NIXVtjSF00KVtDQEhdKFtPSF0pW0NIMl1bTkgyK11bQ0gyXWM1W2NIXWMoW0NIM10pW2NIXVtjSF1bY0hdNQ==

> <s_epik_cmdline>
J2VwaWtfYXBwJywgJy1pbWFlJywgJ2xpZ2FuZF9wcm8ubWFlJywgJy1vbWFlJywgJ2xpZ2FuZF9wcmVwLm1hZScsICctbXMnLCAnMScsICctcGgnLCAnNycsICctcGh0JywgJzAuNScsICctbnQn

> <r_epik_Ionization_Penalty>
  0.0206

> <r_epik_Ionization_Penalty_Charging>
  0.0206

> <r_epik_Ionization_Penalty_Neutral>
  0.0000

> <r_epik_State_Penalty>
  0.0165

> <r_epik_Charging_Adjusted_Penalty>
0.0370842542367579

> <i_epik_Tot_Q>
1

> <i_epik_Tot_abs_Q>
1

$$$$
