2exg_ligand
                    3D
 Schrodinger Suite 2020-3.
 26 27  0  0  1  0            999 V2000
    4.4670    6.8190    6.8410 C   0  0  1  0  0  0
    5.5010    7.7170    5.5910 S   0  0  0  0  0  0
    3.9970    8.4950    4.8760 C   0  0  0  0  0  0
    2.8340    8.1630    5.4750 N   0  0  0  0  0  0
    3.0120    7.1670    6.5700 C   0  0  0  0  0  0
    2.0870    6.9030    7.3040 O   0  0  0  0  0  0
    4.2060    9.6910    3.6310 S   0  0  0  0  0  0
    4.6840    5.3460    6.7220 C   0  0  0  0  0  0
    3.9960    4.7020    5.5680 C   0  0  0  0  0  0
    4.4360    4.8070    4.2550 C   0  0  0  0  0  0
    3.7380    4.2260    3.1810 C   0  0  0  0  0  0
    2.6000    3.4290    3.4280 C   0  0  0  0  0  0
    2.2490    3.1830    4.7720 C   0  0  0  0  0  0
    2.9460    3.7590    5.8220 C   0  0  0  0  0  0
    1.8140    2.8250    2.2670 C   0  0  0  0  0  0
    1.7220    3.7360    1.2320 F   0  0  0  0  0  0
    0.5550    2.4580    2.6320 F   0  0  0  0  0  0
    2.4630    1.7050    1.8090 F   0  0  0  0  0  0
    4.6015    6.9687    7.9224 H   0  0  0  0  0  0
    5.7584    5.1421    6.6033 H   0  0  0  0  0  0
    4.3140    4.8464    7.6295 H   0  0  0  0  0  0
    5.3535    5.3585    4.0498 H   0  0  0  0  0  0
    4.0761    4.3913    2.1580 H   0  0  0  0  0  0
    1.4089    2.5236    4.9899 H   0  0  0  0  0  0
    2.6943    3.4933    6.8487 H   0  0  0  0  0  0
    1.8917    8.6196    5.1378 H   0  0  0  0  0  0
  1  2  1  0  0  0
  1  5  1  0  0  0
  1  8  1  0  0  0
  1 19  1  0  0  0
  2  3  1  0  0  0
  3  4  1  0  0  0
  3  7  2  0  0  0
  4  5  1  0  0  0
  4 26  1  0  0  0
  5  6  2  0  0  0
  8  9  1  0  0  0
  8 20  1  0  0  0
  8 21  1  0  0  0
  9 10  2  0  0  0
  9 14  1  0  0  0
 10 11  1  0  0  0
 10 22  1  0  0  0
 11 12  2  0  0  0
 11 23  1  0  0  0
 12 13  1  0  0  0
 12 15  1  0  0  0
 13 14  2  0  0  0
 13 24  1  0  0  0
 14 25  1  0  0  0
 15 16  1  0  0  0
 15 17  1  0  0  0
 15 18  1  0  0  0
M  END
> <s_m_source_file>
../2exg_ligand.sdf

> <i_m_source_file_index>
1

> <s_epik_input>
Tz1DMU49QyhbU0hdKVNbQ0BASF0xW0NIMl1jMltjSF1bY0hdYyhDKEYpKEYpRilbY0hdW2NIXTI=

> <s_epik_cmdline>
J2VwaWtfYXBwJywgJy1pbWFlJywgJ2xpZ2FuZF9wcm8ubWFlJywgJy1vbWFlJywgJ2xpZ2FuZF9wcmVwLm1hZScsICctbXMnLCAnMScsICctcGgnLCAnNycsICctcGh0JywgJzAuNScsICctbnQn

> <r_lp_tautomer_probability>
1

> <r_epik_Ionization_Penalty>
  0.0000

> <r_epik_Ionization_Penalty_Charging>
  0.0000

> <r_epik_Ionization_Penalty_Neutral>
  0.0000

> <r_epik_State_Penalty>
 -0.0000

> <r_epik_Charging_Adjusted_Penalty>
0

> <i_epik_Tot_Q>
0

> <i_epik_Tot_abs_Q>
0

$$$$
