2exm_ligand
                    3D
 Schrodinger Suite 2020-3.
 28 29  0  0  1  0            999 V2000
   98.5460   97.0330   80.8880 C   0  0  0  0  0  0
   99.1350   98.4420   81.0110 C   0  0  0  0  0  0
   98.4400   99.2800   82.0650 C   0  0  0  0  0  0
   99.7840   99.0100   79.9600 C   0  0  0  0  0  0
  101.2360   98.9240   79.5100 C   0  0  0  0  0  0
  102.3640   99.2620   80.4040 N   0  0  0  0  0  0
  103.4110  100.1920   80.0820 C   0  0  0  0  0  0
  104.7200  100.2370   80.6810 C   0  0  0  0  0  0
  105.3290   99.4630   81.6920 N   0  0  0  0  0  0
  105.6200  101.2160   80.3090 C   0  0  0  0  0  0
  106.7730  101.0650   80.9900 N   0  3  0  0  0  0
  106.5090  100.0380   81.8390 C   0  0  0  0  0  0
  105.2290  102.1550   79.2940 N   0  0  0  0  0  0
  104.0390  102.0050   78.7480 C   0  0  0  0  0  0
  103.1920  101.1030   79.1230 N   0  0  0  0  0  0
   98.0649   96.7526   81.8366 H   0  0  0  0  0  0
   99.3502   96.3181   80.6593 H   0  0  0  0  0  0
   97.8001   97.0167   80.0797 H   0  0  0  0  0  0
   97.9838   98.6191   82.8167 H   0  0  0  0  0  0
   97.6577   99.8908   81.5907 H   0  0  0  0  0  0
   99.1740   99.9384   82.5527 H   0  0  0  0  0  0
   99.2367   99.6612   79.2625 H   0  0  0  0  0  0
  101.4665   97.8909   79.2107 H   0  0  0  0  0  0
  101.3955   99.5976   78.6551 H   0  0  0  0  0  0
  102.4421   98.7888   81.3940 H   0  0  0  0  0  0
  107.2246   99.7097   82.5928 H   0  0  0  0  0  0
  103.7539  102.6764   77.9380 H   0  0  0  0  0  0
  107.6304  101.7185   80.7715 H   0  0  0  0  0  0
  1  2  1  0  0  0
  1 16  1  0  0  0
  1 17  1  0  0  0
  1 18  1  0  0  0
  2  3  1  0  0  0
  2  4  2  0  0  0
  3 19  1  0  0  0
  3 20  1  0  0  0
  3 21  1  0  0  0
  4  5  1  0  0  0
  4 22  1  0  0  0
  5  6  1  0  0  0
  5 23  1  0  0  0
  5 24  1  0  0  0
  6  7  1  0  0  0
  6 25  1  0  0  0
  7  8  2  0  0  0
  7 15  1  0  0  0
  8  9  1  0  0  0
  8 10  1  0  0  0
  9 12  2  0  0  0
 10 11  2  0  0  0
 10 13  1  0  0  0
 11 12  1  0  0  0
 11 28  1  0  0  0
 12 26  1  0  0  0
 13 14  1  0  0  0
 14 15  2  0  0  0
 14 27  1  0  0  0
M  CHG  1  11   1
M  END
> <s_m_source_file>
../2exm_ligand.sdf

> <i_m_source_file_index>
1

> <s_epik_input>
W0NIM11DKFtDSDNdKT1bQ0hdW0NIMl1bTkhdYzFuW2NIXVtuSF1jKGMxMiluW2NIXW4y

> <s_epik_cmdline>
J2VwaWtfYXBwJywgJy1pbWFlJywgJ2xpZ2FuZF9wcm8ubWFlJywgJy1vbWFlJywgJ2xpZ2FuZF9wcmVwLm1hZScsICctbXMnLCAnMScsICctcGgnLCAnNycsICctcGh0JywgJzAuNScsICctbnQn

> <r_epik_Ionization_Penalty>
  0.0059

> <r_epik_Ionization_Penalty_Charging>
  0.0000

> <r_epik_Ionization_Penalty_Neutral>
  0.0059

> <r_epik_State_Penalty>
  0.1060

> <r_epik_Charging_Adjusted_Penalty>
0.105969216719113

> <i_epik_Tot_Q>
1

> <i_epik_Tot_abs_Q>
1

$$$$
