2ez5_ligand
                    3D
 Schrodinger Suite 2020-3.
164166  0  0  1  0            999 V2000
   15.7770    9.3370    0.5890 N   0  3  0  0  0  0
   14.7580    8.5810   -0.1820 C   0  0  2  0  0  0
   13.7740    7.8810    0.7470 C   0  0  0  0  0  0
   12.6280    8.3070    0.8890 O   0  0  0  0  0  0
   15.4170    7.5310   -1.0950 C   0  0  2  0  0  0
   16.1000    6.5520   -0.3040 O   0  0  0  0  0  0
   16.3980    8.1890   -2.0540 C   0  0  0  0  0  0
   14.2280    6.8040    1.3810 N   0  0  0  0  0  0
   13.3730    6.0650    2.2910 C   0  0  0  0  0  0
   12.7660    4.8310    1.6510 C   0  0  0  0  0  0
   13.4320    4.1240    0.8960 O   0  0  0  0  0  0
   11.4990    4.5730    1.9580 N   0  0  0  0  0  0
   10.7970    3.4160    1.4120 C   0  0  2  0  0  0
   11.4360    2.1160    1.8930 C   0  0  0  0  0  0
   12.1550    1.4530    1.1440 O   0  0  0  0  0  0
   10.7940    3.4630   -0.1170 C   0  0  0  0  0  0
   10.1660    2.2490   -0.8000 C   0  0  0  0  0  0
    8.6560    2.2610   -0.6220 C   0  0  0  0  0  0
   10.5300    2.2230   -2.2780 C   0  0  0  0  0  0
   11.1810    1.7320    3.1550 N   0  0  0  0  0  0
   11.7340    0.5030    3.7340 C   0  0  2  0  0  0
   11.2620   -0.7430    2.9940 C   0  0  0  0  0  0
   10.1550   -1.2300    3.2210 O   0  0  0  0  0  0
   11.2020    0.5030    5.1740 C   0  0  0  0  0  0
   10.7860    1.9100    5.4380 C   0  0  0  0  0  0
   10.3370    2.4600    4.1160 C   0  0  0  0  0  0
   12.1090   -1.2520    2.1060 N   0  0  0  0  0  0
   11.7790   -2.4420    1.3290 C   0  0  2  0  0  0
   11.2690   -3.5610    2.2320 C   0  0  0  0  0  0
   11.5550   -3.5860    3.4290 O   0  0  0  0  0  0
   13.0050   -2.9210    0.5490 C   0  0  0  0  0  0
   14.1570   -2.9450    1.3730 O   0  0  0  0  0  0
   10.5100   -4.4830    1.6490 N   0  0  0  0  0  0
    9.9570   -5.6060    2.3980 C   0  0  2  0  0  0
   11.0400   -6.3060    3.2130 C   0  0  0  0  0  0
   11.7120   -7.2130    2.7210 O   0  0  0  0  0  0
    9.2960   -6.6040    1.4440 C   0  0  0  0  0  0
    8.3790   -7.5890    2.1340 C   0  0  0  0  0  0
    8.8670   -8.4780    3.0840 C   0  0  0  0  0  0
    7.0230   -7.6290    1.8340 C   0  0  0  0  0  0
    8.0300   -9.3790    3.7140 C   0  0  0  0  0  0
    6.1800   -8.5270    2.4610 C   0  0  0  0  0  0
    6.6880   -9.3990    3.4000 C   0  0  0  0  0  0
    5.8520  -10.2960    4.0250 O   0  0  0  0  0  0
   11.2040   -5.8820    4.4630 N   0  0  0  0  0  0
   12.2050   -6.4700    5.3490 C   0  0  2  0  0  0
   12.3260   -5.6690    6.6410 C   0  0  0  0  0  0
   12.5980   -6.2260    7.7050 O   0  0  0  0  0  0
   13.5660   -6.5360    4.6500 C   0  0  0  0  0  0
   14.0540   -7.9600    4.4680 C   0  0  0  0  0  0
   13.3830   -8.7300    3.7490 O   0  0  0  0  0  0
   15.1080   -8.3050    5.0430 O   0  0  0  0  0  0
   12.1260   -4.3590    6.5410 N   0  0  0  0  0  0
   12.2170   -3.4810    7.7020 C   0  0  2  0  0  0
   10.8300   -3.1190    8.2240 C   0  0  0  0  0  0
   10.5880   -3.1350    9.4310 O   0  0  0  0  0  0
   12.9880   -2.2090    7.3450 C   0  0  0  0  0  0
   14.1170   -2.4380    6.3530 C   0  0  0  0  0  0
   15.4350   -1.8570    6.8240 C   0  0  0  0  0  0
   15.5720   -0.6150    6.8220 O   0  0  0  0  0  0
   16.3310   -2.6430    7.1970 O   0  0  0  0  0  0
    9.9230   -2.7920    7.3090 N   0  0  0  0  0  0
    8.5610   -2.4250    7.6810 C   0  0  2  0  0  0
    7.7100   -3.6640    7.9350 C   0  0  0  0  0  0
    6.7460   -3.9250    7.2150 O   0  0  0  0  0  0
    7.9320   -1.5640    6.5970 C   0  0  0  0  0  0
    8.0720   -4.4240    8.9620 N   0  0  0  0  0  0
    7.3420   -5.6370    9.3120 C   0  0  2  0  0  0
    7.2800   -5.8180   10.8250 C   0  0  0  0  0  0
    7.3300   -6.9400   11.3280 O   0  0  0  0  0  0
    8.0010   -6.8580    8.6670 C   0  0  0  0  0  0
    7.6210   -7.1050    7.2060 C   0  0  0  0  0  0
    8.8630   -7.1430    6.3310 C   0  0  0  0  0  0
    6.8340   -8.4010    7.0730 C   0  0  0  0  0  0
    7.1690   -4.7060   11.5450 N   0  0  0  0  0  0
    7.1000   -4.7430   13.0010 C   0  0  2  0  0  0
    5.6510   -4.7740   13.4750 C   0  0  0  0  0  0
    5.2830   -5.6120   14.2960 O   0  0  0  0  0  0
    7.8180   -3.5300   13.5960 C   0  0  0  0  0  0
    9.2810   -3.4840   13.2810 C   0  0  0  0  0  0
    9.9320   -2.3320   12.8930 N   0  0  0  0  0  0
   10.2220   -4.4580   13.2970 C   0  0  0  0  0  0
   11.2090   -2.5990   12.6840 C   0  0  0  0  0  0
   11.4110   -3.8820   12.9230 N   0  0  0  0  0  0
    4.7802   -3.8894   12.9975 O   0  0  0  0  0  0
   16.4716    9.8304   -0.1068 H   0  0  0  0  0  0
   16.3359    8.6444    1.2355 H   0  0  0  0  0  0
   15.2785   10.0963    1.2095 H   0  0  0  0  0  0
   14.2298    9.3375   -0.7810 H   0  0  0  0  0  0
   14.6535    6.9772   -1.6610 H   0  0  0  0  0  0
   15.5479    5.9711    0.4495 H   0  0  0  0  0  0
   15.8704    8.9403   -2.6600 H   0  0  0  0  0  0
   16.8333    7.4248   -2.7148 H   0  0  0  0  0  0
   17.1995    8.6776   -1.4806 H   0  0  0  0  0  0
   15.2635    6.4748    1.2097 H   0  0  0  0  0  0
   13.9600    5.7388    3.1622 H   0  0  0  0  0  0
   12.5483    6.7114    2.6258 H   0  0  0  0  0  0
   10.9791    5.2589    2.6431 H   0  0  0  0  0  0
    9.7694    3.4897    1.7975 H   0  0  0  0  0  0
   10.2272    4.3428   -0.4557 H   0  0  0  0  0  0
   11.8289    3.5301   -0.4838 H   0  0  0  0  0  0
   10.5602    1.3357   -0.3304 H   0  0  0  0  0  0
    8.4134    2.2797    0.4508 H   0  0  0  0  0  0
    8.2257    1.3579   -1.0795 H   0  0  0  0  0  0
    8.2366    3.1540   -1.1085 H   0  0  0  0  0  0
   11.6247    2.2146   -2.3859 H   0  0  0  0  0  0
   10.1196    3.1158   -2.7724 H   0  0  0  0  0  0
   10.1087    1.3198   -2.7435 H   0  0  0  0  0  0
   12.8306    0.5150    3.6488 H   0  0  0  0  0  0
   10.3518   -0.1908    5.2508 H   0  0  0  0  0  0
   12.0000    0.1823    5.8597 H   0  0  0  0  0  0
    9.9669    1.9185    6.1721 H   0  0  0  0  0  0
   11.6408    2.4766    5.8358 H   0  0  0  0  0  0
   10.5217    3.5402    4.0214 H   0  0  0  0  0  0
    9.2778    2.2494    3.9068 H   0  0  0  0  0  0
   13.0792   -0.7537    1.9635 H   0  0  0  0  0  0
   10.9794   -2.1301    0.6410 H   0  0  0  0  0  0
   12.8236   -3.9371    0.1686 H   0  0  0  0  0  0
   13.1909   -2.2411   -0.2955 H   0  0  0  0  0  0
   15.1233   -3.2678    0.9582 H   0  0  0  0  0  0
   10.3020   -4.3835    0.5734 H   0  0  0  0  0  0
    9.2115   -5.1664    3.0770 H   0  0  0  0  0  0
    8.6927   -6.0587    0.7032 H   0  0  0  0  0  0
   10.0727   -7.1866    0.9270 H   0  0  0  0  0  0
    9.9273   -8.4644    3.3363 H   0  0  0  0  0  0
    6.6175   -6.9410    1.0922 H   0  0  0  0  0  0
    8.4291  -10.0707    4.4558 H   0  0  0  0  0  0
    5.1185   -8.5456    2.2142 H   0  0  0  0  0  0
    6.2548  -10.9929    4.7747 H   0  0  0  0  0  0
   10.5610   -5.0660    4.8245 H   0  0  0  0  0  0
   11.8370   -7.4821    5.5731 H   0  0  0  0  0  0
   13.4899   -6.0733    3.6549 H   0  0  0  0  0  0
   14.3129   -5.9951    5.2497 H   0  0  0  0  0  0
   15.4860   -9.3317    4.9291 H   0  0  0  0  0  0
   11.8868   -3.9404    5.5523 H   0  0  0  0  0  0
   12.7584   -4.0599    8.4647 H   0  0  0  0  0  0
   12.3003   -1.4773    6.8958 H   0  0  0  0  0  0
   13.4334   -1.7824    8.2558 H   0  0  0  0  0  0
   14.2593   -3.5183    6.2024 H   0  0  0  0  0  0
   13.8635   -1.9643    5.3931 H   0  0  0  0  0  0
   16.5178   -0.1655    7.1586 H   0  0  0  0  0  0
   10.2200   -2.8025    6.2499 H   0  0  0  0  0  0
    8.6525   -1.8475    8.6127 H   0  0  0  0  0  0
    8.5572   -0.6753    6.4258 H   0  0  0  0  0  0
    6.9272   -1.2496    6.9155 H   0  0  0  0  0  0
    7.8566   -2.1443    5.6655 H   0  0  0  0  0  0
    8.9468   -4.1182    9.5547 H   0  0  0  0  0  0
    6.3262   -5.4923    8.9155 H   0  0  0  0  0  0
    9.0944   -6.7402    8.6913 H   0  0  0  0  0  0
    7.7174   -7.7640    9.2226 H   0  0  0  0  0  0
    6.9847   -6.2767    6.8608 H   0  0  0  0  0  0
    9.4176   -6.1994    6.4405 H   0  0  0  0  0  0
    8.5670   -7.2745    5.2798 H   0  0  0  0  0  0
    9.5033   -7.9826    6.6395 H   0  0  0  0  0  0
    5.9403   -8.3545    7.7126 H   0  0  0  0  0  0
    7.4646   -9.2466    7.3850 H   0  0  0  0  0  0
    6.5284   -8.5385    6.0253 H   0  0  0  0  0  0
    7.1294   -3.7419   11.0168 H   0  0  0  0  0  0
    7.6056   -5.6741   13.2966 H   0  0  0  0  0  0
    7.3682   -2.6073   13.2006 H   0  0  0  0  0  0
    7.7187   -3.5460   14.6914 H   0  0  0  0  0  0
   10.1825   -5.5303   13.5392 H   0  0  0  0  0  0
   11.9669   -1.8822   12.3680 H   0  0  0  0  0  0
    3.7342   -3.9088   13.3372 H   0  0  0  0  0  0
  1  2  1  0  0  0
  1 86  1  0  0  0
  1 87  1  0  0  0
  1 88  1  0  0  0
  2  5  1  0  0  0
  2  3  1  0  0  0
  2 89  1  0  0  0
  3  4  2  0  0  0
  3  8  1  0  0  0
  5  7  1  0  0  0
  5  6  1  0  0  0
  5 90  1  0  0  0
  6 91  1  0  0  0
  7 92  1  0  0  0
  7 93  1  0  0  0
  7 94  1  0  0  0
  8  9  1  0  0  0
  8 95  1  0  0  0
  9 10  1  0  0  0
  9 96  1  0  0  0
  9 97  1  0  0  0
 10 11  2  0  0  0
 10 12  1  0  0  0
 12 13  1  0  0  0
 12 98  1  0  0  0
 13 16  1  0  0  0
 13 14  1  0  0  0
 13 99  1  0  0  0
 14 15  2  0  0  0
 14 20  1  0  0  0
 16 17  1  0  0  0
 16100  1  0  0  0
 16101  1  0  0  0
 17 18  1  0  0  0
 17 19  1  0  0  0
 17102  1  0  0  0
 18103  1  0  0  0
 18104  1  0  0  0
 18105  1  0  0  0
 19106  1  0  0  0
 19107  1  0  0  0
 19108  1  0  0  0
 20 21  1  0  0  0
 20 26  1  0  0  0
 21 22  1  0  0  0
 21 24  1  0  0  0
 21109  1  0  0  0
 22 23  2  0  0  0
 22 27  1  0  0  0
 24 25  1  0  0  0
 24110  1  0  0  0
 24111  1  0  0  0
 25 26  1  0  0  0
 25112  1  0  0  0
 25113  1  0  0  0
 26114  1  0  0  0
 26115  1  0  0  0
 27 28  1  0  0  0
 27116  1  0  0  0
 28 31  1  0  0  0
 28 29  1  0  0  0
 28117  1  0  0  0
 29 30  2  0  0  0
 29 33  1  0  0  0
 31 32  1  0  0  0
 31118  1  0  0  0
 31119  1  0  0  0
 32120  1  0  0  0
 33 34  1  0  0  0
 33121  1  0  0  0
 34 37  1  0  0  0
 34 35  1  0  0  0
 34122  1  0  0  0
 35 36  2  0  0  0
 35 45  1  0  0  0
 37 38  1  0  0  0
 37123  1  0  0  0
 37124  1  0  0  0
 38 39  2  0  0  0
 38 40  1  0  0  0
 39 41  1  0  0  0
 39125  1  0  0  0
 40 42  2  0  0  0
 40126  1  0  0  0
 41 43  2  0  0  0
 41127  1  0  0  0
 42 43  1  0  0  0
 42128  1  0  0  0
 43 44  1  0  0  0
 44129  1  0  0  0
 45 46  1  0  0  0
 45130  1  0  0  0
 46 49  1  0  0  0
 46 47  1  0  0  0
 46131  1  0  0  0
 47 48  2  0  0  0
 47 53  1  0  0  0
 49 50  1  0  0  0
 49132  1  0  0  0
 49133  1  0  0  0
 50 51  2  0  0  0
 50 52  1  0  0  0
 52134  1  0  0  0
 53 54  1  0  0  0
 53135  1  0  0  0
 54 57  1  0  0  0
 54 55  1  0  0  0
 54136  1  0  0  0
 55 56  2  0  0  0
 55 62  1  0  0  0
 57 58  1  0  0  0
 57137  1  0  0  0
 57138  1  0  0  0
 58 59  1  0  0  0
 58139  1  0  0  0
 58140  1  0  0  0
 59 61  2  0  0  0
 59 60  1  0  0  0
 60141  1  0  0  0
 62 63  1  0  0  0
 62142  1  0  0  0
 63 66  1  0  0  0
 63 64  1  0  0  0
 63143  1  0  0  0
 64 65  2  0  0  0
 64 67  1  0  0  0
 66144  1  0  0  0
 66145  1  0  0  0
 66146  1  0  0  0
 67 68  1  0  0  0
 67147  1  0  0  0
 68 71  1  0  0  0
 68 69  1  0  0  0
 68148  1  0  0  0
 69 70  2  0  0  0
 69 75  1  0  0  0
 71 72  1  0  0  0
 71149  1  0  0  0
 71150  1  0  0  0
 72 73  1  0  0  0
 72 74  1  0  0  0
 72151  1  0  0  0
 73152  1  0  0  0
 73153  1  0  0  0
 73154  1  0  0  0
 74155  1  0  0  0
 74156  1  0  0  0
 74157  1  0  0  0
 75 76  1  0  0  0
 75158  1  0  0  0
 76 79  1  0  0  0
 76 77  1  0  0  0
 76159  1  0  0  0
 77 78  2  0  0  0
 77 85  1  0  0  0
 79 80  1  0  0  0
 79160  1  0  0  0
 79161  1  0  0  0
 80 81  2  0  0  0
 80 82  1  0  0  0
 81 83  1  0  0  0
 82 84  2  0  0  0
 82162  1  0  0  0
 83 84  1  0  0  0
 83163  1  0  0  0
 85164  1  0  0  0
M  CHG  1   1   1
M  END
> <s_m_source_file>
../2ez5_ligand.sdf

> <i_m_source_file_index>
1

> <s_epik_input>
W09IXVtDQEhdKFtDSDNdKVtDQEhdKFtOSDMrXSlDKD1PKVtOSF1bQ0gyXUMoPU8pW05IXVtDQEBIXShbQ0gyXVtDSF0oW0NIM10pW0NIM10pQyg9TylOMVtDQEBIXShbQ0gyXVtDSDJdW0NIMl0xKUMoPU8pW05IXVtDQEBIXShbQ0gyXVtPSF0pQyg9TylbTkhdW0NAQEhdKFtDSDJdYzJbY0hdW2NIXWMoW09IXSlbY0hdW2NIXTIpQyg9TylbTkhdW0NAQEhdKFtDSDJdQyg9TylbT0hdKUMoPU8pW05IXVtDQEBIXShbQ0gyXVtDSDJdQyg9TylbT0hdKUMoPU8pW05IXVtDQEBIXShbQ0gzXSlDKD1PKVtOSF1bQ0BASF0oW0NIMl1bQ0hdKFtDSDNdKVtDSDNdKUMoPU8pW05IXVtDQEhdKEMoPU8pW09IXSlbQ0gyXUMzPU5bQ0gyXU49W0NIXTM=

> <s_epik_cmdline>
J2VwaWtfYXBwJywgJy1pbWFlJywgJ2xpZ2FuZF9wcm8ubWFlJywgJy1vbWFlJywgJ2xpZ2FuZF9wcmVwLm1hZScsICctbXMnLCAnMScsICctcGgnLCAnNycsICctcGh0JywgJzAuNScsICctbnQn

> <s_epik_pKa_notes>
Molecule size exceeds maximum supported for generating protonation states

> <s_epik_Chemistry_Notes>
This compound has an imine and may undergo hydrolysis.

$$$$
