2f01_ligand
                    3D
 Schrodinger Suite 2020-3.
 31 32  0  0  1  0            999 V2000
   32.7710   18.1440   14.0480 C   0  0  0  0  0  0
   33.7020   17.4540   13.5160 O   0  0  0  0  0  0
   32.7210   19.4450   13.8670 O   0  5  0  0  0  0
   31.7790   17.4910   14.9420 C   0  0  0  0  0  0
   31.3320   16.1360   14.5750 C   0  0  0  0  0  0
   30.5270   16.1480   13.2710 C   0  0  0  0  0  0
   30.1960   14.7500   12.7940 C   0  0  0  0  0  0
   29.1720   14.6210   11.7530 C   0  0  2  0  0  0
   27.6100   15.2160   11.7380 S   0  0  0  0  0  0
   27.1730   14.6500   10.1760 C   0  0  0  0  0  0
   27.8700   13.2980   10.0920 C   0  0  2  0  0  0
   26.9810   12.2330   10.5690 N   0  0  0  0  0  0
   27.5310   11.6360   11.6660 C   0  0  0  0  0  0
   26.9880   10.6820   12.2550 O   0  0  0  0  0  0
   28.7180   12.1670   11.9760 N   0  0  0  0  0  0
   29.0700   13.2600   11.0360 C   0  0  2  0  0  0
   32.2024   17.3970   15.9529 H   0  0  0  0  0  0
   30.8646   18.1011   14.9828 H   0  0  0  0  0  0
   32.2083   15.4852   14.4387 H   0  0  0  0  0  0
   30.6952   15.7307   15.3751 H   0  0  0  0  0  0
   29.5823   16.6892   13.4283 H   0  0  0  0  0  0
   31.1103   16.6494   12.4846 H   0  0  0  0  0  0
   31.0994   14.2816   12.3762 H   0  0  0  0  0  0
   29.8304   14.1506   13.6408 H   0  0  0  0  0  0
   29.9096   15.3552   11.3969 H   0  0  0  0  0  0
   26.0783   14.5655   10.1097 H   0  0  0  0  0  0
   27.5328   15.3585    9.4153 H   0  0  0  0  0  0
   28.1398   13.1239    9.0399 H   0  0  0  0  0  0
   26.0352   12.0303   10.0452 H   0  0  0  0  0  0
   29.4067   11.8993   12.7909 H   0  0  0  0  0  0
   30.0399   13.0553   10.5591 H   0  0  0  0  0  0
  1  2  2  0  0  0
  1  3  1  0  0  0
  1  4  1  0  0  0
  4  5  1  0  0  0
  4 17  1  0  0  0
  4 18  1  0  0  0
  5  6  1  0  0  0
  5 19  1  0  0  0
  5 20  1  0  0  0
  6  7  1  0  0  0
  6 21  1  0  0  0
  6 22  1  0  0  0
  7  8  1  0  0  0
  7 23  1  0  0  0
  7 24  1  0  0  0
  8  9  1  0  0  0
  8 16  1  0  0  0
  8 25  1  0  0  0
  9 10  1  0  0  0
 10 11  1  0  0  0
 10 26  1  0  0  0
 10 27  1  0  0  0
 11 12  1  0  0  0
 11 16  1  0  0  0
 11 28  1  0  0  0
 12 13  1  0  0  0
 12 29  1  0  0  0
 13 14  2  0  0  0
 13 15  1  0  0  0
 15 16  1  0  0  0
 15 30  1  0  0  0
 16 31  1  0  0  0
M  CHG  1   3  -1
M  END
> <s_m_source_file>
../2f01_ligand.sdf

> <i_m_source_file_index>
1

> <s_epik_input>
Tz1DKFtPSF0pW0NIMl1bQ0gyXVtDSDJdW0NIMl1bQ0BIXShTW0NIMl0xKVtDQEhdKFtDQEhdMTIpW05IXUMoPU8pW05IXTI=

> <s_epik_cmdline>
J2VwaWtfYXBwJywgJy1pbWFlJywgJ2xpZ2FuZF9wcm8ubWFlJywgJy1vbWFlJywgJ2xpZ2FuZF9wcmVwLm1hZScsICctbXMnLCAnMScsICctcGgnLCAnNycsICctcGh0JywgJzAuNScsICctbnQn

> <r_lp_tautomer_probability>
1

> <r_epik_Ionization_Penalty>
  0.0045

> <r_epik_Ionization_Penalty_Charging>
  0.0044

> <r_epik_Ionization_Penalty_Neutral>
  0.0000

> <r_epik_State_Penalty>
 -0.0000

> <r_epik_Charging_Adjusted_Penalty>
0.00443833021372702

> <i_epik_Tot_Q>
-1

> <i_epik_Tot_abs_Q>
1

$$$$
