2f0z_ligand
                    3D
 Schrodinger Suite 2020-3.
 45 45  0  0  1  0            999 V2000
   34.2530   27.7430   25.5550 C   0  0  0  0  0  0
   34.5710   26.6130   24.8490 O   0  5  0  0  0  0
   34.2150   28.8730   24.9340 O   0  0  0  0  0  0
   33.9760   27.6940   26.9340 C   0  0  3  0  0  0
   33.5770   28.9500   27.6530 C   0  0  0  0  0  0
   33.0900   28.6670   29.0860 C   0  0  1  0  0  0
   33.7970   27.4560   29.6910 C   0  0  1  0  0  0
   33.2300   27.2730   31.0320 N   0  0  0  0  0  0
   33.9170   27.1260   32.1600 C   0  0  0  0  0  0
   35.2920   27.1310   32.2030 O   0  0  0  0  0  0
   33.1590   26.9390   33.4550 C   0  0  0  0  0  0
   33.5650   26.2410   28.7720 C   0  0  1  0  0  0
   34.1130   26.5330   27.4770 O   0  0  0  0  0  0
   34.2630   24.9490   29.2640 C   0  0  2  0  0  0
   35.6760   25.1540   29.3090 O   0  0  0  0  0  0
   34.0390   23.7210   28.3490 C   0  0  2  0  0  0
   32.6450   23.4200   28.2400 O   0  0  0  0  0  0
   34.7370   22.4350   28.8470 C   0  0  0  0  0  0
   35.6840   22.6290   29.8690 O   0  0  0  0  0  0
   33.3450   29.8670   29.8650 N   0  0  0  0  0  0
   32.4970   30.5190   30.8700 C   0  0  0  0  0  0
   31.3010   30.0260   31.1990 N   0  0  0  0  0  0
   32.9390   31.6250   31.4620 N   0  3  0  0  0  0
   35.0332   27.9040   27.1538 H   0  0  0  0  0  0
   34.4407   29.6286   27.7124 H   0  0  0  0  0  0
   32.7606   29.4428   27.1047 H   0  0  0  0  0  0
   32.0095   28.4642   29.1225 H   0  0  0  0  0  0
   34.8808   27.5906   29.8227 H   0  0  0  0  0  0
   32.1389   27.2481   31.1691 H   0  0  0  0  0  0
   32.0779   26.9585   33.2531 H   0  0  0  0  0  0
   33.4168   27.7507   34.1512 H   0  0  0  0  0  0
   33.4310   25.9717   33.9027 H   0  0  0  0  0  0
   32.4797   26.0831   28.6868 H   0  0  0  0  0  0
   33.8962   24.7481   30.2814 H   0  0  0  0  0  0
   36.0933   25.9800   29.9036 H   0  0  0  0  0  0
   34.4014   23.9967   27.3477 H   0  0  0  0  0  0
   31.9404   24.1930   27.8994 H   0  0  0  0  0  0
   33.9834   21.7392   29.2444 H   0  0  0  0  0  0
   35.2700   21.9596   28.0104 H   0  0  0  0  0  0
   36.2294   21.7686   30.2840 H   0  0  0  0  0  0
   34.2886   30.4172   29.7347 H   0  0  0  0  0  0
   30.9303   29.1116   30.7127 H   0  0  0  0  0  0
   30.6861   30.5341   31.9564 H   0  0  0  0  0  0
   33.9238   32.0358   31.1949 H   0  0  0  0  0  0
   32.3197   32.1289   32.2187 H   0  0  0  0  0  0
  1  2  1  0  0  0
  1  3  2  0  0  0
  1  4  1  0  0  0
  4  5  1  0  0  0
  4 13  1  0  0  0
  4 24  1  0  0  0
  5  6  1  0  0  0
  5 25  1  0  0  0
  5 26  1  0  0  0
  6  7  1  0  0  0
  6 20  1  0  0  0
  6 27  1  0  0  0
  7  8  1  0  0  0
  7 12  1  0  0  0
  7 28  1  0  0  0
  8  9  1  0  0  0
  8 29  1  0  0  0
  9 10  2  0  0  0
  9 11  1  0  0  0
 11 30  1  0  0  0
 11 31  1  0  0  0
 11 32  1  0  0  0
 12 13  1  0  0  0
 12 14  1  0  0  0
 12 33  1  0  0  0
 14 15  1  0  0  0
 14 16  1  0  0  0
 14 34  1  0  0  0
 15 35  1  0  0  0
 16 17  1  0  0  0
 16 18  1  0  0  0
 16 36  1  0  0  0
 17 37  1  0  0  0
 18 19  1  0  0  0
 18 38  1  0  0  0
 18 39  1  0  0  0
 19 40  1  0  0  0
 20 21  1  0  0  0
 20 41  1  0  0  0
 21 22  1  0  0  0
 21 23  2  0  0  0
 22 42  1  0  0  0
 22 43  1  0  0  0
 23 44  1  0  0  0
 23 45  1  0  0  0
M  CHG  2   2  -1  23   1
M  END
> <s_m_source_file>
../2f0z_ligand.sdf

> <i_m_source_file_index>
1

> <s_epik_input>
W09IXUMoPU8pW0NIXTFbQ0gyXVtDQEhdKFtOSF0vQyhbTkgyXSk9TlxbSF0pW0NAQEhdKFtOSF1DKD1PKVtDSDNdKVtDQEBIXShPMSlbQ0BIXShbT0hdKVtDQEhdKFtPSF0pW0NIMl1bT0hd

> <s_epik_cmdline>
J2VwaWtfYXBwJywgJy1pbWFlJywgJ2xpZ2FuZF9wcm8ubWFlJywgJy1vbWFlJywgJ2xpZ2FuZF9wcmVwLm1hZScsICctbXMnLCAnMScsICctcGgnLCAnNycsICctcGh0JywgJzAuNScsICctbnQn

> <r_lp_tautomer_probability>
1

> <r_epik_Ionization_Penalty>
  0.0001

> <r_epik_Ionization_Penalty_Charging>
  0.0001

> <r_epik_Ionization_Penalty_Neutral>
  0.0000

> <r_epik_State_Penalty>
 -0.0000

> <r_epik_Charging_Adjusted_Penalty>
9.91098658302066e-05

> <i_epik_Tot_Q>
0

> <i_epik_Tot_abs_Q>
2

> <s_epik_Chemistry_Notes>
This compound has an imine and may undergo hydrolysis.

$$$$
