2f10_ligand
                    3D
 Schrodinger Suite 2020-3.
 51 51  0  0  1  0            999 V2000
   10.3120   14.1680   27.8280 C   0  0  1  0  0  0
   11.4290   14.0600   28.7680 N   0  0  0  0  0  0
   11.5180   13.0430   29.5550 C   0  0  0  0  0  0
   10.6480   11.9860   29.6250 N   0  0  0  0  0  0
   12.5750   12.9880   30.4190 N   0  3  0  0  0  0
    9.9300   15.6610   27.5710 C   0  0  2  0  0  0
    9.2860   16.4670   28.7570 C   0  0  2  0  0  0
    8.9130   17.9660   28.3050 C   0  0  0  0  0  0
   10.1460   18.7580   27.7630 C   0  0  0  0  0  0
    9.8510   19.8100   26.6660 C   0  0  0  0  0  0
    8.2460   18.7300   29.5080 C   0  0  0  0  0  0
    6.9970   18.0470   30.1180 C   0  0  0  0  0  0
   10.2750   16.4720   29.8660 N   0  0  0  0  0  0
    9.9840   16.0140   31.1260 C   0  0  0  0  0  0
   11.0840   16.0640   32.1660 C   0  0  0  0  0  0
    8.9110   15.5600   31.4980 O   0  0  0  0  0  0
    9.0240   15.5810   26.3010 C   0  0  2  0  0  0
    7.6270   15.4720   26.7230 O   0  0  0  0  0  0
    9.4820   14.2920   25.5230 C   0  0  1  0  0  0
    9.9170   14.5220   24.0840 C   0  0  0  0  0  0
   10.4830   13.6680   23.4120 O   0  0  0  0  0  0
    9.6710   15.7170   23.5210 O   0  5  0  0  0  0
   10.6170   13.6720   26.3910 C   0  0  0  0  0  0
    9.5797   13.5420   28.3589 H   0  0  0  0  0  0
   12.1955   14.8481   28.8042 H   0  0  0  0  0  0
    9.7697   11.9519   28.9636 H   0  0  0  0  0  0
   10.8282   11.1719   30.3425 H   0  0  0  0  0  0
   13.3207   13.7966   30.4280 H   0  0  0  0  0  0
   10.8425   16.2602   27.4358 H   0  0  0  0  0  0
    8.3828   15.9666   29.1362 H   0  0  0  0  0  0
    8.2042   17.9230   27.4649 H   0  0  0  0  0  0
   10.6223   19.3055   28.5897 H   0  0  0  0  0  0
   10.8693   18.0550   27.3240 H   0  0  0  0  0  0
   10.7892   20.2994   26.3655 H   0  0  0  0  0  0
    9.1536   20.5643   27.0594 H   0  0  0  0  0  0
    9.4006   19.3137   25.7937 H   0  0  0  0  0  0
    8.9745   18.8337   30.3256 H   0  0  0  0  0  0
    7.9238   19.7277   29.1753 H   0  0  0  0  0  0
    6.6117   18.6599   30.9462 H   0  0  0  0  0  0
    7.2715   17.0510   30.4957 H   0  0  0  0  0  0
    6.2207   17.9451   29.3453 H   0  0  0  0  0  0
   11.2919   16.8547   29.6944 H   0  0  0  0  0  0
   11.9942   16.4881   31.7169 H   0  0  0  0  0  0
   11.2934   15.0464   32.5274 H   0  0  0  0  0  0
   10.7633   16.6938   33.0089 H   0  0  0  0  0  0
    9.0466   16.4847   25.6743 H   0  0  0  0  0  0
    7.1551   16.2945   27.2805 H   0  0  0  0  0  0
    8.6354   13.6076   25.3654 H   0  0  0  0  0  0
   11.6118   14.0271   26.0840 H   0  0  0  0  0  0
   10.5978   12.5724   26.3708 H   0  0  0  0  0  0
   12.6803   12.1351   31.1056 H   0  0  0  0  0  0
  1  2  1  0  0  0
  1  6  1  0  0  0
  1 23  1  0  0  0
  1 24  1  0  0  0
  2  3  1  0  0  0
  2 25  1  0  0  0
  3  4  1  0  0  0
  3  5  2  0  0  0
  4 26  1  0  0  0
  4 27  1  0  0  0
  5 28  1  0  0  0
  5 51  1  0  0  0
  6  7  1  0  0  0
  6 17  1  0  0  0
  6 29  1  0  0  0
  7  8  1  0  0  0
  7 13  1  0  0  0
  7 30  1  0  0  0
  8  9  1  0  0  0
  8 11  1  0  0  0
  8 31  1  0  0  0
  9 10  1  0  0  0
  9 32  1  0  0  0
  9 33  1  0  0  0
 10 34  1  0  0  0
 10 35  1  0  0  0
 10 36  1  0  0  0
 11 12  1  0  0  0
 11 37  1  0  0  0
 11 38  1  0  0  0
 12 39  1  0  0  0
 12 40  1  0  0  0
 12 41  1  0  0  0
 13 14  1  0  0  0
 13 42  1  0  0  0
 14 15  1  0  0  0
 14 16  2  0  0  0
 15 43  1  0  0  0
 15 44  1  0  0  0
 15 45  1  0  0  0
 17 18  1  0  0  0
 17 19  1  0  0  0
 17 46  1  0  0  0
 18 47  1  0  0  0
 19 20  1  0  0  0
 19 23  1  0  0  0
 19 48  1  0  0  0
 20 21  2  0  0  0
 20 22  1  0  0  0
 23 49  1  0  0  0
 23 50  1  0  0  0
M  CHG  2   5   1  22  -1
M  END
> <s_m_source_file>
../2f10_ligand.sdf

> <i_m_source_file_index>
1

> <s_epik_input>
W0hdXE49QyhbTkgyXSlcW05IXVtDQEhdMVtDQEhdKFtDQEhdKFtDSF0oW0NIMl1bQ0gzXSlbQ0gyXVtDSDNdKVtOSF1DKD1PKVtDSDNdKVtDQEhdKFtPSF0pW0NASF0oW0NIMl0xKUMoPU8pW09IXQ==

> <s_epik_cmdline>
J2VwaWtfYXBwJywgJy1pbWFlJywgJ2xpZ2FuZF9wcm8ubWFlJywgJy1vbWFlJywgJ2xpZ2FuZF9wcmVwLm1hZScsICctbXMnLCAnMScsICctcGgnLCAnNycsICctcGh0JywgJzAuNScsICctbnQn

> <r_lp_tautomer_probability>
1

> <r_epik_Ionization_Penalty>
  0.0002

> <r_epik_Ionization_Penalty_Charging>
  0.0002

> <r_epik_Ionization_Penalty_Neutral>
  0.0000

> <r_epik_State_Penalty>
 -0.0000

> <r_epik_Charging_Adjusted_Penalty>
0.000179684030402543

> <i_epik_Tot_Q>
0

> <i_epik_Tot_abs_Q>
2

> <s_epik_Chemistry_Notes>
This compound has an imine and may undergo hydrolysis.

$$$$
