2f14_ligand
                    3D
 Schrodinger Suite 2020-3.
 63 67  0  0  1  0            999 V2000
   -6.0170    0.8830   16.9160 S   0  0  0  0  0  0
   -5.4540    0.9950   18.2440 O   0  0  0  0  0  0
   -7.4500    0.9470   16.7760 O   0  0  0  0  0  0
   -5.4910   -0.4950   16.2830 N   0  0  0  0  0  0
   -5.3360    2.2130   15.9410 C   0  0  0  0  0  0
   -3.9700    2.1580   15.5950 C   0  0  0  0  0  0
   -3.4470    3.1770   14.8490 C   0  0  0  0  0  0
   -4.2280    4.2830   14.4130 C   0  0  0  0  0  0
   -5.6000    4.3130   14.7760 C   0  0  0  0  0  0
   -6.1670    3.3020   15.5300 C   0  0  0  0  0  0
   -3.6050    5.4090   13.5710 C   0  0  0  0  0  0
   -2.0780    5.4040   13.5800 C   0  0  0  0  0  0
   -1.5350    6.5750   12.9370 N   0  0  0  0  0  0
   -1.6710    7.8110   13.3790 C   0  0  0  0  0  0
   -1.7480    8.1870   15.0220 S   0  0  0  0  0  0
   -1.7370    8.7430   12.3950 N   0  0  0  0  0  0
   -1.8810   10.1570   12.3350 C   0  0  0  0  0  0
   -1.8400   10.9270   13.5150 C   0  0  0  0  0  0
   -1.9750   12.3220   13.4600 C   0  0  0  0  0  0
   -2.1570   12.9850   12.2010 C   0  0  0  0  0  0
   -2.2040   12.1930   10.9850 C   0  0  0  0  0  0
   -2.0630   10.7960   11.0930 C   0  0  0  0  0  0
   -2.4000   12.7950    9.5900 C   0  0  0  0  0  0
   -1.6190   13.7140    9.2340 O   0  5  0  0  0  0
   -3.3300   12.3500    8.8780 O   0  0  0  0  0  0
   -2.2900   14.5180   12.2490 C   0  0  0  0  0  0
    0.2270   14.9040   12.7600 C   0  0  0  0  0  0
    1.2670   15.7830   13.0060 C   0  0  0  0  0  0
    1.0700   17.2170   13.0330 C   0  0  0  0  0  0
   -0.2630   17.7010   12.7900 C   0  0  0  0  0  0
   -4.8660   17.2590   11.8590 C   0  0  0  0  0  0
   -6.0720   16.5200   11.5890 C   0  0  0  0  0  0
   -6.0000   15.0520   11.5430 C   0  0  0  0  0  0
   -4.8090   14.4030   11.7520 C   0  0  0  0  0  0
   -3.5590   15.1320   12.0250 C   0  0  0  0  0  0
   -3.6700   16.5820   12.0690 C   0  0  0  0  0  0
   -1.1340   15.3640   12.5110 C   0  0  0  0  0  0
   -1.3030   16.8080   12.5460 C   0  0  0  0  0  0
   -2.5510   17.3670   12.3210 O   0  0  0  0  0  0
    2.0890   18.0230   13.2700 O   0  0  0  0  0  0
   -7.1920   17.1060   11.3890 O   0  0  0  0  0  0
   -5.8924   -1.3407   16.8607 H   0  0  0  0  0  0
   -4.3917   -0.5175   16.3157 H   0  0  0  0  0  0
   -3.3464    1.3232   15.9147 H   0  0  0  0  0  0
   -2.3918    3.1407   14.5780 H   0  0  0  0  0  0
   -6.2193    5.1501   14.4538 H   0  0  0  0  0  0
   -7.2214    3.3343   15.8044 H   0  0  0  0  0  0
   -3.9281    5.3060   12.5246 H   0  0  0  0  0  0
   -3.9330    6.3835   13.9618 H   0  0  0  0  0  0
   -1.7175    5.3821   14.6190 H   0  0  0  0  0  0
   -1.7111    4.5152   13.0458 H   0  0  0  0  0  0
   -0.9578    6.4735   12.0061 H   0  0  0  0  0  0
   -1.6730    8.4353   11.3408 H   0  0  0  0  0  0
   -1.7023   10.4345   14.4776 H   0  0  0  0  0  0
   -1.9414   12.9060   14.3797 H   0  0  0  0  0  0
   -2.0957   10.1904   10.1873 H   0  0  0  0  0  0
    0.4318   13.8334   12.7521 H   0  0  0  0  0  0
    2.2652   15.3835   13.1849 H   0  0  0  0  0  0
   -0.4598   18.7731   12.7970 H   0  0  0  0  0  0
   -4.8908   18.3480   11.8987 H   0  0  0  0  0  0
   -6.9015   14.4736   11.3409 H   0  0  0  0  0  0
   -4.7876   13.3138   11.7148 H   0  0  0  0  0  0
    3.0905   17.6051   13.4502 H   0  0  0  0  0  0
  1  2  2  0  0  0
  1  3  2  0  0  0
  1  4  1  0  0  0
  1  5  1  0  0  0
  4 42  1  0  0  0
  4 43  1  0  0  0
  5  6  2  0  0  0
  5 10  1  0  0  0
  6  7  1  0  0  0
  6 44  1  0  0  0
  7  8  2  0  0  0
  7 45  1  0  0  0
  8  9  1  0  0  0
  8 11  1  0  0  0
  9 10  2  0  0  0
  9 46  1  0  0  0
 10 47  1  0  0  0
 11 12  1  0  0  0
 11 48  1  0  0  0
 11 49  1  0  0  0
 12 13  1  0  0  0
 12 50  1  0  0  0
 12 51  1  0  0  0
 13 14  1  0  0  0
 13 52  1  0  0  0
 14 15  2  0  0  0
 14 16  1  0  0  0
 16 17  1  0  0  0
 16 53  1  0  0  0
 17 18  2  0  0  0
 17 22  1  0  0  0
 18 19  1  0  0  0
 18 54  1  0  0  0
 19 20  2  0  0  0
 19 55  1  0  0  0
 20 21  1  0  0  0
 20 26  1  0  0  0
 21 22  2  0  0  0
 21 23  1  0  0  0
 22 56  1  0  0  0
 23 24  1  0  0  0
 23 25  2  0  0  0
 26 35  2  0  0  0
 26 37  1  0  0  0
 27 28  2  0  0  0
 27 37  1  0  0  0
 27 57  1  0  0  0
 28 29  1  0  0  0
 28 58  1  0  0  0
 29 30  2  0  0  0
 29 40  1  0  0  0
 30 38  1  0  0  0
 30 59  1  0  0  0
 31 32  1  0  0  0
 31 36  2  0  0  0
 31 60  1  0  0  0
 32 33  1  0  0  0
 32 41  2  0  0  0
 33 34  2  0  0  0
 33 61  1  0  0  0
 34 35  1  0  0  0
 34 62  1  0  0  0
 35 36  1  0  0  0
 36 39  1  0  0  0
 37 38  2  0  0  0
 38 39  1  0  0  0
 40 63  1  0  0  0
M  CHG  1  24  -1
M  END
> <s_m_source_file>
../2f14_ligand.sdf

> <i_m_source_file_index>
1

> <s_epik_input>
Tz1TKD1PKShbTkgyXSljMVtjSF1bY0hdYyhbY0hdW2NIXTEpW0NIMl1bQ0gyXVtOSF1DKD1TKVtOSF1jMltjSF1bY0hdYyhjKFtjSF0yKUMoPU8pW09IXSktYzNjKFtjSF1bY0hdYyhbY0hdNClbT0hdKWM0b2MoYzM1KVtjSF1jKD1PKVtjSF1bY0hdNQ==

> <s_epik_cmdline>
J2VwaWtfYXBwJywgJy1pbWFlJywgJ2xpZ2FuZF9wcm8ubWFlJywgJy1vbWFlJywgJ2xpZ2FuZF9wcmVwLm1hZScsICctbXMnLCAnMScsICctcGgnLCAnNycsICctcGh0JywgJzAuNScsICctbnQn

> <r_epik_Ionization_Penalty>
  0.0443

> <r_epik_Ionization_Penalty_Charging>
  0.0004

> <r_epik_Ionization_Penalty_Neutral>
  0.0440

> <r_epik_State_Penalty>
  0.0368

> <r_epik_Charging_Adjusted_Penalty>
0.037211953241047

> <i_epik_Tot_Q>
-1

> <i_epik_Tot_abs_Q>
1

$$$$
