2f18_ligand
                    3D
 Schrodinger Suite 2020-3.
 39 40  0  0  1  0            999 V2000
   27.3650   67.5130   11.6710 C   0  0  0  0  0  0
   27.1270   68.8950   11.7740 C   0  0  0  0  0  0
   28.0380   69.7160   12.4180 C   0  0  0  0  0  0
   29.1500   69.0950   12.9410 C   0  0  0  0  0  0
   29.4310   67.7270   12.8650 C   0  0  0  0  0  0
   28.5090   66.9010   12.2090 C   0  0  0  0  0  0
   28.7610   65.3820   12.1220 C   0  0  2  0  0  0
   28.9030   64.8450   13.5390 C   0  0  0  0  0  0
   29.0260   63.4440   13.3650 O   0  0  0  0  0  0
   29.9000   65.2630   11.1830 N   0  0  1  0  0  0
   29.8710   65.7140    9.7930 C   0  0  0  0  0  0
   31.0190   65.1920    8.9450 C   0  0  1  0  0  0
   30.7500   65.3810    7.5060 N   0  3  0  0  0  0
   31.2440   66.6410    6.9600 C   0  0  0  0  0  0
   32.6020   66.5920    7.6590 C   0  0  2  0  0  0
   33.6160   65.8690    6.9940 O   0  0  0  0  0  0
   32.2390   66.1040    9.0560 C   0  0  2  0  0  0
   33.2210   65.1740    9.4700 O   0  0  0  0  0  0
   26.6333   66.8926   11.1536 H   0  0  0  0  0  0
   26.2208   69.3225   11.3448 H   0  0  0  0  0  0
   27.8835   70.7914   12.5057 H   0  0  0  0  0  0
   29.8740   69.7239   13.4591 H   0  0  0  0  0  0
   30.3404   67.3157   13.3032 H   0  0  0  0  0  0
   27.9841   64.7305   11.6954 H   0  0  0  0  0  0
   29.7952   65.2837   14.0097 H   0  0  0  0  0  0
   28.0107   65.1129   14.1238 H   0  0  0  0  0  0
   29.1447   62.7893   14.2409 H   0  0  0  0  0  0
   30.7617   65.8201   11.5794 H   0  0  0  0  0  0
   28.9386   65.3760    9.3173 H   0  0  0  0  0  0
   29.9208   66.8125    9.7628 H   0  0  0  0  0  0
   31.1462   64.1442    9.2549 H   0  0  0  0  0  0
   31.2305   64.5736    6.9340 H   0  0  0  0  0  0
   29.6644   65.3591    7.3299 H   0  0  0  0  0  0
   31.2686   66.5802    5.8620 H   0  0  0  0  0  0
   30.5771   67.4602    7.2670 H   0  0  0  0  0  0
   33.1736   67.5315    7.6323 H   0  0  0  0  0  0
   33.9293   66.1653    5.9820 H   0  0  0  0  0  0
   32.1602   66.9574    9.7455 H   0  0  0  0  0  0
   33.1455   64.6979   10.4587 H   0  0  0  0  0  0
  1  2  2  0  0  0
  1  6  1  0  0  0
  1 19  1  0  0  0
  2  3  1  0  0  0
  2 20  1  0  0  0
  3  4  2  0  0  0
  3 21  1  0  0  0
  4  5  1  0  0  0
  4 22  1  0  0  0
  5  6  2  0  0  0
  5 23  1  0  0  0
  6  7  1  0  0  0
  7  8  1  0  0  0
  7 10  1  0  0  0
  7 24  1  0  0  0
  8  9  1  0  0  0
  8 25  1  0  0  0
  8 26  1  0  0  0
  9 27  1  0  0  0
 10 11  1  0  0  0
 10 28  1  0  0  0
 11 12  1  0  0  0
 11 29  1  0  0  0
 11 30  1  0  0  0
 12 13  1  0  0  0
 12 17  1  0  0  0
 12 31  1  0  0  0
 13 14  1  0  0  0
 13 32  1  0  0  0
 13 33  1  0  0  0
 14 15  1  0  0  0
 14 34  1  0  0  0
 14 35  1  0  0  0
 15 16  1  0  0  0
 15 17  1  0  0  0
 15 36  1  0  0  0
 16 37  1  0  0  0
 17 18  1  0  0  0
 17 38  1  0  0  0
 18 39  1  0  0  0
M  CHG  1  13   1
M  END
> <s_m_source_file>
../2f18_ligand.sdf

> <i_m_source_file_index>
1

> <s_epik_input>
W2NIXTFbY0hdW2NIXVtjSF1bY0hdYzFbQ0BIXShbQ0gyXVtPSF0pW05IMitdW0NIMl1bQ0BIXTJbTkgyK11bQ0gyXVtDQEhdKFtPSF0pW0NAQEhdMltPSF0=

> <s_epik_cmdline>
J2VwaWtfYXBwJywgJy1pbWFlJywgJ2xpZ2FuZF9wcm8ubWFlJywgJy1vbWFlJywgJ2xpZ2FuZF9wcmVwLm1hZScsICctbXMnLCAnMScsICctcGgnLCAnNycsICctcGh0JywgJzAuNScsICctbnQn

> <r_lp_tautomer_probability>
1

> <r_epik_Ionization_Penalty>
  0.1029

> <r_epik_Ionization_Penalty_Charging>
  0.0065

> <r_epik_Ionization_Penalty_Neutral>
  0.0964

> <r_epik_State_Penalty>
 -0.0000

> <r_epik_Charging_Adjusted_Penalty>
0.00649589287871015

> <i_epik_Tot_Q>
1

> <i_epik_Tot_abs_Q>
1

$$$$
