2f1a_ligand
                    3D
 Schrodinger Suite 2020-3.
 39 40  0  0  1  0            999 V2000
   29.0140   65.2650   12.1290 C   0  0  1  0  0  0
   29.8940   65.0670   10.9780 N   0  0  1  0  0  0
   29.8080   65.7580    9.7000 C   0  0  0  0  0  0
   30.9570   65.2300    8.8420 C   0  0  1  0  0  0
   30.7550   65.3650    7.4150 N   0  3  0  0  0  0
   31.3260   66.5690    6.8130 C   0  0  0  0  0  0
   32.6510   66.5270    7.5750 C   0  0  2  0  0  0
   33.6810   65.7670    6.9670 O   0  0  0  0  0  0
   32.2540   66.0200    8.9760 C   0  0  2  0  0  0
   33.2080   65.1240    9.5290 O   0  0  0  0  0  0
   27.3820   67.3270   11.6680 C   0  0  0  0  0  0
   27.0730   68.7150   11.8230 C   0  0  0  0  0  0
   27.9240   69.5600   12.5720 C   0  0  0  0  0  0
   29.0640   68.9690   13.1400 C   0  0  0  0  0  0
   29.4170   67.5960   13.0170 C   0  0  0  0  0  0
   28.5560   66.7360   12.2590 C   0  0  0  0  0  0
   27.8510   64.2850   12.0030 C   0  0  0  0  0  0
   28.3270   63.1030   11.3630 O   0  0  0  0  0  0
   29.5976   65.0342   13.0324 H   0  0  0  0  0  0
   30.9301   65.3009   11.2641 H   0  0  0  0  0  0
   28.8365   65.5424    9.2313 H   0  0  0  0  0  0
   29.9045   66.8417    9.8619 H   0  0  0  0  0  0
   30.9961   64.1769    9.1573 H   0  0  0  0  0  0
   31.2141   64.5099    6.8972 H   0  0  0  0  0  0
   29.6769   65.3893    7.1979 H   0  0  0  0  0  0
   31.4002   66.4345    5.7238 H   0  0  0  0  0  0
   30.6790   67.4310    7.0327 H   0  0  0  0  0  0
   33.1919   67.4845    7.5508 H   0  0  0  0  0  0
   34.0457   66.0373    5.9650 H   0  0  0  0  0  0
   32.2153   66.8647    9.6796 H   0  0  0  0  0  0
   33.0418   64.6903   10.5261 H   0  0  0  0  0  0
   26.7094   66.6975   11.0854 H   0  0  0  0  0  0
   26.1749   69.1243   11.3603 H   0  0  0  0  0  0
   27.7054   70.6199   12.7023 H   0  0  0  0  0  0
   29.7287   69.6103   13.7188 H   0  0  0  0  0  0
   30.3201   67.2075   13.4877 H   0  0  0  0  0  0
   27.4660   64.0422   13.0044 H   0  0  0  0  0  0
   27.0500   64.7417   11.4031 H   0  0  0  0  0  0
   27.6401   62.2646   11.1752 H   0  0  0  0  0  0
  1  2  1  0  0  0
  1 16  1  0  0  0
  1 17  1  0  0  0
  1 19  1  0  0  0
  2  3  1  0  0  0
  2 20  1  0  0  0
  3  4  1  0  0  0
  3 21  1  0  0  0
  3 22  1  0  0  0
  4  5  1  0  0  0
  4  9  1  0  0  0
  4 23  1  0  0  0
  5  6  1  0  0  0
  5 24  1  0  0  0
  5 25  1  0  0  0
  6  7  1  0  0  0
  6 26  1  0  0  0
  6 27  1  0  0  0
  7  8  1  0  0  0
  7  9  1  0  0  0
  7 28  1  0  0  0
  8 29  1  0  0  0
  9 10  1  0  0  0
  9 30  1  0  0  0
 10 31  1  0  0  0
 11 12  2  0  0  0
 11 16  1  0  0  0
 11 32  1  0  0  0
 12 13  1  0  0  0
 12 33  1  0  0  0
 13 14  2  0  0  0
 13 34  1  0  0  0
 14 15  1  0  0  0
 14 35  1  0  0  0
 15 16  2  0  0  0
 15 36  1  0  0  0
 17 18  1  0  0  0
 17 37  1  0  0  0
 17 38  1  0  0  0
 18 39  1  0  0  0
M  CHG  1   5   1
M  END
> <s_m_source_file>
../2f1a_ligand.sdf

> <i_m_source_file_index>
1

> <s_epik_input>
W2NIXTFbY0hdW2NIXVtjSF1bY0hdYzFbQ0BASF0oW0NIMl1bT0hdKVtOSDIrXVtDSDJdW0NASF0yW05IMitdW0NIMl1bQ0BIXShbT0hdKVtDQEBIXTJbT0hd

> <s_epik_cmdline>
J2VwaWtfYXBwJywgJy1pbWFlJywgJ2xpZ2FuZF9wcm8ubWFlJywgJy1vbWFlJywgJ2xpZ2FuZF9wcmVwLm1hZScsICctbXMnLCAnMScsICctcGgnLCAnNycsICctcGh0JywgJzAuNScsICctbnQn

> <r_lp_tautomer_probability>
1

> <r_epik_Ionization_Penalty>
  0.1029

> <r_epik_Ionization_Penalty_Charging>
  0.0065

> <r_epik_Ionization_Penalty_Neutral>
  0.0964

> <r_epik_State_Penalty>
 -0.0000

> <r_epik_Charging_Adjusted_Penalty>
0.00649589287871015

> <i_epik_Tot_Q>
1

> <i_epik_Tot_abs_Q>
1

$$$$
