2f1b_ligand
                    3D
 Schrodinger Suite 2020-3.
 42 43  0  0  1  0            999 V2000
   27.4810   68.3060   12.0960 C   0  0  0  0  0  0
   27.3250   69.7320   12.1940 C   0  0  0  0  0  0
   28.3190   70.5480   12.7780 C   0  0  0  0  0  0
   29.4780   69.9120   13.2620 C   0  0  0  0  0  0
   29.6910   68.5010   13.1980 C   0  0  0  0  0  0
   28.6690   67.6640   12.6020 C   0  0  0  0  0  0
   28.8020   66.1330   12.5260 C   0  0  2  0  0  0
   28.9440   65.5020   13.9280 C   0  0  0  0  0  0
   28.9820   64.0920   13.7690 O   0  0  0  0  0  0
   29.9360   65.9340   11.6160 N   0  0  1  0  0  0
   30.0320   66.3680   10.2220 C   0  0  0  0  0  0
   31.1520   65.7870    9.3650 C   0  0  1  0  0  0
   30.7950   65.9120    7.9400 N   0  3  0  0  0  0
   31.2730   67.1820    7.4060 C   0  0  1  0  0  0
   32.6690   67.1900    7.9950 C   0  0  2  0  0  0
   33.7240   66.5390    7.2960 O   0  0  0  0  0  0
   32.4220   66.6410    9.4000 C   0  0  2  0  0  0
   33.4740   65.7680    9.7860 O   0  0  0  0  0  0
   31.3380   67.1790    5.8990 C   0  0  0  0  0  0
   26.6958   67.7060   11.6360 H   0  0  0  0  0  0
   26.4168   70.1949   11.8079 H   0  0  0  0  0  0
   28.1936   71.6283   12.8511 H   0  0  0  0  0  0
   30.2557   70.5304   13.7103 H   0  0  0  0  0  0
   30.6075   68.0609   13.5911 H   0  0  0  0  0  0
   27.9386   65.6035   12.0969 H   0  0  0  0  0  0
   29.8728   65.8577   14.3978 H   0  0  0  0  0  0
   28.0842   65.7924   14.5496 H   0  0  0  0  0  0
   29.0806   63.4416   14.6506 H   0  0  0  0  0  0
   30.8302   66.4207   12.0326 H   0  0  0  0  0  0
   29.1036   66.1081    9.6923 H   0  0  0  0  0  0
   30.1817   67.4572   10.1865 H   0  0  0  0  0  0
   31.2890   64.7542    9.7179 H   0  0  0  0  0  0
   31.2550   65.0891    7.3732 H   0  0  0  0  0  0
   29.7014   65.8661    7.8306 H   0  0  0  0  0  0
   30.6166   68.0267    7.6624 H   0  0  0  0  0  0
   33.1486   68.1753    7.8996 H   0  0  0  0  0  0
   33.9856   66.8561    6.2757 H   0  0  0  0  0  0
   32.4018   67.4606   10.1334 H   0  0  0  0  0  0
   33.4526   65.2840   10.7735 H   0  0  0  0  0  0
   30.3177   67.1732    5.4880 H   0  0  0  0  0  0
   31.8762   66.2827    5.5570 H   0  0  0  0  0  0
   31.8675   68.0789    5.5531 H   0  0  0  0  0  0
  1  2  2  0  0  0
  1  6  1  0  0  0
  1 20  1  0  0  0
  2  3  1  0  0  0
  2 21  1  0  0  0
  3  4  2  0  0  0
  3 22  1  0  0  0
  4  5  1  0  0  0
  4 23  1  0  0  0
  5  6  2  0  0  0
  5 24  1  0  0  0
  6  7  1  0  0  0
  7  8  1  0  0  0
  7 10  1  0  0  0
  7 25  1  0  0  0
  8  9  1  0  0  0
  8 26  1  0  0  0
  8 27  1  0  0  0
  9 28  1  0  0  0
 10 11  1  0  0  0
 10 29  1  0  0  0
 11 12  1  0  0  0
 11 30  1  0  0  0
 11 31  1  0  0  0
 12 13  1  0  0  0
 12 17  1  0  0  0
 12 32  1  0  0  0
 13 14  1  0  0  0
 13 33  1  0  0  0
 13 34  1  0  0  0
 14 15  1  0  0  0
 14 19  1  0  0  0
 14 35  1  0  0  0
 15 16  1  0  0  0
 15 17  1  0  0  0
 15 36  1  0  0  0
 16 37  1  0  0  0
 17 18  1  0  0  0
 17 38  1  0  0  0
 18 39  1  0  0  0
 19 40  1  0  0  0
 19 41  1  0  0  0
 19 42  1  0  0  0
M  CHG  1  13   1
M  END
> <s_m_source_file>
../2f1b_ligand.sdf

> <i_m_source_file_index>
1

> <s_epik_input>
W2NIXTFbY0hdW2NIXVtjSF1bY0hdYzFbQ0BIXShbQ0gyXVtPSF0pW05IMitdW0NIMl1bQ0BIXTJbTkgyK11bQ0BIXShbQ0gzXSlbQ0BIXShbT0hdKVtDQEBIXTJbT0hd

> <s_epik_cmdline>
J2VwaWtfYXBwJywgJy1pbWFlJywgJ2xpZ2FuZF9wcm8ubWFlJywgJy1vbWFlJywgJ2xpZ2FuZF9wcmVwLm1hZScsICctbXMnLCAnMScsICctcGgnLCAnNycsICctcGh0JywgJzAuNScsICctbnQn

> <r_lp_tautomer_probability>
1

> <r_epik_Ionization_Penalty>
  0.1074

> <r_epik_Ionization_Penalty_Charging>
  0.0065

> <r_epik_Ionization_Penalty_Neutral>
  0.1009

> <r_epik_State_Penalty>
 -0.0000

> <r_epik_Charging_Adjusted_Penalty>
0.00649589287871015

> <i_epik_Tot_Q>
1

> <i_epik_Tot_abs_Q>
1

$$$$
