2f2c_ligand
                    3D
 Schrodinger Suite 2020-3.
 54 56  0  0  1  0            999 V2000
   27.4990   22.7740   58.0140 O   0  0  0  0  0  0
   28.4380   22.0740   58.8400 C   0  0  0  0  0  0
   29.8230   22.1260   58.1860 C   0  0  2  0  0  0
   30.4190   20.7610   57.8500 C   0  0  0  0  0  0
   31.8920   20.9050   57.4820 C   0  0  0  0  0  0
   29.6500   20.0820   56.7200 C   0  0  0  0  0  0
   30.7740   22.9020   58.9760 N   0  0  0  0  0  0
   30.9780   22.8650   60.3210 C   0  0  0  0  0  0
   31.8580   23.7890   60.7880 N   0  0  0  0  0  0
   32.1810   23.8960   62.0980 C   0  0  0  0  0  0
   31.5440   22.9630   63.0390 C   0  0  0  0  0  0
   32.0290   23.2780   64.2540 N   0  0  0  0  0  0
   32.8930   24.3140   64.1050 C   0  0  0  0  0  0
   32.9950   24.6910   62.8170 N   0  0  0  0  0  0
   33.8670   25.8130   62.3340 C   0  0  0  0  0  0
   33.3530   27.0990   62.9770 C   0  0  0  0  0  0
   33.7960   26.0270   60.8190 C   0  0  0  0  0  0
   30.5920   21.9480   62.4950 C   0  0  0  0  0  0
   30.3580   21.9660   61.1510 N   0  0  0  0  0  0
   29.9800   21.0910   63.3560 N   0  0  0  0  0  0
   29.6030   19.8100   63.1530 C   0  0  0  0  0  0
   30.1820   18.8130   63.9450 C   0  0  0  0  0  0
   29.8090   17.4750   63.8060 C   0  0  0  0  0  0
   30.3920   16.5260   64.5730 N   0  0  0  0  0  0
   28.8350   17.1250   62.8750 C   0  0  0  0  0  0
   28.2440   18.1190   62.0910 C   0  0  0  0  0  0
   27.2030   17.7230   61.0850 Cl  0  0  0  0  0  0
   28.6150   19.4640   62.2290 C   0  0  0  0  0  0
   26.4447   22.8460   58.3193 H   0  0  0  0  0  0
   28.4801   22.5494   59.8311 H   0  0  0  0  0  0
   28.1208   21.0264   58.9490 H   0  0  0  0  0  0
   29.6849   22.6725   57.2414 H   0  0  0  0  0  0
   30.3360   20.1235   58.7426 H   0  0  0  0  0  0
   32.4297   21.3956   58.3067 H   0  0  0  0  0  0
   31.9844   21.5139   56.5705 H   0  0  0  0  0  0
   32.3243   19.9094   57.3033 H   0  0  0  0  0  0
   28.5912   19.9867   57.0026 H   0  0  0  0  0  0
   30.0723   19.0827   56.5379 H   0  0  0  0  0  0
   29.7323   20.6872   55.8051 H   0  0  0  0  0  0
   31.4387   23.6256   58.4814 H   0  0  0  0  0  0
   33.4363   24.7822   64.9258 H   0  0  0  0  0  0
   34.8979   25.5456   62.6092 H   0  0  0  0  0  0
   33.3828   26.9987   64.0720 H   0  0  0  0  0  0
   32.3177   27.2822   62.6536 H   0  0  0  0  0  0
   33.9882   27.9424   62.6686 H   0  0  0  0  0  0
   34.1572   25.1247   60.3039 H   0  0  0  0  0  0
   34.4252   26.8851   60.5400 H   0  0  0  0  0  0
   32.7546   26.2249   60.5251 H   0  0  0  0  0  0
   29.7284   21.4211   64.3747 H   0  0  0  0  0  0
   30.9368   19.0853   64.6828 H   0  0  0  0  0  0
   31.1611   16.8081   65.3071 H   0  0  0  0  0  0
   30.0971   15.4720   64.4628 H   0  0  0  0  0  0
   28.5357   16.0834   62.7586 H   0  0  0  0  0  0
   28.1369   20.2320   61.6210 H   0  0  0  0  0  0
  1  2  1  0  0  0
  1 29  1  0  0  0
  2  3  1  0  0  0
  2 30  1  0  0  0
  2 31  1  0  0  0
  3  4  1  0  0  0
  3  7  1  0  0  0
  3 32  1  0  0  0
  4  5  1  0  0  0
  4  6  1  0  0  0
  4 33  1  0  0  0
  5 34  1  0  0  0
  5 35  1  0  0  0
  5 36  1  0  0  0
  6 37  1  0  0  0
  6 38  1  0  0  0
  6 39  1  0  0  0
  7  8  1  0  0  0
  7 40  1  0  0  0
  8  9  2  0  0  0
  8 19  1  0  0  0
  9 10  1  0  0  0
 10 11  2  0  0  0
 10 14  1  0  0  0
 11 12  1  0  0  0
 11 18  1  0  0  0
 12 13  2  0  0  0
 13 14  1  0  0  0
 13 41  1  0  0  0
 14 15  1  0  0  0
 15 16  1  0  0  0
 15 17  1  0  0  0
 15 42  1  0  0  0
 16 43  1  0  0  0
 16 44  1  0  0  0
 16 45  1  0  0  0
 17 46  1  0  0  0
 17 47  1  0  0  0
 17 48  1  0  0  0
 18 19  2  0  0  0
 18 20  1  0  0  0
 20 21  1  0  0  0
 20 49  1  0  0  0
 21 22  2  0  0  0
 21 28  1  0  0  0
 22 23  1  0  0  0
 22 50  1  0  0  0
 23 24  1  0  0  0
 23 25  2  0  0  0
 24 51  1  0  0  0
 24 52  1  0  0  0
 25 26  1  0  0  0
 25 53  1  0  0  0
 26 27  1  0  0  0
 26 28  2  0  0  0
 28 54  1  0  0  0
M  END
> <s_m_source_file>
../2f2c_ligand.sdf

> <i_m_source_file_index>
1

> <s_epik_input>
W09IXVtDSDJdW0NASF0oW0NIXShbQ0gzXSlbQ0gzXSlbTkhdYyhuMSluYyhjKGMxMiluW2NIXW4yW0NIXShbQ0gzXSlbQ0gzXSlbTkhdYzNbY0hdYyhbTkgyXSlbY0hdYyhDbClbY0hdMw==

> <s_epik_cmdline>
J2VwaWtfYXBwJywgJy1pbWFlJywgJ2xpZ2FuZF9wcm8ubWFlJywgJy1vbWFlJywgJ2xpZ2FuZF9wcmVwLm1hZScsICctbXMnLCAnMScsICctcGgnLCAnNycsICctcGh0JywgJzAuNScsICctbnQn

> <r_lp_tautomer_probability>
1

> <r_epik_Ionization_Penalty>
  0.0027

> <r_epik_Ionization_Penalty_Charging>
  0.0000

> <r_epik_Ionization_Penalty_Neutral>
  0.0027

> <r_epik_State_Penalty>
 -0.0000

> <r_epik_Charging_Adjusted_Penalty>
0

> <i_epik_Tot_Q>
0

> <i_epik_Tot_abs_Q>
0

$$$$
