2f3r_ligand
                    3D
 Schrodinger Suite 2020-3.
 82 87  0  0  1  0            999 V2000
   14.2020   -7.6840   -1.2230 P   0  0  1  0  0  0
   13.8690   -7.2200    0.1570 O   0  5  0  0  0  0
   13.5000   -7.1010   -2.3760 O   0  0  0  0  0  0
   17.2100   -7.6520   -0.9420 P   0  0  1  0  0  0
   17.6200   -6.5760    0.0390 O   0  0  0  0  0  0
   16.9540   -8.9550   -0.2030 O   0  5  0  0  0  0
   15.7660   -7.3290   -1.5520 O   0  0  0  0  0  0
   18.5650   -7.4250   -3.4220 P   0  0  2  0  0  0
   18.3160   -8.5230   -4.4130 O   0  0  0  0  0  0
   19.9520   -6.8950   -3.8200 O   0  5  0  0  0  0
   18.4000   -7.8690   -2.0020 O   0  0  0  0  0  0
   17.7430   -4.8540   -4.4500 P   0  0  2  0  0  0
   18.3830   -3.7780   -3.6270 O   0  0  0  0  0  0
   16.5110   -4.3990   -5.2200 O   0  5  0  0  0  0
   17.5650   -6.1810   -3.7240 O   0  0  0  0  0  0
   18.8650   -5.1940   -5.6370 O   0  0  0  0  0  0
   19.4830   -4.3030   -6.7900 P   0  0  2  0  0  0
   18.8650   -2.9460   -6.8310 O   0  0  0  0  0  0
   19.5970   -5.0690   -8.0950 O   0  5  0  0  0  0
   20.9960   -4.1650   -6.2820 O   0  0  0  0  0  0
   21.2140   -3.4880   -5.0790 C   0  0  0  0  0  0
   22.6290   -3.6400   -4.6250 C   0  0  1  0  0  0
   23.3470   -2.5580   -5.3140 O   0  0  0  0  0  0
   22.7020   -3.3920   -3.1120 C   0  0  1  0  0  0
   23.8630   -4.1650   -2.6140 O   0  0  0  0  0  0
   22.9350   -1.9150   -3.0410 C   0  0  1  0  0  0
   23.4540   -1.5510   -1.8130 O   0  0  0  0  0  0
   23.7960   -1.6510   -4.3340 C   0  0  2  0  0  0
   23.5490   -0.1970   -4.8760 N   0  0  0  0  0  0
   22.3570    0.2660   -5.3660 C   0  0  0  0  0  0
   22.4710    1.5550   -5.7490 N   0  0  0  0  0  0
   23.7910    1.9000   -5.4810 C   0  0  0  0  0  0
   24.4640    3.1340   -5.6870 C   0  0  0  0  0  0
   23.9490    4.1610   -6.1610 O   0  0  0  0  0  0
   25.8230    3.1050   -5.2910 N   0  0  0  0  0  0
   26.4310    1.9590   -4.7500 C   0  0  0  0  0  0
   27.7390    2.0290   -4.4020 N   0  0  0  0  0  0
   25.7700    0.7850   -4.5580 N   0  0  0  0  0  0
   24.4730    0.8320   -4.9440 C   0  0  0  0  0  0
   14.2940   -9.2140   -1.3340 O   0  0  0  0  0  0
   13.2750  -10.1580   -0.9230 C   0  0  0  0  0  0
   13.9290  -11.4470   -0.5540 C   0  0  1  0  0  0
   12.9730  -12.4920   -0.4210 O   0  0  0  0  0  0
   13.3660  -13.6580   -1.1920 C   0  0  2  0  0  0
   14.2150  -13.0910   -2.3240 C   0  0  2  0  0  0
   14.9530  -14.1870   -2.8770 O   0  0  0  0  0  0
   15.0430  -11.9930   -1.5820 C   0  0  2  0  0  0
   16.1080  -12.5190   -0.7250 O   0  0  0  0  0  0
   12.2160  -14.4540   -1.7250 N   0  0  0  0  0  0
   11.8630  -15.7330   -1.2690 C   0  0  0  0  0  0
   12.5050  -16.4700   -0.2610 N   0  0  0  0  0  0
   11.9410  -17.6890   -0.0330 C   0  0  0  0  0  0
   10.8480  -18.1970   -0.7010 N   0  0  0  0  0  0
   10.2230  -17.4690   -1.6930 C   0  0  0  0  0  0
    9.1840  -18.0740   -2.2600 N   0  0  0  0  0  0
   10.7540  -16.1390   -2.0120 C   0  0  0  0  0  0
   10.4220  -15.1400   -2.9090 N   0  0  0  0  0  0
   11.2990  -14.1690   -2.7110 C   0  0  0  0  0  0
   21.0020   -2.4175   -5.2171 H   0  0  0  0  0  0
   20.5498   -3.8962   -4.3029 H   0  0  0  0  0  0
   23.0450   -4.6280   -4.8717 H   0  0  0  0  0  0
   21.8404   -3.6894   -2.4963 H   0  0  0  0  0  0
   23.8301   -5.2645   -2.6082 H   0  0  0  0  0  0
   22.0548   -1.2635   -2.9366 H   0  0  0  0  0  0
   22.8716   -1.7253   -0.8962 H   0  0  0  0  0  0
   24.8671   -1.8457   -4.1765 H   0  0  0  0  0  0
   21.4434   -0.3243   -5.4368 H   0  0  0  0  0  0
   26.4475    4.0037   -5.4019 H   0  0  0  0  0  0
   28.2972    2.9658   -4.5465 H   0  0  0  0  0  0
   28.2424    1.1490   -3.9751 H   0  0  0  0  0  0
   12.7312   -9.7559   -0.0555 H   0  0  0  0  0  0
   12.5716  -10.3226   -1.7526 H   0  0  0  0  0  0
   14.3212  -11.2082    0.4456 H   0  0  0  0  0  0
   13.8856  -14.3595   -0.5227 H   0  0  0  0  0  0
   13.7238  -12.7039   -3.2289 H   0  0  0  0  0  0
   14.4258  -14.9913   -3.4110 H   0  0  0  0  0  0
   15.5791  -11.3340   -2.2808 H   0  0  0  0  0  0
   16.7495  -11.8282   -0.1582 H   0  0  0  0  0  0
   12.3904  -18.3126    0.7399 H   0  0  0  0  0  0
    8.8844  -19.0790   -1.9281 H   0  0  0  0  0  0
    8.6238  -17.5696   -3.0611 H   0  0  0  0  0  0
   11.2955  -13.2353   -3.2735 H   0  0  0  0  0  0
  1  2  1  0  0  0
  1  3  2  0  0  0
  1  7  1  0  0  0
  1 40  1  0  0  0
  4  5  2  0  0  0
  4  6  1  0  0  0
  4  7  1  0  0  0
  4 11  1  0  0  0
  8  9  2  0  0  0
  8 10  1  0  0  0
  8 11  1  0  0  0
  8 15  1  0  0  0
 12 13  2  0  0  0
 12 14  1  0  0  0
 12 15  1  0  0  0
 12 16  1  0  0  0
 16 17  1  0  0  0
 17 18  2  0  0  0
 17 19  1  0  0  0
 17 20  1  0  0  0
 20 21  1  0  0  0
 21 22  1  0  0  0
 21 59  1  0  0  0
 21 60  1  0  0  0
 22 23  1  0  0  0
 22 24  1  0  0  0
 22 61  1  0  0  0
 23 28  1  0  0  0
 24 25  1  0  0  0
 24 26  1  0  0  0
 24 62  1  0  0  0
 25 63  1  0  0  0
 26 27  1  0  0  0
 26 28  1  0  0  0
 26 64  1  0  0  0
 27 65  1  0  0  0
 28 29  1  0  0  0
 28 66  1  0  0  0
 29 30  1  0  0  0
 29 39  1  0  0  0
 30 31  2  0  0  0
 30 67  1  0  0  0
 31 32  1  0  0  0
 32 33  1  0  0  0
 32 39  2  0  0  0
 33 34  2  0  0  0
 33 35  1  0  0  0
 35 36  1  0  0  0
 35 68  1  0  0  0
 36 37  1  0  0  0
 36 38  2  0  0  0
 37 69  1  0  0  0
 37 70  1  0  0  0
 38 39  1  0  0  0
 40 41  1  0  0  0
 41 42  1  0  0  0
 41 71  1  0  0  0
 41 72  1  0  0  0
 42 43  1  0  0  0
 42 47  1  0  0  0
 42 73  1  0  0  0
 43 44  1  0  0  0
 44 45  1  0  0  0
 44 49  1  0  0  0
 44 74  1  0  0  0
 45 46  1  0  0  0
 45 47  1  0  0  0
 45 75  1  0  0  0
 46 76  1  0  0  0
 47 48  1  0  0  0
 47 77  1  0  0  0
 48 78  1  0  0  0
 49 50  1  0  0  0
 49 58  1  0  0  0
 50 51  1  0  0  0
 50 56  2  0  0  0
 51 52  2  0  0  0
 52 53  1  0  0  0
 52 79  1  0  0  0
 53 54  2  0  0  0
 54 55  1  0  0  0
 54 56  1  0  0  0
 55 80  1  0  0  0
 55 81  1  0  0  0
 56 57  1  0  0  0
 57 58  2  0  0  0
 58 82  1  0  0  0
M  CHG  5   2  -1   6  -1  10  -1  14  -1  19  -1
M  END
> <s_m_source_file>
../2f3r_ligand.sdf

> <i_m_source_file_index>
1

> <s_epik_input>
bjFbY0hdbmMoW05IMl0pYyhjMTIpbltjSF1uMltDQEBIXShbQ0BIXShbT0hdKVtDQEBIXTNbT0hdKU9bQ0BASF0zW0NIMl1PW1BAQF0oPU8pKFtPSF0pT1tQQEBdKD1PKShbT0hdKU9bUEBdKD1PKShbT0hdKU9bUEBdKD1PKShbT0hdKU9bUEBdKD1PKShbT0hdKU9bQ0gyXVtDQEhdNE9bQ0BIXShbQ0BIXShbT0hdKVtDQEBIXTRbT0hdKW4oW2NIXW41KWMoYzU2KW5jKFtOSDJdKVtuSF1jNj1P

> <s_epik_cmdline>
J2VwaWtfYXBwJywgJy1pbWFlJywgJ2xpZ2FuZF9wcm8ubWFlJywgJy1vbWFlJywgJ2xpZ2FuZF9wcmVwLm1hZScsICctbXMnLCAnMScsICctcGgnLCAnNycsICctcGh0JywgJzAuNScsICctbnQn

> <r_lp_tautomer_probability>
1

> <r_epik_Ionization_Penalty>
  0.0034

> <r_epik_Ionization_Penalty_Charging>
  0.0029

> <r_epik_Ionization_Penalty_Neutral>
  0.0005

> <r_epik_State_Penalty>
 -0.0000

> <r_epik_Charging_Adjusted_Penalty>
0.00289959608420507

> <i_epik_Tot_Q>
-5

> <i_epik_Tot_abs_Q>
5

> <s_epik_Chemistry_Notes>
This compound contains an acetal/aminal-like group ( X-CH(R)-Y where X, Y are N, S, or O) that may be acid/base labile, releasing an aldehyde.

$$$$
