2f4j_ligand
                    3D
 Schrodinger Suite 2020-3.
 61 65  0  0  1  0            999 V2000
    4.0480   -5.7010  -32.3330 N   0  3  0  0  0  0
    4.8630   -5.2040  -31.1770 C   0  0  0  0  0  0
    4.7900   -6.1190  -29.9500 C   0  0  0  0  0  0
    3.3730   -6.6210  -29.5090 N   0  0  0  0  0  0
    2.4800   -6.9450  -30.7200 C   0  0  0  0  0  0
    2.6470   -5.9780  -31.9390 C   0  0  0  0  0  0
    4.1610   -4.7620  -33.5150 C   0  0  0  0  0  0
    2.9410   -6.8290  -28.1480 C   0  0  0  0  0  0
    1.7350   -7.6070  -27.8250 C   0  0  0  0  0  0
    1.4040   -7.7640  -26.4390 C   0  0  0  0  0  0
    2.2290   -7.1970  -25.5230 N   0  0  0  0  0  0
    3.3000   -6.4960  -25.8670 C   0  0  0  0  0  0
    3.6710   -6.2970  -27.1230 N   0  0  0  0  0  0
    0.2810   -8.4830  -26.1230 N   0  0  0  0  0  0
   -0.3180   -8.9380  -24.8800 C   0  0  0  0  0  0
    0.1140   -8.6020  -23.5870 C   0  0  0  0  0  0
   -0.7650   -9.2460  -22.7200 C   0  0  3  0  0  0
   -1.7150   -9.9640  -23.4620 N   0  0  0  0  0  0
   -1.4390   -9.7740  -24.7750 N   0  0  0  0  0  0
   -0.7830   -9.2290  -21.2080 C   0  0  0  0  0  0
    4.2820   -5.7760  -24.5270 S   0  0  0  0  0  0
    3.5870   -6.2600  -23.0170 C   0  0  0  0  0  0
    2.8600   -5.3390  -22.2520 C   0  0  0  0  0  0
    2.2500   -5.7700  -21.0340 C   0  0  0  0  0  0
    2.3780   -7.0940  -20.6020 C   0  0  0  0  0  0
    3.1180   -8.0230  -21.3800 C   0  0  0  0  0  0
    3.7360   -7.5750  -22.6130 C   0  0  0  0  0  0
    1.7610   -7.5600  -19.3910 N   0  0  0  0  0  0
    1.7010   -8.7610  -18.7430 C   0  0  0  0  0  0
    2.2160   -9.8050  -19.1370 O   0  0  0  0  0  0
    0.8850   -8.7370  -17.4500 C   0  0  0  0  0  0
   -0.6020   -9.2660  -17.3890 C   0  0  0  0  0  0
    0.4870   -9.8100  -16.4320 C   0  0  0  0  0  0
    4.4468   -6.6781  -32.6432 H   0  0  0  0  0  0
    5.9191   -5.1332  -31.4765 H   0  0  0  0  0  0
    4.5007   -4.2108  -30.8730 H   0  0  0  0  0  0
    5.3774   -7.0301  -30.1366 H   0  0  0  0  0  0
    5.1984   -5.5922  -29.0749 H   0  0  0  0  0  0
    2.7104   -7.9567  -31.0852 H   0  0  0  0  0  0
    1.4229   -6.8955  -30.4198 H   0  0  0  0  0  0
    2.1506   -5.0359  -31.6633 H   0  0  0  0  0  0
    2.1135   -6.4404  -32.7825 H   0  0  0  0  0  0
    5.2224   -4.5995  -33.7540 H   0  0  0  0  0  0
    3.6899   -3.7999  -33.2653 H   0  0  0  0  0  0
    3.6528   -5.2043  -34.3845 H   0  0  0  0  0  0
    1.1176   -8.0466  -28.6084 H   0  0  0  0  0  0
   -0.3842   -8.8433  -26.9216 H   0  0  0  0  0  0
    0.9892   -7.9495  -23.4517 H   0  0  0  0  0  0
    0.0462   -8.6079  -20.8384 H   0  0  0  0  0  0
   -0.6699  -10.2552  -20.8284 H   0  0  0  0  0  0
   -1.7384   -8.8116  -20.8574 H   0  0  0  0  0  0
    2.7607   -4.3050  -22.5822 H   0  0  0  0  0  0
    1.6792   -5.0599  -20.4356 H   0  0  0  0  0  0
    3.2201   -9.0584  -21.0550 H   0  0  0  0  0  0
    4.3156   -8.2713  -23.2191 H   0  0  0  0  0  0
    1.1784   -6.8654  -18.7680 H   0  0  0  0  0  0
    1.4857   -7.8234  -17.3298 H   0  0  0  0  0  0
   -1.2801   -8.4289  -17.1667 H   0  0  0  0  0  0
   -0.8732   -9.7102  -18.3581 H   0  0  0  0  0  0
    1.0820  -10.7188  -16.6056 H   0  0  0  0  0  0
    0.6750   -9.4376  -15.4142 H   0  0  0  0  0  0
  1  2  1  0  0  0
  1  6  1  0  0  0
  1  7  1  0  0  0
  1 34  1  0  0  0
  2  3  1  0  0  0
  2 35  1  0  0  0
  2 36  1  0  0  0
  3  4  1  0  0  0
  3 37  1  0  0  0
  3 38  1  0  0  0
  4  5  1  0  0  0
  4  8  1  0  0  0
  5  6  1  0  0  0
  5 39  1  0  0  0
  5 40  1  0  0  0
  6 41  1  0  0  0
  6 42  1  0  0  0
  7 43  1  0  0  0
  7 44  1  0  0  0
  7 45  1  0  0  0
  8  9  2  0  0  0
  8 13  1  0  0  0
  9 10  1  0  0  0
  9 46  1  0  0  0
 10 11  2  0  0  0
 10 14  1  0  0  0
 11 12  1  0  0  0
 12 13  2  0  0  0
 12 21  1  0  0  0
 14 15  1  0  0  0
 14 47  1  0  0  0
 15 16  2  0  0  0
 15 19  1  0  0  0
 16 17  1  0  0  0
 16 48  1  0  0  0
 17 18  1  0  0  0
 17 20  1  0  0  0
 18 19  2  0  0  0
 20 49  1  0  0  0
 20 50  1  0  0  0
 20 51  1  0  0  0
 21 22  1  0  0  0
 22 23  2  0  0  0
 22 27  1  0  0  0
 23 24  1  0  0  0
 23 52  1  0  0  0
 24 25  2  0  0  0
 24 53  1  0  0  0
 25 26  1  0  0  0
 25 28  1  0  0  0
 26 27  2  0  0  0
 26 54  1  0  0  0
 27 55  1  0  0  0
 28 29  1  0  0  0
 28 56  1  0  0  0
 29 30  2  0  0  0
 29 31  1  0  0  0
 31 32  1  0  0  0
 31 33  1  0  0  0
 31 57  1  0  0  0
 32 33  1  0  0  0
 32 58  1  0  0  0
 32 59  1  0  0  0
 33 60  1  0  0  0
 33 61  1  0  0  0
M  CHG  1   1   1
M  END
> <s_m_source_file>
../2f4j_ligand.sdf

> <i_m_source_file_index>
1

> <s_epik_input>
W0NIM11bTkgrXTFbQ0gyXVtDSDJdTihbQ0gyXVtDSDJdMSljMltjSF1jKFtOSF1DMz1bQ0hdW0NIXShOPU4zKVtDSDNdKW5jKG4yKVNjNFtjSF1bY0hdYyhbY0hdW2NIXTQpW05IXUMoPU8pW0NIXTVbQ0gyXVtDSDJdNQ==

> <s_epik_cmdline>
J2VwaWtfYXBwJywgJy1pbWFlJywgJ2xpZ2FuZF9wcm8ubWFlJywgJy1vbWFlJywgJ2xpZ2FuZF9wcmVwLm1hZScsICctbXMnLCAnMScsICctcGgnLCAnNycsICctcGh0JywgJzAuNScsICctbnQn

> <r_lp_tautomer_probability>
1

> <r_epik_Ionization_Penalty>
  0.1916

> <r_epik_Ionization_Penalty_Charging>
  0.1866

> <r_epik_Ionization_Penalty_Neutral>
  0.0050

> <r_epik_State_Penalty>
 -0.0000

> <r_epik_Charging_Adjusted_Penalty>
0.186630809027351

> <i_epik_Tot_Q>
1

> <i_epik_Tot_abs_Q>
1

$$$$
