2f5t_ligand
                    3D
 Schrodinger Suite 2020-3.
 45 46  0  0  1  0            999 V2000
   34.4190   33.4820   30.6460 C   0  0  1  0  0  0
   33.1780   32.6280   30.2940 C   0  0  1  0  0  0
   33.6850   31.3090   29.7090 C   0  0  2  0  0  0
   34.5990   31.5520   28.4880 C   0  0  1  0  0  0
   35.7010   32.5520   28.8180 C   0  0  1  0  0  0
   36.4390   32.9750   27.5430 C   0  0  0  0  0  0
   35.1540   32.7630   31.5820 O   0  0  0  0  0  0
   32.3840   32.4080   31.4230 O   0  0  0  0  0  0
   32.5520   30.4710   29.3950 O   0  0  0  0  0  0
   35.1120   30.2950   28.0700 O   0  0  0  0  0  0
   35.1410   33.7160   29.4380 O   0  0  0  0  0  0
   35.5550   33.5740   26.5600 O   0  0  0  0  0  0
   36.8910   33.3440   35.2690 C   0  0  2  0  0  0
   35.7240   34.2810   34.9740 C   0  0  1  0  0  0
   34.9570   33.8190   33.7270 C   0  0  2  0  0  0
   35.8830   33.4960   32.5460 C   0  0  1  0  0  0
   37.0170   32.5890   32.9990 C   0  0  1  0  0  0
   38.0400   32.3270   31.8840 C   0  0  0  0  0  0
   37.6070   33.7320   36.3590 O   0  0  0  0  0  0
   34.8000   34.4230   36.0340 O   0  0  0  0  0  0
   34.0430   34.8130   33.3610 O   0  0  0  0  0  0
   37.6840   33.1200   34.1370 O   0  0  0  0  0  0
   38.8680   33.4540   31.6510 O   0  0  0  0  0  0
   34.2599   34.4686   31.1058 H   0  0  0  0  0  0
   32.4676   33.1381   29.6268 H   0  0  0  0  0  0
   34.2563   30.7392   30.4566 H   0  0  0  0  0  0
   34.0571   31.9385   27.6122 H   0  0  0  0  0  0
   36.3912   32.1135   29.5538 H   0  0  0  0  0  0
   37.2136   33.7140   27.7958 H   0  0  0  0  0  0
   36.9094   32.0939   27.0821 H   0  0  0  0  0  0
   31.9427   33.2608   31.9597 H   0  0  0  0  0  0
   31.8206   30.2193   30.1771 H   0  0  0  0  0  0
   34.4223   29.4814   27.8012 H   0  0  0  0  0  0
   35.9581   33.9222   25.5976 H   0  0  0  0  0  0
   36.5778   32.3357   35.5776 H   0  0  0  0  0  0
   36.1459   35.2931   34.8870 H   0  0  0  0  0  0
   34.3481   32.9334   33.9615 H   0  0  0  0  0  0
   36.2488   34.4206   32.0756 H   0  0  0  0  0  0
   36.5706   31.6448   33.3442 H   0  0  0  0  0  0
   38.6824   31.4802   32.1674 H   0  0  0  0  0  0
   37.5109   32.0891   30.9494 H   0  0  0  0  0  0
   37.0934   33.9379   37.3097 H   0  0  0  0  0  0
   35.1466   34.7486   37.0259 H   0  0  0  0  0  0
   33.2988   35.1705   34.0879 H   0  0  0  0  0  0
   39.6496   33.4119   30.8781 H   0  0  0  0  0  0
  1  2  1  0  0  0
  1  7  1  0  0  0
  1 11  1  0  0  0
  1 24  1  0  0  0
  2  3  1  0  0  0
  2  8  1  0  0  0
  2 25  1  0  0  0
  3  4  1  0  0  0
  3  9  1  0  0  0
  3 26  1  0  0  0
  4  5  1  0  0  0
  4 10  1  0  0  0
  4 27  1  0  0  0
  5  6  1  0  0  0
  5 11  1  0  0  0
  5 28  1  0  0  0
  6 12  1  0  0  0
  6 29  1  0  0  0
  6 30  1  0  0  0
  7 16  1  0  0  0
  8 31  1  0  0  0
  9 32  1  0  0  0
 10 33  1  0  0  0
 12 34  1  0  0  0
 13 14  1  0  0  0
 13 19  1  0  0  0
 13 22  1  0  0  0
 13 35  1  0  0  0
 14 15  1  0  0  0
 14 20  1  0  0  0
 14 36  1  0  0  0
 15 16  1  0  0  0
 15 21  1  0  0  0
 15 37  1  0  0  0
 16 17  1  0  0  0
 16 38  1  0  0  0
 17 18  1  0  0  0
 17 22  1  0  0  0
 17 39  1  0  0  0
 18 23  1  0  0  0
 18 40  1  0  0  0
 18 41  1  0  0  0
 19 42  1  0  0  0
 20 43  1  0  0  0
 21 44  1  0  0  0
 23 45  1  0  0  0
M  END
> <s_m_source_file>
../2f5t_ligand.sdf

> <i_m_source_file_index>
1

> <s_epik_input>
W09IXVtDQEhdMVtDQEhdKFtPSF0pW0NAQEhdKFtPSF0pW0NAQEhdKFtDQEhdKE8xKVtDSDJdW09IXSlPW0NAQEhdMltDQEhdKFtPSF0pW0NAQEhdKFtPSF0pW0NASF0oW09IXSlbQ0BIXShPMilbQ0gyXVtPSF0=

> <s_epik_cmdline>
J2VwaWtfYXBwJywgJy1pbWFlJywgJ2xpZ2FuZF9wcm8ubWFlJywgJy1vbWFlJywgJ2xpZ2FuZF9wcmVwLm1hZScsICctbXMnLCAnMScsICctcGgnLCAnNycsICctcGh0JywgJzAuNScsICctbnQn

> <r_lp_tautomer_probability>
1

> <r_epik_Ionization_Penalty>
  0.0000

> <r_epik_Ionization_Penalty_Charging>
  0.0000

> <r_epik_Ionization_Penalty_Neutral>
  0.0000

> <r_epik_State_Penalty>
 -0.0000

> <r_epik_Charging_Adjusted_Penalty>
0

> <i_epik_Tot_Q>
0

> <i_epik_Tot_abs_Q>
0

> <s_epik_Chemistry_Notes>
This compound contains an acetal/aminal-like group ( X-CH(R)-Y where X, Y are N, S, or O) that may be acid/base labile, releasing an aldehyde.

$$$$
