2f6j_ligand
                    3D
 Schrodinger Suite 2020-3.
113112  0  0  1  0            999 V2000
   30.2620    9.5050   63.9810 N   0  3  0  0  0  0
   30.6030    9.7840   62.5540 C   0  0  2  0  0  0
   32.0110   10.3430   62.4440 C   0  0  0  0  0  0
   32.4920   11.0160   63.3560 O   0  0  0  0  0  0
   29.6030   10.7720   61.9580 C   0  0  0  0  0  0
   32.6680   10.0570   61.3260 N   0  0  0  0  0  0
   34.0250   10.5340   61.0830 C   0  0  2  0  0  0
   33.9350   11.9420   60.5080 C   0  0  0  0  0  0
   33.1210   12.2060   59.6240 O   0  0  0  0  0  0
   34.7370    9.5910   60.1100 C   0  0  0  0  0  0
   34.8740    8.1710   60.6600 C   0  0  0  0  0  0
   35.3450    7.1710   59.6090 C   0  0  0  0  0  0
   34.4160    7.0740   58.4890 N   0  0  0  0  0  0
   34.6000    7.6600   57.3100 C   0  0  0  0  0  0
   35.6840    8.3860   57.0910 N   0  3  0  0  0  0
   33.6930    7.5290   56.3520 N   0  0  0  0  0  0
   34.7710   12.8420   61.0140 N   0  0  0  0  0  0
   34.7470   14.2300   60.5700 C   0  0  2  0  0  0
   36.1320   14.8680   60.5340 C   0  0  0  0  0  0
   37.1040   14.3050   61.0320 O   0  0  0  0  0  0
   33.8890   15.0820   61.5240 C   0  0  2  0  0  0
   34.4720   15.0430   62.8340 O   0  0  0  0  0  0
   32.4630   14.5500   61.6040 C   0  0  0  0  0  0
   36.2010   16.0480   59.9250 N   0  0  0  0  0  0
   37.4280   16.8320   59.8520 C   0  0  1  0  0  0
   37.9410   16.9320   58.4080 C   0  0  0  0  0  0
   38.5070   15.6300   57.8370 C   0  0  0  0  0  0
   39.1270   15.8470   56.4620 C   0  0  0  0  0  0
   39.6020   14.5320   55.8350 C   0  0  0  0  0  0
   40.2360   14.7320   54.4910 N   0  3  0  0  0  0
   37.0460   18.2230   60.3650 C   0  0  0  0  0  0
   36.1100   18.8350   59.8480 O   0  0  0  0  0  0
   41.4760   15.5660   54.5590 C   0  0  0  0  0  0
   40.6760   13.4520   53.8710 C   0  0  0  0  0  0
   39.2950   15.3890   53.5290 C   0  0  0  0  0  0
   37.7440   18.7020   61.3950 N   0  0  0  0  0  0
   37.4740   20.0250   61.9750 C   0  0  2  0  0  0
   38.4580   21.0990   61.5190 C   0  0  0  0  0  0
   39.4540   20.8160   60.8580 O   0  0  0  0  0  0
   37.5170   19.9770   63.5070 C   0  0  0  0  0  0
   36.3840   19.2220   64.1650 C   0  0  0  0  0  0
   36.3960   17.7440   63.8400 C   0  0  0  0  0  0
   37.4510   17.1080   63.8090 O   0  0  0  0  0  0
   35.2150   17.1820   63.6140 N   0  0  0  0  0  0
   38.1650   22.3360   61.9030 N   0  0  0  0  0  0
   39.0010   23.4810   61.5700 C   0  0  2  0  0  0
   40.4250   23.3030   62.0890 C   0  0  0  0  0  0
   40.6390   22.4370   62.9690 O   0  0  0  0  0  0
   38.4350   24.7710   62.1880 C   0  0  2  0  0  0
   39.3140   25.8610   61.8910 O   0  0  0  0  0  0
   38.3020   24.6230   63.7050 C   0  0  0  0  0  0
   41.4181   24.0514   61.6172 O   0  5  0  0  0  0
   29.2405    9.1014   64.0417 H   0  0  0  0  0  0
   30.3230   10.4373   64.5616 H   0  0  0  0  0  0
   30.9713    8.7708   64.3907 H   0  0  0  0  0  0
   30.5525    8.8288   62.0109 H   0  0  0  0  0  0
   28.5865   10.3601   62.0415 H   0  0  0  0  0  0
   29.8436   10.9428   60.8983 H   0  0  0  0  0  0
   29.6586   11.7248   62.5049 H   0  0  0  0  0  0
   32.1583    9.4405   60.5710 H   0  0  0  0  0  0
   34.5648   10.5428   62.0414 H   0  0  0  0  0  0
   34.1676    9.5354   59.1705 H   0  0  0  0  0  0
   35.7482    9.9719   59.9039 H   0  0  0  0  0  0
   35.6064    8.1648   61.4807 H   0  0  0  0  0  0
   33.8989    7.8278   61.0361 H   0  0  0  0  0  0
   36.3233    7.4852   59.2164 H   0  0  0  0  0  0
   35.4361    6.1745   60.0658 H   0  0  0  0  0  0
   33.4920    6.4858   58.5902 H   0  0  0  0  0  0
   36.4399    8.4982   57.8822 H   0  0  0  0  0  0
   32.7897    6.9266   56.5285 H   0  0  0  0  0  0
   33.8437    8.0228   55.3807 H   0  0  0  0  0  0
   35.4908   12.5226   61.7821 H   0  0  0  0  0  0
   34.3355   14.1538   59.5527 H   0  0  0  0  0  0
   33.8779   16.1337   61.2018 H   0  0  0  0  0  0
   35.5052   15.3882   62.9867 H   0  0  0  0  0  0
   32.0056   14.5753   60.6039 H   0  0  0  0  0  0
   31.8760   15.1765   62.2917 H   0  0  0  0  0  0
   32.4783   13.5143   61.9741 H   0  0  0  0  0  0
   35.2775   16.4276   59.4635 H   0  0  0  0  0  0
   38.2002   16.3338   60.4565 H   0  0  0  0  0  0
   37.1167   17.2367   57.7463 H   0  0  0  0  0  0
   38.7476   17.6781   58.3563 H   0  0  0  0  0  0
   39.2836   15.2407   58.5118 H   0  0  0  0  0  0
   37.6991   14.8895   57.7419 H   0  0  0  0  0  0
   38.3817   16.2989   55.7909 H   0  0  0  0  0  0
   39.9938   16.5182   56.5524 H   0  0  0  0  0  0
   40.3461   14.0597   56.4932 H   0  0  0  0  0  0
   38.7439   13.8558   55.7071 H   0  0  0  0  0  0
   42.1885   15.1071   55.2602 H   0  0  0  0  0  0
   41.2190   16.5774   54.9069 H   0  0  0  0  0  0
   41.9322   15.6267   53.5599 H   0  0  0  0  0  0
   41.3717   12.9362   54.5492 H   0  0  0  0  0  0
   41.1817   13.6615   52.9169 H   0  0  0  0  0  0
   39.7997   12.8125   53.6889 H   0  0  0  0  0  0
   38.9453   16.3425   53.9515 H   0  0  0  0  0  0
   38.4333   14.7290   53.3504 H   0  0  0  0  0  0
   39.8153   15.5780   52.5784 H   0  0  0  0  0  0
   38.5441   18.0720   61.8109 H   0  0  0  0  0  0
   36.4693   20.2551   61.5908 H   0  0  0  0  0  0
   38.4469   19.4879   63.8325 H   0  0  0  0  0  0
   37.4819   21.0011   63.9071 H   0  0  0  0  0  0
   36.4598   19.3260   65.2574 H   0  0  0  0  0  0
   35.4225   19.6329   63.8235 H   0  0  0  0  0  0
   34.2997   17.7909   63.6526 H   0  0  0  0  0  0
   35.1515   16.1073   63.3881 H   0  0  0  0  0  0
   37.2491   22.4775   62.4956 H   0  0  0  0  0  0
   38.9845   23.5057   60.4704 H   0  0  0  0  0  0
   37.4631   25.0288   61.7420 H   0  0  0  0  0  0
   39.5331   26.1216   60.8450 H   0  0  0  0  0  0
   37.6266   23.7855   63.9339 H   0  0  0  0  0  0
   37.8919   25.5513   64.1294 H   0  0  0  0  0  0
   39.2919   24.4258   64.1423 H   0  0  0  0  0  0
   35.8294    8.8775   56.1177 H   0  0  0  0  0  0
  1  2  1  0  0  0
  1 53  1  0  0  0
  1 54  1  0  0  0
  1 55  1  0  0  0
  2  5  1  0  0  0
  2  3  1  0  0  0
  2 56  1  0  0  0
  3  4  2  0  0  0
  3  6  1  0  0  0
  5 57  1  0  0  0
  5 58  1  0  0  0
  5 59  1  0  0  0
  6  7  1  0  0  0
  6 60  1  0  0  0
  7 10  1  0  0  0
  7  8  1  0  0  0
  7 61  1  0  0  0
  8  9  2  0  0  0
  8 17  1  0  0  0
 10 11  1  0  0  0
 10 62  1  0  0  0
 10 63  1  0  0  0
 11 12  1  0  0  0
 11 64  1  0  0  0
 11 65  1  0  0  0
 12 13  1  0  0  0
 12 66  1  0  0  0
 12 67  1  0  0  0
 13 14  1  0  0  0
 13 68  1  0  0  0
 14 16  1  0  0  0
 14 15  2  0  0  0
 15 69  1  0  0  0
 15113  1  0  0  0
 16 70  1  0  0  0
 16 71  1  0  0  0
 17 18  1  0  0  0
 17 72  1  0  0  0
 18 21  1  0  0  0
 18 19  1  0  0  0
 18 73  1  0  0  0
 19 20  2  0  0  0
 19 24  1  0  0  0
 21 23  1  0  0  0
 21 22  1  0  0  0
 21 74  1  0  0  0
 22 75  1  0  0  0
 23 76  1  0  0  0
 23 77  1  0  0  0
 23 78  1  0  0  0
 24 25  1  0  0  0
 24 79  1  0  0  0
 25 26  1  0  0  0
 25 31  1  0  0  0
 25 80  1  0  0  0
 26 27  1  0  0  0
 26 81  1  0  0  0
 26 82  1  0  0  0
 27 28  1  0  0  0
 27 83  1  0  0  0
 27 84  1  0  0  0
 28 29  1  0  0  0
 28 85  1  0  0  0
 28 86  1  0  0  0
 29 30  1  0  0  0
 29 87  1  0  0  0
 29 88  1  0  0  0
 30 33  1  0  0  0
 30 34  1  0  0  0
 30 35  1  0  0  0
 31 32  2  0  0  0
 31 36  1  0  0  0
 33 89  1  0  0  0
 33 90  1  0  0  0
 33 91  1  0  0  0
 34 92  1  0  0  0
 34 93  1  0  0  0
 34 94  1  0  0  0
 35 95  1  0  0  0
 35 96  1  0  0  0
 35 97  1  0  0  0
 36 37  1  0  0  0
 36 98  1  0  0  0
 37 40  1  0  0  0
 37 38  1  0  0  0
 37 99  1  0  0  0
 38 39  2  0  0  0
 38 45  1  0  0  0
 40 41  1  0  0  0
 40100  1  0  0  0
 40101  1  0  0  0
 41 42  1  0  0  0
 41102  1  0  0  0
 41103  1  0  0  0
 42 44  1  0  0  0
 42 43  2  0  0  0
 44104  1  0  0  0
 44105  1  0  0  0
 45 46  1  0  0  0
 45106  1  0  0  0
 46 49  1  0  0  0
 46 47  1  0  0  0
 46107  1  0  0  0
 47 48  2  0  0  0
 47 52  1  0  0  0
 49 51  1  0  0  0
 49 50  1  0  0  0
 49108  1  0  0  0
 50109  1  0  0  0
 51110  1  0  0  0
 51111  1  0  0  0
 51112  1  0  0  0
M  CHG  4   1   1  15   1  30   1  52  -1
M  END
> <s_m_source_file>
../2f6j_ligand.sdf

> <i_m_source_file_index>
1

> <s_epik_input>
W0hdL049QyhbTkgyXSlcW05IXVtDSDJdW0NIMl1bQ0gyXVtDQEhdKFtOSF1DKD1PKVtDQEBIXShbTkgzK10pW0NIM10pQyg9TylbTkhdW0NAQEhdKFtDQEhdKFtPSF0pW0NIM10pQyg9TylbTkhdW0NAQEhdKFtDSDJdW0NIMl1bQ0gyXVtDSDJdW04rXShbQ0gzXSkoW0NIM10pW0NIM10pQyg9TylbTkhdW0NAQEhdKFtDSDJdW0NIMl1DKD1PKVtOSDJdKUMoPU8pW05IXVtDQEhdKEMoPU8pW09IXSlbQ0BIXShbT0hdKVtDSDNd

> <s_epik_cmdline>
J2VwaWtfYXBwJywgJy1pbWFlJywgJ2xpZ2FuZF9wcm8ubWFlJywgJy1vbWFlJywgJ2xpZ2FuZF9wcmVwLm1hZScsICctbXMnLCAnMScsICctcGgnLCAnNycsICctcGh0JywgJzAuNScsICctbnQn

> <r_epik_Ionization_Penalty>
  0.1252

> <r_epik_Ionization_Penalty_Charging>
  0.1252

> <r_epik_Ionization_Penalty_Neutral>
  0.0000

> <r_epik_State_Penalty>
  0.1145

> <r_epik_Charging_Adjusted_Penalty>
0.239736109172051

> <i_epik_Tot_Q>
2

> <i_epik_Tot_abs_Q>
4

> <s_epik_Chemistry_Notes>
This compound has an imine and may undergo hydrolysis.

$$$$
