2f6t_ligand
                    3D
 Schrodinger Suite 2020-3.
 48 49  0  0  1  0            999 V2000
  -10.2890   46.9830   46.3080 O   0  0  0  0  0  0
   -9.1500   47.6340   46.9710 S   0  0  0  0  0  0
   -8.0610   46.6760   47.1530 O   0  0  0  0  0  0
   -8.7600   48.9290   46.3640 O   0  5  0  0  0  0
   -9.6980   48.0460   48.4440 N   0  0  0  0  0  0
  -10.2950   47.1330   49.2730 C   0  0  0  0  0  0
   -9.5240   46.3910   50.1720 C   0  0  0  0  0  0
  -11.6840   46.9590   49.2730 C   0  0  0  0  0  0
  -12.3190   46.0530   50.1310 C   0  0  0  0  0  0
  -13.8250   45.8760   50.1120 C   0  0  0  0  0  0
  -14.3710   45.3040   51.3590 N   0  0  0  0  0  0
  -15.6750   45.0640   51.4650 C   0  0  0  0  0  0
  -16.2550   44.5920   52.4330 O   0  0  0  0  0  0
  -16.3980   45.4300   50.2750 O   0  0  0  0  0  0
  -17.8140   45.4510   50.0410 C   0  0  0  0  0  0
  -18.0090   45.6610   48.5410 C   0  0  0  0  0  0
  -18.4640   46.5780   50.8350 C   0  0  0  0  0  0
  -18.3630   44.0820   50.4060 C   0  0  0  0  0  0
  -13.4950   44.9840   52.4800 C   0  0  2  0  0  0
  -13.2760   46.1750   53.3680 C   0  0  0  0  0  0
  -12.4680   46.1370   54.2770 O   0  0  0  0  0  0
  -13.9980   47.2640   53.1280 N   0  0  0  0  0  0
  -13.8350   48.4550   53.9550 C   0  0  0  0  0  0
  -12.2180   44.3430   51.9280 C   0  0  0  0  0  0
  -11.5380   45.3190   50.9990 C   0  0  0  0  0  0
  -10.1510   45.4740   51.0300 C   0  0  0  0  0  0
   -9.5943   49.0818   48.7995 H   0  0  0  0  0  0
   -8.4426   46.5236   50.2066 H   0  0  0  0  0  0
  -12.2899   47.5471   48.5837 H   0  0  0  0  0  0
  -14.3071   46.8532   49.9613 H   0  0  0  0  0  0
  -14.1043   45.1989   49.2913 H   0  0  0  0  0  0
  -17.6174   46.6484   48.2551 H   0  0  0  0  0  0
  -19.0809   45.6076   48.2996 H   0  0  0  0  0  0
  -17.4692   44.8782   47.9880 H   0  0  0  0  0  0
  -18.0284   47.5406   50.5291 H   0  0  0  0  0  0
  -18.2862   46.4198   51.9089 H   0  0  0  0  0  0
  -19.5465   46.5869   50.6400 H   0  0  0  0  0  0
  -17.8586   43.3122   49.8036 H   0  0  0  0  0  0
  -19.4441   44.0550   50.2048 H   0  0  0  0  0  0
  -18.1837   43.8879   51.4738 H   0  0  0  0  0  0
  -14.0094   44.2621   53.1313 H   0  0  0  0  0  0
  -14.7221   47.2643   52.3000 H   0  0  0  0  0  0
  -14.5155   49.2433   53.6007 H   0  0  0  0  0  0
  -12.7959   48.8095   53.8865 H   0  0  0  0  0  0
  -14.0707   48.2100   55.0012 H   0  0  0  0  0  0
  -11.5438   44.0931   52.7605 H   0  0  0  0  0  0
  -12.4762   43.4263   51.3775 H   0  0  0  0  0  0
   -9.5532   44.8813   51.7224 H   0  0  0  0  0  0
  1  2  2  0  0  0
  2  3  2  0  0  0
  2  4  1  0  0  0
  2  5  1  0  0  0
  5  6  1  0  0  0
  5 27  1  0  0  0
  6  7  2  0  0  0
  6  8  1  0  0  0
  7 26  1  0  0  0
  7 28  1  0  0  0
  8  9  2  0  0  0
  8 29  1  0  0  0
  9 10  1  0  0  0
  9 25  1  0  0  0
 10 11  1  0  0  0
 10 30  1  0  0  0
 10 31  1  0  0  0
 11 12  1  0  0  0
 11 19  1  0  0  0
 12 13  2  0  0  0
 12 14  1  0  0  0
 14 15  1  0  0  0
 15 16  1  0  0  0
 15 17  1  0  0  0
 15 18  1  0  0  0
 16 32  1  0  0  0
 16 33  1  0  0  0
 16 34  1  0  0  0
 17 35  1  0  0  0
 17 36  1  0  0  0
 17 37  1  0  0  0
 18 38  1  0  0  0
 18 39  1  0  0  0
 18 40  1  0  0  0
 19 20  1  0  0  0
 19 24  1  0  0  0
 19 41  1  0  0  0
 20 21  2  0  0  0
 20 22  1  0  0  0
 22 23  1  0  0  0
 22 42  1  0  0  0
 23 43  1  0  0  0
 23 44  1  0  0  0
 23 45  1  0  0  0
 24 25  1  0  0  0
 24 46  1  0  0  0
 24 47  1  0  0  0
 25 26  2  0  0  0
 26 48  1  0  0  0
M  CHG  1   4  -1
M  END
> <s_m_source_file>
../2f6t_ligand.sdf

> <i_m_source_file_index>
1

> <s_epik_input>
Tz1TKD1PKShbT0hdKVtOSF1jKFtjSF0xKVtjSF1bY0hdYyhjMTIpW0NIMl1bQ0BASF0oQyg9TylbTkhdW0NIM10pTihbQ0gyXTIpQyg9TylPQyhbQ0gzXSkoW0NIM10pW0NIM10=

> <s_epik_cmdline>
J2VwaWtfYXBwJywgJy1pbWFlJywgJ2xpZ2FuZF9wcm8ubWFlJywgJy1vbWFlJywgJ2xpZ2FuZF9wcmVwLm1hZScsICctbXMnLCAnMScsICctcGgnLCAnNycsICctcGh0JywgJzAuNScsICctbnQn

> <r_lp_tautomer_probability>
1

> <r_epik_Ionization_Penalty>
  0.0071

> <r_epik_Ionization_Penalty_Charging>
  0.0000

> <r_epik_Ionization_Penalty_Neutral>
  0.0071

> <r_epik_State_Penalty>
 -0.0000

> <r_epik_Charging_Adjusted_Penalty>
4.09899988921955e-08

> <i_epik_Tot_Q>
-1

> <i_epik_Tot_abs_Q>
1

> <s_epik_Chemistry_Notes>
This compound has an ester and may undergo hydrolysis at high or low pH.

$$$$
