2f6v_ligand
                    3D
 Schrodinger Suite 2020-3.
 49 51  0  0  1  0            999 V2000
  -10.3300   46.8010   46.3010 O   0  5  0  0  0  0
   -9.2080   47.5010   46.9620 S   0  0  0  0  0  0
   -8.1040   46.5490   47.1250 O   0  0  0  0  0  0
   -8.8170   48.7640   46.3200 O   0  0  0  0  0  0
   -9.7340   47.8960   48.4470 N   0  0  0  0  0  0
  -10.2590   46.9640   49.2960 C   0  0  0  0  0  0
   -9.4100   46.1880   50.0870 C   0  0  0  0  0  0
  -11.6370   46.7980   49.4300 C   0  0  0  0  0  0
  -12.1540   45.8530   50.3210 C   0  0  0  0  0  0
  -13.6560   45.7040   50.4460 C   0  0  0  0  0  0
  -14.0510   44.9600   51.6520 N   0  0  0  0  0  0
  -13.1020   44.6650   52.7160 C   0  0  2  0  0  0
  -12.8240   45.8690   53.5820 C   0  0  0  0  0  0
  -11.8210   45.9130   54.2870 O   0  0  0  0  0  0
  -13.6590   46.8990   53.5410 N   0  0  0  0  0  0
  -13.3930   48.0730   54.3700 C   0  0  0  0  0  0
  -11.8530   44.0680   52.0590 C   0  0  0  0  0  0
  -11.2920   45.0860   51.0830 C   0  0  0  0  0  0
   -9.9090   45.2360   50.9790 C   0  0  0  0  0  0
  -15.2950   44.5370   51.8310 C   0  0  0  0  0  0
  -15.7010   43.9060   52.8020 O   0  0  0  0  0  0
  -16.1740   44.8840   50.7490 O   0  0  0  0  0  0
  -17.5160   44.3950   50.7670 C   0  0  0  0  0  0
  -18.2600   45.2870   49.8000 C   0  0  0  0  0  0
  -18.4100   46.6580   50.0310 C   0  0  0  0  0  0
  -19.1090   47.4230   49.1010 C   0  0  0  0  0  0
  -18.7790   44.6840   48.6540 C   0  0  0  0  0  0
  -19.4870   45.4500   47.7260 C   0  0  0  0  0  0
  -19.6380   46.8140   47.9600 C   0  0  0  0  0  0
   -9.6725   48.9383   48.7931 H   0  0  0  0  0  0
   -8.3321   46.3283   50.0066 H   0  0  0  0  0  0
  -12.3160   47.4095   48.8357 H   0  0  0  0  0  0
  -14.1204   46.6999   50.4958 H   0  0  0  0  0  0
  -14.0447   45.1616   49.5716 H   0  0  0  0  0  0
  -13.5659   43.9411   53.4022 H   0  0  0  0  0  0
  -14.5455   46.8747   52.8902 H   0  0  0  0  0  0
  -14.1824   48.8219   54.2091 H   0  0  0  0  0  0
  -12.4184   48.5027   54.0952 H   0  0  0  0  0  0
  -13.3780   47.7779   55.4296 H   0  0  0  0  0  0
  -11.1062   43.8375   52.8330 H   0  0  0  0  0  0
  -12.1248   43.1453   51.5255 H   0  0  0  0  0  0
   -9.2344   44.6253   51.5791 H   0  0  0  0  0  0
  -17.5273   43.3432   50.4451 H   0  0  0  0  0  0
  -17.9202   44.4706   51.7873 H   0  0  0  0  0  0
  -17.9872   47.1196   50.9233 H   0  0  0  0  0  0
  -19.2430   48.4926   49.2624 H   0  0  0  0  0  0
  -18.6321   43.6175   48.4836 H   0  0  0  0  0  0
  -19.9134   44.9888   46.8352 H   0  0  0  0  0  0
  -20.1816   47.4212   47.2362 H   0  0  0  0  0  0
  1  2  1  0  0  0
  2  3  2  0  0  0
  2  4  2  0  0  0
  2  5  1  0  0  0
  5  6  1  0  0  0
  5 30  1  0  0  0
  6  7  2  0  0  0
  6  8  1  0  0  0
  7 19  1  0  0  0
  7 31  1  0  0  0
  8  9  2  0  0  0
  8 32  1  0  0  0
  9 10  1  0  0  0
  9 18  1  0  0  0
 10 11  1  0  0  0
 10 33  1  0  0  0
 10 34  1  0  0  0
 11 12  1  0  0  0
 11 20  1  0  0  0
 12 13  1  0  0  0
 12 17  1  0  0  0
 12 35  1  0  0  0
 13 14  2  0  0  0
 13 15  1  0  0  0
 15 16  1  0  0  0
 15 36  1  0  0  0
 16 37  1  0  0  0
 16 38  1  0  0  0
 16 39  1  0  0  0
 17 18  1  0  0  0
 17 40  1  0  0  0
 17 41  1  0  0  0
 18 19  2  0  0  0
 19 42  1  0  0  0
 20 21  2  0  0  0
 20 22  1  0  0  0
 22 23  1  0  0  0
 23 24  1  0  0  0
 23 43  1  0  0  0
 23 44  1  0  0  0
 24 25  2  0  0  0
 24 27  1  0  0  0
 25 26  1  0  0  0
 25 45  1  0  0  0
 26 29  2  0  0  0
 26 46  1  0  0  0
 27 28  2  0  0  0
 27 47  1  0  0  0
 28 29  1  0  0  0
 28 48  1  0  0  0
 29 49  1  0  0  0
M  CHG  1   1  -1
M  END
> <s_m_source_file>
../2f6v_ligand.sdf

> <i_m_source_file_index>
1

> <s_epik_input>
W09IXVMoPU8pKD1PKVtOSF1jKFtjSF0xKVtjSF1bY0hdYyhjMTIpW0NIMl1bQ0BASF0oQyg9TylbTkhdW0NIM10pTihbQ0gyXTIpQyg9TylPW0NIMl1jM1tjSF1bY0hdW2NIXVtjSF1bY0hdMw==

> <s_epik_cmdline>
J2VwaWtfYXBwJywgJy1pbWFlJywgJ2xpZ2FuZF9wcm8ubWFlJywgJy1vbWFlJywgJ2xpZ2FuZF9wcmVwLm1hZScsICctbXMnLCAnMScsICctcGgnLCAnNycsICctcGh0JywgJzAuNScsICctbnQn

> <r_lp_tautomer_probability>
1

> <r_epik_Ionization_Penalty>
  0.0071

> <r_epik_Ionization_Penalty_Charging>
  0.0000

> <r_epik_Ionization_Penalty_Neutral>
  0.0071

> <r_epik_State_Penalty>
 -0.0000

> <r_epik_Charging_Adjusted_Penalty>
4.09899988921955e-08

> <i_epik_Tot_Q>
-1

> <i_epik_Tot_abs_Q>
1

> <s_epik_Chemistry_Notes>
This compound has an ester and may undergo hydrolysis at high or low pH.

$$$$
