2f6y_ligand
                    3D
 Schrodinger Suite 2020-3.
 48 49  0  0  1  0            999 V2000
   41.4250   16.9190   11.7600 O   0  5  0  0  0  0
   42.5050   15.9160   12.1170 S   0  0  0  0  0  0
   42.5170   14.6270   11.3730 O   0  0  0  0  0  0
   43.8120   16.5170   12.5160 O   0  0  0  0  0  0
   41.8880   15.4410   13.5230 N   0  0  0  0  0  0
   42.3520   14.5050   14.3850 C   0  0  0  0  0  0
   42.0870   13.1430   14.1930 C   0  0  0  0  0  0
   42.5380   12.1660   15.0810 C   0  0  0  0  0  0
   43.0640   14.9680   15.4820 C   0  0  0  0  0  0
   43.4920   13.9900   16.3750 C   0  0  0  0  0  0
   44.2340   14.5300   17.5840 C   0  0  0  0  0  0
   44.4160   13.5130   18.6340 N   0  0  0  0  0  0
   43.7290   12.2120   18.5550 C   0  0  1  0  0  0
   42.3130   12.2070   19.0800 C   0  0  0  0  0  0
   41.6230   11.2630   18.7450 O   0  0  0  0  0  0
   41.8030   13.1670   19.8680 N   0  0  0  0  0  0
   40.4530   13.2550   20.4200 C   0  0  0  0  0  0
   43.7490   11.5850   17.1630 C   0  0  0  0  0  0
   43.2520   12.6210   16.1830 C   0  0  0  0  0  0
   45.2240   13.7050   19.6880 C   0  0  0  0  0  0
   45.8570   14.7510   19.8550 O   0  0  0  0  0  0
   45.3810   12.6060   20.6450 O   0  0  0  0  0  0
   46.7450   12.3330   21.0090 C   0  0  0  0  0  0
   47.3790   11.1610   20.2910 C   0  0  0  0  0  0
   47.7320   13.4740   20.7860 C   0  0  0  0  0  0
   46.8190   11.9150   22.4610 C   0  0  0  0  0  0
   40.9606   15.8976   13.8990 H   0  0  0  0  0  0
   41.5093   12.8363   13.3210 H   0  0  0  0  0  0
   42.3415   11.1061   14.9196 H   0  0  0  0  0  0
   43.2741   16.0267   15.6343 H   0  0  0  0  0  0
   45.2299   14.8812   17.2762 H   0  0  0  0  0  0
   43.6678   15.3674   18.0178 H   0  0  0  0  0  0
   44.3512   11.6249   19.2465 H   0  0  0  0  0  0
   42.5397   13.9535   20.0886 H   0  0  0  0  0  0
   40.3631   14.1694   21.0248 H   0  0  0  0  0  0
   40.2574   12.3764   21.0523 H   0  0  0  0  0  0
   39.7222   13.2855   19.5984 H   0  0  0  0  0  0
   44.7765   11.2835   16.9114 H   0  0  0  0  0  0
   43.0939   10.7014   17.1494 H   0  0  0  0  0  0
   47.3822   11.3528   19.2079 H   0  0  0  0  0  0
   46.8027   10.2477   20.5000 H   0  0  0  0  0  0
   48.4129   11.0309   20.6434 H   0  0  0  0  0  0
   47.6927   13.7924   19.7338 H   0  0  0  0  0  0
   48.7490   13.1316   21.0278 H   0  0  0  0  0  0
   47.4661   14.3210   21.4356 H   0  0  0  0  0  0
   46.1128   11.0913   22.6419 H   0  0  0  0  0  0
   46.5576   12.7696   23.1023 H   0  0  0  0  0  0
   47.8404   11.5802   22.6946 H   0  0  0  0  0  0
  1  2  1  0  0  0
  2  3  2  0  0  0
  2  4  2  0  0  0
  2  5  1  0  0  0
  5  6  1  0  0  0
  5 27  1  0  0  0
  6  7  2  0  0  0
  6  9  1  0  0  0
  7  8  1  0  0  0
  7 28  1  0  0  0
  8 19  2  0  0  0
  8 29  1  0  0  0
  9 10  2  0  0  0
  9 30  1  0  0  0
 10 11  1  0  0  0
 10 19  1  0  0  0
 11 12  1  0  0  0
 11 31  1  0  0  0
 11 32  1  0  0  0
 12 13  1  0  0  0
 12 20  1  0  0  0
 13 14  1  0  0  0
 13 18  1  0  0  0
 13 33  1  0  0  0
 14 15  2  0  0  0
 14 16  1  0  0  0
 16 17  1  0  0  0
 16 34  1  0  0  0
 17 35  1  0  0  0
 17 36  1  0  0  0
 17 37  1  0  0  0
 18 19  1  0  0  0
 18 38  1  0  0  0
 18 39  1  0  0  0
 20 21  2  0  0  0
 20 22  1  0  0  0
 22 23  1  0  0  0
 23 24  1  0  0  0
 23 25  1  0  0  0
 23 26  1  0  0  0
 24 40  1  0  0  0
 24 41  1  0  0  0
 24 42  1  0  0  0
 25 43  1  0  0  0
 25 44  1  0  0  0
 25 45  1  0  0  0
 26 46  1  0  0  0
 26 47  1  0  0  0
 26 48  1  0  0  0
M  CHG  1   1  -1
M  END
> <s_m_source_file>
../2f6y_ligand.sdf

> <i_m_source_file_index>
1

> <s_epik_input>
W09IXVMoPU8pKD1PKVtOSF1jKFtjSF0xKVtjSF1bY0hdYyhjMTIpW0NIMl1bQ0BIXShDKD1PKVtOSF1bQ0gzXSlOKFtDSDJdMilDKD1PKU9DKFtDSDNdKShbQ0gzXSlbQ0gzXQ==

> <s_epik_cmdline>
J2VwaWtfYXBwJywgJy1pbWFlJywgJ2xpZ2FuZF9wcm8ubWFlJywgJy1vbWFlJywgJ2xpZ2FuZF9wcmVwLm1hZScsICctbXMnLCAnMScsICctcGgnLCAnNycsICctcGh0JywgJzAuNScsICctbnQn

> <r_lp_tautomer_probability>
1

> <r_epik_Ionization_Penalty>
  0.0071

> <r_epik_Ionization_Penalty_Charging>
  0.0000

> <r_epik_Ionization_Penalty_Neutral>
  0.0071

> <r_epik_State_Penalty>
 -0.0000

> <r_epik_Charging_Adjusted_Penalty>
4.09899988921955e-08

> <i_epik_Tot_Q>
-1

> <i_epik_Tot_abs_Q>
1

> <s_epik_Chemistry_Notes>
This compound has an ester and may undergo hydrolysis at high or low pH.

$$$$
