2f6z_ligand
                    3D
 Schrodinger Suite 2020-3.
 56 58  0  0  1  0            999 V2000
   42.1340   12.7070   19.3600 O   0  0  0  0  0  0
   41.6850   11.8470   18.6070 C   0  0  0  0  0  0
   40.3630   11.7330   18.5270 N   0  0  0  0  0  0
   39.5740   12.5390   19.4440 C   0  0  0  0  0  0
   42.5750   10.9990   17.7340 C   0  0  1  0  0  0
   41.7810   10.4200   16.6450 N   0  0  0  0  0  0
   41.4220   11.1840   15.4460 C   0  0  0  0  0  0
   42.1220   12.5330   15.3730 C   0  0  0  0  0  0
   41.5980   13.4880   14.4970 C   0  0  0  0  0  0
   42.1780   14.7620   14.3900 C   0  0  0  0  0  0
   41.6450   15.6930   13.5530 N   0  0  0  0  0  0
   42.2500   15.9450   12.0670 S   0  0  0  0  0  0
   41.3270   16.9030   11.4450 O   0  0  0  0  0  0
   43.6240   16.3930   12.2180 O   0  0  0  0  0  0
   42.2530   14.6100   11.4220 O   0  5  0  0  0  0
   43.2600   15.0460   15.2200 C   0  0  0  0  0  0
   43.2070   12.8430   16.1720 C   0  0  0  0  0  0
   43.7350   11.7880   17.1210 C   0  0  0  0  0  0
   43.7940   14.1040   16.0960 C   0  0  0  0  0  0
   41.3780    9.1580   16.7880 C   0  0  0  0  0  0
   41.6760    8.4940   17.7750 O   0  0  0  0  0  0
   40.5310    8.5820   15.6790 C   0  0  0  0  0  0
   40.0970    7.1420   15.9500 C   0  0  0  0  0  0
   39.0860    6.7490   14.8920 C   0  0  0  0  0  0
   39.5100    6.0780   13.7460 C   0  0  0  0  0  0
   38.5880    5.7110   12.7610 C   0  0  0  0  0  0
   37.2410    6.0330   12.9180 C   0  0  0  0  0  0
   36.8210    6.7180   14.0610 C   0  0  0  0  0  0
   37.7440    7.0840   15.0360 C   0  0  0  0  0  0
   35.5350    7.0730   14.2770 N   0  0  0  0  0  0
   34.4960    7.6230   13.1840 S   0  0  0  0  0  0
   33.9520    6.4720   12.4250 O   0  0  0  0  0  0
   35.1430    8.5670   12.2350 O   0  5  0  0  0  0
   33.4560    8.3920   13.9150 O   0  0  0  0  0  0
   39.8617   11.0670   17.8092 H   0  0  0  0  0  0
   38.5043   12.3492   19.2716 H   0  0  0  0  0  0
   39.7894   13.6043   19.2743 H   0  0  0  0  0  0
   39.8312   12.2734   20.4800 H   0  0  0  0  0  0
   42.9745   10.1923   18.3661 H   0  0  0  0  0  0
   41.7021   10.6119   14.5492 H   0  0  0  0  0  0
   40.3375   11.3681   15.4396 H   0  0  0  0  0  0
   40.7278   13.2403   13.8891 H   0  0  0  0  0  0
   40.7845   16.2817   13.9036 H   0  0  0  0  0  0
   43.7045   16.0406   15.1826 H   0  0  0  0  0  0
   44.3082   12.2786   17.9215 H   0  0  0  0  0  0
   44.3925   11.1022   16.5667 H   0  0  0  0  0  0
   44.6583   14.3498   16.7129 H   0  0  0  0  0  0
   39.6217    9.1893   15.5589 H   0  0  0  0  0  0
   41.1031    8.5886   14.7395 H   0  0  0  0  0  0
   40.9738    6.4795   15.9015 H   0  0  0  0  0  0
   39.6438    7.0777   16.9502 H   0  0  0  0  0  0
   40.5655    5.8383   13.6172 H   0  0  0  0  0  0
   38.9217    5.1745   11.8728 H   0  0  0  0  0  0
   36.5182    5.7516   12.1522 H   0  0  0  0  0  0
   37.4137    7.6356   15.9162 H   0  0  0  0  0  0
   35.2199    6.9535   15.3241 H   0  0  0  0  0  0
  1  2  2  0  0  0
  2  3  1  0  0  0
  2  5  1  0  0  0
  3  4  1  0  0  0
  3 35  1  0  0  0
  4 36  1  0  0  0
  4 37  1  0  0  0
  4 38  1  0  0  0
  5  6  1  0  0  0
  5 18  1  0  0  0
  5 39  1  0  0  0
  6  7  1  0  0  0
  6 20  1  0  0  0
  7  8  1  0  0  0
  7 40  1  0  0  0
  7 41  1  0  0  0
  8  9  2  0  0  0
  8 17  1  0  0  0
  9 10  1  0  0  0
  9 42  1  0  0  0
 10 11  1  0  0  0
 10 16  2  0  0  0
 11 12  1  0  0  0
 11 43  1  0  0  0
 12 13  2  0  0  0
 12 14  2  0  0  0
 12 15  1  0  0  0
 16 19  1  0  0  0
 16 44  1  0  0  0
 17 18  1  0  0  0
 17 19  2  0  0  0
 18 45  1  0  0  0
 18 46  1  0  0  0
 19 47  1  0  0  0
 20 21  2  0  0  0
 20 22  1  0  0  0
 22 23  1  0  0  0
 22 48  1  0  0  0
 22 49  1  0  0  0
 23 24  1  0  0  0
 23 50  1  0  0  0
 23 51  1  0  0  0
 24 25  2  0  0  0
 24 29  1  0  0  0
 25 26  1  0  0  0
 25 52  1  0  0  0
 26 27  2  0  0  0
 26 53  1  0  0  0
 27 28  1  0  0  0
 27 54  1  0  0  0
 28 29  2  0  0  0
 28 30  1  0  0  0
 29 55  1  0  0  0
 30 31  1  0  0  0
 30 56  1  0  0  0
 31 32  2  0  0  0
 31 33  1  0  0  0
 31 34  2  0  0  0
M  CHG  2  15  -1  33  -1
M  END
> <s_m_source_file>
../2f6z_ligand.sdf

> <i_m_source_file_index>
1

> <s_epik_input>
Tz1TKD1PKShbT0hdKVtOSF1jKFtjSF0xKVtjSF1bY0hdYyhjMTIpW0NIMl1bQ0BASF0oQyg9TylbTkhdW0NIM10pTihbQ0gyXTIpQyg9TylbQ0gyXVtDSDJdYzNbY0hdW2NIXVtjSF1jKFtjSF0zKVtOSF1TKD1PKSg9TylbT0hd

> <s_epik_cmdline>
J2VwaWtfYXBwJywgJy1pbWFlJywgJ2xpZ2FuZF9wcm8ubWFlJywgJy1vbWFlJywgJ2xpZ2FuZF9wcmVwLm1hZScsICctbXMnLCAnMScsICctcGgnLCAnNycsICctcGh0JywgJzAuNScsICctbnQn

> <r_lp_tautomer_probability>
1

> <r_epik_Ionization_Penalty>
  0.0151

> <r_epik_Ionization_Penalty_Charging>
  0.0000

> <r_epik_Ionization_Penalty_Neutral>
  0.0151

> <r_epik_State_Penalty>
 -0.0000

> <r_epik_Charging_Adjusted_Penalty>
8.19799977843911e-08

> <i_epik_Tot_Q>
-2

> <i_epik_Tot_abs_Q>
2

$$$$
