2f71_ligand
                    3D
 Schrodinger Suite 2020-3.
 53 55  0  0  1  0            999 V2000
   41.5150   16.9390   11.3980 O   0  0  0  0  0  0
   42.4310   15.9710   12.0000 S   0  0  0  0  0  0
   42.3620   14.6510   11.3360 O   0  5  0  0  0  0
   43.7990   16.4410   12.1400 O   0  0  0  0  0  0
   41.7570   15.7350   13.4570 N   0  0  0  0  0  0
   42.2810   14.8420   14.3530 C   0  0  0  0  0  0
   43.3590   15.1170   15.1920 C   0  0  0  0  0  0
   41.7350   13.5610   14.4090 C   0  0  0  0  0  0
   42.2260   12.5910   15.2790 C   0  0  0  0  0  0
   43.2930   12.8630   16.0950 C   0  0  0  0  0  0
   43.7810   11.7700   17.0300 C   0  0  0  0  0  0
   43.8710   14.1370   16.0500 C   0  0  0  0  0  0
   41.6110   11.2240   15.3350 C   0  0  0  0  0  0
   41.8800   10.4400   16.5350 N   0  0  0  0  0  0
   42.6140   10.9920   17.6800 C   0  0  2  0  0  0
   41.7320   11.8860   18.5090 C   0  0  0  0  0  0
   40.4270   11.7160   18.4000 N   0  0  0  0  0  0
   39.4050   12.4840   19.0980 C   0  0  0  0  0  0
   42.1830   12.7750   19.2110 O   0  0  0  0  0  0
   41.4280    9.1810   16.6110 C   0  0  0  0  0  0
   41.6650    8.5230   17.6300 O   0  0  0  0  0  0
   40.6810    8.4600   15.5040 C   0  0  0  0  0  0
   39.9190    7.1810   15.8530 C   0  0  0  0  0  0
   39.0500    6.7600   14.6890 C   0  0  0  0  0  0
   37.7340    7.1950   14.5210 C   0  0  0  0  0  0
   36.9790    6.8250   13.4060 C   0  0  0  0  0  0
   35.5620    7.2660   13.1680 C   0  0  0  0  0  0
   35.2140    8.1330   12.3210 O   0  5  0  0  0  0
   34.7390    6.6740   13.9090 O   0  0  0  0  0  0
   37.5560    5.9870   12.4650 C   0  0  0  0  0  0
   38.8660    5.5500   12.6100 C   0  0  0  0  0  0
   39.6130    5.9410   13.7190 C   0  0  0  0  0  0
   40.8575   16.2991   13.7448 H   0  0  0  0  0  0
   43.8098   16.1093   15.1799 H   0  0  0  0  0  0
   40.9005   13.3115   13.7536 H   0  0  0  0  0  0
   44.3969   11.0535   16.4666 H   0  0  0  0  0  0
   44.3828   12.2175   17.8347 H   0  0  0  0  0  0
   44.7250   14.3672   16.6870 H   0  0  0  0  0  0
   40.5163   11.3116   15.2715 H   0  0  0  0  0  0
   41.9801   10.6211   14.4922 H   0  0  0  0  0  0
   42.9335   10.1949   18.3675 H   0  0  0  0  0  0
   40.1345   10.9114   17.7093 H   0  0  0  0  0  0
   38.4092   12.1171   18.8087 H   0  0  0  0  0  0
   39.4969   13.5465   18.8286 H   0  0  0  0  0  0
   39.5372   12.3683   20.1839 H   0  0  0  0  0  0
   39.9223    9.1316   15.0759 H   0  0  0  0  0  0
   41.3900    8.1597   14.7184 H   0  0  0  0  0  0
   40.6354    6.3772   16.0780 H   0  0  0  0  0  0
   39.2826    7.3615   16.7319 H   0  0  0  0  0  0
   37.2854    7.8385   15.2778 H   0  0  0  0  0  0
   36.9744    5.6670   11.6005 H   0  0  0  0  0  0
   39.3102    4.9006   11.8556 H   0  0  0  0  0  0
   40.6437    5.6027   13.8258 H   0  0  0  0  0  0
  1  2  2  0  0  0
  2  3  1  0  0  0
  2  4  2  0  0  0
  2  5  1  0  0  0
  5  6  1  0  0  0
  5 33  1  0  0  0
  6  7  2  0  0  0
  6  8  1  0  0  0
  7 12  1  0  0  0
  7 34  1  0  0  0
  8  9  2  0  0  0
  8 35  1  0  0  0
  9 10  1  0  0  0
  9 13  1  0  0  0
 10 11  1  0  0  0
 10 12  2  0  0  0
 11 15  1  0  0  0
 11 36  1  0  0  0
 11 37  1  0  0  0
 12 38  1  0  0  0
 13 14  1  0  0  0
 13 39  1  0  0  0
 13 40  1  0  0  0
 14 15  1  0  0  0
 14 20  1  0  0  0
 15 16  1  0  0  0
 15 41  1  0  0  0
 16 17  1  0  0  0
 16 19  2  0  0  0
 17 18  1  0  0  0
 17 42  1  0  0  0
 18 43  1  0  0  0
 18 44  1  0  0  0
 18 45  1  0  0  0
 20 21  2  0  0  0
 20 22  1  0  0  0
 22 23  1  0  0  0
 22 46  1  0  0  0
 22 47  1  0  0  0
 23 24  1  0  0  0
 23 48  1  0  0  0
 23 49  1  0  0  0
 24 25  2  0  0  0
 24 32  1  0  0  0
 25 26  1  0  0  0
 25 50  1  0  0  0
 26 27  1  0  0  0
 26 30  2  0  0  0
 27 28  1  0  0  0
 27 29  2  0  0  0
 30 31  1  0  0  0
 30 51  1  0  0  0
 31 32  2  0  0  0
 31 52  1  0  0  0
 32 53  1  0  0  0
M  CHG  2   3  -1  28  -1
M  END
> <s_m_source_file>
../2f71_ligand.sdf

> <i_m_source_file_index>
1

> <s_epik_input>
Tz1TKD1PKShbT0hdKVtOSF1jKFtjSF0xKVtjSF1bY0hdYyhjMTIpW0NIMl1bQ0BASF0oQyg9TylbTkhdW0NIM10pTihbQ0gyXTIpQyg9TylbQ0gyXVtDSDJdYzNbY0hdYyhDKD1PKVtPSF0pW2NIXVtjSF1bY0hdMw==

> <s_epik_cmdline>
J2VwaWtfYXBwJywgJy1pbWFlJywgJ2xpZ2FuZF9wcm8ubWFlJywgJy1vbWFlJywgJ2xpZ2FuZF9wcmVwLm1hZScsICctbXMnLCAnMScsICctcGgnLCAnNycsICctcGh0JywgJzAuNScsICctbnQn

> <r_lp_tautomer_probability>
1

> <r_epik_Ionization_Penalty>
  0.0080

> <r_epik_Ionization_Penalty_Charging>
  0.0009

> <r_epik_Ionization_Penalty_Neutral>
  0.0071

> <r_epik_State_Penalty>
 -0.0000

> <r_epik_Charging_Adjusted_Penalty>
0.000857227410204782

> <i_epik_Tot_Q>
-2

> <i_epik_Tot_abs_Q>
2

$$$$
