2f7o_ligand
                    3D
 Schrodinger Suite 2020-3.
 25 25  0  0  1  0            999 V2000
   31.3190   65.8770    9.4500 C   0  0  1  0  0  0
   31.1480   64.5080    9.9440 N   0  3  0  0  0  0
   32.8010   66.1880    9.5120 C   0  0  1  0  0  0
   33.6220   65.0880    9.9130 O   0  0  0  0  0  0
   33.0740   66.7150    8.0990 C   0  0  1  0  0  0
   33.8360   65.8240    7.2910 O   0  0  0  0  0  0
   31.7990   67.0490    7.3310 C   0  0  1  0  0  0
   31.7660   67.2890    5.9230 O   0  0  0  0  0  0
   30.9360   65.9490    7.9790 C   0  0  2  0  0  0
   29.2320   66.5180    8.0170 S   0  0  0  0  0  0
   28.4200   65.3730    9.1430 C   0  0  0  0  0  0
   30.6944   66.5407   10.0659 H   0  0  0  0  0  0
   31.4267   64.4644   11.0072 H   0  0  0  0  0  0
   31.7919   63.8272    9.3679 H   0  0  0  0  0  0
   30.0970   64.2048    9.8277 H   0  0  0  0  0  0
   33.0965   66.8614   10.3301 H   0  0  0  0  0  0
   33.4970   64.6437   10.9115 H   0  0  0  0  0  0
   33.7150   67.5990    8.2319 H   0  0  0  0  0  0
   34.8051   65.4478    7.6506 H   0  0  0  0  0  0
   31.4662   68.0974    7.3240 H   0  0  0  0  0  0
   32.3919   68.0805    5.4852 H   0  0  0  0  0  0
   31.2052   65.0102    7.4729 H   0  0  0  0  0  0
   27.3571   65.6409    9.2348 H   0  0  0  0  0  0
   28.8991   65.4292   10.1316 H   0  0  0  0  0  0
   28.5075   64.3490    8.7508 H   0  0  0  0  0  0
  1  2  1  0  0  0
  1  3  1  0  0  0
  1  9  1  0  0  0
  1 12  1  0  0  0
  2 13  1  0  0  0
  2 14  1  0  0  0
  2 15  1  0  0  0
  3  4  1  0  0  0
  3  5  1  0  0  0
  3 16  1  0  0  0
  4 17  1  0  0  0
  5  6  1  0  0  0
  5  7  1  0  0  0
  5 18  1  0  0  0
  6 19  1  0  0  0
  7  8  1  0  0  0
  7  9  1  0  0  0
  7 20  1  0  0  0
  8 21  1  0  0  0
  9 10  1  0  0  0
  9 22  1  0  0  0
 10 11  1  0  0  0
 11 23  1  0  0  0
 11 24  1  0  0  0
 11 25  1  0  0  0
M  CHG  1   2   1
M  END
> <s_m_source_file>
../2f7o_ligand.sdf

> <i_m_source_file_index>
1

> <s_epik_input>
W05IMytdW0NASF0xW0NAQEhdKFtPSF0pW0NAQEhdKFtPSF0pW0NAQEhdKFtPSF0pW0NAQEhdMVNbQ0gzXQ==

> <s_epik_cmdline>
J2VwaWtfYXBwJywgJy1pbWFlJywgJ2xpZ2FuZF9wcm8ubWFlJywgJy1vbWFlJywgJ2xpZ2FuZF9wcmVwLm1hZScsICctbXMnLCAnMScsICctcGgnLCAnNycsICctcGh0JywgJzAuNScsICctbnQn

> <r_epik_Ionization_Penalty>
  0.0611

> <r_epik_Ionization_Penalty_Charging>
  0.0610

> <r_epik_Ionization_Penalty_Neutral>
  0.0000

> <r_epik_State_Penalty>
  0.0530

> <r_epik_Charging_Adjusted_Penalty>
0.114007364777952

> <i_epik_Tot_Q>
1

> <i_epik_Tot_abs_Q>
1

$$$$
