2f80_ligand
                    3D
 Schrodinger Suite 2020-3.
 75 78  0  0  1  0            999 V2000
   21.1430   28.7980   14.0100 N   0  0  0  0  0  0
   20.5620   27.6460   14.4460 C   0  0  0  0  0  0
   19.2200   27.4510   14.1280 C   0  0  0  0  0  0
   18.5750   26.2900   14.5490 C   0  0  0  0  0  0
   19.3070   25.3530   15.2830 C   0  0  0  0  0  0
   20.6580   25.5150   15.6220 C   0  0  0  0  0  0
   21.2920   26.6990   15.1850 C   0  0  0  0  0  0
   18.4080   23.8460   15.8120 S   0  0  0  0  0  0
   17.2190   23.5220   14.8850 O   0  0  0  0  0  0
   19.4760   22.6930   15.9630 O   0  0  0  0  0  0
   17.8200   24.1710   17.4900 N   0  0  1  0  0  0
   18.8420   24.5720   18.5060 C   0  0  0  0  0  0
   18.5320   23.9580   19.8970 C   0  0  0  0  0  0
   18.3170   22.4680   19.6970 C   0  0  0  0  0  0
   19.7340   24.2060   20.8030 C   0  0  0  0  0  0
   16.5610   25.0320   17.5180 C   0  0  0  0  0  0
   15.4090   24.0820   18.0090 C   0  0  1  0  0  0
   14.2840   24.8750   18.3430 O   0  0  0  0  0  0
   15.0610   22.9430   17.0100 C   0  0  1  0  0  0
   14.1470   22.0380   17.6660 N   0  0  0  0  0  0
   14.4610   20.7880   18.0620 C   0  0  0  0  0  0
   15.5720   20.2090   17.7850 O   0  0  0  0  0  0
   13.4090   20.1960   18.8200 O   0  0  0  0  0  0
   13.5140   18.7410   19.0150 C   0  0  1  0  0  0
   12.8390   18.3920   20.3620 C   0  0  0  0  0  0
   11.4100   18.6260   20.1590 O   0  0  0  0  0  0
   11.1950   18.2080   18.8220 C   0  0  1  0  0  0
   10.2770   19.0030   18.0950 O   0  0  0  0  0  0
   11.1260   19.5880   17.0830 C   0  0  0  0  0  0
   12.2140   18.5700   16.7260 C   0  0  0  0  0  0
   12.4780   18.0440   18.1150 C   0  0  1  0  0  0
   14.3430   23.3390   15.6960 C   0  0  0  0  0  0
   12.5470   21.8390   14.6860 C   0  0  0  0  0  0
   12.1480   20.7570   13.8910 C   0  0  0  0  0  0
   13.1250   19.9890   13.2360 C   0  0  0  0  0  0
   14.4820   20.3080   13.3800 C   0  0  0  0  0  0
   14.8810   21.3940   14.1770 C   0  0  0  0  0  0
   13.9040   22.1590   14.8300 C   0  0  0  0  0  0
   20.5546   29.5266   13.4330 H   0  0  0  0  0  0
   22.2007   28.9999   14.2348 H   0  0  0  0  0  0
   18.6778   28.2020   13.5534 H   0  0  0  0  0  0
   17.5253   26.1169   14.3117 H   0  0  0  0  0  0
   21.1950   24.7607   16.1972 H   0  0  0  0  0  0
   22.3414   26.8774   15.4195 H   0  0  0  0  0  0
   19.8346   24.2234   18.1849 H   0  0  0  0  0  0
   18.8520   25.6676   18.6034 H   0  0  0  0  0  0
   17.6378   24.3910   20.3692 H   0  0  0  0  0  0
   17.4477   22.3076   19.0423 H   0  0  0  0  0  0
   18.1358   21.9897   20.6709 H   0  0  0  0  0  0
   19.2118   22.0275   19.2330 H   0  0  0  0  0  0
   19.8750   25.2887   20.9369 H   0  0  0  0  0  0
   20.6348   23.7729   20.3437 H   0  0  0  0  0  0
   19.5588   23.7352   21.7816 H   0  0  0  0  0  0
   16.7081   25.8742   18.2102 H   0  0  0  0  0  0
   16.3585   25.4184   16.5082 H   0  0  0  0  0  0
   15.6719   23.5874   18.9557 H   0  0  0  0  0  0
   14.3928   25.7171   19.0423 H   0  0  0  0  0  0
   16.0216   22.4717   16.7549 H   0  0  0  0  0  0
   13.1143   22.3544   17.8742 H   0  0  0  0  0  0
   14.5774   18.5015   18.8674 H   0  0  0  0  0  0
   13.0411   17.3399   20.6117 H   0  0  0  0  0  0
   13.2427   19.0407   21.1534 H   0  0  0  0  0  0
   10.6645   17.2485   18.9107 H   0  0  0  0  0  0
   10.5248   19.8271   16.1934 H   0  0  0  0  0  0
   11.5829   20.5086   17.4750 H   0  0  0  0  0  0
   11.8065   17.8296   16.0219 H   0  0  0  0  0  0
   13.0640   19.0900   16.2601 H   0  0  0  0  0  0
   12.8542   17.0229   17.9545 H   0  0  0  0  0  0
   13.4364   23.9152   15.9329 H   0  0  0  0  0  0
   15.0171   23.9527   15.0804 H   0  0  0  0  0  0
   11.7943   22.4384   15.1981 H   0  0  0  0  0  0
   11.0911   20.5136   13.7818 H   0  0  0  0  0  0
   12.8273   19.1440   12.6151 H   0  0  0  0  0  0
   15.2349   19.7080   12.8689 H   0  0  0  0  0  0
   15.9375   21.6390   14.2864 H   0  0  0  0  0  0
  1  2  1  0  0  0
  1 39  1  0  0  0
  1 40  1  0  0  0
  2  3  2  0  0  0
  2  7  1  0  0  0
  3  4  1  0  0  0
  3 41  1  0  0  0
  4  5  2  0  0  0
  4 42  1  0  0  0
  5  6  1  0  0  0
  5  8  1  0  0  0
  6  7  2  0  0  0
  6 43  1  0  0  0
  7 44  1  0  0  0
  8  9  2  0  0  0
  8 10  2  0  0  0
  8 11  1  0  0  0
 11 12  1  0  0  0
 11 16  1  0  0  0
 12 13  1  0  0  0
 12 45  1  0  0  0
 12 46  1  0  0  0
 13 14  1  0  0  0
 13 15  1  0  0  0
 13 47  1  0  0  0
 14 48  1  0  0  0
 14 49  1  0  0  0
 14 50  1  0  0  0
 15 51  1  0  0  0
 15 52  1  0  0  0
 15 53  1  0  0  0
 16 17  1  0  0  0
 16 54  1  0  0  0
 16 55  1  0  0  0
 17 18  1  0  0  0
 17 19  1  0  0  0
 17 56  1  0  0  0
 18 57  1  0  0  0
 19 20  1  0  0  0
 19 32  1  0  0  0
 19 58  1  0  0  0
 20 21  1  0  0  0
 20 59  1  0  0  0
 21 22  2  0  0  0
 21 23  1  0  0  0
 23 24  1  0  0  0
 24 25  1  0  0  0
 24 31  1  0  0  0
 24 60  1  0  0  0
 25 26  1  0  0  0
 25 61  1  0  0  0
 25 62  1  0  0  0
 26 27  1  0  0  0
 27 28  1  0  0  0
 27 31  1  0  0  0
 27 63  1  0  0  0
 28 29  1  0  0  0
 29 30  1  0  0  0
 29 64  1  0  0  0
 29 65  1  0  0  0
 30 31  1  0  0  0
 30 66  1  0  0  0
 30 67  1  0  0  0
 31 68  1  0  0  0
 32 38  1  0  0  0
 32 69  1  0  0  0
 32 70  1  0  0  0
 33 34  2  0  0  0
 33 38  1  0  0  0
 33 71  1  0  0  0
 34 35  1  0  0  0
 34 72  1  0  0  0
 35 36  2  0  0  0
 35 73  1  0  0  0
 36 37  1  0  0  0
 36 74  1  0  0  0
 37 38  2  0  0  0
 37 75  1  0  0  0
M  END
> <s_m_source_file>
../2f80_ligand.sdf

> <i_m_source_file_index>
1

> <s_epik_input>
W05IMl1jMVtjSF1bY0hdYyhbY0hdW2NIXTEpUyg9TykoPU8pTihbQ0gyXVtDSF0oW0NIM10pW0NIM10pW0NIMl1bQ0BASF0oW09IXSlbQ0BASF0oW05IXUMoPU8pT1tDQEBIXShbQ0gyXU8yKVtDQEBIXShbQ0BASF0yMylbQ0gyXVtDSDJdTzMpW0NIMl1jNFtjSF1bY0hdW2NIXVtjSF1bY0hdNA==

> <s_epik_cmdline>
J2VwaWtfYXBwJywgJy1pbWFlJywgJ2xpZ2FuZF9wcm8ubWFlJywgJy1vbWFlJywgJ2xpZ2FuZF9wcmVwLm1hZScsICctbXMnLCAnMScsICctcGgnLCAnNycsICctcGh0JywgJzAuNScsICctbnQn

> <r_lp_tautomer_probability>
1

> <r_epik_Ionization_Penalty>
  0.0000

> <r_epik_Ionization_Penalty_Charging>
  0.0000

> <r_epik_Ionization_Penalty_Neutral>
  0.0000

> <r_epik_State_Penalty>
 -0.0000

> <r_epik_Charging_Adjusted_Penalty>
0

> <i_epik_Tot_Q>
0

> <i_epik_Tot_abs_Q>
0

> <s_epik_Chemistry_Notes>
This compound has an ester and may undergo hydrolysis at high or low pH. This compound contains an acetal/aminal-like group ( X-CH(R)-Y where X, Y are N, S, or O) that may be acid/base labile, releasing an aldehyde.

$$$$
