2f81_ligand
                    3D
 Schrodinger Suite 2020-3.
 75 78  0  0  1  0            999 V2000
    8.1990   57.2630   14.1130 N   0  0  0  0  0  0
    8.6730   58.4230   14.5710 C   0  0  0  0  0  0
   10.0100   58.6630   14.2710 C   0  0  0  0  0  0
   10.5810   59.8330   14.7070 C   0  0  0  0  0  0
    9.7660   60.7150   15.4280 C   0  0  0  0  0  0
    8.4290   60.4810   15.7340 C   0  0  0  0  0  0
    7.8370   59.2820   15.2920 C   0  0  0  0  0  0
   10.6440   62.2180   15.9530 S   0  0  0  0  0  0
   11.8530   62.4980   15.0290 O   0  0  0  0  0  0
    9.6620   63.3930   16.1790 O   0  0  0  0  0  0
   11.3060   61.8570   17.5900 N   0  0  1  0  0  0
   10.2860   61.5940   18.6410 C   0  0  0  0  0  0
   10.7920   62.1880   19.9860 C   0  0  0  0  0  0
   10.7790   63.6990   19.8520 C   0  0  0  0  0  0
    9.8740   61.7390   21.0950 C   0  0  0  0  0  0
   12.6140   61.1770   17.5660 C   0  0  0  0  0  0
   13.7530   62.0970   18.1130 C   0  0  1  0  0  0
   14.9180   61.2810   18.3050 O   0  0  0  0  0  0
   14.1140   63.2160   17.0780 C   0  0  1  0  0  0
   14.9710   64.1310   17.7720 N   0  0  0  0  0  0
   14.6300   65.3880   18.1050 C   0  0  0  0  0  0
   13.5360   65.9490   17.8240 O   0  0  0  0  0  0
   15.7420   65.9160   18.8150 O   0  0  0  0  0  0
   15.6310   67.3850   19.0220 C   0  0  1  0  0  0
   16.2760   67.5730   20.4170 C   0  0  0  0  0  0
   17.7030   67.4920   20.2200 O   0  0  0  0  0  0
   17.9450   67.9230   18.8900 C   0  0  1  0  0  0
   18.8550   67.0570   18.1820 O   0  0  0  0  0  0
   18.0780   66.5450   17.1070 C   0  0  0  0  0  0
   17.0330   67.6250   16.7630 C   0  0  0  0  0  0
   16.6820   68.1000   18.1650 C   0  0  1  0  0  0
   14.8240   62.7100   15.7830 C   0  0  0  0  0  0
   16.5910   64.3280   14.7970 C   0  0  0  0  0  0
   16.9590   65.4490   13.9880 C   0  0  0  0  0  0
   15.9410   66.1220   13.3210 C   0  0  0  0  0  0
   14.6090   65.7340   13.4210 C   0  0  0  0  0  0
   14.2890   64.6420   14.2180 C   0  0  0  0  0  0
   15.2590   63.9200   14.9130 C   0  0  0  0  0  0
    8.8550   56.5863   13.5458 H   0  0  0  0  0  0
    7.1522   56.9833   14.3026 H   0  0  0  0  0  0
   10.5918   57.9378   13.7020 H   0  0  0  0  0  0
   11.6256   60.0659   14.5006 H   0  0  0  0  0  0
    7.8523   61.2099   16.3035 H   0  0  0  0  0  0
    6.7947   59.0391   15.4984 H   0  0  0  0  0  0
    9.3356   62.0692   18.3566 H   0  0  0  0  0  0
   10.1370   60.5090   18.7441 H   0  0  0  0  0  0
   11.8079   61.8571   20.2476 H   0  0  0  0  0  0
   11.4549   64.0008   19.0383 H   0  0  0  0  0  0
   11.1151   64.1537   20.7955 H   0  0  0  0  0  0
    9.7575   64.0382   19.6250 H   0  0  0  0  0  0
    9.9011   60.6420   21.1718 H   0  0  0  0  0  0
    8.8469   62.0660   20.8757 H   0  0  0  0  0  0
   10.2045   62.1815   22.0463 H   0  0  0  0  0  0
   12.5687   60.2729   18.1909 H   0  0  0  0  0  0
   12.8622   60.8959   16.5319 H   0  0  0  0  0  0
   13.4817   62.5295   19.0873 H   0  0  0  0  0  0
   14.8839   60.4281   18.9989 H   0  0  0  0  0  0
   13.2086   63.7490   16.7522 H   0  0  0  0  0  0
   15.9834   63.8192   18.0685 H   0  0  0  0  0  0
   14.5970   67.7089   18.8326 H   0  0  0  0  0  0
   15.9895   68.5539   20.8242 H   0  0  0  0  0  0
   15.9259   66.7789   21.0929 H   0  0  0  0  0  0
   18.4594   68.8912   18.9790 H   0  0  0  0  0  0
   18.7316   66.3440   16.2454 H   0  0  0  0  0  0
   17.5878   65.6117   17.4209 H   0  0  0  0  0  0
   17.4973   68.3962   16.1308 H   0  0  0  0  0  0
   16.1936   67.1639   16.2219 H   0  0  0  0  0  0
   16.2662   69.1097   18.0321 H   0  0  0  0  0  0
   15.7123   62.1222   16.0577 H   0  0  0  0  0  0
   14.1306   62.0793   15.2072 H   0  0  0  0  0  0
   17.3655   63.7805   15.3342 H   0  0  0  0  0  0
   17.9986   65.7639   13.8977 H   0  0  0  0  0  0
   16.1951   66.9810   12.7000 H   0  0  0  0  0  0
   13.8309   66.2765   12.8841 H   0  0  0  0  0  0
   13.2453   64.3395   14.3030 H   0  0  0  0  0  0
  1  2  1  0  0  0
  1 39  1  0  0  0
  1 40  1  0  0  0
  2  3  2  0  0  0
  2  7  1  0  0  0
  3  4  1  0  0  0
  3 41  1  0  0  0
  4  5  2  0  0  0
  4 42  1  0  0  0
  5  6  1  0  0  0
  5  8  1  0  0  0
  6  7  2  0  0  0
  6 43  1  0  0  0
  7 44  1  0  0  0
  8  9  2  0  0  0
  8 10  2  0  0  0
  8 11  1  0  0  0
 11 12  1  0  0  0
 11 16  1  0  0  0
 12 13  1  0  0  0
 12 45  1  0  0  0
 12 46  1  0  0  0
 13 14  1  0  0  0
 13 15  1  0  0  0
 13 47  1  0  0  0
 14 48  1  0  0  0
 14 49  1  0  0  0
 14 50  1  0  0  0
 15 51  1  0  0  0
 15 52  1  0  0  0
 15 53  1  0  0  0
 16 17  1  0  0  0
 16 54  1  0  0  0
 16 55  1  0  0  0
 17 18  1  0  0  0
 17 19  1  0  0  0
 17 56  1  0  0  0
 18 57  1  0  0  0
 19 20  1  0  0  0
 19 32  1  0  0  0
 19 58  1  0  0  0
 20 21  1  0  0  0
 20 59  1  0  0  0
 21 22  2  0  0  0
 21 23  1  0  0  0
 23 24  1  0  0  0
 24 25  1  0  0  0
 24 31  1  0  0  0
 24 60  1  0  0  0
 25 26  1  0  0  0
 25 61  1  0  0  0
 25 62  1  0  0  0
 26 27  1  0  0  0
 27 28  1  0  0  0
 27 31  1  0  0  0
 27 63  1  0  0  0
 28 29  1  0  0  0
 29 30  1  0  0  0
 29 64  1  0  0  0
 29 65  1  0  0  0
 30 31  1  0  0  0
 30 66  1  0  0  0
 30 67  1  0  0  0
 31 68  1  0  0  0
 32 38  1  0  0  0
 32 69  1  0  0  0
 32 70  1  0  0  0
 33 34  2  0  0  0
 33 38  1  0  0  0
 33 71  1  0  0  0
 34 35  1  0  0  0
 34 72  1  0  0  0
 35 36  2  0  0  0
 35 73  1  0  0  0
 36 37  1  0  0  0
 36 74  1  0  0  0
 37 38  2  0  0  0
 37 75  1  0  0  0
M  END
> <s_m_source_file>
../2f81_ligand.sdf

> <i_m_source_file_index>
1

> <s_epik_input>
W05IMl1jMVtjSF1bY0hdYyhbY0hdW2NIXTEpUyg9TykoPU8pTihbQ0gyXVtDSF0oW0NIM10pW0NIM10pW0NIMl1bQ0BASF0oW09IXSlbQ0BASF0oW05IXUMoPU8pT1tDQEBIXShbQ0gyXU8yKVtDQEBIXShbQ0BASF0yMylbQ0gyXVtDSDJdTzMpW0NIMl1jNFtjSF1bY0hdW2NIXVtjSF1bY0hdNA==

> <s_epik_cmdline>
J2VwaWtfYXBwJywgJy1pbWFlJywgJ2xpZ2FuZF9wcm8ubWFlJywgJy1vbWFlJywgJ2xpZ2FuZF9wcmVwLm1hZScsICctbXMnLCAnMScsICctcGgnLCAnNycsICctcGh0JywgJzAuNScsICctbnQn

> <r_lp_tautomer_probability>
1

> <r_epik_Ionization_Penalty>
  0.0000

> <r_epik_Ionization_Penalty_Charging>
  0.0000

> <r_epik_Ionization_Penalty_Neutral>
  0.0000

> <r_epik_State_Penalty>
 -0.0000

> <r_epik_Charging_Adjusted_Penalty>
0

> <i_epik_Tot_Q>
0

> <i_epik_Tot_abs_Q>
0

> <s_epik_Chemistry_Notes>
This compound has an ester and may undergo hydrolysis at high or low pH. This compound contains an acetal/aminal-like group ( X-CH(R)-Y where X, Y are N, S, or O) that may be acid/base labile, releasing an aldehyde.

$$$$
