2f8g_ligand
                    3D
 Schrodinger Suite 2020-3.
 75 78  0  0  1  0            999 V2000
   11.3930   17.4080   21.4820 N   0  0  0  0  0  0
   12.4430   18.0070   20.8380 C   0  0  0  0  0  0
   13.3160   18.8320   21.5430 C   0  0  0  0  0  0
   14.3420   19.4980   20.8770 C   0  0  0  0  0  0
   14.5400   19.2250   19.5170 C   0  0  0  0  0  0
   13.6350   18.4830   18.7400 C   0  0  0  0  0  0
   12.5820   17.8360   19.4380 C   0  0  0  0  0  0
   15.7490   20.2650   18.6240 S   0  0  0  0  0  0
   16.7860   20.7570   19.6270 O   0  0  0  0  0  0
   16.2630   19.4170   17.4360 O   0  0  0  0  0  0
   14.9730   21.6620   17.8780 N   0  0  1  0  0  0
   13.9330   21.3620   16.8460 C   0  0  0  0  0  0
   13.9560   22.4270   15.7360 C   0  0  0  0  0  0
   15.2940   22.4620   15.0410 C   0  0  0  0  0  0
   12.8080   22.2160   14.7760 C   0  0  0  0  0  0
   14.7330   22.8000   18.8470 C   0  0  0  0  0  0
   15.6880   23.9740   18.3970 C   0  0  1  0  0  0
   15.1770   25.1080   19.0740 O   0  0  0  0  0  0
   17.2020   23.8050   18.7000 C   0  0  1  0  0  0
   17.9170   24.9210   18.1120 N   0  0  0  0  0  0
   18.6570   24.7060   16.9980 C   0  0  0  0  0  0
   18.8760   23.6180   16.3790 O   0  0  0  0  0  0
   19.1820   25.9290   16.5510 O   0  0  0  0  0  0
   20.2890   25.8870   15.5890 C   0  0  1  0  0  0
   20.1990   27.1730   14.7640 C   0  0  0  0  0  0
   20.7120   28.2250   15.6150 O   0  0  0  0  0  0
   21.6620   27.5630   16.4550 C   0  0  1  0  0  0
   21.5090   27.9890   17.8050 O   0  0  0  0  0  0
   21.2250   26.7880   18.5540 C   0  0  0  0  0  0
   21.8090   25.6060   17.7370 C   0  0  0  0  0  0
   21.6130   26.1030   16.3410 C   0  0  1  0  0  0
   17.5850   23.7370   20.2080 C   0  0  0  0  0  0
   19.8570   24.5860   20.9110 C   0  0  0  0  0  0
   21.2340   24.3730   21.0570 C   0  0  0  0  0  0
   21.8300   23.1710   20.6820 C   0  0  0  0  0  0
   21.0340   22.1420   20.1670 C   0  0  0  0  0  0
   19.6680   22.3300   19.9990 C   0  0  0  0  0  0
   19.0810   23.5350   20.4250 C   0  0  0  0  0  0
   11.2715   17.5313   22.5683 H   0  0  0  0  0  0
   10.6713   16.8037   20.9129 H   0  0  0  0  0  0
   13.1959   18.9568   22.6192 H   0  0  0  0  0  0
   14.9753   20.2140   21.4008 H   0  0  0  0  0  0
   13.7362   18.4080   17.6573 H   0  0  0  0  0  0
   11.8778   17.2054   18.8954 H   0  0  0  0  0  0
   14.1321   20.3761   16.4006 H   0  0  0  0  0  0
   12.9392   21.3574   17.3175 H   0  0  0  0  0  0
   13.8215   23.4266   16.1750 H   0  0  0  0  0  0
   16.0895   22.6173   15.7847 H   0  0  0  0  0  0
   15.3072   23.2860   14.3124 H   0  0  0  0  0  0
   15.4611   21.5082   14.5191 H   0  0  0  0  0  0
   11.8609   22.1990   15.3351 H   0  0  0  0  0  0
   12.9407   21.2588   14.2504 H   0  0  0  0  0  0
   12.7869   23.0366   14.0437 H   0  0  0  0  0  0
   13.6782   23.1079   18.7969 H   0  0  0  0  0  0
   14.9699   22.4679   19.8686 H   0  0  0  0  0  0
   15.6515   24.1330   17.3092 H   0  0  0  0  0  0
   14.1156   25.3779   18.9712 H   0  0  0  0  0  0
   17.5228   22.8665   18.2242 H   0  0  0  0  0  0
   17.8522   25.9187   18.5706 H   0  0  0  0  0  0
   20.2108   24.9361   15.0415 H   0  0  0  0  0  0
   20.8049   27.0667   13.8521 H   0  0  0  0  0  0
   19.1506   27.3590   14.4880 H   0  0  0  0  0  0
   22.6569   27.8843   16.1130 H   0  0  0  0  0  0
   21.7001   26.8524   19.5440 H   0  0  0  0  0  0
   20.1371   26.6804   18.6757 H   0  0  0  0  0  0
   22.8651   25.4597   18.0076 H   0  0  0  0  0  0
   21.2428   24.6900   17.9613 H   0  0  0  0  0  0
   22.3962   25.5608   15.7908 H   0  0  0  0  0  0
   17.2960   24.6762   20.7024 H   0  0  0  0  0  0
   17.0585   22.8958   20.6825 H   0  0  0  0  0  0
   19.4063   25.5442   21.1695 H   0  0  0  0  0  0
   21.8538   25.1668   21.4740 H   0  0  0  0  0  0
   22.9060   23.0335   20.7887 H   0  0  0  0  0  0
   21.4878   21.1886   19.8964 H   0  0  0  0  0  0
   19.0573   21.5516   19.5417 H   0  0  0  0  0  0
  1  2  1  0  0  0
  1 39  1  0  0  0
  1 40  1  0  0  0
  2  3  2  0  0  0
  2  7  1  0  0  0
  3  4  1  0  0  0
  3 41  1  0  0  0
  4  5  2  0  0  0
  4 42  1  0  0  0
  5  6  1  0  0  0
  5  8  1  0  0  0
  6  7  2  0  0  0
  6 43  1  0  0  0
  7 44  1  0  0  0
  8  9  2  0  0  0
  8 10  2  0  0  0
  8 11  1  0  0  0
 11 12  1  0  0  0
 11 16  1  0  0  0
 12 13  1  0  0  0
 12 45  1  0  0  0
 12 46  1  0  0  0
 13 14  1  0  0  0
 13 15  1  0  0  0
 13 47  1  0  0  0
 14 48  1  0  0  0
 14 49  1  0  0  0
 14 50  1  0  0  0
 15 51  1  0  0  0
 15 52  1  0  0  0
 15 53  1  0  0  0
 16 17  1  0  0  0
 16 54  1  0  0  0
 16 55  1  0  0  0
 17 18  1  0  0  0
 17 19  1  0  0  0
 17 56  1  0  0  0
 18 57  1  0  0  0
 19 20  1  0  0  0
 19 32  1  0  0  0
 19 58  1  0  0  0
 20 21  1  0  0  0
 20 59  1  0  0  0
 21 22  2  0  0  0
 21 23  1  0  0  0
 23 24  1  0  0  0
 24 25  1  0  0  0
 24 31  1  0  0  0
 24 60  1  0  0  0
 25 26  1  0  0  0
 25 61  1  0  0  0
 25 62  1  0  0  0
 26 27  1  0  0  0
 27 28  1  0  0  0
 27 31  1  0  0  0
 27 63  1  0  0  0
 28 29  1  0  0  0
 29 30  1  0  0  0
 29 64  1  0  0  0
 29 65  1  0  0  0
 30 31  1  0  0  0
 30 66  1  0  0  0
 30 67  1  0  0  0
 31 68  1  0  0  0
 32 38  1  0  0  0
 32 69  1  0  0  0
 32 70  1  0  0  0
 33 34  2  0  0  0
 33 38  1  0  0  0
 33 71  1  0  0  0
 34 35  1  0  0  0
 34 72  1  0  0  0
 35 36  2  0  0  0
 35 73  1  0  0  0
 36 37  1  0  0  0
 36 74  1  0  0  0
 37 38  2  0  0  0
 37 75  1  0  0  0
M  END
> <s_m_source_file>
../2f8g_ligand.sdf

> <i_m_source_file_index>
1

> <s_epik_input>
W05IMl1jMVtjSF1bY0hdYyhbY0hdW2NIXTEpUyg9TykoPU8pTihbQ0gyXVtDSF0oW0NIM10pW0NIM10pW0NIMl1bQ0BASF0oW09IXSlbQ0BASF0oW05IXUMoPU8pT1tDQEBIXShbQ0gyXU8yKVtDQEBIXShbQ0BASF0yMylbQ0gyXVtDSDJdTzMpW0NIMl1jNFtjSF1bY0hdW2NIXVtjSF1bY0hdNA==

> <s_epik_cmdline>
J2VwaWtfYXBwJywgJy1pbWFlJywgJ2xpZ2FuZF9wcm8ubWFlJywgJy1vbWFlJywgJ2xpZ2FuZF9wcmVwLm1hZScsICctbXMnLCAnMScsICctcGgnLCAnNycsICctcGh0JywgJzAuNScsICctbnQn

> <r_lp_tautomer_probability>
1

> <r_epik_Ionization_Penalty>
  0.0000

> <r_epik_Ionization_Penalty_Charging>
  0.0000

> <r_epik_Ionization_Penalty_Neutral>
  0.0000

> <r_epik_State_Penalty>
 -0.0000

> <r_epik_Charging_Adjusted_Penalty>
0

> <i_epik_Tot_Q>
0

> <i_epik_Tot_abs_Q>
0

> <s_epik_Chemistry_Notes>
This compound has an ester and may undergo hydrolysis at high or low pH. This compound contains an acetal/aminal-like group ( X-CH(R)-Y where X, Y are N, S, or O) that may be acid/base labile, releasing an aldehyde.

$$$$
