2f8i_ligand
                    3D
 Schrodinger Suite 2020-3.
 26 28  0  0  1  0            999 V2000
   22.0900    0.3930    4.5450 C   0  0  0  0  0  0
   21.6120    0.0640    5.8110 C   0  0  0  0  0  0
   21.3660   -0.0380    3.4060 C   0  0  0  0  0  0
   20.2060   -0.7660    3.5620 C   0  0  0  0  0  0
   19.7250   -1.1040    4.8320 C   0  0  0  0  0  0
   20.4370   -0.6710    5.9510 C   0  0  0  0  0  0
   21.2480    1.0140   10.1030 C   0  0  0  0  0  0
   21.3030   -0.1830    9.4180 C   0  0  0  0  0  0
   21.1760   -0.2480    7.9570 C   0  0  0  0  0  0
   21.3540    1.0660   11.4820 C   0  0  0  0  0  0
   21.5800   -1.3180   11.5120 C   0  0  0  0  0  0
   21.5220   -0.1130   12.2040 C   0  0  0  0  0  0
   21.4670   -1.3450   10.1370 C   0  0  0  0  0  0
   19.4870   -1.1920    2.3170 C   0  0  0  0  0  0
   19.6810   -0.5170    1.2750 O   0  5  0  0  0  0
   18.7390   -2.1840    2.3280 O   0  0  0  0  0  0
   20.1510   -0.8840    7.3110 O   0  0  0  0  0  0
   22.0440    0.3190    7.0640 N   0  0  0  0  0  0
   21.5430   -2.9260    9.3490 Cl  0  0  0  0  0  0
   21.0070    2.5360    9.2150 Cl  0  0  0  0  0  0
   23.0062    0.9726    4.4323 H   0  0  0  0  0  0
   21.7262    0.2060    2.4066 H   0  0  0  0  0  0
   18.8144   -1.6924    4.9444 H   0  0  0  0  0  0
   21.3063    2.0240   11.9998 H   0  0  0  0  0  0
   21.7160   -2.2498   12.0609 H   0  0  0  0  0  0
   21.6064   -0.0918   13.2905 H   0  0  0  0  0  0
  1  2  2  0  0  0
  1  3  1  0  0  0
  1 21  1  0  0  0
  2  6  1  0  0  0
  2 18  1  0  0  0
  3  4  2  0  0  0
  3 22  1  0  0  0
  4  5  1  0  0  0
  4 14  1  0  0  0
  5  6  2  0  0  0
  5 23  1  0  0  0
  6 17  1  0  0  0
  7  8  2  0  0  0
  7 10  1  0  0  0
  7 20  1  0  0  0
  8  9  1  0  0  0
  8 13  1  0  0  0
  9 17  1  0  0  0
  9 18  2  0  0  0
 10 12  2  0  0  0
 10 24  1  0  0  0
 11 12  1  0  0  0
 11 13  2  0  0  0
 11 25  1  0  0  0
 12 26  1  0  0  0
 13 19  1  0  0  0
 14 15  1  0  0  0
 14 16  2  0  0  0
M  CHG  1  15  -1
M  END
> <s_m_source_file>
../2f8i_ligand.sdf

> <i_m_source_file_index>
1

> <s_epik_input>
W2NIXTFbY0hdYyhDKD1PKVtPSF0pW2NIXWMoYzEyKW9jKG4yKS1jKGMzQ2wpYyhDbClbY0hdW2NIXVtjSF0z

> <s_epik_cmdline>
J2VwaWtfYXBwJywgJy1pbWFlJywgJ2xpZ2FuZF9wcm8ubWFlJywgJy1vbWFlJywgJ2xpZ2FuZF9wcmVwLm1hZScsICctbXMnLCAnMScsICctcGgnLCAnNycsICctcGh0JywgJzAuNScsICctbnQn

> <r_lp_tautomer_probability>
1

> <r_epik_Ionization_Penalty>
  0.0001

> <r_epik_Ionization_Penalty_Charging>
  0.0001

> <r_epik_Ionization_Penalty_Neutral>
  0.0000

> <r_epik_State_Penalty>
 -0.0000

> <r_epik_Charging_Adjusted_Penalty>
9.58168922921024e-05

> <i_epik_Tot_Q>
-1

> <i_epik_Tot_abs_Q>
1

$$$$
