2f94_ligand
                    3D
 Schrodinger Suite 2020-3.
 40 39  0  0  1  0            999 V2000
   15.4920   75.7290   24.5860 P   0  0  0  0  0  0
   16.8770   75.6010   24.0480 O   0  0  0  0  0  0
   15.1810   74.5550   25.5790 O   0  5  0  0  0  0
   14.3750   75.6690   23.4600 O   0  5  0  0  0  0
   15.2460   77.2840   25.5040 C   0  0  2  0  0  0
   16.5150   77.3950   26.8230 P   0  0  0  0  0  0
   17.9200   77.3270   26.3520 O   0  0  0  0  0  0
   16.1530   78.7360   27.6040 O   0  5  0  0  0  0
   16.1660   76.2030   27.8180 O   0  0  0  0  0  0
   13.9520   77.2860   26.1050 O   0  0  0  0  0  0
   15.3800   78.5040   24.5380 C   0  0  0  0  0  0
   14.1310   79.4740   24.5990 C   0  0  0  0  0  0
   14.1820   80.5680   25.6150 N   0  3  2  0  0  0
   15.4940   81.2280   25.7410 C   0  0  0  0  0  0
   15.4860   82.6840   25.2180 C   0  0  0  0  0  0
   16.7280   82.8060   24.3040 C   0  0  0  0  0  0
   17.0970   84.2520   23.9780 C   0  0  0  0  0  0
   18.2100   84.2310   22.8980 C   0  0  0  0  0  0
   13.6630   80.1560   26.9250 C   0  0  0  0  0  0
   16.3299   75.1608   27.5067 H   0  0  0  0  0  0
   13.6759   76.4959   26.8188 H   0  0  0  0  0  0
   16.2726   79.0880   24.8066 H   0  0  0  0  0  0
   15.4754   78.1436   23.5031 H   0  0  0  0  0  0
   14.0071   79.9738   23.6270 H   0  0  0  0  0  0
   13.2262   78.8927   24.8303 H   0  0  0  0  0  0
   13.5025   81.3428   25.2304 H   0  0  0  0  0  0
   15.7916   81.2532   26.7997 H   0  0  0  0  0  0
   16.2434   80.6677   25.1627 H   0  0  0  0  0  0
   14.5572   82.8673   24.6579 H   0  0  0  0  0  0
   15.5447   83.3794   26.0683 H   0  0  0  0  0  0
   17.5952   82.3462   24.8005 H   0  0  0  0  0  0
   16.5347   82.2902   23.3518 H   0  0  0  0  0  0
   16.2098   84.7802   23.5988 H   0  0  0  0  0  0
   17.4602   84.7518   24.8881 H   0  0  0  0  0  0
   18.4946   85.2629   22.6447 H   0  0  0  0  0  0
   17.8371   83.7218   21.9971 H   0  0  0  0  0  0
   19.0876   83.6934   23.2863 H   0  0  0  0  0  0
   12.6856   79.6683   26.7953 H   0  0  0  0  0  0
   13.5489   81.0405   27.5689 H   0  0  0  0  0  0
   14.3657   79.4505   27.3924 H   0  0  0  0  0  0
  1  2  2  0  0  0
  1  3  1  0  0  0
  1  4  1  0  0  0
  1  5  1  0  0  0
  5  6  1  0  0  0
  5 10  1  0  0  0
  5 11  1  0  0  0
  6  7  2  0  0  0
  6  8  1  0  0  0
  6  9  1  0  0  0
  9 20  1  0  0  0
 10 21  1  0  0  0
 11 12  1  0  0  0
 11 22  1  0  0  0
 11 23  1  0  0  0
 12 13  1  0  0  0
 12 24  1  0  0  0
 12 25  1  0  0  0
 13 14  1  0  0  0
 13 19  1  0  0  0
 13 26  1  0  0  0
 14 15  1  0  0  0
 14 27  1  0  0  0
 14 28  1  0  0  0
 15 16  1  0  0  0
 15 29  1  0  0  0
 15 30  1  0  0  0
 16 17  1  0  0  0
 16 31  1  0  0  0
 16 32  1  0  0  0
 17 18  1  0  0  0
 17 33  1  0  0  0
 17 34  1  0  0  0
 18 35  1  0  0  0
 18 36  1  0  0  0
 18 37  1  0  0  0
 19 38  1  0  0  0
 19 39  1  0  0  0
 19 40  1  0  0  0
M  CHG  4   3  -1   4  -1   8  -1  13   1
M  END
> <s_m_source_file>
../2f94_ligand.sdf

> <i_m_source_file_index>
1

> <s_epik_input>
Tz1QKFtPSF0pKFtPSF0pQyhbT0hdKShQKD1PKShbT0hdKVtPSF0pW0NIMl1bQ0gyXVtOQEBIK10oW0NIM10pW0NIMl1bQ0gyXVtDSDJdW0NIMl1bQ0gzXQ==

> <s_epik_cmdline>
J2VwaWtfYXBwJywgJy1pbWFlJywgJ2xpZ2FuZF9wcm8ubWFlJywgJy1vbWFlJywgJ2xpZ2FuZF9wcmVwLm1hZScsICctbXMnLCAnMScsICctcGgnLCAnNycsICctcGh0JywgJzAuNScsICctbnQn

> <r_epik_Ionization_Penalty>
  0.1195

> <r_epik_Ionization_Penalty_Charging>
  0.1194

> <r_epik_Ionization_Penalty_Neutral>
  0.0001

> <r_epik_State_Penalty>
  0.1072

> <r_epik_Charging_Adjusted_Penalty>
0.226650289505363

> <i_epik_Tot_Q>
-2

> <i_epik_Tot_abs_Q>
4

$$$$
