2f9u_ligand
                    3D
 Schrodinger Suite 2020-3.
113116  0  0  1  0            999 V2000
  192.3850  -10.4450   48.9620 C   0  0  0  0  0  0
  192.9010  -11.5410   49.1980 O   0  0  0  0  0  0
  191.1160  -10.0490   49.0680 O   0  0  0  0  0  0
  190.0660  -10.9010   49.5470 C   0  0  0  0  0  0
  190.2420  -10.8880   51.0960 C   0  0  0  0  0  0
  188.7600  -10.1850   49.1290 C   0  0  0  0  0  0
  190.1160  -12.3080   48.8790 C   0  0  0  0  0  0
  193.0620   -9.3950   48.5190 N   0  0  0  0  0  0
  194.5100   -9.3770   48.4160 C   0  0  1  0  0  0
  194.9300   -8.7540   47.0780 C   0  0  0  0  0  0
  196.4370   -8.4790   47.0240 C   0  0  0  0  0  0
  196.8630   -7.8570   45.7040 C   0  0  0  0  0  0
  196.4370   -8.7340   44.5240 C   0  0  0  0  0  0
  194.9370   -9.0390   44.5610 C   0  0  0  0  0  0
  194.5400   -9.6460   45.9040 C   0  0  0  0  0  0
  195.1130   -8.5280   49.5360 C   0  0  0  0  0  0
  195.0420   -7.2940   49.4880 O   0  0  0  0  0  0
  197.2430   -7.4950   51.2240 C   0  0  0  0  0  0
  197.9690   -7.7590   50.2590 O   0  0  0  0  0  0
  195.6290   -9.1650   50.5990 N   0  0  0  0  0  0
  196.2570   -8.5210   51.7570 C   0  0  1  0  0  0
  196.7880   -9.7020   52.5980 C   0  0  1  0  0  0
  195.6070  -10.4200   53.2570 C   0  0  0  0  0  0
  194.8760  -11.0180   52.0590 C   0  0  0  0  0  0
  195.7560  -10.6320   50.8620 C   0  0  2  0  0  0
  197.1290  -10.6800   51.4870 C   0  0  0  0  0  0
  197.1720   -6.2900   51.7750 N   0  0  0  0  0  0
  198.0320   -5.2030   51.3440 C   0  0  1  0  0  0
  197.1950   -4.1660   50.5770 C   0  0  0  0  0  0
  197.4550   -4.1490   49.0720 C   0  0  0  0  0  0
  196.1850   -4.3950   48.2520 C   0  0  0  0  0  0
  196.3370   -4.0030   46.7940 C   0  0  0  0  0  0
  199.1670   -5.6760   53.5550 O   0  0  0  0  0  0
  198.7800   -4.6370   52.5630 C   0  0  1  0  0  0
  199.8180   -2.8940   51.4560 O   0  0  0  0  0  0
  201.1850   -4.6080   51.8750 N   0  0  0  0  0  0
  202.4250   -3.9030   51.5900 C   0  0  0  0  0  0
  202.8720   -3.8590   50.1450 C   0  0  0  0  0  0
  202.1240   -4.1940   49.2260 O   0  0  0  0  0  0
  200.0050   -4.0110   51.9260 C   0  0  0  0  0  0
  204.1030   -3.4100   49.9470 N   0  0  0  0  0  0
  204.6810   -3.3300   48.6210 C   0  0  1  0  0  0
  204.4270   -2.0210   47.9520 C   0  0  0  0  0  0
  204.1930   -1.9700   46.5870 C   0  0  0  0  0  0
  204.0510   -0.7550   45.9470 C   0  0  0  0  0  0
  204.1420    0.4290   46.6860 C   0  0  0  0  0  0
  204.3690    0.3790   48.0540 C   0  0  0  0  0  0
  204.5060   -0.8420   48.6760 C   0  0  0  0  0  0
  206.2060   -3.3140   48.7520 C   0  0  0  0  0  0
  206.7480   -2.7720   49.7240 O   0  0  0  0  0  0
  206.9170   -3.9080   47.7770 N   0  0  0  0  0  0
  208.3980   -3.8330   47.8450 C   0  0  0  0  0  0
  206.2890   -4.6380   46.6230 C   0  0  0  0  0  0
  190.1908   -9.8520   51.4621 H   0  0  0  0  0  0
  191.2185  -11.3216   51.3577 H   0  0  0  0  0  0
  189.4409  -11.4813   51.5610 H   0  0  0  0  0  0
  188.7204   -9.1910   49.5984 H   0  0  0  0  0  0
  187.8947  -10.7799   49.4566 H   0  0  0  0  0  0
  188.7362  -10.0750   48.0348 H   0  0  0  0  0  0
  191.0434  -12.8210   49.1736 H   0  0  0  0  0  0
  190.0907  -12.1956   47.7850 H   0  0  0  0  0  0
  189.2492  -12.9005   49.2069 H   0  0  0  0  0  0
  192.4785   -8.5109   48.2226 H   0  0  0  0  0  0
  194.8177  -10.4298   48.4993 H   0  0  0  0  0  0
  194.3926   -7.7980   46.9932 H   0  0  0  0  0  0
  196.7123   -7.7852   47.8320 H   0  0  0  0  0  0
  196.9868   -9.4236   47.1486 H   0  0  0  0  0  0
  196.3941   -6.8677   45.5966 H   0  0  0  0  0  0
  197.9574   -7.7479   45.6863 H   0  0  0  0  0  0
  196.6625   -8.2146   43.5809 H   0  0  0  0  0  0
  196.9859   -9.6866   44.5582 H   0  0  0  0  0  0
  194.3698   -8.1085   44.4111 H   0  0  0  0  0  0
  194.6881   -9.7529   43.7620 H   0  0  0  0  0  0
  195.0427  -10.6197   46.0005 H   0  0  0  0  0  0
  193.4501   -9.7946   45.9026 H   0  0  0  0  0  0
  195.5903   -7.9218   52.3945 H   0  0  0  0  0  0
  197.5599   -9.4120   53.3260 H   0  0  0  0  0  0
  195.9843  -11.1842   53.9525 H   0  0  0  0  0  0
  194.9966   -9.6907   53.8097 H   0  0  0  0  0  0
  194.7984  -12.1082   52.1837 H   0  0  0  0  0  0
  193.8675  -10.5840   51.9908 H   0  0  0  0  0  0
  195.5447  -11.2283   49.9621 H   0  0  0  0  0  0
  197.9548  -10.2756   50.8832 H   0  0  0  0  0  0
  197.4325  -11.6420   51.9257 H   0  0  0  0  0  0
  196.4380   -6.1255   52.5776 H   0  0  0  0  0  0
  198.7802   -5.6098   50.6478 H   0  0  0  0  0  0
  196.1255   -4.3802   50.7195 H   0  0  0  0  0  0
  197.4210   -3.1588   50.9571 H   0  0  0  0  0  0
  197.8602   -3.1686   48.7810 H   0  0  0  0  0  0
  198.1798   -4.9359   48.8162 H   0  0  0  0  0  0
  195.9280   -5.4640   48.2860 H   0  0  0  0  0  0
  195.3571   -3.8053   48.6724 H   0  0  0  0  0  0
  195.3959   -4.2026   46.2606 H   0  0  0  0  0  0
  197.1481   -4.5905   46.3390 H   0  0  0  0  0  0
  196.5772   -2.9317   46.7255 H   0  0  0  0  0  0
  198.3904   -6.2261   54.1067 H   0  0  0  0  0  0
  198.1730   -3.9492   53.1700 H   0  0  0  0  0  0
  201.1990   -5.6920   52.0614 H   0  0  0  0  0  0
  202.3298   -2.8527   51.9027 H   0  0  0  0  0  0
  203.2509   -4.3763   52.1412 H   0  0  0  0  0  0
  204.6890   -3.0934   50.8224 H   0  0  0  0  0  0
  204.2128   -4.1711   48.0887 H   0  0  0  0  0  0
  204.1206   -2.8951   46.0151 H   0  0  0  0  0  0
  203.8692   -0.7187   44.8729 H   0  0  0  0  0  0
  204.0345    1.3920   46.1868 H   0  0  0  0  0  0
  204.4384    1.3002   48.6325 H   0  0  0  0  0  0
  204.6788   -0.8816   49.7515 H   0  0  0  0  0  0
  208.6958   -3.2699   48.7418 H   0  0  0  0  0  0
  208.7809   -3.3237   46.9483 H   0  0  0  0  0  0
  208.8147   -4.8498   47.8953 H   0  0  0  0  0  0
  205.1938   -4.6026   46.7191 H   0  0  0  0  0  0
  206.6237   -5.6858   46.6262 H   0  0  0  0  0  0
  206.5899   -4.1598   45.6792 H   0  0  0  0  0  0
  1  2  2  0  0  0
  1  3  1  0  0  0
  1  8  1  0  0  0
  3  4  1  0  0  0
  4  5  1  0  0  0
  4  6  1  0  0  0
  4  7  1  0  0  0
  5 54  1  0  0  0
  5 55  1  0  0  0
  5 56  1  0  0  0
  6 57  1  0  0  0
  6 58  1  0  0  0
  6 59  1  0  0  0
  7 60  1  0  0  0
  7 61  1  0  0  0
  7 62  1  0  0  0
  8  9  1  0  0  0
  8 63  1  0  0  0
  9 10  1  0  0  0
  9 16  1  0  0  0
  9 64  1  0  0  0
 10 11  1  0  0  0
 10 15  1  0  0  0
 10 65  1  0  0  0
 11 12  1  0  0  0
 11 66  1  0  0  0
 11 67  1  0  0  0
 12 13  1  0  0  0
 12 68  1  0  0  0
 12 69  1  0  0  0
 13 14  1  0  0  0
 13 70  1  0  0  0
 13 71  1  0  0  0
 14 15  1  0  0  0
 14 72  1  0  0  0
 14 73  1  0  0  0
 15 74  1  0  0  0
 15 75  1  0  0  0
 16 17  2  0  0  0
 16 20  1  0  0  0
 18 19  2  0  0  0
 18 21  1  0  0  0
 18 27  1  0  0  0
 20 21  1  0  0  0
 20 25  1  0  0  0
 21 22  1  0  0  0
 21 76  1  0  0  0
 22 23  1  0  0  0
 22 26  1  0  0  0
 22 77  1  0  0  0
 23 24  1  0  0  0
 23 78  1  0  0  0
 23 79  1  0  0  0
 24 25  1  0  0  0
 24 80  1  0  0  0
 24 81  1  0  0  0
 25 26  1  0  0  0
 25 82  1  0  0  0
 26 83  1  0  0  0
 26 84  1  0  0  0
 27 28  1  0  0  0
 27 85  1  0  0  0
 28 29  1  0  0  0
 28 34  1  0  0  0
 28 86  1  0  0  0
 29 30  1  0  0  0
 29 87  1  0  0  0
 29 88  1  0  0  0
 30 31  1  0  0  0
 30 89  1  0  0  0
 30 90  1  0  0  0
 31 32  1  0  0  0
 31 91  1  0  0  0
 31 92  1  0  0  0
 32 93  1  0  0  0
 32 94  1  0  0  0
 32 95  1  0  0  0
 33 34  1  0  0  0
 33 96  1  0  0  0
 34 40  1  0  0  0
 34 97  1  0  0  0
 35 40  2  0  0  0
 36 37  1  0  0  0
 36 40  1  0  0  0
 36 98  1  0  0  0
 37 38  1  0  0  0
 37 99  1  0  0  0
 37100  1  0  0  0
 38 39  2  0  0  0
 38 41  1  0  0  0
 41 42  1  0  0  0
 41101  1  0  0  0
 42 43  1  0  0  0
 42 49  1  0  0  0
 42102  1  0  0  0
 43 44  2  0  0  0
 43 48  1  0  0  0
 44 45  1  0  0  0
 44103  1  0  0  0
 45 46  2  0  0  0
 45104  1  0  0  0
 46 47  1  0  0  0
 46105  1  0  0  0
 47 48  2  0  0  0
 47106  1  0  0  0
 48107  1  0  0  0
 49 50  2  0  0  0
 49 51  1  0  0  0
 51 52  1  0  0  0
 51 53  1  0  0  0
 52108  1  0  0  0
 52109  1  0  0  0
 52110  1  0  0  0
 53111  1  0  0  0
 53112  1  0  0  0
 53113  1  0  0  0
M  END
> <s_m_source_file>
../2f9u_ligand.sdf

> <i_m_source_file_index>
1

> <s_epik_input>
W0NIMl0xW0NIMl1bQ0gyXVtDSDJdW0NIMl1bQ0hdMVtDQEhdKFtOSF1DKD1PKU9DKFtDSDNdKShbQ0gzXSlbQ0gzXSlDKD1PKU4oW0NAQEhdKFtDSDJdMilbQ0gyXVtDSDJdMylbQ0BASF0oW0NASF0yMylDKD1PKVtOSF1bQ0BASF0oW0NIMl1bQ0gyXVtDSDJdW0NIM10pW0NAQEhdKFtPSF0pQyg9TylbTkhdW0NIMl1DKD1PKVtOSF1bQ0BIXShDKD1PKU4oW0NIM10pW0NIM10pYzRbY0hdW2NIXVtjSF1bY0hdW2NIXTQ=

> <s_epik_cmdline>
J2VwaWtfYXBwJywgJy1pbWFlJywgJ2xpZ2FuZF9wcm8ubWFlJywgJy1vbWFlJywgJ2xpZ2FuZF9wcmVwLm1hZScsICctbXMnLCAnMScsICctcGgnLCAnNycsICctcGh0JywgJzAuNScsICctbnQn

> <r_lp_tautomer_probability>
1

> <r_epik_Ionization_Penalty>
  0.0000

> <r_epik_Ionization_Penalty_Charging>
  0.0000

> <r_epik_Ionization_Penalty_Neutral>
  0.0000

> <r_epik_State_Penalty>
 -0.0000

> <r_epik_Charging_Adjusted_Penalty>
0

> <i_epik_Tot_Q>
0

> <i_epik_Tot_abs_Q>
0

> <s_epik_Chemistry_Notes>
This compound has an ester and may undergo hydrolysis at high or low pH.

$$$$
