2f9v_ligand
                    3D
 Schrodinger Suite 2020-3.
101104  0  0  1  0            999 V2000
  191.1850  -10.7460   48.6260 C   0  0  0  0  0  0
  191.8470  -11.6030   49.2300 O   0  0  0  0  0  0
  189.7790  -10.7020   48.5180 O   0  0  0  0  0  0
  188.8650  -11.4700   49.3690 C   0  0  0  0  0  0
  188.1080  -10.7420   50.4920 C   0  0  0  0  0  0
  187.6970   -9.3360   50.1170 C   0  0  0  0  0  0
  188.8670  -10.7660   51.8050 C   0  0  0  0  0  0
  191.7560   -9.7500   47.9440 N   0  0  0  0  0  0
  193.2010   -9.5480   47.9140 C   0  0  1  0  0  0
  193.5820   -8.6330   46.7290 C   0  0  0  0  0  0
  195.0740   -8.2760   46.7530 C   0  0  0  0  0  0
  193.2910   -9.3330   45.3950 C   0  0  0  0  0  0
  195.5050   -7.4270   45.5500 C   0  0  0  0  0  0
  193.6930   -8.5140   44.1670 C   0  0  0  0  0  0
  195.1690   -8.1340   44.2290 C   0  0  0  0  0  0
  193.5440   -8.8590   49.2310 C   0  0  0  0  0  0
  193.0750   -7.7410   49.4750 O   0  0  0  0  0  0
  194.3110   -9.5390   50.0860 N   0  0  0  0  0  0
  195.6560   -7.8540   50.9680 C   0  0  0  0  0  0
  196.5970   -8.0290   50.1850 O   0  0  0  0  0  0
  194.6860   -9.4710   52.5600 C   0  0  0  0  0  0
  194.0250  -10.8450   52.4970 C   0  0  0  0  0  0
  192.6290  -10.9680   53.0930 C   0  0  0  0  0  0
  193.8340  -11.6080   53.8140 C   0  0  0  0  0  0
  195.4590   -6.7080   51.6160 N   0  0  0  0  0  0
  196.0800   -5.4670   51.1630 C   0  0  1  0  0  0
  195.0320   -4.5310   50.5370 C   0  0  0  0  0  0
  195.0980   -4.7140   49.0250 C   0  0  0  0  0  0
  194.4740   -3.6740   48.0970 C   0  0  0  0  0  0
  193.7640   -5.0150   48.3360 C   0  0  0  0  0  0
  197.5990   -5.7530   53.0680 O   0  0  0  0  0  0
  196.8430   -4.7410   52.3070 C   0  0  1  0  0  0
  197.6760   -2.8170   51.0880 O   0  0  0  0  0  0
  200.7800   -3.8450   49.8770 C   0  0  0  0  0  0
  202.0880   -3.6700   49.7050 N   0  0  0  0  0  0
  202.7290   -3.6380   48.3970 C   0  0  1  0  0  0
  202.4820   -2.3110   47.6110 C   0  0  0  0  0  0
  202.5640   -1.0190   48.2290 C   0  0  0  0  0  0
  202.1880   -2.3600   46.2420 C   0  0  0  0  0  0
  202.3760    0.1720   47.5100 C   0  0  0  0  0  0
  201.9960   -1.1620   45.5150 C   0  0  0  0  0  0
  202.0860    0.0900   46.1490 C   0  0  0  0  0  0
  204.2280   -3.8730   48.6180 C   0  0  0  0  0  0
  204.7710   -3.4810   49.6640 O   0  5  0  0  0  0
  204.8900   -4.4520   47.7580 O   0  0  0  0  0  0
  194.7740   -8.8290   51.2420 N   0  0  0  0  0  0
  199.0790   -4.5290   51.4640 N   0  0  0  0  0  0
  200.3400   -3.8280   51.3220 C   0  0  0  0  0  0
  199.9770   -4.0030   48.9440 O   0  0  0  0  0  0
  197.9010   -3.9220   51.5600 C   0  0  0  0  0  0
  188.0754  -11.9183   48.7480 H   0  0  0  0  0  0
  189.4239  -12.2661   49.8826 H   0  0  0  0  0  0
  187.1710  -11.2965   50.6489 H   0  0  0  0  0  0
  187.1505   -9.3560   49.1626 H   0  0  0  0  0  0
  188.5936   -8.7073   50.0130 H   0  0  0  0  0  0
  187.0479   -8.9219   50.9026 H   0  0  0  0  0  0
  189.1496  -11.8013   52.0463 H   0  0  0  0  0  0
  188.2280  -10.3643   52.6052 H   0  0  0  0  0  0
  189.7738  -10.1497   51.7156 H   0  0  0  0  0  0
  191.0937   -9.0677   47.3910 H   0  0  0  0  0  0
  193.7014  -10.5211   47.8016 H   0  0  0  0  0  0
  192.9834   -7.7147   46.8203 H   0  0  0  0  0  0
  195.2993   -7.7033   47.6647 H   0  0  0  0  0  0
  195.6721   -9.1991   46.7426 H   0  0  0  0  0  0
  193.8456  -10.2819   45.3502 H   0  0  0  0  0  0
  192.2126   -9.5344   45.3142 H   0  0  0  0  0  0
  194.9801   -6.4607   45.5763 H   0  0  0  0  0  0
  196.5908   -7.2558   45.5922 H   0  0  0  0  0  0
  193.5174   -9.1070   43.2573 H   0  0  0  0  0  0
  193.0914   -7.5940   44.1268 H   0  0  0  0  0  0
  195.3945   -7.4635   43.3866 H   0  0  0  0  0  0
  195.7713   -9.0501   44.1399 H   0  0  0  0  0  0
  194.5913  -10.5925   49.9387 H   0  0  0  0  0  0
  194.1012   -8.8127   53.2193 H   0  0  0  0  0  0
  195.7071   -9.5731   52.9561 H   0  0  0  0  0  0
  194.4805  -11.0851   51.5250 H   0  0  0  0  0  0
  192.2287   -9.9644   53.2994 H   0  0  0  0  0  0
  191.9704  -11.4860   52.3804 H   0  0  0  0  0  0
  194.1683  -12.6482   53.6869 H   0  0  0  0  0  0
  194.4266  -11.1266   54.6059 H   0  0  0  0  0  0
  194.8149   -6.7072   52.5077 H   0  0  0  0  0  0
  196.7953   -5.7994   50.3963 H   0  0  0  0  0  0
  194.0327   -4.7960   50.9127 H   0  0  0  0  0  0
  195.2615   -3.4900   50.8083 H   0  0  0  0  0  0
  196.0979   -5.1695   49.0769 H   0  0  0  0  0  0
  194.2830   -2.7482   48.6596 H   0  0  0  0  0  0
  195.1637   -3.4627   47.2665 H   0  0  0  0  0  0
  193.8712   -5.9091   47.7042 H   0  0  0  0  0  0
  192.9904   -5.1945   49.0972 H   0  0  0  0  0  0
  197.0651   -6.4792   53.6986 H   0  0  0  0  0  0
  196.1993   -4.1782   52.9990 H   0  0  0  0  0  0
  202.6913   -3.5458   50.6163 H   0  0  0  0  0  0
  202.2595   -4.4526   47.8260 H   0  0  0  0  0  0
  202.7802   -0.9599   49.2957 H   0  0  0  0  0  0
  202.1071   -3.3224   45.7366 H   0  0  0  0  0  0
  202.4551    1.1398   48.0052 H   0  0  0  0  0  0
  201.7752   -1.2099   44.4487 H   0  0  0  0  0  0
  201.9281    1.0017   45.5728 H   0  0  0  0  0  0
  199.0616   -5.6283   51.4976 H   0  0  0  0  0  0
  201.1013   -4.3228   51.9429 H   0  0  0  0  0  0
  200.2152   -2.7871   51.6551 H   0  0  0  0  0  0
  1  2  2  0  0  0
  1  3  1  0  0  0
  1  8  1  0  0  0
  3  4  1  0  0  0
  4  5  1  0  0  0
  4 51  1  0  0  0
  4 52  1  0  0  0
  5  6  1  0  0  0
  5  7  1  0  0  0
  5 53  1  0  0  0
  6 54  1  0  0  0
  6 55  1  0  0  0
  6 56  1  0  0  0
  7 57  1  0  0  0
  7 58  1  0  0  0
  7 59  1  0  0  0
  8  9  1  0  0  0
  8 60  1  0  0  0
  9 10  1  0  0  0
  9 16  1  0  0  0
  9 61  1  0  0  0
 10 11  1  0  0  0
 10 12  1  0  0  0
 10 62  1  0  0  0
 11 13  1  0  0  0
 11 63  1  0  0  0
 11 64  1  0  0  0
 12 14  1  0  0  0
 12 65  1  0  0  0
 12 66  1  0  0  0
 13 15  1  0  0  0
 13 67  1  0  0  0
 13 68  1  0  0  0
 14 15  1  0  0  0
 14 69  1  0  0  0
 14 70  1  0  0  0
 15 71  1  0  0  0
 15 72  1  0  0  0
 16 17  2  0  0  0
 16 18  1  0  0  0
 18 46  1  0  0  0
 18 73  1  0  0  0
 19 20  2  0  0  0
 19 25  1  0  0  0
 19 46  1  0  0  0
 21 22  1  0  0  0
 21 46  1  0  0  0
 21 74  1  0  0  0
 21 75  1  0  0  0
 22 23  1  0  0  0
 22 24  1  0  0  0
 22 76  1  0  0  0
 23 24  1  0  0  0
 23 77  1  0  0  0
 23 78  1  0  0  0
 24 79  1  0  0  0
 24 80  1  0  0  0
 25 26  1  0  0  0
 25 81  1  0  0  0
 26 27  1  0  0  0
 26 32  1  0  0  0
 26 82  1  0  0  0
 27 28  1  0  0  0
 27 83  1  0  0  0
 27 84  1  0  0  0
 28 29  1  0  0  0
 28 30  1  0  0  0
 28 85  1  0  0  0
 29 30  1  0  0  0
 29 86  1  0  0  0
 29 87  1  0  0  0
 30 88  1  0  0  0
 30 89  1  0  0  0
 31 32  1  0  0  0
 31 90  1  0  0  0
 32 50  1  0  0  0
 32 91  1  0  0  0
 33 50  2  0  0  0
 34 35  1  0  0  0
 34 48  1  0  0  0
 34 49  2  0  0  0
 35 36  1  0  0  0
 35 92  1  0  0  0
 36 37  1  0  0  0
 36 43  1  0  0  0
 36 93  1  0  0  0
 37 38  2  0  0  0
 37 39  1  0  0  0
 38 40  1  0  0  0
 38 94  1  0  0  0
 39 41  2  0  0  0
 39 95  1  0  0  0
 40 42  2  0  0  0
 40 96  1  0  0  0
 41 42  1  0  0  0
 41 97  1  0  0  0
 42 98  1  0  0  0
 43 44  1  0  0  0
 43 45  2  0  0  0
 47 48  1  0  0  0
 47 50  1  0  0  0
 47 99  1  0  0  0
 48100  1  0  0  0
 48101  1  0  0  0
M  CHG  1  44  -1
M  END
> <s_m_source_file>
../2f9v_ligand.sdf

> <i_m_source_file_index>
1

> <s_epik_input>
W0NIM11bQ0hdKFtDSDNdKVtDSDJdT0MoPU8pW05IXVtDQEBIXShbQ0hdMVtDSDJdW0NIMl1bQ0gyXVtDSDJdW0NIMl0xKUMoPU8pW05IXU4oW0NIMl1bQ0hdMltDSDJdW0NIMl0yKUMoPU8pW05IXVtDQEBIXShbQ0gyXVtDSF0zW0NIMl1bQ0gyXTMpW0NAQEhdKFtPSF0pQyg9TylbTkhdW0NIMl1DKD1PKVtOSF1bQ0BIXShDKD1PKVtPSF0pYzRbY0hdW2NIXVtjSF1bY0hdW2NIXTQ=

> <s_epik_cmdline>
J2VwaWtfYXBwJywgJy1pbWFlJywgJ2xpZ2FuZF9wcm8ubWFlJywgJy1vbWFlJywgJ2xpZ2FuZF9wcmVwLm1hZScsICctbXMnLCAnMScsICctcGgnLCAnNycsICctcGh0JywgJzAuNScsICctbnQn

> <r_lp_tautomer_probability>
1

> <r_epik_Ionization_Penalty>
  0.0002

> <r_epik_Ionization_Penalty_Charging>
  0.0001

> <r_epik_Ionization_Penalty_Neutral>
  0.0001

> <r_epik_State_Penalty>
 -0.0000

> <r_epik_Charging_Adjusted_Penalty>
7.78993072182295e-05

> <i_epik_Tot_Q>
-1

> <i_epik_Tot_abs_Q>
1

> <s_epik_Chemistry_Notes>
This compound has an ester and may undergo hydrolysis at high or low pH.

$$$$
