2fah_ligand
                    3D
 Schrodinger Suite 2020-3.
  9  8  0  0  1  0            999 V2000
   20.6440   47.5890    2.4790 C   0  0  0  0  0  0
   21.1060   48.0250    1.4000 O   0  5  0  0  0  0
   19.4400   47.3110    2.6570 O   0  0  0  0  0  0
   21.5890   47.3790    3.6350 C   0  0  0  0  0  0
   22.6750   46.4360    3.1960 C   0  0  0  0  0  0
   22.3550   45.2520    2.9600 O   0  0  0  0  0  0
   23.8420   46.8740    3.0830 O   0  5  0  0  0  0
   22.0260   48.3440    3.9313 H   0  0  0  0  0  0
   21.0388   46.9493    4.4850 H   0  0  0  0  0  0
  1  2  1  0  0  0
  1  3  2  0  0  0
  1  4  1  0  0  0
  4  5  1  0  0  0
  4  8  1  0  0  0
  4  9  1  0  0  0
  5  6  2  0  0  0
  5  7  1  0  0  0
M  CHG  2   2  -1   7  -1
M  END
> <s_m_source_file>
../2fah_ligand.sdf

> <i_m_source_file_index>
1

> <s_epik_input>
W09IXUMoPU8pW0NIMl1DKD1PKVtPSF0=

> <s_epik_cmdline>
J2VwaWtfYXBwJywgJy1pbWFlJywgJ2xpZ2FuZF9wcm8ubWFlJywgJy1vbWFlJywgJ2xpZ2FuZF9wcmVwLm1hZScsICctbXMnLCAnMScsICctcGgnLCAnNycsICctcGh0JywgJzAuNScsICctbnQn

> <r_epik_Ionization_Penalty>
  0.0207

> <r_epik_Ionization_Penalty_Charging>
  0.0207

> <r_epik_Ionization_Penalty_Neutral>
  0.0000

> <r_epik_State_Penalty>
  0.0166

> <r_epik_Charging_Adjusted_Penalty>
0.0372279035317034

> <i_epik_Tot_Q>
-2

> <i_epik_Tot_abs_Q>
2

$$$$
