2fai_ligand
                    3D
 Schrodinger Suite 2020-3.
 42 44  0  0  1  0            999 V2000
    3.6660    0.2770   -3.0930 C   0  0  0  0  0  0
    3.9640   -0.4210   -4.4090 C   0  0  2  0  0  0
    5.4600   -0.4160   -4.7500 C   0  0  1  0  0  0
    5.5760   -1.4260   -5.8560 C   0  0  0  0  0  0
    6.7550   -2.4130   -5.8780 C   0  0  0  0  0  0
    4.5540   -1.4350   -6.8140 C   0  0  0  0  0  0
    3.4280   -0.5890   -6.8690 C   0  0  0  0  0  0
    3.2010    0.2170   -5.5720 C   0  0  1  0  0  0
    1.7120    0.3400   -5.2700 C   0  0  0  0  0  0
    1.3190   -0.6960   -4.3670 O   0  0  0  0  0  0
    3.7370    1.6170   -5.7650 C   0  0  0  0  0  0
    5.0690    1.4540   -6.2780 O   0  0  0  0  0  0
    5.9280    0.9750   -5.2420 C   0  0  2  0  0  0
    7.3800    1.0900   -5.7800 C   0  0  0  0  0  0
    7.7380    0.7920   -7.1010 C   0  0  0  0  0  0
    9.0780    0.9200   -7.5080 C   0  0  0  0  0  0
   10.0410    1.3690   -6.6040 C   0  0  0  0  0  0
   11.3500    1.5310   -6.9570 O   0  0  0  0  0  0
    9.6670    1.6780   -5.3040 C   0  0  0  0  0  0
    8.3500    1.5390   -4.9020 C   0  0  0  0  0  0
    4.2312   -0.2089   -2.2840 H   0  0  0  0  0  0
    2.5891    0.2112   -2.8787 H   0  0  0  0  0  0
    3.9620    1.3341   -3.1634 H   0  0  0  0  0  0
    3.6276   -1.4581   -4.2636 H   0  0  0  0  0  0
    6.0878   -0.6748   -3.8847 H   0  0  0  0  0  0
    7.4214   -2.2072   -5.0274 H   0  0  0  0  0  0
    7.3137   -2.2958   -6.8183 H   0  0  0  0  0  0
    6.3732   -3.4420   -5.8041 H   0  0  0  0  0  0
    4.5801   -2.1618   -7.6393 H   0  0  0  0  0  0
    3.5521    0.1337   -7.6889 H   0  0  0  0  0  0
    2.5248   -1.1917   -7.0451 H   0  0  0  0  0  0
    1.5104    1.3198   -4.8124 H   0  0  0  0  0  0
    1.1394    0.2471   -6.2046 H   0  0  0  0  0  0
    0.2732   -0.7673   -4.0334 H   0  0  0  0  0  0
    3.0973    2.1597   -6.4765 H   0  0  0  0  0  0
    3.7412    2.1444   -4.7997 H   0  0  0  0  0  0
    5.8261    1.6246   -4.3601 H   0  0  0  0  0  0
    6.9801    0.4618   -7.8115 H   0  0  0  0  0  0
    9.3641    0.6685   -8.5293 H   0  0  0  0  0  0
   11.6770    1.2944   -7.9803 H   0  0  0  0  0  0
   10.4151    2.0324   -4.5949 H   0  0  0  0  0  0
    8.0728    1.7872   -3.8775 H   0  0  0  0  0  0
  1  2  1  0  0  0
  1 21  1  0  0  0
  1 22  1  0  0  0
  1 23  1  0  0  0
  2  3  1  0  0  0
  2  8  1  0  0  0
  2 24  1  0  0  0
  3  4  1  0  0  0
  3 13  1  0  0  0
  3 25  1  0  0  0
  4  5  1  0  0  0
  4  6  2  0  0  0
  5 26  1  0  0  0
  5 27  1  0  0  0
  5 28  1  0  0  0
  6  7  1  0  0  0
  6 29  1  0  0  0
  7  8  1  0  0  0
  7 30  1  0  0  0
  7 31  1  0  0  0
  8  9  1  0  0  0
  8 11  1  0  0  0
  9 10  1  0  0  0
  9 32  1  0  0  0
  9 33  1  0  0  0
 10 34  1  0  0  0
 11 12  1  0  0  0
 11 35  1  0  0  0
 11 36  1  0  0  0
 12 13  1  0  0  0
 13 14  1  0  0  0
 13 37  1  0  0  0
 14 15  2  0  0  0
 14 20  1  0  0  0
 15 16  1  0  0  0
 15 38  1  0  0  0
 16 17  2  0  0  0
 16 39  1  0  0  0
 17 18  1  0  0  0
 17 19  1  0  0  0
 18 40  1  0  0  0
 19 20  2  0  0  0
 19 41  1  0  0  0
 20 42  1  0  0  0
M  END
> <s_m_source_file>
../2fai_ligand.sdf

> <i_m_source_file_index>
1

> <s_epik_input>
W09IXVtDSDJdW0NAQF0xMltDQEhdKFtDSDNdKVtDQEBIXShDKFtDSDNdKT1bQ0hdW0NIMl0xKVtDQEhdKE9bQ0gyXTIpYzNbY0hdW2NIXWMoW09IXSlbY0hdW2NIXTM=

> <s_epik_cmdline>
J2VwaWtfYXBwJywgJy1pbWFlJywgJ2xpZ2FuZF9wcm8ubWFlJywgJy1vbWFlJywgJ2xpZ2FuZF9wcmVwLm1hZScsICctbXMnLCAnMScsICctcGgnLCAnNycsICctcGh0JywgJzAuNScsICctbnQn

> <r_lp_tautomer_probability>
1

> <r_epik_Ionization_Penalty>
  0.0010

> <r_epik_Ionization_Penalty_Charging>
  0.0000

> <r_epik_Ionization_Penalty_Neutral>
  0.0010

> <r_epik_State_Penalty>
 -0.0000

> <r_epik_Charging_Adjusted_Penalty>
0

> <i_epik_Tot_Q>
0

> <i_epik_Tot_abs_Q>
0

$$$$
