2fb8_ligand
                    3D
 Schrodinger Suite 2020-3.
 63 67  0  0  1  0            999 V2000
  -40.2150   28.1860   -1.2220 C   0  0  0  0  0  0
  -40.0400   30.3740   -1.0660 C   0  0  0  0  0  0
  -40.3950   31.8590   -1.0180 C   0  0  0  0  0  0
  -41.7370   32.3100   -0.9810 C   0  0  0  0  0  0
  -41.1560   37.0120    0.2430 C   0  0  0  0  0  0
  -41.9050   22.3800   -0.0430 C   0  0  0  0  0  0
  -42.5880   22.9610   -1.2680 C   0  0  0  0  0  0
  -44.0520   22.6690   -3.0790 O   0  0  0  0  0  0
  -43.4000   22.2460   -1.9310 N   0  0  0  0  0  0
  -40.9450   23.4730    0.4440 C   0  0  0  0  0  0
  -41.1920   24.6410   -0.5050 C   0  0  0  0  0  0
  -40.5810   25.8900   -0.4460 C   0  0  0  0  0  0
  -42.1260   24.3710   -1.4790 C   0  0  0  0  0  0
  -42.4830   25.3530   -2.4220 C   0  0  0  0  0  0
  -41.8510   26.6170   -2.3630 C   0  0  0  0  0  0
  -40.8810   26.8680   -1.3890 C   0  0  0  0  0  0
  -38.8780   28.4470   -0.9090 C   0  0  0  0  0  0
  -37.7210   27.4730   -0.6630 C   0  0  0  0  0  0
  -37.7670   26.1150   -1.0170 C   0  0  0  0  0  0
  -36.7040   25.2790   -0.7270 C   0  0  0  0  0  0
  -35.6290   25.7380   -0.0900 N   0  3  0  0  0  0
  -35.5430   27.0090    0.2830 C   0  0  0  0  0  0
  -36.5820   27.8980    0.0210 C   0  0  0  0  0  0
  -40.8830   29.3550   -1.3000 N   0  3  0  0  0  0
  -38.8260   29.7950   -0.8210 N   0  0  0  0  0  0
  -42.0980   33.6850   -0.9090 C   0  0  0  0  0  0
  -41.0950   34.6630   -0.8070 C   0  0  0  0  0  0
  -39.7560   34.1980   -0.8300 C   0  0  0  0  0  0
  -39.4040   32.8330   -0.9160 C   0  0  0  0  0  0
  -41.3980   36.0270   -0.7640 O   0  0  0  0  0  0
  -42.3800   37.9000    0.0650 C   0  0  0  0  0  0
  -43.6490   37.3560    0.6590 N   0  3  0  0  0  0
  -44.5760   36.5610   -0.2100 C   0  0  0  0  0  0
  -43.3550   36.6260    1.9160 C   0  0  0  0  0  0
  -42.5337   31.5666   -1.0091 H   0  0  0  0  0  0
  -41.1025   36.5243    1.2275 H   0  0  0  0  0  0
  -40.2045   37.5231    0.0348 H   0  0  0  0  0  0
  -42.6611   22.1393    0.7188 H   0  0  0  0  0  0
  -41.3638   21.4646   -0.3245 H   0  0  0  0  0  0
  -44.7433   21.9907   -3.6005 H   0  0  0  0  0  0
  -41.1825   23.7317    1.4864 H   0  0  0  0  0  0
  -39.9100   23.1053    0.3842 H   0  0  0  0  0  0
  -39.8620   26.1036    0.3449 H   0  0  0  0  0  0
  -43.2333   25.1431   -3.1843 H   0  0  0  0  0  0
  -42.1205   27.3951   -3.0771 H   0  0  0  0  0  0
  -38.6462   25.7170   -1.5237 H   0  0  0  0  0  0
  -36.7470   24.2311   -1.0238 H   0  0  0  0  0  0
  -34.6498   27.3603    0.7997 H   0  0  0  0  0  0
  -36.5048   28.9334    0.3527 H   0  0  0  0  0  0
  -43.1477   33.9776   -0.9329 H   0  0  0  0  0  0
  -38.9541   34.9344   -0.7785 H   0  0  0  0  0  0
  -38.3540   32.5407   -0.9025 H   0  0  0  0  0  0
  -42.1993   38.8737    0.5438 H   0  0  0  0  0  0
  -42.5721   38.0490   -1.0078 H   0  0  0  0  0  0
  -44.2383   38.2650    0.8499 H   0  0  0  0  0  0
  -44.7805   37.1196   -1.1353 H   0  0  0  0  0  0
  -45.5194   36.3829    0.3269 H   0  0  0  0  0  0
  -44.1084   35.5971   -0.4594 H   0  0  0  0  0  0
  -42.6743   37.2260    2.5378 H   0  0  0  0  0  0
  -42.8808   35.6624    1.6781 H   0  0  0  0  0  0
  -44.2918   36.4482    2.4644 H   0  0  0  0  0  0
  -34.7924   25.0604    0.1358 H   0  0  0  0  0  0
  -41.9592   29.3594   -1.5278 H   0  0  0  0  0  0
  1 16  1  0  0  0
  1 17  2  0  0  0
  1 24  1  0  0  0
  2  3  1  0  0  0
  2 24  2  0  0  0
  2 25  1  0  0  0
  3  4  2  0  0  0
  3 29  1  0  0  0
  4 26  1  0  0  0
  4 35  1  0  0  0
  5 30  1  0  0  0
  5 31  1  0  0  0
  5 36  1  0  0  0
  5 37  1  0  0  0
  6  7  1  0  0  0
  6 10  1  0  0  0
  6 38  1  0  0  0
  6 39  1  0  0  0
  7  9  2  0  0  0
  7 13  1  0  0  0
  8  9  1  0  0  0
  8 40  1  0  0  0
 10 11  1  0  0  0
 10 41  1  0  0  0
 10 42  1  0  0  0
 11 12  2  0  0  0
 11 13  1  0  0  0
 12 16  1  0  0  0
 12 43  1  0  0  0
 13 14  2  0  0  0
 14 15  1  0  0  0
 14 44  1  0  0  0
 15 16  2  0  0  0
 15 45  1  0  0  0
 17 18  1  0  0  0
 17 25  1  0  0  0
 18 19  2  0  0  0
 18 23  1  0  0  0
 19 20  1  0  0  0
 19 46  1  0  0  0
 20 21  2  0  0  0
 20 47  1  0  0  0
 21 22  1  0  0  0
 21 62  1  0  0  0
 22 23  2  0  0  0
 22 48  1  0  0  0
 23 49  1  0  0  0
 24 63  1  0  0  0
 26 27  2  0  0  0
 26 50  1  0  0  0
 27 28  1  0  0  0
 27 30  1  0  0  0
 28 29  2  0  0  0
 28 51  1  0  0  0
 29 52  1  0  0  0
 31 32  1  0  0  0
 31 53  1  0  0  0
 31 54  1  0  0  0
 32 33  1  0  0  0
 32 34  1  0  0  0
 32 55  1  0  0  0
 33 56  1  0  0  0
 33 57  1  0  0  0
 33 58  1  0  0  0
 34 59  1  0  0  0
 34 60  1  0  0  0
 34 61  1  0  0  0
M  CHG  3  21   1  24   1  32   1
M  END
> <s_m_source_file>
../2fb8_ligand.sdf

> <i_m_source_file_index>
1

> <s_epik_input>
W09IXVxOPUMoXFtDSDJdW0NIMl0xKWMoYzEyKVtjSF1bY0hdYyhbY0hdMiktYzNjKC1jNFtjSF1bY0hdbltjSF1bY0hdNClbbkhdYyhuMyktYzVbY0hdW2NIXWMoW2NIXVtjSF01KU9bQ0gyXVtDSDJdW05IK10oW0NIM10pW0NIM10=

> <s_epik_cmdline>
J2VwaWtfYXBwJywgJy1pbWFlJywgJ2xpZ2FuZF9wcm8ubWFlJywgJy1vbWFlJywgJ2xpZ2FuZF9wcmVwLm1hZScsICctbXMnLCAnMScsICctcGgnLCAnNycsICctcGh0JywgJzAuNScsICctbnQn

> <r_epik_Ionization_Penalty>
  3.7470

> <r_epik_Ionization_Penalty_Charging>
  3.7217

> <r_epik_Ionization_Penalty_Neutral>
  0.0252

> <r_epik_State_Penalty>
  0.0106

> <r_epik_Charging_Adjusted_Penalty>
3.73229541815322

> <i_epik_Tot_Q>
3

> <i_epik_Tot_abs_Q>
3

> <s_epik_Chemistry_Notes>
This compound has an imine and may undergo hydrolysis.

$$$$
