2fci_ligand
                    3D
 Schrodinger Suite 2020-3.
214217  0  0  1  0            999 V2000
    9.2710   -8.2010  -13.0800 C   0  0  0  0  0  0
   10.1850   -8.6430  -13.7380 O   0  0  0  0  0  0
    8.4620   -9.1280  -12.1600 C   0  0  0  0  0  0
    8.9180   -6.9310  -13.1260 N   0  0  0  0  0  0
    9.6290   -5.9240  -13.9820 C   0  0  2  0  0  0
    9.0360   -4.5390  -13.6520 C   0  0  0  0  0  0
    8.8460   -4.2590  -12.4890 O   0  0  0  0  0  0
    9.4100   -6.3800  -15.4470 C   0  0  0  0  0  0
   10.3410   -5.6030  -16.3850 C   0  0  0  0  0  0
   11.5270   -5.8820  -16.4090 O   0  0  0  0  0  0
    9.8220   -4.7570  -17.0880 O   0  0  0  0  0  0
    8.7550   -3.6680  -14.6260 N   0  0  0  0  0  0
    8.1750   -2.2980  -14.2740 C   0  0  2  0  0  0
    6.6490   -2.1870  -14.4640 C   0  0  0  0  0  0
    6.0900   -1.2440  -13.9900 O   0  0  0  0  0  0
    8.8720   -1.2390  -15.1380 C   0  0  2  0  0  0
    8.3520   -1.2560  -16.4640 O   0  0  0  0  0  0
   10.3730   -1.4700  -15.1390 C   0  0  0  0  0  0
    5.9630   -3.1140  -15.1200 N   0  0  0  0  0  0
    4.4640   -2.9440  -15.2590 C   0  0  2  0  0  0
    3.7160   -4.2910  -15.4670 C   0  0  0  0  0  0
    3.0310   -4.4700  -16.4600 O   0  0  0  0  0  0
    4.3330   -2.0330  -16.4830 C   0  0  0  0  0  0
    4.1330   -0.5700  -16.0310 C   0  0  0  0  0  0
    2.6730   -0.3060  -15.6590 C   0  0  0  0  0  0
    1.9890   -1.2390  -15.2780 O   0  0  0  0  0  0
    2.2560    0.8330  -15.7740 O   0  0  0  0  0  0
    3.8100   -5.2440  -14.5420 N   0  0  0  0  0  0
    3.0660   -6.5380  -14.7460 C   0  0  2  0  0  0
    3.0600   -7.4860  -13.4910 C   0  0  0  0  0  0
    3.8960   -8.3530  -13.3420 O   0  0  0  0  0  0
    3.7620   -7.1770  -15.9980 C   0  0  0  0  0  0
    4.9860   -8.0270  -15.6240 C   0  0  0  0  0  0
    2.7630   -8.0470  -16.7710 C   0  0  0  0  0  0
    2.0620   -7.3790  -12.6140 N   0  0  0  0  0  0
    1.9700   -8.3530  -11.4490 C   0  0  2  0  0  0
    0.5750   -9.0300  -11.4420 C   0  0  0  0  0  0
   -0.1010   -9.0750  -12.4520 O   0  0  0  0  0  0
    2.1650   -7.6310  -10.0960 C   0  0  0  0  0  0
    2.6020   -6.1900  -10.1950 C   0  0  0  0  0  0
    3.9590   -5.8680  -10.1800 C   0  0  0  0  0  0
    1.6390   -5.1750  -10.2020 C   0  0  0  0  0  0
    4.3590   -4.5260  -10.1690 C   0  0  0  0  0  0
    2.0370   -3.8370  -10.2080 C   0  0  0  0  0  0
    3.3990   -3.5100  -10.1860 C   0  0  0  0  0  0
    3.7860   -2.1780  -10.1670 O   0  0  0  0  0  0
    4.8540   -1.6840  -11.1930 P   0  0  0  0  0  0
    5.9200   -0.9830  -10.3100 O   0  0  0  0  0  0
    4.1010   -0.6020  -12.0000 O   0  0  0  0  0  0
    5.3570   -2.9450  -12.0160 O   0  0  0  0  0  0
    0.1370   -9.5450  -10.2980 N   0  0  0  0  0  0
   -1.2160  -10.2040  -10.2230 C   0  0  2  0  0  0
   -1.8300  -10.1050   -8.8000 C   0  0  0  0  0  0
   -2.8390   -9.4680   -8.6160 O   0  0  0  0  0  0
   -0.9750  -11.6660  -10.6210 C   0  0  0  0  0  0
   -2.2030  -12.1850  -11.3860 C   0  0  0  0  0  0
   -3.4070  -12.2800  -10.4440 C   0  0  0  0  0  0
   -3.2830  -12.9260   -9.4110 O   0  0  0  0  0  0
   -4.4350  -11.7000  -10.7750 O   0  0  0  0  0  0
   -1.2430  -10.7350   -7.7990 N   0  0  0  0  0  0
   -1.8370  -10.6680   -6.4130 C   0  0  2  0  0  0
   -0.9810   -9.7790   -5.4780 C   0  0  0  0  0  0
    0.1370  -10.1300   -5.1470 O   0  0  0  0  0  0
   -1.8770  -12.1220   -5.9480 C   0  0  0  0  0  0
   -3.1120  -12.7020   -6.3610 O   0  0  0  0  0  0
   -1.5290   -8.6170   -5.1330 N   0  0  0  0  0  0
   -0.8000   -7.6130   -4.2940 C   0  0  2  0  0  0
   -0.9150   -7.8590   -2.7580 C   0  0  0  0  0  0
   -0.4520   -8.8630   -2.2530 O   0  0  0  0  0  0
   -1.4540   -6.2920   -4.7310 C   0  0  0  0  0  0
   -2.8290   -6.6500   -5.2140 C   0  0  0  0  0  0
   -2.8660   -8.1360   -5.4910 C   0  0  0  0  0  0
   -1.4730   -6.9260   -2.0060 N   0  0  0  0  0  0
   -1.5540   -7.0880   -0.5190 C   0  0  2  0  0  0
   -2.9820   -7.4260   -0.0790 C   0  0  0  0  0  0
   -3.8620   -6.5880   -0.0860 O   0  0  0  0  0  0
   -1.1230   -5.7260    0.0240 C   0  0  0  0  0  0
    0.3040   -5.8060    0.5040 C   0  0  0  0  0  0
    0.5730   -6.3400    1.7590 C   0  0  0  0  0  0
    1.3510   -5.3330   -0.2920 C   0  0  0  0  0  0
    1.8820   -6.4060    2.2340 C   0  0  0  0  0  0
    2.6700   -5.4030    0.1790 C   0  0  0  0  0  0
    2.9370   -5.9390    1.4450 C   0  0  0  0  0  0
    4.2400   -5.9930    1.9130 O   0  0  0  0  0  0
    4.7860   -7.3080    2.5650 P   0  0  0  0  0  0
    6.1390   -7.5220    1.8520 O   0  0  0  0  0  0
    3.8170   -8.4350    2.1100 O   0  0  0  0  0  0
    4.8670   -7.0710    4.1360 O   0  0  0  0  0  0
   -3.2120   -8.6610    0.2750 N   0  0  0  0  0  0
   -4.5860   -9.0950    0.6760 C   0  0  2  0  0  0
   -4.7630   -9.2720    2.2030 C   0  0  0  0  0  0
   -5.8200   -8.9740    2.7330 O   0  0  0  0  0  0
   -4.7550  -10.4370   -0.0390 C   0  0  0  0  0  0
   -3.7800   -9.7850    2.9080 N   0  0  0  0  0  0
   -3.9630  -10.0110    4.3850 C   0  0  2  0  0  0
   -3.0870   -9.0820    5.2370 C   0  0  0  0  0  0
   -2.0500   -8.6250    4.7890 O   0  0  0  0  0  0
   -3.4970  -11.4600    4.6430 C   0  0  0  0  0  0
   -3.9920  -12.4150    3.5560 C   0  0  0  0  0  0
   -5.0720  -12.9570    3.7170 O   0  0  0  0  0  0
   -3.2670  -12.6040    2.5910 O   0  0  0  0  0  0
   -3.4880   -8.9060    6.4830 N   0  0  0  0  0  0
   -2.6600   -8.1190    7.4260 C   0  0  2  0  0  0
   -1.4220   -8.9820    7.7270 C   0  0  0  0  0  0
   -1.4030  -10.1540    7.3920 O   0  0  0  0  0  0
   -3.5650   -7.9400    8.6520 C   0  0  0  0  0  0
   -4.5340   -9.0810    8.5850 C   0  0  0  0  0  0
   -4.7130   -9.4220    7.1230 C   0  0  0  0  0  0
   -0.3810   -8.4540    8.3120 N   0  0  0  0  0  0
    0.8220   -9.3190    8.5580 C   0  0  2  0  0  0
    0.4730  -10.5450    9.4210 C   0  0  0  0  0  0
    0.6360  -11.6720    9.0000 O   0  0  0  0  0  0
    1.8430   -8.4440    9.2810 C   0  0  0  0  0  0
    3.0390   -9.3230    9.6900 C   0  0  0  0  0  0
    3.8900   -9.7030    8.4680 C   0  0  0  0  0  0
    5.0610   -9.9720    8.6630 O   0  0  0  0  0  0
    3.3650   -9.7340    7.3610 O   0  0  0  0  0  0
    0.0350  -10.3710   10.6340 N   0  0  0  0  0  0
    8.8654  -10.1495  -12.2223 H   0  0  0  0  0  0
    7.4084   -9.1299  -12.4761 H   0  0  0  0  0  0
    8.5330   -8.7683  -11.1229 H   0  0  0  0  0  0
    8.0658   -6.6201  -12.5039 H   0  0  0  0  0  0
   10.7096   -5.8687  -13.7840 H   0  0  0  0  0  0
    9.6264   -7.4551  -15.5326 H   0  0  0  0  0  0
    8.3658   -6.1919  -15.7374 H   0  0  0  0  0  0
   12.2076   -5.3335  -17.0767 H   0  0  0  0  0  0
    8.9394   -3.9335  -15.6774 H   0  0  0  0  0  0
    8.3650   -2.1454  -13.2013 H   0  0  0  0  0  0
    8.6513   -0.2232  -14.7782 H   0  0  0  0  0  0
    7.2762   -1.1030  -16.6349 H   0  0  0  0  0  0
   10.7474   -1.4520  -14.1048 H   0  0  0  0  0  0
   10.8656   -0.6773  -15.7212 H   0  0  0  0  0  0
   10.5931   -2.4481  -15.5917 H   0  0  0  0  0  0
    6.4599   -3.9920  -15.5583 H   0  0  0  0  0  0
    4.0259   -2.5158  -14.3454 H   0  0  0  0  0  0
    5.2467   -2.1028  -17.0915 H   0  0  0  0  0  0
    3.4673   -2.3484  -17.0839 H   0  0  0  0  0  0
    4.7630   -0.3684  -15.1521 H   0  0  0  0  0  0
    4.4169    0.1086  -16.8489 H   0  0  0  0  0  0
    1.2119    1.0650  -15.5170 H   0  0  0  0  0  0
    4.4201   -5.0969  -13.6386 H   0  0  0  0  0  0
    1.9989   -6.3200  -14.9000 H   0  0  0  0  0  0
    4.1180   -6.3599  -16.6427 H   0  0  0  0  0  0
    5.7065   -7.4081  -15.0691 H   0  0  0  0  0  0
    5.4603   -8.4097  -16.5398 H   0  0  0  0  0  0
    4.6676   -8.8717  -14.9954 H   0  0  0  0  0  0
    1.8840   -7.4436  -17.0417 H   0  0  0  0  0  0
    2.4479   -8.8916  -16.1407 H   0  0  0  0  0  0
    3.2406   -8.4297  -17.6850 H   0  0  0  0  0  0
    1.3059   -6.5887  -12.7312 H   0  0  0  0  0  0
    2.7729   -9.0915  -11.5903 H   0  0  0  0  0  0
    1.2164   -7.6334   -9.5391 H   0  0  0  0  0  0
    2.9357   -8.1528   -9.5097 H   0  0  0  0  0  0
    4.7076   -6.6603  -10.1768 H   0  0  0  0  0  0
    0.5790   -5.4288  -10.2028 H   0  0  0  0  0  0
    5.4191   -4.2736  -10.1472 H   0  0  0  0  0  0
    1.2874   -3.0460  -10.2298 H   0  0  0  0  0  0
    5.6452   -0.1023   -9.7110 H   0  0  0  0  0  0
    5.9002   -3.7539  -11.5055 H   0  0  0  0  0  0
    0.7711   -9.4873   -9.4010 H   0  0  0  0  0  0
   -1.9179   -9.6997  -10.9035 H   0  0  0  0  0  0
   -0.0840  -11.7291  -11.2630 H   0  0  0  0  0  0
   -0.8185  -12.2714   -9.7160 H   0  0  0  0  0  0
   -2.4413  -11.4946  -12.2086 H   0  0  0  0  0  0
   -1.9852  -13.1823  -11.7958 H   0  0  0  0  0  0
   -5.3233  -11.7424  -10.1275 H   0  0  0  0  0  0
   -0.3211  -11.3087   -7.9751 H   0  0  0  0  0  0
   -2.8407  -10.2181   -6.4230 H   0  0  0  0  0  0
   -1.0375  -12.6736   -6.3964 H   0  0  0  0  0  0
   -1.7959  -12.1587   -4.8516 H   0  0  0  0  0  0
   -3.3343  -13.7520   -6.1201 H   0  0  0  0  0  0
    0.2826   -7.6643   -4.4819 H   0  0  0  0  0  0
   -1.5008   -5.6048   -3.8734 H   0  0  0  0  0  0
   -0.8572   -5.8356   -5.5345 H   0  0  0  0  0  0
   -3.5678   -6.3930   -4.4406 H   0  0  0  0  0  0
   -3.0517   -6.0901   -6.1343 H   0  0  0  0  0  0
   -3.0598   -8.3480   -6.5528 H   0  0  0  0  0  0
   -3.6177   -8.6475   -4.8718 H   0  0  0  0  0  0
   -1.8805   -6.0229   -2.4839 H   0  0  0  0  0  0
   -0.9167   -7.9132   -0.1683 H   0  0  0  0  0  0
   -1.2003   -4.9722   -0.7734 H   0  0  0  0  0  0
   -1.7766   -5.4417    0.8618 H   0  0  0  0  0  0
   -0.2457   -6.7099    2.3763 H   0  0  0  0  0  0
    1.1430   -4.9112   -1.2753 H   0  0  0  0  0  0
    2.0829   -6.8220    3.2213 H   0  0  0  0  0  0
    3.4891   -5.0395   -0.4415 H   0  0  0  0  0  0
    3.7023   -8.6630    1.0400 H   0  0  0  0  0  0
    5.5294   -6.2919    4.5413 H   0  0  0  0  0  0
   -2.3841   -9.3852    0.2767 H   0  0  0  0  0  0
   -5.3155   -8.3251    0.3843 H   0  0  0  0  0  0
   -4.6264  -10.2941   -1.1221 H   0  0  0  0  0  0
   -5.7606  -10.8352    0.1615 H   0  0  0  0  0  0
   -3.9995  -11.1465    0.3295 H   0  0  0  0  0  0
   -2.8276  -10.0489    2.4251 H   0  0  0  0  0  0
   -5.0142   -9.8084    4.6380 H   0  0  0  0  0  0
   -2.3977  -11.4941    4.6596 H   0  0  0  0  0  0
   -3.8891  -11.8044    5.6113 H   0  0  0  0  0  0
   -3.5868  -13.2838    1.7875 H   0  0  0  0  0  0
   -2.3316   -7.1432    7.0386 H   0  0  0  0  0  0
   -2.9550   -7.9773    9.5666 H   0  0  0  0  0  0
   -4.0762   -6.9679    8.5916 H   0  0  0  0  0  0
   -4.1272   -9.9404    9.1381 H   0  0  0  0  0  0
   -5.4910   -8.7761    9.0335 H   0  0  0  0  0  0
   -5.5919   -8.9252    6.6864 H   0  0  0  0  0  0
   -4.7846  -10.5070    6.9564 H   0  0  0  0  0  0
   -0.3727   -7.3989    8.6230 H   0  0  0  0  0  0
    1.2037   -9.6885    7.5948 H   0  0  0  0  0  0
    2.1800   -7.6417    8.6082 H   0  0  0  0  0  0
    1.3793   -8.0020   10.1752 H   0  0  0  0  0  0
    3.6718   -8.7729   10.4020 H   0  0  0  0  0  0
    2.6713  -10.2455   10.1631 H   0  0  0  0  0  0
    3.9612  -10.0042    6.4769 H   0  0  0  0  0  0
   -0.1156   -9.3534   11.0237 H   0  0  0  0  0  0
   -0.1846  -11.2415   11.2696 H   0  0  0  0  0  0
  1  2  2  0  0  0
  1  3  1  0  0  0
  1  4  1  0  0  0
  3119  1  0  0  0
  3120  1  0  0  0
  3121  1  0  0  0
  4  5  1  0  0  0
  4122  1  0  0  0
  5  6  1  0  0  0
  5  8  1  0  0  0
  5123  1  0  0  0
  6  7  2  0  0  0
  6 12  1  0  0  0
  8  9  1  0  0  0
  8124  1  0  0  0
  8125  1  0  0  0
  9 10  1  0  0  0
  9 11  2  0  0  0
 10126  1  0  0  0
 12 13  1  0  0  0
 12127  1  0  0  0
 13 14  1  0  0  0
 13 16  1  0  0  0
 13128  1  0  0  0
 14 15  2  0  0  0
 14 19  1  0  0  0
 16 17  1  0  0  0
 16 18  1  0  0  0
 16129  1  0  0  0
 17130  1  0  0  0
 18131  1  0  0  0
 18132  1  0  0  0
 18133  1  0  0  0
 19 20  1  0  0  0
 19134  1  0  0  0
 20 21  1  0  0  0
 20 23  1  0  0  0
 20135  1  0  0  0
 21 22  2  0  0  0
 21 28  1  0  0  0
 23 24  1  0  0  0
 23136  1  0  0  0
 23137  1  0  0  0
 24 25  1  0  0  0
 24138  1  0  0  0
 24139  1  0  0  0
 25 26  2  0  0  0
 25 27  1  0  0  0
 27140  1  0  0  0
 28 29  1  0  0  0
 28141  1  0  0  0
 29 30  1  0  0  0
 29 32  1  0  0  0
 29142  1  0  0  0
 30 31  2  0  0  0
 30 35  1  0  0  0
 32 33  1  0  0  0
 32 34  1  0  0  0
 32143  1  0  0  0
 33144  1  0  0  0
 33145  1  0  0  0
 33146  1  0  0  0
 34147  1  0  0  0
 34148  1  0  0  0
 34149  1  0  0  0
 35 36  1  0  0  0
 35150  1  0  0  0
 36 37  1  0  0  0
 36 39  1  0  0  0
 36151  1  0  0  0
 37 38  2  0  0  0
 37 51  1  0  0  0
 39 40  1  0  0  0
 39152  1  0  0  0
 39153  1  0  0  0
 40 41  2  0  0  0
 40 42  1  0  0  0
 41 43  1  0  0  0
 41154  1  0  0  0
 42 44  2  0  0  0
 42155  1  0  0  0
 43 45  2  0  0  0
 43156  1  0  0  0
 44 45  1  0  0  0
 44157  1  0  0  0
 45 46  1  0  0  0
 46 47  1  0  0  0
 47 48  1  0  0  0
 47 49  2  0  0  0
 47 50  1  0  0  0
 48158  1  0  0  0
 50159  1  0  0  0
 51 52  1  0  0  0
 51160  1  0  0  0
 52 53  1  0  0  0
 52 55  1  0  0  0
 52161  1  0  0  0
 53 54  2  0  0  0
 53 60  1  0  0  0
 55 56  1  0  0  0
 55162  1  0  0  0
 55163  1  0  0  0
 56 57  1  0  0  0
 56164  1  0  0  0
 56165  1  0  0  0
 57 58  2  0  0  0
 57 59  1  0  0  0
 59166  1  0  0  0
 60 61  1  0  0  0
 60167  1  0  0  0
 61 62  1  0  0  0
 61 64  1  0  0  0
 61168  1  0  0  0
 62 63  2  0  0  0
 62 66  1  0  0  0
 64 65  1  0  0  0
 64169  1  0  0  0
 64170  1  0  0  0
 65171  1  0  0  0
 66 67  1  0  0  0
 66 72  1  0  0  0
 67 68  1  0  0  0
 67 70  1  0  0  0
 67172  1  0  0  0
 68 69  2  0  0  0
 68 73  1  0  0  0
 70 71  1  0  0  0
 70173  1  0  0  0
 70174  1  0  0  0
 71 72  1  0  0  0
 71175  1  0  0  0
 71176  1  0  0  0
 72177  1  0  0  0
 72178  1  0  0  0
 73 74  1  0  0  0
 73179  1  0  0  0
 74 75  1  0  0  0
 74 77  1  0  0  0
 74180  1  0  0  0
 75 76  2  0  0  0
 75 89  1  0  0  0
 77 78  1  0  0  0
 77181  1  0  0  0
 77182  1  0  0  0
 78 79  2  0  0  0
 78 80  1  0  0  0
 79 81  1  0  0  0
 79183  1  0  0  0
 80 82  2  0  0  0
 80184  1  0  0  0
 81 83  2  0  0  0
 81185  1  0  0  0
 82 83  1  0  0  0
 82186  1  0  0  0
 83 84  1  0  0  0
 84 85  1  0  0  0
 85 86  2  0  0  0
 85 87  1  0  0  0
 85 88  1  0  0  0
 87187  1  0  0  0
 88188  1  0  0  0
 89 90  1  0  0  0
 89189  1  0  0  0
 90 91  1  0  0  0
 90 93  1  0  0  0
 90190  1  0  0  0
 91 92  2  0  0  0
 91 94  1  0  0  0
 93191  1  0  0  0
 93192  1  0  0  0
 93193  1  0  0  0
 94 95  1  0  0  0
 94194  1  0  0  0
 95 96  1  0  0  0
 95 98  1  0  0  0
 95195  1  0  0  0
 96 97  2  0  0  0
 96102  1  0  0  0
 98 99  1  0  0  0
 98196  1  0  0  0
 98197  1  0  0  0
 99100  2  0  0  0
 99101  1  0  0  0
101198  1  0  0  0
102103  1  0  0  0
102108  1  0  0  0
103104  1  0  0  0
103106  1  0  0  0
103199  1  0  0  0
104105  2  0  0  0
104109  1  0  0  0
106107  1  0  0  0
106200  1  0  0  0
106201  1  0  0  0
107108  1  0  0  0
107202  1  0  0  0
107203  1  0  0  0
108204  1  0  0  0
108205  1  0  0  0
109110  1  0  0  0
109206  1  0  0  0
110111  1  0  0  0
110113  1  0  0  0
110207  1  0  0  0
111112  2  0  0  0
111118  1  0  0  0
113114  1  0  0  0
113208  1  0  0  0
113209  1  0  0  0
114115  1  0  0  0
114210  1  0  0  0
114211  1  0  0  0
115116  2  0  0  0
115117  1  0  0  0
117212  1  0  0  0
118213  1  0  0  0
118214  1  0  0  0
M  END
> <s_m_source_file>
../2fci_ligand.sdf

> <i_m_source_file_index>
1

> <s_epik_input>
Tz1DKFtDSDNdKVtOSF1bQ0BASF0oW0NIMl1DKD1PKVtPSF0pQyg9TylbTkhdW0NAQEhdKFtDQEhdKFtPSF0pW0NIM10pQyg9TylbTkhdW0NAQEhdKFtDSDJdW0NIMl1DKD1PKVtPSF0pQyg9TylbTkhdW0NAQEhdKFtDSF0oW0NIM10pW0NIM10pQyg9TylbTkhdW0NAQEhdKFtDSDJdYzFbY0hdW2NIXWMoW2NIXVtjSF0xKU9QKD1PKShbT0hdKVtPSF0pQyg9TylbTkhdW0NAQEhdKFtDSDJdW0NIMl1DKD1PKVtPSF0pQyg9TylbTkhdW0NAQEhdKFtDSDJdW09IXSlDKD1PKU4yW0NAQEhdKFtDSDJdW0NIMl1bQ0gyXTIpQyg9TylbTkhdW0NAQEhdKFtDSDJdYzNbY0hdW2NIXWMoW2NIXVtjSF0zKU9QKD1PKShbT0hdKVtPSF0pQyg9TylbTkhdW0NAQEhdKFtDSDNdKUMoPU8pW05IXVtDQEBIXShbQ0gyXUMoPU8pW09IXSlDKD1PKU40W0NAQEhdKFtDSDJdW0NIMl1bQ0gyXTQpQyg9TylbTkhdW0NASF0oQyg9TylbTkgyXSlbQ0gyXVtDSDJdQyg9TylbT0hd

> <s_epik_cmdline>
J2VwaWtfYXBwJywgJy1pbWFlJywgJ2xpZ2FuZF9wcm8ubWFlJywgJy1vbWFlJywgJ2xpZ2FuZF9wcmVwLm1hZScsICctbXMnLCAnMScsICctcGgnLCAnNycsICctcGh0JywgJzAuNScsICctbnQn

> <s_epik_pKa_notes>
Molecule size exceeds maximum supported for generating protonation states

$$$$
