2fda_ligand
                    3D
 Schrodinger Suite 2020-3.
 54 54  0  0  1  0            999 V2000
   11.3030   51.2840   25.5070 C   0  0  1  0  0  0
   11.5590   51.4010   23.9880 C   0  0  1  0  0  0
   11.6850   52.5300   26.3190 C   0  0  0  0  0  0
   13.0080   53.5790   22.8310 O   0  0  0  0  0  0
   13.0130   51.5390   23.8060 N   0  0  0  0  0  0
    9.9130   51.0020   25.6330 O   0  0  0  0  0  0
   11.2060   50.1440   23.1490 C   0  0  0  0  0  0
   11.4300   50.2940   21.6390 C   0  0  0  0  0  0
   11.1000   48.9970   20.9160 C   0  0  0  0  0  0
   11.2880   49.2230   19.4740 N   0  0  0  0  0  0
   11.0960   48.3170   18.5030 C   0  0  0  0  0  0
   10.7100   47.0670   18.8040 N   0  0  0  0  0  0
   11.2880   48.6770   17.2270 N   0  3  0  0  0  0
   12.9140   52.7780   26.5970 N   0  0  0  0  0  0
   13.0170   53.9520   27.3360 C   0  0  0  0  0  0
   11.7820   54.5390   27.5760 C   0  0  0  0  0  0
   10.5020   53.6440   26.8940 S   0  0  0  0  0  0
   15.5300   53.1370   21.8290 N   0  0  0  0  0  0
   15.1510   52.5430   23.1250 C   0  0  2  0  0  0
   13.6240   52.6000   23.2470 C   0  0  0  0  0  0
   15.8330   53.2930   24.3010 C   0  0  0  0  0  0
   17.3180   52.9100   24.3910 C   0  0  0  0  0  0
   15.7410   54.8320   24.1610 C   0  0  0  0  0  0
   15.1390   52.7170   20.6050 C   0  0  0  0  0  0
   15.7000   53.5290   19.4360 N   0  0  0  0  0  0
   14.3890   51.7560   20.4190 O   0  0  0  0  0  0
   11.8777   50.4578   25.9510 H   0  0  0  0  0  0
   10.9699   52.2627   23.6408 H   0  0  0  0  0  0
   13.6876   50.7363   24.1385 H   0  0  0  0  0  0
    9.4776   50.1377   25.1102 H   0  0  0  0  0  0
   11.8259   49.2972   23.4786 H   0  0  0  0  0  0
   10.1433   49.8966   23.2885 H   0  0  0  0  0  0
   10.7820   51.0931   21.2498 H   0  0  0  0  0  0
   12.4826   50.5499   21.4481 H   0  0  0  0  0  0
   11.7719   48.2001   21.2675 H   0  0  0  0  0  0
   10.0572   48.7159   21.1247 H   0  0  0  0  0  0
   11.6149   50.2081   19.1097 H   0  0  0  0  0  0
   10.5539   46.7773   19.8536 H   0  0  0  0  0  0
   10.5498   46.3325   18.0010 H   0  0  0  0  0  0
   11.6043   49.7027   16.9866 H   0  0  0  0  0  0
   13.9624   54.3652   27.6876 H   0  0  0  0  0  0
   11.6467   55.4646   28.1355 H   0  0  0  0  0  0
   16.1961   54.0118   21.7987 H   0  0  0  0  0  0
   15.4982   51.4992   23.1235 H   0  0  0  0  0  0
   15.3025   52.9901   25.2158 H   0  0  0  0  0  0
   17.4097   51.8184   24.4913 H   0  0  0  0  0  0
   17.7701   53.3980   25.2671 H   0  0  0  0  0  0
   17.8375   53.2394   23.4791 H   0  0  0  0  0  0
   14.6847   55.1316   24.0946 H   0  0  0  0  0  0
   16.2702   55.1496   23.2505 H   0  0  0  0  0  0
   16.2028   55.3082   25.0385 H   0  0  0  0  0  0
   16.3672   54.3820   19.6289 H   0  0  0  0  0  0
   15.4361   53.2598   18.4026 H   0  0  0  0  0  0
   11.1294   47.9469   16.4197 H   0  0  0  0  0  0
  1  2  1  0  0  0
  1  3  1  0  0  0
  1  6  1  0  0  0
  1 27  1  0  0  0
  2  5  1  0  0  0
  2  7  1  0  0  0
  2 28  1  0  0  0
  3 14  2  0  0  0
  3 17  1  0  0  0
  4 20  2  0  0  0
  5 20  1  0  0  0
  5 29  1  0  0  0
  6 30  1  0  0  0
  7  8  1  0  0  0
  7 31  1  0  0  0
  7 32  1  0  0  0
  8  9  1  0  0  0
  8 33  1  0  0  0
  8 34  1  0  0  0
  9 10  1  0  0  0
  9 35  1  0  0  0
  9 36  1  0  0  0
 10 11  1  0  0  0
 10 37  1  0  0  0
 11 12  1  0  0  0
 11 13  2  0  0  0
 12 38  1  0  0  0
 12 39  1  0  0  0
 13 40  1  0  0  0
 13 54  1  0  0  0
 14 15  1  0  0  0
 15 16  2  0  0  0
 15 41  1  0  0  0
 16 17  1  0  0  0
 16 42  1  0  0  0
 18 19  1  0  0  0
 18 24  1  0  0  0
 18 43  1  0  0  0
 19 20  1  0  0  0
 19 21  1  0  0  0
 19 44  1  0  0  0
 21 22  1  0  0  0
 21 23  1  0  0  0
 21 45  1  0  0  0
 22 46  1  0  0  0
 22 47  1  0  0  0
 22 48  1  0  0  0
 23 49  1  0  0  0
 23 50  1  0  0  0
 23 51  1  0  0  0
 24 25  1  0  0  0
 24 26  2  0  0  0
 25 52  1  0  0  0
 25 53  1  0  0  0
M  CHG  1  13   1
M  END
> <s_m_source_file>
../2fda_ligand.sdf

> <i_m_source_file_index>
1

> <s_epik_input>
czFbY0hdW2NIXW5jMVtDQEBIXShbT0hdKVtDQEBIXShbTkhdQyg9TylbQ0BIXShbQ0hdKFtDSDNdKVtDSDNdKVtOSF1DKD1PKVtOSDJdKVtDSDJdW0NIMl1bQ0gyXVtOSF0vQyhbTkgyXSk9TlxbSF0=

> <s_epik_cmdline>
J2VwaWtfYXBwJywgJy1pbWFlJywgJ2xpZ2FuZF9wcm8ubWFlJywgJy1vbWFlJywgJ2xpZ2FuZF9wcmVwLm1hZScsICctbXMnLCAnMScsICctcGgnLCAnNycsICctcGh0JywgJzAuNScsICctbnQn

> <r_lp_tautomer_probability>
1

> <r_epik_Ionization_Penalty>
  0.0001

> <r_epik_Ionization_Penalty_Charging>
  0.0000

> <r_epik_Ionization_Penalty_Neutral>
  0.0001

> <r_epik_State_Penalty>
 -0.0000

> <r_epik_Charging_Adjusted_Penalty>
2.72528587278395e-06

> <i_epik_Tot_Q>
1

> <i_epik_Tot_abs_Q>
1

> <s_epik_Chemistry_Notes>
This compound has an imine and may undergo hydrolysis.

$$$$
