2fde_ligand
                    3D
 Schrodinger Suite 2020-3.
 89 94  0  0  1  0            999 V2000
  -20.7840   40.2900    5.8800 C   0  0  2  0  0  0
  -20.1510   39.6720    7.1090 C   0  0  1  0  0  0
  -21.7770   39.1960    5.3520 C   0  0  2  0  0  0
  -19.5520   40.7060    5.0210 C   0  0  0  0  0  0
  -21.0110   38.6200    7.5850 O   0  0  0  0  0  0
  -18.8470   39.1580    6.7230 O   0  0  0  0  0  0
  -21.9740   38.2550    6.5500 C   0  0  0  0  0  0
  -21.2950   38.4640    4.2510 O   0  0  0  0  0  0
  -18.5140   39.5930    5.3800 C   0  0  0  0  0  0
  -21.6070   38.6590    2.9340 C   0  0  0  0  0  0
  -20.8440   38.0530    1.9970 N   0  0  0  0  0  0
  -22.5510   39.3590    2.6200 O   0  0  0  0  0  0
  -20.8970   38.0380    0.5340 C   0  0  1  0  0  0
  -19.6030   38.7570   -0.0320 C   0  0  0  0  0  0
  -21.1750   36.5690    0.0260 C   0  0  1  0  0  0
  -19.0780   39.9750    0.6290 C   0  0  0  0  0  0
  -21.5830   36.4570   -1.4360 C   0  0  0  0  0  0
  -20.0300   35.7900    0.2220 O   0  0  0  0  0  0
  -17.8790   39.9290    1.4110 C   0  0  0  0  0  0
  -19.7960   41.2140    0.5080 C   0  0  0  0  0  0
  -22.8240   37.1370   -1.6670 N   0  0  1  0  0  0
  -17.3960   41.1190    2.0700 C   0  0  0  0  0  0
  -19.3270   42.3890    1.1550 C   0  0  0  0  0  0
  -22.8180   38.6260   -2.6040 S   0  0  0  0  0  0
  -23.9850   36.2690   -1.7690 C   0  0  0  0  0  0
  -18.1300   42.3410    1.9420 C   0  0  0  0  0  0
  -22.8720   38.2470   -4.2700 C   0  0  0  0  0  0
  -21.6600   39.4290   -2.3310 O   0  0  0  0  0  0
  -23.9400   39.4760   -2.2830 O   0  0  0  0  0  0
  -24.9530   36.2370   -0.5690 C   0  0  0  0  0  0
  -17.6930   43.4480    2.5720 O   0  0  0  0  0  0
  -24.1070   37.9510   -4.8760 C   0  0  0  0  0  0
  -21.6760   38.2120   -5.0320 C   0  0  0  0  0  0
  -26.4150   36.2240   -1.0620 C   0  0  0  0  0  0
  -24.6880   37.3260    0.5160 C   0  0  0  0  0  0
  -17.7520   43.7330    3.9560 C   0  0  0  0  0  0
  -24.1620   37.6280   -6.2420 C   0  0  0  0  0  0
  -21.7240   37.8880   -6.4130 C   0  0  0  0  0  0
  -17.9980   45.2300    4.2330 C   0  0  0  0  0  0
  -22.9680   37.5820   -7.0180 C   0  0  0  0  0  0
  -25.2150   37.3120   -7.0200 O   0  0  0  0  0  0
  -17.7320   45.8070    5.4370 N   0  0  0  0  0  0
  -18.5050   46.0920    3.2790 C   0  0  0  0  0  0
  -23.2720   37.2520   -8.2990 O   0  0  0  0  0  0
  -24.7000   37.0640   -8.3470 C   0  0  0  0  0  0
  -18.0010   47.0830    5.4780 C   0  0  0  0  0  0
  -18.6310   47.6820    3.9590 S   0  0  0  0  0  0
  -17.7910   47.9560    6.7010 C   0  0  0  0  0  0
  -21.3949   41.1980    5.9907 H   0  0  0  0  0  0
  -20.0118   40.3700    7.9477 H   0  0  0  0  0  0
  -22.6923   39.6107    4.9044 H   0  0  0  0  0  0
  -19.8308   40.7081    3.9569 H   0  0  0  0  0  0
  -19.2228   41.7134    5.3157 H   0  0  0  0  0  0
  -22.9990   38.3612    6.9350 H   0  0  0  0  0  0
  -21.8080   37.2155    6.2309 H   0  0  0  0  0  0
  -18.6000   38.7655    4.6604 H   0  0  0  0  0  0
  -17.4978   40.0118    5.3373 H   0  0  0  0  0  0
  -20.0620   37.4875    2.5249 H   0  0  0  0  0  0
  -21.7652   38.6350    0.2181 H   0  0  0  0  0  0
  -18.7546   38.0572   -0.0080 H   0  0  0  0  0  0
  -19.7851   39.0770   -1.0686 H   0  0  0  0  0  0
  -21.9768   36.1124    0.6248 H   0  0  0  0  0  0
  -20.8056   36.9093   -2.0693 H   0  0  0  0  0  0
  -21.7025   35.3966   -1.7031 H   0  0  0  0  0  0
  -19.5679   35.7324    1.2186 H   0  0  0  0  0  0
  -17.3296   38.9927    1.5088 H   0  0  0  0  0  0
  -20.7092   41.2528   -0.0858 H   0  0  0  0  0  0
  -16.4801   41.0872    2.6601 H   0  0  0  0  0  0
  -19.8764   43.3249    1.0530 H   0  0  0  0  0  0
  -24.5971   36.5751   -2.6302 H   0  0  0  0  0  0
  -23.6543   35.2288   -1.9055 H   0  0  0  0  0  0
  -24.7569   35.2881   -0.0483 H   0  0  0  0  0  0
  -25.0224   37.9724   -4.2846 H   0  0  0  0  0  0
  -20.7203   38.4339   -4.5570 H   0  0  0  0  0  0
  -26.5386   35.4387   -1.8222 H   0  0  0  0  0  0
  -26.6626   37.2017   -1.5011 H   0  0  0  0  0  0
  -27.0861   36.0224   -0.2141 H   0  0  0  0  0  0
  -23.6334   37.2856    0.8261 H   0  0  0  0  0  0
  -25.3336   37.1405    1.3870 H   0  0  0  0  0  0
  -24.9101   38.3198    0.1000 H   0  0  0  0  0  0
  -18.5733   43.1617    4.4133 H   0  0  0  0  0  0
  -16.8003   43.4500    4.4296 H   0  0  0  0  0  0
  -20.8088   37.8747   -7.0049 H   0  0  0  0  0  0
  -18.7816   45.8162    2.2614 H   0  0  0  0  0  0
  -24.9424   36.0341   -8.6478 H   0  0  0  0  0  0
  -25.1572   37.7702   -9.0557 H   0  0  0  0  0  0
  -17.3875   47.3456    7.5223 H   0  0  0  0  0  0
  -18.7520   48.3945    7.0079 H   0  0  0  0  0  0
  -17.0812   48.7609    6.4594 H   0  0  0  0  0  0
  1  2  1  0  0  0
  1  3  1  0  0  0
  1  4  1  0  0  0
  1 49  1  0  0  0
  2  5  1  0  0  0
  2  6  1  0  0  0
  2 50  1  0  0  0
  3  7  1  0  0  0
  3  8  1  0  0  0
  3 51  1  0  0  0
  4  9  1  0  0  0
  4 52  1  0  0  0
  4 53  1  0  0  0
  5  7  1  0  0  0
  6  9  1  0  0  0
  7 54  1  0  0  0
  7 55  1  0  0  0
  8 10  1  0  0  0
  9 56  1  0  0  0
  9 57  1  0  0  0
 10 11  1  0  0  0
 10 12  2  0  0  0
 11 13  1  0  0  0
 11 58  1  0  0  0
 13 14  1  0  0  0
 13 15  1  0  0  0
 13 59  1  0  0  0
 14 16  1  0  0  0
 14 60  1  0  0  0
 14 61  1  0  0  0
 15 17  1  0  0  0
 15 18  1  0  0  0
 15 62  1  0  0  0
 16 19  2  0  0  0
 16 20  1  0  0  0
 17 21  1  0  0  0
 17 63  1  0  0  0
 17 64  1  0  0  0
 18 65  1  0  0  0
 19 22  1  0  0  0
 19 66  1  0  0  0
 20 23  2  0  0  0
 20 67  1  0  0  0
 21 24  1  0  0  0
 21 25  1  0  0  0
 22 26  2  0  0  0
 22 68  1  0  0  0
 23 26  1  0  0  0
 23 69  1  0  0  0
 24 27  1  0  0  0
 24 28  2  0  0  0
 24 29  2  0  0  0
 25 30  1  0  0  0
 25 70  1  0  0  0
 25 71  1  0  0  0
 26 31  1  0  0  0
 27 32  2  0  0  0
 27 33  1  0  0  0
 30 34  1  0  0  0
 30 35  1  0  0  0
 30 72  1  0  0  0
 31 36  1  0  0  0
 32 37  1  0  0  0
 32 73  1  0  0  0
 33 38  2  0  0  0
 33 74  1  0  0  0
 34 75  1  0  0  0
 34 76  1  0  0  0
 34 77  1  0  0  0
 35 78  1  0  0  0
 35 79  1  0  0  0
 35 80  1  0  0  0
 36 39  1  0  0  0
 36 81  1  0  0  0
 36 82  1  0  0  0
 37 40  2  0  0  0
 37 41  1  0  0  0
 38 40  1  0  0  0
 38 83  1  0  0  0
 39 42  1  0  0  0
 39 43  2  0  0  0
 40 44  1  0  0  0
 41 45  1  0  0  0
 42 46  2  0  0  0
 43 47  1  0  0  0
 43 84  1  0  0  0
 44 45  1  0  0  0
 45 85  1  0  0  0
 45 86  1  0  0  0
 46 47  1  0  0  0
 46 48  1  0  0  0
 48 87  1  0  0  0
 48 88  1  0  0  0
 48 89  1  0  0  0
M  END
> <s_m_source_file>
../2fde_ligand.sdf

> <i_m_source_file_index>
1

> <s_epik_input>
TzFbQ0gyXU9jKGMxMilbY0hdW2NIXWMoW2NIXTIpUyg9TykoPU8pTihbQ0gyXVtDSF0oW0NIM10pW0NIM10pW0NIMl1bQ0BASF0oW09IXSlbQ0BASF0oW05IXUMoPU8pT1tDQEhdM1tDSDJdT1tDQEhdKFtDQEhdMzQpT1tDSDJdW0NIMl00KVtDSDJdYzVbY0hdW2NIXWMoW2NIXVtjSF01KU9bQ0gyXWM2bmMoW0NIM10pc1tjSF02

> <s_epik_cmdline>
J2VwaWtfYXBwJywgJy1pbWFlJywgJ2xpZ2FuZF9wcm8ubWFlJywgJy1vbWFlJywgJ2xpZ2FuZF9wcmVwLm1hZScsICctbXMnLCAnMScsICctcGgnLCAnNycsICctcGh0JywgJzAuNScsICctbnQn

> <r_lp_tautomer_probability>
1

> <r_epik_Ionization_Penalty>
  0.0001

> <r_epik_Ionization_Penalty_Charging>
  0.0000

> <r_epik_Ionization_Penalty_Neutral>
  0.0001

> <r_epik_State_Penalty>
 -0.0000

> <r_epik_Charging_Adjusted_Penalty>
0

> <i_epik_Tot_Q>
0

> <i_epik_Tot_abs_Q>
0

> <s_epik_Chemistry_Notes>
This compound has an ester and may undergo hydrolysis at high or low pH. This compound contains an acetal/aminal-like group ( X-CH(R)-Y where X, Y are N, S, or O) that may be acid/base labile, releasing an aldehyde.

$$$$
