2feq_ligand
                    3D
 Schrodinger Suite 2020-3.
 63 65  0  0  1  0            999 V2000
   12.3720   20.6940   22.7570 C   0  0  0  0  0  0
   12.0080   21.9290   23.1170 C   0  0  0  0  0  0
   12.7020   22.9720   22.3860 N   0  0  0  0  0  0
   13.5180   22.4360   21.4540 C   0  0  0  0  0  0
   13.5020   20.6880   21.4600 S   0  0  0  0  0  0
   11.0140   22.2250   24.1080 C   0  0  0  0  0  0
   14.4130   23.1710   20.4910 C   0  0  0  0  0  0
   15.8200   22.9400   20.8450 N   0  0  0  0  0  0
   16.3920   21.7600   20.5820 C   0  0  0  0  0  0
   15.8020   20.8570   20.0270 O   0  0  0  0  0  0
   17.8280   21.5560   21.1030 C   0  0  2  0  0  0
   18.7970   21.5540   19.9590 C   0  0  0  0  0  0
   19.6620   20.5400   20.0890 C   0  0  0  0  0  0
   19.3640   19.6960   21.2880 C   0  0  0  0  0  0
   18.1240   20.2710   21.7860 N   0  0  0  0  0  0
   17.2540   19.6980   22.6740 C   0  0  0  0  0  0
   16.2840   20.2970   23.1320 O   0  0  0  0  0  0
   17.4920   18.2390   23.1500 C   0  0  2  0  0  0
   16.2380   17.4860   23.4440 N   0  3  0  0  0  0
   15.3130   17.0190   22.3920 C   0  0  0  0  0  0
   18.1350   18.3540   24.5570 C   0  0  0  0  0  0
   19.5010   19.0520   24.6390 C   0  0  0  0  0  0
   19.8430   19.3890   26.0990 C   0  0  0  0  0  0
   21.2160   20.1110   26.2210 C   0  0  0  0  0  0
   22.3670   19.3010   25.6020 C   0  0  0  0  0  0
   22.0430   18.8670   24.1620 C   0  0  0  0  0  0
   20.6470   18.1910   24.0460 C   0  0  0  0  0  0
   10.2710   21.2570   24.6040 N   0  3  0  0  0  0
   10.8540   23.4810   24.4800 N   0  0  0  0  0  0
   14.0430   16.3290   22.8770 C   0  0  0  0  0  0
   13.2210   15.9330   22.0810 O   0  0  0  0  0  0
   13.8710   16.2160   24.0890 O   0  5  0  0  0  0
   11.9940   19.7894   23.2334 H   0  0  0  0  0  0
   14.2302   22.8065   19.4694 H   0  0  0  0  0  0
   14.1976   24.2486   20.5398 H   0  0  0  0  0  0
   16.4041   23.7379   21.3268 H   0  0  0  0  0  0
   17.9558   22.3654   21.8369 H   0  0  0  0  0  0
   18.8718   22.2337   19.0974 H   0  0  0  0  0  0
   20.4719   20.4106   19.3560 H   0  0  0  0  0  0
   19.2512   18.6464   20.9787 H   0  0  0  0  0  0
   20.1903   19.7789   22.0093 H   0  0  0  0  0  0
   18.0408   17.7083   22.3581 H   0  0  0  0  0  0
   16.4858   16.5521   23.9697 H   0  0  0  0  0  0
   15.5814   18.1003   24.0777 H   0  0  0  0  0  0
   14.9828   17.8764   21.7871 H   0  0  0  0  0  0
   15.8282   16.2920   21.7470 H   0  0  0  0  0  0
   17.4683   18.9259   25.2192 H   0  0  0  0  0  0
   18.2896   17.3475   24.9729 H   0  0  0  0  0  0
   19.4089   19.9742   24.0466 H   0  0  0  0  0  0
   19.0679   20.0501   26.5139 H   0  0  0  0  0  0
   19.8878   18.4614   26.6886 H   0  0  0  0  0  0
   21.1680   21.0800   25.7026 H   0  0  0  0  0  0
   21.4512   20.2746   27.2830 H   0  0  0  0  0  0
   23.2790   19.9157   25.5826 H   0  0  0  0  0  0
   22.5459   18.3985   26.2049 H   0  0  0  0  0  0
   22.0494   19.7480   23.5033 H   0  0  0  0  0  0
   22.7990   18.1461   23.8174 H   0  0  0  0  0  0
   20.6974   17.2302   24.5793 H   0  0  0  0  0  0
   20.4537   18.0082   22.9787 H   0  0  0  0  0  0
   10.4278   20.2193   24.2744 H   0  0  0  0  0  0
   11.4898   24.2678   24.0480 H   0  0  0  0  0  0
   10.0848   23.7411   25.2221 H   0  0  0  0  0  0
    9.4937   21.4863   25.3478 H   0  0  0  0  0  0
  1  2  2  0  0  0
  1  5  1  0  0  0
  1 33  1  0  0  0
  2  3  1  0  0  0
  2  6  1  0  0  0
  3  4  2  0  0  0
  4  5  1  0  0  0
  4  7  1  0  0  0
  6 28  2  0  0  0
  6 29  1  0  0  0
  7  8  1  0  0  0
  7 34  1  0  0  0
  7 35  1  0  0  0
  8  9  1  0  0  0
  8 36  1  0  0  0
  9 10  2  0  0  0
  9 11  1  0  0  0
 11 12  1  0  0  0
 11 15  1  0  0  0
 11 37  1  0  0  0
 12 13  2  0  0  0
 12 38  1  0  0  0
 13 14  1  0  0  0
 13 39  1  0  0  0
 14 15  1  0  0  0
 14 40  1  0  0  0
 14 41  1  0  0  0
 15 16  1  0  0  0
 16 17  2  0  0  0
 16 18  1  0  0  0
 18 19  1  0  0  0
 18 21  1  0  0  0
 18 42  1  0  0  0
 19 20  1  0  0  0
 19 43  1  0  0  0
 19 44  1  0  0  0
 20 30  1  0  0  0
 20 45  1  0  0  0
 20 46  1  0  0  0
 21 22  1  0  0  0
 21 47  1  0  0  0
 21 48  1  0  0  0
 22 23  1  0  0  0
 22 27  1  0  0  0
 22 49  1  0  0  0
 23 24  1  0  0  0
 23 50  1  0  0  0
 23 51  1  0  0  0
 24 25  1  0  0  0
 24 52  1  0  0  0
 24 53  1  0  0  0
 25 26  1  0  0  0
 25 54  1  0  0  0
 25 55  1  0  0  0
 26 27  1  0  0  0
 26 56  1  0  0  0
 26 57  1  0  0  0
 27 58  1  0  0  0
 27 59  1  0  0  0
 28 60  1  0  0  0
 28 63  1  0  0  0
 29 61  1  0  0  0
 29 62  1  0  0  0
 30 31  2  0  0  0
 30 32  1  0  0  0
M  CHG  3  19   1  28   1  32  -1
M  END
> <s_m_source_file>
../2feq_ligand.sdf

> <i_m_source_file_index>
1

> <s_epik_input>
W0hdXE49QyhbTkgyXSlcYzFbY0hdc2MobjEpW0NIMl1bTkhdQyg9TylbQ0BASF0yW0NIXT1bQ0hdW0NIMl1OMkMoPU8pW0NASF0oW05IMitdW0NIMl1DKD1PKVtPSF0pW0NIMl1bQ0hdM1tDSDJdW0NIMl1bQ0gyXVtDSDJdW0NIMl0z

> <s_epik_cmdline>
J2VwaWtfYXBwJywgJy1pbWFlJywgJ2xpZ2FuZF9wcm8ubWFlJywgJy1vbWFlJywgJ2xpZ2FuZF9wcmVwLm1hZScsICctbXMnLCAnMScsICctcGgnLCAnNycsICctcGh0JywgJzAuNScsICctbnQn

> <r_lp_tautomer_probability>
1

> <r_epik_Ionization_Penalty>
  0.2149

> <r_epik_Ionization_Penalty_Charging>
  0.2149

> <r_epik_Ionization_Penalty_Neutral>
  0.0000

> <r_epik_State_Penalty>
 -0.0000

> <r_epik_Charging_Adjusted_Penalty>
0.214869866322691

> <i_epik_Tot_Q>
1

> <i_epik_Tot_abs_Q>
3

> <s_epik_Chemistry_Notes>
This compound has an imine and may undergo hydrolysis.

$$$$
