2fes_ligand
                    3D
 Schrodinger Suite 2020-3.
 66 68  0  0  1  0            999 V2000
   11.9870   22.1830   23.0070 C   0  0  0  0  0  0
   12.3400   20.9380   22.4630 C   0  0  0  0  0  0
   13.2930   21.0600   21.4330 C   0  0  0  0  0  0
   13.6540   22.4010   21.2050 C   0  0  0  0  0  0
   12.8240   23.4510   22.2520 S   0  0  0  0  0  0
   11.0020   22.3810   24.0950 C   0  0  0  0  0  0
   10.3540   21.3350   24.6170 N   0  0  0  0  0  0
   10.7540   23.6110   24.5520 N   0  3  0  0  0  0
   14.5280   22.8060   20.2700 C   0  0  0  0  0  0
   15.8550   22.6880   20.7500 N   0  0  0  0  0  0
   16.6420   21.6020   20.4500 C   0  0  0  0  0  0
   16.2130   20.6880   19.7550 O   0  0  0  0  0  0
   18.0490   21.5090   21.0050 C   0  0  2  0  0  0
   19.0900   21.6240   19.8540 C   0  0  0  0  0  0
   20.1650   20.5760   20.2440 C   0  0  0  0  0  0
   19.3350   19.4790   20.9150 C   0  0  0  0  0  0
   18.2390   20.1610   21.6210 N   0  0  0  0  0  0
   17.5080   19.6480   22.6620 C   0  0  0  0  0  0
   16.6170   20.3080   23.1680 O   0  0  0  0  0  0
   17.7870   18.2500   23.1910 C   0  0  2  0  0  0
   16.5380   17.4770   23.1680 N   0  3  0  0  0  0
   15.9690   17.0420   21.8790 C   0  0  0  0  0  0
   14.5150   16.6700   22.0490 C   0  0  0  0  0  0
   18.3360   18.3100   24.6380 C   0  0  0  0  0  0
   19.7330   18.9520   24.6680 C   0  0  0  0  0  0
   20.0560   19.4310   26.0940 C   0  0  0  0  0  0
   21.4420   20.1250   26.1110 C   0  0  0  0  0  0
   22.5430   19.1530   25.6190 C   0  0  0  0  0  0
   22.2030   18.6110   24.2080 C   0  0  0  0  0  0
   20.8070   17.9330   24.2120 C   0  0  0  0  0  0
   14.0980   16.3020   23.1370 O   0  0  0  0  0  0
   13.7530   16.7330   21.0900 O   0  5  0  0  0  0
   11.9250   19.9876   22.7986 H   0  0  0  0  0  0
   13.7024   20.2158   20.8782 H   0  0  0  0  0  0
   10.5559   20.3205   24.2429 H   0  0  0  0  0  0
    9.6188   21.4887   25.4207 H   0  0  0  0  0  0
   11.2855   24.4741   24.1247 H   0  0  0  0  0  0
   14.4163   22.1839   19.3697 H   0  0  0  0  0  0
   14.3315   23.8580   20.0155 H   0  0  0  0  0  0
   16.2835   23.4795   21.3824 H   0  0  0  0  0  0
   18.1710   22.2992   21.7605 H   0  0  0  0  0  0
   18.6035   21.3919   18.8951 H   0  0  0  0  0  0
   19.4911   22.6478   19.8233 H   0  0  0  0  0  0
   20.6810   20.2255   19.3380 H   0  0  0  0  0  0
   20.8946   21.0358   20.9268 H   0  0  0  0  0  0
   18.9439   18.7943   20.1481 H   0  0  0  0  0  0
   19.9683   18.9185   21.6184 H   0  0  0  0  0  0
   18.5084   17.7453   22.5315 H   0  0  0  0  0  0
   16.6756   16.5411   23.7294 H   0  0  0  0  0  0
   15.7330   18.0670   23.6305 H   0  0  0  0  0  0
   16.0479   17.8606   21.1485 H   0  0  0  0  0  0
   16.5236   16.1666   21.5101 H   0  0  0  0  0  0
   17.6577   18.9094   25.2630 H   0  0  0  0  0  0
   18.4061   17.2909   25.0462 H   0  0  0  0  0  0
   19.7330   19.8129   23.9833 H   0  0  0  0  0  0
   19.2869   20.1448   26.4240 H   0  0  0  0  0  0
   20.0721   18.5680   26.7759 H   0  0  0  0  0  0
   21.4202   21.0037   25.4496 H   0  0  0  0  0  0
   21.6799   20.4439   27.1365 H   0  0  0  0  0  0
   23.5062   19.6824   25.5743 H   0  0  0  0  0  0
   22.6224   18.3057   26.3160 H   0  0  0  0  0  0
   22.1958   19.4424   23.4878 H   0  0  0  0  0  0
   22.9599   17.8717   23.9070 H   0  0  0  0  0  0
   20.8188   17.0782   24.9043 H   0  0  0  0  0  0
   20.5702   17.5799   23.1975 H   0  0  0  0  0  0
   10.0182   23.7611   25.3558 H   0  0  0  0  0  0
  1  2  2  0  0  0
  1  5  1  0  0  0
  1  6  1  0  0  0
  2  3  1  0  0  0
  2 33  1  0  0  0
  3  4  2  0  0  0
  3 34  1  0  0  0
  4  5  1  0  0  0
  4  9  1  0  0  0
  6  7  1  0  0  0
  6  8  2  0  0  0
  7 35  1  0  0  0
  7 36  1  0  0  0
  8 37  1  0  0  0
  8 66  1  0  0  0
  9 10  1  0  0  0
  9 38  1  0  0  0
  9 39  1  0  0  0
 10 11  1  0  0  0
 10 40  1  0  0  0
 11 12  2  0  0  0
 11 13  1  0  0  0
 13 14  1  0  0  0
 13 17  1  0  0  0
 13 41  1  0  0  0
 14 15  1  0  0  0
 14 42  1  0  0  0
 14 43  1  0  0  0
 15 16  1  0  0  0
 15 44  1  0  0  0
 15 45  1  0  0  0
 16 17  1  0  0  0
 16 46  1  0  0  0
 16 47  1  0  0  0
 17 18  1  0  0  0
 18 19  2  0  0  0
 18 20  1  0  0  0
 20 21  1  0  0  0
 20 24  1  0  0  0
 20 48  1  0  0  0
 21 22  1  0  0  0
 21 49  1  0  0  0
 21 50  1  0  0  0
 22 23  1  0  0  0
 22 51  1  0  0  0
 22 52  1  0  0  0
 23 31  2  0  0  0
 23 32  1  0  0  0
 24 25  1  0  0  0
 24 53  1  0  0  0
 24 54  1  0  0  0
 25 26  1  0  0  0
 25 30  1  0  0  0
 25 55  1  0  0  0
 26 27  1  0  0  0
 26 56  1  0  0  0
 26 57  1  0  0  0
 27 28  1  0  0  0
 27 58  1  0  0  0
 27 59  1  0  0  0
 28 29  1  0  0  0
 28 60  1  0  0  0
 28 61  1  0  0  0
 29 30  1  0  0  0
 29 62  1  0  0  0
 29 63  1  0  0  0
 30 64  1  0  0  0
 30 65  1  0  0  0
M  CHG  3   8   1  21   1  32  -1
M  END
> <s_m_source_file>
../2fes_ligand.sdf

> <i_m_source_file_index>
1

> <s_epik_input>
W0hdXE49QyhbTkgyXSlcYzFbY0hdW2NIXWMoczEpW0NIMl1bTkhdQyg9TylbQ0BASF0yW0NIMl1bQ0gyXVtDSDJdTjJDKD1PKVtDQEhdKFtOSDIrXVtDSDJdQyg9TylbT0hdKVtDSDJdW0NIXTNbQ0gyXVtDSDJdW0NIMl1bQ0gyXVtDSDJdMw==

> <s_epik_cmdline>
J2VwaWtfYXBwJywgJy1pbWFlJywgJ2xpZ2FuZF9wcm8ubWFlJywgJy1vbWFlJywgJ2xpZ2FuZF9wcmVwLm1hZScsICctbXMnLCAnMScsICctcGgnLCAnNycsICctcGh0JywgJzAuNScsICctbnQn

> <r_lp_tautomer_probability>
1

> <r_epik_Ionization_Penalty>
  0.1597

> <r_epik_Ionization_Penalty_Charging>
  0.1597

> <r_epik_Ionization_Penalty_Neutral>
  0.0000

> <r_epik_State_Penalty>
 -0.0000

> <r_epik_Charging_Adjusted_Penalty>
0.159702776603721

> <i_epik_Tot_Q>
1

> <i_epik_Tot_abs_Q>
3

> <s_epik_Chemistry_Notes>
This compound has an imine and may undergo hydrolysis.

$$$$
