2ff1_ligand
                    3D
 Schrodinger Suite 2020-3.
 33 35  0  0  1  0            999 V2000
   16.4130   22.7730    9.4680 O   0  0  0  0  0  0
   17.0670   24.0400    9.2490 C   0  0  0  0  0  0
   16.2080   25.3490    9.4340 C   0  0  1  0  0  0
   15.5360   25.2060   10.7470 N   0  0  1  0  0  0
   16.9480   26.7030    9.5530 C   0  0  1  0  0  0
   16.2130   27.8130    8.9400 O   0  0  0  0  0  0
   17.1650   26.9480   11.1090 C   0  0  1  0  0  0
   16.9290   28.3220   11.5300 O   0  0  0  0  0  0
   16.2040   25.9590   11.8160 C   0  0  2  0  0  0
   16.9020   24.8770   12.8570 C   0  0  0  0  0  0
   16.9640   23.5350   12.6720 C   0  0  0  0  0  0
   17.6350   22.9010   13.7740 N   0  3  0  0  0  0
   17.9610   23.9660   14.6230 C   0  0  0  0  0  0
   18.6730   23.8680   15.9290 C   0  0  0  0  0  0
   19.0980   22.8450   16.4920 O   0  0  0  0  0  0
   18.8180   25.1730   16.4980 N   0  0  0  0  0  0
   18.3580   26.4040   15.9190 C   0  0  0  0  0  0
   17.7230   26.3910   14.7320 N   0  0  0  0  0  0
   17.5450   25.1690   14.1190 C   0  0  0  0  0  0
   16.9762   21.8356    9.3494 H   0  0  0  0  0  0
   17.9079   24.1446    9.9504 H   0  0  0  0  0  0
   17.4432   24.0848    8.2163 H   0  0  0  0  0  0
   15.5530   25.4182    8.5530 H   0  0  0  0  0  0
   14.5027   25.5757   10.6722 H   0  0  0  0  0  0
   17.8682   26.7023    8.9503 H   0  0  0  0  0  0
   15.9827   27.7928    7.8646 H   0  0  0  0  0  0
   18.2131   26.8442   11.4263 H   0  0  0  0  0  0
   17.5371   29.1376   11.1116 H   0  0  0  0  0  0
   15.4753   26.5811   12.3564 H   0  0  0  0  0  0
   16.5303   23.0839   11.7673 H   0  0  0  0  0  0
   19.3217   25.2972   17.4680 H   0  0  0  0  0  0
   18.5227   27.3473   16.4397 H   0  0  0  0  0  0
   17.7724   21.8096   13.7800 H   0  0  0  0  0  0
  1  2  1  0  0  0
  1 20  1  0  0  0
  2  3  1  0  0  0
  2 21  1  0  0  0
  2 22  1  0  0  0
  3  4  1  0  0  0
  3  5  1  0  0  0
  3 23  1  0  0  0
  4  9  1  0  0  0
  4 24  1  0  0  0
  5  6  1  0  0  0
  5  7  1  0  0  0
  5 25  1  0  0  0
  6 26  1  0  0  0
  7  8  1  0  0  0
  7  9  1  0  0  0
  7 27  1  0  0  0
  8 28  1  0  0  0
  9 10  1  0  0  0
  9 29  1  0  0  0
 10 11  2  0  0  0
 10 19  1  0  0  0
 11 12  1  0  0  0
 11 30  1  0  0  0
 12 13  1  0  0  0
 12 33  1  0  0  0
 13 14  1  0  0  0
 13 19  2  0  0  0
 14 15  2  0  0  0
 14 16  1  0  0  0
 16 17  1  0  0  0
 16 31  1  0  0  0
 17 18  2  0  0  0
 17 32  1  0  0  0
 18 19  1  0  0  0
M  CHG  1  12   1
M  END
> <s_m_source_file>
../2ff1_ligand.sdf

> <i_m_source_file_index>
1

> <s_epik_input>
W09IXVtDSDJdW0NASF0xW05IMitdW0NASF0oW0NASF0oW09IXSlbQ0BASF0xW09IXSljKFtjSF1bbkhdMiljKGMyMyluW2NIXVtuSF1jMz1P

> <s_epik_cmdline>
J2VwaWtfYXBwJywgJy1pbWFlJywgJ2xpZ2FuZF9wcm8ubWFlJywgJy1vbWFlJywgJ2xpZ2FuZF9wcmVwLm1hZScsICctbXMnLCAnMScsICctcGgnLCAnNycsICctcGh0JywgJzAuNScsICctbnQn

> <r_epik_Ionization_Penalty>
  0.0679

> <r_epik_Ionization_Penalty_Charging>
  0.0000

> <r_epik_Ionization_Penalty_Neutral>
  0.0679

> <r_epik_State_Penalty>
  0.0590

> <r_epik_Charging_Adjusted_Penalty>
0.0590486943449857

> <i_epik_Tot_Q>
1

> <i_epik_Tot_abs_Q>
1

$$$$
