2ff2_ligand
                    3D
 Schrodinger Suite 2020-3.
 33 35  0  0  1  0            999 V2000
  -25.0190   12.9380  -18.9240 O   0  0  0  0  0  0
  -24.4450   11.6690  -19.2490 C   0  0  0  0  0  0
  -25.0790   10.3750  -18.6170 C   0  0  1  0  0  0
  -26.5540   10.4700  -18.8030 N   0  0  1  0  0  0
  -24.7200    9.0300  -19.2680 C   0  0  1  0  0  0
  -24.6900    7.9410  -18.3080 O   0  0  0  0  0  0
  -25.8140    8.7690  -20.3650 C   0  0  1  0  0  0
  -26.1950    7.3870  -20.5030 O   0  0  0  0  0  0
  -27.0180    9.7120  -19.9860 C   0  0  2  0  0  0
  -27.4440   10.7740  -21.1670 C   0  0  0  0  0  0
  -27.1760   12.0990  -21.1720 C   0  0  0  0  0  0
  -27.6750   12.7070  -22.3560 N   0  3  0  0  0  0
  -28.2550   11.6480  -23.0450 C   0  0  0  0  0  0
  -28.9100   11.7400  -24.3510 C   0  0  0  0  0  0
  -29.0420   12.7410  -25.0220 O   0  0  0  0  0  0
  -29.3960   10.4590  -24.7550 N   0  0  0  0  0  0
  -29.2710    9.2400  -24.0110 C   0  0  0  0  0  0
  -28.6430    9.2580  -22.8240 N   0  0  0  0  0  0
  -28.1550   10.4730  -22.3800 C   0  0  0  0  0  0
  -24.5958   13.8588  -19.3517 H   0  0  0  0  0  0
  -24.5024   11.5081  -20.3357 H   0  0  0  0  0  0
  -23.3922   11.6504  -18.9307 H   0  0  0  0  0  0
  -24.7362   10.3437  -17.5722 H   0  0  0  0  0  0
  -27.0623   10.0639  -17.9160 H   0  0  0  0  0  0
  -23.6854    9.0336  -19.6417 H   0  0  0  0  0  0
  -23.9775    7.9657  -17.4703 H   0  0  0  0  0  0
  -25.4380    8.9053  -21.3897 H   0  0  0  0  0  0
  -25.4396    6.6318  -20.7659 H   0  0  0  0  0  0
  -27.8902    9.0962  -19.7213 H   0  0  0  0  0  0
  -26.6384   12.5546  -20.3274 H   0  0  0  0  0  0
  -29.9201   10.3475  -25.7157 H   0  0  0  0  0  0
  -29.6808    8.3096  -24.4040 H   0  0  0  0  0  0
  -27.5396   13.7864  -22.5191 H   0  0  0  0  0  0
  1  2  1  0  0  0
  1 20  1  0  0  0
  2  3  1  0  0  0
  2 21  1  0  0  0
  2 22  1  0  0  0
  3  4  1  0  0  0
  3  5  1  0  0  0
  3 23  1  0  0  0
  4  9  1  0  0  0
  4 24  1  0  0  0
  5  6  1  0  0  0
  5  7  1  0  0  0
  5 25  1  0  0  0
  6 26  1  0  0  0
  7  8  1  0  0  0
  7  9  1  0  0  0
  7 27  1  0  0  0
  8 28  1  0  0  0
  9 10  1  0  0  0
  9 29  1  0  0  0
 10 11  2  0  0  0
 10 19  1  0  0  0
 11 12  1  0  0  0
 11 30  1  0  0  0
 12 13  1  0  0  0
 12 33  1  0  0  0
 13 14  1  0  0  0
 13 19  2  0  0  0
 14 15  2  0  0  0
 14 16  1  0  0  0
 16 17  1  0  0  0
 16 31  1  0  0  0
 17 18  2  0  0  0
 17 32  1  0  0  0
 18 19  1  0  0  0
M  CHG  1  12   1
M  END
> <s_m_source_file>
../2ff2_ligand.sdf

> <i_m_source_file_index>
1

> <s_epik_input>
W09IXVtDSDJdW0NASF0xW05IMitdW0NASF0oW0NASF0oW09IXSlbQ0BASF0xW09IXSljKFtjSF1bbkhdMiljKGMyMyluW2NIXVtuSF1jMz1P

> <s_epik_cmdline>
J2VwaWtfYXBwJywgJy1pbWFlJywgJ2xpZ2FuZF9wcm8ubWFlJywgJy1vbWFlJywgJ2xpZ2FuZF9wcmVwLm1hZScsICctbXMnLCAnMScsICctcGgnLCAnNycsICctcGh0JywgJzAuNScsICctbnQn

> <r_epik_Ionization_Penalty>
  0.0679

> <r_epik_Ionization_Penalty_Charging>
  0.0000

> <r_epik_Ionization_Penalty_Neutral>
  0.0679

> <r_epik_State_Penalty>
  0.0590

> <r_epik_Charging_Adjusted_Penalty>
0.0590486943449857

> <i_epik_Tot_Q>
1

> <i_epik_Tot_abs_Q>
1

$$$$
