2fgh_ligand
                    3D
 Schrodinger Suite 2020-3.
 43 45  0  0  1  0            999 V2000
    6.7930   38.1710  -38.6740 P   0  0  0  0  0  0
    5.3370   37.8700  -38.6720 O   0  0  0  0  0  0
    7.0920   39.2770  -37.6200 O   0  5  0  0  0  0
    7.6250   36.9150  -38.3580 O   0  5  0  0  0  0
    8.5480   38.2730  -40.8490 P   0  0  2  0  0  0
    8.8120   39.0460  -42.1100 O   0  0  0  0  0  0
    8.6970   36.7490  -40.9970 O   0  5  0  0  0  0
    7.1410   38.6860  -40.1690 O   0  0  0  0  0  0
   11.1500   37.9720  -40.1310 P   0  0  1  0  0  0
   11.5440   36.8390  -39.2460 O   0  0  0  0  0  0
   11.3200   37.7440  -41.6430 O   0  5  0  0  0  0
    9.6750   38.5830  -39.7400 O   0  0  0  0  0  0
   11.9480   39.2810  -39.6440 O   0  0  0  0  0  0
   11.8110   39.4960  -38.2320 C   0  0  0  0  0  0
   11.3560   40.8970  -37.8350 C   0  0  1  0  0  0
   12.4090   41.5590  -37.1480 O   0  0  0  0  0  0
   11.0360   41.8360  -38.9750 C   0  0  1  0  0  0
   10.1400   42.8320  -38.4870 O   0  0  0  0  0  0
   12.3700   42.3830  -39.4090 C   0  0  1  0  0  0
   12.3180   43.7130  -39.8640 O   0  0  0  0  0  0
   13.1880   42.2300  -38.1380 C   0  0  2  0  0  0
   14.4480   41.6060  -38.5830 N   0  0  0  0  0  0
   14.7480   40.6920  -39.5790 C   0  0  0  0  0  0
   16.0980   40.5300  -39.6230 N   0  0  0  0  0  0
   16.6570   41.3470  -38.6830 C   0  0  0  0  0  0
   17.9560   41.5830  -38.2880 C   0  0  0  0  0  0
   18.9720   41.0810  -39.0010 N   0  0  0  0  0  0
   18.1910   42.4930  -37.2750 N   0  0  0  0  0  0
   17.1480   43.1500  -36.6630 C   0  0  0  0  0  0
   15.8530   42.9180  -37.0410 N   0  0  0  0  0  0
   15.6290   42.0290  -38.0380 C   0  0  0  0  0  0
   11.0668   38.7956  -37.8250 H   0  0  0  0  0  0
   12.7803   39.3280  -37.7398 H   0  0  0  0  0  0
   10.4697   40.7478  -37.2008 H   0  0  0  0  0  0
   10.4938   41.4040  -39.8290 H   0  0  0  0  0  0
    9.1353   42.5465  -38.1419 H   0  0  0  0  0  0
   12.7836   41.9243  -40.3192 H   0  0  0  0  0  0
   11.7564   43.9604  -40.7769 H   0  0  0  0  0  0
   13.4538   43.1308  -37.5653 H   0  0  0  0  0  0
   14.0246   40.1875  -40.2196 H   0  0  0  0  0  0
   18.7746   40.3571  -39.8054 H   0  0  0  0  0  0
   20.0041   41.3924  -38.7824 H   0  0  0  0  0  0
   17.3559   43.8646  -35.8667 H   0  0  0  0  0  0
  1  2  2  0  0  0
  1  3  1  0  0  0
  1  4  1  0  0  0
  1  8  1  0  0  0
  5  6  2  0  0  0
  5  7  1  0  0  0
  5  8  1  0  0  0
  5 12  1  0  0  0
  9 10  2  0  0  0
  9 11  1  0  0  0
  9 12  1  0  0  0
  9 13  1  0  0  0
 13 14  1  0  0  0
 14 15  1  0  0  0
 14 32  1  0  0  0
 14 33  1  0  0  0
 15 16  1  0  0  0
 15 17  1  0  0  0
 15 34  1  0  0  0
 16 21  1  0  0  0
 17 18  1  0  0  0
 17 19  1  0  0  0
 17 35  1  0  0  0
 18 36  1  0  0  0
 19 20  1  0  0  0
 19 21  1  0  0  0
 19 37  1  0  0  0
 20 38  1  0  0  0
 21 22  1  0  0  0
 21 39  1  0  0  0
 22 23  1  0  0  0
 22 31  1  0  0  0
 23 24  2  0  0  0
 23 40  1  0  0  0
 24 25  1  0  0  0
 25 26  2  0  0  0
 25 31  1  0  0  0
 26 27  1  0  0  0
 26 28  1  0  0  0
 27 41  1  0  0  0
 27 42  1  0  0  0
 28 29  2  0  0  0
 29 30  1  0  0  0
 29 43  1  0  0  0
 30 31  2  0  0  0
M  CHG  4   3  -1   4  -1   7  -1  11  -1
M  END
> <s_m_source_file>
../2fgh_ligand.sdf

> <i_m_source_file_index>
1

> <s_epik_input>
Tz1QKFtPSF0pKFtPSF0pT1tQQF0oPU8pKFtPSF0pT1tQQEBdKD1PKShbT0hdKU9bQ0gyXVtDQEhdMU9bQ0BIXShbQ0BIXShbT0hdKVtDQEBIXTFbT0hdKW4oW2NIXW4yKWMoYzIzKW5bY0hdbmMzW05IMl0=

> <s_epik_cmdline>
J2VwaWtfYXBwJywgJy1pbWFlJywgJ2xpZ2FuZF9wcm8ubWFlJywgJy1vbWFlJywgJ2xpZ2FuZF9wcmVwLm1hZScsICctbXMnLCAnMScsICctcGgnLCAnNycsICctcGh0JywgJzAuNScsICctbnQn

> <r_lp_tautomer_probability>
0.999997216410988

> <r_epik_Ionization_Penalty>
  0.0818

> <r_epik_Ionization_Penalty_Charging>
  0.0813

> <r_epik_Ionization_Penalty_Neutral>
  0.0004

> <r_epik_State_Penalty>
  0.0708

> <r_epik_Charging_Adjusted_Penalty>
0.152157994418768

> <i_epik_Tot_Q>
-4

> <i_epik_Tot_abs_Q>
4

> <s_epik_Chemistry_Notes>
This compound contains an acetal/aminal-like group ( X-CH(R)-Y where X, Y are N, S, or O) that may be acid/base labile, releasing an aldehyde.

$$$$
