2fgi_ligand
                    3D
 Schrodinger Suite 2020-3.
 80 82  0  0  1  0            999 V2000
    9.7300    6.0540   29.1360 C   0  0  0  0  0  0
   11.1620    5.7790   28.6910 C   0  0  0  0  0  0
   13.0390    4.6910   30.8380 C   0  0  0  0  0  0
   12.8670    4.0160   29.4650 C   0  0  0  0  0  0
   10.8880    3.3130   27.9900 C   0  0  0  0  0  0
   10.4530    3.8870   26.6560 C   0  0  0  0  0  0
    9.4540    2.9910   25.9730 C   0  0  0  0  0  0
    8.9500    3.6270   24.6840 C   0  0  0  0  0  0
    7.1310    3.0720   22.9050 C   0  0  0  0  0  0
    5.7400    2.2150   21.2950 C   0  0  0  0  0  0
    6.0240    3.3180   20.4860 C   0  0  0  0  0  0
    6.9000    4.3240   20.9760 C   0  0  0  0  0  0
    5.4770    3.4670   19.1980 C   0  0  0  0  0  0
    5.8210    4.5680   18.4330 C   0  0  0  0  0  0
    6.6830    5.4990   18.9790 C   0  0  0  0  0  0
    5.2980    4.6730   17.1530 C   0  0  0  0  0  0
    5.8270    3.8790   16.1330 C   0  0  0  0  0  0
    5.3200    3.9650   14.8510 C   0  0  0  0  0  0
    4.2880    4.8070   14.5410 C   0  0  0  0  0  0
    3.7620    5.5890   15.5520 C   0  0  0  0  0  0
    4.2470    5.5340   16.8560 C   0  0  0  0  0  0
    5.0810    2.5360   12.8020 C   0  0  0  0  0  0
    1.7620    6.2110   14.1600 C   0  0  0  0  0  0
    7.9120    7.6430   18.4980 C   0  0  0  0  0  0
    9.2370    8.8210   20.2280 C   0  0  0  0  0  0
   10.5680    8.7190   19.5510 C   0  0  0  0  0  0
    8.6280   10.1930   19.9490 C   0  0  0  0  0  0
    9.4340    8.6440   21.7060 C   0  0  0  0  0  0
   11.4990    4.3260   28.9210 N   0  3  0  0  0  0
    7.7510    2.9590   24.1820 N   0  0  0  0  0  0
    6.3230    2.0940   22.5420 N   0  0  0  0  0  0
    7.4290    4.1450   22.1800 N   0  0  0  0  0  0
    7.1900    5.3550   20.2030 N   0  0  0  0  0  0
    7.0700    6.6520   18.2320 N   0  0  0  0  0  0
    8.3600    7.7640   19.7500 N   0  0  0  0  0  0
    5.8570    3.1510   13.8580 O   0  0  0  0  0  0
    2.6890    6.4300   15.2610 O   0  0  0  0  0  0
    8.2250    8.4490   17.6210 O   0  0  0  0  0  0
    9.4904    7.1140   28.9660 H   0  0  0  0  0  0
    9.6277    5.8221   30.2064 H   0  0  0  0  0  0
    9.0387    5.4243   28.5567 H   0  0  0  0  0  0
   11.2643    6.0109   27.6206 H   0  0  0  0  0  0
   11.8533    6.4087   29.2703 H   0  0  0  0  0  0
   14.0393    4.4641   31.2354 H   0  0  0  0  0  0
   12.2742    4.3115   31.5315 H   0  0  0  0  0  0
   12.9264    5.7797   30.7280 H   0  0  0  0  0  0
   13.6318    4.3955   28.7715 H   0  0  0  0  0  0
   12.9796    2.9273   29.5749 H   0  0  0  0  0  0
   11.6205    2.5199   27.7793 H   0  0  0  0  0  0
    9.9965    2.8730   28.4608 H   0  0  0  0  0  0
    9.9884    4.8714   26.8144 H   0  0  0  0  0  0
   11.3296    3.9965   26.0005 H   0  0  0  0  0  0
    9.9294    2.0289   25.7315 H   0  0  0  0  0  0
    8.5979    2.8192   26.6421 H   0  0  0  0  0  0
    8.7053    4.6836   24.8677 H   0  0  0  0  0  0
    9.7311    3.5603   23.9124 H   0  0  0  0  0  0
    5.0545    1.4453   20.9405 H   0  0  0  0  0  0
    4.7869    2.7202   18.8054 H   0  0  0  0  0  0
    6.6427    3.1891   16.3493 H   0  0  0  0  0  0
    3.8920    4.8598   13.5268 H   0  0  0  0  0  0
    3.8083    6.1581   17.6345 H   0  0  0  0  0  0
    5.7461    1.9463   12.1541 H   0  0  0  0  0  0
    4.5878    3.3182   12.2063 H   0  0  0  0  0  0
    4.3195    1.8762   13.2433 H   0  0  0  0  0  0
    1.0103    7.0140   14.1483 H   0  0  0  0  0  0
    1.2602    5.2409   14.2907 H   0  0  0  0  0  0
    2.3151    6.2126   13.2092 H   0  0  0  0  0  0
   11.0068    7.7305   19.7520 H   0  0  0  0  0  0
   11.2367    9.5024   19.9371 H   0  0  0  0  0  0
   10.4386    8.8491   18.4664 H   0  0  0  0  0  0
    7.6498   10.2680   20.4465 H   0  0  0  0  0  0
    8.4987   10.3230   18.8644 H   0  0  0  0  0  0
    9.2968   10.9764   20.3351 H   0  0  0  0  0  0
    8.4625    8.7168   22.2167 H   0  0  0  0  0  0
   10.1061    9.4290   22.0829 H   0  0  0  0  0  0
    9.8778    7.6566   21.9011 H   0  0  0  0  0  0
   10.8892    4.1373   29.8168 H   0  0  0  0  0  0
    7.2010    2.2581   24.8272 H   0  0  0  0  0  0
    6.6381    6.8329   17.2366 H   0  0  0  0  0  0
    8.0142    6.9815   20.4415 H   0  0  0  0  0  0
  1  2  1  0  0  0
  1 39  1  0  0  0
  1 40  1  0  0  0
  1 41  1  0  0  0
  2 29  1  0  0  0
  2 42  1  0  0  0
  2 43  1  0  0  0
  3  4  1  0  0  0
  3 44  1  0  0  0
  3 45  1  0  0  0
  3 46  1  0  0  0
  4 29  1  0  0  0
  4 47  1  0  0  0
  4 48  1  0  0  0
  5 29  1  0  0  0
  5  6  1  0  0  0
  5 49  1  0  0  0
  5 50  1  0  0  0
  6  7  1  0  0  0
  6 51  1  0  0  0
  6 52  1  0  0  0
  7  8  1  0  0  0
  7 53  1  0  0  0
  7 54  1  0  0  0
  8 30  1  0  0  0
  8 55  1  0  0  0
  8 56  1  0  0  0
  9 30  1  0  0  0
  9 31  2  0  0  0
  9 32  1  0  0  0
 10 11  2  0  0  0
 10 31  1  0  0  0
 10 57  1  0  0  0
 11 12  1  0  0  0
 11 13  1  0  0  0
 12 32  2  0  0  0
 12 33  1  0  0  0
 13 14  2  0  0  0
 13 58  1  0  0  0
 14 16  1  0  0  0
 14 15  1  0  0  0
 15 33  2  0  0  0
 15 34  1  0  0  0
 16 21  2  0  0  0
 16 17  1  0  0  0
 17 18  2  0  0  0
 17 59  1  0  0  0
 18 36  1  0  0  0
 18 19  1  0  0  0
 19 20  2  0  0  0
 19 60  1  0  0  0
 20 37  1  0  0  0
 20 21  1  0  0  0
 21 61  1  0  0  0
 22 36  1  0  0  0
 22 62  1  0  0  0
 22 63  1  0  0  0
 22 64  1  0  0  0
 23 37  1  0  0  0
 23 65  1  0  0  0
 23 66  1  0  0  0
 23 67  1  0  0  0
 24 34  1  0  0  0
 24 35  1  0  0  0
 24 38  2  0  0  0
 25 35  1  0  0  0
 25 28  1  0  0  0
 25 27  1  0  0  0
 25 26  1  0  0  0
 26 68  1  0  0  0
 26 69  1  0  0  0
 26 70  1  0  0  0
 27 71  1  0  0  0
 27 72  1  0  0  0
 27 73  1  0  0  0
 28 74  1  0  0  0
 28 75  1  0  0  0
 28 76  1  0  0  0
 29 77  1  0  0  0
 30 78  1  0  0  0
 34 79  1  0  0  0
 35 80  1  0  0  0
M  CHG  1  29   1
M  END
> <s_m_source_file>
../2fgi_ligand.sdf

> <i_m_source_file_index>
1

> <s_epik_input>
W0NIM11bQ0gyXVtOSCtdKFtDSDJdW0NIM10pW0NIMl1bQ0gyXVtDSDJdW0NIMl1bTkhdYyhuW2NIXTEpbmMoYzEyKW5jKFtOSF1DKD1PKVtOSF1DKFtDSDNdKShbQ0gzXSlbQ0gzXSljKFtjSF0yKS1jM1tjSF1jKE9bQ0gzXSlbY0hdYyhbY0hdMylPW0NIM10=

> <s_epik_cmdline>
J2VwaWtfYXBwJywgJy1pbWFlJywgJ2xpZ2FuZF9wcm8ubWFlJywgJy1vbWFlJywgJ2xpZ2FuZF9wcmVwLm1hZScsICctbXMnLCAnMScsICctcGgnLCAnNycsICctcGh0JywgJzAuNScsICctbnQn

> <r_lp_tautomer_probability>
1

> <r_epik_Ionization_Penalty>
  0.0375

> <r_epik_Ionization_Penalty_Charging>
  0.0013

> <r_epik_Ionization_Penalty_Neutral>
  0.0362

> <r_epik_State_Penalty>
  0.0425

> <r_epik_Charging_Adjusted_Penalty>
0.0437658313286003

> <i_epik_Tot_Q>
1

> <i_epik_Tot_abs_Q>
1

$$$$
