2fgu_ligand
                    3D
 Schrodinger Suite 2020-3.
100104  0  0  1  0            999 V2000
   18.9080   -5.7980   11.5630 O   0  0  0  0  0  0
   19.1640   -6.3060   12.6430 C   0  0  0  0  0  0
   20.3730   -8.1250   13.9490 N   0  0  0  0  0  0
   20.0690   -7.5100   12.7740 C   0  0  0  0  0  0
   20.6240   -7.9900   11.5970 C   0  0  0  0  0  0
   21.4760   -9.0960   11.6080 C   0  0  0  0  0  0
   21.7700   -9.7180   12.8060 C   0  0  0  0  0  0
   22.6080  -10.8350   12.8140 C   0  0  0  0  0  0
   22.9060  -11.4610   14.0210 C   0  0  0  0  0  0
   22.3470  -10.9580   15.1950 C   0  0  0  0  0  0
   21.5010   -9.8480   15.1770 C   0  0  0  0  0  0
   21.1920   -9.2140   13.9740 C   0  0  0  0  0  0
   18.5290   -5.6230   13.6000 N   0  0  0  0  0  0
   17.7070   -4.6130   14.2090 C   0  0  2  0  0  0
   18.6150   -3.7330   15.0340 C   0  0  0  0  0  0
   18.5350   -3.7190   16.2410 O   0  0  0  0  0  0
   16.4340   -5.1880   14.7970 C   0  0  0  0  0  0
   15.8110   -5.8640   13.6000 C   0  0  0  0  0  0
   15.3900   -5.1980   12.6580 O   0  0  0  0  0  0
   15.7830   -7.1930   13.6280 N   0  0  0  0  0  0
   19.8720   -0.5220   14.6250 C   0  0  1  0  0  0
   20.1260   -0.0890   13.3910 O   0  0  0  0  0  0
   20.3290   -1.9250   14.9090 C   0  0  1  0  0  0
   19.4580   -2.9430   14.3440 N   0  0  0  0  0  0
   21.7890   -2.0460   14.4370 C   0  0  0  0  0  0
   22.2840   -3.4580   14.6330 C   0  0  0  0  0  0
   22.6440   -3.9130   15.9000 C   0  0  0  0  0  0
   22.3680   -4.3210   13.5470 C   0  0  0  0  0  0
   23.0740   -5.2310   16.0740 C   0  0  0  0  0  0
   22.7900   -5.6400   13.7200 C   0  0  0  0  0  0
   23.1510   -6.0970   14.9860 C   0  0  0  0  0  0
   19.3940    0.4580   16.7920 N   0  3  1  0  0  0
   20.1280    0.3900   15.5800 C   0  0  0  0  0  0
   20.1420    1.2230   17.8070 C   0  0  2  0  0  0
   21.4190    0.5760   18.2560 C   0  0  0  0  0  0
   21.4430   -0.6380   18.3530 O   0  0  0  0  0  0
   19.3380    1.4600   19.0880 C   0  0  0  0  0  0
   17.9740    2.1090   18.8350 C   0  0  2  0  0  0
   17.1370    2.1060   20.1120 C   0  0  0  0  0  0
   16.6680    0.6980   20.4520 C   0  0  0  0  0  0
   15.9750    0.0470   19.2650 C   0  0  0  0  0  0
   16.9850   -0.0630   18.1320 C   0  0  0  0  0  0
   17.3070    1.3580   17.7030 C   0  0  2  0  0  0
   18.2120    1.2710   16.4990 C   0  0  0  0  0  0
   22.4240    1.4330   18.5120 N   0  0  0  0  0  0
   23.7890    1.0830   18.8650 C   0  0  0  0  0  0
   24.6260    2.3600   18.9800 C   0  0  0  0  0  0
   23.8520    0.2840   20.1620 C   0  0  0  0  0  0
   24.3390    0.2050   17.7400 C   0  0  0  0  0  0
   20.3923   -7.4980   10.6524 H   0  0  0  0  0  0
   21.9064   -9.4663   10.6775 H   0  0  0  0  0  0
   23.0259  -11.2141   11.8814 H   0  0  0  0  0  0
   23.5647  -12.3290   14.0478 H   0  0  0  0  0  0
   22.5750  -11.4409   16.1452 H   0  0  0  0  0  0
   21.0789   -9.4741   16.1098 H   0  0  0  0  0  0
   19.0010   -6.3972   14.2227 H   0  0  0  0  0  0
   17.2747   -3.9461   13.4485 H   0  0  0  0  0  0
   16.6878   -5.8906   15.6045 H   0  0  0  0  0  0
   15.8159   -4.3728   15.2011 H   0  0  0  0  0  0
   16.1760   -7.7331   14.5020 H   0  0  0  0  0  0
   15.3668   -7.7524   12.7772 H   0  0  0  0  0  0
   18.7740   -0.4561   14.6193 H   0  0  0  0  0  0
   19.9534   -0.7508   12.5295 H   0  0  0  0  0  0
   20.2217   -2.1395   15.9825 H   0  0  0  0  0  0
   19.4519   -3.1209   13.2585 H   0  0  0  0  0  0
   21.8520   -1.7870   13.3698 H   0  0  0  0  0  0
   22.4207   -1.3587   15.0189 H   0  0  0  0  0  0
   22.5901   -3.2402   16.7559 H   0  0  0  0  0  0
   22.1021   -3.9648   12.5518 H   0  0  0  0  0  0
   23.3509   -5.5836   17.0675 H   0  0  0  0  0  0
   22.8373   -6.3133   12.8641 H   0  0  0  0  0  0
   23.4908   -7.1235   15.1236 H   0  0  0  0  0  0
   19.1897   -0.5701   17.1256 H   0  0  0  0  0  0
   21.1623    0.2692   15.9346 H   0  0  0  0  0  0
   19.9981    1.4008   15.1660 H   0  0  0  0  0  0
   20.3577    2.1445   17.2463 H   0  0  0  0  0  0
   19.1593    0.4987   19.5919 H   0  0  0  0  0  0
   19.9027    2.1255   19.7575 H   0  0  0  0  0  0
   18.0791    3.1624   18.5362 H   0  0  0  0  0  0
   17.7417    2.4883   20.9476 H   0  0  0  0  0  0
   16.2548    2.7484   19.9737 H   0  0  0  0  0  0
   17.5340    0.0812   20.7340 H   0  0  0  0  0  0
   15.9590    0.7405   21.2920 H   0  0  0  0  0  0
   15.6168   -0.9525   19.5525 H   0  0  0  0  0  0
   15.1213    0.6669   18.9536 H   0  0  0  0  0  0
   17.8868   -0.5787   18.4935 H   0  0  0  0  0  0
   16.5440   -0.6342   17.3018 H   0  0  0  0  0  0
   16.3930    1.9115   17.4420 H   0  0  0  0  0  0
   18.5263    2.2872   16.2185 H   0  0  0  0  0  0
   17.6521    0.8178   15.6676 H   0  0  0  0  0  0
   22.1302    2.4901   18.4326 H   0  0  0  0  0  0
   24.2270    2.9882   19.7900 H   0  0  0  0  0  0
   24.5819    2.9140   18.0307 H   0  0  0  0  0  0
   25.6703    2.0951   19.2019 H   0  0  0  0  0  0
   23.4609    0.8953   20.9886 H   0  0  0  0  0  0
   24.8958    0.0078   20.3722 H   0  0  0  0  0  0
   23.2447   -0.6276   20.0609 H   0  0  0  0  0  0
   24.3041    0.7603   16.7911 H   0  0  0  0  0  0
   23.7287   -0.7061   17.6543 H   0  0  0  0  0  0
   25.3797   -0.0707   17.9655 H   0  0  0  0  0  0
  1  2  2  0  0  0
  2  4  1  0  0  0
  2 13  1  0  0  0
  3  4  2  0  0  0
  3 12  1  0  0  0
  4  5  1  0  0  0
  5  6  2  0  0  0
  5 50  1  0  0  0
  6  7  1  0  0  0
  6 51  1  0  0  0
  7  8  1  0  0  0
  7 12  2  0  0  0
  8  9  2  0  0  0
  8 52  1  0  0  0
  9 10  1  0  0  0
  9 53  1  0  0  0
 10 11  2  0  0  0
 10 54  1  0  0  0
 11 12  1  0  0  0
 11 55  1  0  0  0
 13 14  1  0  0  0
 13 56  1  0  0  0
 14 15  1  0  0  0
 14 17  1  0  0  0
 14 57  1  0  0  0
 15 16  2  0  0  0
 15 24  1  0  0  0
 17 18  1  0  0  0
 17 58  1  0  0  0
 17 59  1  0  0  0
 18 19  2  0  0  0
 18 20  1  0  0  0
 20 60  1  0  0  0
 20 61  1  0  0  0
 21 22  1  0  0  0
 21 23  1  0  0  0
 21 33  1  0  0  0
 21 62  1  0  0  0
 22 63  1  0  0  0
 23 24  1  0  0  0
 23 25  1  0  0  0
 23 64  1  0  0  0
 24 65  1  0  0  0
 25 26  1  0  0  0
 25 66  1  0  0  0
 25 67  1  0  0  0
 26 27  2  0  0  0
 26 28  1  0  0  0
 27 29  1  0  0  0
 27 68  1  0  0  0
 28 30  2  0  0  0
 28 69  1  0  0  0
 29 31  2  0  0  0
 29 70  1  0  0  0
 30 31  1  0  0  0
 30 71  1  0  0  0
 31 72  1  0  0  0
 32 33  1  0  0  0
 32 34  1  0  0  0
 32 44  1  0  0  0
 32 73  1  0  0  0
 33 74  1  0  0  0
 33 75  1  0  0  0
 34 35  1  0  0  0
 34 37  1  0  0  0
 34 76  1  0  0  0
 35 36  2  0  0  0
 35 45  1  0  0  0
 37 38  1  0  0  0
 37 77  1  0  0  0
 37 78  1  0  0  0
 38 39  1  0  0  0
 38 43  1  0  0  0
 38 79  1  0  0  0
 39 40  1  0  0  0
 39 80  1  0  0  0
 39 81  1  0  0  0
 40 41  1  0  0  0
 40 82  1  0  0  0
 40 83  1  0  0  0
 41 42  1  0  0  0
 41 84  1  0  0  0
 41 85  1  0  0  0
 42 43  1  0  0  0
 42 86  1  0  0  0
 42 87  1  0  0  0
 43 44  1  0  0  0
 43 88  1  0  0  0
 44 89  1  0  0  0
 44 90  1  0  0  0
 45 46  1  0  0  0
 45 91  1  0  0  0
 46 47  1  0  0  0
 46 48  1  0  0  0
 46 49  1  0  0  0
 47 92  1  0  0  0
 47 93  1  0  0  0
 47 94  1  0  0  0
 48 95  1  0  0  0
 48 96  1  0  0  0
 48 97  1  0  0  0
 49 98  1  0  0  0
 49 99  1  0  0  0
 49100  1  0  0  0
M  CHG  1  32   1
M  END
> <s_m_source_file>
../2fgu_ligand.sdf

> <i_m_source_file_index>
1

> <s_epik_input>
W2NIXTFbY0hdW2NIXVtjSF1jKGMxMiluYyhbY0hdW2NIXTIpQyg9TylbTkhdW0NAQEhdKFtDSDJdQyg9TylbTkgyXSlDKD1PKVtOSF1bQ0BASF0oW0NIMl1jM1tjSF1bY0hdW2NIXVtjSF1bY0hdMylbQ0BIXShbT0hdKVtDSDJdW05AQEgrXShbQ0BASF0oW0NIMl00KUMoPU8pW05IXUMoW0NIM10pKFtDSDNdKVtDSDNdKVtDSDJdW0NASF0oW0NASF00NSlbQ0gyXVtDSDJdW0NIMl1bQ0gyXTU=

> <s_epik_cmdline>
J2VwaWtfYXBwJywgJy1pbWFlJywgJ2xpZ2FuZF9wcm8ubWFlJywgJy1vbWFlJywgJ2xpZ2FuZF9wcmVwLm1hZScsICctbXMnLCAnMScsICctcGgnLCAnNycsICctcGh0JywgJzAuNScsICctbnQn

> <r_epik_Ionization_Penalty>
  0.0170

> <r_epik_Ionization_Penalty_Charging>
  0.0167

> <r_epik_Ionization_Penalty_Neutral>
  0.0002

> <r_epik_State_Penalty>
  0.0132

> <r_epik_Charging_Adjusted_Penalty>
0.0299262088794582

> <i_epik_Tot_Q>
1

> <i_epik_Tot_abs_Q>
1

$$$$
