2fgv_ligand
                    3D
 Schrodinger Suite 2020-3.
100104  0  0  1  0            999 V2000
   18.8700   -5.7580   11.7800 O   0  0  0  0  0  0
   19.1110   -6.2710   12.8630 C   0  0  0  0  0  0
   20.1670   -8.0980   14.1680 N   0  0  0  0  0  0
   19.9340   -7.5150   12.9700 C   0  0  0  0  0  0
   20.4480   -8.0640   11.8050 C   0  0  0  0  0  0
   21.2080   -9.2210   11.8830 C   0  0  0  0  0  0
   21.4460   -9.8060   13.1130 C   0  0  0  0  0  0
   22.2110  -10.9660   13.1750 C   0  0  0  0  0  0
   22.4580  -11.5700   14.3980 C   0  0  0  0  0  0
   21.9330  -10.9940   15.5470 C   0  0  0  0  0  0
   21.1660   -9.8340   15.4800 C   0  0  0  0  0  0
   20.9140   -9.2240   14.2560 C   0  0  0  0  0  0
   18.5410   -5.5750   13.8430 N   0  0  0  0  0  0
   17.7700   -4.4790   14.3540 C   0  0  2  0  0  0
   18.6100   -3.5830   15.2210 C   0  0  0  0  0  0
   18.5820   -3.7060   16.4270 O   0  0  0  0  0  0
   16.4340   -4.9060   14.9250 C   0  0  0  0  0  0
   15.7120   -5.5660   13.7760 C   0  0  0  0  0  0
   15.3510   -4.9030   12.8210 O   0  0  0  0  0  0
   15.5220   -6.8820   13.8570 N   0  0  0  0  0  0
   19.7960   -0.2620   14.8820 C   0  0  1  0  0  0
   19.9750    0.1130   13.6100 O   0  0  0  0  0  0
   20.1830   -1.6790   15.2030 C   0  0  1  0  0  0
   19.3300   -2.6650   14.5610 N   0  0  0  0  0  0
   21.6410   -1.8640   14.7870 C   0  0  0  0  0  0
   22.1010   -3.3000   14.8710 C   0  0  0  0  0  0
   22.4900   -3.8380   16.0920 C   0  0  0  0  0  0
   22.1450   -4.0690   13.7140 C   0  0  0  0  0  0
   22.9100   -5.1640   16.1660 C   0  0  0  0  0  0
   22.5680   -5.3930   13.7920 C   0  0  0  0  0  0
   22.9490   -5.9360   15.0130 C   0  0  0  0  0  0
   19.3010    0.7580   17.0120 N   0  3  1  0  0  0
   20.0660    0.6710   15.8190 C   0  0  0  0  0  0
   20.0680    1.4420   18.0620 C   0  0  2  0  0  0
   21.3690    0.7550   18.3770 C   0  0  0  0  0  0
   21.4120   -0.4620   18.5070 O   0  0  0  0  0  0
   19.2850    1.5310   19.3710 C   0  0  0  0  0  0
   17.9750    2.2900   19.2090 C   0  0  2  0  0  0
   17.1590    2.2740   20.5010 C   0  0  0  0  0  0
   16.4760    0.9420   20.7850 C   0  0  0  0  0  0
   15.6610    0.5000   19.5780 C   0  0  0  0  0  0
   16.5840    0.3680   18.3720 C   0  0  0  0  0  0
   17.2210    1.7140   18.0180 C   0  0  2  0  0  0
   18.0790    1.5410   16.7690 C   0  0  0  0  0  0
   22.4050    1.5870   18.5420 N   0  0  0  0  0  0
   23.7600    1.2220   18.9110 C   0  0  0  0  0  0
   24.6140    2.4910   19.0120 C   0  0  0  0  0  0
   23.7560    0.5160   20.2620 C   0  0  0  0  0  0
   24.3100    0.3130   17.8100 C   0  0  0  0  0  0
   20.2571   -7.5924   10.8410 H   0  0  0  0  0  0
   21.6168   -9.6683   10.9770 H   0  0  0  0  0  0
   22.6166  -11.4004   12.2613 H   0  0  0  0  0  0
   23.0538  -12.4809   14.4566 H   0  0  0  0  0  0
   22.1240  -11.4566   16.5153 H   0  0  0  0  0  0
   20.7599   -9.4006   16.3940 H   0  0  0  0  0  0
   18.9454   -6.3314   14.5318 H   0  0  0  0  0  0
   17.5075   -3.8805   13.4692 H   0  0  0  0  0  0
   16.5980   -5.6060   15.7576 H   0  0  0  0  0  0
   15.8921   -4.0215   15.2910 H   0  0  0  0  0  0
   15.8681   -7.4341   14.7432 H   0  0  0  0  0  0
   15.0191   -7.4165   13.0377 H   0  0  0  0  0  0
   18.7054   -0.1198   14.9003 H   0  0  0  0  0  0
   19.7741   -0.5967   12.7939 H   0  0  0  0  0  0
   20.0138   -1.8699   16.2730 H   0  0  0  0  0  0
   19.2457   -2.6888   13.4645 H   0  0  0  0  0  0
   21.7703   -1.5322   13.7462 H   0  0  0  0  0  0
   22.2888   -1.2667   15.4454 H   0  0  0  0  0  0
   22.4664   -3.2225   16.9913 H   0  0  0  0  0  0
   21.8515   -3.6400   12.7559 H   0  0  0  0  0  0
   23.2062   -5.5928   17.1233 H   0  0  0  0  0  0
   22.6005   -6.0063   12.8915 H   0  0  0  0  0  0
   23.2801   -6.9732   15.0657 H   0  0  0  0  0  0
   19.0684   -0.2774   17.3016 H   0  0  0  0  0  0
   21.0940    0.5351   16.1862 H   0  0  0  0  0  0
   19.9636    1.6736   15.3783 H   0  0  0  0  0  0
   20.2600    2.4305   17.6194 H   0  0  0  0  0  0
   19.0499    0.5172   19.7273 H   0  0  0  0  0  0
   19.8908    2.0536   20.1259 H   0  0  0  0  0  0
   18.1792    3.3510   19.0025 H   0  0  0  0  0  0
   17.8191    2.4892   21.3542 H   0  0  0  0  0  0
   16.3700    3.0385   20.4459 H   0  0  0  0  0  0
   17.2374    0.1788   21.0038 H   0  0  0  0  0  0
   15.8063    1.0506   21.6509 H   0  0  0  0  0  0
   15.1889   -0.4707   19.7899 H   0  0  0  0  0  0
   14.8826    1.2481   19.3673 H   0  0  0  0  0  0
   17.3842   -0.3516   18.5997 H   0  0  0  0  0  0
   16.0068    0.0125   17.5057 H   0  0  0  0  0  0
   16.4485    2.4612   17.7835 H   0  0  0  0  0  0
   18.3518    2.5446   16.4106 H   0  0  0  0  0  0
   17.4642    1.0351   16.0099 H   0  0  0  0  0  0
   22.1477    2.6422   18.3680 H   0  0  0  0  0  0
   24.2138    3.1401   19.8048 H   0  0  0  0  0  0
   24.5891    3.0271   18.0518 H   0  0  0  0  0  0
   25.6518    2.2164   19.2519 H   0  0  0  0  0  0
   23.3559    1.1950   21.0294 H   0  0  0  0  0  0
   24.7836    0.2271   20.5278 H   0  0  0  0  0  0
   23.1256   -0.3836   20.2037 H   0  0  0  0  0  0
   24.2992    0.8512   16.8507 H   0  0  0  0  0  0
   23.6841   -0.5882   17.7319 H   0  0  0  0  0  0
   25.3421    0.0225   18.0559 H   0  0  0  0  0  0
  1  2  2  0  0  0
  2  4  1  0  0  0
  2 13  1  0  0  0
  3  4  2  0  0  0
  3 12  1  0  0  0
  4  5  1  0  0  0
  5  6  2  0  0  0
  5 50  1  0  0  0
  6  7  1  0  0  0
  6 51  1  0  0  0
  7  8  1  0  0  0
  7 12  2  0  0  0
  8  9  2  0  0  0
  8 52  1  0  0  0
  9 10  1  0  0  0
  9 53  1  0  0  0
 10 11  2  0  0  0
 10 54  1  0  0  0
 11 12  1  0  0  0
 11 55  1  0  0  0
 13 14  1  0  0  0
 13 56  1  0  0  0
 14 15  1  0  0  0
 14 17  1  0  0  0
 14 57  1  0  0  0
 15 16  2  0  0  0
 15 24  1  0  0  0
 17 18  1  0  0  0
 17 58  1  0  0  0
 17 59  1  0  0  0
 18 19  2  0  0  0
 18 20  1  0  0  0
 20 60  1  0  0  0
 20 61  1  0  0  0
 21 22  1  0  0  0
 21 23  1  0  0  0
 21 33  1  0  0  0
 21 62  1  0  0  0
 22 63  1  0  0  0
 23 24  1  0  0  0
 23 25  1  0  0  0
 23 64  1  0  0  0
 24 65  1  0  0  0
 25 26  1  0  0  0
 25 66  1  0  0  0
 25 67  1  0  0  0
 26 27  2  0  0  0
 26 28  1  0  0  0
 27 29  1  0  0  0
 27 68  1  0  0  0
 28 30  2  0  0  0
 28 69  1  0  0  0
 29 31  2  0  0  0
 29 70  1  0  0  0
 30 31  1  0  0  0
 30 71  1  0  0  0
 31 72  1  0  0  0
 32 33  1  0  0  0
 32 34  1  0  0  0
 32 44  1  0  0  0
 32 73  1  0  0  0
 33 74  1  0  0  0
 33 75  1  0  0  0
 34 35  1  0  0  0
 34 37  1  0  0  0
 34 76  1  0  0  0
 35 36  2  0  0  0
 35 45  1  0  0  0
 37 38  1  0  0  0
 37 77  1  0  0  0
 37 78  1  0  0  0
 38 39  1  0  0  0
 38 43  1  0  0  0
 38 79  1  0  0  0
 39 40  1  0  0  0
 39 80  1  0  0  0
 39 81  1  0  0  0
 40 41  1  0  0  0
 40 82  1  0  0  0
 40 83  1  0  0  0
 41 42  1  0  0  0
 41 84  1  0  0  0
 41 85  1  0  0  0
 42 43  1  0  0  0
 42 86  1  0  0  0
 42 87  1  0  0  0
 43 44  1  0  0  0
 43 88  1  0  0  0
 44 89  1  0  0  0
 44 90  1  0  0  0
 45 46  1  0  0  0
 45 91  1  0  0  0
 46 47  1  0  0  0
 46 48  1  0  0  0
 46 49  1  0  0  0
 47 92  1  0  0  0
 47 93  1  0  0  0
 47 94  1  0  0  0
 48 95  1  0  0  0
 48 96  1  0  0  0
 48 97  1  0  0  0
 49 98  1  0  0  0
 49 99  1  0  0  0
 49100  1  0  0  0
M  CHG  1  32   1
M  END
> <s_m_source_file>
../2fgv_ligand.sdf

> <i_m_source_file_index>
1

> <s_epik_input>
W2NIXTFbY0hdW2NIXVtjSF1jKGMxMiluYyhbY0hdW2NIXTIpQyg9TylbTkhdW0NAQEhdKFtDSDJdQyg9TylbTkgyXSlDKD1PKVtOSF1bQ0BASF0oW0NIMl1jM1tjSF1bY0hdW2NIXVtjSF1bY0hdMylbQ0BIXShbT0hdKVtDSDJdW05AQEgrXShbQ0BASF0oW0NIMl00KUMoPU8pW05IXUMoW0NIM10pKFtDSDNdKVtDSDNdKVtDSDJdW0NASF0oW0NASF00NSlbQ0gyXVtDSDJdW0NIMl1bQ0gyXTU=

> <s_epik_cmdline>
J2VwaWtfYXBwJywgJy1pbWFlJywgJ2xpZ2FuZF9wcm8ubWFlJywgJy1vbWFlJywgJ2xpZ2FuZF9wcmVwLm1hZScsICctbXMnLCAnMScsICctcGgnLCAnNycsICctcGh0JywgJzAuNScsICctbnQn

> <r_epik_Ionization_Penalty>
  0.0170

> <r_epik_Ionization_Penalty_Charging>
  0.0167

> <r_epik_Ionization_Penalty_Neutral>
  0.0002

> <r_epik_State_Penalty>
  0.0132

> <r_epik_Charging_Adjusted_Penalty>
0.0299262088794582

> <i_epik_Tot_Q>
1

> <i_epik_Tot_abs_Q>
1

$$$$
