2fhy_ligand
                    3D
 Schrodinger Suite 2020-3.
 28 30  0  0  1  0            999 V2000
   48.8660   -7.4770   22.1400 C   0  0  0  0  0  0
   47.4540   -7.2690   21.8960 C   0  0  0  0  0  0
   46.9750   -5.9460   21.8170 C   0  0  0  0  0  0
   47.8730   -4.8120   21.9830 C   0  0  0  0  0  0
   49.2780   -5.0420   22.2320 C   0  0  0  0  0  0
   49.7670   -6.3570   22.3080 C   0  0  0  0  0  0
   50.3250   -3.6290   22.4380 S   0  0  0  0  0  0
   49.4650   -2.4070   22.2770 O   0  0  0  0  0  0
   51.5230   -3.7530   21.4880 O   0  0  0  0  0  0
   50.9830   -3.6290   24.0190 N   0  5  0  0  0  0
   50.3040   -3.0190   25.2260 C   0  0  0  0  0  0
   49.0040   -2.5490   25.2760 N   0  0  0  0  0  0
   48.7610   -2.0700   26.5930 C   0  0  0  0  0  0
   47.6310   -1.4910   27.2520 C   0  0  0  0  0  0
   47.7490   -1.1160   28.6400 C   0  0  0  0  0  0
   46.3910   -0.4150   29.4580 Cl  0  0  0  0  0  0
   48.9720   -1.3150   29.3650 C   0  0  0  0  0  0
   50.1140   -1.9060   28.7090 C   0  0  0  0  0  0
   50.0220   -2.2880   27.3420 C   0  0  0  0  0  0
   50.9400   -2.8700   26.4610 O   0  0  0  0  0  0
   45.2980   -5.6930   21.5180 Cl  0  0  0  0  0  0
   51.4630   -6.6810   22.6050 Cl  0  0  0  0  0  0
   49.2564   -8.4930   22.1981 H   0  0  0  0  0  0
   46.7777   -8.1154   21.7763 H   0  0  0  0  0  0
   47.4875   -3.7944   21.9198 H   0  0  0  0  0  0
   46.6958   -1.3357   26.7140 H   0  0  0  0  0  0
   49.0383   -1.0195   30.4121 H   0  0  0  0  0  0
   51.0427   -2.0588   29.2588 H   0  0  0  0  0  0
  1  2  2  0  0  0
  1  6  1  0  0  0
  1 23  1  0  0  0
  2  3  1  0  0  0
  2 24  1  0  0  0
  3  4  2  0  0  0
  3 21  1  0  0  0
  4  5  1  0  0  0
  4 25  1  0  0  0
  5  6  2  0  0  0
  5  7  1  0  0  0
  6 22  1  0  0  0
  7  8  2  0  0  0
  7  9  2  0  0  0
  7 10  1  0  0  0
 10 11  1  0  0  0
 11 12  2  0  0  0
 11 20  1  0  0  0
 12 13  1  0  0  0
 13 14  2  0  0  0
 13 19  1  0  0  0
 14 15  1  0  0  0
 14 26  1  0  0  0
 15 16  1  0  0  0
 15 17  2  0  0  0
 17 18  1  0  0  0
 17 27  1  0  0  0
 18 19  2  0  0  0
 18 28  1  0  0  0
 19 20  1  0  0  0
M  CHG  1  10  -1
M  END
> <s_m_source_file>
../2fhy_ligand.sdf

> <i_m_source_file_index>
1

> <s_epik_input>
Q2xjMVtjSF1bY0hdYyhDbCljKFtjSF0xKVMoPU8pKD1PKVtOSF1jKG4yKW9jKGMyMylbY0hdW2NIXWMoQ2wpW2NIXTM=

> <s_epik_cmdline>
J2VwaWtfYXBwJywgJy1pbWFlJywgJ2xpZ2FuZF9wcm8ubWFlJywgJy1vbWFlJywgJ2xpZ2FuZF9wcmVwLm1hZScsICctbXMnLCAnMScsICctcGgnLCAnNycsICctcGh0JywgJzAuNScsICctbnQn

> <r_lp_tautomer_probability>
1

> <r_epik_Ionization_Penalty>
  0.0094

> <r_epik_Ionization_Penalty_Charging>
  0.0012

> <r_epik_Ionization_Penalty_Neutral>
  0.0081

> <r_epik_State_Penalty>
 -0.0000

> <r_epik_Charging_Adjusted_Penalty>
0.00122635306070374

> <i_epik_Tot_Q>
-1

> <i_epik_Tot_abs_Q>
1

$$$$
