2fix_ligand
                    3D
 Schrodinger Suite 2020-3.
 44 47  0  0  1  0            999 V2000
   49.4390   -7.4190   22.7650 C   0  0  0  0  0  0
   48.0420   -7.1840   22.8550 C   0  0  0  0  0  0
   47.5550   -5.8640   22.9660 C   0  0  0  0  0  0
   48.4120   -4.7910   22.9920 C   0  0  0  0  0  0
   49.8130   -4.9770   22.9110 C   0  0  0  0  0  0
   50.3380   -6.3120   22.7940 C   0  0  0  0  0  0
   50.8060   -3.5230   22.9680 S   0  0  0  0  0  0
   49.9390   -2.3670   23.0470 O   0  0  0  0  0  0
   51.7180   -3.5610   21.8490 O   0  0  0  0  0  0
   51.7010   -3.5390   24.3350 N   0  5  0  0  0  0
   51.1820   -3.1360   25.6750 C   0  0  0  0  0  0
   49.8940   -2.7300   25.9710 N   0  0  0  0  0  0
   49.9070   -2.4390   27.2980 C   0  0  0  0  0  0
   48.8500   -1.9780   28.0470 C   0  0  0  0  0  0
   49.0250   -1.7080   29.3950 C   0  0  0  0  0  0
   50.3060   -1.9100   29.9990 C   0  0  0  0  0  0
   51.4080   -2.3850   29.2420 C   0  0  0  0  0  0
   51.1850   -2.6730   27.7860 C   0  0  0  0  0  0
   51.9820   -3.1070   26.7990 O   0  0  0  0  0  0
   45.8710   -5.5850   23.0720 Cl  0  0  0  0  0  0
   52.0490   -6.6450   22.6780 Cl  0  0  0  0  0  0
   47.8850   -1.2230   30.0570 O   0  0  0  0  0  0
   48.0420   -0.7980   31.3970 C   0  0  0  0  0  0
   55.1920   -3.2130   29.8120 C   0  0  0  0  0  0
   55.3750   -2.8770   31.1680 C   0  0  0  0  0  0
   54.2940   -2.3830   31.9210 C   0  0  0  0  0  0
   53.0110   -2.2290   31.3160 C   0  0  0  0  0  0
   52.7990   -2.5630   29.9350 C   0  0  0  0  0  0
   53.9230   -3.0510   29.2150 C   0  0  0  0  0  0
   54.4710   -2.0590   33.2240 N   0  0  0  0  0  0
   49.8211   -8.4358   22.6746 H   0  0  0  0  0  0
   47.3458   -8.0225   22.8384 H   0  0  0  0  0  0
   48.0078   -3.7822   23.0762 H   0  0  0  0  0  0
   47.8764   -1.8252   27.5814 H   0  0  0  0  0  0
   50.4378   -1.6952   31.0595 H   0  0  0  0  0  0
   47.0750   -0.4460   31.7857 H   0  0  0  0  0  0
   48.7742    0.0219   31.4382 H   0  0  0  0  0  0
   48.3989   -1.6394   32.0091 H   0  0  0  0  0  0
   56.0272   -3.5966   29.2260 H   0  0  0  0  0  0
   56.3531   -2.9996   31.6332 H   0  0  0  0  0  0
   52.1790   -1.8521   31.9108 H   0  0  0  0  0  0
   53.8008   -3.3097   28.1632 H   0  0  0  0  0  0
   55.4600   -2.1776   33.6908 H   0  0  0  0  0  0
   53.6258   -1.6773   33.8155 H   0  0  0  0  0  0
  1  2  2  0  0  0
  1  6  1  0  0  0
  1 31  1  0  0  0
  2  3  1  0  0  0
  2 32  1  0  0  0
  3  4  2  0  0  0
  3 20  1  0  0  0
  4  5  1  0  0  0
  4 33  1  0  0  0
  5  6  2  0  0  0
  5  7  1  0  0  0
  6 21  1  0  0  0
  7  8  2  0  0  0
  7  9  2  0  0  0
  7 10  1  0  0  0
 10 11  1  0  0  0
 11 12  2  0  0  0
 11 19  1  0  0  0
 12 13  1  0  0  0
 13 14  2  0  0  0
 13 18  1  0  0  0
 14 15  1  0  0  0
 14 34  1  0  0  0
 15 16  2  0  0  0
 15 22  1  0  0  0
 16 17  1  0  0  0
 16 35  1  0  0  0
 17 18  2  0  0  0
 17 28  1  0  0  0
 18 19  1  0  0  0
 22 23  1  0  0  0
 23 36  1  0  0  0
 23 37  1  0  0  0
 23 38  1  0  0  0
 24 25  2  0  0  0
 24 29  1  0  0  0
 24 39  1  0  0  0
 25 26  1  0  0  0
 25 40  1  0  0  0
 26 27  2  0  0  0
 26 30  1  0  0  0
 27 28  1  0  0  0
 27 41  1  0  0  0
 28 29  2  0  0  0
 29 42  1  0  0  0
 30 43  1  0  0  0
 30 44  1  0  0  0
M  CHG  1  10  -1
M  END
> <s_m_source_file>
../2fix_ligand.sdf

> <i_m_source_file_index>
1

> <s_epik_input>
Q2xjMVtjSF1bY0hdYyhDbCljKFtjSF0xKVMoPU8pKD1PKVtOSF1jKG4yKW9jKGMyMyljKFtjSF1jKFtjSF0zKU9bQ0gzXSktYyhbY0hdNClbY0hdW2NIXVtjSF1jNFtOSDJd

> <s_epik_cmdline>
J2VwaWtfYXBwJywgJy1pbWFlJywgJ2xpZ2FuZF9wcm8ubWFlJywgJy1vbWFlJywgJ2xpZ2FuZF9wcmVwLm1hZScsICctbXMnLCAnMScsICctcGgnLCAnNycsICctcGh0JywgJzAuNScsICctbnQn

> <r_epik_Ionization_Penalty>
  0.1023

> <r_epik_Ionization_Penalty_Charging>
  0.0026

> <r_epik_Ionization_Penalty_Neutral>
  0.0997

> <r_epik_State_Penalty>
  0.0887

> <r_epik_Charging_Adjusted_Penalty>
0.0912343437219359

> <i_epik_Tot_Q>
-1

> <i_epik_Tot_abs_Q>
1

$$$$
