2fj0_ligand
                    3D
 Schrodinger Suite 2020-3.
 37 36  0  0  1  0            999 V2000
   35.3740   48.8220   76.9990 C   0  0  0  0  0  0
   35.5220   49.9570   75.9790 C   0  0  0  0  0  0
   34.7200   49.6510   74.7150 C   0  0  0  0  0  0
   34.7440   50.8190   73.7290 C   0  0  0  0  0  0
   33.9090   50.4980   72.4840 C   0  0  0  0  0  0
   34.5670   49.3710   71.6880 C   0  0  0  0  0  0
   33.6600   48.7890   70.6010 C   0  0  0  0  0  0
   33.3130   49.7870   69.4930 C   0  0  0  0  0  0
   32.5630   48.9280   68.0640 S   0  0  0  0  0  0
   31.6060   50.2850   67.3000 C   0  0  0  0  0  0
   30.2610   49.8280   66.7270 C   0  0  1  0  0  0
   30.4970   48.7140   65.8590 O   0  0  0  0  0  0
   29.1990   49.4580   67.7700 C   0  0  0  0  0  0
   28.0620   49.1600   67.1500 F   0  0  0  0  0  0
   28.9490   50.4840   68.5780 F   0  0  0  0  0  0
   29.5680   48.4150   68.5080 F   0  0  0  0  0  0
   35.9577   49.0606   77.9003 H   0  0  0  0  0  0
   35.7445   47.8839   76.5600 H   0  0  0  0  0  0
   34.3137   48.7072   77.2685 H   0  0  0  0  0  0
   35.1516   50.8951   76.4180 H   0  0  0  0  0  0
   36.5823   50.0719   75.7095 H   0  0  0  0  0  0
   35.1463   48.7688   74.2149 H   0  0  0  0  0  0
   33.6729   49.4492   74.9850 H   0  0  0  0  0  0
   34.3291   51.7156   74.2126 H   0  0  0  0  0  0
   35.7809   51.0161   73.4192 H   0  0  0  0  0  0
   32.9004   50.1832   72.7901 H   0  0  0  0  0  0
   33.8368   51.3939   71.8499 H   0  0  0  0  0  0
   35.4736   49.7514   71.1947 H   0  0  0  0  0  0
   34.8370   48.5504   72.3689 H   0  0  0  0  0  0
   34.1602   47.9320   70.1262 H   0  0  0  0  0  0
   32.7133   48.4571   71.0523 H   0  0  0  0  0  0
   32.5977   50.5285   69.8783 H   0  0  0  0  0  0
   34.2282   50.2987   69.1606 H   0  0  0  0  0  0
   31.3996   51.0582   68.0547 H   0  0  0  0  0  0
   32.1863   50.7236   66.4749 H   0  0  0  0  0  0
   29.8450   50.6511   66.1275 H   0  0  0  0  0  0
   31.2322   48.7971   65.0450 H   0  0  0  0  0  0
  1  2  1  0  0  0
  1 17  1  0  0  0
  1 18  1  0  0  0
  1 19  1  0  0  0
  2  3  1  0  0  0
  2 20  1  0  0  0
  2 21  1  0  0  0
  3  4  1  0  0  0
  3 22  1  0  0  0
  3 23  1  0  0  0
  4  5  1  0  0  0
  4 24  1  0  0  0
  4 25  1  0  0  0
  5  6  1  0  0  0
  5 26  1  0  0  0
  5 27  1  0  0  0
  6  7  1  0  0  0
  6 28  1  0  0  0
  6 29  1  0  0  0
  7  8  1  0  0  0
  7 30  1  0  0  0
  7 31  1  0  0  0
  8  9  1  0  0  0
  8 32  1  0  0  0
  8 33  1  0  0  0
  9 10  1  0  0  0
 10 11  1  0  0  0
 10 34  1  0  0  0
 10 35  1  0  0  0
 11 12  1  0  0  0
 11 13  1  0  0  0
 11 36  1  0  0  0
 12 37  1  0  0  0
 13 14  1  0  0  0
 13 15  1  0  0  0
 13 16  1  0  0  0
M  END
> <s_m_source_file>
../2fj0_ligand.sdf

> <i_m_source_file_index>
1

> <s_epik_input>
W0NIM11bQ0gyXVtDSDJdW0NIMl1bQ0gyXVtDSDJdW0NIMl1bQ0gyXVNbQ0gyXVtDQEBIXShbT0hdKUMoRikoRilG

> <s_epik_cmdline>
J2VwaWtfYXBwJywgJy1pbWFlJywgJ2xpZ2FuZF9wcm8ubWFlJywgJy1vbWFlJywgJ2xpZ2FuZF9wcmVwLm1hZScsICctbXMnLCAnMScsICctcGgnLCAnNycsICctcGh0JywgJzAuNScsICctbnQn

> <r_lp_tautomer_probability>
1

> <r_epik_Ionization_Penalty>
  0.0023

> <r_epik_Ionization_Penalty_Charging>
  0.0000

> <r_epik_Ionization_Penalty_Neutral>
  0.0023

> <r_epik_State_Penalty>
 -0.0000

> <r_epik_Charging_Adjusted_Penalty>
0

> <i_epik_Tot_Q>
0

> <i_epik_Tot_abs_Q>
0

$$$$
