2fjp_ligand
                    3D
 Schrodinger Suite 2020-3.
 57 60  0  0  1  0            999 V2000
   47.5750   52.1530   33.8220 C   0  0  0  0  0  0
   46.4920   52.6560   32.9590 C   0  0  0  0  0  0
   45.1990   52.4720   33.3700 C   0  0  0  0  0  0
   44.8740   51.8040   34.6720 C   0  0  0  0  0  0
   45.8940   51.3480   35.4530 C   0  0  0  0  0  0
   47.2840   51.5540   35.0120 N   0  0  0  0  0  0
   48.3290   51.2050   35.5900 N   0  0  0  0  0  0
   49.3290   51.6060   34.7910 C   0  0  0  0  0  0
   48.9020   52.2150   33.6670 N   0  0  0  0  0  0
   43.4820   51.6330   35.1370 C   0  0  0  0  0  0
   42.5980   52.7380   35.0280 C   0  0  0  0  0  0
   41.2820   52.6580   35.4820 C   0  0  0  0  0  0
   40.7780   51.4710   36.0630 C   0  0  0  0  0  0
   41.6620   50.3360   36.1660 C   0  0  0  0  0  0
   43.0040   50.4110   35.7080 C   0  0  0  0  0  0
   39.3180   51.4860   36.5720 C   0  0  1  0  0  0
   38.3460   50.9900   35.4420 C   0  0  1  0  0  0
   36.8970   51.0300   36.0240 C   0  0  0  0  0  0
   36.1220   49.9680   35.7960 N   0  0  0  0  0  0
   39.2940   50.4530   37.7980 C   0  0  0  0  0  0
   38.4220   51.8230   34.2480 N   0  3  0  0  0  0
   36.5100   51.9960   36.6630 O   0  0  0  0  0  0
   38.6650   49.3860   37.8000 O   0  0  0  0  0  0
   39.9030   50.9550   38.9830 N   0  0  0  0  0  0
   39.8980   50.0390   40.1500 C   0  0  0  0  0  0
   40.5090   52.2830   39.1860 C   0  0  0  0  0  0
   36.5690   48.5480   35.4690 C   0  0  0  0  0  0
   35.3620   47.6860   35.5160 C   0  0  2  0  0  0
   34.1870   48.6370   35.5250 C   0  0  0  0  0  0
   34.6860   50.0130   35.9680 C   0  0  0  0  0  0
   35.3670   47.0210   36.7240 F   0  0  0  0  0  0
   46.7141   53.1609   32.0189 H   0  0  0  0  0  0
   44.3850   52.8202   32.7341 H   0  0  0  0  0  0
   45.6834   50.8371   36.3925 H   0  0  0  0  0  0
   50.3822   51.4544   35.0272 H   0  0  0  0  0  0
   42.9543   53.6662   34.5812 H   0  0  0  0  0  0
   40.6297   53.5262   35.3874 H   0  0  0  0  0  0
   41.2945   49.4070   36.6018 H   0  0  0  0  0  0
   43.6632   49.5468   35.7905 H   0  0  0  0  0  0
   39.0113   52.5065   36.8450 H   0  0  0  0  0  0
   38.6366   49.9977   35.0666 H   0  0  0  0  0  0
   39.4442   51.7908   33.8429 H   0  0  0  0  0  0
   38.1628   52.8601   34.5074 H   0  0  0  0  0  0
   37.7163   51.4466   33.4928 H   0  0  0  0  0  0
   39.4212   49.0887   39.8681 H   0  0  0  0  0  0
   39.3364   50.5003   40.9758 H   0  0  0  0  0  0
   40.9327   49.8490   40.4714 H   0  0  0  0  0  0
   40.4492   52.8601   38.2514 H   0  0  0  0  0  0
   41.5632   52.1644   39.4768 H   0  0  0  0  0  0
   39.9669   52.8157   39.9812 H   0  0  0  0  0  0
   37.0202   48.5275   34.4660 H   0  0  0  0  0  0
   37.3101   48.2168   36.2113 H   0  0  0  0  0  0
   35.3372   46.9158   34.7310 H   0  0  0  0  0  0
   33.7577   48.6990   34.5141 H   0  0  0  0  0  0
   33.4230   48.2693   36.2258 H   0  0  0  0  0  0
   34.4492   50.2086   37.0243 H   0  0  0  0  0  0
   34.2669   50.8158   35.3436 H   0  0  0  0  0  0
  1  2  1  0  0  0
  1  6  1  0  0  0
  1  9  2  0  0  0
  2  3  2  0  0  0
  2 32  1  0  0  0
  3  4  1  0  0  0
  3 33  1  0  0  0
  4  5  2  0  0  0
  4 10  1  0  0  0
  5  6  1  0  0  0
  5 34  1  0  0  0
  6  7  1  0  0  0
  7  8  2  0  0  0
  8  9  1  0  0  0
  8 35  1  0  0  0
 10 11  2  0  0  0
 10 15  1  0  0  0
 11 12  1  0  0  0
 11 36  1  0  0  0
 12 13  2  0  0  0
 12 37  1  0  0  0
 13 14  1  0  0  0
 13 16  1  0  0  0
 14 15  2  0  0  0
 14 38  1  0  0  0
 15 39  1  0  0  0
 16 17  1  0  0  0
 16 20  1  0  0  0
 16 40  1  0  0  0
 17 18  1  0  0  0
 17 21  1  0  0  0
 17 41  1  0  0  0
 18 19  1  0  0  0
 18 22  2  0  0  0
 19 27  1  0  0  0
 19 30  1  0  0  0
 20 23  2  0  0  0
 20 24  1  0  0  0
 21 42  1  0  0  0
 21 43  1  0  0  0
 21 44  1  0  0  0
 24 25  1  0  0  0
 24 26  1  0  0  0
 25 45  1  0  0  0
 25 46  1  0  0  0
 25 47  1  0  0  0
 26 48  1  0  0  0
 26 49  1  0  0  0
 26 50  1  0  0  0
 27 28  1  0  0  0
 27 51  1  0  0  0
 27 52  1  0  0  0
 28 29  1  0  0  0
 28 31  1  0  0  0
 28 53  1  0  0  0
 29 30  1  0  0  0
 29 54  1  0  0  0
 29 55  1  0  0  0
 30 56  1  0  0  0
 30 57  1  0  0  0
M  CHG  1  21   1
M  END
> <s_m_source_file>
../2fjp_ligand.sdf

> <i_m_source_file_index>
1

> <s_epik_input>
bjFbY0hdbm4oYzEyKVtjSF1jKFtjSF1bY0hdMiktYzNbY0hdW2NIXWMoW2NIXVtjSF0zKVtDQEhdKEMoPU8pTihbQ0gzXSlbQ0gzXSlbQ0BIXShbTkgzK10pQyg9TylONFtDSDJdW0NAQEhdKEYpW0NIMl1bQ0gyXTQ=

> <s_epik_cmdline>
J2VwaWtfYXBwJywgJy1pbWFlJywgJ2xpZ2FuZF9wcm8ubWFlJywgJy1vbWFlJywgJ2xpZ2FuZF9wcmVwLm1hZScsICctbXMnLCAnMScsICctcGgnLCAnNycsICctcGh0JywgJzAuNScsICctbnQn

> <r_epik_Ionization_Penalty>
  0.3230

> <r_epik_Ionization_Penalty_Charging>
  0.3210

> <r_epik_Ionization_Penalty_Neutral>
  0.0020

> <r_epik_State_Penalty>
  0.3155

> <r_epik_Charging_Adjusted_Penalty>
0.636542692530279

> <i_epik_Tot_Q>
1

> <i_epik_Tot_abs_Q>
1

$$$$
