2fkf_ligand
                    3D
 Schrodinger Suite 2020-3.
 30 30  0  0  1  0            999 V2000
   48.7330   48.6270   18.9360 C   0  0  1  0  0  0
   49.1270   49.9380   18.2450 C   0  0  1  0  0  0
   48.9570   49.7970   16.7420 C   0  0  2  0  0  0
   49.8310   48.6480   16.2770 C   0  0  1  0  0  0
   49.4770   47.3660   17.0380 C   0  0  1  0  0  0
   50.3780   46.1950   16.6590 C   0  0  0  0  0  0
   47.3650   48.3050   18.7040 O   0  0  0  0  0  0
   48.3570   51.0310   18.7140 O   0  0  0  0  0  0
   49.3100   50.9960   16.0660 O   0  0  0  0  0  0
   49.6150   48.4810   14.8920 O   0  0  0  0  0  0
   49.5630   47.5790   18.4450 O   0  0  0  0  0  0
   51.7140   46.4670   17.0590 O   0  0  0  0  0  0
   52.7840   45.5820   16.4620 P   0  0  0  0  0  0
   52.7790   45.7340   14.9730 O   0  0  0  0  0  0
   52.5560   44.1480   16.8430 O   0  5  0  0  0  0
   54.1510   46.0020   16.9460 O   0  5  0  0  0  0
   46.7000   47.1090   19.3520 P   0  0  0  0  0  0
   47.1250   47.0230   20.7930 O   0  5  0  0  0  0
   47.0480   45.8100   18.6770 O   0  0  0  0  0  0
   45.2110   47.3280   19.2680 O   0  5  0  0  0  0
   48.8443   48.6726   20.0294 H   0  0  0  0  0  0
   50.1579   50.2154   18.5101 H   0  0  0  0  0  0
   47.9014   49.6527   16.4685 H   0  0  0  0  0  0
   50.9018   48.8705   16.3949 H   0  0  0  0  0  0
   48.4272   47.1124   16.8290 H   0  0  0  0  0  0
   50.0257   45.2831   17.1633 H   0  0  0  0  0  0
   50.3475   46.0465   15.5695 H   0  0  0  0  0  0
   48.3575   51.2851   19.7843 H   0  0  0  0  0  0
   48.7721   51.9300   16.2856 H   0  0  0  0  0  0
   49.8210   49.3103   14.1993 H   0  0  0  0  0  0
  1  2  1  0  0  0
  1  7  1  0  0  0
  1 11  1  0  0  0
  1 21  1  0  0  0
  2  3  1  0  0  0
  2  8  1  0  0  0
  2 22  1  0  0  0
  3  4  1  0  0  0
  3  9  1  0  0  0
  3 23  1  0  0  0
  4  5  1  0  0  0
  4 10  1  0  0  0
  4 24  1  0  0  0
  5  6  1  0  0  0
  5 11  1  0  0  0
  5 25  1  0  0  0
  6 12  1  0  0  0
  6 26  1  0  0  0
  6 27  1  0  0  0
  7 17  1  0  0  0
  8 28  1  0  0  0
  9 29  1  0  0  0
 10 30  1  0  0  0
 12 13  1  0  0  0
 13 14  2  0  0  0
 13 15  1  0  0  0
 13 16  1  0  0  0
 17 18  1  0  0  0
 17 19  2  0  0  0
 17 20  1  0  0  0
M  CHG  4  15  -1  16  -1  18  -1  20  -1
M  END
> <s_m_source_file>
../2fkf_ligand.sdf

> <i_m_source_file_index>
1

> <s_epik_input>
W09IXVAoPU8pKFtPSF0pT1tDQEBIXTFbQ0BIXShbT0hdKVtDQEBIXShbT0hdKVtDQEhdKFtPSF0pW0NASF0oTzEpW0NIMl1PUCg9TykoW09IXSlbT0hd

> <s_epik_cmdline>
J2VwaWtfYXBwJywgJy1pbWFlJywgJ2xpZ2FuZF9wcm8ubWFlJywgJy1vbWFlJywgJ2xpZ2FuZF9wcmVwLm1hZScsICctbXMnLCAnMScsICctcGgnLCAnNycsICctcGh0JywgJzAuNScsICctbnQn

> <r_lp_tautomer_probability>
1

> <r_epik_Ionization_Penalty>
  0.1807

> <r_epik_Ionization_Penalty_Charging>
  0.1807

> <r_epik_Ionization_Penalty_Neutral>
  0.0000

> <r_epik_State_Penalty>
 -0.0000

> <r_epik_Charging_Adjusted_Penalty>
0.180717085227923

> <i_epik_Tot_Q>
-4

> <i_epik_Tot_abs_Q>
4

> <s_epik_Chemistry_Notes>
This compound contains an acetal/aminal-like group ( X-CH(R)-Y where X, Y are N, S, or O) that may be acid/base labile, releasing an aldehyde.

$$$$
