2fky_ligand
                    3D
 Schrodinger Suite 2020-3.
 55 58  0  0  1  0            999 V2000
   22.0270   16.3490  105.6450 C   0  0  0  0  0  0
   20.9050   16.1340  106.4990 C   0  0  0  0  0  0
   20.9060   14.9220  107.2920 C   0  0  0  0  0  0
   22.0270   14.0560  107.1950 C   0  0  0  0  0  0
   23.1530   14.2680  106.3120 C   0  0  0  0  0  0
   23.1200   15.4480  105.5060 C   0  0  0  0  0  0
   19.7310   14.6070  108.1400 C   0  0  0  0  0  0
   18.5190   15.4940  108.1760 C   0  0  0  0  0  0
   17.7860   15.0500  109.3940 N   0  0  0  0  0  0
   18.4430   13.9430  110.0540 C   0  0  1  0  0  0
   19.5280   13.5160  109.1100 C   0  0  0  0  0  0
   18.3550   13.5460  111.4860 C   0  0  0  0  0  0
   17.4590   12.4730  111.9060 C   0  0  0  0  0  0
   17.4300   12.0460  113.2920 C   0  0  0  0  0  0
   18.3150   12.7240  114.2380 C   0  0  0  0  0  0
   19.2300   13.7900  113.8460 C   0  0  0  0  0  0
   19.2250   14.2150  112.4450 C   0  0  0  0  0  0
   16.5380   15.5200  109.6260 C   0  0  0  0  0  0
   16.4810   16.8900  109.7040 N   0  0  0  0  0  0
   15.3550   17.7300  109.4030 C   0  0  0  0  0  0
   21.9500   12.9980  107.9800 F   0  0  0  0  0  0
   22.0560   17.4310  104.9330 F   0  0  0  0  0  0
   15.5810   14.7580  109.7290 O   0  0  0  0  0  0
   14.1030   17.3760  110.2070 C   0  0  0  0  0  0
   17.6490   17.6700  110.1070 C   0  0  0  0  0  0
   14.9520   17.6680  107.9380 C   0  0  0  0  0  0
   12.9200   18.2980  109.9040 C   0  0  0  0  0  0
   13.7960   18.6170  107.5940 C   0  0  0  0  0  0
   12.6390   18.2580  108.4360 N   0  3  0  0  0  0
   20.0842   16.8492  106.5524 H   0  0  0  0  0  0
   23.9839   13.5641  106.2638 H   0  0  0  0  0  0
   23.9202   15.6548  104.7953 H   0  0  0  0  0  0
   18.8359   16.5453  108.2424 H   0  0  0  0  0  0
   17.9290   15.3461  107.2595 H   0  0  0  0  0  0
   17.6550   13.2871  110.4526 H   0  0  0  0  0  0
   20.1335   12.6001  109.0423 H   0  0  0  0  0  0
   16.8094   11.9908  111.1755 H   0  0  0  0  0  0
   16.7683   11.2437  113.6185 H   0  0  0  0  0  0
   18.2898   12.4188  115.2841 H   0  0  0  0  0  0
   19.8961   14.2552  114.5727 H   0  0  0  0  0  0
   19.8709   15.0305  112.1197 H   0  0  0  0  0  0
   15.7678   18.7101  109.6839 H   0  0  0  0  0  0
   13.7945   16.3469  109.9710 H   0  0  0  0  0  0
   14.3228   17.4555  111.2819 H   0  0  0  0  0  0
   18.4854   16.9904  110.3275 H   0  0  0  0  0  0
   17.4062   18.2562  111.0055 H   0  0  0  0  0  0
   17.9347   18.3505  109.2913 H   0  0  0  0  0  0
   15.8109   17.9458  107.3094 H   0  0  0  0  0  0
   14.6308   16.6458  107.6890 H   0  0  0  0  0  0
   12.0358   17.9552  110.4615 H   0  0  0  0  0  0
   13.1690   19.3257  110.2072 H   0  0  0  0  0  0
   14.1016   19.6546  107.7939 H   0  0  0  0  0  0
   13.5374   18.5094  106.5303 H   0  0  0  0  0  0
   12.3315   17.2416  108.1491 H   0  0  0  0  0  0
   11.8318   18.9662  108.1977 H   0  0  0  0  0  0
  1  2  2  0  0  0
  1  6  1  0  0  0
  1 22  1  0  0  0
  2  3  1  0  0  0
  2 30  1  0  0  0
  3  4  2  0  0  0
  3  7  1  0  0  0
  4  5  1  0  0  0
  4 21  1  0  0  0
  5  6  2  0  0  0
  5 31  1  0  0  0
  6 32  1  0  0  0
  7  8  1  0  0  0
  7 11  2  0  0  0
  8  9  1  0  0  0
  8 33  1  0  0  0
  8 34  1  0  0  0
  9 10  1  0  0  0
  9 18  1  0  0  0
 10 11  1  0  0  0
 10 12  1  0  0  0
 10 35  1  0  0  0
 11 36  1  0  0  0
 12 13  2  0  0  0
 12 17  1  0  0  0
 13 14  1  0  0  0
 13 37  1  0  0  0
 14 15  2  0  0  0
 14 38  1  0  0  0
 15 16  1  0  0  0
 15 39  1  0  0  0
 16 17  2  0  0  0
 16 40  1  0  0  0
 17 41  1  0  0  0
 18 19  1  0  0  0
 18 23  2  0  0  0
 19 20  1  0  0  0
 19 25  1  0  0  0
 20 24  1  0  0  0
 20 26  1  0  0  0
 20 42  1  0  0  0
 24 27  1  0  0  0
 24 43  1  0  0  0
 24 44  1  0  0  0
 25 45  1  0  0  0
 25 46  1  0  0  0
 25 47  1  0  0  0
 26 28  1  0  0  0
 26 48  1  0  0  0
 26 49  1  0  0  0
 27 29  1  0  0  0
 27 50  1  0  0  0
 27 51  1  0  0  0
 28 29  1  0  0  0
 28 52  1  0  0  0
 28 53  1  0  0  0
 29 54  1  0  0  0
 29 55  1  0  0  0
M  CHG  1  29   1
M  END
> <s_m_source_file>
../2fky_ligand.sdf

> <i_m_source_file_index>
1

> <s_epik_input>
W2NIXTFbY0hdYyhGKWMoW2NIXWMxRilDMj1bQ0hdW0NAQEhdKGMzW2NIXVtjSF1bY0hdW2NIXVtjSF0zKU4oW0NIMl0yKUMoPU8pTihbQ0gzXSlbQ0hdNFtDSDJdW0NIMl1bTkgyK11bQ0gyXVtDSDJdNA==

> <s_epik_cmdline>
J2VwaWtfYXBwJywgJy1pbWFlJywgJ2xpZ2FuZF9wcm8ubWFlJywgJy1vbWFlJywgJ2xpZ2FuZF9wcmVwLm1hZScsICctbXMnLCAnMScsICctcGgnLCAnNycsICctcGh0JywgJzAuNScsICctbnQn

> <r_lp_tautomer_probability>
1

> <r_epik_Ionization_Penalty>
  0.0001

> <r_epik_Ionization_Penalty_Charging>
  0.0001

> <r_epik_Ionization_Penalty_Neutral>
  0.0000

> <r_epik_State_Penalty>
 -0.0000

> <r_epik_Charging_Adjusted_Penalty>
9.06979128639885e-05

> <i_epik_Tot_Q>
1

> <i_epik_Tot_abs_Q>
1

$$$$
