2fl2_ligand
                    3D
 Schrodinger Suite 2020-3.
 47 50  0  0  1  0            999 V2000
   21.9820   16.3790  105.5390 C   0  0  0  0  0  0
   20.7930   16.1550  106.2310 C   0  0  0  0  0  0
   20.7620   15.0560  107.1100 C   0  0  0  0  0  0
   21.9300   14.2420  107.2160 C   0  0  0  0  0  0
   23.1200   14.4700  106.4990 C   0  0  0  0  0  0
   23.1290   15.5560  105.6310 C   0  0  0  0  0  0
   19.5130   14.8220  107.8570 C   0  0  0  0  0  0
   18.4410   15.8970  108.1650 C   0  0  0  0  0  0
   17.3760   15.1410  108.8260 N   0  0  0  0  0  0
   17.9070   13.8440  109.2640 C   0  0  1  0  0  0
   18.9770   13.6680  108.3700 C   0  0  0  0  0  0
   17.8880   13.4670  110.7040 C   0  0  0  0  0  0
   16.9850   12.4780  111.2750 C   0  0  0  0  0  0
   17.0270   12.2270  112.6810 C   0  0  0  0  0  0
   17.9770   12.9350  113.4740 C   0  0  0  0  0  0
   18.8290   13.9340  112.9340 C   0  0  0  0  0  0
   18.7820   14.2040  111.5690 C   0  0  0  0  0  0
   16.1210   15.4850  109.2350 C   0  0  0  0  0  0
   15.5870   16.9060  109.1450 C   0  0  2  0  0  0
   15.9790   17.7510  110.1300 C   0  0  0  0  0  0
   21.9010   13.1620  108.0260 F   0  0  0  0  0  0
   22.0090   17.5080  104.8360 F   0  0  0  0  0  0
   15.2570   14.7100  109.6430 O   0  0  0  0  0  0
   15.7780   19.1940  109.9750 C   0  0  0  0  0  0
   14.3210   16.9890  108.4370 N   0  3  0  0  0  0
   17.1300   18.6460  110.1420 C   0  0  0  0  0  0
   19.9260   16.8019  106.0975 H   0  0  0  0  0  0
   23.9916   13.8265  106.6186 H   0  0  0  0  0  0
   24.0108   15.7711  105.0275 H   0  0  0  0  0  0
   18.8731   16.6690  108.8187 H   0  0  0  0  0  0
   18.1043   16.3589  107.2252 H   0  0  0  0  0  0
   17.2813   12.9487  109.1340 H   0  0  0  0  0  0
   19.3882   12.6916  108.0741 H   0  0  0  0  0  0
   16.2859   11.9360  110.6381 H   0  0  0  0  0  0
   16.3464   11.5087  113.1381 H   0  0  0  0  0  0
   18.0521   12.7002  114.5358 H   0  0  0  0  0  0
   19.5126   14.4837  113.5811 H   0  0  0  0  0  0
   19.4247   14.9776  111.1488 H   0  0  0  0  0  0
   16.1195   17.6781  108.5702 H   0  0  0  0  0  0
   15.6647   16.9099  110.7654 H   0  0  0  0  0  0
   15.2914   19.3947  109.0091 H   0  0  0  0  0  0
   15.1404   19.5651  110.7909 H   0  0  0  0  0  0
   14.2640   16.1818  107.6919 H   0  0  0  0  0  0
   14.2478   17.9622  107.9296 H   0  0  0  0  0  0
   13.4928   16.8858  109.1535 H   0  0  0  0  0  0
   17.6592   18.5498  111.1015 H   0  0  0  0  0  0
   17.8103   18.3795  109.3197 H   0  0  0  0  0  0
  1  2  2  0  0  0
  1  6  1  0  0  0
  1 22  1  0  0  0
  2  3  1  0  0  0
  2 27  1  0  0  0
  3  4  2  0  0  0
  3  7  1  0  0  0
  4  5  1  0  0  0
  4 21  1  0  0  0
  5  6  2  0  0  0
  5 28  1  0  0  0
  6 29  1  0  0  0
  7  8  1  0  0  0
  7 11  2  0  0  0
  8  9  1  0  0  0
  8 30  1  0  0  0
  8 31  1  0  0  0
  9 10  1  0  0  0
  9 18  1  0  0  0
 10 11  1  0  0  0
 10 12  1  0  0  0
 10 32  1  0  0  0
 11 33  1  0  0  0
 12 13  2  0  0  0
 12 17  1  0  0  0
 13 14  1  0  0  0
 13 34  1  0  0  0
 14 15  2  0  0  0
 14 35  1  0  0  0
 15 16  1  0  0  0
 15 36  1  0  0  0
 16 17  2  0  0  0
 16 37  1  0  0  0
 17 38  1  0  0  0
 18 19  1  0  0  0
 18 23  2  0  0  0
 19 20  1  0  0  0
 19 25  1  0  0  0
 19 39  1  0  0  0
 20 24  1  0  0  0
 20 26  1  0  0  0
 20 40  1  0  0  0
 24 26  1  0  0  0
 24 41  1  0  0  0
 24 42  1  0  0  0
 25 43  1  0  0  0
 25 44  1  0  0  0
 25 45  1  0  0  0
 26 46  1  0  0  0
 26 47  1  0  0  0
M  CHG  1  25   1
M  END
> <s_m_source_file>
../2fl2_ligand.sdf

> <i_m_source_file_index>
1

> <s_epik_input>
W2NIXTFbY0hdYyhGKWMoW2NIXWMxRilDMj1bQ0hdW0NASF0oTihbQ0gyXTIpQyg9TylbQ0BASF0oW05IMytdKVtDSF0zW0NIMl1bQ0gyXTMpYzRbY0hdW2NIXVtjSF1bY0hdW2NIXTQ=

> <s_epik_cmdline>
J2VwaWtfYXBwJywgJy1pbWFlJywgJ2xpZ2FuZF9wcm8ubWFlJywgJy1vbWFlJywgJ2xpZ2FuZF9wcmVwLm1hZScsICctbXMnLCAnMScsICctcGgnLCAnNycsICctcGh0JywgJzAuNScsICctbnQn

> <r_epik_Ionization_Penalty>
  0.1062

> <r_epik_Ionization_Penalty_Charging>
  0.1062

> <r_epik_Ionization_Penalty_Neutral>
  0.0000

> <r_epik_State_Penalty>
  0.0961

> <r_epik_Charging_Adjusted_Penalty>
0.202346223167774

> <i_epik_Tot_Q>
1

> <i_epik_Tot_abs_Q>
1

$$$$
