2fl5_ligand
                    3D
 Schrodinger Suite 2020-3.
 47 49  0  0  1  0            999 V2000
   55.3470   86.2940   76.9890 N   0  0  0  0  0  0
   54.1710   85.7120   77.4570 C   0  0  0  0  0  0
   53.2240   85.6970   76.7120 O   0  0  0  0  0  0
   54.2310   85.2080   78.7210 N   0  0  0  0  0  0
   55.3130   85.2050   79.6210 C   0  0  0  0  0  0
   55.2190   84.7280   80.7030 O   0  0  0  0  0  0
   56.5650   85.8470   79.0780 C   0  0  0  0  0  0
   57.6290   85.9100   79.8560 N   0  0  0  0  0  0
   58.7990   86.5200   79.3590 C   0  0  0  0  0  0
   59.9100   86.5580   80.2830 C   0  0  0  0  0  0
   61.0640   87.1720   79.8080 C   0  0  0  0  0  0
   62.3380   87.2990   80.6640 C   0  0  0  0  0  0
   61.1000   87.7340   78.4540 C   0  0  0  0  0  0
   62.4210   88.4110   77.9750 C   0  0  0  0  0  0
   60.0530   87.7190   77.5320 C   0  0  0  0  0  0
   58.8590   87.0890   78.0360 C   0  0  0  0  0  0
   57.6270   86.9800   77.2060 N   0  0  0  0  0  0
   56.5180   86.3880   77.7500 C   0  0  0  0  0  0
   57.6310   87.5520   75.8220 C   0  0  0  0  0  0
   57.9190   86.3770   74.8630 C   0  0  2  0  0  0
   59.2980   85.9680   75.0170 O   0  0  0  0  0  0
   57.9340   86.6940   73.4380 C   0  0  2  0  0  0
   58.8890   87.7170   73.1710 O   0  0  0  0  0  0
   56.6290   87.1310   72.8590 C   0  0  2  0  0  0
   55.4910   86.2730   73.0180 O   0  0  0  0  0  0
   56.9980   87.3450   71.3370 C   0  0  0  0  0  0
   56.7710   86.0860   70.6740 O   0  0  0  0  0  0
   53.3479   84.7226   79.1621 H   0  0  0  0  0  0
   59.8475   86.1338   81.2851 H   0  0  0  0  0  0
   62.1666   86.8368   81.6474 H   0  0  0  0  0  0
   62.5860   88.3624   80.7969 H   0  0  0  0  0  0
   63.1713   86.7885   80.1591 H   0  0  0  0  0  0
   63.1698   88.3637   78.7794 H   0  0  0  0  0  0
   62.2226   89.4625   77.7201 H   0  0  0  0  0  0
   62.8021   87.8843   77.0877 H   0  0  0  0  0  0
   60.1304   88.1417   76.5303 H   0  0  0  0  0  0
   56.6504   88.0024   75.6086 H   0  0  0  0  0  0
   58.4126   88.3223   75.7458 H   0  0  0  0  0  0
   57.1485   85.6226   75.0803 H   0  0  0  0  0  0
   59.6694   85.6455   76.0009 H   0  0  0  0  0  0
   58.2354   85.7503   72.9599 H   0  0  0  0  0  0
   59.9283   87.6018   73.5123 H   0  0  0  0  0  0
   56.2193   87.9574   73.4583 H   0  0  0  0  0  0
   55.1188   86.0341   74.0252 H   0  0  0  0  0  0
   56.3578   88.1319   70.9117 H   0  0  0  0  0  0
   58.0528   87.6459   71.2542 H   0  0  0  0  0  0
   56.9617   85.9904   69.5949 H   0  0  0  0  0  0
  1  2  1  0  0  0
  1 18  2  0  0  0
  2  3  2  0  0  0
  2  4  1  0  0  0
  4  5  1  0  0  0
  4 28  1  0  0  0
  5  6  2  0  0  0
  5  7  1  0  0  0
  7  8  2  0  0  0
  7 18  1  0  0  0
  8  9  1  0  0  0
  9 10  2  0  0  0
  9 16  1  0  0  0
 10 11  1  0  0  0
 10 29  1  0  0  0
 11 12  1  0  0  0
 11 13  2  0  0  0
 12 30  1  0  0  0
 12 31  1  0  0  0
 12 32  1  0  0  0
 13 14  1  0  0  0
 13 15  1  0  0  0
 14 33  1  0  0  0
 14 34  1  0  0  0
 14 35  1  0  0  0
 15 16  2  0  0  0
 15 36  1  0  0  0
 16 17  1  0  0  0
 17 18  1  0  0  0
 17 19  1  0  0  0
 19 20  1  0  0  0
 19 37  1  0  0  0
 19 38  1  0  0  0
 20 21  1  0  0  0
 20 22  1  0  0  0
 20 39  1  0  0  0
 21 40  1  0  0  0
 22 23  1  0  0  0
 22 24  1  0  0  0
 22 41  1  0  0  0
 23 42  1  0  0  0
 24 25  1  0  0  0
 24 26  1  0  0  0
 24 43  1  0  0  0
 25 44  1  0  0  0
 26 27  1  0  0  0
 26 45  1  0  0  0
 26 46  1  0  0  0
 27 47  1  0  0  0
M  END
> <s_m_source_file>
../2fl5_ligand.sdf

> <i_m_source_file_index>
1

> <s_epik_input>
Tz1jMVtuSF1jKD1PKW5jKGMxMiluKGMzYyhuMilbY0hdYyhbQ0gzXSljKFtDSDNdKVtjSF0zKVtDSDJdW0NASF0oW09IXSlbQ0BIXShbT0hdKVtDQEhdKFtPSF0pW0NIMl1bT0hd

> <s_epik_cmdline>
J2VwaWtfYXBwJywgJy1pbWFlJywgJ2xpZ2FuZF9wcm8ubWFlJywgJy1vbWFlJywgJ2xpZ2FuZF9wcmVwLm1hZScsICctbXMnLCAnMScsICctcGgnLCAnNycsICctcGh0JywgJzAuNScsICctbnQn

> <r_lp_tautomer_probability>
1

> <r_epik_Ionization_Penalty>
  0.0006

> <r_epik_Ionization_Penalty_Charging>
  0.0006

> <r_epik_Ionization_Penalty_Neutral>
  0.0000

> <r_epik_State_Penalty>
 -0.0000

> <r_epik_Charging_Adjusted_Penalty>
0.000566488079864488

> <i_epik_Tot_Q>
0

> <i_epik_Tot_abs_Q>
0

$$$$
