2fl6_ligand
                    3D
 Schrodinger Suite 2020-3.
 44 46  0  0  1  0            999 V2000
   21.6820   16.3430  105.4500 C   0  0  0  0  0  0
   20.5380   16.2120  106.2720 C   0  0  0  0  0  0
   20.5230   15.0760  107.1180 C   0  0  0  0  0  0
   21.6600   14.1780  107.0750 C   0  0  0  0  0  0
   22.8030   14.2970  106.2080 C   0  0  0  0  0  0
   22.7780   15.4260  105.3670 C   0  0  0  0  0  0
   19.3570   14.9230  108.0400 C   0  0  3  0  0  0
   18.5730   16.1430  108.4480 C   0  0  0  0  0  0
   17.5170   15.6370  109.3240 N   0  0  0  0  0  0
   17.8590   14.2860  109.7570 C   0  0  1  0  0  0
   18.8190   13.7490  108.7290 C   0  0  0  0  0  0
   17.8080   13.7510  111.1360 C   0  0  0  0  0  0
   16.8390   12.7170  111.5020 C   0  0  0  0  0  0
   16.8290   12.2250  112.8750 C   0  0  0  0  0  0
   17.7620   12.7970  113.8340 C   0  0  0  0  0  0
   18.7250   13.8080  113.4710 C   0  0  0  0  0  0
   18.7650   14.2730  112.0990 C   0  0  0  0  0  0
   16.5500   16.5720  109.5430 C   0  0  0  0  0  0
   15.3110   16.1700  109.5490 N   0  0  0  0  0  0
   14.4880   17.4000  109.5140 C   0  0  0  0  0  0
   14.8410   14.7880  109.4530 C   0  0  0  0  0  0
   16.7850   17.7760  109.7060 O   0  0  0  0  0  0
   21.6920   13.1900  107.9510 F   0  0  0  0  0  0
   21.7200   17.4120  104.7210 F   0  0  0  0  0  0
   19.7234   16.9361  106.2554 H   0  0  0  0  0  0
   23.6189   13.5742  106.2030 H   0  0  0  0  0  0
   23.5873   15.6004  104.6580 H   0  0  0  0  0  0
   19.9150   14.2112  107.4140 H   0  0  0  0  0  0
   19.2358   16.8457  108.9743 H   0  0  0  0  0  0
   18.1597   16.6297  107.5523 H   0  0  0  0  0  0
   16.8802   13.8044  109.8986 H   0  0  0  0  0  0
   18.3068   13.1005  108.0030 H   0  0  0  0  0  0
   19.6416   13.1922  109.2015 H   0  0  0  0  0  0
   16.1398   12.3231  110.7644 H   0  0  0  0  0  0
   16.1341   11.4417  113.1777 H   0  0  0  0  0  0
   17.7322   12.4482  114.8663 H   0  0  0  0  0  0
   19.4100   14.2147  114.2150 H   0  0  0  0  0  0
   19.5074   15.0091  111.7907 H   0  0  0  0  0  0
   15.1404   18.2805  109.6094 H   0  0  0  0  0  0
   13.7694   17.3841  110.3467 H   0  0  0  0  0  0
   13.9427   17.4493  108.5599 H   0  0  0  0  0  0
   15.7002   14.1036  109.5114 H   0  0  0  0  0  0
   14.3214   14.6432  108.4943 H   0  0  0  0  0  0
   14.1480   14.5780  110.2811 H   0  0  0  0  0  0
  1  2  2  0  0  0
  1  6  1  0  0  0
  1 24  1  0  0  0
  2  3  1  0  0  0
  2 25  1  0  0  0
  3  4  2  0  0  0
  3  7  1  0  0  0
  4  5  1  0  0  0
  4 23  1  0  0  0
  5  6  2  0  0  0
  5 26  1  0  0  0
  6 27  1  0  0  0
  7  8  1  0  0  0
  7 11  1  0  0  0
  7 28  1  0  0  0
  8  9  1  0  0  0
  8 29  1  0  0  0
  8 30  1  0  0  0
  9 10  1  0  0  0
  9 18  1  0  0  0
 10 11  1  0  0  0
 10 12  1  0  0  0
 10 31  1  0  0  0
 11 32  1  0  0  0
 11 33  1  0  0  0
 12 13  2  0  0  0
 12 17  1  0  0  0
 13 14  1  0  0  0
 13 34  1  0  0  0
 14 15  2  0  0  0
 14 35  1  0  0  0
 15 16  1  0  0  0
 15 36  1  0  0  0
 16 17  2  0  0  0
 16 37  1  0  0  0
 17 38  1  0  0  0
 18 19  1  0  0  0
 18 22  2  0  0  0
 19 20  1  0  0  0
 19 21  1  0  0  0
 20 39  1  0  0  0
 20 40  1  0  0  0
 20 41  1  0  0  0
 21 42  1  0  0  0
 21 43  1  0  0  0
 21 44  1  0  0  0
M  END
> <s_m_source_file>
../2fl6_ligand.sdf

> <i_m_source_file_index>
1

> <s_epik_input>
W2NIXTFbY0hdYyhGKWMoW2NIXWMxRilbQ0hdMltDSDJdTihDKD1PKU4oW0NIM10pW0NIM10pW0NAQEhdKFtDSDJdMiljM1tjSF1bY0hdW2NIXVtjSF1bY0hdMw==

> <s_epik_cmdline>
J2VwaWtfYXBwJywgJy1pbWFlJywgJ2xpZ2FuZF9wcm8ubWFlJywgJy1vbWFlJywgJ2xpZ2FuZF9wcmVwLm1hZScsICctbXMnLCAnMScsICctcGgnLCAnNycsICctcGh0JywgJzAuNScsICctbnQn

> <r_lp_tautomer_probability>
1

> <r_epik_Ionization_Penalty>
  0.0001

> <r_epik_Ionization_Penalty_Charging>
  0.0000

> <r_epik_Ionization_Penalty_Neutral>
  0.0001

> <r_epik_State_Penalty>
 -0.0000

> <r_epik_Charging_Adjusted_Penalty>
0

> <i_epik_Tot_Q>
0

> <i_epik_Tot_abs_Q>
0

$$$$
