2flb_ligand
                    3D
 Schrodinger Suite 2020-3.
 38 41  0  0  1  0            999 V2000
   12.7140    8.9120   47.5160 C   0  0  0  0  0  0
   12.4670    7.5450   47.2330 C   0  0  0  0  0  0
   11.6190    6.8280   48.0770 C   0  0  0  0  0  0
   11.0660    7.5150   49.1530 C   0  0  0  0  0  0
   11.2950    8.8410   49.4250 C   0  0  0  0  0  0
   12.1360    9.5930   48.5980 C   0  0  0  0  0  0
   13.6070    9.5990   46.6820 C   0  0  0  0  0  0
   13.7670   10.9040   46.8370 N   0  3  0  0  0  0
   14.3560    8.9660   45.7470 N   0  0  0  0  0  0
   10.2780    6.9860   50.0590 N   0  0  0  0  0  0
   10.6500    9.2140   50.5380 N   0  3  0  0  0  0
   10.0590    8.0470   50.8570 C   0  0  0  0  0  0
    9.2980    7.8660   52.0400 C   0  0  0  0  0  0
    8.8100    6.6260   52.4320 C   0  0  0  0  0  0
    8.9500    5.4750   51.6810 O   0  0  0  0  0  0
    8.1900    6.8730   53.6670 C   0  0  3  0  0  0
    8.2440    8.1670   54.0100 N   0  0  0  0  0  0
    8.9580    8.8050   52.9240 N   0  0  0  0  0  0
    7.4830    5.8660   54.3640 C   0  0  0  0  0  0
    6.7720    4.8930   53.6540 C   0  0  0  0  0  0
    6.0670    3.9200   54.3560 C   0  0  0  0  0  0
    6.0730    3.9110   55.7420 C   0  0  0  0  0  0
    6.7850    4.8850   56.4470 C   0  0  0  0  0  0
    7.5050    5.8810   55.7580 C   0  0  0  0  0  0
   12.9309    7.0634   46.3722 H   0  0  0  0  0  0
   11.3991    5.7750   47.9011 H   0  0  0  0  0  0
   12.3314   10.6491   48.7838 H   0  0  0  0  0  0
   13.1732   11.4456   47.5881 H   0  0  0  0  0  0
   14.2454    7.8822   45.5951 H   0  0  0  0  0  0
   15.0747    9.5359   45.1398 H   0  0  0  0  0  0
    9.4852    5.5067   50.7205 H   0  0  0  0  0  0
    6.7701    4.8968   52.5640 H   0  0  0  0  0  0
    5.5063    3.1598   53.8122 H   0  0  0  0  0  0
    5.5211    3.1425   56.2832 H   0  0  0  0  0  0
    6.7834    4.8742   57.5369 H   0  0  0  0  0  0
    8.0644    6.6431   56.3005 H   0  0  0  0  0  0
   10.7316   10.2495   50.9001 H   0  0  0  0  0  0
   14.4938   11.4468   46.2147 H   0  0  0  0  0  0
  1  2  2  0  0  0
  1  6  1  0  0  0
  1  7  1  0  0  0
  2  3  1  0  0  0
  2 25  1  0  0  0
  3  4  2  0  0  0
  3 26  1  0  0  0
  4  5  1  0  0  0
  4 10  1  0  0  0
  5  6  2  0  0  0
  5 11  1  0  0  0
  6 27  1  0  0  0
  7  8  2  0  0  0
  7  9  1  0  0  0
  8 28  1  0  0  0
  8 38  1  0  0  0
  9 29  1  0  0  0
  9 30  1  0  0  0
 10 12  2  0  0  0
 11 12  1  0  0  0
 11 37  1  0  0  0
 12 13  1  0  0  0
 13 14  2  0  0  0
 13 18  1  0  0  0
 14 15  1  0  0  0
 14 16  1  0  0  0
 15 31  1  0  0  0
 16 17  1  0  0  0
 16 19  1  0  0  0
 17 18  2  0  0  0
 19 20  2  0  0  0
 19 24  1  0  0  0
 20 21  1  0  0  0
 20 32  1  0  0  0
 21 22  2  0  0  0
 21 33  1  0  0  0
 22 23  1  0  0  0
 22 34  1  0  0  0
 23 24  2  0  0  0
 23 35  1  0  0  0
 24 36  1  0  0  0
M  CHG  2   8   1  11   1
M  END
> <s_m_source_file>
../2flb_ligand.sdf

> <i_m_source_file_index>
1

> <s_epik_input>
W0hdXE49QyhbTkgyXSlcYyhbY0hdW2NIXTEpW2NIXWMoYzEyKVtuSF1jKG4yKUMzPUMoW09IXSlbQ0hdKE49TjMpYzRbY0hdW2NIXVtjSF1bY0hdW2NIXTQ=

> <s_epik_cmdline>
J2VwaWtfYXBwJywgJy1pbWFlJywgJ2xpZ2FuZF9wcm8ubWFlJywgJy1vbWFlJywgJ2xpZ2FuZF9wcmVwLm1hZScsICctbXMnLCAnMScsICctcGgnLCAnNycsICctcGh0JywgJzAuNScsICctbnQn

> <r_epik_Ionization_Penalty>
  0.0017

> <r_epik_Ionization_Penalty_Charging>
  0.0003

> <r_epik_Ionization_Penalty_Neutral>
  0.0014

> <r_epik_State_Penalty>
  0.1712

> <r_epik_Charging_Adjusted_Penalty>
0.171486876075824

> <i_epik_Tot_Q>
2

> <i_epik_Tot_abs_Q>
2

> <s_epik_Chemistry_Notes>
This compound has an imine and may undergo hydrolysis.

$$$$
