2flh_ligand
                    3D
 Schrodinger Suite 2020-3.
 29 30  0  0  1  0            999 V2000
   30.8910  -10.3990    0.7040 O   0  0  0  0  0  0
   31.0110  -11.5720    1.6260 C   0  0  0  0  0  0
   29.6830  -12.2650    1.3600 C   0  0  0  0  0  0
   28.4190  -11.5360    1.6340 C   0  0  0  0  0  0
   29.6840  -13.5800    0.7910 C   0  0  0  0  0  0
   28.4470  -14.3150    0.4180 C   0  0  0  0  0  0
   28.6100  -15.7310    0.5270 N   0  0  0  0  0  0
   29.3610  -16.4190   -0.3910 C   0  0  0  0  0  0
   29.3790  -17.8010   -0.4270 C   0  0  0  0  0  0
   28.6880  -18.7740    0.3090 N   0  0  0  0  0  0
   30.1310  -18.3780   -1.3870 C   0  0  0  0  0  0
   29.9680  -19.7410   -1.2860 N   0  3  0  0  0  0
   29.1030  -19.9090   -0.2990 C   0  0  0  0  0  0
   30.9790  -17.7570   -2.2520 N   0  0  0  0  0  0
   30.8580  -16.4220   -2.1670 C   0  0  0  0  0  0
   30.1250  -15.7450   -1.2610 N   0  0  0  0  0  0
   31.7061   -9.6630    0.6415 H   0  0  0  0  0  0
   31.8893  -12.1714    1.3444 H   0  0  0  0  0  0
   31.1268  -11.2153    2.6601 H   0  0  0  0  0  0
   28.6500  -10.5518    2.0675 H   0  0  0  0  0  0
   27.8083  -12.1146    2.3427 H   0  0  0  0  0  0
   27.8623  -11.4016    0.6948 H   0  0  0  0  0  0
   30.6362  -14.0996    0.6085 H   0  0  0  0  0  0
   27.6257  -14.0122    1.0841 H   0  0  0  0  0  0
   28.1805  -14.0798   -0.6230 H   0  0  0  0  0  0
   28.1309  -16.2779    1.3525 H   0  0  0  0  0  0
   28.7490  -20.8945    0.0035 H   0  0  0  0  0  0
   31.4047  -15.8297   -2.9007 H   0  0  0  0  0  0
   30.5174  -20.4122   -1.9625 H   0  0  0  0  0  0
  1  2  1  0  0  0
  1 17  1  0  0  0
  2  3  1  0  0  0
  2 18  1  0  0  0
  2 19  1  0  0  0
  3  4  1  0  0  0
  3  5  2  0  0  0
  4 20  1  0  0  0
  4 21  1  0  0  0
  4 22  1  0  0  0
  5  6  1  0  0  0
  5 23  1  0  0  0
  6  7  1  0  0  0
  6 24  1  0  0  0
  6 25  1  0  0  0
  7  8  1  0  0  0
  7 26  1  0  0  0
  8  9  2  0  0  0
  8 16  1  0  0  0
  9 10  1  0  0  0
  9 11  1  0  0  0
 10 13  2  0  0  0
 11 12  2  0  0  0
 11 14  1  0  0  0
 12 13  1  0  0  0
 12 29  1  0  0  0
 13 27  1  0  0  0
 14 15  1  0  0  0
 15 16  2  0  0  0
 15 28  1  0  0  0
M  CHG  1  12   1
M  END
> <s_m_source_file>
../2flh_ligand.sdf

> <i_m_source_file_index>
1

> <s_epik_input>
W09IXVtDSDJdL0MoW0NIM10pPVtDSF0vW0NIMl1bTkhdYzFuW2NIXVtuSF1jKGMxMiluW2NIXW4y

> <s_epik_cmdline>
J2VwaWtfYXBwJywgJy1pbWFlJywgJ2xpZ2FuZF9wcm8ubWFlJywgJy1vbWFlJywgJ2xpZ2FuZF9wcmVwLm1hZScsICctbXMnLCAnMScsICctcGgnLCAnNycsICctcGh0JywgJzAuNScsICctbnQn

> <r_epik_Ionization_Penalty>
  0.0059

> <r_epik_Ionization_Penalty_Charging>
  0.0000

> <r_epik_Ionization_Penalty_Neutral>
  0.0059

> <r_epik_State_Penalty>
  0.0975

> <r_epik_Charging_Adjusted_Penalty>
0.0975068321372159

> <i_epik_Tot_Q>
1

> <i_epik_Tot_abs_Q>
1

$$$$
