2flu_ligand
                    3D
 Schrodinger Suite 2020-3.
251253  0  0  1  0            999 V2000
  -14.4100   10.0690    4.7180 N   0  3  0  0  0  0
  -15.7700    9.6130    5.1590 C   0  0  2  0  0  0
  -16.1160    8.2190    4.6390 C   0  0  0  0  0  0
  -17.0420    7.5790    5.1410 O   0  0  0  0  0  0
  -16.8480   10.6040    4.7190 C   0  0  0  0  0  0
  -15.3630    7.7590    3.6390 N   0  0  0  0  0  0
  -15.6610    6.4970    2.9670 C   0  0  2  0  0  0
  -14.7180    5.3480    3.3240 C   0  0  0  0  0  0
  -14.7680    4.2960    2.6870 O   0  0  0  0  0  0
  -15.6390    6.7170    1.4530 C   0  0  0  0  0  0
  -16.7640    7.5790    0.9520 C   0  0  0  0  0  0
  -16.6150    8.9590    0.8610 C   0  0  0  0  0  0
  -17.9730    7.0090    0.5770 C   0  0  0  0  0  0
  -17.6550    9.7570    0.3910 C   0  0  0  0  0  0
  -19.0270    7.8110    0.1090 C   0  0  0  0  0  0
  -18.8610    9.1850    0.0190 C   0  0  0  0  0  0
  -13.8850    5.5380    4.3470 N   0  0  0  0  0  0
  -12.9030    4.5180    4.7590 C   0  0  2  0  0  0
  -12.0550    4.0190    3.5870 C   0  0  0  0  0  0
  -11.8730    2.8190    3.3850 O   0  0  0  0  0  0
  -13.5840    3.3700    5.5180 C   0  0  0  0  0  0
  -14.3470    3.8430    6.7190 C   0  0  0  0  0  0
  -15.7030    4.1550    6.6180 C   0  0  0  0  0  0
  -13.6980    4.0200    7.9560 C   0  0  0  0  0  0
  -16.4170    4.6340    7.7420 C   0  0  0  0  0  0
  -14.4070    4.4960    9.0680 C   0  0  0  0  0  0
  -15.7500    4.7980    8.9550 C   0  0  0  0  0  0
  -11.5180    4.9680    2.8320 N   0  0  0  0  0  0
  -10.7220    4.6730    1.6620 C   0  0  2  0  0  0
   -9.4470    3.9120    2.0040 C   0  0  0  0  0  0
   -8.8760    4.0730    3.0820 O   0  0  0  0  0  0
  -10.3760    5.9800    0.9340 C   0  0  0  0  0  0
   -9.0050    3.0960    1.0590 N   0  0  0  0  0  0
   -7.7130    2.4210    1.1480 C   0  0  2  0  0  0
   -6.5790    3.4450    1.2880 C   0  0  0  0  0  0
   -6.6720    4.5680    0.7610 O   0  0  0  0  0  0
   -7.5010    1.5580   -0.1070 C   0  0  0  0  0  0
   -6.2220    0.7420   -0.1810 C   0  0  0  0  0  0
   -6.0360   -0.1810    1.0200 C   0  0  0  0  0  0
   -5.7200    0.2750    2.1220 O   0  0  0  0  0  0
   -6.2090   -1.4880    0.8040 N   0  0  0  0  0  0
   -5.5250    3.0510    1.9990 N   0  0  0  0  0  0
   -4.3390    3.9030    2.1400 C   0  0  2  0  0  0
   -3.5880    4.0490    0.8180 C   0  0  0  0  0  0
   -3.6120    3.1490   -0.0290 O   0  0  0  0  0  0
   -3.3770    3.3130    3.1640 C   0  0  0  0  0  0
   -3.9310    2.9630    4.5390 C   0  0  0  0  0  0
   -2.9710    1.9980    5.2340 C   0  0  0  0  0  0
   -4.1250    4.2140    5.3560 C   0  0  0  0  0  0
   -2.9010    5.1860    0.6790 N   0  0  0  0  0  0
   -2.1050    5.4790   -0.5100 C   0  0  2  0  0  0
   -0.6320    5.5640   -0.1330 C   0  0  0  0  0  0
   -0.2890    6.1040    0.9240 O   0  0  0  0  0  0
   -2.5500    6.7990   -1.1470 C   0  0  0  0  0  0
   -3.8550    6.7100   -1.9360 C   0  0  0  0  0  0
   -3.6880    6.0370   -3.2870 C   0  0  0  0  0  0
   -2.7550    6.3390   -4.0390 O   0  0  0  0  0  0
   -4.5940    5.1190   -3.6030 N   0  0  0  0  0  0
    0.2180    5.0280   -1.0060 N   0  0  0  0  0  0
    1.6680    4.9970   -0.8400 C   0  0  2  0  0  0
    2.2930    6.3400   -1.2030 C   0  0  0  0  0  0
    1.9840    6.9120   -2.2470 O   0  0  0  0  0  0
    2.2440    3.8830   -1.7370 C   0  0  0  0  0  0
    3.7140    3.7260   -2.1630 C   0  0  0  0  0  0
    4.1210    4.6690   -3.3180 C   0  0  0  0  0  0
    4.6790    3.7810   -0.9790 C   0  0  0  0  0  0
    3.1660    6.8440   -0.3280 N   0  0  0  0  0  0
    3.9600    8.0280   -0.6410 C   0  0  2  0  0  0
    5.1810    7.5550   -1.4150 C   0  0  0  0  0  0
    5.9720    6.7720   -0.8870 O   0  0  0  0  0  0
    4.4050    8.7140    0.6520 C   0  0  0  0  0  0
    5.0790   10.0320    0.3980 C   0  0  0  0  0  0
    6.1410   10.0530   -0.2590 O   0  0  0  0  0  0
    4.5460   11.0640    0.8590 O   0  0  0  0  0  0
    5.3400    8.0250   -2.6540 N   0  0  0  0  0  0
    6.4070    7.5210   -3.5330 C   0  0  2  0  0  0
    7.7960    7.9040   -3.0530 C   0  0  0  0  0  0
    8.7830    7.2650   -3.4290 O   0  0  0  0  0  0
    6.2010    8.0170   -4.9630 C   0  0  0  0  0  0
    7.8740    8.9480   -2.2350 N   0  0  0  0  0  0
    9.1650    9.4710   -1.7830 C   0  0  2  0  0  0
    9.6180    8.9050   -0.4370 C   0  0  0  0  0  0
   10.8130    8.7090   -0.2090 O   0  0  0  0  0  0
    9.1170   10.9970   -1.6750 C   0  0  0  0  0  0
    8.9290   11.6810   -3.0060 C   0  0  0  0  0  0
    8.9090   13.1980   -2.9140 C   0  0  0  0  0  0
    9.5520   13.7560   -2.0010 O   0  0  0  0  0  0
    8.2600   13.8270   -3.7730 O   0  0  0  0  0  0
    8.6640    8.6670    0.4630 N   0  0  0  0  0  0
    9.0120    8.2650    1.8270 C   0  0  2  0  0  0
    8.6620    6.8090    2.0920 C   0  0  0  0  0  0
    9.1430    6.2160    3.0640 O   0  0  0  0  0  0
    8.2760    9.1110    2.8920 C   0  0  2  0  0  0
    6.8780    8.8200    2.8560 O   0  0  0  0  0  0
    8.4990   10.6010    2.6410 C   0  0  0  0  0  0
    7.7670    6.2670    1.2650 N   0  0  0  0  0  0
    7.2890    4.9080    1.4630 C   0  0  0  0  0  0
    6.2060    4.7800    2.5180 C   0  0  0  0  0  0
    5.6910    3.6820    2.7570 O   0  0  0  0  0  0
    5.8300    5.8880    3.1590 N   0  0  0  0  0  0
    4.7360    5.8370    4.1440 C   0  0  2  0  0  0
    3.3850    5.6170    3.4740 C   0  0  0  0  0  0
    3.1550    6.0780    2.3530 O   0  0  0  0  0  0
    4.6830    7.1280    4.9660 C   0  0  0  0  0  0
    5.9630    7.3800    5.7800 C   0  0  0  0  0  0
    5.7950    8.4000    6.9140 C   0  0  0  0  0  0
    4.6400    8.7430    7.2560 O   0  0  0  0  0  0
    6.8150    8.8640    7.4760 O   0  0  0  0  0  0
    2.4880    4.9190    4.1750 N   0  0  0  0  0  0
    1.1140    4.7760    3.7010 C   0  0  2  0  0  0
    0.2400    5.6630    4.5430 C   0  0  0  0  0  0
    0.3880    5.6990    5.7710 O   0  0  0  0  0  0
    0.6190    3.3190    3.7960 C   0  0  0  0  0  0
    0.9940    2.4740    2.6060 C   0  0  0  0  0  0
    2.1420    1.6910    2.6280 C   0  0  0  0  0  0
    0.2030    2.4710    1.4560 C   0  0  0  0  0  0
    2.4980    0.9050    1.5220 C   0  0  0  0  0  0
    0.5480    1.6920    0.3470 C   0  0  0  0  0  0
    1.6990    0.9110    0.3790 C   0  0  0  0  0  0
   -0.6750    6.3670    3.8740 N   0  0  0  0  0  0
   -1.5700    7.3220    4.5140 C   0  0  2  0  0  0
   -2.9510    7.2810    3.8570 C   0  0  0  0  0  0
   -3.0730    7.1230    2.6370 O   0  0  0  0  0  0
   -0.9740    8.7330    4.4120 C   0  0  0  0  0  0
   -1.7220    9.9010    5.0610 C   0  0  0  0  0  0
   -1.4720    9.9610    6.5550 C   0  0  0  0  0  0
   -1.3010   11.2020    4.4130 C   0  0  0  0  0  0
   -3.9860    7.4090    4.5310 O   0  0  0  0  0  0
  -13.6545    9.3401    5.0465 H   0  0  0  0  0  0
  -14.1903   11.0506    5.1631 H   0  0  0  0  0  0
  -14.3884   10.1505    3.6212 H   0  0  0  0  0  0
  -15.7198    9.5715    6.2571 H   0  0  0  0  0  0
  -16.5983   11.6076    5.0937 H   0  0  0  0  0  0
  -17.8210   10.2921    5.1263 H   0  0  0  0  0  0
  -16.9001   10.6252    3.6204 H   0  0  0  0  0  0
  -14.4967    8.3590    3.3235 H   0  0  0  0  0  0
  -16.6581    6.2341    3.3499 H   0  0  0  0  0  0
  -14.6973    7.2086    1.1676 H   0  0  0  0  0  0
  -15.7162    5.7468    0.9403 H   0  0  0  0  0  0
  -15.6742    9.4207    1.1608 H   0  0  0  0  0  0
  -18.1056    5.9293    0.6463 H   0  0  0  0  0  0
  -17.5198   10.8359    0.3154 H   0  0  0  0  0  0
  -19.9729    7.3546   -0.1827 H   0  0  0  0  0  0
  -19.6757    9.8122   -0.3428 H   0  0  0  0  0  0
  -13.9467    6.4929    4.8896 H   0  0  0  0  0  0
  -12.2230    5.0412    5.4474 H   0  0  0  0  0  0
  -14.2915    2.8574    4.8497 H   0  0  0  0  0  0
  -12.8220    2.6555    5.8628 H   0  0  0  0  0  0
  -16.2169    4.0287    5.6651 H   0  0  0  0  0  0
  -12.6377    3.7855    8.0497 H   0  0  0  0  0  0
  -17.4775    4.8722    7.6601 H   0  0  0  0  0  0
  -13.8978    4.6279   10.0227 H   0  0  0  0  0  0
  -16.2942    5.1686    9.8237 H   0  0  0  0  0  0
  -11.6979    6.0127    3.1257 H   0  0  0  0  0  0
  -11.3633    4.0193    1.0526 H   0  0  0  0  0  0
  -11.3026    6.5212    0.6919 H   0  0  0  0  0  0
   -9.8325    5.7498    0.0057 H   0  0  0  0  0  0
   -9.7451    6.6052    1.5829 H   0  0  0  0  0  0
   -9.6507    2.9347    0.1832 H   0  0  0  0  0  0
   -7.7535    1.7940    2.0509 H   0  0  0  0  0  0
   -8.3199    0.8286   -0.1930 H   0  0  0  0  0  0
   -7.4895    2.2031   -0.9979 H   0  0  0  0  0  0
   -6.2383    0.1159   -1.0853 H   0  0  0  0  0  0
   -5.3564    1.4197   -0.2199 H   0  0  0  0  0  0
   -6.4910   -1.8475   -0.1966 H   0  0  0  0  0  0
   -6.0695   -2.2046    1.6268 H   0  0  0  0  0  0
   -5.5550    2.0651    2.4860 H   0  0  0  0  0  0
   -4.7343    4.8752    2.4693 H   0  0  0  0  0  0
   -2.9580    2.3734    2.7746 H   0  0  0  0  0  0
   -2.5619    4.0265    3.3550 H   0  0  0  0  0  0
   -4.9177    2.4876    4.4366 H   0  0  0  0  0  0
   -2.8479    1.0956    4.6172 H   0  0  0  0  0  0
   -3.3798    1.7179    6.2161 H   0  0  0  0  0  0
   -1.9944    2.4860    5.3689 H   0  0  0  0  0  0
   -4.8187    4.8892    4.8336 H   0  0  0  0  0  0
   -3.1563    4.7171    5.4918 H   0  0  0  0  0  0
   -4.5416    3.9490    6.3390 H   0  0  0  0  0  0
   -2.9499    5.9148    1.5015 H   0  0  0  0  0  0
   -2.2789    4.6454   -1.2064 H   0  0  0  0  0  0
   -2.7012    7.5530   -0.3605 H   0  0  0  0  0  0
   -1.7756    7.1483   -1.8458 H   0  0  0  0  0  0
   -4.5914    6.1283   -1.3622 H   0  0  0  0  0  0
   -4.2458    7.7227   -2.1137 H   0  0  0  0  0  0
   -5.4071    4.8840   -2.9004 H   0  0  0  0  0  0
   -4.5314    4.5936   -4.5674 H   0  0  0  0  0  0
   -0.2425    4.5875   -1.9026 H   0  0  0  0  0  0
    1.8542    4.8025    0.2265 H   0  0  0  0  0  0
    2.0653    2.9047   -1.2670 H   0  0  0  0  0  0
    1.7518    3.9127   -2.7203 H   0  0  0  0  0  0
    3.8006    2.7057   -2.5649 H   0  0  0  0  0  0
    3.3903    4.5836   -4.1358 H   0  0  0  0  0  0
    5.1185    4.3879   -3.6867 H   0  0  0  0  0  0
    4.1438    5.7066   -2.9535 H   0  0  0  0  0  0
    4.3359    3.0910   -0.1940 H   0  0  0  0  0  0
    4.7104    4.8052   -0.5789 H   0  0  0  0  0  0
    5.6851    3.4864   -1.3120 H   0  0  0  0  0  0
    3.2802    6.3471    0.6467 H   0  0  0  0  0  0
    3.3403    8.7181   -1.2323 H   0  0  0  0  0  0
    3.5280    8.8983    1.2899 H   0  0  0  0  0  0
    5.1163    8.0659    1.1849 H   0  0  0  0  0  0
    5.0129   12.0459    0.6917 H   0  0  0  0  0  0
    4.6532    8.8050   -3.0143 H   0  0  0  0  0  0
    6.3152    6.4263   -3.4768 H   0  0  0  0  0  0
    5.1941    7.7375   -5.3065 H   0  0  0  0  0  0
    6.9535    7.5591   -5.6219 H   0  0  0  0  0  0
    6.3071    9.1115   -4.9903 H   0  0  0  0  0  0
    6.9402    9.4210   -1.8971 H   0  0  0  0  0  0
    9.8576    9.1294   -2.5663 H   0  0  0  0  0  0
    8.2779   11.2926   -1.0281 H   0  0  0  0  0  0
   10.0598   11.3639   -1.2431 H   0  0  0  0  0  0
    9.7529   11.4040   -3.6802 H   0  0  0  0  0  0
    7.9721   11.3665   -3.4480 H   0  0  0  0  0  0
    9.5499   14.8528   -1.9178 H   0  0  0  0  0  0
    7.6082    8.7748    0.1738 H   0  0  0  0  0  0
   10.1003    8.4229    1.8528 H   0  0  0  0  0  0
    8.6057    8.8459    3.9074 H   0  0  0  0  0  0
    6.5262    7.7903    3.0171 H   0  0  0  0  0  0
    9.5765   10.8204    2.6696 H   0  0  0  0  0  0
    7.9851   11.1848    3.4189 H   0  0  0  0  0  0
    8.0959   10.8708    1.6537 H   0  0  0  0  0  0
    7.3901    6.8653    0.4224 H   0  0  0  0  0  0
    6.8697    4.5259    0.5206 H   0  0  0  0  0  0
    8.1257    4.2673    1.7785 H   0  0  0  0  0  0
    6.3386    6.8409    2.9508 H   0  0  0  0  0  0
    4.9742    4.9748    4.7841 H   0  0  0  0  0  0
    4.5431    7.9862    4.2922 H   0  0  0  0  0  0
    3.8431    7.0774    5.6745 H   0  0  0  0  0  0
    6.2968    6.4379    6.2394 H   0  0  0  0  0  0
    6.7511    7.7629    5.1149 H   0  0  0  0  0  0
    6.7093    9.5959    8.2903 H   0  0  0  0  0  0
    2.7954    4.4486    5.1206 H   0  0  0  0  0  0
    1.1103    5.0946    2.6482 H   0  0  0  0  0  0
    1.0531    2.8416    4.6869 H   0  0  0  0  0  0
   -0.4783    3.3088    3.8725 H   0  0  0  0  0  0
    2.7739    1.6876    3.5161 H   0  0  0  0  0  0
   -0.6970    3.0850    1.4218 H   0  0  0  0  0  0
    3.3977    0.2906    1.5559 H   0  0  0  0  0  0
   -0.0839    1.6967   -0.5411 H   0  0  0  0  0  0
    1.9749    0.3067   -0.4852 H   0  0  0  0  0  0
   -0.7352    6.1990    2.7886 H   0  0  0  0  0  0
   -1.6527    7.0101    5.5656 H   0  0  0  0  0  0
    0.0204    8.7458    4.8820 H   0  0  0  0  0  0
   -0.8828    9.0169    3.3532 H   0  0  0  0  0  0
   -2.8018    9.7541    4.9111 H   0  0  0  0  0  0
   -1.7809    9.0116    7.0168 H   0  0  0  0  0  0
   -2.0530   10.7870    6.9911 H   0  0  0  0  0  0
   -0.4008   10.1279    6.7411 H   0  0  0  0  0  0
   -1.4861   11.1489    3.3300 H   0  0  0  0  0  0
   -0.2294   11.3718    4.5940 H   0  0  0  0  0  0
   -1.8816   12.0310    4.8440 H   0  0  0  0  0  0
   -4.9697    7.3766    4.0398 H   0  0  0  0  0  0
  1  2  1  0  0  0
  1129  1  0  0  0
  1130  1  0  0  0
  1131  1  0  0  0
  2  3  1  0  0  0
  2  5  1  0  0  0
  2132  1  0  0  0
  3  4  2  0  0  0
  3  6  1  0  0  0
  5133  1  0  0  0
  5134  1  0  0  0
  5135  1  0  0  0
  6  7  1  0  0  0
  6136  1  0  0  0
  7  8  1  0  0  0
  7 10  1  0  0  0
  7137  1  0  0  0
  8  9  2  0  0  0
  8 17  1  0  0  0
 10 11  1  0  0  0
 10138  1  0  0  0
 10139  1  0  0  0
 11 12  2  0  0  0
 11 13  1  0  0  0
 12 14  1  0  0  0
 12140  1  0  0  0
 13 15  2  0  0  0
 13141  1  0  0  0
 14 16  2  0  0  0
 14142  1  0  0  0
 15 16  1  0  0  0
 15143  1  0  0  0
 16144  1  0  0  0
 17 18  1  0  0  0
 17145  1  0  0  0
 18 19  1  0  0  0
 18 21  1  0  0  0
 18146  1  0  0  0
 19 20  2  0  0  0
 19 28  1  0  0  0
 21 22  1  0  0  0
 21147  1  0  0  0
 21148  1  0  0  0
 22 23  2  0  0  0
 22 24  1  0  0  0
 23 25  1  0  0  0
 23149  1  0  0  0
 24 26  2  0  0  0
 24150  1  0  0  0
 25 27  2  0  0  0
 25151  1  0  0  0
 26 27  1  0  0  0
 26152  1  0  0  0
 27153  1  0  0  0
 28 29  1  0  0  0
 28154  1  0  0  0
 29 30  1  0  0  0
 29 32  1  0  0  0
 29155  1  0  0  0
 30 31  2  0  0  0
 30 33  1  0  0  0
 32156  1  0  0  0
 32157  1  0  0  0
 32158  1  0  0  0
 33 34  1  0  0  0
 33159  1  0  0  0
 34 35  1  0  0  0
 34 37  1  0  0  0
 34160  1  0  0  0
 35 36  2  0  0  0
 35 42  1  0  0  0
 37 38  1  0  0  0
 37161  1  0  0  0
 37162  1  0  0  0
 38 39  1  0  0  0
 38163  1  0  0  0
 38164  1  0  0  0
 39 40  2  0  0  0
 39 41  1  0  0  0
 41165  1  0  0  0
 41166  1  0  0  0
 42 43  1  0  0  0
 42167  1  0  0  0
 43 44  1  0  0  0
 43 46  1  0  0  0
 43168  1  0  0  0
 44 45  2  0  0  0
 44 50  1  0  0  0
 46 47  1  0  0  0
 46169  1  0  0  0
 46170  1  0  0  0
 47 48  1  0  0  0
 47 49  1  0  0  0
 47171  1  0  0  0
 48172  1  0  0  0
 48173  1  0  0  0
 48174  1  0  0  0
 49175  1  0  0  0
 49176  1  0  0  0
 49177  1  0  0  0
 50 51  1  0  0  0
 50178  1  0  0  0
 51 52  1  0  0  0
 51 54  1  0  0  0
 51179  1  0  0  0
 52 53  2  0  0  0
 52 59  1  0  0  0
 54 55  1  0  0  0
 54180  1  0  0  0
 54181  1  0  0  0
 55 56  1  0  0  0
 55182  1  0  0  0
 55183  1  0  0  0
 56 57  2  0  0  0
 56 58  1  0  0  0
 58184  1  0  0  0
 58185  1  0  0  0
 59 60  1  0  0  0
 59186  1  0  0  0
 60 61  1  0  0  0
 60 63  1  0  0  0
 60187  1  0  0  0
 61 62  2  0  0  0
 61 67  1  0  0  0
 63 64  1  0  0  0
 63188  1  0  0  0
 63189  1  0  0  0
 64 65  1  0  0  0
 64 66  1  0  0  0
 64190  1  0  0  0
 65191  1  0  0  0
 65192  1  0  0  0
 65193  1  0  0  0
 66194  1  0  0  0
 66195  1  0  0  0
 66196  1  0  0  0
 67 68  1  0  0  0
 67197  1  0  0  0
 68 69  1  0  0  0
 68 71  1  0  0  0
 68198  1  0  0  0
 69 70  2  0  0  0
 69 75  1  0  0  0
 71 72  1  0  0  0
 71199  1  0  0  0
 71200  1  0  0  0
 72 73  2  0  0  0
 72 74  1  0  0  0
 74201  1  0  0  0
 75 76  1  0  0  0
 75202  1  0  0  0
 76 77  1  0  0  0
 76 79  1  0  0  0
 76203  1  0  0  0
 77 78  2  0  0  0
 77 80  1  0  0  0
 79204  1  0  0  0
 79205  1  0  0  0
 79206  1  0  0  0
 80 81  1  0  0  0
 80207  1  0  0  0
 81 82  1  0  0  0
 81 84  1  0  0  0
 81208  1  0  0  0
 82 83  2  0  0  0
 82 89  1  0  0  0
 84 85  1  0  0  0
 84209  1  0  0  0
 84210  1  0  0  0
 85 86  1  0  0  0
 85211  1  0  0  0
 85212  1  0  0  0
 86 87  1  0  0  0
 86 88  2  0  0  0
 87213  1  0  0  0
 89 90  1  0  0  0
 89214  1  0  0  0
 90 91  1  0  0  0
 90 93  1  0  0  0
 90215  1  0  0  0
 91 92  2  0  0  0
 91 96  1  0  0  0
 93 94  1  0  0  0
 93 95  1  0  0  0
 93216  1  0  0  0
 94217  1  0  0  0
 95218  1  0  0  0
 95219  1  0  0  0
 95220  1  0  0  0
 96 97  1  0  0  0
 96221  1  0  0  0
 97 98  1  0  0  0
 97222  1  0  0  0
 97223  1  0  0  0
 98 99  2  0  0  0
 98100  1  0  0  0
100101  1  0  0  0
100224  1  0  0  0
101102  1  0  0  0
101104  1  0  0  0
101225  1  0  0  0
102103  2  0  0  0
102109  1  0  0  0
104105  1  0  0  0
104226  1  0  0  0
104227  1  0  0  0
105106  1  0  0  0
105228  1  0  0  0
105229  1  0  0  0
106107  2  0  0  0
106108  1  0  0  0
108230  1  0  0  0
109110  1  0  0  0
109231  1  0  0  0
110111  1  0  0  0
110113  1  0  0  0
110232  1  0  0  0
111112  2  0  0  0
111120  1  0  0  0
113114  1  0  0  0
113233  1  0  0  0
113234  1  0  0  0
114115  2  0  0  0
114116  1  0  0  0
115117  1  0  0  0
115235  1  0  0  0
116118  2  0  0  0
116236  1  0  0  0
117119  2  0  0  0
117237  1  0  0  0
118119  1  0  0  0
118238  1  0  0  0
119239  1  0  0  0
120121  1  0  0  0
120240  1  0  0  0
121122  1  0  0  0
121124  1  0  0  0
121241  1  0  0  0
122123  2  0  0  0
122128  1  0  0  0
124125  1  0  0  0
124242  1  0  0  0
124243  1  0  0  0
125126  1  0  0  0
125127  1  0  0  0
125244  1  0  0  0
126245  1  0  0  0
126246  1  0  0  0
126247  1  0  0  0
127248  1  0  0  0
127249  1  0  0  0
127250  1  0  0  0
128251  1  0  0  0
M  CHG  1   1   1
M  END
> <s_m_source_file>
../2flu_ligand.sdf

> <i_m_source_file_index>
1

> <s_epik_input>
W2NIXTFbY0hdW2NIXVtjSF1bY0hdYzFbQ0gyXVtDQEhdKFtOSF1DKD1PKVtDQEBIXShbTkgzK10pW0NIM10pQyg9TylbTkhdW0NAQEhdKFtDSDJdYzJbY0hdW2NIXVtjSF1bY0hdW2NIXTIpQyg9TylbTkhdW0NAQEhdKFtDSDNdKUMoPU8pW05IXVtDQEBIXShbQ0gyXVtDSDJdQyg9TylbTkgyXSlDKD1PKVtOSF1bQ0BASF0oW0NIMl1bQ0hdKFtDSDNdKVtDSDNdKUMoPU8pW05IXVtDQEBIXShbQ0gyXVtDSDJdQyg9TylbTkgyXSlDKD1PKVtOSF1bQ0BASF0oW0NIMl1bQ0hdKFtDSDNdKVtDSDNdKUMoPU8pW05IXVtDQEBIXShbQ0gyXUMoPU8pW09IXSlDKD1PKVtOSF1bQ0BASF0oW0NIM10pQyg9TylbTkhdW0NAQEhdKFtDSDJdW0NIMl1DKD1PKVtPSF0pQyg9TylbTkhdW0NAQEhdKFtDQEhdKFtPSF0pW0NIM10pQyg9TylbTkhdW0NIMl1DKD1PKVtOSF1bQ0BASF0oW0NIMl1bQ0gyXUMoPU8pW09IXSlDKD1PKVtOSF1bQ0BIXShDKD1PKVtOSF1bQ0BIXShDKD1PKVtPSF0pW0NIMl1bQ0hdKFtDSDNdKVtDSDNdKVtDSDJdYzNbY0hdW2NIXVtjSF1bY0hdW2NIXTM=

> <s_epik_cmdline>
J2VwaWtfYXBwJywgJy1pbWFlJywgJ2xpZ2FuZF9wcm8ubWFlJywgJy1vbWFlJywgJ2xpZ2FuZF9wcmVwLm1hZScsICctbXMnLCAnMScsICctcGgnLCAnNycsICctcGh0JywgJzAuNScsICctbnQn

> <s_epik_pKa_notes>
Molecule size exceeds maximum supported for generating protonation states

$$$$
