2fm0_ligand
                    3D
 Schrodinger Suite 2020-3.
 56 59  0  0  1  0            999 V2000
   21.5960   -1.3160   35.5500 F   0  0  0  0  0  0
   23.6900   -1.3910   34.7670 F   0  0  0  0  0  0
   22.7180   -2.0470   35.4360 C   0  0  0  0  0  0
   22.4070   -3.2750   34.8120 O   0  0  0  0  0  0
   23.2190   -8.2300   33.1700 C   0  0  0  0  0  0
   23.5020   -7.5050   31.8410 C   0  0  0  0  0  0
   22.7080   -6.8010   32.9550 C   0  0  0  0  0  0
   22.4650   -5.5730   33.6070 O   0  0  0  0  0  0
   22.1430   -3.2780   33.4740 C   0  0  0  0  0  0
   22.1910   -4.4920   32.8300 C   0  0  0  0  0  0
   21.9270   -4.5870   31.4470 C   0  0  0  0  0  0
   21.6100   -3.4340   30.7180 C   0  0  0  0  0  0
   21.5600   -2.2120   31.3880 C   0  0  0  0  0  0
   21.8260   -2.1250   32.7680 C   0  0  0  0  0  0
   21.3640   -3.4670   29.2160 C   0  0  1  0  0  0
   21.8260   -4.7300   28.5370 C   0  0  0  0  0  0
   23.1580   -6.0900   27.1430 C   0  0  0  0  0  0
   22.8940   -4.7840   27.6920 N   0  0  0  0  0  0
   21.0330   -6.1940   28.5990 S   0  0  0  0  0  0
   22.1540   -6.9480   27.6150 C   0  0  0  0  0  0
   22.0830   -8.4150   27.2420 C   0  0  0  0  0  0
   20.9400   -9.0230   27.8520 O   0  5  0  0  0  0
   23.3550   -9.1320   27.7800 C   0  0  0  0  0  0
   23.2820  -10.4490   27.5060 F   0  0  0  0  0  0
   23.4250   -8.9540   29.1160 F   0  0  0  0  0  0
   24.4630   -8.6180   27.2020 F   0  0  0  0  0  0
   21.9950   -8.5520   25.6830 C   0  0  0  0  0  0
   20.9450   -7.8430   25.2210 F   0  0  0  0  0  0
   21.8370   -9.8490   25.3460 F   0  0  0  0  0  0
   23.1250   -8.0820   25.1140 F   0  0  0  0  0  0
   19.9130   -3.1600   28.8360 C   0  0  0  0  0  0
   19.6990   -3.0560   27.3480 C   0  0  0  0  0  0
   20.3380   -2.0550   26.6340 C   0  0  0  0  0  0
   20.2090   -1.9980   25.2500 C   0  0  0  0  0  0
   18.9280   -3.9910   26.6750 C   0  0  0  0  0  0
   19.4460   -2.9300   24.5730 C   0  0  0  0  0  0
   18.0660   -4.8340   24.6390 O   0  0  0  0  0  0
   18.8060   -3.9220   25.2850 N   0  3  0  0  0  0
   23.1155   -2.1841   36.4525 H   0  0  0  0  0  0
   22.6407   -9.1447   32.9728 H   0  0  0  0  0  0
   24.1710   -8.4951   33.6530 H   0  0  0  0  0  0
   24.5888   -7.4249   31.6912 H   0  0  0  0  0  0
   23.0585   -8.0745   31.0110 H   0  0  0  0  0  0
   21.8836   -6.0985   33.1467 H   0  0  0  0  0  0
   21.9697   -5.5549   30.9476 H   0  0  0  0  0  0
   21.3104   -1.3075   30.8332 H   0  0  0  0  0  0
   21.7835   -1.1621   33.2771 H   0  0  0  0  0  0
   22.0101   -2.6644   28.8308 H   0  0  0  0  0  0
   23.9833   -6.3603   26.4843 H   0  0  0  0  0  0
   19.2586   -3.9608   29.2108 H   0  0  0  0  0  0
   19.6119   -2.2011   29.2830 H   0  0  0  0  0  0
   19.9773   -1.0736   26.9755 H   0  0  0  0  0  0
   21.4236   -2.1238   26.7975 H   0  0  0  0  0  0
   20.7227   -1.1996   24.6944 H   0  0  0  0  0  0
   18.4135   -4.7855   27.2354 H   0  0  0  0  0  0
   19.3545   -2.8752   23.4782 H   0  0  0  0  0  0
  1  3  1  0  0  0
  2  3  1  0  0  0
  3  4  1  0  0  0
  3 39  1  0  0  0
  4  9  1  0  0  0
  5  6  1  0  0  0
  5  7  1  0  0  0
  5 40  1  0  0  0
  5 41  1  0  0  0
  6  7  1  0  0  0
  6 42  1  0  0  0
  6 43  1  0  0  0
  7  8  1  0  0  0
  7 44  1  0  0  0
  8 10  1  0  0  0
  9 10  2  0  0  0
  9 14  1  0  0  0
 10 11  1  0  0  0
 11 12  2  0  0  0
 11 45  1  0  0  0
 12 13  1  0  0  0
 12 15  1  0  0  0
 13 14  2  0  0  0
 13 46  1  0  0  0
 14 47  1  0  0  0
 15 16  1  0  0  0
 15 31  1  0  0  0
 15 48  1  0  0  0
 16 18  2  0  0  0
 16 19  1  0  0  0
 17 18  1  0  0  0
 17 20  2  0  0  0
 17 49  1  0  0  0
 19 20  1  0  0  0
 20 21  1  0  0  0
 21 22  1  0  0  0
 21 23  1  0  0  0
 21 27  1  0  0  0
 23 24  1  0  0  0
 23 25  1  0  0  0
 23 26  1  0  0  0
 27 28  1  0  0  0
 27 29  1  0  0  0
 27 30  1  0  0  0
 31 32  1  0  0  0
 31 50  1  0  0  0
 31 51  1  0  0  0
 32 33  1  0  0  0
 32 35  2  0  0  0
 33 34  1  0  0  0
 33 52  1  0  0  0
 33 53  1  0  0  0
 34 36  2  0  0  0
 34 54  1  0  0  0
 35 38  1  0  0  0
 35 55  1  0  0  0
 36 38  1  0  0  0
 36 56  1  0  0  0
 37 38  2  0  0  0
M  CHG  2  22  -1  38   1
M  END
> <s_m_source_file>
../2fm0_ligand.sdf

> <i_m_source_file_index>
1

> <s_epik_input>
RltDSF0oRilPYzFjKE9bQ0hdMltDSDJdW0NIMl0yKVtjSF1jKFtjSF1bY0hdMSlbQ0BASF0oYzNuW2NIXWMoczMpQyhbT0hdKShDKEYpKEYpRilDKEYpKEYpRilbQ0gyXUM0PVtDSF1bTitdKD1PKVtDSF09W0NIXVtDSDJdNA==

> <s_epik_cmdline>
J2VwaWtfYXBwJywgJy1pbWFlJywgJ2xpZ2FuZF9wcm8ubWFlJywgJy1vbWFlJywgJ2xpZ2FuZF9wcmVwLm1hZScsICctbXMnLCAnMScsICctcGgnLCAnNycsICctcGh0JywgJzAuNScsICctbnQn

> <r_lp_tautomer_probability>
1

> <r_epik_Ionization_Penalty>
  0.0586

> <r_epik_Ionization_Penalty_Charging>
  0.0586

> <r_epik_Ionization_Penalty_Neutral>
  0.0000

> <r_epik_State_Penalty>
  0.0507

> <r_epik_Charging_Adjusted_Penalty>
0.109268430009788

> <i_epik_Tot_Q>
0

> <i_epik_Tot_abs_Q>
2

$$$$
