2fm2_ligand
                    3D
 Schrodinger Suite 2020-3.
110113  0  0  1  0            999 V2000
  192.3020  -10.2990   49.2280 C   0  0  0  0  0  0
  192.8030  -11.0460   50.0800 O   0  0  0  0  0  0
  190.9660  -10.1340   49.0300 O   0  0  0  0  0  0
  189.9130  -10.8490   49.7290 C   0  0  0  0  0  0
  189.8520  -10.4420   51.2240 C   0  0  0  0  0  0
  188.6230  -10.4630   48.9820 C   0  0  0  0  0  0
  190.1000  -12.3650   49.6030 C   0  0  0  0  0  0
  193.0260   -9.5280   48.4190 N   0  0  0  0  0  0
  194.4890   -9.5250   48.4230 C   0  0  1  0  0  0
  195.0520   -9.1880   47.0390 C   0  0  0  0  0  0
  196.6000   -9.0580   47.1420 C   0  0  0  0  0  0
  194.6970  -10.3230   46.0770 C   0  0  0  0  0  0
  194.3960   -7.8930   46.4990 C   0  0  0  0  0  0
  195.0580   -8.6430   49.5280 C   0  0  0  0  0  0
  194.8980   -7.4170   49.5080 O   0  0  0  0  0  0
  195.7180   -9.2690   50.5120 N   0  0  0  0  0  0
  195.9590  -10.7180   50.6090 C   0  0  0  0  0  0
  196.3170   -8.5500   51.6350 C   0  0  1  0  0  0
  196.7810   -9.5620   52.6350 C   0  0  2  0  0  0
  196.7910  -10.8280   51.8490 C   0  0  1  0  0  0
  196.0050  -10.7630   53.1620 C   0  0  0  0  0  0
  196.5820  -11.5380   54.3050 C   0  0  0  0  0  0
  194.4910  -10.7220   53.1400 C   0  0  0  0  0  0
  197.3190   -7.5080   51.1580 C   0  0  0  0  0  0
  198.3220   -7.8370   50.5270 O   0  0  0  0  0  0
  197.0220   -6.2470   51.4500 N   0  0  0  0  0  0
  197.8940   -5.1460   51.0510 C   0  0  1  0  0  0
  197.0900   -4.0520   50.3370 C   0  0  0  0  0  0
  196.3200   -4.6170   49.1410 C   0  0  0  0  0  0
  196.8710   -4.7030   47.7130 C   0  0  0  0  0  0
  195.7440   -3.7230   48.0440 C   0  0  0  0  0  0
  199.2260   -5.7150   53.0620 O   0  0  0  0  0  0
  198.5850   -4.5900   52.3470 C   0  0  1  0  0  0
  199.5370   -2.6820   51.2180 O   0  0  0  0  0  0
  200.8660   -4.4600   51.6170 N   0  0  0  0  0  0
  202.1580   -3.8040   51.5250 C   0  0  0  0  0  0
  202.6770   -3.7490   50.1080 C   0  0  0  0  0  0
  201.9270   -3.9030   49.1380 O   0  0  0  0  0  0
  199.7070   -3.8140   51.6740 C   0  0  0  0  0  0
  203.9790   -3.5100   49.9970 N   0  0  0  0  0  0
  204.6440   -3.4330   48.7050 C   0  0  1  0  0  0
  204.3130   -2.1330   47.9370 C   0  0  0  0  0  0
  204.3500   -0.8840   48.5660 C   0  0  0  0  0  0
  203.9790   -2.2020   46.5820 C   0  0  0  0  0  0
  204.0870    0.2800   47.8500 C   0  0  0  0  0  0
  203.7140   -1.0430   45.8550 C   0  0  0  0  0  0
  203.7590    0.1990   46.4950 C   0  0  0  0  0  0
  206.1550   -3.5820   48.8680 C   0  0  0  0  0  0
  206.7740   -2.8920   49.6850 O   0  0  0  0  0  0
  206.7760   -4.4760   48.0800 N   0  0  0  0  0  0
  208.2190   -4.5310   48.0670 C   0  0  0  0  0  0
  206.0870   -5.4280   47.2140 C   0  0  0  0  0  0
  189.7178   -9.3530   51.3023 H   0  0  0  0  0  0
  190.7889  -10.7327   51.7217 H   0  0  0  0  0  0
  189.0060  -10.9515   51.7085 H   0  0  0  0  0  0
  188.4663   -9.3769   49.0580 H   0  0  0  0  0  0
  187.7678  -10.9892   49.4312 H   0  0  0  0  0  0
  188.7134  -10.7472   47.9232 H   0  0  0  0  0  0
  191.0174  -12.6663   50.1299 H   0  0  0  0  0  0
  190.1812  -12.6373   48.5403 H   0  0  0  0  0  0
  189.2356  -12.8793   50.0483 H   0  0  0  0  0  0
  192.4765   -8.8734   47.7265 H   0  0  0  0  0  0
  194.7709  -10.5606   48.6640 H   0  0  0  0  0  0
  197.0219   -9.9975   47.5285 H   0  0  0  0  0  0
  196.8541   -8.2337   47.8246 H   0  0  0  0  0  0
  197.0177   -8.8510   46.1457 H   0  0  0  0  0  0
  195.1493  -11.2604   46.4331 H   0  0  0  0  0  0
  195.0826  -10.0876   45.0740 H   0  0  0  0  0  0
  193.6039  -10.4372   46.0321 H   0  0  0  0  0  0
  194.6328   -7.0545   47.1705 H   0  0  0  0  0  0
  193.3053   -8.0272   46.4506 H   0  0  0  0  0  0
  194.7840   -7.6776   45.4925 H   0  0  0  0  0  0
  194.9970  -11.2449   50.6930 H   0  0  0  0  0  0
  196.4884  -11.0628   49.7085 H   0  0  0  0  0  0
  195.5598   -7.9483   52.1590 H   0  0  0  0  0  0
  197.3735   -8.8611   53.2414 H   0  0  0  0  0  0
  197.5571  -11.5061   51.4448 H   0  0  0  0  0  0
  197.6802  -11.5169   54.2450 H   0  0  0  0  0  0
  196.2320  -12.5797   54.2555 H   0  0  0  0  0  0
  196.2579  -11.0870   55.2545 H   0  0  0  0  0  0
  194.1527  -10.1358   52.2729 H   0  0  0  0  0  0
  194.1234  -10.2539   54.0651 H   0  0  0  0  0  0
  194.0975  -11.7465   53.0661 H   0  0  0  0  0  0
  196.0951   -6.0410   52.0054 H   0  0  0  0  0  0
  198.6189   -5.5500   50.3290 H   0  0  0  0  0  0
  196.3685   -3.6095   51.0396 H   0  0  0  0  0  0
  197.7748   -3.2712   49.9745 H   0  0  0  0  0  0
  195.9204   -5.3534   49.8538 H   0  0  0  0  0  0
  197.9435   -4.4588   47.7185 H   0  0  0  0  0  0
  196.7291   -5.7229   47.3260 H   0  0  0  0  0  0
  194.6703   -3.9315   47.9272 H   0  0  0  0  0  0
  195.8847   -2.6674   48.3197 H   0  0  0  0  0  0
  198.6105   -6.4267   53.6317 H   0  0  0  0  0  0
  197.9583   -4.0610   53.0801 H   0  0  0  0  0  0
  200.8074   -5.5581   51.6433 H   0  0  0  0  0  0
  202.0723   -2.7717   51.8953 H   0  0  0  0  0  0
  202.8918   -4.3522   52.1341 H   0  0  0  0  0  0
  204.5568   -3.3684   50.9223 H   0  0  0  0  0  0
  204.2320   -4.2922   48.1554 H   0  0  0  0  0  0
  204.5873   -0.8219   49.6280 H   0  0  0  0  0  0
  203.9252   -3.1724   46.0885 H   0  0  0  0  0  0
  204.1368    1.2502   48.3444 H   0  0  0  0  0  0
  203.4731   -1.1045   44.7937 H   0  0  0  0  0  0
  203.5373    1.1072   45.9345 H   0  0  0  0  0  0
  208.6211   -3.7718   48.7540 H   0  0  0  0  0  0
  208.5843   -4.3340   47.0483 H   0  0  0  0  0  0
  208.5508   -5.5292   48.3888 H   0  0  0  0  0  0
  204.9998   -5.2903   47.3096 H   0  0  0  0  0  0
  206.3543   -6.4531   47.5102 H   0  0  0  0  0  0
  206.3877   -5.2579   46.1697 H   0  0  0  0  0  0
  1  2  2  0  0  0
  1  3  1  0  0  0
  1  8  1  0  0  0
  3  4  1  0  0  0
  4  5  1  0  0  0
  4  6  1  0  0  0
  4  7  1  0  0  0
  5 53  1  0  0  0
  5 54  1  0  0  0
  5 55  1  0  0  0
  6 56  1  0  0  0
  6 57  1  0  0  0
  6 58  1  0  0  0
  7 59  1  0  0  0
  7 60  1  0  0  0
  7 61  1  0  0  0
  8  9  1  0  0  0
  8 62  1  0  0  0
  9 10  1  0  0  0
  9 14  1  0  0  0
  9 63  1  0  0  0
 10 11  1  0  0  0
 10 12  1  0  0  0
 10 13  1  0  0  0
 11 64  1  0  0  0
 11 65  1  0  0  0
 11 66  1  0  0  0
 12 67  1  0  0  0
 12 68  1  0  0  0
 12 69  1  0  0  0
 13 70  1  0  0  0
 13 71  1  0  0  0
 13 72  1  0  0  0
 14 15  2  0  0  0
 14 16  1  0  0  0
 16 17  1  0  0  0
 16 18  1  0  0  0
 17 20  1  0  0  0
 17 73  1  0  0  0
 17 74  1  0  0  0
 18 19  1  0  0  0
 18 24  1  0  0  0
 18 75  1  0  0  0
 19 20  1  0  0  0
 19 21  1  0  0  0
 19 76  1  0  0  0
 20 21  1  0  0  0
 20 77  1  0  0  0
 21 22  1  0  0  0
 21 23  1  0  0  0
 22 78  1  0  0  0
 22 79  1  0  0  0
 22 80  1  0  0  0
 23 81  1  0  0  0
 23 82  1  0  0  0
 23 83  1  0  0  0
 24 25  2  0  0  0
 24 26  1  0  0  0
 26 27  1  0  0  0
 26 84  1  0  0  0
 27 28  1  0  0  0
 27 33  1  0  0  0
 27 85  1  0  0  0
 28 29  1  0  0  0
 28 86  1  0  0  0
 28 87  1  0  0  0
 29 30  1  0  0  0
 29 31  1  0  0  0
 29 88  1  0  0  0
 30 31  1  0  0  0
 30 89  1  0  0  0
 30 90  1  0  0  0
 31 91  1  0  0  0
 31 92  1  0  0  0
 32 33  1  0  0  0
 32 93  1  0  0  0
 33 39  1  0  0  0
 33 94  1  0  0  0
 34 39  2  0  0  0
 35 36  1  0  0  0
 35 39  1  0  0  0
 35 95  1  0  0  0
 36 37  1  0  0  0
 36 96  1  0  0  0
 36 97  1  0  0  0
 37 38  2  0  0  0
 37 40  1  0  0  0
 40 41  1  0  0  0
 40 98  1  0  0  0
 41 42  1  0  0  0
 41 48  1  0  0  0
 41 99  1  0  0  0
 42 43  2  0  0  0
 42 44  1  0  0  0
 43 45  1  0  0  0
 43100  1  0  0  0
 44 46  2  0  0  0
 44101  1  0  0  0
 45 47  2  0  0  0
 45102  1  0  0  0
 46 47  1  0  0  0
 46103  1  0  0  0
 47104  1  0  0  0
 48 49  2  0  0  0
 48 50  1  0  0  0
 50 51  1  0  0  0
 50 52  1  0  0  0
 51105  1  0  0  0
 51106  1  0  0  0
 51107  1  0  0  0
 52108  1  0  0  0
 52109  1  0  0  0
 52110  1  0  0  0
M  END
> <s_m_source_file>
../2fm2_ligand.sdf

> <i_m_source_file_index>
1

> <s_epik_input>
W0NIM11DKFtDSDNdKShbQ0gzXSlPQyg9TylbTkhdW0NAQEhdKEMoW0NIM10pKFtDSDNdKVtDSDNdKUMoPU8pTihbQ0gyXVtDQEBIXShbQ0BASF0xMilDMihbQ0gzXSlbQ0gzXSlbQ0BASF0xQyg9TylbTkhdW0NAQEhdKFtDSDJdW0NIXTNbQ0gyXVtDSDJdMylbQ0BASF0oW09IXSlDKD1PKVtOSF1bQ0gyXUMoPU8pW05IXVtDQEhdKEMoPU8pTihbQ0gzXSlbQ0gzXSljNFtjSF1bY0hdW2NIXVtjSF1bY0hdNA==

> <s_epik_cmdline>
J2VwaWtfYXBwJywgJy1pbWFlJywgJ2xpZ2FuZF9wcm8ubWFlJywgJy1vbWFlJywgJ2xpZ2FuZF9wcmVwLm1hZScsICctbXMnLCAnMScsICctcGgnLCAnNycsICctcGh0JywgJzAuNScsICctbnQn

> <r_lp_tautomer_probability>
1

> <r_epik_Ionization_Penalty>
  0.0000

> <r_epik_Ionization_Penalty_Charging>
  0.0000

> <r_epik_Ionization_Penalty_Neutral>
  0.0000

> <r_epik_State_Penalty>
 -0.0000

> <r_epik_Charging_Adjusted_Penalty>
0

> <i_epik_Tot_Q>
0

> <i_epik_Tot_abs_Q>
0

> <s_epik_Chemistry_Notes>
This compound has an ester and may undergo hydrolysis at high or low pH.

$$$$
