2fme_ligand
                    3D
 Schrodinger Suite 2020-3.
 48 50  0  0  1  0            999 V2000
   22.9670   81.5930   47.9630 C   0  0  0  0  0  0
   22.7600   82.5180   49.1080 C   0  0  0  0  0  0
   24.0810   79.6240   46.8990 C   0  0  0  0  0  0
   23.4630   79.9680   45.6570 C   0  0  0  0  0  0
   22.5800   81.1010   45.6000 C   0  0  0  0  0  0
   22.3320   81.9160   46.7440 C   0  0  0  0  0  0
   26.4090   79.2240   50.5910 C   0  0  0  0  0  0
   27.8490   79.0390   50.6980 C   0  0  0  0  0  0
   28.7670   79.7170   49.7950 C   0  0  0  0  0  0
   28.3130   80.6120   48.7770 C   0  0  0  0  0  0
   28.3720   78.1980   51.6600 O   0  0  0  0  0  0
   21.4410   83.0720   46.6850 C   0  0  0  0  0  0
   23.5850   82.2700   50.2630 N   0  0  0  0  0  0
   23.6520   80.8460   50.5570 C   0  0  0  0  0  0
   24.4760   80.3120   49.3840 C   0  0  1  0  0  0
   23.8090   80.4480   48.0500 C   0  0  0  0  0  0
   25.9410   80.1200   49.5580 C   0  0  0  0  0  0
   26.8880   80.8110   48.6890 C   0  0  0  0  0  0
   21.8600   81.4320   44.3460 C   0  0  0  0  0  0
   24.0240   83.2370   51.1190 C   0  0  0  0  0  0
   24.3780   84.4740   50.6530 N   0  0  0  0  0  0
   24.7910   84.8580   49.2910 C   0  0  0  0  0  0
   24.3540   85.5280   51.6640 C   0  0  0  0  0  0
   24.1010   82.9910   52.3200 O   0  0  0  0  0  0
   22.9739   83.5490   48.7897 H   0  0  0  0  0  0
   21.7172   82.4491   49.4512 H   0  0  0  0  0  0
   24.7415   78.7601   46.9739 H   0  0  0  0  0  0
   23.6592   79.3773   44.7622 H   0  0  0  0  0  0
   25.7165   78.7110   51.2584 H   0  0  0  0  0  0
   29.8369   79.5363   49.8984 H   0  0  0  0  0  0
   29.0064   81.1164   48.1041 H   0  0  0  0  0  0
   27.7006   77.6730   52.3554 H   0  0  0  0  0  0
   21.3965   83.5514   47.6740 H   0  0  0  0  0  0
   20.4332   82.7435   46.3910 H   0  0  0  0  0  0
   21.8224   83.7915   45.9455 H   0  0  0  0  0  0
   24.1424   80.6952   51.5300 H   0  0  0  0  0  0
   22.6341   80.4303   50.5911 H   0  0  0  0  0  0
   24.5357   79.2140   49.3541 H   0  0  0  0  0  0
   26.5022   81.5058   47.9431 H   0  0  0  0  0  0
   22.1511   80.7221   43.5578 H   0  0  0  0  0  0
   22.1196   82.4541   44.0330 H   0  0  0  0  0  0
   20.7755   81.3653   44.5174 H   0  0  0  0  0  0
   24.7639   83.9741   48.6368 H   0  0  0  0  0  0
   25.8134   85.2628   49.3183 H   0  0  0  0  0  0
   24.1038   85.6236   48.9016 H   0  0  0  0  0  0
   24.0302   85.1054   52.6266 H   0  0  0  0  0  0
   23.6520   86.3165   51.3550 H   0  0  0  0  0  0
   25.3617   85.9557   51.7717 H   0  0  0  0  0  0
  1  2  1  0  0  0
  1  6  2  0  0  0
  1 16  1  0  0  0
  2 13  1  0  0  0
  2 25  1  0  0  0
  2 26  1  0  0  0
  3  4  1  0  0  0
  3 16  2  0  0  0
  3 27  1  0  0  0
  4  5  2  0  0  0
  4 28  1  0  0  0
  5  6  1  0  0  0
  5 19  1  0  0  0
  6 12  1  0  0  0
  7  8  2  0  0  0
  7 17  1  0  0  0
  7 29  1  0  0  0
  8  9  1  0  0  0
  8 11  1  0  0  0
  9 10  2  0  0  0
  9 30  1  0  0  0
 10 18  1  0  0  0
 10 31  1  0  0  0
 11 32  1  0  0  0
 12 33  1  0  0  0
 12 34  1  0  0  0
 12 35  1  0  0  0
 13 14  1  0  0  0
 13 20  1  0  0  0
 14 15  1  0  0  0
 14 36  1  0  0  0
 14 37  1  0  0  0
 15 16  1  0  0  0
 15 17  1  0  0  0
 15 38  1  0  0  0
 17 18  2  0  0  0
 18 39  1  0  0  0
 19 40  1  0  0  0
 19 41  1  0  0  0
 19 42  1  0  0  0
 20 21  1  0  0  0
 20 24  2  0  0  0
 21 22  1  0  0  0
 21 23  1  0  0  0
 22 43  1  0  0  0
 22 44  1  0  0  0
 22 45  1  0  0  0
 23 46  1  0  0  0
 23 47  1  0  0  0
 23 48  1  0  0  0
M  END
> <s_m_source_file>
../2fme_ligand.sdf

> <i_m_source_file_index>
1

> <s_epik_input>
W0NIM11jMWMoW0NIM10pW2NIXVtjSF1jKGMxMilbQ0BASF0oYyhbY0hdYzNbT0hdKVtjSF1bY0hdW2NIXTMpW0NIMl1OKFtDSDJdMilDKD1PKU4oW0NIM10pW0NIM10=

> <s_epik_cmdline>
J2VwaWtfYXBwJywgJy1pbWFlJywgJ2xpZ2FuZF9wcm8ubWFlJywgJy1vbWFlJywgJ2xpZ2FuZF9wcmVwLm1hZScsICctbXMnLCAnMScsICctcGgnLCAnNycsICctcGh0JywgJzAuNScsICctbnQn

> <r_lp_tautomer_probability>
1

> <r_epik_Ionization_Penalty>
  0.0008

> <r_epik_Ionization_Penalty_Charging>
  0.0000

> <r_epik_Ionization_Penalty_Neutral>
  0.0008

> <r_epik_State_Penalty>
 -0.0000

> <r_epik_Charging_Adjusted_Penalty>
0

> <i_epik_Tot_Q>
0

> <i_epik_Tot_abs_Q>
0

$$$$
