2fo4_ligand
                    3D
 Schrodinger Suite 2020-3.
127129  0  0  1  0            999 V2000
   49.5070   56.6560    4.3310 N   0  3  0  0  0  0
   48.2820   57.3620    3.8510 C   0  0  2  0  0  0
   47.9800   56.9710    2.4100 C   0  0  0  0  0  0
   48.8150   57.1560    1.5290 O   0  0  0  0  0  0
   48.4800   58.8810    3.9460 C   0  0  0  0  0  0
   47.2940   59.5770    3.6080 O   0  0  0  0  0  0
   46.7890   56.4300    2.1760 N   0  0  0  0  0  0
   46.3860   56.0210    0.8370 C   0  0  2  0  0  0
   46.2380   57.2250   -0.0810 C   0  0  0  0  0  0
   46.0020   58.3390    0.3740 O   0  0  0  0  0  0
   45.0770   55.2550    0.8900 C   0  0  0  0  0  0
   46.3600   57.0070   -1.3980 N   0  0  0  0  0  0
   46.2390   58.0900   -2.3740 C   0  0  2  0  0  0
   44.8090   58.5770   -2.5380 C   0  0  0  0  0  0
   43.8560   57.9150   -2.1390 O   0  0  0  0  0  0
   46.7660   57.4540   -3.6480 C   0  0  0  0  0  0
   46.2480   56.0460   -3.5270 C   0  0  0  0  0  0
   46.5500   55.7090   -2.0770 C   0  0  0  0  0  0
   44.6750   59.7460   -3.1420 N   0  0  0  0  0  0
   43.3750   60.3370   -3.3870 C   0  0  2  0  0  0
   42.9620   59.9100   -4.7960 C   0  0  0  0  0  0
   43.5660   60.3450   -5.7710 O   0  0  0  0  0  0
   43.4980   61.8610   -3.2890 C   0  0  0  0  0  0
   42.1860   62.5690   -3.5120 C   0  0  0  0  0  0
   42.1750   63.8200   -3.4760 O   0  5  0  0  0  0
   41.1680   61.8750   -3.7260 O   0  0  0  0  0  0
   41.9510   59.0530   -4.9090 N   0  0  0  0  0  0
   41.5040   58.5810   -6.2240 C   0  0  2  0  0  0
   40.4920   59.4990   -6.8990 C   0  0  0  0  0  0
   39.5870   60.0230   -6.2570 O   0  0  0  0  0  0
   40.8810   57.1820   -6.1290 C   0  0  0  0  0  0
   41.8130   56.1260   -5.6090 C   0  0  0  0  0  0
   41.7780   55.7460   -4.2670 C   0  0  0  0  0  0
   42.7200   55.4970   -6.4630 C   0  0  0  0  0  0
   42.6310   54.7530   -3.7790 C   0  0  0  0  0  0
   43.5810   54.5010   -5.9910 C   0  0  0  0  0  0
   43.5340   54.1290   -4.6430 C   0  0  0  0  0  0
   40.6470   59.6840   -8.2060 N   0  0  0  0  0  0
   39.7290   60.5200   -8.9790 C   0  0  2  0  0  0
   39.2080   59.6940  -10.1580 C   0  0  0  0  0  0
   39.9400   58.8770  -10.7170 O   0  0  0  0  0  0
   40.4340   61.7950   -9.4590 C   0  0  0  0  0  0
   40.9670   62.6510   -8.3140 C   0  0  0  0  0  0
   41.4820   64.0000   -8.7860 C   0  0  0  0  0  0
   42.1520   64.7290   -7.7120 N   0  0  0  0  0  0
   42.5350   66.0010   -7.7940 C   0  0  0  0  0  0
   43.1410   66.5820   -6.7700 N   0  3  0  0  0  0
   42.3050   66.6980   -8.8970 N   0  0  0  0  0  0
   37.9330   59.8990  -10.5440 N   0  0  0  0  0  0
   37.2420   59.2070  -11.6360 C   0  0  2  0  0  0
   38.0530   58.9110  -12.8810 C   0  0  0  0  0  0
   38.9040   59.6900  -13.2910 O   0  0  0  0  0  0
   36.0660   60.1250  -11.9310 C   0  0  0  0  0  0
   35.7370   60.6390  -10.5950 C   0  0  0  0  0  0
   37.0980   61.0080  -10.0550 C   0  0  0  0  0  0
   37.7630   57.7620  -13.4750 N   0  0  0  0  0  0
   38.4200   57.3260  -14.6920 C   0  0  2  0  0  0
   37.4630   57.5710  -15.8620 C   0  0  0  0  0  0
   37.6540   56.9830  -16.9470 O   0  5  0  0  0  0
   38.7770   55.8410  -14.5670 C   0  0  0  0  0  0
   37.7190   54.8620  -14.0360 C   0  0  0  0  0  0
   36.6170   54.6610  -15.0600 C   0  0  0  0  0  0
   38.3810   53.5240  -13.7230 C   0  0  0  0  0  0
   36.5360   58.3830  -15.6750 O   0  0  0  0  0  0
   49.3555   55.5689    4.2591 H   0  0  0  0  0  0
   49.7018   56.9306    5.3782 H   0  0  0  0  0  0
   50.3660   56.9484    3.7093 H   0  0  0  0  0  0
   47.4477   57.0479    4.4955 H   0  0  0  0  0  0
   48.7625   59.1503    4.9744 H   0  0  0  0  0  0
   49.2767   59.1909    3.2538 H   0  0  0  0  0  0
   47.2767   60.6767    3.6288 H   0  0  0  0  0  0
   46.1008   56.2936    3.0232 H   0  0  0  0  0  0
   47.1952   55.3707    0.4731 H   0  0  0  0  0  0
   45.1877   54.3854    1.5545 H   0  0  0  0  0  0
   44.8114   54.9125   -0.1210 H   0  0  0  0  0  0
   44.2831   55.9119    1.2750 H   0  0  0  0  0  0
   46.8010   58.9754   -2.0420 H   0  0  0  0  0  0
   46.3621   57.9899   -4.5196 H   0  0  0  0  0  0
   47.8645   57.5112   -3.6592 H   0  0  0  0  0  0
   45.1718   56.0305   -3.7540 H   0  0  0  0  0  0
   46.7817   55.3967   -4.2366 H   0  0  0  0  0  0
   47.5836   55.3641   -1.9261 H   0  0  0  0  0  0
   45.8519   54.9699   -1.6571 H   0  0  0  0  0  0
   45.5871   60.2716   -3.4612 H   0  0  0  0  0  0
   42.6597   59.9786   -2.6321 H   0  0  0  0  0  0
   43.8619   62.1358   -2.2880 H   0  0  0  0  0  0
   44.2073   62.2212   -4.0487 H   0  0  0  0  0  0
   41.4483   58.6981   -3.9972 H   0  0  0  0  0  0
   42.4394   58.5881   -6.8027 H   0  0  0  0  0  0
   40.0161   57.2111   -5.4500 H   0  0  0  0  0  0
   40.5524   56.8583   -7.1276 H   0  0  0  0  0  0
   41.0750   56.2308   -3.5896 H   0  0  0  0  0  0
   42.7579   55.7862   -7.5133 H   0  0  0  0  0  0
   42.5920   54.4663   -2.7281 H   0  0  0  0  0  0
   44.2843   54.0176   -6.6691 H   0  0  0  0  0  0
   44.2012   53.3532   -4.2675 H   0  0  0  0  0  0
   41.4927   59.1887   -8.7054 H   0  0  0  0  0  0
   38.9021   60.8104   -8.3142 H   0  0  0  0  0  0
   41.2876   61.5237  -10.0976 H   0  0  0  0  0  0
   39.7268   62.4107  -10.0342 H   0  0  0  0  0  0
   40.1624   62.8319   -7.5861 H   0  0  0  0  0  0
   41.7975   62.1260   -7.8195 H   0  0  0  0  0  0
   42.2015   63.8517   -9.6048 H   0  0  0  0  0  0
   40.6392   64.6093   -9.1444 H   0  0  0  0  0  0
   42.3705   64.2257   -6.7586 H   0  0  0  0  0  0
   43.3361   66.0110   -5.8503 H   0  0  0  0  0  0
   41.8022   66.2235   -9.7526 H   0  0  0  0  0  0
   42.6169   67.7511   -8.9572 H   0  0  0  0  0  0
   36.9905   58.1934  -11.2904 H   0  0  0  0  0  0
   36.3825   60.9131  -12.6301 H   0  0  0  0  0  0
   35.2494   59.5416  -12.3814 H   0  0  0  0  0  0
   35.0629   61.5030  -10.6903 H   0  0  0  0  0  0
   35.2413   59.8500  -10.0104 H   0  0  0  0  0  0
   37.1323   61.0358   -8.9559 H   0  0  0  0  0  0
   37.4781   61.9584  -10.4578 H   0  0  0  0  0  0
   36.9915   57.1307  -13.0100 H   0  0  0  0  0  0
   39.3406   57.9148  -14.8180 H   0  0  0  0  0  0
   39.0472   55.4443  -15.5567 H   0  0  0  0  0  0
   39.6287   55.7251  -13.8805 H   0  0  0  0  0  0
   37.2646   55.2738  -13.1228 H   0  0  0  0  0  0
   36.1425   55.6281  -15.2826 H   0  0  0  0  0  0
   35.8643   53.9674  -14.6572 H   0  0  0  0  0  0
   37.0455   54.2418  -15.9823 H   0  0  0  0  0  0
   39.1787   53.6744  -12.9807 H   0  0  0  0  0  0
   38.8115   53.1036  -14.6439 H   0  0  0  0  0  0
   37.6302   52.8291  -13.3187 H   0  0  0  0  0  0
   43.4494   67.6356   -6.8391 H   0  0  0  0  0  0
  1  2  1  0  0  0
  1 65  1  0  0  0
  1 66  1  0  0  0
  1 67  1  0  0  0
  2  3  1  0  0  0
  2  5  1  0  0  0
  2 68  1  0  0  0
  3  4  2  0  0  0
  3  7  1  0  0  0
  5  6  1  0  0  0
  5 69  1  0  0  0
  5 70  1  0  0  0
  6 71  1  0  0  0
  7  8  1  0  0  0
  7 72  1  0  0  0
  8  9  1  0  0  0
  8 11  1  0  0  0
  8 73  1  0  0  0
  9 10  2  0  0  0
  9 12  1  0  0  0
 11 74  1  0  0  0
 11 75  1  0  0  0
 11 76  1  0  0  0
 12 13  1  0  0  0
 12 18  1  0  0  0
 13 14  1  0  0  0
 13 16  1  0  0  0
 13 77  1  0  0  0
 14 15  2  0  0  0
 14 19  1  0  0  0
 16 17  1  0  0  0
 16 78  1  0  0  0
 16 79  1  0  0  0
 17 18  1  0  0  0
 17 80  1  0  0  0
 17 81  1  0  0  0
 18 82  1  0  0  0
 18 83  1  0  0  0
 19 20  1  0  0  0
 19 84  1  0  0  0
 20 21  1  0  0  0
 20 23  1  0  0  0
 20 85  1  0  0  0
 21 22  2  0  0  0
 21 27  1  0  0  0
 23 24  1  0  0  0
 23 86  1  0  0  0
 23 87  1  0  0  0
 24 25  1  0  0  0
 24 26  2  0  0  0
 27 28  1  0  0  0
 27 88  1  0  0  0
 28 29  1  0  0  0
 28 31  1  0  0  0
 28 89  1  0  0  0
 29 30  2  0  0  0
 29 38  1  0  0  0
 31 32  1  0  0  0
 31 90  1  0  0  0
 31 91  1  0  0  0
 32 33  2  0  0  0
 32 34  1  0  0  0
 33 35  1  0  0  0
 33 92  1  0  0  0
 34 36  2  0  0  0
 34 93  1  0  0  0
 35 37  2  0  0  0
 35 94  1  0  0  0
 36 37  1  0  0  0
 36 95  1  0  0  0
 37 96  1  0  0  0
 38 39  1  0  0  0
 38 97  1  0  0  0
 39 40  1  0  0  0
 39 42  1  0  0  0
 39 98  1  0  0  0
 40 41  2  0  0  0
 40 49  1  0  0  0
 42 43  1  0  0  0
 42 99  1  0  0  0
 42100  1  0  0  0
 43 44  1  0  0  0
 43101  1  0  0  0
 43102  1  0  0  0
 44 45  1  0  0  0
 44103  1  0  0  0
 44104  1  0  0  0
 45 46  1  0  0  0
 45105  1  0  0  0
 46 47  2  0  0  0
 46 48  1  0  0  0
 47106  1  0  0  0
 47127  1  0  0  0
 48107  1  0  0  0
 48108  1  0  0  0
 49 50  1  0  0  0
 49 55  1  0  0  0
 50 51  1  0  0  0
 50 53  1  0  0  0
 50109  1  0  0  0
 51 52  2  0  0  0
 51 56  1  0  0  0
 53 54  1  0  0  0
 53110  1  0  0  0
 53111  1  0  0  0
 54 55  1  0  0  0
 54112  1  0  0  0
 54113  1  0  0  0
 55114  1  0  0  0
 55115  1  0  0  0
 56 57  1  0  0  0
 56116  1  0  0  0
 57 58  1  0  0  0
 57 60  1  0  0  0
 57117  1  0  0  0
 58 59  1  0  0  0
 58 64  2  0  0  0
 60 61  1  0  0  0
 60118  1  0  0  0
 60119  1  0  0  0
 61 62  1  0  0  0
 61 63  1  0  0  0
 61120  1  0  0  0
 62121  1  0  0  0
 62122  1  0  0  0
 62123  1  0  0  0
 63124  1  0  0  0
 63125  1  0  0  0
 63126  1  0  0  0
M  CHG  4   1   1  25  -1  47   1  59  -1
M  END
> <s_m_source_file>
../2fo4_ligand.sdf

> <i_m_source_file_index>
1

> <s_epik_input>
W09IXVtDSDJdW0NASF0oW05IMytdKUMoPU8pW05IXVtDQEBIXShbQ0gzXSlDKD1PKU4xW0NAQEhdKFtDSDJdW0NIMl1bQ0gyXTEpQyg9TylbTkhdW0NAQEhdKFtDSDJdQyg9TylbT0hdKUMoPU8pW05IXVtDQEBIXShbQ0gyXWMyW2NIXVtjSF1bY0hdW2NIXVtjSF0yKUMoPU8pW05IXVtDQEBIXShbQ0gyXVtDSDJdW0NIMl1bTkhdL0MoPU5cW0hdKVtOSDJdKUMoPU8pTjNbQ0BASF0oW0NIMl1bQ0gyXVtDSDJdMylDKD1PKVtOSF1bQ0BIXShDKD1PKVtPSF0pW0NIMl1bQ0hdKFtDSDNdKVtDSDNd

> <s_epik_cmdline>
J2VwaWtfYXBwJywgJy1pbWFlJywgJ2xpZ2FuZF9wcm8ubWFlJywgJy1vbWFlJywgJ2xpZ2FuZF9wcmVwLm1hZScsICctbXMnLCAnMScsICctcGgnLCAnNycsICctcGh0JywgJzAuNScsICctbnQn

> <r_epik_Ionization_Penalty>
  0.1509

> <r_epik_Ionization_Penalty_Charging>
  0.1509

> <r_epik_Ionization_Penalty_Neutral>
  0.0000

> <r_epik_State_Penalty>
  0.1388

> <r_epik_Charging_Adjusted_Penalty>
0.289684325813411

> <i_epik_Tot_Q>
0

> <i_epik_Tot_abs_Q>
4

> <s_epik_Chemistry_Notes>
This compound has an imine and may undergo hydrolysis.

$$$$
