2fou_ligand
                    3D
 Schrodinger Suite 2020-3.
 57 58  0  0  1  0            999 V2000
   10.6370   -0.5310   14.4470 S   0  0  0  0  0  0
   10.1760    0.7480   13.9930 O   0  0  0  0  0  0
    9.6920   -1.5590   14.7500 O   0  0  0  0  0  0
   11.4540   -0.2620   15.8040 N   0  0  0  0  0  0
   13.6050   -2.1760   11.4480 C   0  0  0  0  0  0
   12.9790   -3.0090   12.3630 C   0  0  0  0  0  0
   12.0650   -2.4600   13.2340 C   0  0  0  0  0  0
   11.7270   -1.1450   13.2010 C   0  0  0  0  0  0
   12.3450   -0.2820   12.3000 C   0  0  0  0  0  0
   13.2520   -0.8330   11.4460 C   0  0  0  0  0  0
   14.6520   -2.6940   10.4930 C   0  0  0  0  0  0
   14.3520   -4.0310    9.8350 C   0  0  0  0  0  0
   13.4160   -3.6420    8.7960 N   0  0  0  0  0  0
   13.6070   -3.1400    7.5810 C   0  0  0  0  0  0
   14.6660   -2.5130    7.2610 O   0  0  0  0  0  0
   12.5380   -3.0630    6.5210 C   0  0  0  0  0  0
   11.2170   -3.4110    6.6430 C   0  0  0  0  0  0
   10.3500   -3.2810    5.5540 C   0  0  0  0  0  0
   10.8330   -2.7950    4.3530 C   0  0  0  0  0  0
   12.1650   -2.4450    4.2390 C   0  0  0  0  0  0
   13.0110   -2.5900    5.3100 C   0  0  0  0  0  0
   12.7180   -1.9530    3.0860 N   0  0  0  0  0  0
   13.6720   -2.0230    2.1590 C   0  0  0  0  0  0
   14.7580   -2.6130    2.3590 O   0  0  0  0  0  0
   13.4840   -1.1560    0.9110 C   0  0  0  0  0  0
   12.3100   -0.3140    1.0710 N   0  3  0  0  0  0
   11.0360   -0.9140    0.7440 C   0  0  0  0  0  0
   10.2620    0.3760    0.9570 C   0  0  0  0  0  0
    9.4970    0.7150    0.0400 O   0  0  0  0  0  0
   10.5240    0.9180    2.0510 O   0  5  0  0  0  0
   12.4460    1.0430    1.5090 C   0  0  0  0  0  0
   13.8360    1.1550    2.1080 C   0  0  0  0  0  0
   14.7210    1.5940    1.3410 O   0  0  0  0  0  0
   13.9410    1.1320    3.3570 O   0  5  0  0  0  0
   10.7687    0.1201   16.5750 H   0  0  0  0  0  0
   12.2440    0.4798   15.6154 H   0  0  0  0  0  0
   13.2125   -4.0633   12.3813 H   0  0  0  0  0  0
   11.5880   -3.0806   13.9782 H   0  0  0  0  0  0
   12.0966    0.7691   12.3019 H   0  0  0  0  0  0
   13.7056   -0.1565   10.7368 H   0  0  0  0  0  0
   14.7882   -1.9741    9.6725 H   0  0  0  0  0  0
   15.6041   -2.8244   11.0282 H   0  0  0  0  0  0
   15.2837   -4.4627    9.4405 H   0  0  0  0  0  0
   13.9163   -4.7156   10.5776 H   0  0  0  0  0  0
   12.3339   -3.7494    8.9622 H   0  0  0  0  0  0
   10.8424   -3.7874    7.5834 H   0  0  0  0  0  0
    9.3113   -3.5593    5.6545 H   0  0  0  0  0  0
   10.1698   -2.6898    3.5072 H   0  0  0  0  0  0
   14.0539   -2.3313    5.2015 H   0  0  0  0  0  0
   12.2571   -1.0928    2.5785 H   0  0  0  0  0  0
   14.3710   -0.5213    0.7685 H   0  0  0  0  0  0
   13.3512   -1.8032    0.0315 H   0  0  0  0  0  0
   12.4149    0.0298    0.0314 H   0  0  0  0  0  0
   11.0684   -1.3064   -0.2831 H   0  0  0  0  0  0
   10.8274   -1.7363    1.4443 H   0  0  0  0  0  0
   12.3292    1.7192    0.6493 H   0  0  0  0  0  0
   11.6722    1.2657    2.2585 H   0  0  0  0  0  0
  1  2  2  0  0  0
  1  3  2  0  0  0
  1  4  1  0  0  0
  1  8  1  0  0  0
  4 35  1  0  0  0
  4 36  1  0  0  0
  5  6  2  0  0  0
  5 10  1  0  0  0
  5 11  1  0  0  0
  6  7  1  0  0  0
  6 37  1  0  0  0
  7  8  2  0  0  0
  7 38  1  0  0  0
  8  9  1  0  0  0
  9 10  2  0  0  0
  9 39  1  0  0  0
 10 40  1  0  0  0
 11 12  1  0  0  0
 11 41  1  0  0  0
 11 42  1  0  0  0
 12 13  1  0  0  0
 12 43  1  0  0  0
 12 44  1  0  0  0
 13 14  1  0  0  0
 13 45  1  0  0  0
 14 15  2  0  0  0
 14 16  1  0  0  0
 16 17  2  0  0  0
 16 21  1  0  0  0
 17 18  1  0  0  0
 17 46  1  0  0  0
 18 19  2  0  0  0
 18 47  1  0  0  0
 19 20  1  0  0  0
 19 48  1  0  0  0
 20 21  2  0  0  0
 20 22  1  0  0  0
 21 49  1  0  0  0
 22 23  1  0  0  0
 22 50  1  0  0  0
 23 24  2  0  0  0
 23 25  1  0  0  0
 25 26  1  0  0  0
 25 51  1  0  0  0
 25 52  1  0  0  0
 26 27  1  0  0  0
 26 31  1  0  0  0
 26 53  1  0  0  0
 27 28  1  0  0  0
 27 54  1  0  0  0
 27 55  1  0  0  0
 28 29  2  0  0  0
 28 30  1  0  0  0
 31 32  1  0  0  0
 31 56  1  0  0  0
 31 57  1  0  0  0
 32 33  2  0  0  0
 32 34  1  0  0  0
M  CHG  3  26   1  30  -1  34  -1
M  END
> <s_m_entry_id>
36

> <s_m_entry_name>
2fou_protein.1 2fou_ligand.1_

> <s_m_Source_Path>
/disk1/aquila/PDBbind2020/fail/2fou

> <s_m_Source_File>
2fou_protein.pdb

> <i_m_Source_File_Index>
1

> <s_pdb_PDB_TITLE>
2fou_protein

> <i_pdb_PDB_Model>
1

> <s_pdb_PDB_format_version>
3.0

> <s_ppw_entry_id_backup>
34

> <b_ppw_prepared>
1

> <s_ppw_prepared_with_version>
2020-2

> <b_ppw_assigned_bond_orders>
1

> <b_ppw_added_hydrogens>
1

> <b_ppw_treated_metals>
1

> <s_ppw_het_states>
eJztlj9TwkAQxb/KTVqTeLuXS7jQWdk6lowFg1QiWMTCYfju3l72HTooWNCIprm39+eXxx5vYFtQ0ZtZfKg09qE0M9bR6djo6HVsdex0nOgYdCQLASIBSWASoAQqAUvgEsAEMoPM2SvIDDKDzCAzyAwyg8wgO5AdyC63AWSXyKKkVXGZk7nSuL2MW0jlRGW00eqGKKU5mJb+kHa0U9mlg6x9DTobxoOMrkpDCZ2VphK6S9mBCI8zUrRYEdFhRbzBh8wSfCcRsE0ErIuQM5wL2BHBsCNCboNz4bEivmBHBHcfCgc7MsuwI4JhRwoHO7LfwYEIhwtJRWpIrEJtWxfPbXelqdpU2P0THRX3w3xYmpfler4a3vp0wDwt5qvr581qam6rm8360Sw2r+uhNzw1d72xRfo6XHR08lUciU6VL+JIdir6D89vDY+tbePbMTxcB980h3mJe/yJvFT0BwLzk9+a/8BceGCo9o24lsBQ3fguHAZG9pwKDBdCK1j/ozHZ9BnlfWMsx1ck8UUg7bd8m/hXynd7vj83PwV+BNP5wPQJ7M4HdrEju3fp/nBn

> <b_ppw_created_disulfur>
1

> <s_m_source_file>
../2fou_ligand.sdf

> <i_m_source_file_index>
1

> <s_epik_input>
Tz1TKD1PKShbTkgyXSljKFtjSF1bY0hdMSlbY0hdW2NIXWMxW0NIMl1bQ0gyXVtOSF1DKD1PKWMyW2NIXVtjSF1bY0hdYyhbY0hdMilbTkhdQyg9TylbQ0gyXVtOSCtdKFtDSDJdQyg9TylbTy1dKVtDSDJdQyg9TylbTy1d

> <s_epik_cmdline>
J2VwaWtfYXBwJywgJy1pbWFlJywgJ2xpZ2FuZF9wcm8ubWFlJywgJy1vbWFlJywgJ2xpZ2FuZF9wcmVwLm1hZScsICctbXMnLCAnMScsICctcGgnLCAnNycsICctcGh0JywgJzAuNScsICctbnQn

> <r_epik_Ionization_Penalty>
  0.0535

> <r_epik_Ionization_Penalty_Charging>
  0.0531

> <r_epik_Ionization_Penalty_Neutral>
  0.0004

> <r_epik_State_Penalty>
  0.0456

> <r_epik_Charging_Adjusted_Penalty>
0.0986993001780141

> <i_epik_Tot_Q>
-1

> <i_epik_Tot_abs_Q>
3

$$$$
