2fov_ligand
                    3D
 Schrodinger Suite 2020-3.
 40 40  0  0  1  0            999 V2000
   -5.9240    1.0070   16.8970 S   0  0  0  0  0  0
   -5.3560    1.1510   18.2080 O   0  0  0  0  0  0
   -7.3580    1.1080   16.7330 O   0  0  0  0  0  0
   -5.4020   -0.3530   16.2130 N   0  0  0  0  0  0
   -4.1630    4.5280   14.5650 C   0  0  0  0  0  0
   -3.3580    3.4720   14.9930 C   0  0  0  0  0  0
   -3.9010    2.4130   15.6930 C   0  0  0  0  0  0
   -5.2540    2.3560   15.9480 C   0  0  0  0  0  0
   -6.0430    3.4210   15.5440 C   0  0  0  0  0  0
   -5.5120    4.4820   14.8360 C   0  0  0  0  0  0
   -3.6020    5.6860   13.8060 C   0  0  0  0  0  0
   -4.3320    6.6850   13.6490 O   0  0  0  0  0  0
   -2.3660    5.5760   13.3430 N   0  0  0  0  0  0
   -1.7640    6.4580   12.2910 C   0  0  0  0  0  0
   -0.8150    5.6500   11.3520 C   0  0  0  0  0  0
   -1.3150    5.2210   10.0830 N   0  3  0  0  0  0
   -2.6970    5.3020    9.6580 C   0  0  0  0  0  0
   -3.6350    4.4450   10.4730 C   0  0  0  0  0  0
   -4.8210    4.7490   10.5300 O   0  0  0  0  0  0
   -3.1060    3.4730   11.0350 O   0  5  0  0  0  0
   -0.4260    4.7120    9.0440 C   0  0  0  0  0  0
    0.7970    4.0460    9.6330 C   0  0  0  0  0  0
    0.6540    2.9120   10.1210 O   0  5  0  0  0  0
    1.8850    4.6500    9.6080 O   0  0  0  0  0  0
   -5.7937   -1.2171   16.7696 H   0  0  0  0  0  0
   -4.3023   -0.3735   16.2304 H   0  0  0  0  0  0
   -2.2997    3.4779   14.7775 H   0  0  0  0  0  0
   -3.2636    1.6166   16.0477 H   0  0  0  0  0  0
   -7.0965    3.4333   15.7816 H   0  0  0  0  0  0
   -6.1587    5.2769   14.4949 H   0  0  0  0  0  0
   -1.7700    4.7659   13.7886 H   0  0  0  0  0  0
   -2.5654    6.9018   11.6821 H   0  0  0  0  0  0
   -1.1830    7.2586   12.7722 H   0  0  0  0  0  0
    0.0703    6.2580   11.1143 H   0  0  0  0  0  0
   -0.4997    4.7251   11.8571 H   0  0  0  0  0  0
   -1.3545    5.2154   11.1823 H   0  0  0  0  0  0
   -3.0465    6.3415    9.7433 H   0  0  0  0  0  0
   -2.7788    4.9724    8.6117 H   0  0  0  0  0  0
   -0.9629    3.9720    8.4323 H   0  0  0  0  0  0
   -0.0940    5.5440    8.4056 H   0  0  0  0  0  0
  1  2  2  0  0  0
  1  3  2  0  0  0
  1  4  1  0  0  0
  1  8  1  0  0  0
  4 25  1  0  0  0
  4 26  1  0  0  0
  5  6  2  0  0  0
  5 10  1  0  0  0
  5 11  1  0  0  0
  6  7  1  0  0  0
  6 27  1  0  0  0
  7  8  2  0  0  0
  7 28  1  0  0  0
  8  9  1  0  0  0
  9 10  2  0  0  0
  9 29  1  0  0  0
 10 30  1  0  0  0
 11 12  2  0  0  0
 11 13  1  0  0  0
 13 14  1  0  0  0
 13 31  1  0  0  0
 14 15  1  0  0  0
 14 32  1  0  0  0
 14 33  1  0  0  0
 15 16  1  0  0  0
 15 34  1  0  0  0
 15 35  1  0  0  0
 16 17  1  0  0  0
 16 21  1  0  0  0
 16 36  1  0  0  0
 17 18  1  0  0  0
 17 37  1  0  0  0
 17 38  1  0  0  0
 18 19  2  0  0  0
 18 20  1  0  0  0
 21 22  1  0  0  0
 21 39  1  0  0  0
 21 40  1  0  0  0
 22 23  1  0  0  0
 22 24  2  0  0  0
M  CHG  3  16   1  20  -1  23  -1
M  END
> <s_m_entry_id>
30

> <s_m_entry_name>
2fov_protein.1 2fov_ligand.1_mol3

> <s_m_Source_Path>
/disk1/aquila/PDBbind2020/fail/2fov

> <s_m_Source_File>
2fov_protein.pdb

> <i_m_Source_File_Index>
1

> <s_pdb_PDB_TITLE>
2fov_protein

> <i_pdb_PDB_Model>
1

> <s_pdb_PDB_format_version>
3.0

> <s_ppw_entry_id_backup>
26

> <b_ppw_prepared>
1

> <s_ppw_prepared_with_version>
2020-2

> <b_ppw_assigned_bond_orders>
1

> <b_ppw_added_hydrogens>
1

> <b_ppw_treated_metals>
1

> <s_ppw_het_states>
eJztkj9PwzAQxb/KyXNSfCbknHRjYkWMKENUOhGSDmFAVb87OV/VF1dIXUHC09Pzn3f+3R0du5ZelxV8HQryXUEq7yEryAfIGlIgI2RzkeIhGRJpgjRBmiBNkCZIE6QJ0iLSItIi0iLSItJiSlN9JmEQwvk3ZlTXxnKJM6OBUSdDcCUZSiA7oRwYJA0ig6c9GkDVgDLY2qMBWI1oblS4UiUDpas0xgzcRpoB3XhnRkTpkioVfF9SpdqMkBn4fkyFaTcYjbGe5IaWp51pNsEvzvFUUCmLDs1qFeRe5n7e02E/9sP81abj9L7rh7uPadjSU/k4jW+0mz7HuSXe0nNL3qWG/6XZX/G+OfvlivTPw3858T/9v336/cbb7AcV18O+7N4a9pJd152+AdxpQ4E=

> <b_ppw_created_disulfur>
1

> <s_m_source_file>
../2fov_ligand.sdf

> <i_m_source_file_index>
1

> <s_epik_input>
Tz1TKD1PKShbTkgyXSljKFtjSF1bY0hdMSlbY0hdW2NIXWMxQyg9TylbTkhdW0NIMl1bQ0gyXVtOSCtdKFtDSDJdQyg9TylbTy1dKVtDSDJdQyhbTy1dKT1P

> <s_epik_cmdline>
J2VwaWtfYXBwJywgJy1pbWFlJywgJ2xpZ2FuZF9wcm8ubWFlJywgJy1vbWFlJywgJ2xpZ2FuZF9wcmVwLm1hZScsICctbXMnLCAnMScsICctcGgnLCAnNycsICctcGh0JywgJzAuNScsICctbnQn

> <r_lp_tautomer_probability>
1

> <r_epik_Ionization_Penalty>
  0.0028

> <r_epik_Ionization_Penalty_Charging>
  0.0016

> <r_epik_Ionization_Penalty_Neutral>
  0.0013

> <r_epik_State_Penalty>
 -0.0000

> <r_epik_Charging_Adjusted_Penalty>
0.00155981635026978

> <i_epik_Tot_Q>
-1

> <i_epik_Tot_abs_Q>
3

$$$$
