2foy_ligand
                    3D
 Schrodinger Suite 2020-3.
 40 40  0  0  1  0            999 V2000
  -16.5550   -1.0480  -20.3290 S   0  0  0  0  0  0
  -17.3230   -2.0080  -21.0810 O   0  0  0  0  0  0
  -16.3250    0.2510  -20.9150 O   0  0  0  0  0  0
  -15.1600   -1.7030  -19.8890 N   0  0  0  0  0  0
  -19.0180   -0.3910  -16.4290 C   0  0  0  0  0  0
  -18.3790   -1.6310  -16.7190 C   0  0  0  0  0  0
  -17.6310   -1.8080  -17.9040 C   0  0  0  0  0  0
  -17.4960   -0.7670  -18.8320 C   0  0  0  0  0  0
  -18.1280    0.4660  -18.5390 C   0  0  0  0  0  0
  -18.8790    0.6570  -17.3570 C   0  0  0  0  0  0
  -19.8390   -0.2230  -15.1610 C   0  0  0  0  0  0
  -20.7770    0.6140  -15.2110 O   0  0  0  0  0  0
  -19.5370   -0.9790  -14.1000 N   0  0  0  0  0  0
  -20.2760   -0.9660  -12.7750 C   0  0  0  0  0  0
  -19.9160    0.2470  -11.8240 C   0  0  0  0  0  0
  -18.5810    0.4710  -11.2790 N   0  3  0  0  0  0
  -17.7600    1.5830  -11.6930 C   0  0  0  0  0  0
  -17.2960    1.5220  -13.1150 C   0  0  0  0  0  0
  -17.2780    2.5660  -13.7590 O   0  0  0  0  0  0
  -16.9540    0.4080  -13.5460 O   0  5  0  0  0  0
  -17.9850   -0.2620  -10.1470 C   0  0  0  0  0  0
  -18.3790   -1.7140  -10.1300 C   0  0  0  0  0  0
  -18.0640   -2.4040  -11.1050 O   0  5  0  0  0  0
  -19.0010   -2.1630   -9.1580 O   0  0  0  0  0  0
  -14.5466   -1.8936  -20.7820 H   0  0  0  0  0  0
  -15.3494   -2.6514  -19.3650 H   0  0  0  0  0  0
  -18.4620   -2.4561  -16.0271 H   0  0  0  0  0  0
  -17.1536   -2.7557  -18.1047 H   0  0  0  0  0  0
  -18.0432    1.2934  -19.2280 H   0  0  0  0  0  0
  -19.3470    1.6117  -17.1675 H   0  0  0  0  0  0
  -18.6768   -1.6494  -14.2434 H   0  0  0  0  0  0
  -21.3591   -0.9125  -12.9598 H   0  0  0  0  0  0
  -20.0443   -1.8851  -12.2169 H   0  0  0  0  0  0
  -20.1144    1.1942  -12.3469 H   0  0  0  0  0  0
  -20.5316    0.1947  -10.9139 H   0  0  0  0  0  0
  -18.9472   -0.2212  -12.0515 H   0  0  0  0  0  0
  -18.3278    2.5187  -11.5835 H   0  0  0  0  0  0
  -16.8576    1.6262  -11.0655 H   0  0  0  0  0  0
  -16.8882   -0.2093  -10.2128 H   0  0  0  0  0  0
  -18.3178    0.1905   -9.2012 H   0  0  0  0  0  0
  1  2  2  0  0  0
  1  3  2  0  0  0
  1  4  1  0  0  0
  1  8  1  0  0  0
  4 25  1  0  0  0
  4 26  1  0  0  0
  5  6  2  0  0  0
  5 10  1  0  0  0
  5 11  1  0  0  0
  6  7  1  0  0  0
  6 27  1  0  0  0
  7  8  2  0  0  0
  7 28  1  0  0  0
  8  9  1  0  0  0
  9 10  2  0  0  0
  9 29  1  0  0  0
 10 30  1  0  0  0
 11 12  2  0  0  0
 11 13  1  0  0  0
 13 14  1  0  0  0
 13 31  1  0  0  0
 14 15  1  0  0  0
 14 32  1  0  0  0
 14 33  1  0  0  0
 15 16  1  0  0  0
 15 34  1  0  0  0
 15 35  1  0  0  0
 16 17  1  0  0  0
 16 21  1  0  0  0
 16 36  1  0  0  0
 17 18  1  0  0  0
 17 37  1  0  0  0
 17 38  1  0  0  0
 18 19  2  0  0  0
 18 20  1  0  0  0
 21 22  1  0  0  0
 21 39  1  0  0  0
 21 40  1  0  0  0
 22 23  1  0  0  0
 22 24  2  0  0  0
M  CHG  3  16   1  20  -1  23  -1
M  END
> <s_m_entry_id>
42

> <s_m_entry_name>
2foy_protein.1 2foy_ligand.1_

> <s_m_Source_Path>
/disk1/aquila/PDBbind2020/fail/2foy

> <s_m_Source_File>
2foy_protein.pdb

> <i_m_Source_File_Index>
1

> <s_pdb_PDB_TITLE>
2foy_protein

> <i_pdb_PDB_Model>
1

> <s_pdb_PDB_format_version>
3.0

> <s_ppw_entry_id_backup>
40

> <b_ppw_prepared>
1

> <s_ppw_prepared_with_version>
2020-2

> <b_ppw_assigned_bond_orders>
1

> <b_ppw_added_hydrogens>
1

> <b_ppw_treated_metals>
1

> <s_ppw_het_states>
eJztUrFOw0AM/RUrK5dy9qVJk26dWBFjlSEqnQgJQxhQ1X/v+eIXIhgQIxJZ3nPu7vnZepeMs4aO8WNHvnV0FMNgWBhuDUvDynBnWBuyB4EiQ5KhyRBlqHKU5USgyxBmKAuUZfEKZYGyJGVlOlA8liThKHzSAq0c7YxGG6VdiFRHwG+dgm3uymiVHopNX9vfen4omJ1lXQQ0VbI4ULJFoWRZg5JqVQivFsTwnUiNPmoK1vW+roexJwnrotA3rXbfsPq7XB3l9cyzp6mbzvR2Hrp++mjmO/Ry6vr717Hf00N+GIdnOo3vw9RQ2NNjQ3ecpaX/kRjly46+58jO/oP0qyD5jZ9TVCr5GqF46n9IUB4T1F5v9Gj8Hg==

> <b_ppw_created_disulfur>
1

> <s_m_source_file>
../2foy_ligand.sdf

> <i_m_source_file_index>
1

> <s_epik_input>
Tz1TKD1PKShbTkgyXSljKFtjSF1bY0hdMSlbY0hdW2NIXWMxQyg9TylbTkhdW0NIMl1bQ0gyXVtOSCtdKFtDSDJdQyg9TylbTy1dKVtDSDJdQyhbTy1dKT1P

> <s_epik_cmdline>
J2VwaWtfYXBwJywgJy1pbWFlJywgJ2xpZ2FuZF9wcm8ubWFlJywgJy1vbWFlJywgJ2xpZ2FuZF9wcmVwLm1hZScsICctbXMnLCAnMScsICctcGgnLCAnNycsICctcGh0JywgJzAuNScsICctbnQn

> <r_lp_tautomer_probability>
1

> <r_epik_Ionization_Penalty>
  0.0028

> <r_epik_Ionization_Penalty_Charging>
  0.0016

> <r_epik_Ionization_Penalty_Neutral>
  0.0013

> <r_epik_State_Penalty>
 -0.0000

> <r_epik_Charging_Adjusted_Penalty>
0.00155981635026978

> <i_epik_Tot_Q>
-1

> <i_epik_Tot_abs_Q>
3

$$$$
