2fpz_ligand
                    3D
 Schrodinger Suite 2020-3.
 16 17  0  0  1  0            999 V2000
   32.0420   20.7960   83.2330 N   0  0  0  0  0  0
   32.8570   21.5580   84.0050 C   0  0  0  0  0  0
   30.8320   20.7930   83.7940 C   0  0  0  0  0  0
   29.6060   20.1670   83.4160 C   0  0  0  0  0  0
   28.4470   20.3620   84.2480 C   0  0  0  0  0  0
   28.5370   21.1730   85.4340 C   0  0  0  0  0  0
   29.7790   21.7960   85.8000 C   0  0  0  0  0  0
   30.9210   21.5940   84.9610 C   0  0  0  0  0  0
   32.1820   22.0510   85.0650 N   0  0  0  0  0  0
   34.1580   21.7870   83.7450 N   0  0  0  0  0  0
   29.5608   19.5510   82.5058 H   0  0  0  0  0  0
   27.4915   19.8898   83.9758 H   0  0  0  0  0  0
   27.6505   21.3199   86.0684 H   0  0  0  0  0  0
   29.8501   22.4097   86.6980 H   0  0  0  0  0  0
   34.7515   22.4182   84.4228 H   0  0  0  0  0  0
   32.4352   20.3168   82.3243 H   0  0  0  0  0  0
  1  2  1  0  0  0
  1  3  1  0  0  0
  1 16  1  0  0  0
  2  9  1  0  0  0
  2 10  2  0  0  0
  3  4  2  0  0  0
  3  8  1  0  0  0
  4  5  1  0  0  0
  4 11  1  0  0  0
  5  6  2  0  0  0
  5 12  1  0  0  0
  6  7  1  0  0  0
  6 13  1  0  0  0
  7  8  1  0  0  0
  7 14  1  0  0  0
  8  9  2  0  0  0
 10 15  1  0  0  0
M  END
> <s_m_source_file>
../2fpz_ligand.sdf

> <i_m_source_file_index>
1

> <s_epik_input>
TjE9QyhbTkgyXSlOPUMoQzE9MilbQ0gyXVtDSF09W0NIXVtDSF0y

> <s_epik_cmdline>
J2VwaWtfYXBwJywgJy1pbWFlJywgJ2xpZ2FuZF9wcm8ubWFlJywgJy1vbWFlJywgJ2xpZ2FuZF9wcmVwLm1hZScsICctbXMnLCAnMScsICctcGgnLCAnNycsICctcGh0JywgJzAuNScsICctbnQn

> <r_epik_Ionization_Penalty>
  5.0275

> <r_epik_Ionization_Penalty_Charging>
  0.0000

> <r_epik_Ionization_Penalty_Neutral>
  5.0275

> <r_epik_State_Penalty>
  0.4658

> <r_epik_Charging_Adjusted_Penalty>
0.465814513882409

> <i_epik_Tot_Q>
0

> <i_epik_Tot_abs_Q>
0

> <s_epik_Chemistry_Notes>
This compound has an imine and may undergo hydrolysis.

$$$$
