2fq6_ligand
                    3D
 Schrodinger Suite 2020-3.
 49 50  0  0  1  0            999 V2000
   -5.1270   10.4150   46.5930 O   0  0  0  0  0  0
   -5.2470   11.4470   47.6890 P   0  0  0  0  0  0
   -6.6710   11.8790   47.9980 O   0  5  0  0  0  0
   -4.2250   12.5780   47.6870 O   0  5  0  0  0  0
   -4.7970   10.5940   48.9950 O   0  0  0  0  0  0
   -5.5640    9.4520   49.4030 C   0  0  0  0  0  0
   -5.3940    9.1750   50.8900 C   0  0  0  0  0  0
   -4.2730    8.4320   51.2680 C   0  0  0  0  0  0
   -4.0510    8.1090   52.5490 N   0  3  0  0  0  0
   -4.8720    8.5140   53.5410 C   0  0  0  0  0  0
   -4.5600    8.1210   54.9800 C   0  0  0  0  0  0
   -6.0120    9.2590   53.1900 C   0  0  0  0  0  0
   -6.8400    9.6580   54.1850 O   0  5  0  0  0  0
   -6.2680    9.6620   51.8630 C   0  0  0  0  0  0
   -7.5940   10.3710   51.5890 C   0  0  0  0  0  0
   -8.2890   11.4700   51.5470 N   0  0  0  0  0  0
   -9.6830   11.0410   51.3780 N   0  0  0  0  0  0
  -10.7860   10.9270   52.2940 C   0  0  0  0  0  0
  -11.0030   11.2870   53.4730 O   0  0  0  0  0  0
  -11.9590   10.2640   51.6270 C   0  0  0  0  0  0
  -11.8030    9.5710   50.3610 N   0  0  0  0  0  0
  -12.5160    8.4250   50.0390 C   0  0  0  0  0  0
  -13.3070    7.8160   50.8070 O   0  0  0  0  0  0
  -12.3430    7.8480   48.6860 C   0  0  0  0  0  0
  -12.6630    8.6460   47.5870 C   0  0  0  0  0  0
  -13.2370    9.9650   47.7660 C   0  0  0  0  0  0
  -14.4590    9.8380   48.3210 F   0  0  0  0  0  0
  -13.3320   10.6030   46.5930 F   0  0  0  0  0  0
  -12.6000   10.7310   48.5900 F   0  0  0  0  0  0
  -11.8080    6.5840   48.4780 C   0  0  0  0  0  0
  -11.6570    6.1290   47.1500 C   0  0  0  0  0  0
  -11.9850    6.9320   46.0780 C   0  0  0  0  0  0
  -12.5230    8.2000   46.2760 C   0  0  0  0  0  0
   -6.6296    9.6347   49.2005 H   0  0  0  0  0  0
   -5.2306    8.5668   48.8416 H   0  0  0  0  0  0
   -3.5647    8.1086   50.5052 H   0  0  0  0  0  0
   -3.6230    7.5454   55.0079 H   0  0  0  0  0  0
   -5.3803    7.5058   55.3781 H   0  0  0  0  0  0
   -4.4514    9.0282   55.5925 H   0  0  0  0  0  0
   -8.0638    9.4126   51.3229 H   0  0  0  0  0  0
  -10.0455   10.7263   50.3883 H   0  0  0  0  0  0
  -12.3713    9.4918   52.2932 H   0  0  0  0  0  0
  -12.7331   11.0160   51.4142 H   0  0  0  0  0  0
  -11.0957    9.9514   49.6093 H   0  0  0  0  0  0
  -11.5117    5.9579   49.3196 H   0  0  0  0  0  0
  -11.2742    5.1247   46.9688 H   0  0  0  0  0  0
  -11.8209    6.5692   45.0634 H   0  0  0  0  0  0
  -12.8244    8.8224   45.4335 H   0  0  0  0  0  0
   -3.1782    7.4960   52.8184 H   0  0  0  0  0  0
  1  2  2  0  0  0
  2  3  1  0  0  0
  2  4  1  0  0  0
  2  5  1  0  0  0
  5  6  1  0  0  0
  6  7  1  0  0  0
  6 34  1  0  0  0
  6 35  1  0  0  0
  7  8  2  0  0  0
  7 14  1  0  0  0
  8  9  1  0  0  0
  8 36  1  0  0  0
  9 10  2  0  0  0
  9 49  1  0  0  0
 10 11  1  0  0  0
 10 12  1  0  0  0
 11 37  1  0  0  0
 11 38  1  0  0  0
 11 39  1  0  0  0
 12 13  1  0  0  0
 12 14  2  0  0  0
 14 15  1  0  0  0
 15 16  2  0  0  0
 15 40  1  0  0  0
 16 17  1  0  0  0
 17 18  1  0  0  0
 17 41  1  0  0  0
 18 19  2  0  0  0
 18 20  1  0  0  0
 20 21  1  0  0  0
 20 42  1  0  0  0
 20 43  1  0  0  0
 21 22  1  0  0  0
 21 44  1  0  0  0
 22 23  2  0  0  0
 22 24  1  0  0  0
 24 25  2  0  0  0
 24 30  1  0  0  0
 25 26  1  0  0  0
 25 33  1  0  0  0
 26 27  1  0  0  0
 26 28  1  0  0  0
 26 29  1  0  0  0
 30 31  2  0  0  0
 30 45  1  0  0  0
 31 32  1  0  0  0
 31 46  1  0  0  0
 32 33  2  0  0  0
 32 47  1  0  0  0
 33 48  1  0  0  0
M  CHG  4   3  -1   4  -1   9   1  13  -1
M  END
> <s_m_source_file>
../2fq6_ligand.sdf

> <i_m_source_file_index>
1

> <s_epik_input>
Tz1QKFtPSF0pKFtPSF0pT1tDSDJdYzFbY0hdbmMoW0NIM10pYyhbT0hdKWMxL1tDSF09Ti9bTkhdQyg9TylbQ0gyXVtOSF1DKD1PKWMyYyhDKEYpKEYpRilbY0hdW2NIXVtjSF1bY0hdMg==

> <s_epik_cmdline>
J2VwaWtfYXBwJywgJy1pbWFlJywgJ2xpZ2FuZF9wcm8ubWFlJywgJy1vbWFlJywgJ2xpZ2FuZF9wcmVwLm1hZScsICctbXMnLCAnMScsICctcGgnLCAnNycsICctcGh0JywgJzAuNScsICctbnQn

> <r_lp_tautomer_probability>
1

> <r_epik_Ionization_Penalty>
  0.0931

> <r_epik_Ionization_Penalty_Charging>
  0.0927

> <r_epik_Ionization_Penalty_Neutral>
  0.0004

> <r_epik_State_Penalty>
 -0.0000

> <r_epik_Charging_Adjusted_Penalty>
0.0927339803556522

> <i_epik_Tot_Q>
-2

> <i_epik_Tot_abs_Q>
4

> <s_epik_Chemistry_Notes>
This compound has an imine and may undergo hydrolysis.

$$$$
