2fqx_ligand
                    3D
 Schrodinger Suite 2020-3.
 33 35  0  0  1  0            999 V2000
   31.4040   62.4540   13.3650 O   0  0  0  0  0  0
   31.1240   61.0890   13.6970 C   0  0  0  0  0  0
   32.1240   60.1230   13.0500 C   0  0  1  0  0  0
   32.0410   60.2400   11.6200 O   0  0  0  0  0  0
   33.5730   60.4900   13.3730 C   0  0  1  0  0  0
   33.9590   59.9160   14.6270 O   0  0  0  0  0  0
   34.2890   59.7510   12.2450 C   0  0  1  0  0  0
   34.2830   58.3390   12.4800 O   0  0  0  0  0  0
   33.3580   60.0540   11.0680 C   0  0  2  0  0  0
   33.7210   61.3090   10.3680 N   0  0  0  0  0  0
   33.3780   62.5540   10.6980 C   0  0  0  0  0  0
   33.8610   63.3990    9.7900 N   0  0  0  0  0  0
   34.5170   62.6940    8.8710 C   0  0  0  0  0  0
   35.1930   63.0090    7.6970 C   0  0  0  0  0  0
   35.3470   64.1750    7.3280 O   0  0  0  0  0  0
   35.7360   61.9720    6.9340 N   0  0  0  0  0  0
   35.6030   60.6420    7.3580 C   0  0  0  0  0  0
   36.1220   59.6570    6.6330 N   0  0  0  0  0  0
   34.9520   60.3760    8.4970 N   0  0  0  0  0  0
   34.4200   61.3580    9.2410 C   0  0  0  0  0  0
   30.7661   63.2582   13.7604 H   0  0  0  0  0  0
   31.1775   60.9586   14.7879 H   0  0  0  0  0  0
   30.1156   60.8255   13.3453 H   0  0  0  0  0  0
   31.8667   59.1036   13.3734 H   0  0  0  0  0  0
   33.7941   61.5602   13.4985 H   0  0  0  0  0  0
   33.5459   60.3153   15.5650 H   0  0  0  0  0  0
   35.3560   59.9898   12.1249 H   0  0  0  0  0  0
   34.8932   57.9137   13.2904 H   0  0  0  0  0  0
   33.3745   59.2382   10.3303 H   0  0  0  0  0  0
   32.7937   62.8359   11.5739 H   0  0  0  0  0  0
   36.2690   62.1982    5.9987 H   0  0  0  0  0  0
   36.6555   59.8842    5.6982 H   0  0  0  0  0  0
   36.0182   58.6142    6.9675 H   0  0  0  0  0  0
  1  2  1  0  0  0
  1 21  1  0  0  0
  2  3  1  0  0  0
  2 22  1  0  0  0
  2 23  1  0  0  0
  3  4  1  0  0  0
  3  5  1  0  0  0
  3 24  1  0  0  0
  4  9  1  0  0  0
  5  6  1  0  0  0
  5  7  1  0  0  0
  5 25  1  0  0  0
  6 26  1  0  0  0
  7  8  1  0  0  0
  7  9  1  0  0  0
  7 27  1  0  0  0
  8 28  1  0  0  0
  9 10  1  0  0  0
  9 29  1  0  0  0
 10 11  1  0  0  0
 10 20  1  0  0  0
 11 12  2  0  0  0
 11 30  1  0  0  0
 12 13  1  0  0  0
 13 14  1  0  0  0
 13 20  2  0  0  0
 14 15  2  0  0  0
 14 16  1  0  0  0
 16 17  1  0  0  0
 16 31  1  0  0  0
 17 18  1  0  0  0
 17 19  2  0  0  0
 18 32  1  0  0  0
 18 33  1  0  0  0
 19 20  1  0  0  0
M  END
> <s_m_source_file>
../2fqx_ligand.sdf

> <i_m_source_file_index>
1

> <s_epik_input>
W09IXVtDSDJdW0NASF0xT1tDQEhdKFtDQEhdKFtPSF0pW0NAQEhdMVtPSF0pbihbY0hdbjIpYyhjMjMpbmMoW05IMl0pW25IXWMzPU8=

> <s_epik_cmdline>
J2VwaWtfYXBwJywgJy1pbWFlJywgJ2xpZ2FuZF9wcm8ubWFlJywgJy1vbWFlJywgJ2xpZ2FuZF9wcmVwLm1hZScsICctbXMnLCAnMScsICctcGgnLCAnNycsICctcGh0JywgJzAuNScsICctbnQn

> <r_lp_tautomer_probability>
1

> <r_epik_Ionization_Penalty>
  0.0019

> <r_epik_Ionization_Penalty_Charging>
  0.0018

> <r_epik_Ionization_Penalty_Neutral>
  0.0001

> <r_epik_State_Penalty>
 -0.0000

> <r_epik_Charging_Adjusted_Penalty>
0.0018396447029475

> <i_epik_Tot_Q>
0

> <i_epik_Tot_abs_Q>
0

> <s_epik_Chemistry_Notes>
This compound contains an acetal/aminal-like group ( X-CH(R)-Y where X, Y are N, S, or O) that may be acid/base labile, releasing an aldehyde.

$$$$
