2fr3_ligand
                    3D
 Schrodinger Suite 2020-3.
 49 49  0  0  1  0            999 V2000
   21.5640   29.4580   16.7490 C   0  0  0  0  0  0
   20.5180   30.1380   15.8720 C   0  0  0  0  0  0
   19.7450   29.1290   15.0400 C   0  0  0  0  0  0
   18.9460   28.2290   15.9450 C   0  0  0  0  0  0
   19.8690   27.5270   16.8880 C   0  0  0  0  0  0
   21.0480   28.1590   17.3370 C   0  0  0  0  0  0
   21.9240   27.7130   18.4160 C   0  0  0  0  0  0
   21.4360   26.8960   19.4500 C   0  0  0  0  0  0
   22.3530   26.3180   20.4330 C   0  0  0  0  0  0
   21.7540   25.4640   21.3930 C   0  0  0  0  0  0
   22.5990   24.7150   22.3030 C   0  0  0  0  0  0
   21.9250   23.7730   23.1530 C   0  0  0  0  0  0
   22.6630   23.1250   24.2050 C   0  0  0  0  0  0
   21.9360   22.1310   24.8380 C   0  0  0  0  0  0
   22.4130   21.5580   26.0880 C   0  0  0  0  0  0
   21.8820   30.4240   17.9050 C   0  0  0  0  0  0
   22.8690   29.2420   16.0140 C   0  0  0  0  0  0
   19.5130   26.1410   17.2460 C   0  0  0  0  0  0
   23.8160   26.5220   20.4220 C   0  0  0  0  0  0
   24.0380   23.5550   24.5640 C   0  0  0  0  0  0
   23.5170   20.9800   26.1320 O   0  5  0  0  0  0
   21.6950   21.5950   27.0800 O   0  0  0  0  0  0
   19.8048   30.6831   16.5078 H   0  0  0  0  0  0
   21.0143   30.8435   15.1895 H   0  0  0  0  0  0
   19.0628   29.6603   14.3601 H   0  0  0  0  0  0
   20.4493   28.5220   14.4522 H   0  0  0  0  0  0
   18.2247   28.8311   16.5171 H   0  0  0  0  0  0
   18.4053   27.4867   15.3395 H   0  0  0  0  0  0
   22.9789   28.0248   18.4127 H   0  0  0  0  0  0
   20.3585   26.6874   19.5241 H   0  0  0  0  0  0
   20.6587   25.3746   21.4423 H   0  0  0  0  0  0
   23.6908   24.8318   22.3686 H   0  0  0  0  0  0
   20.8584   23.5551   22.9954 H   0  0  0  0  0  0
   20.9947   21.7720   24.3963 H   0  0  0  0  0  0
   20.9656   30.6211   18.4807 H   0  0  0  0  0  0
   22.2691   31.3693   17.4969 H   0  0  0  0  0  0
   22.6384   29.9717   18.5632 H   0  0  0  0  0  0
   22.7054   28.5552   15.1705 H   0  0  0  0  0  0
   23.6097   28.8081   16.7018 H   0  0  0  0  0  0
   23.2405   30.2057   15.6355 H   0  0  0  0  0  0
   18.5536   25.8762   16.7776 H   0  0  0  0  0  0
   19.4232   26.0562   18.3390 H   0  0  0  0  0  0
   20.2968   25.4571   16.8883 H   0  0  0  0  0  0
   24.0837   27.2131   19.6092 H   0  0  0  0  0  0
   24.3196   25.5570   20.2635 H   0  0  0  0  0  0
   24.1341   26.9478   21.3851 H   0  0  0  0  0  0
   24.3578   24.3622   23.8886 H   0  0  0  0  0  0
   24.7258   22.7020   24.4676 H   0  0  0  0  0  0
   24.0490   23.9194   25.6018 H   0  0  0  0  0  0
  1  2  1  0  0  0
  1  6  1  0  0  0
  1 16  1  0  0  0
  1 17  1  0  0  0
  2  3  1  0  0  0
  2 23  1  0  0  0
  2 24  1  0  0  0
  3  4  1  0  0  0
  3 25  1  0  0  0
  3 26  1  0  0  0
  4  5  1  0  0  0
  4 27  1  0  0  0
  4 28  1  0  0  0
  5  6  2  0  0  0
  5 18  1  0  0  0
  6  7  1  0  0  0
  7  8  2  0  0  0
  7 29  1  0  0  0
  8  9  1  0  0  0
  8 30  1  0  0  0
  9 10  2  0  0  0
  9 19  1  0  0  0
 10 11  1  0  0  0
 10 31  1  0  0  0
 11 12  2  0  0  0
 11 32  1  0  0  0
 12 13  1  0  0  0
 12 33  1  0  0  0
 13 14  2  0  0  0
 13 20  1  0  0  0
 14 15  1  0  0  0
 14 34  1  0  0  0
 15 21  1  0  0  0
 15 22  2  0  0  0
 16 35  1  0  0  0
 16 36  1  0  0  0
 16 37  1  0  0  0
 17 38  1  0  0  0
 17 39  1  0  0  0
 17 40  1  0  0  0
 18 41  1  0  0  0
 18 42  1  0  0  0
 18 43  1  0  0  0
 19 44  1  0  0  0
 19 45  1  0  0  0
 19 46  1  0  0  0
 20 47  1  0  0  0
 20 48  1  0  0  0
 20 49  1  0  0  0
M  CHG  1  21  -1
M  END
> <s_m_source_file>
../2fr3_ligand.sdf

> <i_m_source_file_index>
1

> <s_epik_input>
W0NIM11DMShbQ0gzXSlbQ0gyXVtDSDJdW0NIMl1DKFtDSDNdKT1DMS9bQ0hdPVtDSF0vQyhbQ0gzXSk9W0NIXS9bQ0hdPVtDSF0vQyhbQ0gzXSk9W0NIXS9DKD1PKVtPSF0=

> <s_epik_cmdline>
J2VwaWtfYXBwJywgJy1pbWFlJywgJ2xpZ2FuZF9wcm8ubWFlJywgJy1vbWFlJywgJ2xpZ2FuZF9wcmVwLm1hZScsICctbXMnLCAnMScsICctcGgnLCAnNycsICctcGh0JywgJzAuNScsICctbnQn

> <r_lp_tautomer_probability>
1

> <r_epik_Ionization_Penalty>
  0.0057

> <r_epik_Ionization_Penalty_Charging>
  0.0057

> <r_epik_Ionization_Penalty_Neutral>
  0.0000

> <r_epik_State_Penalty>
 -0.0000

> <r_epik_Charging_Adjusted_Penalty>
0.00570698066260046

> <i_epik_Tot_Q>
-1

> <i_epik_Tot_abs_Q>
1

$$$$
