2fr8_ligand
                    3D
 Schrodinger Suite 2020-3.
 39 41  0  0  1  0            999 V2000
  -22.0990   59.3970   23.2750 O   0  0  0  0  0  0
  -21.8020   59.7310   21.7260 P   0  0  1  0  0  0
  -20.4250   59.3240   21.3500 O   0  0  0  0  0  0
  -22.8170   59.0800   20.8560 O   0  5  0  0  0  0
  -21.9520   61.3340   21.6290 O   0  0  0  0  0  0
  -20.8540   62.1900   21.8410 C   0  0  0  0  0  0
  -21.2800   63.5070   22.4860 C   0  0  1  0  0  0
  -21.7230   64.4630   21.5350 O   0  0  0  0  0  0
  -22.3850   63.4120   23.5440 C   0  0  1  0  0  0
  -21.9020   63.8310   24.8080 O   0  0  0  0  0  0
  -23.4560   64.3650   23.0530 C   0  0  1  0  0  0
  -24.1070   65.0320   24.1110 O   0  0  0  0  0  0
  -22.6480   65.3180   22.1850 C   0  0  2  0  0  0
  -23.4500   66.1330   21.2390 N   0  0  0  0  0  0
  -24.3880   65.7070   20.3340 C   0  0  0  0  0  0
  -24.8690   66.7940   19.6710 N   0  0  0  0  0  0
  -24.2560   67.9140   20.1290 C   0  0  0  0  0  0
  -24.3490   69.2840   19.8170 C   0  0  0  0  0  0
  -25.1690   69.7560   18.8820 N   0  0  0  0  0  0
  -23.5570   70.1950   20.4920 N   0  0  0  0  0  0
  -22.6820   69.7600   21.4580 C   0  0  0  0  0  0
  -22.5990   68.4150   21.7590 N   0  0  0  0  0  0
  -23.3640   67.5020   21.1130 C   0  0  0  0  0  0
  -21.0580   58.5720   24.1850 P   0  0  0  0  0  0
  -19.8280   59.3880   24.2850 O   0  0  0  0  0  0
  -20.9970   57.1710   23.7020 O   0  5  0  0  0  0
  -21.7800   58.5760   25.6260 O   0  5  0  0  0  0
  -20.1285   61.6981   22.5056 H   0  0  0  0  0  0
  -20.3739   62.4161   20.8775 H   0  0  0  0  0  0
  -20.3487   63.8855   22.9326 H   0  0  0  0  0  0
  -22.7446   62.3915   23.7423 H   0  0  0  0  0  0
  -21.1164   63.2524   25.3160 H   0  0  0  0  0  0
  -24.3249   63.8930   22.5711 H   0  0  0  0  0  0
  -24.7282   64.4645   24.8196 H   0  0  0  0  0  0
  -22.1132   66.0932   22.7534 H   0  0  0  0  0  0
  -24.6959   64.6739   20.1730 H   0  0  0  0  0  0
  -25.8171   69.0672   18.3202 H   0  0  0  0  0  0
  -25.1990   70.8351   18.6706 H   0  0  0  0  0  0
  -22.0535   70.4766   21.9866 H   0  0  0  0  0  0
  1  2  1  0  0  0
  1 24  1  0  0  0
  2  3  2  0  0  0
  2  4  1  0  0  0
  2  5  1  0  0  0
  5  6  1  0  0  0
  6  7  1  0  0  0
  6 28  1  0  0  0
  6 29  1  0  0  0
  7  8  1  0  0  0
  7  9  1  0  0  0
  7 30  1  0  0  0
  8 13  1  0  0  0
  9 10  1  0  0  0
  9 11  1  0  0  0
  9 31  1  0  0  0
 10 32  1  0  0  0
 11 12  1  0  0  0
 11 13  1  0  0  0
 11 33  1  0  0  0
 12 34  1  0  0  0
 13 14  1  0  0  0
 13 35  1  0  0  0
 14 15  1  0  0  0
 14 23  1  0  0  0
 15 16  2  0  0  0
 15 36  1  0  0  0
 16 17  1  0  0  0
 17 18  2  0  0  0
 17 23  1  0  0  0
 18 19  1  0  0  0
 18 20  1  0  0  0
 19 37  1  0  0  0
 19 38  1  0  0  0
 20 21  2  0  0  0
 21 22  1  0  0  0
 21 39  1  0  0  0
 22 23  2  0  0  0
 24 25  2  0  0  0
 24 26  1  0  0  0
 24 27  1  0  0  0
M  CHG  3   4  -1  26  -1  27  -1
M  END
> <s_m_source_file>
../2fr8_ligand.sdf

> <i_m_source_file_index>
1

> <s_epik_input>
Tz1QKFtPSF0pKFtPSF0pT1tQQEBdKD1PKShbT0hdKU9bQ0gyXVtDQEhdMU9bQ0BIXShbQ0BIXShbT0hdKVtDQEBIXTFbT0hdKW4oW2NIXW4yKWMoYzIzKW5bY0hdbmMzW05IMl0=

> <s_epik_cmdline>
J2VwaWtfYXBwJywgJy1pbWFlJywgJ2xpZ2FuZF9wcm8ubWFlJywgJy1vbWFlJywgJ2xpZ2FuZF9wcmVwLm1hZScsICctbXMnLCAnMScsICctcGgnLCAnNycsICctcGh0JywgJzAuNScsICctbnQn

> <r_lp_tautomer_probability>
0.999997216410988

> <r_epik_Ionization_Penalty>
  0.1037

> <r_epik_Ionization_Penalty_Charging>
  0.1033

> <r_epik_Ionization_Penalty_Neutral>
  0.0004

> <r_epik_State_Penalty>
  0.0922

> <r_epik_Charging_Adjusted_Penalty>
0.19546844050481

> <i_epik_Tot_Q>
-3

> <i_epik_Tot_abs_Q>
3

> <s_epik_Chemistry_Notes>
This compound contains an acetal/aminal-like group ( X-CH(R)-Y where X, Y are N, S, or O) that may be acid/base labile, releasing an aldehyde.

$$$$
