2frd_ligand
                    3D
 Schrodinger Suite 2020-3.
 70 74  0  0  1  0            999 V2000
   -7.6530    6.4030   25.2500 O   0  0  0  0  0  0
   -7.7190    6.4160   26.8630 P   0  0  1  0  0  0
   -6.9600    5.2840   27.4450 O   0  0  0  0  0  0
   -7.2640    7.7170   27.4120 O   0  5  0  0  0  0
   -9.2940    6.2150   27.1210 O   0  0  0  0  0  0
   -9.9500    5.0970   26.5680 C   0  0  0  0  0  0
  -11.1040    5.4780   25.6390 C   0  0  1  0  0  0
  -12.2340    5.7990   26.4200 O   0  0  0  0  0  0
  -10.8840    6.6600   24.7010 C   0  0  1  0  0  0
  -10.8950    6.2050   23.3750 O   0  0  0  0  0  0
  -12.0490    7.5960   24.9260 C   0  0  1  0  0  0
  -12.6700    7.9400   23.7120 O   0  0  0  0  0  0
  -13.0000    6.8190   25.8200 C   0  0  2  0  0  0
  -13.6390    7.6290   26.8800 N   0  0  0  0  0  0
  -13.0350    8.4320   27.8180 C   0  0  0  0  0  0
  -13.9940    8.9760   28.6070 N   0  0  0  0  0  0
  -15.2040    8.5200   28.1990 C   0  0  0  0  0  0
  -16.5120    8.7370   28.6450 C   0  0  0  0  0  0
  -16.7400    9.4820   29.7220 N   0  0  0  0  0  0
  -17.5690    8.1090   28.0040 N   0  0  0  0  0  0
  -17.3260    7.2710   26.9300 C   0  0  0  0  0  0
  -16.0310    7.0610   26.4990 N   0  0  0  0  0  0
  -14.9890    7.6700   27.1190 C   0  0  0  0  0  0
   -6.6880    5.4570   24.3710 P   0  0  2  0  0  0
   -7.3310    4.1470   24.1520 O   0  0  0  0  0  0
   -5.3160    5.5110   24.9200 O   0  5  0  0  0  0
   -6.7100    6.2550   22.9780 O   0  0  0  0  0  0
   -7.9180    6.5970   22.3400 C   0  0  0  0  0  0
   -7.6220    6.9500   20.8890 C   0  0  1  0  0  0
   -6.4040    7.6710   20.8190 O   0  0  0  0  0  0
   -7.4740    5.7110   20.0120 C   0  0  1  0  0  0
   -8.5890    5.5400   19.1630 O   0  0  0  0  0  0
   -6.2030    5.9340   19.2140 C   0  0  1  0  0  0
   -6.4690    6.0220   17.8330 O   0  0  0  0  0  0
   -5.6130    7.2440   19.7250 C   0  0  2  0  0  0
   -4.1980    7.0350   20.1060 N   0  0  0  0  0  0
   -3.2100    7.6440   19.3740 C   0  0  0  0  0  0
   -1.8690    7.4550   19.7060 C   0  0  0  0  0  0
   -0.8020    8.0780   18.8440 C   0  0  0  0  0  0
   -1.0960    8.4000   17.5010 O   0  0  0  0  0  0
    0.4060    8.3230   19.3440 N   0  0  0  0  0  0
   -1.5460    6.6350   20.7880 C   0  0  0  0  0  0
   -2.5530    6.0190   21.5210 C   0  0  0  0  0  0
   -3.8810    6.2280   21.1690 C   0  0  0  0  0  0
   -9.2325    4.5035   25.9823 H   0  0  0  0  0  0
  -10.3640    4.4775   27.3772 H   0  0  0  0  0  0
  -11.2980    4.5860   25.0252 H   0  0  0  0  0  0
   -9.9063    7.1510   24.8152 H   0  0  0  0  0  0
  -10.1170    5.5103   23.0254 H   0  0  0  0  0  0
  -11.7561    8.5811   25.3182 H   0  0  0  0  0  0
  -12.1138    8.5072   22.9511 H   0  0  0  0  0  0
  -13.8241    6.3855   25.2344 H   0  0  0  0  0  0
  -11.9626    8.6031   27.9119 H   0  0  0  0  0  0
  -15.9033    9.9814   30.2325 H   0  0  0  0  0  0
  -17.7653    9.5991   30.1027 H   0  0  0  0  0  0
  -18.1560    6.7771   26.4247 H   0  0  0  0  0  0
   -8.6098    5.7428   22.3827 H   0  0  0  0  0  0
   -8.3700    7.4607   22.8495 H   0  0  0  0  0  0
   -8.4233    7.6023   20.5116 H   0  0  0  0  0  0
   -7.4799    4.7663   20.5755 H   0  0  0  0  0  0
   -9.5867    5.3681   19.5933 H   0  0  0  0  0  0
   -5.5135    5.0785   19.2664 H   0  0  0  0  0  0
   -6.8992    5.1614   17.2998 H   0  0  0  0  0  0
   -5.6387    8.0684   18.9972 H   0  0  0  0  0  0
   -3.4806    8.2841   18.5213 H   0  0  0  0  0  0
    0.6296    8.0701   20.3909 H   0  0  0  0  0  0
    1.1814    8.7785   18.7106 H   0  0  0  0  0  0
   -0.5019    6.4775   21.0586 H   0  0  0  0  0  0
   -2.3057    5.3701   22.3741 H   0  0  0  0  0  0
   -4.6849    5.7451   21.7439 H   0  0  0  0  0  0
  1  2  1  0  0  0
  1 24  1  0  0  0
  2  3  2  0  0  0
  2  4  1  0  0  0
  2  5  1  0  0  0
  5  6  1  0  0  0
  6  7  1  0  0  0
  6 45  1  0  0  0
  6 46  1  0  0  0
  7  8  1  0  0  0
  7  9  1  0  0  0
  7 47  1  0  0  0
  8 13  1  0  0  0
  9 10  1  0  0  0
  9 11  1  0  0  0
  9 48  1  0  0  0
 10 49  1  0  0  0
 11 12  1  0  0  0
 11 13  1  0  0  0
 11 50  1  0  0  0
 12 51  1  0  0  0
 13 14  1  0  0  0
 13 52  1  0  0  0
 14 15  1  0  0  0
 14 23  1  0  0  0
 15 16  2  0  0  0
 15 53  1  0  0  0
 16 17  1  0  0  0
 17 18  1  0  0  0
 17 23  2  0  0  0
 18 19  1  0  0  0
 18 20  2  0  0  0
 19 54  1  0  0  0
 19 55  1  0  0  0
 20 21  1  0  0  0
 21 22  2  0  0  0
 21 56  1  0  0  0
 22 23  1  0  0  0
 24 25  2  0  0  0
 24 26  1  0  0  0
 24 27  1  0  0  0
 27 28  1  0  0  0
 28 29  1  0  0  0
 28 57  1  0  0  0
 28 58  1  0  0  0
 29 30  1  0  0  0
 29 31  1  0  0  0
 29 59  1  0  0  0
 30 35  1  0  0  0
 31 32  1  0  0  0
 31 33  1  0  0  0
 31 60  1  0  0  0
 32 61  1  0  0  0
 33 34  1  0  0  0
 33 35  1  0  0  0
 33 62  1  0  0  0
 34 63  1  0  0  0
 35 36  1  0  0  0
 35 64  1  0  0  0
 36 37  1  0  0  0
 36 44  1  0  0  0
 37 38  2  0  0  0
 37 65  1  0  0  0
 38 39  1  0  0  0
 38 42  1  0  0  0
 39 40  2  0  0  0
 39 41  1  0  0  0
 41 66  1  0  0  0
 41 67  1  0  0  0
 42 43  1  0  0  0
 42 68  1  0  0  0
 43 44  2  0  0  0
 43 69  1  0  0  0
 44 70  1  0  0  0
M  CHG  2   4  -1  26  -1
M  END
> <s_m_source_file>
../2frd_ligand.sdf

> <i_m_source_file_index>
1

> <s_epik_input>
W0NIXTE9W0NIXVtDSDJdQyhDKD1PKVtOSDJdKT1bQ0hdTjFbQ0BASF0oW0NASF0oW09IXSlbQ0BASF0yW09IXSlPW0NAQEhdMltDSDJdT1tQQEBdKD1PKShbT0hdKU9bUEBAXSg9TykoW09IXSlPW0NIMl1bQ0BIXTNPW0NASF0oW0NASF0oW09IXSlbQ0BASF0zW09IXSluKFtjSF1uNCljKGM0NSluW2NIXW5jNVtOSDJd

> <s_epik_cmdline>
J2VwaWtfYXBwJywgJy1pbWFlJywgJ2xpZ2FuZF9wcm8ubWFlJywgJy1vbWFlJywgJ2xpZ2FuZF9wcmVwLm1hZScsICctbXMnLCAnMScsICctcGgnLCAnNycsICctcGh0JywgJzAuNScsICctbnQn

> <r_lp_tautomer_probability>
1

> <r_epik_Ionization_Penalty>
  0.0010

> <r_epik_Ionization_Penalty_Charging>
  0.0005

> <r_epik_Ionization_Penalty_Neutral>
  0.0005

> <r_epik_State_Penalty>
 -0.0000

> <r_epik_Charging_Adjusted_Penalty>
0.000545842572463949

> <i_epik_Tot_Q>
-2

> <i_epik_Tot_abs_Q>
2

> <s_epik_Chemistry_Notes>
This compound has an imine and may undergo hydrolysis. This compound contains an acetal/aminal-like group ( X-CH(R)-Y where X, Y are N, S, or O) that may be acid/base labile, releasing an aldehyde.

$$$$
