2fs8_ligand
                    3D
 Schrodinger Suite 2020-3.
 81 85  0  0  1  0            999 V2000
    0.9720   18.4470   72.1530 C   0  0  0  0  0  0
   -0.1230   21.1900   70.1580 C   0  0  0  0  0  0
    2.0830   18.0260   71.3570 C   0  0  0  0  0  0
    0.1260   19.8730   72.3780 C   0  0  0  0  0  0
   -0.7850   20.7230   71.3370 O   0  0  0  0  0  0
    1.0820   20.5910   69.9620 O   0  0  0  0  0  0
   -1.4350   22.4380   68.1450 C   0  0  1  0  0  0
   -0.9800   23.9010   67.8760 C   0  0  0  0  0  0
   -0.4110   21.8450   69.0080 N   0  0  0  0  0  0
    0.4550   23.8930   67.1980 C   0  0  0  0  0  0
    1.4460   25.0010   67.6030 C   0  0  2  0  0  0
    1.0480   25.9870   68.7150 C   0  0  0  0  0  0
    1.7360   27.2840   68.2710 C   0  0  0  0  0  0
    2.4120   27.0140   67.0040 N   0  3  0  0  0  0
    1.7800   25.8670   66.4220 C   0  0  0  0  0  0
   -2.8620   22.1000   68.4190 C   0  0  2  0  0  0
   -3.6130   23.1900   68.7200 O   0  0  0  0  0  0
   -3.3960   21.1440   69.3190 C   0  0  0  0  0  0
   -4.4990   21.3110   69.9960 N   0  0  0  0  0  0
   -4.7760   20.2280   70.7140 O   0  0  0  0  0  0
   -3.7500   19.3320   70.4400 C   0  0  0  0  0  0
   -3.6510   18.0800   70.9630 C   0  0  0  0  0  0
   -4.9610   17.3780   70.9310 C   0  0  0  0  0  0
   -5.9200   17.5510   72.0860 C   0  0  0  0  0  0
   -7.2030   16.8570   72.0810 C   0  0  0  0  0  0
   -7.5080   16.0090   70.9270 C   0  0  0  0  0  0
   -6.5530   15.8850   69.8500 C   0  0  0  0  0  0
   -5.3300   16.5350   69.8330 C   0  0  0  0  0  0
   -8.7210   15.2390   70.8220 C   0  0  0  0  0  0
   -9.7090   15.5570   71.2840 O   0  0  0  0  0  0
   -8.5040   14.1150   70.1750 N   0  0  0  0  0  0
   -9.2050   12.9560   69.7950 C   0  0  0  0  0  0
  -10.1690   12.2090   70.6270 C   0  0  0  0  0  0
  -11.0440   11.5320   69.6940 C   0  0  0  0  0  0
  -12.0930   10.5950   70.0370 C   0  0  0  0  0  0
  -12.8560   10.0240   68.9540 C   0  0  0  0  0  0
  -12.5780   10.3720   67.5570 C   0  0  0  0  0  0
  -11.5310   11.3190   67.2420 C   0  0  0  0  0  0
  -10.7500   11.8800   68.3200 C   0  0  0  0  0  0
   -9.6310   12.8730   68.2390 C   0  0  0  0  0  0
   -2.8980   19.8940   69.5820 N   0  0  0  0  0  0
    0.0865   17.8487   71.8922 H   0  0  0  0  0  0
    1.2093   18.3058   73.2178 H   0  0  0  0  0  0
    2.2894   16.9627   71.5488 H   0  0  0  0  0  0
    2.9685   18.6243   71.6178 H   0  0  0  0  0  0
    1.8456   18.1672   70.2922 H   0  0  0  0  0  0
   -0.6236   19.7334   73.1709 H   0  0  0  0  0  0
    0.8241   20.6714   72.6699 H   0  0  0  0  0  0
   -1.4911   21.8639   67.2084 H   0  0  0  0  0  0
   -1.7000   24.3913   67.2043 H   0  0  0  0  0  0
   -0.9328   24.4511   68.8274 H   0  0  0  0  0  0
    0.6465   21.8743   68.7067 H   0  0  0  0  0  0
    0.9667   22.9483   67.4340 H   0  0  0  0  0  0
    0.3459   23.9884   66.1076 H   0  0  0  0  0  0
    2.2899   24.4059   67.9821 H   0  0  0  0  0  0
   -0.0478   26.0759   68.7512 H   0  0  0  0  0  0
    1.4180   25.6172   69.6827 H   0  0  0  0  0  0
    0.9813   28.0739   68.1423 H   0  0  0  0  0  0
    2.4638   27.5934   69.0356 H   0  0  0  0  0  0
    2.3134   27.8873   66.3424 H   0  0  0  0  0  0
    3.4774   26.8149   67.1920 H   0  0  0  0  0  0
    2.4533   25.3204   65.7453 H   0  0  0  0  0  0
    0.8556   26.1292   65.8864 H   0  0  0  0  0  0
   -3.0108   21.6055   67.4478 H   0  0  0  0  0  0
   -3.4483   24.1364   68.1842 H   0  0  0  0  0  0
   -2.9254   17.4950   70.3788 H   0  0  0  0  0  0
   -3.3134   18.1447   72.0079 H   0  0  0  0  0  0
   -5.6527   18.1951   72.9237 H   0  0  0  0  0  0
   -7.9080   16.9656   72.9052 H   0  0  0  0  0  0
   -6.8087   15.2454   69.0052 H   0  0  0  0  0  0
   -4.6523   16.4059   68.9891 H   0  0  0  0  0  0
   -7.4438   14.2299   69.9051 H   0  0  0  0  0  0
   -8.3000   12.5238   70.2469 H   0  0  0  0  0  0
   -9.6273   11.4921   71.2616 H   0  0  0  0  0  0
  -10.7271   12.9123   71.2625 H   0  0  0  0  0  0
  -12.2985   10.3309   71.0744 H   0  0  0  0  0  0
  -13.6562    9.3189   69.1790 H   0  0  0  0  0  0
  -13.1604    9.9170   66.7558 H   0  0  0  0  0  0
  -11.3346   11.6045   66.2086 H   0  0  0  0  0  0
   -9.9442   13.8684   67.8910 H   0  0  0  0  0  0
   -8.7736   12.5289   67.6419 H   0  0  0  0  0  0
  1  3  1  0  0  0
  1  4  1  0  0  0
  1 42  1  0  0  0
  1 43  1  0  0  0
  2  5  1  0  0  0
  2  6  2  0  0  0
  2  9  1  0  0  0
  3 44  1  0  0  0
  3 45  1  0  0  0
  3 46  1  0  0  0
  4  5  1  0  0  0
  4 47  1  0  0  0
  4 48  1  0  0  0
  7  8  1  0  0  0
  7  9  1  0  0  0
  7 16  1  0  0  0
  7 49  1  0  0  0
  8 10  1  0  0  0
  8 50  1  0  0  0
  8 51  1  0  0  0
  9 52  1  0  0  0
 10 11  1  0  0  0
 10 53  1  0  0  0
 10 54  1  0  0  0
 11 12  1  0  0  0
 11 15  1  0  0  0
 11 55  1  0  0  0
 12 13  1  0  0  0
 12 56  1  0  0  0
 12 57  1  0  0  0
 13 14  1  0  0  0
 13 58  1  0  0  0
 13 59  1  0  0  0
 14 15  1  0  0  0
 14 60  1  0  0  0
 14 61  1  0  0  0
 15 62  1  0  0  0
 15 63  1  0  0  0
 16 17  1  0  0  0
 16 18  1  0  0  0
 16 64  1  0  0  0
 17 65  1  0  0  0
 18 19  2  0  0  0
 18 41  1  0  0  0
 19 20  1  0  0  0
 20 21  1  0  0  0
 21 22  1  0  0  0
 21 41  2  0  0  0
 22 23  1  0  0  0
 22 66  1  0  0  0
 22 67  1  0  0  0
 23 24  2  0  0  0
 23 28  1  0  0  0
 24 25  1  0  0  0
 24 68  1  0  0  0
 25 26  2  0  0  0
 25 69  1  0  0  0
 26 27  1  0  0  0
 26 29  1  0  0  0
 27 28  2  0  0  0
 27 70  1  0  0  0
 28 71  1  0  0  0
 29 30  2  0  0  0
 29 31  1  0  0  0
 31 32  1  0  0  0
 31 72  1  0  0  0
 32 33  1  0  0  0
 32 40  1  0  0  0
 32 73  1  0  0  0
 33 34  1  0  0  0
 33 74  1  0  0  0
 33 75  1  0  0  0
 34 35  2  0  0  0
 34 39  1  0  0  0
 35 36  1  0  0  0
 35 76  1  0  0  0
 36 37  2  0  0  0
 36 77  1  0  0  0
 37 38  1  0  0  0
 37 78  1  0  0  0
 38 39  2  0  0  0
 38 79  1  0  0  0
 39 40  1  0  0  0
 40 80  1  0  0  0
 40 81  1  0  0  0
M  CHG  1  14   1
M  END
> <s_m_source_file>
../2fs8_ligand.sdf

> <i_m_source_file_index>
1

> <s_epik_input>
W0NIMl0xW05IMitdW0NIMl1bQ0gyXVtDQEhdMVtDSDJdW0NIMl1bQ0BASF0oW05IXUMoPU8pT1tDSDJdW0NIMl1bQ0gzXSlbQ0BIXShbT0hdKWMybm9jKG4yKVtDSDJdYzNbY0hdW2NIXWMoW2NIXVtjSF0zKUMoPU8pW05IXVtDSF0oW0NIMl00KVtDSDJdYyhjNDUpW2NIXVtjSF1bY0hdW2NIXTU=

> <s_epik_cmdline>
J2VwaWtfYXBwJywgJy1pbWFlJywgJ2xpZ2FuZF9wcm8ubWFlJywgJy1vbWFlJywgJ2xpZ2FuZF9wcmVwLm1hZScsICctbXMnLCAnMScsICctcGgnLCAnNycsICctcGh0JywgJzAuNScsICctbnQn

> <r_lp_tautomer_probability>
1

> <r_epik_Ionization_Penalty>
  0.0002

> <r_epik_Ionization_Penalty_Charging>
  0.0001

> <r_epik_Ionization_Penalty_Neutral>
  0.0001

> <r_epik_State_Penalty>
 -0.0000

> <r_epik_Charging_Adjusted_Penalty>
5.33586329629431e-05

> <i_epik_Tot_Q>
1

> <i_epik_Tot_abs_Q>
1

> <s_epik_Chemistry_Notes>
This compound has an ester and may undergo hydrolysis at high or low pH.

$$$$
