2fsa_ligand
                    3D
 Schrodinger Suite 2020-3.
110109  0  0  1  0            999 V2000
   30.1760    9.4900   63.9610 N   0  3  0  0  0  0
   30.5030    9.8690   62.5550 C   0  0  2  0  0  0
   31.9200   10.4140   62.4600 C   0  0  0  0  0  0
   32.3870   11.1140   63.3600 O   0  0  0  0  0  0
   29.5130   10.9090   62.0570 C   0  0  0  0  0  0
   32.6040   10.0890   61.3680 N   0  0  0  0  0  0
   33.9660   10.5550   61.1500 C   0  0  2  0  0  0
   33.8990   11.9670   60.5760 C   0  0  0  0  0  0
   33.0780   12.2490   59.7000 O   0  0  0  0  0  0
   34.6930    9.6110   60.1900 C   0  0  0  0  0  0
   34.8300    8.1900   60.7330 C   0  0  0  0  0  0
   35.2910    7.2000   59.6630 C   0  0  0  0  0  0
   34.3420    7.1250   58.5550 N   0  0  0  0  0  0
   34.5310    7.6880   57.3640 C   0  0  0  0  0  0
   35.6430    8.3680   57.1150 N   0  3  0  0  0  0
   33.5940    7.5890   56.4280 N   0  0  0  0  0  0
   34.7590   12.8520   61.0700 N   0  0  0  0  0  0
   34.7570   14.2400   60.6190 C   0  0  2  0  0  0
   36.1450   14.8620   60.5450 C   0  0  0  0  0  0
   37.1150   14.3150   61.0640 O   0  0  0  0  0  0
   33.9280   15.1210   61.5740 C   0  0  2  0  0  0
   34.5290   15.0950   62.8770 O   0  0  0  0  0  0
   32.4950   14.6200   61.6740 C   0  0  0  0  0  0
   36.2220   16.0160   59.8890 N   0  0  0  0  0  0
   37.4630   16.7730   59.7790 C   0  0  1  0  0  0
   37.9710   16.8240   58.3350 C   0  0  0  0  0  0
   38.5430   15.5160   57.8140 C   0  0  0  0  0  0
   39.2010   15.7200   56.4620 C   0  0  0  0  0  0
   39.6880   14.4060   55.8740 C   0  0  0  0  0  0
   40.4120   14.6140   54.6140 N   0  3  0  0  0  0
   40.9690   13.3550   54.1000 C   0  0  0  0  0  0
   39.6140   15.2740   53.5740 C   0  0  0  0  0  0
   37.1340   18.1830   60.2490 C   0  0  0  0  0  0
   36.2090   18.8140   59.7300 O   0  0  0  0  0  0
   37.8760   18.6640   61.2440 N   0  0  0  0  0  0
   37.6580   20.0040   61.7840 C   0  0  2  0  0  0
   38.8920   20.8730   61.5990 C   0  0  0  0  0  0
   39.9920   20.3670   61.3780 O   0  0  0  0  0  0
   37.3340   19.9480   63.2790 C   0  0  0  0  0  0
   36.1580   19.0800   63.6530 C   0  0  0  0  0  0
   36.5190   17.6100   63.7660 C   0  0  0  0  0  0
   36.8790   16.9660   62.7810 O   0  0  0  0  0  0
   36.4220   17.0710   64.9750 N   0  0  0  0  0  0
   38.7010   22.1830   61.7110 N   0  0  0  0  0  0
   39.7860   23.1430   61.5670 C   0  0  2  0  0  0
   40.8630   22.9270   62.6220 C   0  0  0  0  0  0
   40.6370   22.1090   63.5410 O   0  0  0  0  0  0
   39.2670   24.5870   61.6980 C   0  0  2  0  0  0
   40.3770   25.4930   61.7080 O   0  0  0  0  0  0
   38.4700   24.7530   62.9850 C   0  0  0  0  0  0
   42.0141   23.5910   62.5676 O   0  5  0  0  0  0
   29.1487    9.0993   64.0059 H   0  0  0  0  0  0
   30.2602   10.3753   64.6084 H   0  0  0  0  0  0
   30.8780    8.7161   64.3049 H   0  0  0  0  0  0
   30.4275    8.9590   61.9416 H   0  0  0  0  0  0
   28.4916   10.5070   62.1291 H   0  0  0  0  0  0
   29.7368   11.1558   61.0087 H   0  0  0  0  0  0
   29.5941   11.8169   62.6728 H   0  0  0  0  0  0
   32.1146    9.4503   60.6180 H   0  0  0  0  0  0
   34.4837   10.5535   62.1205 H   0  0  0  0  0  0
   34.1375    9.5526   59.2424 H   0  0  0  0  0  0
   35.7066    9.9926   59.9979 H   0  0  0  0  0  0
   35.5690    8.1785   61.5477 H   0  0  0  0  0  0
   33.8570    7.8483   61.1157 H   0  0  0  0  0  0
   36.2655    7.5184   59.2644 H   0  0  0  0  0  0
   35.3861    6.1981   60.1070 H   0  0  0  0  0  0
   33.3972    6.5749   58.6764 H   0  0  0  0  0  0
   36.4211    8.4520   57.8880 H   0  0  0  0  0  0
   32.6710    7.0261   56.6311 H   0  0  0  0  0  0
   33.7409    8.0699   55.4497 H   0  0  0  0  0  0
   35.4808   12.5222   61.8317 H   0  0  0  0  0  0
   34.3314   14.1528   59.6084 H   0  0  0  0  0  0
   33.9302   16.1692   61.2405 H   0  0  0  0  0  0
   35.5706   15.4232   63.0089 H   0  0  0  0  0  0
   32.0299   14.6381   60.6773 H   0  0  0  0  0  0
   31.9263   15.2693   62.3559 H   0  0  0  0  0  0
   32.4927   13.5904   62.0611 H   0  0  0  0  0  0
   35.3027   16.3956   59.4191 H   0  0  0  0  0  0
   38.2218   16.2700   60.3964 H   0  0  0  0  0  0
   37.1429   17.0972   57.6644 H   0  0  0  0  0  0
   38.7712   17.5744   58.2541 H   0  0  0  0  0  0
   39.2947   15.1368   58.5219 H   0  0  0  0  0  0
   37.7339   14.7783   57.7082 H   0  0  0  0  0  0
   38.4759   16.1652   55.7648 H   0  0  0  0  0  0
   40.0644   16.3926   56.5721 H   0  0  0  0  0  0
   40.3659   13.9141   56.5871 H   0  0  0  0  0  0
   38.8265   13.7513   55.6757 H   0  0  0  0  0  0
   41.2337   15.3011   54.8643 H   0  0  0  0  0  0
   41.5646   12.8693   54.8870 H   0  0  0  0  0  0
   41.6107   13.5654   53.2317 H   0  0  0  0  0  0
   40.1486   12.6879   53.7966 H   0  0  0  0  0  0
   39.2023   16.2144   53.9692 H   0  0  0  0  0  0
   38.7898   14.6124   53.2691 H   0  0  0  0  0  0
   40.2518   15.4899   52.7042 H   0  0  0  0  0  0
   38.6693   18.0257   61.6602 H   0  0  0  0  0  0
   36.8104   20.4000   61.2054 H   0  0  0  0  0  0
   38.2011   19.5513   63.8275 H   0  0  0  0  0  0
   37.1023   20.9601   63.6421 H   0  0  0  0  0  0
   35.7594   19.4022   64.6263 H   0  0  0  0  0  0
   35.3745   19.1739   62.8866 H   0  0  0  0  0  0
   36.0957   17.6859   65.8267 H   0  0  0  0  0  0
   36.6679   16.0094   65.1253 H   0  0  0  0  0  0
   37.6798   22.5344   61.9201 H   0  0  0  0  0  0
   40.1843   22.9405   60.5618 H   0  0  0  0  0  0
   38.6486   24.8635   60.8313 H   0  0  0  0  0  0
   41.0728   25.5197   60.8565 H   0  0  0  0  0  0
   37.6170   24.0585   62.9802 H   0  0  0  0  0  0
   38.1009   25.7867   63.0569 H   0  0  0  0  0  0
   39.1165   24.5337   63.8475 H   0  0  0  0  0  0
   35.7867    8.8477   56.1356 H   0  0  0  0  0  0
  1  2  1  0  0  0
  1 52  1  0  0  0
  1 53  1  0  0  0
  1 54  1  0  0  0
  2  5  1  0  0  0
  2  3  1  0  0  0
  2 55  1  0  0  0
  3  4  2  0  0  0
  3  6  1  0  0  0
  5 56  1  0  0  0
  5 57  1  0  0  0
  5 58  1  0  0  0
  6  7  1  0  0  0
  6 59  1  0  0  0
  7 10  1  0  0  0
  7  8  1  0  0  0
  7 60  1  0  0  0
  8  9  2  0  0  0
  8 17  1  0  0  0
 10 11  1  0  0  0
 10 61  1  0  0  0
 10 62  1  0  0  0
 11 12  1  0  0  0
 11 63  1  0  0  0
 11 64  1  0  0  0
 12 13  1  0  0  0
 12 65  1  0  0  0
 12 66  1  0  0  0
 13 14  1  0  0  0
 13 67  1  0  0  0
 14 16  1  0  0  0
 14 15  2  0  0  0
 15 68  1  0  0  0
 15110  1  0  0  0
 16 69  1  0  0  0
 16 70  1  0  0  0
 17 18  1  0  0  0
 17 71  1  0  0  0
 18 21  1  0  0  0
 18 19  1  0  0  0
 18 72  1  0  0  0
 19 20  2  0  0  0
 19 24  1  0  0  0
 21 23  1  0  0  0
 21 22  1  0  0  0
 21 73  1  0  0  0
 22 74  1  0  0  0
 23 75  1  0  0  0
 23 76  1  0  0  0
 23 77  1  0  0  0
 24 25  1  0  0  0
 24 78  1  0  0  0
 25 26  1  0  0  0
 25 33  1  0  0  0
 25 79  1  0  0  0
 26 27  1  0  0  0
 26 80  1  0  0  0
 26 81  1  0  0  0
 27 28  1  0  0  0
 27 82  1  0  0  0
 27 83  1  0  0  0
 28 29  1  0  0  0
 28 84  1  0  0  0
 28 85  1  0  0  0
 29 30  1  0  0  0
 29 86  1  0  0  0
 29 87  1  0  0  0
 30 31  1  0  0  0
 30 32  1  0  0  0
 30 88  1  0  0  0
 31 89  1  0  0  0
 31 90  1  0  0  0
 31 91  1  0  0  0
 32 92  1  0  0  0
 32 93  1  0  0  0
 32 94  1  0  0  0
 33 34  2  0  0  0
 33 35  1  0  0  0
 35 36  1  0  0  0
 35 95  1  0  0  0
 36 39  1  0  0  0
 36 37  1  0  0  0
 36 96  1  0  0  0
 37 38  2  0  0  0
 37 44  1  0  0  0
 39 40  1  0  0  0
 39 97  1  0  0  0
 39 98  1  0  0  0
 40 41  1  0  0  0
 40 99  1  0  0  0
 40100  1  0  0  0
 41 43  1  0  0  0
 41 42  2  0  0  0
 43101  1  0  0  0
 43102  1  0  0  0
 44 45  1  0  0  0
 44103  1  0  0  0
 45 48  1  0  0  0
 45 46  1  0  0  0
 45104  1  0  0  0
 46 47  2  0  0  0
 46 51  1  0  0  0
 48 50  1  0  0  0
 48 49  1  0  0  0
 48105  1  0  0  0
 49106  1  0  0  0
 50107  1  0  0  0
 50108  1  0  0  0
 50109  1  0  0  0
M  CHG  4   1   1  15   1  30   1  51  -1
M  END
> <s_m_source_file>
../2fsa_ligand.sdf

> <i_m_source_file_index>
1

> <s_epik_input>
W0hdL049QyhbTkgyXSlcW05IXVtDSDJdW0NIMl1bQ0gyXVtDQEhdKFtOSF1DKD1PKVtDQEBIXShbTkgzK10pW0NIM10pQyg9TylbTkhdW0NAQEhdKFtDQEhdKFtPSF0pW0NIM10pQyg9TylbTkhdW0NAQEhdKFtDSDJdW0NIMl1bQ0gyXVtDSDJdW05IK10oW0NIM10pW0NIM10pQyg9TylbTkhdW0NAQEhdKFtDSDJdW0NIMl1DKD1PKVtOSDJdKUMoPU8pW05IXVtDQEhdKEMoPU8pW09IXSlbQ0BIXShbT0hdKVtDSDNd

> <s_epik_cmdline>
J2VwaWtfYXBwJywgJy1pbWFlJywgJ2xpZ2FuZF9wcm8ubWFlJywgJy1vbWFlJywgJ2xpZ2FuZF9wcmVwLm1hZScsICctbXMnLCAnMScsICctcGgnLCAnNycsICctcGh0JywgJzAuNScsICctbnQn

> <r_epik_Ionization_Penalty>
  0.1268

> <r_epik_Ionization_Penalty_Charging>
  0.1268

> <r_epik_Ionization_Penalty_Neutral>
  0.0000

> <r_epik_State_Penalty>
  0.1145

> <r_epik_Charging_Adjusted_Penalty>
0.241368436968117

> <i_epik_Tot_Q>
2

> <i_epik_Tot_abs_Q>
4

> <s_epik_Chemistry_Notes>
This compound has an imine and may undergo hydrolysis.

$$$$
