2fsv_ligand
                    3D
 Schrodinger Suite 2020-3.
 71 75  0  0  1  0            999 V2000
   -7.4870    6.2700   25.0630 O   0  0  0  0  0  0
   -7.6070    6.3650   26.6680 P   0  0  1  0  0  0
   -6.8830    5.1990   27.3020 O   0  5  0  0  0  0
   -7.2420    7.7750   27.0680 O   0  0  0  0  0  0
   -9.1910    6.1780   26.9200 O   0  0  0  0  0  0
   -9.9510    5.1620   26.2620 C   0  0  0  0  0  0
  -11.1550    5.7490   25.5340 C   0  0  1  0  0  0
  -12.0680    6.3080   26.4790 O   0  0  0  0  0  0
  -10.8480    6.8870   24.5600 C   0  0  1  0  0  0
  -11.1410    6.4830   23.2380 O   0  0  0  0  0  0
  -11.7460    8.0360   24.9930 C   0  0  1  0  0  0
  -12.2900    8.7810   23.9160 O   0  0  0  0  0  0
  -12.8130    7.3180   25.8060 C   0  0  2  0  0  0
  -13.5410    8.1330   26.8030 N   0  0  0  0  0  0
  -13.0340    9.0120   27.7030 C   0  0  0  0  0  0
  -14.0140    9.5790   28.4820 N   0  0  0  0  0  0
  -15.1850    9.0500   28.0770 C   0  0  0  0  0  0
  -16.6360    9.1280   28.3870 C   0  0  0  0  0  0
  -17.0900    9.9470   29.3660 N   0  0  0  0  0  0
  -17.5040    8.3640   27.6750 N   0  0  0  0  0  0
  -17.1400    7.5220   26.6860 C   0  0  0  0  0  0
  -15.8590    7.3690   26.3180 N   0  0  0  0  0  0
  -14.8470    8.1320   27.0070 C   0  0  0  0  0  0
   -6.3380    5.4470   24.2940 P   0  0  2  0  0  0
   -6.4940    3.9740   24.5670 O   0  5  0  0  0  0
   -4.9990    6.1030   24.5060 O   0  0  0  0  0  0
   -6.7740    5.6970   22.7760 O   0  0  0  0  0  0
   -7.1840    6.9720   22.2950 C   0  0  0  0  0  0
   -7.0530    7.0250   20.7740 C   0  0  1  0  0  0
   -6.0720    8.0100   20.4220 O   0  0  0  0  0  0
   -6.6600    5.6900   20.1290 C   0  0  1  0  0  0
   -7.7300    5.1630   19.3570 O   0  0  0  0  0  0
   -5.4520    5.9960   19.2710 C   0  0  1  0  0  0
   -5.7230    5.7360   17.9010 O   0  0  0  0  0  0
   -5.1280    7.4780   19.4900 C   0  0  2  0  0  0
   -3.7570    7.4620   19.9830 N   0  0  0  0  0  0
   -3.4760    6.8770   21.3160 C   0  0  0  0  0  0
   -2.2150    6.7680   21.7540 C   0  0  0  0  0  0
   -1.8770    6.1890   23.0520 C   0  0  0  0  0  0
   -1.4400    6.9150   23.9300 O   0  0  0  0  0  0
   -2.0440    4.8940   23.2650 N   0  0  0  0  0  0
   -1.1290    7.2750   20.8530 C   0  0  0  0  0  0
   -1.4070    7.8950   19.5080 C   0  0  0  0  0  0
   -2.6770    7.9880   19.1170 C   0  0  0  0  0  0
   -9.3156    4.6476   25.5259 H   0  0  0  0  0  0
  -10.3131    4.4359   27.0048 H   0  0  0  0  0  0
  -11.6113    4.9020   25.0006 H   0  0  0  0  0  0
   -9.7856    7.1657   24.4997 H   0  0  0  0  0  0
  -10.5761    5.6596   22.7766 H   0  0  0  0  0  0
  -11.2235    8.8582   25.5038 H   0  0  0  0  0  0
  -11.6249    9.3484   23.2484 H   0  0  0  0  0  0
  -13.6200    6.9286   25.1680 H   0  0  0  0  0  0
  -11.9727    9.2419   27.7974 H   0  0  0  0  0  0
  -16.3822   10.5636   29.9395 H   0  0  0  0  0  0
  -18.1664    9.9954   29.5874 H   0  0  0  0  0  0
  -17.9101    6.9485   26.1701 H   0  0  0  0  0  0
   -8.2333    7.1490   22.5737 H   0  0  0  0  0  0
   -6.5498    7.7530   22.7398 H   0  0  0  0  0  0
   -8.0242    7.3399   20.3646 H   0  0  0  0  0  0
   -6.4741    4.8778   20.8472 H   0  0  0  0  0  0
   -8.6782    4.8917   19.8442 H   0  0  0  0  0  0
   -4.6067    5.3256   19.4854 H   0  0  0  0  0  0
   -5.9743    4.7163   17.5739 H   0  0  0  0  0  0
   -5.2012    8.1642   18.6334 H   0  0  0  0  0  0
   -4.3089    6.5317   21.9461 H   0  0  0  0  0  0
   -2.4389    4.2514   22.4643 H   0  0  0  0  0  0
   -1.7879    4.4599   24.2428 H   0  0  0  0  0  0
   -0.5658    8.0675   21.3676 H   0  0  0  0  0  0
   -0.4491    6.4489   20.5974 H   0  0  0  0  0  0
   -0.6022    8.2647   18.8556 H   0  0  0  0  0  0
   -2.9225    8.4551   18.1518 H   0  0  0  0  0  0
  1  2  1  0  0  0
  1 24  1  0  0  0
  2  3  1  0  0  0
  2  4  2  0  0  0
  2  5  1  0  0  0
  5  6  1  0  0  0
  6  7  1  0  0  0
  6 45  1  0  0  0
  6 46  1  0  0  0
  7  8  1  0  0  0
  7  9  1  0  0  0
  7 47  1  0  0  0
  8 13  1  0  0  0
  9 10  1  0  0  0
  9 11  1  0  0  0
  9 48  1  0  0  0
 10 49  1  0  0  0
 11 12  1  0  0  0
 11 13  1  0  0  0
 11 50  1  0  0  0
 12 51  1  0  0  0
 13 14  1  0  0  0
 13 52  1  0  0  0
 14 15  1  0  0  0
 14 23  1  0  0  0
 15 16  2  0  0  0
 15 53  1  0  0  0
 16 17  1  0  0  0
 17 18  2  0  0  0
 17 23  1  0  0  0
 18 19  1  0  0  0
 18 20  1  0  0  0
 19 54  1  0  0  0
 19 55  1  0  0  0
 20 21  2  0  0  0
 21 22  1  0  0  0
 21 56  1  0  0  0
 22 23  2  0  0  0
 24 25  1  0  0  0
 24 26  2  0  0  0
 24 27  1  0  0  0
 27 28  1  0  0  0
 28 29  1  0  0  0
 28 57  1  0  0  0
 28 58  1  0  0  0
 29 30  1  0  0  0
 29 31  1  0  0  0
 29 59  1  0  0  0
 30 35  1  0  0  0
 31 32  1  0  0  0
 31 33  1  0  0  0
 31 60  1  0  0  0
 32 61  1  0  0  0
 33 34  1  0  0  0
 33 35  1  0  0  0
 33 62  1  0  0  0
 34 63  1  0  0  0
 35 36  1  0  0  0
 35 64  1  0  0  0
 36 37  1  0  0  0
 36 44  1  0  0  0
 37 38  2  0  0  0
 37 65  1  0  0  0
 38 39  1  0  0  0
 38 42  1  0  0  0
 39 40  2  0  0  0
 39 41  1  0  0  0
 41 66  1  0  0  0
 41 67  1  0  0  0
 42 43  1  0  0  0
 42 68  1  0  0  0
 42 69  1  0  0  0
 43 44  2  0  0  0
 43 70  1  0  0  0
 44 71  1  0  0  0
M  CHG  2   3  -1  25  -1
M  END
> <s_m_source_file>
../2fsv_ligand.sdf

> <i_m_source_file_index>
1

> <s_epik_input>
W0NIXTE9W0NIXVtDSDJdQyhDKD1PKVtOSDJdKT1bQ0hdTjFbQ0BASF0oW0NASF0oW09IXSlbQ0BASF0yW09IXSlPW0NAQEhdMltDSDJdT1tQQF0oPU8pKFtPSF0pT1tQQF0oPU8pKFtPSF0pT1tDSDJdW0NASF0zT1tDQEhdKFtDQEhdKFtPSF0pW0NAQEhdM1tPSF0pbihbY0hdbjQpYyhjNDUpbltjSF1uYzVbTkgyXQ==

> <s_epik_cmdline>
J2VwaWtfYXBwJywgJy1pbWFlJywgJ2xpZ2FuZF9wcm8ubWFlJywgJy1vbWFlJywgJ2xpZ2FuZF9wcmVwLm1hZScsICctbXMnLCAnMScsICctcGgnLCAnNycsICctcGh0JywgJzAuNScsICctbnQn

> <r_lp_tautomer_probability>
1

> <r_epik_Ionization_Penalty>
  0.0010

> <r_epik_Ionization_Penalty_Charging>
  0.0005

> <r_epik_Ionization_Penalty_Neutral>
  0.0005

> <r_epik_State_Penalty>
 -0.0000

> <r_epik_Charging_Adjusted_Penalty>
0.000545842572464081

> <i_epik_Tot_Q>
-2

> <i_epik_Tot_abs_Q>
2

> <s_epik_Chemistry_Notes>
This compound has an imine and may undergo hydrolysis. This compound contains an acetal/aminal-like group ( X-CH(R)-Y where X, Y are N, S, or O) that may be acid/base labile, releasing an aldehyde.

$$$$
