2ftd_ligand
                    3D
 Schrodinger Suite 2020-3.
 72 75  0  0  1  0            999 V2000
   85.4710  -24.4740 -102.1030 N   0  0  0  0  0  0
   85.1060  -24.7850 -100.8030 C   0  0  0  0  0  0
   84.8840  -23.8180  -99.7910 C   0  0  0  0  0  0
   85.0510  -22.4570 -100.1470 C   0  0  0  0  0  0
   83.3540  -27.6300 -104.8420 C   0  0  2  0  0  0
   82.4240  -25.6830 -103.1940 C   0  0  0  0  0  0
   82.4820  -29.2960 -106.4190 C   0  0  0  0  0  0
   81.4810  -30.4480 -106.6640 C   0  0  2  0  0  0
   81.3160  -33.0330 -106.7540 C   0  0  0  0  0  0
   80.1120  -33.1050 -105.7800 C   0  0  0  0  0  0
   80.0600  -29.2920 -108.3640 C   0  0  0  0  0  0
   85.4230  -22.1000 -101.4670 C   0  0  0  0  0  0
   85.6210  -23.1360 -102.4070 C   0  0  0  0  0  0
   84.9240  -26.5510 -100.4950 S   0  0  0  0  0  0
   84.2860  -26.6790  -99.1810 O   0  0  0  0  0  0
   86.2580  -27.1320 -100.6920 O   0  0  0  0  0  0
   83.8840  -27.0700 -101.7040 N   0  0  3  0  0  0
   84.2680  -28.2610 -102.5140 C   0  0  0  0  0  0
   84.6440  -28.0350 -103.9920 C   0  0  2  0  0  0
   82.3160  -26.5250 -104.4530 C   0  0  0  0  0  0
   82.5720  -26.3840 -101.8430 C   0  0  2  0  0  0
   85.5620  -27.0680 -104.0990 O   0  0  0  0  0  0
   81.3950  -27.3300 -101.5170 C   0  0  0  0  0  0
   82.4790  -28.7640 -105.1560 N   0  0  0  0  0  0
   83.2110  -28.8730 -107.3390 O   0  0  0  0  0  0
   82.2070  -31.7990 -106.5060 C   0  0  0  0  0  0
   82.1400  -34.2940 -106.5970 C   0  0  0  0  0  0
   81.0190  -30.2380 -108.0310 N   0  0  0  0  0  0
   79.5420  -28.5790 -107.5060 O   0  0  0  0  0  0
   79.7690  -29.1940 -109.7720 C   0  0  0  0  0  0
   79.6720  -30.1180 -110.7820 C   0  0  0  0  0  0
   79.3850  -29.4290 -111.9750 C   0  0  0  0  0  0
   79.3160  -28.0700 -111.6070 C   0  0  0  0  0  0
   79.5500  -27.9360 -110.2780 O   0  0  0  0  0  0
   79.1700  -29.7850 -113.3420 C   0  0  0  0  0  0
   78.8930  -28.7520 -114.2900 C   0  0  0  0  0  0
   78.8310  -27.3870 -113.8800 C   0  0  0  0  0  0
   79.0430  -27.0150 -112.5200 C   0  0  0  0  0  0
   84.5967  -24.1093  -98.7807 H   0  0  0  0  0  0
   84.8922  -21.6789  -99.4003 H   0  0  0  0  0  0
   83.9267  -27.2311 -105.6922 H   0  0  0  0  0  0
   83.3067  -25.0304 -103.2640 H   0  0  0  0  0  0
   81.5196  -25.0661 -103.0867 H   0  0  0  0  0  0
   80.6061  -30.4556 -105.9973 H   0  0  0  0  0  0
   80.9346  -32.9591 -107.7831 H   0  0  0  0  0  0
   79.5028  -32.1948 -105.8822 H   0  0  0  0  0  0
   80.4806  -33.1855 -104.7467 H   0  0  0  0  0  0
   79.4984  -33.9858 -106.0200 H   0  0  0  0  0  0
   85.5528  -21.0552 -101.7492 H   0  0  0  0  0  0
   85.9066  -22.8650 -103.4234 H   0  0  0  0  0  0
   85.1486  -28.7423 -102.0636 H   0  0  0  0  0  0
   83.4313  -28.9747 -102.5361 H   0  0  0  0  0  0
   85.2059  -28.8959 -104.3834 H   0  0  0  0  0  0
   82.2834  -25.7587 -105.2415 H   0  0  0  0  0  0
   81.3205  -26.9797 -104.3423 H   0  0  0  0  0  0
   82.5831  -25.5872 -101.0847 H   0  0  0  0  0  0
   85.9432  -26.7787 -105.0894 H   0  0  0  0  0  0
   80.4454  -26.7866 -101.6311 H   0  0  0  0  0  0
   81.4896  -27.6896 -100.4818 H   0  0  0  0  0  0
   81.4120  -28.1873 -102.2060 H   0  0  0  0  0  0
   81.8235  -29.1845 -104.3792 H   0  0  0  0  0  0
   83.0389  -31.8543 -107.2235 H   0  0  0  0  0  0
   82.5994  -31.8869 -105.4821 H   0  0  0  0  0  0
   81.5027  -35.1729 -106.7743 H   0  0  0  0  0  0
   82.5511  -34.3388 -105.5777 H   0  0  0  0  0  0
   82.9646  -34.2862 -107.3250 H   0  0  0  0  0  0
   81.4335  -30.8432 -108.8507 H   0  0  0  0  0  0
   79.7955  -31.1960 -110.6784 H   0  0  0  0  0  0
   79.2165  -30.8275 -113.6567 H   0  0  0  0  0  0
   78.7276  -29.0095 -115.3361 H   0  0  0  0  0  0
   78.6178  -26.6150 -114.6193 H   0  0  0  0  0  0
   78.9981  -25.9750 -112.1969 H   0  0  0  0  0  0
  1  2  2  0  0  0
  1 13  1  0  0  0
  2  3  1  0  0  0
  2 14  1  0  0  0
  3  4  2  0  0  0
  3 39  1  0  0  0
  4 12  1  0  0  0
  4 40  1  0  0  0
  5 19  1  0  0  0
  5 20  1  0  0  0
  5 24  1  0  0  0
  5 41  1  0  0  0
  6 20  1  0  0  0
  6 21  1  0  0  0
  6 42  1  0  0  0
  6 43  1  0  0  0
  7  8  1  0  0  0
  7 24  1  0  0  0
  7 25  2  0  0  0
  8 26  1  0  0  0
  8 28  1  0  0  0
  8 44  1  0  0  0
  9 10  1  0  0  0
  9 26  1  0  0  0
  9 27  1  0  0  0
  9 45  1  0  0  0
 10 46  1  0  0  0
 10 47  1  0  0  0
 10 48  1  0  0  0
 11 28  1  0  0  0
 11 29  2  0  0  0
 11 30  1  0  0  0
 12 13  2  0  0  0
 12 49  1  0  0  0
 13 50  1  0  0  0
 14 15  2  0  0  0
 14 16  2  0  0  0
 14 17  1  0  0  0
 17 18  1  0  0  0
 17 21  1  0  0  0
 18 19  1  0  0  0
 18 51  1  0  0  0
 18 52  1  0  0  0
 19 22  1  0  0  0
 19 53  1  0  0  0
 20 54  1  0  0  0
 20 55  1  0  0  0
 21 23  1  0  0  0
 21 56  1  0  0  0
 22 57  1  0  0  0
 23 58  1  0  0  0
 23 59  1  0  0  0
 23 60  1  0  0  0
 24 61  1  0  0  0
 26 62  1  0  0  0
 26 63  1  0  0  0
 27 64  1  0  0  0
 27 65  1  0  0  0
 27 66  1  0  0  0
 28 67  1  0  0  0
 30 31  2  0  0  0
 30 34  1  0  0  0
 31 32  1  0  0  0
 31 68  1  0  0  0
 32 33  2  0  0  0
 32 35  1  0  0  0
 33 34  1  0  0  0
 33 38  1  0  0  0
 35 36  2  0  0  0
 35 69  1  0  0  0
 36 37  1  0  0  0
 36 70  1  0  0  0
 37 38  2  0  0  0
 37 71  1  0  0  0
 38 72  1  0  0  0
M  END
> <s_m_source_file>
../2ftd_ligand.sdf

> <i_m_source_file_index>
1

> <s_epik_input>
W2NIXTFbY0hdW2NIXVtjSF1uYzFTKD1PKSg9TylOKFtDQEhdKFtDSDNdKVtDSDJdW0NIMl0yKVtDSDJdW0NASF0oW09IXSlbQ0BIXTJbTkhdQyg9TylbQ0BIXShbQ0gyXVtDSF0oW0NIM10pW0NIM10pW05IXUMoPU8pYyhbY0hdMylvYyhjMzQpW2NIXVtjSF1bY0hdW2NIXTQ=

> <s_epik_cmdline>
J2VwaWtfYXBwJywgJy1pbWFlJywgJ2xpZ2FuZF9wcm8ubWFlJywgJy1vbWFlJywgJ2xpZ2FuZF9wcmVwLm1hZScsICctbXMnLCAnMScsICctcGgnLCAnNycsICctcGh0JywgJzAuNScsICctbnQn

> <r_lp_tautomer_probability>
1

> <r_epik_Ionization_Penalty>
  0.0000

> <r_epik_Ionization_Penalty_Charging>
  0.0000

> <r_epik_Ionization_Penalty_Neutral>
  0.0000

> <r_epik_State_Penalty>
 -0.0000

> <r_epik_Charging_Adjusted_Penalty>
0

> <i_epik_Tot_Q>
0

> <i_epik_Tot_abs_Q>
0

$$$$
