2fts_ligand
                    3D
 Schrodinger Suite 2020-3.
212214  0  0  1  0            999 V2000
   15.8030   33.5480  -29.0570 N   0  3  0  0  0  0
   14.6230   32.6200  -28.9180 C   0  0  2  0  0  0
   14.2520   32.4160  -27.4500 C   0  0  0  0  0  0
   15.1310   32.1840  -26.5990 O   0  0  0  0  0  0
   14.9370   31.2480  -29.5500 C   0  0  0  0  0  0
   13.8550   30.2090  -29.3290 C   0  0  0  0  0  0
   12.7690   30.1170  -30.1910 C   0  0  0  0  0  0
   13.9220   29.3370  -28.2590 C   0  0  0  0  0  0
   11.7740   29.1770  -29.9840 C   0  0  0  0  0  0
   12.9280   28.4010  -28.0590 C   0  0  0  0  0  0
   11.8500   28.3270  -28.9390 C   0  0  0  0  0  0
   12.9600   32.4860  -27.1580 N   0  0  0  0  0  0
   12.4720   32.2170  -25.8160 C   0  0  2  0  0  0
   11.1800   31.3720  -25.8860 C   0  0  0  0  0  0
   10.3500   31.5830  -26.7780 O   0  0  0  0  0  0
   12.2080   33.5480  -25.0860 C   0  0  0  0  0  0
   11.9130   33.3450  -23.7140 O   0  0  0  0  0  0
   11.0390   30.3910  -24.9780 N   0  0  0  0  0  0
    9.7460   29.6630  -24.8310 C   0  0  2  0  0  0
    8.8740   30.3160  -23.7490 C   0  0  0  0  0  0
    7.9050   29.7230  -23.2810 O   0  0  0  0  0  0
    9.8790   28.1250  -24.5280 C   0  0  2  0  0  0
   10.7440   27.8850  -23.2950 C   0  0  0  0  0  0
   10.4010   27.3620  -25.7380 C   0  0  0  0  0  0
   10.6730   26.5260  -22.8770 C   0  0  0  0  0  0
    9.2480   31.5220  -23.3420 N   0  0  0  0  0  0
    8.4520   32.3130  -22.4350 C   0  0  2  0  0  0
    7.8400   33.4190  -23.2640 C   0  0  0  0  0  0
    8.5170   34.0170  -24.1040 O   0  0  0  0  0  0
    9.3080   32.9030  -21.2830 C   0  0  0  0  0  0
    8.4390   33.7730  -20.3410 C   0  0  0  0  0  0
    9.9890   31.7780  -20.5170 C   0  0  0  0  0  0
    6.5610   33.6810  -23.0330 N   0  0  0  0  0  0
    5.8420   34.6920  -23.7730 C   0  0  0  0  0  0
    6.3500   36.1120  -23.5770 C   0  0  0  0  0  0
    6.8680   36.4670  -22.5050 O   0  0  0  0  0  0
    6.1970   36.9360  -24.6160 N   0  0  0  0  0  0
    6.6060   38.3390  -24.5440 C   0  0  2  0  0  0
    5.4040   39.2350  -24.2920 C   0  0  0  0  0  0
    4.2550   38.8500  -24.5250 O   0  0  0  0  0  0
    7.3440   38.7640  -25.8210 C   0  0  0  0  0  0
    6.4810   38.8120  -26.9360 O   0  0  0  0  0  0
    5.6800   40.4310  -23.7820 N   0  0  0  0  0  0
    4.6300   41.4320  -23.5340 C   0  0  2  0  0  0
    4.2310   42.0830  -24.8520 C   0  0  0  0  0  0
    5.0430   42.1460  -25.7880 O   0  0  0  0  0  0
    5.1280   42.5080  -22.5650 C   0  0  0  0  0  0
    5.4970   42.0400  -21.1510 C   0  0  0  0  0  0
    6.5360   42.9550  -20.5450 C   0  0  0  0  0  0
    4.2630   41.9230  -20.2500 C   0  0  0  0  0  0
    2.9870   42.5640  -24.9420 N   0  0  0  0  0  0
    2.5680   43.2980  -26.1370 C   0  0  2  0  0  0
    3.4580   44.5510  -26.4130 C   0  0  0  0  0  0
    3.5050   45.0400  -27.5590 O   0  0  0  0  0  0
    1.1200   43.6970  -25.8160 C   0  0  0  0  0  0
    0.6830   42.7580  -24.7540 C   0  0  0  0  0  0
    1.8970   42.4390  -23.9590 C   0  0  0  0  0  0
    4.1470   45.0440  -25.3600 N   0  0  0  0  0  0
    5.1090   46.1540  -25.4840 C   0  0  2  0  0  0
    6.3110   45.7520  -26.3320 C   0  0  0  0  0  0
    6.7500   46.5190  -27.1780 O   0  0  0  0  0  0
    5.6080   46.6510  -24.1120 C   0  0  0  0  0  0
    6.6890   47.7800  -24.2370 C   0  0  0  0  0  0
    6.8170   48.6680  -22.9540 C   0  0  0  0  0  0
    7.4300   49.9870  -23.2570 N   0  0  0  0  0  0
    7.4880   51.0240  -22.4050 C   0  0  0  0  0  0
    6.9690   50.9270  -21.1710 N   0  0  0  0  0  0
    8.0640   52.1710  -22.7910 N   0  0  0  0  0  0
    6.8480   44.5540  -26.0980 N   0  0  0  0  0  0
    7.9800   44.0410  -26.8950 C   0  0  2  0  0  0
    7.6210   43.9480  -28.4050 C   0  0  0  0  0  0
    8.5090   43.8520  -29.2670 O   0  0  0  0  0  0
    8.4220   42.6790  -26.3570 C   0  0  0  0  0  0
    8.8560   42.7430  -24.8870 C   0  0  0  0  0  0
    9.4220   43.7870  -24.4810 O   0  0  0  0  0  0
    8.6270   41.7560  -24.1400 O   0  0  0  0  0  0
    6.3170   43.9900  -28.7080 N   0  0  0  0  0  0
    5.8300   44.0080  -30.0860 C   0  0  2  0  0  0
    5.9810   45.4070  -30.7490 C   0  0  0  0  0  0
    5.7290   45.5390  -31.9430 O   0  0  0  0  0  0
    4.3670   43.5380  -30.1400 C   0  0  0  0  0  0
    3.8850   43.2400  -31.5150 C   0  0  0  0  0  0
    4.4590   42.2100  -32.2520 C   0  0  0  0  0  0
    2.8590   43.9870  -32.0890 C   0  0  0  0  0  0
    4.0240   41.9280  -33.5350 C   0  0  0  0  0  0
    2.4150   43.7160  -33.3850 C   0  0  0  0  0  0
    2.9890   42.6860  -34.1030 C   0  0  0  0  0  0
    6.3990   46.4320  -29.9700 N   0  0  0  0  0  0
    6.6840   47.8130  -30.5000 C   0  0  2  0  0  0
    7.7690   47.8350  -31.5990 C   0  0  0  0  0  0
    7.8420   48.7920  -32.3760 O   0  0  0  0  0  0
    7.1040   48.7620  -29.3750 C   0  0  0  0  0  0
    8.4800   48.4520  -28.7420 C   0  0  0  0  0  0
    8.7260   49.2670  -27.4640 C   0  0  0  0  0  0
    8.4350   50.4900  -27.4600 O   0  0  0  0  0  0
    9.2110   48.6830  -26.4650 O   0  0  0  0  0  0
    8.6310   46.8060  -31.6170 N   0  0  0  0  0  0
    9.6250   46.5970  -32.6980 C   0  0  2  0  0  0
   10.1240   45.1380  -32.6990 C   0  0  0  0  0  0
    9.8070   44.3510  -31.7890 O   0  0  0  0  0  0
   10.8210   47.5750  -32.5920 C   0  0  0  0  0  0
   10.7300   48.9540  -33.2940 C   0  0  0  0  0  0
   11.9550   49.8180  -32.9540 C   0  0  0  0  0  0
   10.5610   48.8150  -34.8420 C   0  0  0  0  0  0
   10.9055   44.7142  -33.6882 O   0  0  0  0  0  0
   16.0459   33.6752  -30.1223 H   0  0  0  0  0  0
   16.6697   33.1203  -28.5318 H   0  0  0  0  0  0
   15.5543   34.5256  -28.6184 H   0  0  0  0  0  0
   13.7838   33.1042  -29.4388 H   0  0  0  0  0  0
   15.0599   31.3645  -30.6369 H   0  0  0  0  0  0
   15.8658   30.8486  -29.1167 H   0  0  0  0  0  0
   12.6996   30.7945  -31.0421 H   0  0  0  0  0  0
   14.7645   29.3888  -27.5694 H   0  0  0  0  0  0
   10.9265   29.1234  -30.6674 H   0  0  0  0  0  0
   12.9861   27.7183  -27.2112 H   0  0  0  0  0  0
   11.0688   27.5830  -28.7832 H   0  0  0  0  0  0
   12.2530   32.7542  -27.9569 H   0  0  0  0  0  0
   13.2684   31.6540  -25.3074 H   0  0  0  0  0  0
   13.0997   34.1882  -25.1570 H   0  0  0  0  0  0
   11.3522   34.0583  -25.5520 H   0  0  0  0  0  0
   11.7019   34.2066  -23.0635 H   0  0  0  0  0  0
   11.8943   30.1277  -24.3383 H   0  0  0  0  0  0
    9.2997   29.7895  -25.8284 H   0  0  0  0  0  0
    8.8879   27.7022  -24.3067 H   0  0  0  0  0  0
   11.7912   28.1273  -23.5290 H   0  0  0  0  0  0
   10.3947   28.5254  -22.4717 H   0  0  0  0  0  0
    9.7526   27.5603  -26.6042 H   0  0  0  0  0  0
   10.4014   26.2839  -25.5194 H   0  0  0  0  0  0
   11.4260   27.6906  -25.9644 H   0  0  0  0  0  0
   11.3049   26.3823  -21.9882 H   0  0  0  0  0  0
   11.0279   25.8738  -23.6886 H   0  0  0  0  0  0
    9.6313   26.2719  -22.6313 H   0  0  0  0  0  0
   10.2028   31.9148  -23.7215 H   0  0  0  0  0  0
    7.6879   31.6481  -22.0059 H   0  0  0  0  0  0
   10.0980   33.5424  -21.7037 H   0  0  0  0  0  0
    7.9605   34.5758  -20.9210 H   0  0  0  0  0  0
    9.0747   34.2143  -19.5592 H   0  0  0  0  0  0
    7.6648   33.1466  -19.8738 H   0  0  0  0  0  0
   10.5976   31.1785  -21.2100 H   0  0  0  0  0  0
    9.2258   31.1374  -20.0510 H   0  0  0  0  0  0
   10.6358   32.2050  -19.7364 H   0  0  0  0  0  0
    6.0474   33.1021  -22.2513 H   0  0  0  0  0  0
    5.9117   34.4774  -24.8496 H   0  0  0  0  0  0
    4.7857   34.6893  -23.4662 H   0  0  0  0  0  0
    5.7525   36.5394  -25.5408 H   0  0  0  0  0  0
    7.2898   38.4032  -23.6848 H   0  0  0  0  0  0
    7.7779   39.7646  -25.6779 H   0  0  0  0  0  0
    8.1468   38.0438  -26.0375 H   0  0  0  0  0  0
    6.8723   39.1020  -27.9223 H   0  0  0  0  0  0
    6.7285   40.6633  -23.5440 H   0  0  0  0  0  0
    3.7786   40.8940  -23.0916 H   0  0  0  0  0  0
    6.0361   42.9764  -22.9724 H   0  0  0  0  0  0
    4.3482   43.2727  -22.4339 H   0  0  0  0  0  0
    5.9436   41.0375  -21.2246 H   0  0  0  0  0  0
    7.4060   43.0165  -21.2153 H   0  0  0  0  0  0
    6.8519   42.5560  -19.5698 H   0  0  0  0  0  0
    6.1063   43.9584  -20.4089 H   0  0  0  0  0  0
    3.5287   41.2518  -20.7193 H   0  0  0  0  0  0
    3.8145   42.9178  -20.1115 H   0  0  0  0  0  0
    4.5601   41.5154  -19.2724 H   0  0  0  0  0  0
    2.6667   42.6461  -27.0175 H   0  0  0  0  0  0
    1.0957   44.7402  -25.4678 H   0  0  0  0  0  0
    0.5031   43.5982  -26.7214 H   0  0  0  0  0  0
   -0.0834   43.2411  -24.1301 H   0  0  0  0  0  0
    0.2626   41.8524  -25.2156 H   0  0  0  0  0  0
    1.8803   41.4147  -23.5583 H   0  0  0  0  0  0
    2.0609   43.1515  -23.1372 H   0  0  0  0  0  0
    3.9651   44.5808  -24.3790 H   0  0  0  0  0  0
    4.5337   46.9442  -25.9885 H   0  0  0  0  0  0
    4.7611   47.0560  -23.5386 H   0  0  0  0  0  0
    6.0573   45.8126  -23.5596 H   0  0  0  0  0  0
    7.6736   47.3259  -24.4224 H   0  0  0  0  0  0
    6.4290   48.4457  -25.0732 H   0  0  0  0  0  0
    5.8183   48.8406  -22.5264 H   0  0  0  0  0  0
    7.4488   48.1546  -22.2142 H   0  0  0  0  0  0
    7.8821   50.1699  -24.2430 H   0  0  0  0  0  0
    6.4944   49.9893  -20.8461 H   0  0  0  0  0  0
    7.0182   51.7852  -20.4846 H   0  0  0  0  0  0
    8.4918   52.2591  -23.8006 H   0  0  0  0  0  0
    6.4255   43.9435  -25.2863 H   0  0  0  0  0  0
    8.7922   44.7704  -26.7595 H   0  0  0  0  0  0
    7.5878   41.9661  -26.4338 H   0  0  0  0  0  0
    9.2744   42.3108  -26.9468 H   0  0  0  0  0  0
    8.9310   41.7838  -23.0832 H   0  0  0  0  0  0
    5.6026   44.0112  -27.8719 H   0  0  0  0  0  0
    6.4803   43.2899  -30.6070 H   0  0  0  0  0  0
    4.2553   42.6180  -29.5474 H   0  0  0  0  0  0
    3.7147   44.3215  -29.7271 H   0  0  0  0  0  0
    5.2618   41.6172  -31.8135 H   0  0  0  0  0  0
    2.3968   44.7933  -31.5194 H   0  0  0  0  0  0
    4.4841   41.1193  -34.1027 H   0  0  0  0  0  0
    1.6190   44.3149  -33.8276 H   0  0  0  0  0  0
    2.6384   42.4618  -35.1104 H   0  0  0  0  0  0
    6.5285   46.2163  -28.8992 H   0  0  0  0  0  0
    5.7268   48.1347  -30.9362 H   0  0  0  0  0  0
    7.1591   49.7896  -29.7636 H   0  0  0  0  0  0
    6.3646   48.7167  -28.5619 H   0  0  0  0  0  0
    8.5319   47.3844  -28.4822 H   0  0  0  0  0  0
    9.2770   48.6937  -29.4606 H   0  0  0  0  0  0
    8.6031   51.0924  -26.5551 H   0  0  0  0  0  0
    8.5755   46.0985  -30.7766 H   0  0  0  0  0  0
    9.0759   46.8101  -33.6270 H   0  0  0  0  0  0
   11.0050   47.8159  -31.5346 H   0  0  0  0  0  0
   11.7178   47.1056  -33.0225 H   0  0  0  0  0  0
    9.8377   49.4628  -32.9004 H   0  0  0  0  0  0
   12.0531   49.9013  -31.8616 H   0  0  0  0  0  0
   11.8284   50.8207  -33.3883 H   0  0  0  0  0  0
   12.8601   49.3503  -33.3689 H   0  0  0  0  0  0
    9.6798   48.1938  -35.0603 H   0  0  0  0  0  0
   11.4580   48.3415  -35.2677 H   0  0  0  0  0  0
   10.4263   49.8119  -35.2871 H   0  0  0  0  0  0
   11.2664   43.6751  -33.6974 H   0  0  0  0  0  0
  1  2  1  0  0  0
  1106  1  0  0  0
  1107  1  0  0  0
  1108  1  0  0  0
  2  5  1  0  0  0
  2  3  1  0  0  0
  2109  1  0  0  0
  3  4  2  0  0  0
  3 12  1  0  0  0
  5  6  1  0  0  0
  5110  1  0  0  0
  5111  1  0  0  0
  6  7  2  0  0  0
  6  8  1  0  0  0
  7  9  1  0  0  0
  7112  1  0  0  0
  8 10  2  0  0  0
  8113  1  0  0  0
  9 11  2  0  0  0
  9114  1  0  0  0
 10 11  1  0  0  0
 10115  1  0  0  0
 11116  1  0  0  0
 12 13  1  0  0  0
 12117  1  0  0  0
 13 16  1  0  0  0
 13 14  1  0  0  0
 13118  1  0  0  0
 14 15  2  0  0  0
 14 18  1  0  0  0
 16 17  1  0  0  0
 16119  1  0  0  0
 16120  1  0  0  0
 17121  1  0  0  0
 18 19  1  0  0  0
 18122  1  0  0  0
 19 22  1  0  0  0
 19 20  1  0  0  0
 19123  1  0  0  0
 20 21  2  0  0  0
 20 26  1  0  0  0
 22 24  1  0  0  0
 22 23  1  0  0  0
 22124  1  0  0  0
 23 25  1  0  0  0
 23125  1  0  0  0
 23126  1  0  0  0
 24127  1  0  0  0
 24128  1  0  0  0
 24129  1  0  0  0
 25130  1  0  0  0
 25131  1  0  0  0
 25132  1  0  0  0
 26 27  1  0  0  0
 26133  1  0  0  0
 27 30  1  0  0  0
 27 28  1  0  0  0
 27134  1  0  0  0
 28 29  2  0  0  0
 28 33  1  0  0  0
 30 32  1  0  0  0
 30 31  1  0  0  0
 30135  1  0  0  0
 31136  1  0  0  0
 31137  1  0  0  0
 31138  1  0  0  0
 32139  1  0  0  0
 32140  1  0  0  0
 32141  1  0  0  0
 33 34  1  0  0  0
 33142  1  0  0  0
 34 35  1  0  0  0
 34143  1  0  0  0
 34144  1  0  0  0
 35 36  2  0  0  0
 35 37  1  0  0  0
 37 38  1  0  0  0
 37145  1  0  0  0
 38 41  1  0  0  0
 38 39  1  0  0  0
 38146  1  0  0  0
 39 40  2  0  0  0
 39 43  1  0  0  0
 41 42  1  0  0  0
 41147  1  0  0  0
 41148  1  0  0  0
 42149  1  0  0  0
 43 44  1  0  0  0
 43150  1  0  0  0
 44 47  1  0  0  0
 44 45  1  0  0  0
 44151  1  0  0  0
 45 46  2  0  0  0
 45 51  1  0  0  0
 47 48  1  0  0  0
 47152  1  0  0  0
 47153  1  0  0  0
 48 49  1  0  0  0
 48 50  1  0  0  0
 48154  1  0  0  0
 49155  1  0  0  0
 49156  1  0  0  0
 49157  1  0  0  0
 50158  1  0  0  0
 50159  1  0  0  0
 50160  1  0  0  0
 51 52  1  0  0  0
 51 57  1  0  0  0
 52 53  1  0  0  0
 52 55  1  0  0  0
 52161  1  0  0  0
 53 54  2  0  0  0
 53 58  1  0  0  0
 55 56  1  0  0  0
 55162  1  0  0  0
 55163  1  0  0  0
 56 57  1  0  0  0
 56164  1  0  0  0
 56165  1  0  0  0
 57166  1  0  0  0
 57167  1  0  0  0
 58 59  1  0  0  0
 58168  1  0  0  0
 59 62  1  0  0  0
 59 60  1  0  0  0
 59169  1  0  0  0
 60 61  2  0  0  0
 60 69  1  0  0  0
 62 63  1  0  0  0
 62170  1  0  0  0
 62171  1  0  0  0
 63 64  1  0  0  0
 63172  1  0  0  0
 63173  1  0  0  0
 64 65  1  0  0  0
 64174  1  0  0  0
 64175  1  0  0  0
 65 66  1  0  0  0
 65176  1  0  0  0
 66 68  2  0  0  0
 66 67  1  0  0  0
 67177  1  0  0  0
 67178  1  0  0  0
 68179  1  0  0  0
 69 70  1  0  0  0
 69180  1  0  0  0
 70 73  1  0  0  0
 70 71  1  0  0  0
 70181  1  0  0  0
 71 72  2  0  0  0
 71 77  1  0  0  0
 73 74  1  0  0  0
 73182  1  0  0  0
 73183  1  0  0  0
 74 75  2  0  0  0
 74 76  1  0  0  0
 76184  1  0  0  0
 77 78  1  0  0  0
 77185  1  0  0  0
 78 81  1  0  0  0
 78 79  1  0  0  0
 78186  1  0  0  0
 79 80  2  0  0  0
 79 88  1  0  0  0
 81 82  1  0  0  0
 81187  1  0  0  0
 81188  1  0  0  0
 82 83  2  0  0  0
 82 84  1  0  0  0
 83 85  1  0  0  0
 83189  1  0  0  0
 84 86  2  0  0  0
 84190  1  0  0  0
 85 87  2  0  0  0
 85191  1  0  0  0
 86 87  1  0  0  0
 86192  1  0  0  0
 87193  1  0  0  0
 88 89  1  0  0  0
 88194  1  0  0  0
 89 92  1  0  0  0
 89 90  1  0  0  0
 89195  1  0  0  0
 90 91  2  0  0  0
 90 97  1  0  0  0
 92 93  1  0  0  0
 92196  1  0  0  0
 92197  1  0  0  0
 93 94  1  0  0  0
 93198  1  0  0  0
 93199  1  0  0  0
 94 96  2  0  0  0
 94 95  1  0  0  0
 95200  1  0  0  0
 97 98  1  0  0  0
 97201  1  0  0  0
 98101  1  0  0  0
 98 99  1  0  0  0
 98202  1  0  0  0
 99100  2  0  0  0
 99105  1  0  0  0
101102  1  0  0  0
101203  1  0  0  0
101204  1  0  0  0
102103  1  0  0  0
102104  1  0  0  0
102205  1  0  0  0
103206  1  0  0  0
103207  1  0  0  0
103208  1  0  0  0
104209  1  0  0  0
104210  1  0  0  0
104211  1  0  0  0
105212  1  0  0  0
M  CHG  1   1   1
M  END
> <s_m_source_file>
../2fts_ligand.sdf

> <i_m_source_file_index>
1

> <s_epik_input>
W2NIXTFbY0hdW2NIXVtjSF1bY0hdYzFbQ0gyXVtDQEhdKFtOSDMrXSlDKD1PKVtOSF1bQ0BASF0oW0NIMl1bT0hdKUMoPU8pW05IXVtDQEBIXShbQ0BASF0oW0NIM10pW0NIMl1bQ0gzXSlDKD1PKVtOSF1bQ0BASF0oW0NIXShbQ0gzXSlbQ0gzXSlDKD1PKVtOSF1bQ0gyXUMoPU8pW05IXVtDQEBIXShbQ0gyXVtPSF0pQyg9TylbTkhdW0NAQEhdKFtDSDJdW0NIXShbQ0gzXSlbQ0gzXSlDKD1PKU4yW0NAQEhdKFtDSDJdW0NIMl1bQ0gyXTIpQyg9TylbTkhdW0NAQEhdKFtDSDJdW0NIMl1bQ0gyXVtOSF0vQyhbTkgyXSk9TlxbSF0pQyg9TylbTkhdW0NAQEhdKFtDSDJdQyg9TylbT0hdKUMoPU8pW05IXVtDQEBIXShbQ0gyXWMzW2NIXVtjSF1bY0hdW2NIXVtjSF0zKUMoPU8pW05IXVtDQEBIXShbQ0gyXVtDSDJdQyg9TylbT0hdKUMoPU8pW05IXVtDQEhdKEMoPU8pW09IXSlbQ0gyXVtDSF0oW0NIM10pW0NIM10=

> <s_epik_cmdline>
J2VwaWtfYXBwJywgJy1pbWFlJywgJ2xpZ2FuZF9wcm8ubWFlJywgJy1vbWFlJywgJ2xpZ2FuZF9wcmVwLm1hZScsICctbXMnLCAnMScsICctcGgnLCAnNycsICctcGh0JywgJzAuNScsICctbnQn

> <s_epik_pKa_notes>
Molecule size exceeds maximum supported for generating protonation states

> <s_epik_Chemistry_Notes>
This compound has an imine and may undergo hydrolysis.

$$$$
