2fu8_ligand
                    3D
 Schrodinger Suite 2020-3.
 28 28  0  0  1  0            999 V2000
   12.4610   27.8840   36.7350 O   0  5  0  0  0  0
   12.2550   28.3950   35.5990 C   0  0  0  0  0  0
   12.4650   29.6100   35.3680 O   0  0  0  0  0  0
   11.5800   27.5560   34.5390 C   0  0  1  0  0  0
   10.1170   27.4990   34.9540 C   0  0  0  0  0  0
    9.2650   28.2030   33.9290 C   0  0  0  0  0  0
   10.2110   28.5780   32.8020 C   0  0  0  0  0  0
   11.5460   28.1730   33.1870 N   0  0  0  0  0  0
   12.6470   28.3380   32.4130 C   0  0  0  0  0  0
   13.7630   27.9650   32.7670 O   0  0  0  0  0  0
   12.5530   28.9890   31.0430 C   0  0  2  0  0  0
   13.1740   28.0450   29.9990 C   0  0  0  0  0  0
   13.2790   30.3310   31.0050 C   0  0  0  0  0  0
   12.5730   31.5720   32.1160 S   0  0  0  0  0  0
   12.1357   26.6103   34.4559 H   0  0  0  0  0  0
    9.7984   26.4490   35.0311 H   0  0  0  0  0  0
    9.9930   27.9923   35.9293 H   0  0  0  0  0  0
    8.4744   27.5226   33.5797 H   0  0  0  0  0  0
    8.8075   29.0947   34.3825 H   0  0  0  0  0  0
    9.9072   28.0597   31.8805 H   0  0  0  0  0  0
   10.1753   29.6654   32.6398 H   0  0  0  0  0  0
   11.4900   29.1756   30.8305 H   0  0  0  0  0  0
   12.6526   27.0767   30.0241 H   0  0  0  0  0  0
   14.2391   27.8940   30.2288 H   0  0  0  0  0  0
   13.0743   28.4893   28.9977 H   0  0  0  0  0  0
   14.3293   30.1881   31.2991 H   0  0  0  0  0  0
   13.2364   30.7422   29.9857 H   0  0  0  0  0  0
   13.0166   32.5771   32.1708 H   0  0  0  0  0  0
  1  2  1  0  0  0
  2  3  2  0  0  0
  2  4  1  0  0  0
  4  5  1  0  0  0
  4  8  1  0  0  0
  4 15  1  0  0  0
  5  6  1  0  0  0
  5 16  1  0  0  0
  5 17  1  0  0  0
  6  7  1  0  0  0
  6 18  1  0  0  0
  6 19  1  0  0  0
  7  8  1  0  0  0
  7 20  1  0  0  0
  7 21  1  0  0  0
  8  9  1  0  0  0
  9 10  2  0  0  0
  9 11  1  0  0  0
 11 12  1  0  0  0
 11 13  1  0  0  0
 11 22  1  0  0  0
 12 23  1  0  0  0
 12 24  1  0  0  0
 12 25  1  0  0  0
 13 14  1  0  0  0
 13 26  1  0  0  0
 13 27  1  0  0  0
 14 28  1  0  0  0
M  CHG  1   1  -1
M  END
> <s_m_source_file>
../2fu8_ligand.sdf

> <i_m_source_file_index>
1

> <s_epik_input>
W09IXUMoPU8pW0NASF0xW0NIMl1bQ0gyXVtDSDJdTjFDKD1PKVtDQEhdKFtDSDNdKVtDSDJdW1NIXQ==

> <s_epik_cmdline>
J2VwaWtfYXBwJywgJy1pbWFlJywgJ2xpZ2FuZF9wcm8ubWFlJywgJy1vbWFlJywgJ2xpZ2FuZF9wcmVwLm1hZScsICctbXMnLCAnMScsICctcGgnLCAnNycsICctcGh0JywgJzAuNScsICctbnQn

> <r_lp_tautomer_probability>
1

> <r_epik_Ionization_Penalty>
  0.0024

> <r_epik_Ionization_Penalty_Charging>
  0.0004

> <r_epik_Ionization_Penalty_Neutral>
  0.0020

> <r_epik_State_Penalty>
 -0.0000

> <r_epik_Charging_Adjusted_Penalty>
0.000441835624439187

> <i_epik_Tot_Q>
-1

> <i_epik_Tot_abs_Q>
1

$$$$
