2fuu_ligand
                    3D
 Schrodinger Suite 2020-3.
239238  0  0  1  0            999 V2000
    3.1940   -5.0230   -4.2420 N   0  3  0  0  0  0
    3.5300   -4.0990   -5.3640 C   0  0  2  0  0  0
    2.5460   -2.9390   -5.3770 C   0  0  0  0  0  0
    1.5630   -2.9330   -4.6350 O   0  0  0  0  0  0
    3.4460   -4.8580   -6.6930 C   0  0  0  0  0  0
    2.8120   -1.9650   -6.2400 N   0  0  0  0  0  0
    1.9360   -0.8080   -6.3620 C   0  0  2  0  0  0
    0.8120   -1.0970   -7.3420 C   0  0  0  0  0  0
    0.6360   -0.3720   -8.3220 O   0  0  0  0  0  0
    2.7220    0.4080   -6.8560 C   0  0  0  0  0  0
    3.6200    0.9390   -5.7420 C   0  0  0  0  0  0
    4.2730    2.2430   -6.2070 C   0  0  0  0  0  0
    5.2420    1.9770   -7.2630 N   0  0  0  0  0  0
    6.5120    1.7060   -6.9760 C   0  0  0  0  0  0
    6.9020    1.6450   -5.7310 N   0  0  0  0  0  0
    7.3680    1.4980   -7.9370 N   0  0  0  0  0  0
    0.0460   -2.1520   -7.0870 N   0  0  0  0  0  0
   -1.0480   -2.4810   -7.9830 C   0  0  2  0  0  0
   -2.0510   -1.3400   -7.9930 C   0  0  0  0  0  0
   -2.4710   -0.8590   -6.9410 O   0  0  0  0  0  0
   -1.7420   -3.7780   -7.5590 C   0  0  2  0  0  0
   -0.7660   -4.7950   -7.3770 O   0  0  0  0  0  0
   -2.7350   -4.2110   -8.6490 C   0  0  0  0  0  0
   -2.4210   -0.9030   -9.1880 N   0  0  0  0  0  0
   -3.3650    0.1940   -9.3410 C   0  0  1  0  0  0
   -2.7320    1.2600  -10.2470 C   0  0  0  0  0  0
   -2.8840    2.6520   -9.6380 C   0  0  0  0  0  0
   -2.5430    3.7130  -10.6970 C   0  0  0  0  0  0
   -3.8030    4.0570  -11.5060 C   0  0  0  0  0  0
   -3.4640    4.7850  -12.7840 N   0  3  0  0  0  0
   -4.6620   -0.3420   -9.9470 C   0  0  0  0  0  0
   -4.7580   -0.5340  -11.1580 O   0  0  0  0  0  0
   -3.0480    3.8180  -13.8380 C   0  0  0  0  0  0
   -2.4090    5.8070  -12.5570 C   0  0  0  0  0  0
   -4.6680    5.4730  -13.2680 C   0  0  0  0  0  0
   -5.6470   -0.6080   -9.0900 N   0  0  0  0  0  0
   -6.9260   -1.1560   -9.5440 C   0  0  2  0  0  0
   -8.1030   -0.3420   -9.0160 C   0  0  0  0  0  0
   -7.9240    0.6290   -8.2810 O   0  0  0  0  0  0
   -7.0620   -2.6090   -9.0770 C   0  0  0  0  0  0
   -7.0680   -2.6730   -7.5370 C   0  0  0  0  0  0
   -5.7650   -3.2790   -7.0240 C   0  0  0  0  0  0
   -5.6430   -4.5000   -6.9270 O   0  0  0  0  0  0
   -4.7790   -2.4920   -6.6900 N   0  0  0  0  0  0
   -9.3090   -0.7480   -9.4080 N   0  0  0  0  0  0
  -10.5250   -0.0620   -8.9850 C   0  0  2  0  0  0
  -11.5600   -1.0630   -8.4700 C   0  0  0  0  0  0
  -11.5010   -2.2490   -8.7940 O   0  0  0  0  0  0
  -11.1080    0.7200  -10.1670 C   0  0  2  0  0  0
  -12.0760    1.6460   -9.6910 O   0  0  0  0  0  0
  -11.7630   -0.2470  -11.1560 C   0  0  0  0  0  0
  -12.5050   -0.5750   -7.6710 N   0  0  0  0  0  0
  -13.5490   -1.4330   -7.1170 C   0  0  2  0  0  0
  -14.8320   -0.6350   -6.8970 C   0  0  0  0  0  0
  -15.5500   -0.8470   -5.9190 O   0  0  0  0  0  0
  -13.0850   -2.0340   -5.7900 C   0  0  0  0  0  0
  -15.1090    0.2850   -7.8140 N   0  0  0  0  0  0
  -16.3030    1.1210   -7.7200 C   0  0  2  0  0  0
  -17.5630    0.2660   -7.6180 C   0  0  0  0  0  0
  -18.5200    0.6360   -6.9390 O   0  0  0  0  0  0
  -16.4000    2.0260   -8.9490 C   0  0  0  0  0  0
  -17.5640    3.0040   -8.7750 C   0  0  0  0  0  0
  -17.6460    3.9290   -9.9910 C   0  0  0  0  0  0
  -18.1230    3.1910  -11.1570 N   0  0  0  0  0  0
  -17.2790    2.6180  -12.0100 C   0  0  0  0  0  0
  -15.9910    2.6970  -11.8130 N   0  0  0  0  0  0
  -17.7390    1.9690  -13.0450 N   0  0  0  0  0  0
  -17.5610   -0.8710   -8.3070 N   0  0  0  0  0  0
  -18.7180   -1.7590   -8.2960 C   0  0  2  0  0  0
  -19.0830   -2.1670   -6.8710 C   0  0  0  0  0  0
  -20.2600   -2.3060   -6.5410 O   0  0  0  0  0  0
  -18.4240   -3.0110   -9.1300 C   0  0  0  0  0  0
  -17.3590   -3.8610   -8.4310 C   0  0  0  0  0  0
  -16.9670   -5.0310   -9.3350 C   0  0  0  0  0  0
  -16.1770   -6.0600   -8.5270 C   0  0  0  0  0  0
  -15.0980   -5.3710   -7.7630 N   0  3  0  0  0  0
  -18.0720   -2.3600   -6.0290 N   0  0  0  0  0  0
  -18.3150   -2.7540   -4.6450 C   0  0  2  0  0  0
  -18.6700   -1.5390   -3.7920 C   0  0  0  0  0  0
  -18.2060   -0.4290   -4.0500 O   0  0  0  0  0  0
  -17.0750   -3.4360   -4.0690 C   0  0  0  0  0  0
  -16.0800   -2.4550   -3.8070 O   0  0  0  0  0  0
  -19.4920   -1.7630   -2.7690 N   0  0  0  0  0  0
  -19.9000   -0.6830   -1.8760 C   0  0  2  0  0  0
  -19.0420   -0.6800   -0.6160 C   0  0  0  0  0  0
  -18.2190    0.2130   -0.4130 O   0  0  0  0  0  0
  -21.3730   -0.8520   -1.4930 C   0  0  2  0  0  0
  -22.1780   -0.7650   -2.6610 O   0  0  0  0  0  0
  -21.7760    0.2480   -0.5100 C   0  0  0  0  0  0
  -19.2420   -1.6880    0.2270 N   0  0  0  0  0  0
  -18.4840   -1.8020    1.4680 C   0  0  0  0  0  0
  -19.1350   -2.8100    2.4090 C   0  0  0  0  0  0
  -20.1220   -2.5040    3.0760 O   0  0  0  0  0  0
  -18.5770   -4.0160    2.4550 N   0  0  0  0  0  0
  -19.1150   -5.0640    3.3170 C   0  0  0  0  0  0
  -18.6670   -4.8670    4.7610 C   0  0  0  0  0  0
  -17.4900   -4.6240    5.0280 O   0  0  0  0  0  0
  -19.6120   -4.9790    5.6900 N   0  0  0  0  0  0
  -19.3020   -4.8140    7.1050 C   0  0  2  0  0  0
  -18.2680   -5.8450    7.5510 C   0  0  0  0  0  0
  -17.4120   -5.5600    8.3860 O   0  0  0  0  0  0
  -20.5720   -4.9700    7.9420 C   0  0  0  0  0  0
  -21.5500   -3.8430    7.5990 C   0  0  0  0  0  0
  -22.8310   -4.0040    8.4240 C   0  0  0  0  0  0
  -22.5330   -3.7600    9.9080 C   0  0  0  0  0  0
  -23.7810   -3.3190   10.5940 N   0  3  0  0  0  0
  -18.3580   -7.0460    6.9850 N   0  0  0  0  0  0
  -17.4290   -8.1210    7.3280 C   0  0  2  0  0  0
  -16.4200   -8.3320    6.2050 C   0  0  0  0  0  0
  -15.9220   -9.4390    6.0830 O   0  0  0  0  0  0
  -18.2000   -9.4190    7.5710 C   0  0  0  0  0  0
  -16.1600   -7.3840    5.4830 O   0  0  0  0  0  0
    3.2542   -4.4785   -3.2881 H   0  0  0  0  0  0
    3.9063   -5.8611   -4.2314 H   0  0  0  0  0  0
    2.1737   -5.4106   -4.3792 H   0  0  0  0  0  0
    4.5499   -3.7191   -5.2042 H   0  0  0  0  0  0
    4.1580   -5.6964   -6.6821 H   0  0  0  0  0  0
    3.6941   -4.1770   -7.5205 H   0  0  0  0  0  0
    2.4256   -5.2453   -6.8302 H   0  0  0  0  0  0
    3.7113   -2.0427   -6.8686 H   0  0  0  0  0  0
    1.5343   -0.6363   -5.3525 H   0  0  0  0  0  0
    3.3451    0.1177   -7.7148 H   0  0  0  0  0  0
    2.0207    1.1982   -7.1623 H   0  0  0  0  0  0
    3.0158    1.1271   -4.8423 H   0  0  0  0  0  0
    4.3979    0.1959   -5.5125 H   0  0  0  0  0  0
    3.4995    2.9230   -6.5933 H   0  0  0  0  0  0
    4.7883    2.7178   -5.3590 H   0  0  0  0  0  0
    4.9270    1.9986   -8.3167 H   0  0  0  0  0  0
    6.1805    1.8204   -4.9194 H   0  0  0  0  0  0
    7.9520    1.4183   -5.4940 H   0  0  0  0  0  0
    7.0405    1.5492   -8.9859 H   0  0  0  0  0  0
    0.2379   -2.7753   -6.2012 H   0  0  0  0  0  0
   -0.5913   -2.6120   -8.9751 H   0  0  0  0  0  0
   -2.2378   -3.6659   -6.5835 H   0  0  0  0  0  0
    0.0335   -4.6632   -6.6331 H   0  0  0  0  0  0
   -3.4906   -3.4241   -8.7902 H   0  0  0  0  0  0
   -3.2304   -5.1445   -8.3438 H   0  0  0  0  0  0
   -2.1948   -4.3743   -9.5932 H   0  0  0  0  0  0
   -1.9960   -1.3910  -10.0775 H   0  0  0  0  0  0
   -3.5705    0.6101   -8.3437 H   0  0  0  0  0  0
   -1.6608    1.0443  -10.3737 H   0  0  0  0  0  0
   -3.2272    1.2475  -11.2291 H   0  0  0  0  0  0
   -3.9207    2.7923   -9.2981 H   0  0  0  0  0  0
   -2.2006    2.7544   -8.7822 H   0  0  0  0  0  0
   -2.1687    4.6201  -10.1999 H   0  0  0  0  0  0
   -1.7699    3.3203  -11.3738 H   0  0  0  0  0  0
   -4.3360    3.1306  -11.7661 H   0  0  0  0  0  0
   -4.4605    4.7016  -10.9042 H   0  0  0  0  0  0
   -2.1455    3.2824  -13.5085 H   0  0  0  0  0  0
   -2.8322    4.3615  -14.7697 H   0  0  0  0  0  0
   -3.8591    3.0961  -14.0140 H   0  0  0  0  0  0
   -1.4946    5.3155  -12.1932 H   0  0  0  0  0  0
   -2.7575    6.5336  -11.8083 H   0  0  0  0  0  0
   -2.1941    6.3282  -13.5015 H   0  0  0  0  0  0
   -5.4656    4.7362  -13.4440 H   0  0  0  0  0  0
   -4.4384    5.9963  -14.2079 H   0  0  0  0  0  0
   -5.0017    6.2017  -12.5146 H   0  0  0  0  0  0
   -5.4831   -0.4071   -8.0210 H   0  0  0  0  0  0
   -6.9002   -1.0871  -10.6415 H   0  0  0  0  0  0
   -8.0035   -3.0303   -9.4591 H   0  0  0  0  0  0
   -6.2151   -3.1978   -9.4591 H   0  0  0  0  0  0
   -7.1758   -1.6575   -7.1283 H   0  0  0  0  0  0
   -7.9097   -3.2955   -7.1991 H   0  0  0  0  0  0
   -4.8917   -1.4013   -6.7781 H   0  0  0  0  0  0
   -3.8352   -2.9193   -6.3204 H   0  0  0  0  0  0
   -9.3738   -1.6254  -10.0682 H   0  0  0  0  0  0
  -10.2247    0.6140   -8.1708 H   0  0  0  0  0  0
  -10.3378    1.3295  -10.6624 H   0  0  0  0  0  0
  -11.7857    2.4217   -8.9671 H   0  0  0  0  0  0
  -11.0114   -0.9619  -11.5222 H   0  0  0  0  0  0
  -12.1745    0.3193  -12.0045 H   0  0  0  0  0  0
  -12.5739   -0.7934  -10.6521 H   0  0  0  0  0  0
  -12.4895    0.4981   -7.4298 H   0  0  0  0  0  0
  -13.7178   -2.2245   -7.8620 H   0  0  0  0  0  0
  -12.1607   -2.6083   -5.9509 H   0  0  0  0  0  0
  -13.8667   -2.7001   -5.3959 H   0  0  0  0  0  0
  -12.8937   -1.2260   -5.0685 H   0  0  0  0  0  0
  -14.4152    0.4100   -8.6584 H   0  0  0  0  0  0
  -16.1803    1.7127   -6.8008 H   0  0  0  0  0  0
  -15.4626    2.5899   -9.0640 H   0  0  0  0  0  0
  -16.5700    1.4108   -9.8449 H   0  0  0  0  0  0
  -18.5045    2.4415   -8.6805 H   0  0  0  0  0  0
  -17.4044    3.6064   -7.8685 H   0  0  0  0  0  0
  -18.3423    4.7536   -9.7781 H   0  0  0  0  0  0
  -16.6484    4.3383  -10.2083 H   0  0  0  0  0  0
  -19.2028    3.0993  -11.3459 H   0  0  0  0  0  0
  -15.6003    3.2432  -10.9418 H   0  0  0  0  0  0
  -18.8238    1.9007  -13.2137 H   0  0  0  0  0  0
  -17.0418    1.4904  -13.7485 H   0  0  0  0  0  0
  -16.6683   -1.1380   -8.8917 H   0  0  0  0  0  0
  -19.5401   -1.1746   -8.7350 H   0  0  0  0  0  0
  -19.3452   -3.6016   -9.2419 H   0  0  0  0  0  0
  -18.0571   -2.7123  -10.1230 H   0  0  0  0  0  0
  -16.4726   -3.2426   -8.2262 H   0  0  0  0  0  0
  -17.7625   -4.2484   -7.4839 H   0  0  0  0  0  0
  -17.8750   -5.5023   -9.7392 H   0  0  0  0  0  0
  -16.3455   -4.6616  -10.1640 H   0  0  0  0  0  0
  -16.8522   -6.5726   -7.8261 H   0  0  0  0  0  0
  -15.7291   -6.7970   -9.2098 H   0  0  0  0  0  0
  -14.5298   -6.1121   -7.1817 H   0  0  0  0  0  0
  -15.5456   -4.6341   -7.0799 H   0  0  0  0  0  0
  -14.4225   -4.8585   -8.4637 H   0  0  0  0  0  0
  -17.0418   -2.2189   -6.3879 H   0  0  0  0  0  0
  -19.1644   -3.4521   -4.6789 H   0  0  0  0  0  0
  -17.3407   -3.9507   -3.1339 H   0  0  0  0  0  0
  -16.6892   -4.1682   -4.7937 H   0  0  0  0  0  0
  -15.1089   -2.7552   -3.3865 H   0  0  0  0  0  0
  -19.8646   -2.7845   -2.6028 H   0  0  0  0  0  0
  -19.7450    0.2500   -2.4376 H   0  0  0  0  0  0
  -21.5681   -1.8505   -1.0748 H   0  0  0  0  0  0
  -22.0313   -1.4793   -3.4846 H   0  0  0  0  0  0
  -21.1520    0.1791    0.3933 H   0  0  0  0  0  0
  -22.8339    0.1245   -0.2351 H   0  0  0  0  0  0
  -21.6319    1.2315   -0.9811 H   0  0  0  0  0  0
  -19.9976   -2.4458   -0.0275 H   0  0  0  0  0  0
  -17.4605   -2.1364    1.2431 H   0  0  0  0  0  0
  -18.4483   -0.8224    1.9672 H   0  0  0  0  0  0
  -17.6952   -4.2175    1.8290 H   0  0  0  0  0  0
  -20.2142   -5.0391    3.2821 H   0  0  0  0  0  0
  -18.7592   -6.0446    2.9679 H   0  0  0  0  0  0
  -20.6424   -5.2002    5.3749 H   0  0  0  0  0  0
  -18.8918   -3.7982    7.2042 H   0  0  0  0  0  0
  -21.0393   -5.9411    7.7217 H   0  0  0  0  0  0
  -20.3153   -4.9206    9.0105 H   0  0  0  0  0  0
  -21.0866   -2.8725    7.8298 H   0  0  0  0  0  0
  -21.7976   -3.8856    6.5281 H   0  0  0  0  0  0
  -23.5817   -3.2767    8.0813 H   0  0  0  0  0  0
  -23.2235   -5.0237    8.2966 H   0  0  0  0  0  0
  -22.1695   -4.6913   10.3669 H   0  0  0  0  0  0
  -21.7640   -2.9794   10.0041 H   0  0  0  0  0  0
  -23.5712   -3.1429   11.6593 H   0  0  0  0  0  0
  -24.5490   -4.1003   10.4958 H   0  0  0  0  0  0
  -24.1436   -2.3884   10.1330 H   0  0  0  0  0  0
  -19.1526   -7.2211    6.2448 H   0  0  0  0  0  0
  -16.9120   -7.7963    8.2430 H   0  0  0  0  0  0
  -15.1901   -9.6278    5.2838 H   0  0  0  0  0  0
  -18.9281   -9.2667    8.3814 H   0  0  0  0  0  0
  -17.4966  -10.2156    7.8549 H   0  0  0  0  0  0
  -18.7299   -9.7083    6.6515 H   0  0  0  0  0  0
  1  2  1  0  0  0
  1113  1  0  0  0
  1114  1  0  0  0
  1115  1  0  0  0
  2  3  1  0  0  0
  2  5  1  0  0  0
  2116  1  0  0  0
  3  4  2  0  0  0
  3  6  1  0  0  0
  5117  1  0  0  0
  5118  1  0  0  0
  5119  1  0  0  0
  6  7  1  0  0  0
  6120  1  0  0  0
  7  8  1  0  0  0
  7 10  1  0  0  0
  7121  1  0  0  0
  8  9  2  0  0  0
  8 17  1  0  0  0
 10 11  1  0  0  0
 10122  1  0  0  0
 10123  1  0  0  0
 11 12  1  0  0  0
 11124  1  0  0  0
 11125  1  0  0  0
 12 13  1  0  0  0
 12126  1  0  0  0
 12127  1  0  0  0
 13 14  1  0  0  0
 13128  1  0  0  0
 14 15  1  0  0  0
 14 16  2  0  0  0
 15129  1  0  0  0
 15130  1  0  0  0
 16131  1  0  0  0
 17 18  1  0  0  0
 17132  1  0  0  0
 18 19  1  0  0  0
 18 21  1  0  0  0
 18133  1  0  0  0
 19 20  2  0  0  0
 19 24  1  0  0  0
 21 22  1  0  0  0
 21 23  1  0  0  0
 21134  1  0  0  0
 22135  1  0  0  0
 23136  1  0  0  0
 23137  1  0  0  0
 23138  1  0  0  0
 24 25  1  0  0  0
 24139  1  0  0  0
 25 26  1  0  0  0
 25 31  1  0  0  0
 25140  1  0  0  0
 26 27  1  0  0  0
 26141  1  0  0  0
 26142  1  0  0  0
 27 28  1  0  0  0
 27143  1  0  0  0
 27144  1  0  0  0
 28 29  1  0  0  0
 28145  1  0  0  0
 28146  1  0  0  0
 29 30  1  0  0  0
 29147  1  0  0  0
 29148  1  0  0  0
 30 33  1  0  0  0
 30 34  1  0  0  0
 30 35  1  0  0  0
 31 32  2  0  0  0
 31 36  1  0  0  0
 33149  1  0  0  0
 33150  1  0  0  0
 33151  1  0  0  0
 34152  1  0  0  0
 34153  1  0  0  0
 34154  1  0  0  0
 35155  1  0  0  0
 35156  1  0  0  0
 35157  1  0  0  0
 36 37  1  0  0  0
 36158  1  0  0  0
 37 38  1  0  0  0
 37 40  1  0  0  0
 37159  1  0  0  0
 38 39  2  0  0  0
 38 45  1  0  0  0
 40 41  1  0  0  0
 40160  1  0  0  0
 40161  1  0  0  0
 41 42  1  0  0  0
 41162  1  0  0  0
 41163  1  0  0  0
 42 43  2  0  0  0
 42 44  1  0  0  0
 44164  1  0  0  0
 44165  1  0  0  0
 45 46  1  0  0  0
 45166  1  0  0  0
 46 47  1  0  0  0
 46 49  1  0  0  0
 46167  1  0  0  0
 47 48  2  0  0  0
 47 52  1  0  0  0
 49 50  1  0  0  0
 49 51  1  0  0  0
 49168  1  0  0  0
 50169  1  0  0  0
 51170  1  0  0  0
 51171  1  0  0  0
 51172  1  0  0  0
 52 53  1  0  0  0
 52173  1  0  0  0
 53 54  1  0  0  0
 53 56  1  0  0  0
 53174  1  0  0  0
 54 55  2  0  0  0
 54 57  1  0  0  0
 56175  1  0  0  0
 56176  1  0  0  0
 56177  1  0  0  0
 57 58  1  0  0  0
 57178  1  0  0  0
 58 59  1  0  0  0
 58 61  1  0  0  0
 58179  1  0  0  0
 59 60  2  0  0  0
 59 68  1  0  0  0
 61 62  1  0  0  0
 61180  1  0  0  0
 61181  1  0  0  0
 62 63  1  0  0  0
 62182  1  0  0  0
 62183  1  0  0  0
 63 64  1  0  0  0
 63184  1  0  0  0
 63185  1  0  0  0
 64 65  1  0  0  0
 64186  1  0  0  0
 65 66  2  0  0  0
 65 67  1  0  0  0
 66187  1  0  0  0
 67188  1  0  0  0
 67189  1  0  0  0
 68 69  1  0  0  0
 68190  1  0  0  0
 69 70  1  0  0  0
 69 72  1  0  0  0
 69191  1  0  0  0
 70 71  2  0  0  0
 70 77  1  0  0  0
 72 73  1  0  0  0
 72192  1  0  0  0
 72193  1  0  0  0
 73 74  1  0  0  0
 73194  1  0  0  0
 73195  1  0  0  0
 74 75  1  0  0  0
 74196  1  0  0  0
 74197  1  0  0  0
 75 76  1  0  0  0
 75198  1  0  0  0
 75199  1  0  0  0
 76200  1  0  0  0
 76201  1  0  0  0
 76202  1  0  0  0
 77 78  1  0  0  0
 77203  1  0  0  0
 78 79  1  0  0  0
 78 81  1  0  0  0
 78204  1  0  0  0
 79 80  2  0  0  0
 79 83  1  0  0  0
 81 82  1  0  0  0
 81205  1  0  0  0
 81206  1  0  0  0
 82207  1  0  0  0
 83 84  1  0  0  0
 83208  1  0  0  0
 84 85  1  0  0  0
 84 87  1  0  0  0
 84209  1  0  0  0
 85 86  2  0  0  0
 85 90  1  0  0  0
 87 88  1  0  0  0
 87 89  1  0  0  0
 87210  1  0  0  0
 88211  1  0  0  0
 89212  1  0  0  0
 89213  1  0  0  0
 89214  1  0  0  0
 90 91  1  0  0  0
 90215  1  0  0  0
 91 92  1  0  0  0
 91216  1  0  0  0
 91217  1  0  0  0
 92 93  2  0  0  0
 92 94  1  0  0  0
 94 95  1  0  0  0
 94218  1  0  0  0
 95 96  1  0  0  0
 95219  1  0  0  0
 95220  1  0  0  0
 96 97  2  0  0  0
 96 98  1  0  0  0
 98 99  1  0  0  0
 98221  1  0  0  0
 99100  1  0  0  0
 99102  1  0  0  0
 99222  1  0  0  0
100101  2  0  0  0
100107  1  0  0  0
102103  1  0  0  0
102223  1  0  0  0
102224  1  0  0  0
103104  1  0  0  0
103225  1  0  0  0
103226  1  0  0  0
104105  1  0  0  0
104227  1  0  0  0
104228  1  0  0  0
105106  1  0  0  0
105229  1  0  0  0
105230  1  0  0  0
106231  1  0  0  0
106232  1  0  0  0
106233  1  0  0  0
107108  1  0  0  0
107234  1  0  0  0
108109  1  0  0  0
108111  1  0  0  0
108235  1  0  0  0
109110  1  0  0  0
109112  2  0  0  0
110236  1  0  0  0
111237  1  0  0  0
111238  1  0  0  0
111239  1  0  0  0
M  CHG  4   1   1  30   1  76   1 106   1
M  END
> <s_m_source_file>
../2fuu_ligand.sdf

> <i_m_source_file_index>
1

> <s_epik_input>
W0hdL049QyhbTkgyXSlcW05IXVtDSDJdW0NIMl1bQ0gyXVtDQEhdKFtOSF1DKD1PKVtDQEBIXShbTkgzK10pW0NIM10pQyg9TylbTkhdW0NAQEhdKFtDQEhdKFtPSF0pW0NIM10pQyg9TylbTkhdW0NAQEhdKFtDSDJdW0NIMl1bQ0gyXVtDSDJdW04rXShbQ0gzXSkoW0NIM10pW0NIM10pQyg9TylbTkhdW0NAQEhdKFtDSDJdW0NIMl1DKD1PKVtOSDJdKUMoPU8pW05IXVtDQEBIXShbQ0BIXShbT0hdKVtDSDNdKUMoPU8pW05IXVtDQEBIXShbQ0gzXSlDKD1PKVtOSF1bQ0BASF0oW0NIMl1bQ0gyXVtDSDJdW05IXS9DKD1OXFtIXSlbTkgyXSlDKD1PKVtOSF1bQ0BASF0oW0NIMl1bQ0gyXVtDSDJdW0NIMl1bTkgzK10pQyg9TylbTkhdW0NAQEhdKFtDSDJdW09IXSlDKD1PKVtOSF1bQ0BASF0oW0NASF0oW09IXSlbQ0gzXSlDKD1PKVtOSF1bQ0gyXUMoPU8pW05IXVtDSDJdQyg9TylbTkhdW0NASF0oQyg9TylbTkhdW0NAQEhdKFtDSDNdKUMoPU8pW09IXSlbQ0gyXVtDSDJdW0NIMl1bQ0gyXVtOSDMrXQ==

> <s_epik_cmdline>
J2VwaWtfYXBwJywgJy1pbWFlJywgJ2xpZ2FuZF9wcm8ubWFlJywgJy1vbWFlJywgJ2xpZ2FuZF9wcmVwLm1hZScsICctbXMnLCAnMScsICctcGgnLCAnNycsICctcGh0JywgJzAuNScsICctbnQn

> <s_epik_pKa_notes>
Molecule size exceeds maximum supported for generating protonation states

> <s_epik_Chemistry_Notes>
This compound has an imine and may undergo hydrolysis.

$$$$
