2fv5_ligand
                    3D
 Schrodinger Suite 2020-3.
 59 62  0  0  1  0            999 V2000
   12.1820    3.9980   31.8670 C   0  0  0  0  0  0
   13.4570    4.4610   31.4350 C   0  0  0  0  0  0
   13.5850    5.7120   30.7660 C   0  0  0  0  0  0
   12.4340    6.5180   30.5220 C   0  0  0  0  0  0
   11.1420    6.0780   30.9410 C   0  0  0  0  0  0
   11.0230    4.7940   31.6330 C   0  0  0  0  0  0
    9.7540    4.3720   32.0370 N   0  0  0  0  0  0
    7.3200    4.6240   32.2720 C   0  0  0  0  0  0
    8.6270    5.1200   31.8210 C   0  0  0  0  0  0
    8.7060    6.3740   31.1540 C   0  0  0  0  0  0
    9.9750    6.8730   30.7080 C   0  0  0  0  0  0
   10.0960    8.2300   29.9750 C   0  0  0  0  0  0
    8.2760    8.3720   28.3810 C   0  0  0  0  0  0
    8.8120    8.7940   29.6180 O   0  0  0  0  0  0
    6.9500    8.7630   28.0490 C   0  0  0  0  0  0
    6.3630    8.3480   26.8210 C   0  0  0  0  0  0
    7.1000    7.5410   25.9000 C   0  0  0  0  0  0
    8.4290    7.1440   26.2290 C   0  0  0  0  0  0
    9.0150    7.5610   27.4560 C   0  0  0  0  0  0
    7.4850    7.2440   23.4020 C   0  0  0  0  0  0
    6.4720    7.1260   24.5820 C   0  0  1  0  0  0
    5.8210    5.7640   24.7020 C   0  0  0  0  0  0
    5.3720    8.1150   24.2160 C   0  0  0  0  0  0
    4.2370    8.1200   24.6690 O   0  0  0  0  0  0
    7.0480    8.4760   22.5840 C   0  0  0  0  0  0
    5.3680   10.2910   23.1050 C   0  0  1  0  0  0
    6.3540   11.2770   23.6950 C   0  0  0  0  0  0
    5.7890   12.2200   24.4480 N   0  0  0  0  0  0
    6.5980   13.1710   25.0440 O   0  0  0  0  0  0
    7.5600   11.1720   23.4830 O   0  0  0  0  0  0
    5.1470   10.5480   21.6170 C   0  0  0  0  0  0
    5.8710    8.9460   23.2910 N   0  0  0  0  0  0
   12.0924    3.0378   32.3751 H   0  0  0  0  0  0
   14.3430    3.8529   31.6178 H   0  0  0  0  0  0
   14.5667    6.0547   30.4392 H   0  0  0  0  0  0
   12.5413    7.4756   30.0126 H   0  0  0  0  0  0
    7.4478    3.6481   32.7633 H   0  0  0  0  0  0
    6.6509    4.5137   31.4059 H   0  0  0  0  0  0
    6.8826    5.3388   32.9846 H   0  0  0  0  0  0
    7.8011    6.9566   30.9815 H   0  0  0  0  0  0
   10.6104    8.9532   30.6249 H   0  0  0  0  0  0
   10.6723    8.0958   29.0477 H   0  0  0  0  0  0
    6.3796    9.3844   28.7393 H   0  0  0  0  0  0
    5.3430    8.6480   26.5808 H   0  0  0  0  0  0
    8.9970    6.5199   25.5391 H   0  0  0  0  0  0
   10.0352    7.2617   27.6961 H   0  0  0  0  0  0
    8.5011    7.3744   23.8027 H   0  0  0  0  0  0
    7.4459    6.3293   22.7923 H   0  0  0  0  0  0
    6.5826    5.0156   24.9664 H   0  0  0  0  0  0
    5.3584    5.4929   23.7416 H   0  0  0  0  0  0
    5.0492    5.7943   25.4852 H   0  0  0  0  0  0
    7.8593    9.2188   22.5782 H   0  0  0  0  0  0
    6.8237    8.1699   21.5515 H   0  0  0  0  0  0
    4.4112   10.3680   23.6422 H   0  0  0  0  0  0
    4.7000   12.2512   24.5997 H   0  0  0  0  0  0
    6.1522   13.9583   25.6696 H   0  0  0  0  0  0
    4.7648   11.5695   21.4742 H   0  0  0  0  0  0
    4.4167    9.8251   21.2246 H   0  0  0  0  0  0
    6.1002   10.4346   21.0798 H   0  0  0  0  0  0
  1  2  2  0  0  0
  1  6  1  0  0  0
  1 33  1  0  0  0
  2  3  1  0  0  0
  2 34  1  0  0  0
  3  4  2  0  0  0
  3 35  1  0  0  0
  4  5  1  0  0  0
  4 36  1  0  0  0
  5  6  2  0  0  0
  5 11  1  0  0  0
  6  7  1  0  0  0
  7  9  2  0  0  0
  8  9  1  0  0  0
  8 37  1  0  0  0
  8 38  1  0  0  0
  8 39  1  0  0  0
  9 10  1  0  0  0
 10 11  2  0  0  0
 10 40  1  0  0  0
 11 12  1  0  0  0
 12 14  1  0  0  0
 12 41  1  0  0  0
 12 42  1  0  0  0
 13 14  1  0  0  0
 13 15  2  0  0  0
 13 19  1  0  0  0
 15 16  1  0  0  0
 15 43  1  0  0  0
 16 17  2  0  0  0
 16 44  1  0  0  0
 17 18  1  0  0  0
 17 21  1  0  0  0
 18 19  2  0  0  0
 18 45  1  0  0  0
 19 46  1  0  0  0
 20 21  1  0  0  0
 20 25  1  0  0  0
 20 47  1  0  0  0
 20 48  1  0  0  0
 21 22  1  0  0  0
 21 23  1  0  0  0
 22 49  1  0  0  0
 22 50  1  0  0  0
 22 51  1  0  0  0
 23 24  2  0  0  0
 23 32  1  0  0  0
 25 32  1  0  0  0
 25 52  1  0  0  0
 25 53  1  0  0  0
 26 27  1  0  0  0
 26 31  1  0  0  0
 26 32  1  0  0  0
 26 54  1  0  0  0
 27 28  1  0  0  0
 27 30  2  0  0  0
 28 29  1  0  0  0
 28 55  1  0  0  0
 29 56  1  0  0  0
 31 57  1  0  0  0
 31 58  1  0  0  0
 31 59  1  0  0  0
M  END
> <s_m_source_file>
../2fv5_ligand.sdf

> <i_m_source_file_index>
1

> <s_epik_input>
W2NIXTFbY0hdW2NIXVtjSF1jKGMxMiluYyhbQ0gzXSlbY0hdYzJbQ0gyXU9jM1tjSF1bY0hdYyhbY0hdW2NIXTMpW0NAXTQoW0NIM10pW0NIMl1bQ0gyXU4oQzQ9TylbQ0BIXShbQ0gzXSlDKD1PKVtOSF1bT0hd

> <s_epik_cmdline>
J2VwaWtfYXBwJywgJy1pbWFlJywgJ2xpZ2FuZF9wcm8ubWFlJywgJy1vbWFlJywgJ2xpZ2FuZF9wcmVwLm1hZScsICctbXMnLCAnMScsICctcGgnLCAnNycsICctcGh0JywgJzAuNScsICctbnQn

> <r_lp_tautomer_probability>
1

> <r_epik_Ionization_Penalty>
  0.0242

> <r_epik_Ionization_Penalty_Charging>
  0.0000

> <r_epik_Ionization_Penalty_Neutral>
  0.0242

> <r_epik_State_Penalty>
  0.0121

> <r_epik_Charging_Adjusted_Penalty>
0.0120641254435745

> <i_epik_Tot_Q>
0

> <i_epik_Tot_abs_Q>
0

> <s_epik_Chemistry_Notes>
This compound has a N-S or N-O group and may undergo hydrolysis at high or low pH.

$$$$
