2fv9_ligand
                    3D
 Schrodinger Suite 2020-3.
 66 66  0  0  1  0            999 V2000
   46.8220   28.7360   39.6060 C   0  0  1  0  0  0
   47.3620   28.0340   38.3430 C   0  0  2  0  0  0
   47.5920   29.0540   37.2270 C   0  0  0  0  0  0
   48.4130   28.4900   36.0770 C   0  0  0  0  0  0
   47.1640   31.0380   40.1700 C   0  0  0  0  0  0
   46.6160   27.6990   40.7140 C   0  0  0  0  0  0
   45.0330   26.1340   41.6460 C   0  0  1  0  0  0
   44.1100   26.4530   42.8300 C   0  0  0  0  0  0
   49.2550   34.1450   39.3140 C   0  0  0  0  0  0
   48.2670   33.0140   39.1740 C   0  0  0  0  0  0
   44.3710   25.0810   40.7680 C   0  0  0  0  0  0
   46.3620   26.9550   37.9090 C   0  0  0  0  0  0
   47.7210   29.8260   39.9930 N   0  0  0  0  0  0
   47.5720   27.2580   41.3530 O   0  0  0  0  0  0
   44.7760   23.9020   40.8430 O   0  0  0  0  0  0
   49.7640   36.2780   39.7670 O   0  0  0  0  0  0
   44.8290   27.0700   44.0370 C   0  0  0  0  0  0
   46.0700   26.2600   44.4160 C   0  0  0  0  0  0
   43.8840   27.1450   45.2400 C   0  0  0  0  0  0
   48.7580   35.3740   39.5170 N   0  0  0  0  0  0
   50.4620   33.9280   39.2410 O   0  0  0  0  0  0
   48.1640   32.1600   40.4390 C   0  0  1  0  0  0
   47.7340   32.9890   41.6620 C   0  0  0  0  0  0
   45.9630   31.2790   40.1090 O   0  0  0  0  0  0
   45.3280   27.3570   40.9080 N   0  0  0  0  0  0
   43.4500   25.4420   40.0020 O   0  5  0  0  0  0
   47.8720   32.1800   42.9370 C   0  0  0  0  0  0
   49.0780   32.2360   43.6910 C   0  0  0  0  0  0
   49.1970   31.5090   44.9110 C   0  0  0  0  0  0
   48.1080   30.7170   45.3760 C   0  0  0  0  0  0
   46.9120   30.6330   44.6100 C   0  0  0  0  0  0
   46.7920   31.3650   43.3900 C   0  0  0  0  0  0
   45.8618   29.2414   39.4253 H   0  0  0  0  0  0
   48.3309   27.5584   38.5553 H   0  0  0  0  0  0
   46.6224   29.3787   36.8215 H   0  0  0  0  0  0
   48.1305   29.9241   37.6307 H   0  0  0  0  0  0
   48.5461   29.2644   35.3072 H   0  0  0  0  0  0
   47.8892   27.6263   35.6416 H   0  0  0  0  0  0
   49.3973   28.1716   36.4508 H   0  0  0  0  0  0
   46.0146   25.7619   41.9747 H   0  0  0  0  0  0
   43.3393   27.1702   42.5112 H   0  0  0  0  0  0
   43.6280   25.5278   43.1788 H   0  0  0  0  0  0
   47.2684   33.4236   38.9619 H   0  0  0  0  0  0
   48.5767   32.3567   38.3481 H   0  0  0  0  0  0
   46.2173   26.2376   38.7302 H   0  0  0  0  0  0
   46.7519   26.4277   37.0259 H   0  0  0  0  0  0
   45.3997   27.4260   37.6596 H   0  0  0  0  0  0
   48.7957   29.6320   40.1250 H   0  0  0  0  0  0
   49.5203   37.3341   39.9549 H   0  0  0  0  0  0
   45.1465   28.0849   43.7555 H   0  0  0  0  0  0
   46.7498   26.2052   43.5529 H   0  0  0  0  0  0
   45.7687   25.2439   44.7106 H   0  0  0  0  0  0
   46.5839   26.7484   45.2571 H   0  0  0  0  0  0
   42.9910   27.7273   44.9690 H   0  0  0  0  0  0
   44.3987   27.6331   46.0807 H   0  0  0  0  0  0
   43.5836   26.1285   45.5342 H   0  0  0  0  0  0
   47.7097   35.7071   39.5050 H   0  0  0  0  0  0
   49.1544   31.7413   40.6711 H   0  0  0  0  0  0
   48.3687   33.8840   41.7398 H   0  0  0  0  0  0
   46.6832   33.2935   41.5475 H   0  0  0  0  0  0
   44.5063   27.9787   40.5229 H   0  0  0  0  0  0
   49.9140   32.8374   43.3338 H   0  0  0  0  0  0
   50.1205   31.5589   45.4878 H   0  0  0  0  0  0
   48.1910   30.1755   46.3183 H   0  0  0  0  0  0
   46.0870   30.0096   44.9547 H   0  0  0  0  0  0
   45.8749   31.3012   42.8044 H   0  0  0  0  0  0
  1  2  1  0  0  0
  1  6  1  0  0  0
  1 13  1  0  0  0
  1 33  1  0  0  0
  2  3  1  0  0  0
  2 12  1  0  0  0
  2 34  1  0  0  0
  3  4  1  0  0  0
  3 35  1  0  0  0
  3 36  1  0  0  0
  4 37  1  0  0  0
  4 38  1  0  0  0
  4 39  1  0  0  0
  5 13  1  0  0  0
  5 22  1  0  0  0
  5 24  2  0  0  0
  6 14  2  0  0  0
  6 25  1  0  0  0
  7  8  1  0  0  0
  7 11  1  0  0  0
  7 25  1  0  0  0
  7 40  1  0  0  0
  8 17  1  0  0  0
  8 41  1  0  0  0
  8 42  1  0  0  0
  9 10  1  0  0  0
  9 20  1  0  0  0
  9 21  2  0  0  0
 10 22  1  0  0  0
 10 43  1  0  0  0
 10 44  1  0  0  0
 11 15  2  0  0  0
 11 26  1  0  0  0
 12 45  1  0  0  0
 12 46  1  0  0  0
 12 47  1  0  0  0
 13 48  1  0  0  0
 16 20  1  0  0  0
 16 49  1  0  0  0
 17 18  1  0  0  0
 17 19  1  0  0  0
 17 50  1  0  0  0
 18 51  1  0  0  0
 18 52  1  0  0  0
 18 53  1  0  0  0
 19 54  1  0  0  0
 19 55  1  0  0  0
 19 56  1  0  0  0
 20 57  1  0  0  0
 22 23  1  0  0  0
 22 58  1  0  0  0
 23 27  1  0  0  0
 23 59  1  0  0  0
 23 60  1  0  0  0
 25 61  1  0  0  0
 27 28  2  0  0  0
 27 32  1  0  0  0
 28 29  1  0  0  0
 28 62  1  0  0  0
 29 30  2  0  0  0
 29 63  1  0  0  0
 30 31  1  0  0  0
 30 64  1  0  0  0
 31 32  2  0  0  0
 31 65  1  0  0  0
 32 66  1  0  0  0
M  CHG  1  26  -1
M  END
> <s_m_source_file>
../2fv9_ligand.sdf

> <i_m_source_file_index>
1

> <s_epik_input>
W0NIM11bQ0hdKFtDSDNdKVtDSDJdW0NAQEhdKEMoPU8pW09IXSlbTkhdQyg9TylbQ0BIXShbQ0BASF0oW0NIM10pW0NIMl1bQ0gzXSlbTkhdQyg9TylbQ0BASF0oW0NIMl1DKD1PKVtOSF1bT0hdKVtDSDJdYzFbY0hdW2NIXVtjSF1bY0hdW2NIXTE=

> <s_epik_cmdline>
J2VwaWtfYXBwJywgJy1pbWFlJywgJ2xpZ2FuZF9wcm8ubWFlJywgJy1vbWFlJywgJ2xpZ2FuZF9wcmVwLm1hZScsICctbXMnLCAnMScsICctcGgnLCAnNycsICctcGh0JywgJzAuNScsICctbnQn

> <r_lp_tautomer_probability>
1

> <r_epik_Ionization_Penalty>
  0.0062

> <r_epik_Ionization_Penalty_Charging>
  0.0002

> <r_epik_Ionization_Penalty_Neutral>
  0.0060

> <r_epik_State_Penalty>
 -0.0000

> <r_epik_Charging_Adjusted_Penalty>
0.000200618789633876

> <i_epik_Tot_Q>
-1

> <i_epik_Tot_abs_Q>
1

> <s_epik_Chemistry_Notes>
This compound has a N-S or N-O group and may undergo hydrolysis at high or low pH.

$$$$
