2fvc_ligand
                    3D
 Schrodinger Suite 2020-3.
 49 52  0  0  1  0            999 V2000
    9.4220   43.8660   46.6730 C   0  0  0  0  0  0
    8.7810   42.7530   46.0700 C   0  0  0  0  0  0
    8.7180   42.6470   44.6610 C   0  0  0  0  0  0
    9.2970   43.6510   43.8480 C   0  0  0  0  0  0
    9.9400   44.7690   44.4500 C   0  0  0  0  0  0
    9.9920   44.8630   45.8540 C   0  0  0  0  0  0
   10.7820   46.2330   46.6650 S   0  0  0  0  0  0
   10.4200   46.1220   48.2460 N   0  0  0  0  0  0
    9.9560   44.9680   48.8020 C   0  0  0  0  0  0
    9.4990   43.9480   48.0190 N   0  0  0  0  0  0
    9.9960   44.7030   50.2850 C   0  0  0  0  0  0
   10.8600   45.4330   51.0770 C   0  0  0  0  0  0
   10.9310   45.1330   52.5230 C   0  0  0  0  0  0
   10.1030   44.0990   53.0960 C   0  0  0  0  0  0
    9.1890   43.3580   52.2830 N   0  0  0  0  0  0
    9.1170   43.6210   50.9090 C   0  0  0  0  0  0
   11.8400   45.8670   53.3400 C   0  0  0  0  0  0
   11.9540   45.6010   54.7130 C   0  0  0  0  0  0
   11.1620   44.5950   55.2880 C   0  0  0  0  0  0
   10.2470   43.8590   54.4980 C   0  0  0  0  0  0
   11.6860   46.4310   50.5940 O   0  0  0  0  0  0
    8.3730   43.0060   50.1480 O   0  5  0  0  0  0
    8.3170   42.2770   52.8790 C   0  0  0  0  0  0
    6.9650   42.6370   53.5720 C   0  0  0  0  0  0
    6.0320   43.5710   52.7610 C   0  0  0  0  0  0
    4.9230   44.1220   53.6690 C   0  0  0  0  0  0
   10.1890   47.4500   46.2130 O   0  0  0  0  0  0
   12.1910   46.0730   46.5170 O   0  0  0  0  0  0
    5.3930   42.8330   51.5650 C   0  0  0  0  0  0
    8.3361   41.9779   46.6940 H   0  0  0  0  0  0
    8.2233   41.7917   44.2008 H   0  0  0  0  0  0
    9.2504   43.5679   42.7622 H   0  0  0  0  0  0
   10.3881   45.5454   43.8299 H   0  0  0  0  0  0
   12.4557   46.6466   52.8913 H   0  0  0  0  0  0
   12.6513   46.1705   55.3275 H   0  0  0  0  0  0
   11.2524   44.3786   56.3525 H   0  0  0  0  0  0
    9.6365   43.0895   54.9705 H   0  0  0  0  0  0
    8.0238   41.5669   52.0918 H   0  0  0  0  0  0
    8.8764   41.7451   53.6627 H   0  0  0  0  0  0
    6.3945   41.7162   53.7633 H   0  0  0  0  0  0
    7.1661   43.1484   54.5249 H   0  0  0  0  0  0
    6.6372   44.4034   52.3726 H   0  0  0  0  0  0
    5.3755   44.6485   54.5223 H   0  0  0  0  0  0
    4.3040   43.2907   54.0375 H   0  0  0  0  0  0
    4.2951   44.8215   53.0977 H   0  0  0  0  0  0
    6.1853   42.4371   50.9127 H   0  0  0  0  0  0
    4.7647   43.5334   50.9952 H   0  0  0  0  0  0
    4.7737   42.0026   51.9350 H   0  0  0  0  0  0
    9.1616   43.1062   48.6415 H   0  0  0  0  0  0
  1  2  2  0  0  0
  1  6  1  0  0  0
  1 10  1  0  0  0
  2  3  1  0  0  0
  2 30  1  0  0  0
  3  4  2  0  0  0
  3 31  1  0  0  0
  4  5  1  0  0  0
  4 32  1  0  0  0
  5  6  2  0  0  0
  5 33  1  0  0  0
  6  7  1  0  0  0
  7  8  1  0  0  0
  7 27  2  0  0  0
  7 28  2  0  0  0
  8  9  2  0  0  0
  9 10  1  0  0  0
  9 11  1  0  0  0
 10 49  1  0  0  0
 11 12  1  0  0  0
 11 16  2  0  0  0
 12 13  1  0  0  0
 12 21  2  0  0  0
 13 14  1  0  0  0
 13 17  2  0  0  0
 14 15  1  0  0  0
 14 20  2  0  0  0
 15 16  1  0  0  0
 15 23  1  0  0  0
 16 22  1  0  0  0
 17 18  1  0  0  0
 17 34  1  0  0  0
 18 19  2  0  0  0
 18 35  1  0  0  0
 19 20  1  0  0  0
 19 36  1  0  0  0
 20 37  1  0  0  0
 23 24  1  0  0  0
 23 38  1  0  0  0
 23 39  1  0  0  0
 24 25  1  0  0  0
 24 40  1  0  0  0
 24 41  1  0  0  0
 25 26  1  0  0  0
 25 29  1  0  0  0
 25 42  1  0  0  0
 26 43  1  0  0  0
 26 44  1  0  0  0
 26 45  1  0  0  0
 29 46  1  0  0  0
 29 47  1  0  0  0
 29 48  1  0  0  0
M  CHG  1  22  -1
M  END
> <s_m_source_file>
../2fvc_ligand.sdf

> <i_m_source_file_index>
1

> <s_epik_input>
W2NIXTFbY0hdW2NIXVtjSF1jKGMxMilTKD1PKSg9TylbTkhdQyg9TjIpYyhjM1tPSF0pYyg9TyluKFtDSDJdW0NIMl1bQ0hdKFtDSDNdKVtDSDNdKWMoYzM0KVtjSF1bY0hdW2NIXVtjSF00

> <s_epik_cmdline>
J2VwaWtfYXBwJywgJy1pbWFlJywgJ2xpZ2FuZF9wcm8ubWFlJywgJy1vbWFlJywgJ2xpZ2FuZF9wcmVwLm1hZScsICctbXMnLCAnMScsICctcGgnLCAnNycsICctcGh0JywgJzAuNScsICctbnQn

> <r_epik_Ionization_Penalty>
  0.0307

> <r_epik_Ionization_Penalty_Charging>
  0.0025

> <r_epik_Ionization_Penalty_Neutral>
  0.0282

> <r_epik_State_Penalty>
  0.0232

> <r_epik_Charging_Adjusted_Penalty>
0.0256232759721808

> <i_epik_Tot_Q>
-1

> <i_epik_Tot_abs_Q>
1

> <s_epik_Chemistry_Notes>
This compound has an imine and may undergo hydrolysis.

$$$$
