2fw3_ligand
                    3D
 Schrodinger Suite 2020-3.
 73 72  0  0  1  0            999 V2000
   27.7370   10.0010   32.4040 O   0  5  0  0  0  0
   26.4760    9.9220   32.2400 C   0  0  0  0  0  0
   25.8540   10.7190   31.4910 O   0  0  0  0  0  0
   25.6900    8.8300   32.9560 C   0  0  0  0  0  0
   24.1790    9.1310   33.1180 C   0  0  2  0  0  0
   23.8600   10.2710   34.1080 C   0  0  0  0  0  0
   22.5080   10.9210   33.9700 N   0  3  0  0  0  0
   21.3620   10.0350   34.2790 C   0  0  0  0  0  0
   22.2860   11.5170   32.6320 C   0  0  0  0  0  0
   22.4240   11.9880   34.9730 C   0  0  0  0  0  0
   23.5840    7.9080   33.6690 N   0  0  0  0  0  0
   22.8390    7.1140   32.8520 C   0  0  0  0  0  0
   22.6920    7.4560   31.6740 O   0  0  0  0  0  0
   22.2500    5.9720   33.3090 N   0  0  0  0  0  0
   21.4280    5.0230   32.5590 C   0  0  0  0  0  0
   20.4290    4.4580   33.5690 C   0  0  0  0  0  0
   18.9530    4.8750   33.4300 C   0  0  0  0  0  0
   18.4310    4.7530   32.0110 C   0  0  0  0  0  0
   16.9150    4.9990   31.9480 C   0  0  0  0  0  0
   16.3310    4.8820   30.5350 C   0  0  0  0  0  0
   15.4030    3.6680   30.4390 C   0  0  0  0  0  0
   14.2870    3.8630   29.4110 C   0  0  0  0  0  0
   13.1460    4.7240   29.9610 C   0  0  0  0  0  0
   11.8080    4.0280   29.7190 C   0  0  0  0  0  0
   10.5940    4.8650   30.1240 C   0  0  0  0  0  0
    9.3370    4.1860   29.5970 C   0  0  0  0  0  0
    8.0640    4.9930   29.8430 C   0  0  0  0  0  0
    7.0850    4.2570   30.7270 C   0  0  0  0  0  0
   25.7711    7.8896   32.3912 H   0  0  0  0  0  0
   26.0989    8.6869   33.9671 H   0  0  0  0  0  0
   23.7556    9.4033   32.1400 H   0  0  0  0  0  0
   23.9051    9.8860   35.1374 H   0  0  0  0  0  0
   24.5963   11.0792   33.9862 H   0  0  0  0  0  0
   21.3452    9.1958   33.5680 H   0  0  0  0  0  0
   20.4249   10.6051   34.1956 H   0  0  0  0  0  0
   21.4648    9.6461   35.3028 H   0  0  0  0  0  0
   22.3455   10.7301   31.8657 H   0  0  0  0  0  0
   23.0563   12.2777   32.4371 H   0  0  0  0  0  0
   21.2914   11.9857   32.5999 H   0  0  0  0  0  0
   22.5866   11.5633   35.9746 H   0  0  0  0  0  0
   21.4287   12.4544   34.9297 H   0  0  0  0  0  0
   23.1937   12.7464   34.7669 H   0  0  0  0  0  0
   23.7434    7.6465   34.7255 H   0  0  0  0  0  0
   22.4546    5.7992   34.3759 H   0  0  0  0  0  0
   20.9161    5.5489   31.7396 H   0  0  0  0  0  0
   22.0688    4.2317   32.1429 H   0  0  0  0  0  0
   20.4248    3.3598   33.5055 H   0  0  0  0  0  0
   20.7203    4.7655   34.5842 H   0  0  0  0  0  0
   18.3291    4.2344   34.0706 H   0  0  0  0  0  0
   18.8379    5.9247   33.7381 H   0  0  0  0  0  0
   18.9318    5.4944   31.3711 H   0  0  0  0  0  0
   18.6366    3.7416   31.6303 H   0  0  0  0  0  0
   16.3973    4.2614   32.5789 H   0  0  0  0  0  0
   16.6926    6.0130   32.3118 H   0  0  0  0  0  0
   15.7575    5.7905   30.2989 H   0  0  0  0  0  0
   17.1489    4.7656   29.8087 H   0  0  0  0  0  0
   15.9858    2.7836   30.1422 H   0  0  0  0  0  0
   14.9340    3.4867   31.4174 H   0  0  0  0  0  0
   14.6937    4.3605   28.5182 H   0  0  0  0  0  0
   13.8734    2.8836   29.1285 H   0  0  0  0  0  0
   13.2875    4.8735   31.0416 H   0  0  0  0  0  0
   13.1451    5.6996   29.4529 H   0  0  0  0  0  0
   11.7029    3.7976   28.6486 H   0  0  0  0  0  0
   11.7696    3.0950   30.3004 H   0  0  0  0  0  0
   10.5482    4.9378   31.2206 H   0  0  0  0  0  0
   10.6834    5.8731   29.6931 H   0  0  0  0  0  0
    9.4289    4.0364   28.5111 H   0  0  0  0  0  0
    9.2116    3.2117   30.0920 H   0  0  0  0  0  0
    8.3213    5.9429   30.3344 H   0  0  0  0  0  0
    7.5693    5.1993   28.8824 H   0  0  0  0  0  0
    6.1876    4.8758   30.8749 H   0  0  0  0  0  0
    7.5532    4.0515   31.7009 H   0  0  0  0  0  0
    6.8012    3.3078   30.2490 H   0  0  0  0  0  0
  1  2  1  0  0  0
  2  3  2  0  0  0
  2  4  1  0  0  0
  4  5  1  0  0  0
  4 29  1  0  0  0
  4 30  1  0  0  0
  5  6  1  0  0  0
  5 11  1  0  0  0
  5 31  1  0  0  0
  6  7  1  0  0  0
  6 32  1  0  0  0
  6 33  1  0  0  0
  7  8  1  0  0  0
  7  9  1  0  0  0
  7 10  1  0  0  0
  8 34  1  0  0  0
  8 35  1  0  0  0
  8 36  1  0  0  0
  9 37  1  0  0  0
  9 38  1  0  0  0
  9 39  1  0  0  0
 10 40  1  0  0  0
 10 41  1  0  0  0
 10 42  1  0  0  0
 11 12  1  0  0  0
 11 43  1  0  0  0
 12 13  2  0  0  0
 12 14  1  0  0  0
 14 15  1  0  0  0
 14 44  1  0  0  0
 15 16  1  0  0  0
 15 45  1  0  0  0
 15 46  1  0  0  0
 16 17  1  0  0  0
 16 47  1  0  0  0
 16 48  1  0  0  0
 17 18  1  0  0  0
 17 49  1  0  0  0
 17 50  1  0  0  0
 18 19  1  0  0  0
 18 51  1  0  0  0
 18 52  1  0  0  0
 19 20  1  0  0  0
 19 53  1  0  0  0
 19 54  1  0  0  0
 20 21  1  0  0  0
 20 55  1  0  0  0
 20 56  1  0  0  0
 21 22  1  0  0  0
 21 57  1  0  0  0
 21 58  1  0  0  0
 22 23  1  0  0  0
 22 59  1  0  0  0
 22 60  1  0  0  0
 23 24  1  0  0  0
 23 61  1  0  0  0
 23 62  1  0  0  0
 24 25  1  0  0  0
 24 63  1  0  0  0
 24 64  1  0  0  0
 25 26  1  0  0  0
 25 65  1  0  0  0
 25 66  1  0  0  0
 26 27  1  0  0  0
 26 67  1  0  0  0
 26 68  1  0  0  0
 27 28  1  0  0  0
 27 69  1  0  0  0
 27 70  1  0  0  0
 28 71  1  0  0  0
 28 72  1  0  0  0
 28 73  1  0  0  0
M  CHG  2   1  -1   7   1
M  END
> <s_m_source_file>
../2fw3_ligand.sdf

> <i_m_source_file_index>
1

> <s_epik_input>
W09IXUMoPU8pW0NIMl1bQ0BIXShbQ0gyXVtOK10oW0NIM10pKFtDSDNdKVtDSDNdKVtOSF1DKD1PKVtOSF1bQ0gyXVtDSDJdW0NIMl1bQ0gyXVtDSDJdW0NIMl1bQ0gyXVtDSDJdW0NIMl1bQ0gyXVtDSDJdW0NIMl1bQ0gyXVtDSDNd

> <s_epik_cmdline>
J2VwaWtfYXBwJywgJy1pbWFlJywgJ2xpZ2FuZF9wcm8ubWFlJywgJy1vbWFlJywgJ2xpZ2FuZF9wcmVwLm1hZScsICctbXMnLCAnMScsICctcGgnLCAnNycsICctcGh0JywgJzAuNScsICctbnQn

> <r_lp_tautomer_probability>
1

> <r_epik_Ionization_Penalty>
  0.0008

> <r_epik_Ionization_Penalty_Charging>
  0.0007

> <r_epik_Ionization_Penalty_Neutral>
  0.0000

> <r_epik_State_Penalty>
 -0.0000

> <r_epik_Charging_Adjusted_Penalty>
0.000721354124359288

> <i_epik_Tot_Q>
0

> <i_epik_Tot_abs_Q>
2

$$$$
