2fw6_ligand
                    3D
 Schrodinger Suite 2020-3.
 18 17  0  0  1  0            999 V2000
   34.6890   65.5750 -149.1450 C   0  0  0  0  0  0
   33.9320   66.4800 -149.5610 O   0  5  0  0  0  0
   34.7490   65.2390 -147.9440 O   0  0  0  0  0  0
   35.5570   64.8310 -150.1440 C   0  0  0  0  0  0
   36.1100   65.7420 -151.2450 C   0  0  0  0  0  0
   35.0110   66.3270 -151.9520 O   0  0  0  0  0  0
   36.9690   64.9060 -152.2020 C   0  0  0  0  0  0
   36.1370   64.0340 -153.1270 C   0  0  0  0  0  0
   36.1120   64.3180 -154.3430 O   0  0  0  0  0  0
   35.5020   63.0730 -152.6420 O   0  5  0  0  0  0
   36.9590   66.8610 -150.6430 C   0  0  0  0  0  0
   37.9510   66.5270 -149.9660 O   0  0  0  0  0  0
   36.6350   68.0530 -150.8640 O   0  5  0  0  0  0
   36.4126   64.3788 -149.6210 H   0  0  0  0  0  0
   34.9641   64.0410 -150.6281 H   0  0  0  0  0  0
   34.2784   65.6827 -152.4601 H   0  0  0  0  0  0
   37.5781   65.5752 -152.8275 H   0  0  0  0  0  0
   37.6293   64.2459 -151.6204 H   0  0  0  0  0  0
  1  2  1  0  0  0
  1  3  2  0  0  0
  1  4  1  0  0  0
  4  5  1  0  0  0
  4 14  1  0  0  0
  4 15  1  0  0  0
  5  6  1  0  0  0
  5  7  1  0  0  0
  5 11  1  0  0  0
  6 16  1  0  0  0
  7  8  1  0  0  0
  7 17  1  0  0  0
  7 18  1  0  0  0
  8  9  2  0  0  0
  8 10  1  0  0  0
 11 12  2  0  0  0
 11 13  1  0  0  0
M  CHG  3   2  -1  10  -1  13  -1
M  END
> <s_m_source_file>
../2fw6_ligand.sdf

> <i_m_source_file_index>
1

> <s_epik_input>
W09IXUMoPU8pW0NIMl1DKFtPSF0pKEMoPU8pW09IXSlbQ0gyXUMoPU8pW09IXQ==

> <s_epik_cmdline>
J2VwaWtfYXBwJywgJy1pbWFlJywgJ2xpZ2FuZF9wcm8ubWFlJywgJy1vbWFlJywgJ2xpZ2FuZF9wcmVwLm1hZScsICctbXMnLCAnMScsICctcGgnLCAnNycsICctcGh0JywgJzAuNScsICctbnQn

> <r_lp_tautomer_probability>
1

> <r_epik_Ionization_Penalty>
  0.0046

> <r_epik_Ionization_Penalty_Charging>
  0.0046

> <r_epik_Ionization_Penalty_Neutral>
  0.0000

> <r_epik_State_Penalty>
 -0.0000

> <r_epik_Charging_Adjusted_Penalty>
0.0045906918398983

> <i_epik_Tot_Q>
-3

> <i_epik_Tot_abs_Q>
3

$$$$
