2fwp_ligand
                    3D
 Schrodinger Suite 2020-3.
 18 17  0  0  1  0            999 V2000
   34.7920   65.6470 -149.0640 C   0  0  0  0  0  0
   34.0920   66.5850 -149.5070 O   0  5  0  0  0  0
   34.7590   65.2790 -147.8690 O   0  0  0  0  0  0
   35.7050   64.9020 -150.0250 C   0  0  0  0  0  0
   36.2340   65.7960 -151.1560 C   0  0  0  0  0  0
   35.1300   66.3790 -151.8590 O   0  0  0  0  0  0
   37.0720   64.9520 -152.1230 C   0  0  0  0  0  0
   36.2170   64.1020 -153.0530 C   0  0  0  0  0  0
   36.1480   64.4290 -154.2550 O   0  0  0  0  0  0
   35.6100   63.1170 -152.5840 O   0  5  0  0  0  0
   37.0990   66.9190 -150.5950 C   0  0  0  0  0  0
   38.0890   66.6060 -149.9060 O   0  0  0  0  0  0
   36.7770   68.0980 -150.8600 O   0  5  0  0  0  0
   36.5720   64.5070 -149.4752 H   0  0  0  0  0  0
   35.1523   64.0696 -150.4850 H   0  0  0  0  0  0
   34.3823   65.7326 -152.3418 H   0  0  0  0  0  0
   37.6911   65.6144 -152.7458 H   0  0  0  0  0  0
   37.7220   64.2746 -151.5497 H   0  0  0  0  0  0
  1  2  1  0  0  0
  1  3  2  0  0  0
  1  4  1  0  0  0
  4  5  1  0  0  0
  4 14  1  0  0  0
  4 15  1  0  0  0
  5  6  1  0  0  0
  5  7  1  0  0  0
  5 11  1  0  0  0
  6 16  1  0  0  0
  7  8  1  0  0  0
  7 17  1  0  0  0
  7 18  1  0  0  0
  8  9  2  0  0  0
  8 10  1  0  0  0
 11 12  2  0  0  0
 11 13  1  0  0  0
M  CHG  3   2  -1  10  -1  13  -1
M  END
> <s_m_source_file>
../2fwp_ligand.sdf

> <i_m_source_file_index>
1

> <s_epik_input>
W09IXUMoPU8pW0NIMl1DKFtPSF0pKEMoPU8pW09IXSlbQ0gyXUMoPU8pW09IXQ==

> <s_epik_cmdline>
J2VwaWtfYXBwJywgJy1pbWFlJywgJ2xpZ2FuZF9wcm8ubWFlJywgJy1vbWFlJywgJ2xpZ2FuZF9wcmVwLm1hZScsICctbXMnLCAnMScsICctcGgnLCAnNycsICctcGh0JywgJzAuNScsICctbnQn

> <r_lp_tautomer_probability>
1

> <r_epik_Ionization_Penalty>
  0.0046

> <r_epik_Ionization_Penalty_Charging>
  0.0046

> <r_epik_Ionization_Penalty_Neutral>
  0.0000

> <r_epik_State_Penalty>
 -0.0000

> <r_epik_Charging_Adjusted_Penalty>
0.0045906918398983

> <i_epik_Tot_Q>
-3

> <i_epik_Tot_abs_Q>
3

$$$$
