2fwy_ligand
                    3D
 Schrodinger Suite 2020-3.
 50 53  0  0  1  0            999 V2000
    5.3730    5.8070   26.8060 C   0  0  0  0  0  0
    3.9740    5.4860   27.3370 C   0  0  0  0  0  0
    3.9300    4.0400   27.8350 C   0  0  0  0  0  0
    2.9760    5.6620   26.2710 N   0  3  0  0  0  0
    2.5120    7.0570   26.2210 C   0  0  0  0  0  0
    3.5710    7.9560   25.5800 C   0  0  0  0  0  0
    3.3000    9.4330   25.8800 C   0  0  0  0  0  0
    2.0790    9.9150   25.2200 N   0  0  0  0  0  0
    0.8610    9.9490   25.7530 C   0  0  0  0  0  0
    0.3330    9.5220   26.9070 N   0  0  0  0  0  0
   -0.9500    9.7050   27.1660 C   0  0  0  0  0  0
   -1.7520   10.3100   26.3070 N   0  0  0  0  0  0
   -1.2920   10.7590   25.1310 C   0  0  0  0  0  0
   -2.1070   11.3640   24.2710 N   0  0  0  0  0  0
    0.0500   10.5850   24.8190 C   0  0  0  0  0  0
    0.7950   10.9010   23.7640 N   0  0  0  0  0  0
    2.0320   10.4820   24.0180 C   0  0  0  0  0  0
    3.3930   10.6440   22.9300 S   0  0  0  0  0  0
    4.3230   11.8880   23.7360 C   0  0  0  0  0  0
    3.6620   12.9870   24.2740 C   0  0  0  0  0  0
    4.3840   14.0110   24.8770 C   0  0  0  0  0  0
    4.0040   15.1810   25.4580 O   0  0  0  0  0  0
    5.1620   16.0040   25.2600 C   0  0  0  0  0  0
    6.2220   15.0760   25.5300 O   0  0  0  0  0  0
    5.7720   13.9370   24.9370 C   0  0  0  0  0  0
    6.4310   12.8380   24.4010 C   0  0  0  0  0  0
    5.7110   11.8090   23.8020 C   0  0  0  0  0  0
    6.6380   10.2970   23.1340 Br  0  0  0  0  0  0
    6.1105    5.6721   27.6109 H   0  0  0  0  0  0
    5.4013    6.8486   26.4535 H   0  0  0  0  0  0
    5.6127    5.1310   25.9720 H   0  0  0  0  0  0
    3.7114    6.1841   28.1455 H   0  0  0  0  0  0
    4.6752    3.9041   28.6326 H   0  0  0  0  0  0
    4.1561    3.3583   27.0019 H   0  0  0  0  0  0
    2.9270    3.8181   28.2285 H   0  0  0  0  0  0
    3.4253    5.4011   25.3014 H   0  0  0  0  0  0
    2.1139    5.0065   26.4639 H   0  0  0  0  0  0
    1.5887    7.1152   25.6260 H   0  0  0  0  0  0
    2.3132    7.4141   27.2422 H   0  0  0  0  0  0
    4.5631    7.6940   25.9765 H   0  0  0  0  0  0
    3.5624    7.8125   24.4894 H   0  0  0  0  0  0
    3.1807    9.5709   26.9648 H   0  0  0  0  0  0
    4.1450   10.0406   25.5239 H   0  0  0  0  0  0
   -1.3571    9.3480   28.1120 H   0  0  0  0  0  0
   -3.1693   11.4997   24.5223 H   0  0  0  0  0  0
   -1.7186   11.7286   23.3086 H   0  0  0  0  0  0
    2.5748   13.0458   24.2228 H   0  0  0  0  0  0
    5.1693   16.3845   24.2279 H   0  0  0  0  0  0
    5.1350   16.8500   25.9625 H   0  0  0  0  0  0
    7.5184   12.7814   24.4499 H   0  0  0  0  0  0
  1  2  1  0  0  0
  1 29  1  0  0  0
  1 30  1  0  0  0
  1 31  1  0  0  0
  2  3  1  0  0  0
  2  4  1  0  0  0
  2 32  1  0  0  0
  3 33  1  0  0  0
  3 34  1  0  0  0
  3 35  1  0  0  0
  4  5  1  0  0  0
  4 36  1  0  0  0
  4 37  1  0  0  0
  5  6  1  0  0  0
  5 38  1  0  0  0
  5 39  1  0  0  0
  6  7  1  0  0  0
  6 40  1  0  0  0
  6 41  1  0  0  0
  7  8  1  0  0  0
  7 42  1  0  0  0
  7 43  1  0  0  0
  8  9  1  0  0  0
  8 17  1  0  0  0
  9 10  1  0  0  0
  9 15  2  0  0  0
 10 11  2  0  0  0
 11 12  1  0  0  0
 11 44  1  0  0  0
 12 13  2  0  0  0
 13 14  1  0  0  0
 13 15  1  0  0  0
 14 45  1  0  0  0
 14 46  1  0  0  0
 15 16  1  0  0  0
 16 17  2  0  0  0
 17 18  1  0  0  0
 18 19  1  0  0  0
 19 20  2  0  0  0
 19 27  1  0  0  0
 20 21  1  0  0  0
 20 47  1  0  0  0
 21 22  1  0  0  0
 21 25  2  0  0  0
 22 23  1  0  0  0
 23 24  1  0  0  0
 23 48  1  0  0  0
 23 49  1  0  0  0
 24 25  1  0  0  0
 25 26  1  0  0  0
 26 27  2  0  0  0
 26 50  1  0  0  0
 27 28  1  0  0  0
M  CHG  1   4   1
M  END
> <s_m_source_file>
../2fwy_ligand.sdf

> <i_m_source_file_index>
1

> <s_epik_input>
W0NIM11bQ0hdKFtDSDNdKVtOSDIrXVtDSDJdW0NIMl1bQ0gyXW4xYyhuYyhjMTIpYyhbTkgyXSluW2NIXW4yKVNjKFtjSF0zKWMoQnIpW2NIXWMoYzM0KU9bQ0gyXU80

> <s_epik_cmdline>
J2VwaWtfYXBwJywgJy1pbWFlJywgJ2xpZ2FuZF9wcm8ubWFlJywgJy1vbWFlJywgJ2xpZ2FuZF9wcmVwLm1hZScsICctbXMnLCAnMScsICctcGgnLCAnNycsICctcGh0JywgJzAuNScsICctbnQn

> <r_lp_tautomer_probability>
1

> <r_epik_Ionization_Penalty>
  0.0013

> <r_epik_Ionization_Penalty_Charging>
  0.0005

> <r_epik_Ionization_Penalty_Neutral>
  0.0008

> <r_epik_State_Penalty>
 -0.0000

> <r_epik_Charging_Adjusted_Penalty>
0.000476672402723717

> <i_epik_Tot_Q>
1

> <i_epik_Tot_abs_Q>
1

> <s_epik_Chemistry_Notes>
This compound contains an acetal/aminal-like group ( X-CH(R)-Y where X, Y are N, S, or O) that may be acid/base labile, releasing an aldehyde.

$$$$
