2fwz_ligand
                    3D
 Schrodinger Suite 2020-3.
 50 53  0  0  1  0            999 V2000
    2.3670    5.2300   28.4990 C   0  0  0  0  0  0
    1.8480    4.9660   27.0850 C   0  0  0  0  0  0
    0.3730    5.3590   26.9650 C   0  0  0  0  0  0
    2.6460    5.7280   26.1140 N   0  3  0  0  0  0
    2.4460    7.1690   26.3230 C   0  0  0  0  0  0
    3.5090    7.9660   25.5650 C   0  0  0  0  0  0
    3.3810    9.4550   25.8880 C   0  0  0  0  0  0
    2.1650   10.0230   25.2820 N   0  0  0  0  0  0
    0.9500   10.0700   25.8350 C   0  0  0  0  0  0
    0.4310    9.6260   26.9860 N   0  0  0  0  0  0
   -0.8470    9.8180   27.2610 C   0  0  0  0  0  0
   -1.6490   10.4480   26.4220 N   0  0  0  0  0  0
   -1.1930   10.9170   25.2500 C   0  0  0  0  0  0
   -2.0210   11.5340   24.4120 N   0  0  0  0  0  0
    0.1440   10.7340   24.9260 C   0  0  0  0  0  0
    0.8870   11.0630   23.8630 N   0  0  0  0  0  0
    2.1170   10.6170   24.1040 C   0  0  0  0  0  0
    3.4950   10.7990   23.0330 S   0  0  0  0  0  0
    4.3930   12.0430   23.8670 C   0  0  0  0  0  0
    3.7310   13.1550   24.3640 C   0  0  0  0  0  0
    4.4350   14.1620   25.0020 C   0  0  0  0  0  0
    4.0540   15.3480   25.5500 O   0  0  0  0  0  0
    5.2370   16.1460   25.4200 C   0  0  0  0  0  0
    6.2530   15.1930   25.7630 O   0  0  0  0  0  0
    5.8220   14.0610   25.1460 C   0  0  0  0  0  0
    6.4870   12.9460   24.6520 C   0  0  0  0  0  0
    5.7840   11.9360   24.0150 C   0  0  0  0  0  0
    6.8040   10.2360   23.3020 I   0  0  0  0  0  0
    1.7673    4.6581   29.2224 H   0  0  0  0  0  0
    2.2874    6.3037   28.7243 H   0  0  0  0  0  0
    3.4196    4.9181   28.5674 H   0  0  0  0  0  0
    1.9667    3.8997   26.8423 H   0  0  0  0  0  0
   -0.2195    4.7861   27.6935 H   0  0  0  0  0  0
    0.0164    5.1386   25.9480 H   0  0  0  0  0  0
    0.2625    6.4346   27.1673 H   0  0  0  0  0  0
    3.7112    5.4868   26.2452 H   0  0  0  0  0  0
    2.3330    5.4626   25.0934 H   0  0  0  0  0  0
    1.4501    7.4579   25.9561 H   0  0  0  0  0  0
    2.5220    7.3979   27.3962 H   0  0  0  0  0  0
    4.5093    7.6175   25.8615 H   0  0  0  0  0  0
    3.3753    7.8191   24.4831 H   0  0  0  0  0  0
    3.3284    9.5904   26.9784 H   0  0  0  0  0  0
    4.2561    9.9923   25.4936 H   0  0  0  0  0  0
   -1.2493    9.4472   28.2037 H   0  0  0  0  0  0
   -3.0779   11.6708   24.6843 H   0  0  0  0  0  0
   -1.6489   11.9075   23.4466 H   0  0  0  0  0  0
    2.6499   13.2370   24.2518 H   0  0  0  0  0  0
    5.3164   16.5186   24.3881 H   0  0  0  0  0  0
    5.1830   16.9976   26.1141 H   0  0  0  0  0  0
    7.5680   12.8651   24.7661 H   0  0  0  0  0  0
  1  2  1  0  0  0
  1 29  1  0  0  0
  1 30  1  0  0  0
  1 31  1  0  0  0
  2  3  1  0  0  0
  2  4  1  0  0  0
  2 32  1  0  0  0
  3 33  1  0  0  0
  3 34  1  0  0  0
  3 35  1  0  0  0
  4  5  1  0  0  0
  4 36  1  0  0  0
  4 37  1  0  0  0
  5  6  1  0  0  0
  5 38  1  0  0  0
  5 39  1  0  0  0
  6  7  1  0  0  0
  6 40  1  0  0  0
  6 41  1  0  0  0
  7  8  1  0  0  0
  7 42  1  0  0  0
  7 43  1  0  0  0
  8  9  1  0  0  0
  8 17  1  0  0  0
  9 10  1  0  0  0
  9 15  2  0  0  0
 10 11  2  0  0  0
 11 12  1  0  0  0
 11 44  1  0  0  0
 12 13  2  0  0  0
 13 14  1  0  0  0
 13 15  1  0  0  0
 14 45  1  0  0  0
 14 46  1  0  0  0
 15 16  1  0  0  0
 16 17  2  0  0  0
 17 18  1  0  0  0
 18 19  1  0  0  0
 19 20  2  0  0  0
 19 27  1  0  0  0
 20 21  1  0  0  0
 20 47  1  0  0  0
 21 22  1  0  0  0
 21 25  2  0  0  0
 22 23  1  0  0  0
 23 24  1  0  0  0
 23 48  1  0  0  0
 23 49  1  0  0  0
 24 25  1  0  0  0
 25 26  1  0  0  0
 26 27  2  0  0  0
 26 50  1  0  0  0
 27 28  1  0  0  0
M  CHG  1   4   1
M  END
> <s_m_source_file>
../2fwz_ligand.sdf

> <i_m_source_file_index>
1

> <s_epik_input>
W0NIM11bQ0hdKFtDSDNdKVtOSDIrXVtDSDJdW0NIMl1bQ0gyXW4xYyhuYyhjMTIpYyhbTkgyXSluW2NIXW4yKVNjKFtjSF0zKWMoSSlbY0hdYyhjMzQpT1tDSDJdTzQ=

> <s_epik_cmdline>
J2VwaWtfYXBwJywgJy1pbWFlJywgJ2xpZ2FuZF9wcm8ubWFlJywgJy1vbWFlJywgJ2xpZ2FuZF9wcmVwLm1hZScsICctbXMnLCAnMScsICctcGgnLCAnNycsICctcGh0JywgJzAuNScsICctbnQn

> <r_lp_tautomer_probability>
1

> <r_epik_Ionization_Penalty>
  0.0013

> <r_epik_Ionization_Penalty_Charging>
  0.0005

> <r_epik_Ionization_Penalty_Neutral>
  0.0008

> <r_epik_State_Penalty>
 -0.0000

> <r_epik_Charging_Adjusted_Penalty>
0.000476672402723717

> <i_epik_Tot_Q>
1

> <i_epik_Tot_abs_Q>
1

> <s_epik_Chemistry_Notes>
This compound contains an acetal/aminal-like group ( X-CH(R)-Y where X, Y are N, S, or O) that may be acid/base labile, releasing an aldehyde.

$$$$
