2fx6_ligand
                    3D
 Schrodinger Suite 2020-3.
 16 17  0  0  1  0            999 V2000
   44.4200   -2.3760   25.6810 N   0  0  0  0  0  0
   44.1210   -3.6080   25.3470 C   0  0  0  0  0  0
   44.1430   -2.2660   26.9430 C   0  0  0  0  0  0
   44.2820   -1.1670   27.7600 C   0  0  0  0  0  0
   43.9050   -1.3490   29.0980 C   0  0  0  0  0  0
   43.4110   -2.5950   29.5450 C   0  0  0  0  0  0
   43.2860   -3.7060   28.6680 C   0  0  0  0  0  0
   43.6700   -3.4780   27.3690 C   0  0  0  0  0  0
   43.6570   -4.3030   26.3630 N   0  0  0  0  0  0
   44.3670   -4.0970   24.1710 N   0  0  0  0  0  0
   44.6687   -0.2223   27.3501 H   0  0  0  0  0  0
   43.9971   -0.5091   29.8024 H   0  0  0  0  0  0
   43.1117   -2.7231   30.5957 H   0  0  0  0  0  0
   42.9110   -4.6731   29.0031 H   0  0  0  0  0  0
   44.1877   -5.1636   23.9703 H   0  0  0  0  0  0
   44.8205   -1.6833   24.9262 H   0  0  0  0  0  0
  1  2  1  0  0  0
  1  3  1  0  0  0
  1 16  1  0  0  0
  2  9  1  0  0  0
  2 10  2  0  0  0
  3  4  2  0  0  0
  3  8  1  0  0  0
  4  5  1  0  0  0
  4 11  1  0  0  0
  5  6  2  0  0  0
  5 12  1  0  0  0
  6  7  1  0  0  0
  6 13  1  0  0  0
  7  8  1  0  0  0
  7 14  1  0  0  0
  8  9  2  0  0  0
 10 15  1  0  0  0
M  END
> <s_m_source_file>
../2fx6_ligand.sdf

> <i_m_source_file_index>
1

> <s_epik_input>
TjE9QyhbTkgyXSlOPUMoQzE9MilbQ0gyXVtDSF09W0NIXVtDSF0y

> <s_epik_cmdline>
J2VwaWtfYXBwJywgJy1pbWFlJywgJ2xpZ2FuZF9wcm8ubWFlJywgJy1vbWFlJywgJ2xpZ2FuZF9wcmVwLm1hZScsICctbXMnLCAnMScsICctcGgnLCAnNycsICctcGh0JywgJzAuNScsICctbnQn

> <r_epik_Ionization_Penalty>
  5.0275

> <r_epik_Ionization_Penalty_Charging>
  0.0000

> <r_epik_Ionization_Penalty_Neutral>
  5.0275

> <r_epik_State_Penalty>
  0.4658

> <r_epik_Charging_Adjusted_Penalty>
0.465814513882409

> <i_epik_Tot_Q>
0

> <i_epik_Tot_abs_Q>
0

> <s_epik_Chemistry_Notes>
This compound has an imine and may undergo hydrolysis.

$$$$
