2fx7_ligand
                    3D
 Schrodinger Suite 2020-3.
314321  0  0  1  0            999 V2000
   49.5710  -11.8440   70.2610 N   0  3  0  0  0  0
   49.0560  -11.2630   68.9900 C   0  0  2  0  0  0
   48.4310   -9.8930   69.2430 C   0  0  0  0  0  0
   47.4540   -9.7670   69.9840 O   0  0  0  0  0  0
   48.0280  -12.2180   68.3730 C   0  0  0  0  0  0
   47.4740  -11.7130   67.0550 C   0  0  0  0  0  0
   47.9530  -10.7220   66.5040 O   0  0  0  0  0  0
   46.4630  -12.4030   66.5390 N   0  0  0  0  0  0
   49.0180   -8.8680   68.6320 N   0  0  0  0  0  0
   48.5470   -7.4910   68.7590 C   0  0  2  0  0  0
   47.0620   -7.3760   68.4180 C   0  0  0  0  0  0
   46.3420   -6.5700   69.0070 O   0  0  0  0  0  0
   49.3590   -6.5940   67.8210 C   0  0  0  0  0  0
   48.9910   -5.1310   67.8160 C   0  0  0  0  0  0
   49.4930   -4.1540   68.6310 C   0  0  0  0  0  0
   48.1060   -4.4700   66.9000 C   0  0  0  0  0  0
   48.9840   -2.9280   68.2720 N   0  0  0  0  0  0
   48.1310   -3.0930   67.2130 C   0  0  0  0  0  0
   47.2970   -4.9090   65.8420 C   0  0  0  0  0  0
   47.3780   -2.1480   66.5040 C   0  0  0  0  0  0
   46.5440   -3.9680   65.1370 C   0  0  0  0  0  0
   46.5930   -2.6040   65.4740 C   0  0  0  0  0  0
   46.6010   -8.1810   67.4650 N   0  0  0  0  0  0
   45.1990   -8.1280   67.0640 C   0  0  2  0  0  0
   44.2190   -8.6470   68.1200 C   0  0  0  0  0  0
   43.0090   -8.5790   67.9280 O   0  0  0  0  0  0
   44.9880   -8.8800   65.7400 C   0  0  0  0  0  0
   45.6170   -8.2010   64.5490 C   0  0  0  0  0  0
   46.9070   -8.5270   64.1380 C   0  0  0  0  0  0
   44.9210   -7.2190   63.8500 C   0  0  0  0  0  0
   47.4950   -7.8840   63.0520 C   0  0  0  0  0  0
   45.5000   -6.5680   62.7610 C   0  0  0  0  0  0
   46.7880   -6.8990   62.3600 C   0  0  0  0  0  0
   44.7330   -9.1580   69.2350 N   0  0  0  0  0  0
   43.8640   -9.6590   70.2980 C   0  0  2  0  0  0
   43.7760   -8.6930   71.4790 C   0  0  0  0  0  0
   42.9680   -8.8880   72.3840 O   0  0  0  0  0  0
   44.3530  -11.0210   70.8150 C   0  0  0  0  0  0
   44.1570  -12.1410   69.8100 C   0  0  0  0  0  0
   43.1160  -12.1470   69.1190 O   0  0  0  0  0  0
   45.0370  -13.0260   69.7250 O   0  0  0  0  0  0
   44.6010   -7.6510   71.4690 N   0  0  0  0  0  0
   44.6180   -6.6830   72.5650 C   0  0  2  0  0  0
   43.2900   -5.9750   72.8320 C   0  0  0  0  0  0
   42.8440   -5.8990   73.9810 O   0  0  0  0  0  0
   45.7210   -5.6190   72.3360 C   0  0  2  0  0  0
   47.0920   -6.3060   72.3330 C   0  0  0  0  0  0
   45.6640   -4.5410   73.4280 C   0  0  0  0  0  0
   48.2520   -5.3790   72.0550 C   0  0  0  0  0  0
   42.6480   -5.4600   71.7890 N   0  0  0  0  0  0
   41.3930   -4.7510   71.9900 C   0  0  2  0  0  0
   40.2810   -5.6370   72.5480 C   0  0  0  0  0  0
   39.3940   -5.1510   73.2490 O   0  0  0  0  0  0
   40.9150   -4.0760   70.6900 C   0  0  2  0  0  0
   40.8310   -5.0470   69.6430 O   0  0  0  0  0  0
   41.8840   -2.9640   70.2900 C   0  0  0  0  0  0
   40.3270   -6.9320   72.2470 N   0  0  0  0  0  0
   39.3150   -7.8490   72.7630 C   0  0  2  0  0  0
   39.4940   -7.9250   74.2750 C   0  0  0  0  0  0
   38.5280   -7.8720   75.0350 O   0  0  0  0  0  0
   39.4850   -9.2410   72.1530 C   0  0  0  0  0  0
   38.5190  -10.2520   72.7390 C   0  0  0  0  0  0
   38.9290  -11.2310   73.3630 O   0  0  0  0  0  0
   37.2270  -10.0160   72.5490 N   0  0  0  0  0  0
   40.7470   -8.0360   74.6980 N   0  0  0  0  0  0
   41.0830   -8.1140   76.1120 C   0  0  2  0  0  0
   40.6450   -6.8390   76.8320 C   0  0  0  0  0  0
   40.0630   -6.8980   77.9170 O   0  0  0  0  0  0
   42.5880   -8.3050   76.2700 C   0  0  0  0  0  0
   43.0160   -8.6590   77.6550 C   0  0  0  0  0  0
   42.9370   -9.8840   78.2510 C   0  0  0  0  0  0
   43.6310   -7.7870   78.6080 C   0  0  0  0  0  0
   43.4730   -9.8310   79.5160 N   0  0  0  0  0  0
   43.9070   -8.5540   79.7600 C   0  0  0  0  0  0
   43.9770   -6.4300   78.5990 C   0  0  0  0  0  0
   44.5180   -8.0100   80.8950 C   0  0  0  0  0  0
   44.5870   -5.8880   79.7280 C   0  0  0  0  0  0
   44.8510   -6.6800   80.8590 C   0  0  0  0  0  0
   40.9310   -5.6890   76.2240 N   0  0  0  0  0  0
   40.5620   -4.4000   76.7970 C   0  0  2  0  0  0
   39.0530   -4.3140   76.9860 C   0  0  0  0  0  0
   38.5710   -3.7960   77.9930 O   0  0  0  0  0  0
   41.0270   -3.2550   75.8890 C   0  0  0  0  0  0
   42.5360   -3.0240   75.7850 C   0  0  0  0  0  0
   42.8190   -1.8570   74.8400 C   0  0  0  0  0  0
   43.1000   -2.7350   77.1730 C   0  0  0  0  0  0
   38.3170   -4.8210   76.0040 N   0  0  0  0  0  0
   36.8610   -4.8140   76.0450 C   0  0  2  0  0  0
   36.3570   -5.5290   77.2980 C   0  0  0  0  0  0
   35.5070   -5.0110   78.0200 O   0  0  0  0  0  0
   36.3030   -5.5070   74.8010 C   0  0  0  0  0  0
   34.8260   -5.3680   74.6530 C   0  0  0  0  0  0
   34.1480   -4.2880   74.1670 C   0  0  0  0  0  0
   33.8360   -6.3360   75.0170 C   0  0  0  0  0  0
   32.7940   -4.5240   74.2040 N   0  0  0  0  0  0
   32.5750   -5.7730   74.7210 C   0  0  0  0  0  0
   33.8920   -7.6250   75.5640 C   0  0  0  0  0  0
   31.3760   -6.4570   74.9540 C   0  0  0  0  0  0
   32.6970   -8.3050   75.7970 C   0  0  0  0  0  0
   31.4570   -7.7180   75.4910 C   0  0  0  0  0  0
   36.8820   -6.7240   77.5470 N   0  0  0  0  0  0
   36.4780   -7.5000   78.7150 C   0  0  2  0  0  0
   36.8100   -6.7840   80.0170 C   0  0  0  0  0  0
   36.1290   -6.9650   81.0230 O   0  0  0  0  0  0
   37.1490   -8.8750   78.6990 C   0  0  0  0  0  0
   36.4330   -9.8970   77.8460 C   0  0  0  0  0  0
   35.1530  -10.3390   78.1830 C   0  0  0  0  0  0
   37.0360  -10.4320   76.7080 C   0  0  0  0  0  0
   34.4920  -11.2910   77.4080 C   0  0  0  0  0  0
   36.3830  -11.3840   75.9250 C   0  0  0  0  0  0
   35.1130  -11.8090   76.2820 C   0  0  0  0  0  0
   34.4680  -12.7590   75.5210 O   0  0  0  0  0  0
   37.8570   -5.9670   79.9930 N   0  0  0  0  0  0
   38.2740   -5.2250   81.1770 C   0  0  2  0  0  0
   37.2630   -4.1680   81.6030 C   0  0  0  0  0  0
   36.7390   -4.2170   82.7160 O   0  0  0  0  0  0
   39.6350   -4.5380   80.9510 C   0  0  2  0  0  0
   40.7560   -5.5610   81.1090 C   0  0  0  0  0  0
   39.8120   -3.3770   81.9200 C   0  0  0  0  0  0
   42.1180   -4.9390   81.1490 C   0  0  0  0  0  0
   37.0000   -3.2090   80.7230 N   0  0  0  0  0  0
   36.0590   -2.1420   81.0340 C   0  0  2  0  0  0
   34.6350   -2.6740   81.1570 C   0  0  0  0  0  0
   33.7290   -1.9550   81.5770 O   0  0  0  0  0  0
   36.1200   -1.0520   79.9610 C   0  0  0  0  0  0
   35.6660   -1.4950   78.5840 C   0  0  0  0  0  0
   35.8930   -0.3970   77.5530 C   0  0  0  0  0  0
   35.1570    0.8850   77.9200 C   0  0  0  0  0  0
   35.4200    1.9750   76.9380 N   0  3  0  0  0  0
   34.4460   -3.9370   80.7910 N   0  0  0  0  0  0
   33.1340   -4.5650   80.8710 C   0  0  2  0  0  0
   32.9500   -5.2500   82.2210 C   0  0  0  0  0  0
   31.8250   -5.4320   82.6840 O   0  0  0  0  0  0
   32.9620   -5.5900   79.7450 C   0  0  0  0  0  0
   31.6670   -6.3910   79.8270 C   0  0  0  0  0  0
   30.4400   -5.4930   79.7110 C   0  0  0  0  0  0
   30.2220   -5.0230   78.2810 C   0  0  0  0  0  0
   29.8480   -6.1580   77.3920 N   0  3  0  0  0  0
   34.0590   -5.6240   82.8500 N   0  0  0  0  0  0
   34.0090   -6.2940   84.1440 C   0  0  2  0  0  0
   34.0350   -5.3100   85.3090 C   0  0  0  0  0  0
   33.2480   -5.4330   86.2470 O   0  0  0  0  0  0
   35.1680   -7.2880   84.2650 C   0  0  0  0  0  0
   35.1130   -8.4020   83.2280 C   0  0  0  0  0  0
   36.2220   -9.4230   83.4160 C   0  0  0  0  0  0
   36.0560  -10.1840   84.7200 C   0  0  0  0  0  0
   37.0140  -11.3170   84.8270 N   0  3  0  0  0  0
   34.9390   -4.3380   85.2530 N   0  0  0  0  0  0
   35.0400   -3.3330   86.3080 C   0  0  2  0  0  0
   35.5410   -2.0010   85.7630 C   0  0  0  0  0  0
   35.8070   -1.9260   84.5440 O   0  0  0  0  0  0
   35.9730   -3.8120   87.4270 C   0  0  0  0  0  0
   35.4680   -5.0270   88.1870 C   0  0  0  0  0  0
   36.3870   -5.3890   89.3430 C   0  0  0  0  0  0
   35.7950   -6.5210   90.1650 C   0  0  0  0  0  0
   36.6370   -6.8650   91.3410 N   0  3  0  0  0  0
   35.6600   -1.0480   86.5630 O   0  0  0  0  0  0
   50.3089  -11.1594   70.7046 H   0  0  0  0  0  0
   50.0481  -12.8133   70.0542 H   0  0  0  0  0  0
   48.7364  -11.9884   70.9628 H   0  0  0  0  0  0
   49.9107  -11.1383   68.3088 H   0  0  0  0  0  0
   48.4997  -13.1942   68.1872 H   0  0  0  0  0  0
   47.1832  -12.3449   69.0660 H   0  0  0  0  0  0
   46.0696  -13.2824   67.0699 H   0  0  0  0  0  0
   46.0192  -12.0950   65.5808 H   0  0  0  0  0  0
   49.8958   -9.0938   68.0087 H   0  0  0  0  0  0
   48.6985   -7.2172   69.8136 H   0  0  0  0  0  0
   50.4221   -6.6389   68.0999 H   0  0  0  0  0  0
   49.2369   -6.9415   66.7845 H   0  0  0  0  0  0
   50.1953   -4.3228   69.4473 H   0  0  0  0  0  0
   47.2568   -5.9650   65.5750 H   0  0  0  0  0  0
   47.4140   -1.0893   66.7607 H   0  0  0  0  0  0
   45.9092   -4.2956   64.3137 H   0  0  0  0  0  0
   45.9945   -1.8927   64.9049 H   0  0  0  0  0  0
   47.2859   -8.8908   66.9780 H   0  0  0  0  0  0
   45.0267   -7.0470   66.9554 H   0  0  0  0  0  0
   45.4296   -9.8847   65.8146 H   0  0  0  0  0  0
   43.9107   -8.9672   65.5355 H   0  0  0  0  0  0
   47.4638   -9.2958   64.6737 H   0  0  0  0  0  0
   43.9093   -6.9551   64.1580 H   0  0  0  0  0  0
   48.5059   -8.1493   62.7425 H   0  0  0  0  0  0
   44.9422   -5.8001   62.2250 H   0  0  0  0  0  0
   47.2443   -6.3924   61.5096 H   0  0  0  0  0  0
   45.8259   -9.2010   69.3520 H   0  0  0  0  0  0
   42.8828   -9.7401   69.8074 H   0  0  0  0  0  0
   45.4272  -10.9619   71.0445 H   0  0  0  0  0  0
   43.7976  -11.2883   71.7261 H   0  0  0  0  0  0
   44.9210  -13.8497   69.0052 H   0  0  0  0  0  0
   45.2804   -7.5248   70.6131 H   0  0  0  0  0  0
   44.8151   -7.3378   73.4266 H   0  0  0  0  0  0
   45.5657   -5.1238   71.3661 H   0  0  0  0  0  0
   47.2749   -6.7638   73.3164 H   0  0  0  0  0  0
   47.1100   -7.0852   71.5568 H   0  0  0  0  0  0
   44.6753   -4.0590   73.4162 H   0  0  0  0  0  0
   46.4420   -3.7866   73.2394 H   0  0  0  0  0  0
   45.8339   -5.0052   74.4107 H   0  0  0  0  0  0
   49.1911   -5.9516   72.0716 H   0  0  0  0  0  0
   48.2872   -4.5945   72.8253 H   0  0  0  0  0  0
   48.1223   -4.9159   71.0657 H   0  0  0  0  0  0
   43.0624   -5.5682   70.7758 H   0  0  0  0  0  0
   41.6641   -4.0065   72.7531 H   0  0  0  0  0  0
   39.8959   -3.6767   70.7999 H   0  0  0  0  0  0
   40.1767   -5.9238   69.7573 H   0  0  0  0  0  0
   41.9438   -2.2212   71.0991 H   0  0  0  0  0  0
   41.5246   -2.4774   69.3713 H   0  0  0  0  0  0
   42.8810   -3.3931   70.1117 H   0  0  0  0  0  0
   41.1354   -7.3103   71.6041 H   0  0  0  0  0  0
   38.3289   -7.4498   72.4833 H   0  0  0  0  0  0
   39.3067   -9.1904   71.0687 H   0  0  0  0  0  0
   40.5075   -9.6009   72.3400 H   0  0  0  0  0  0
   36.9074   -9.1276   71.9845 H   0  0  0  0  0  0
   36.4757  -10.7087   72.9560 H   0  0  0  0  0  0
   41.5441   -8.0685   73.9407 H   0  0  0  0  0  0
   40.5374   -8.9813   76.5121 H   0  0  0  0  0  0
   42.9258   -9.1173   75.6096 H   0  0  0  0  0  0
   43.1063   -7.3732   75.9997 H   0  0  0  0  0  0
   42.5107  -10.7754   77.7908 H   0  0  0  0  0  0
   43.7730   -5.8102   77.7259 H   0  0  0  0  0  0
   44.7217   -8.6203   81.7749 H   0  0  0  0  0  0
   44.8638   -4.8338   79.7345 H   0  0  0  0  0  0
   45.3310   -6.2271   81.7265 H   0  0  0  0  0  0
   41.4618   -5.7313   75.2615 H   0  0  0  0  0  0
   41.0710   -4.3563   77.7712 H   0  0  0  0  0  0
   40.6835   -3.4400   74.8605 H   0  0  0  0  0  0
   40.6056   -2.3056   76.2511 H   0  0  0  0  0  0
   43.0228   -3.9247   75.3828 H   0  0  0  0  0  0
   42.4061   -2.0820   73.8456 H   0  0  0  0  0  0
   43.9055   -1.7051   74.7601 H   0  0  0  0  0  0
   42.3491   -0.9438   75.2341 H   0  0  0  0  0  0
   42.8876   -3.5842   77.8392 H   0  0  0  0  0  0
   42.6313   -1.8256   77.5772 H   0  0  0  0  0  0
   44.1877   -2.5869   77.1032 H   0  0  0  0  0  0
   38.8408   -5.2559   75.1400 H   0  0  0  0  0  0
   36.5660   -3.7546   76.0690 H   0  0  0  0  0  0
   36.7656   -5.0743   73.9017 H   0  0  0  0  0  0
   36.5288   -6.5825   74.8481 H   0  0  0  0  0  0
   34.6123   -3.3717   73.8025 H   0  0  0  0  0  0
   34.8501   -8.0867   75.8025 H   0  0  0  0  0  0
   30.4128   -6.0048   74.7176 H   0  0  0  0  0  0
   32.7250   -9.3078   76.2233 H   0  0  0  0  0  0
   30.5405   -8.2756   75.6841 H   0  0  0  0  0  0
   37.6346   -7.1263   76.8529 H   0  0  0  0  0  0
   35.3856   -7.5908   78.6234 H   0  0  0  0  0  0
   38.1709   -8.7797   78.3032 H   0  0  0  0  0  0
   37.1881   -9.2759   79.7226 H   0  0  0  0  0  0
   34.6616   -9.9331   79.0672 H   0  0  0  0  0  0
   38.0351  -10.1004   76.4254 H   0  0  0  0  0  0
   33.4927  -11.6261   77.6858 H   0  0  0  0  0  0
   36.8684  -11.7911   75.0380 H   0  0  0  0  0  0
   33.4600  -13.0977   75.8026 H   0  0  0  0  0  0
   38.4137   -5.8571   79.0507 H   0  0  0  0  0  0
   38.3264   -6.0089   81.9469 H   0  0  0  0  0  0
   39.6824   -4.1248   79.9327 H   0  0  0  0  0  0
   40.6158   -6.1165   82.0480 H   0  0  0  0  0  0
   40.7348   -6.2621   80.2616 H   0  0  0  0  0  0
   38.9914   -2.6572   81.7836 H   0  0  0  0  0  0
   40.7730   -2.8790   81.7239 H   0  0  0  0  0  0
   39.7994   -3.7561   82.9526 H   0  0  0  0  0  0
   42.8775   -5.7264   81.2637 H   0  0  0  0  0  0
   42.1789   -4.2441   81.9995 H   0  0  0  0  0  0
   42.2978   -4.3897   80.2131 H   0  0  0  0  0  0
   37.5056   -3.2291   79.7463 H   0  0  0  0  0  0
   36.3850   -1.7488   82.0082 H   0  0  0  0  0  0
   35.4735   -0.2118   80.2547 H   0  0  0  0  0  0
   37.1562   -0.6981   79.8563 H   0  0  0  0  0  0
   36.2341   -2.3865   78.2798 H   0  0  0  0  0  0
   34.5930   -1.7358   78.6115 H   0  0  0  0  0  0
   36.9677   -0.1715   77.4881 H   0  0  0  0  0  0
   35.5293   -0.7349   76.5714 H   0  0  0  0  0  0
   34.0741    0.6930   77.9408 H   0  0  0  0  0  0
   35.4879    1.2267   78.9119 H   0  0  0  0  0  0
   34.8717    2.8798   77.2390 H   0  0  0  0  0  0
   35.0843    1.6579   75.9396 H   0  0  0  0  0  0
   36.4981    2.1916   76.9107 H   0  0  0  0  0  0
   35.3086   -4.5105   80.4208 H   0  0  0  0  0  0
   32.4093   -3.7447   80.7618 H   0  0  0  0  0  0
   32.9621   -5.0721   78.7746 H   0  0  0  0  0  0
   33.7920   -6.3113   79.7758 H   0  0  0  0  0  0
   31.6374   -7.1250   79.0082 H   0  0  0  0  0  0
   31.6214   -6.9165   80.7923 H   0  0  0  0  0  0
   29.5471   -6.0488   80.0333 H   0  0  0  0  0  0
   30.5716   -4.6079   80.3507 H   0  0  0  0  0  0
   29.4124   -4.2787   78.2591 H   0  0  0  0  0  0
   31.1482   -4.5687   77.8991 H   0  0  0  0  0  0
   29.6975   -5.7870   76.3674 H   0  0  0  0  0  0
   28.9172   -6.6175   77.7560 H   0  0  0  0  0  0
   30.6530   -6.9076   77.3961 H   0  0  0  0  0  0
   35.0292   -5.4183   82.3743 H   0  0  0  0  0  0
   33.0389   -6.8125   84.1503 H   0  0  0  0  0  0
   36.1220   -6.7568   84.1319 H   0  0  0  0  0  0
   35.1457   -7.7580   85.2593 H   0  0  0  0  0  0
   34.1501   -8.9281   83.3058 H   0  0  0  0  0  0
   35.2151   -7.9710   82.2211 H   0  0  0  0  0  0
   36.2016  -10.1436   82.5852 H   0  0  0  0  0  0
   37.1945   -8.9093   83.4320 H   0  0  0  0  0  0
   36.2313   -9.5037   85.5664 H   0  0  0  0  0  0
   35.0352  -10.5893   84.7807 H   0  0  0  0  0  0
   36.8595  -11.8387   85.7830 H   0  0  0  0  0  0
   38.0435  -10.9322   84.7815 H   0  0  0  0  0  0
   36.8474  -12.0178   83.9957 H   0  0  0  0  0  0
   35.6197   -4.2996   84.3898 H   0  0  0  0  0  0
   34.0112   -3.2157   86.6792 H   0  0  0  0  0  0
   36.9493   -4.0838   86.9992 H   0  0  0  0  0  0
   36.1069   -3.0056   88.1631 H   0  0  0  0  0  0
   34.4677   -4.8158   88.5930 H   0  0  0  0  0  0
   35.4127   -5.8888   87.5057 H   0  0  0  0  0  0
   37.3632   -5.7083   88.9492 H   0  0  0  0  0  0
   36.5228   -4.5114   89.9922 H   0  0  0  0  0  0
   34.8010   -6.2263   90.5325 H   0  0  0  0  0  0
   35.7024   -7.4200   89.5379 H   0  0  0  0  0  0
   36.1666   -7.6867   91.9009 H   0  0  0  0  0  0
   36.7329   -5.9845   91.9934 H   0  0  0  0  0  0
   37.6344   -7.1782   90.9988 H   0  0  0  0  0  0
   36.0188   -0.0715   86.2057 H   0  0  0  0  0  0
  1  2  1  0  0  0
  1158  1  0  0  0
  1159  1  0  0  0
  1160  1  0  0  0
  2  3  1  0  0  0
  2  5  1  0  0  0
  2161  1  0  0  0
  3  4  2  0  0  0
  3  9  1  0  0  0
  5  6  1  0  0  0
  5162  1  0  0  0
  5163  1  0  0  0
  6  7  2  0  0  0
  6  8  1  0  0  0
  8164  1  0  0  0
  8165  1  0  0  0
  9 10  1  0  0  0
  9166  1  0  0  0
 10 11  1  0  0  0
 10 13  1  0  0  0
 10167  1  0  0  0
 11 12  2  0  0  0
 11 23  1  0  0  0
 13 14  1  0  0  0
 13168  1  0  0  0
 13169  1  0  0  0
 14 15  2  0  0  0
 14 16  1  0  0  0
 15 17  1  0  0  0
 15170  1  0  0  0
 16 18  2  0  0  0
 16 19  1  0  0  0
 17 18  1  0  0  0
 18 20  1  0  0  0
 19 21  2  0  0  0
 19171  1  0  0  0
 20 22  2  0  0  0
 20172  1  0  0  0
 21 22  1  0  0  0
 21173  1  0  0  0
 22174  1  0  0  0
 23 24  1  0  0  0
 23175  1  0  0  0
 24 25  1  0  0  0
 24 27  1  0  0  0
 24176  1  0  0  0
 25 26  2  0  0  0
 25 34  1  0  0  0
 27 28  1  0  0  0
 27177  1  0  0  0
 27178  1  0  0  0
 28 29  2  0  0  0
 28 30  1  0  0  0
 29 31  1  0  0  0
 29179  1  0  0  0
 30 32  2  0  0  0
 30180  1  0  0  0
 31 33  2  0  0  0
 31181  1  0  0  0
 32 33  1  0  0  0
 32182  1  0  0  0
 33183  1  0  0  0
 34 35  1  0  0  0
 34184  1  0  0  0
 35 36  1  0  0  0
 35 38  1  0  0  0
 35185  1  0  0  0
 36 37  2  0  0  0
 36 42  1  0  0  0
 38 39  1  0  0  0
 38186  1  0  0  0
 38187  1  0  0  0
 39 40  2  0  0  0
 39 41  1  0  0  0
 41188  1  0  0  0
 42 43  1  0  0  0
 42189  1  0  0  0
 43 44  1  0  0  0
 43 46  1  0  0  0
 43190  1  0  0  0
 44 45  2  0  0  0
 44 50  1  0  0  0
 46 47  1  0  0  0
 46 48  1  0  0  0
 46191  1  0  0  0
 47 49  1  0  0  0
 47192  1  0  0  0
 47193  1  0  0  0
 48194  1  0  0  0
 48195  1  0  0  0
 48196  1  0  0  0
 49197  1  0  0  0
 49198  1  0  0  0
 49199  1  0  0  0
 50 51  1  0  0  0
 50200  1  0  0  0
 51 52  1  0  0  0
 51 54  1  0  0  0
 51201  1  0  0  0
 52 53  2  0  0  0
 52 57  1  0  0  0
 54 55  1  0  0  0
 54 56  1  0  0  0
 54202  1  0  0  0
 55203  1  0  0  0
 56204  1  0  0  0
 56205  1  0  0  0
 56206  1  0  0  0
 57 58  1  0  0  0
 57207  1  0  0  0
 58 59  1  0  0  0
 58 61  1  0  0  0
 58208  1  0  0  0
 59 60  2  0  0  0
 59 65  1  0  0  0
 61 62  1  0  0  0
 61209  1  0  0  0
 61210  1  0  0  0
 62 63  2  0  0  0
 62 64  1  0  0  0
 64211  1  0  0  0
 64212  1  0  0  0
 65 66  1  0  0  0
 65213  1  0  0  0
 66 67  1  0  0  0
 66 69  1  0  0  0
 66214  1  0  0  0
 67 68  2  0  0  0
 67 79  1  0  0  0
 69 70  1  0  0  0
 69215  1  0  0  0
 69216  1  0  0  0
 70 71  2  0  0  0
 70 72  1  0  0  0
 71 73  1  0  0  0
 71217  1  0  0  0
 72 74  2  0  0  0
 72 75  1  0  0  0
 73 74  1  0  0  0
 74 76  1  0  0  0
 75 77  2  0  0  0
 75218  1  0  0  0
 76 78  2  0  0  0
 76219  1  0  0  0
 77 78  1  0  0  0
 77220  1  0  0  0
 78221  1  0  0  0
 79 80  1  0  0  0
 79222  1  0  0  0
 80 81  1  0  0  0
 80 83  1  0  0  0
 80223  1  0  0  0
 81 82  2  0  0  0
 81 87  1  0  0  0
 83 84  1  0  0  0
 83224  1  0  0  0
 83225  1  0  0  0
 84 85  1  0  0  0
 84 86  1  0  0  0
 84226  1  0  0  0
 85227  1  0  0  0
 85228  1  0  0  0
 85229  1  0  0  0
 86230  1  0  0  0
 86231  1  0  0  0
 86232  1  0  0  0
 87 88  1  0  0  0
 87233  1  0  0  0
 88 89  1  0  0  0
 88 91  1  0  0  0
 88234  1  0  0  0
 89 90  2  0  0  0
 89101  1  0  0  0
 91 92  1  0  0  0
 91235  1  0  0  0
 91236  1  0  0  0
 92 93  2  0  0  0
 92 94  1  0  0  0
 93 95  1  0  0  0
 93237  1  0  0  0
 94 96  2  0  0  0
 94 97  1  0  0  0
 95 96  1  0  0  0
 96 98  1  0  0  0
 97 99  2  0  0  0
 97238  1  0  0  0
 98100  2  0  0  0
 98239  1  0  0  0
 99100  1  0  0  0
 99240  1  0  0  0
100241  1  0  0  0
101102  1  0  0  0
101242  1  0  0  0
102103  1  0  0  0
102105  1  0  0  0
102243  1  0  0  0
103104  2  0  0  0
103113  1  0  0  0
105106  1  0  0  0
105244  1  0  0  0
105245  1  0  0  0
106107  2  0  0  0
106108  1  0  0  0
107109  1  0  0  0
107246  1  0  0  0
108110  2  0  0  0
108247  1  0  0  0
109111  2  0  0  0
109248  1  0  0  0
110111  1  0  0  0
110249  1  0  0  0
111112  1  0  0  0
112250  1  0  0  0
113114  1  0  0  0
113251  1  0  0  0
114115  1  0  0  0
114117  1  0  0  0
114252  1  0  0  0
115116  2  0  0  0
115121  1  0  0  0
117118  1  0  0  0
117119  1  0  0  0
117253  1  0  0  0
118120  1  0  0  0
118254  1  0  0  0
118255  1  0  0  0
119256  1  0  0  0
119257  1  0  0  0
119258  1  0  0  0
120259  1  0  0  0
120260  1  0  0  0
120261  1  0  0  0
121122  1  0  0  0
121262  1  0  0  0
122123  1  0  0  0
122125  1  0  0  0
122263  1  0  0  0
123124  2  0  0  0
123130  1  0  0  0
125126  1  0  0  0
125264  1  0  0  0
125265  1  0  0  0
126127  1  0  0  0
126266  1  0  0  0
126267  1  0  0  0
127128  1  0  0  0
127268  1  0  0  0
127269  1  0  0  0
128129  1  0  0  0
128270  1  0  0  0
128271  1  0  0  0
129272  1  0  0  0
129273  1  0  0  0
129274  1  0  0  0
130131  1  0  0  0
130275  1  0  0  0
131132  1  0  0  0
131134  1  0  0  0
131276  1  0  0  0
132133  2  0  0  0
132139  1  0  0  0
134135  1  0  0  0
134277  1  0  0  0
134278  1  0  0  0
135136  1  0  0  0
135279  1  0  0  0
135280  1  0  0  0
136137  1  0  0  0
136281  1  0  0  0
136282  1  0  0  0
137138  1  0  0  0
137283  1  0  0  0
137284  1  0  0  0
138285  1  0  0  0
138286  1  0  0  0
138287  1  0  0  0
139140  1  0  0  0
139288  1  0  0  0
140141  1  0  0  0
140143  1  0  0  0
140289  1  0  0  0
141142  2  0  0  0
141148  1  0  0  0
143144  1  0  0  0
143290  1  0  0  0
143291  1  0  0  0
144145  1  0  0  0
144292  1  0  0  0
144293  1  0  0  0
145146  1  0  0  0
145294  1  0  0  0
145295  1  0  0  0
146147  1  0  0  0
146296  1  0  0  0
146297  1  0  0  0
147298  1  0  0  0
147299  1  0  0  0
147300  1  0  0  0
148149  1  0  0  0
148301  1  0  0  0
149150  1  0  0  0
149152  1  0  0  0
149302  1  0  0  0
150151  2  0  0  0
150157  1  0  0  0
152153  1  0  0  0
152303  1  0  0  0
152304  1  0  0  0
153154  1  0  0  0
153305  1  0  0  0
153306  1  0  0  0
154155  1  0  0  0
154307  1  0  0  0
154308  1  0  0  0
155156  1  0  0  0
155309  1  0  0  0
155310  1  0  0  0
156311  1  0  0  0
156312  1  0  0  0
156313  1  0  0  0
157314  1  0  0  0
M  CHG  5   1   1 129   1 138   1 147   1 156   1
M  END
> <s_m_source_file>
../2fx7_ligand.sdf

> <i_m_source_file_index>
1

> <s_epik_input>
W2NIXTFbY0hdW2NIXVtjSF1jKGMxMilbbkhdW2NIXWMyW0NIMl1bQ0BIXShbTkhdQyg9TylbQ0BASF0oW05IMytdKVtDSDJdQyg9TylbTkgyXSlDKD1PKVtOSF1bQ0BASF0oW0NIMl1jM1tjSF1bY0hdW2NIXVtjSF1bY0hdMylDKD1PKVtOSF1bQ0BASF0oW0NIMl1DKD1PKVtPSF0pQyg9TylbTkhdW0NAQEhdKFtDQEBIXShbQ0gzXSlbQ0gyXVtDSDNdKUMoPU8pW05IXVtDQEBIXShbQ0BIXShbT0hdKVtDSDNdKUMoPU8pW05IXVtDQEBIXShbQ0gyXUMoPU8pW05IMl0pQyg9TylbTkhdW0NAQEhdKFtDSDJdYzRbY0hdW25IXWMoYzQ1KVtjSF1bY0hdW2NIXVtjSF01KUMoPU8pW05IXVtDQEBIXShbQ0gyXVtDSF0oW0NIM10pW0NIM10pQyg9TylbTkhdW0NAQEhdKFtDSDJdYzZbY0hdW25IXWMoYzY3KVtjSF1bY0hdW2NIXVtjSF03KUMoPU8pW05IXVtDQEBIXShbQ0gyXWM4W2NIXVtjSF1jKFtPSF0pW2NIXVtjSF04KUMoPU8pW05IXVtDQEBIXShbQ0BASF0oW0NIM10pW0NIMl1bQ0gzXSlDKD1PKVtOSF1bQ0BASF0oW0NIMl1bQ0gyXVtDSDJdW0NIMl1bTkgzK10pQyg9TylbTkhdW0NAQEhdKFtDSDJdW0NIMl1bQ0gyXVtDSDJdW05IMytdKUMoPU8pW05IXVtDQEBIXShbQ0gyXVtDSDJdW0NIMl1bQ0gyXVtOSDMrXSlDKD1PKVtOSF1bQ0BIXShDKD1PKVtPSF0pW0NIMl1bQ0gyXVtDSDJdW0NIMl1bTkgzK10=

> <s_epik_cmdline>
J2VwaWtfYXBwJywgJy1pbWFlJywgJ2xpZ2FuZF9wcm8ubWFlJywgJy1vbWFlJywgJ2xpZ2FuZF9wcmVwLm1hZScsICctbXMnLCAnMScsICctcGgnLCAnNycsICctcGh0JywgJzAuNScsICctbnQn

> <s_epik_pKa_notes>
Molecule size exceeds maximum supported for generating protonation states

$$$$
