2fx8_ligand
                    3D
 Schrodinger Suite 2020-3.
222226  0  0  1  0            999 V2000
   23.6440   30.4400   65.8360 N   0  3  0  0  0  0
   23.1890   29.0230   65.6590 C   0  0  2  0  0  0
   22.8190   28.4370   67.0180 C   0  0  0  0  0  0
   23.6100   28.4760   67.9500 O   0  0  0  0  0  0
   24.3050   28.1780   65.0240 C   0  0  0  0  0  0
   23.8440   26.7600   64.6600 C   0  0  0  0  0  0
   22.8080   26.2860   65.1280 O   0  0  0  0  0  0
   24.6260   26.0810   63.8320 N   0  0  0  0  0  0
   21.6060   27.9170   67.1230 N   0  0  0  0  0  0
   21.1330   27.3120   68.3600 C   0  0  2  0  0  0
   22.0990   26.2040   68.7730 C   0  0  0  0  0  0
   22.4640   26.0840   69.9470 O   0  0  0  0  0  0
   19.7310   26.7200   68.1470 C   0  0  0  0  0  0
   19.0870   26.1630   69.3980 C   0  0  0  0  0  0
   18.4810   26.8750   70.4000 C   0  0  0  0  0  0
   18.9670   24.7770   69.7630 C   0  0  0  0  0  0
   17.9870   26.0170   71.3570 N   0  0  0  0  0  0
   18.2720   24.7270   70.9940 C   0  0  0  0  0  0
   19.3790   23.5740   69.1680 C   0  0  0  0  0  0
   17.9770   23.5200   71.6430 C   0  0  0  0  0  0
   19.0850   22.3710   69.8130 C   0  0  0  0  0  0
   18.3900   22.3570   71.0390 C   0  0  0  0  0  0
   22.5220   25.4090   67.7940 N   0  0  0  0  0  0
   23.4370   24.2930   68.0440 C   0  0  2  0  0  0
   24.8180   24.6480   68.6010 C   0  0  0  0  0  0
   25.5870   23.7520   68.9550 O   0  0  0  0  0  0
   23.5860   23.4420   66.7790 C   0  0  0  0  0  0
   22.3250   22.7160   66.4030 C   0  0  0  0  0  0
   21.4160   23.2840   65.5170 C   0  0  0  0  0  0
   22.0000   21.5060   67.0130 C   0  0  0  0  0  0
   20.2040   22.6640   65.2490 C   0  0  0  0  0  0
   20.7850   20.8770   66.7530 C   0  0  0  0  0  0
   19.8830   21.4590   65.8680 C   0  0  0  0  0  0
   25.1310   25.9420   68.6810 N   0  0  0  0  0  0
   26.4160   26.3870   69.2380 C   0  0  2  0  0  0
   26.3080   26.8150   70.7020 C   0  0  0  0  0  0
   27.3200   26.9410   71.3980 O   0  0  0  0  0  0
   26.9690   27.5950   68.4770 C   0  0  0  0  0  0
   27.4480   27.2520   67.0950 C   0  0  0  0  0  0
   27.9590   26.1300   66.8940 O   0  0  0  0  0  0
   27.3320   28.1210   66.2120 O   0  0  0  0  0  0
   25.0910   27.0540   71.1710 N   0  0  0  0  0  0
   24.9100   27.5390   72.5310 C   0  0  2  0  0  0
   25.4790   26.7010   73.6680 C   0  0  0  0  0  0
   26.0430   27.2620   74.6120 O   0  0  0  0  0  0
   23.4260   27.8120   72.8280 C   0  0  2  0  0  0
   22.8620   28.7780   71.7810 C   0  0  0  0  0  0
   23.2780   28.4110   74.2470 C   0  0  0  0  0  0
   21.4200   29.1170   71.9960 C   0  0  0  0  0  0
   25.3400   25.3770   73.5970 N   0  0  0  0  0  0
   25.8430   24.5330   74.6740 C   0  0  2  0  0  0
   27.3510   24.5770   74.7560 C   0  0  0  0  0  0
   27.9310   24.3070   75.8050 O   0  0  0  0  0  0
   25.3630   23.0560   74.5440 C   0  0  2  0  0  0
   25.6210   22.5680   73.2220 O   0  0  0  0  0  0
   23.8780   22.9630   74.8410 C   0  0  0  0  0  0
   27.9930   24.9330   73.6530 N   0  0  0  0  0  0
   29.4390   25.0190   73.6580 C   0  0  2  0  0  0
   29.8690   26.2420   74.4690 C   0  0  0  0  0  0
   30.7200   26.1450   75.3460 O   0  0  0  0  0  0
   29.9810   25.1160   72.2330 C   0  0  0  0  0  0
   31.4980   25.2260   72.2020 C   0  0  0  0  0  0
   32.0520   26.2810   71.8770 O   0  0  0  0  0  0
   32.1800   24.1390   72.5630 N   0  0  0  0  0  0
   29.2720   27.3920   74.1690 N   0  0  0  0  0  0
   29.5860   28.6280   74.8830 C   0  0  0  0  0  0
   29.3130   28.3610   76.3580 C   0  0  0  0  0  0
   30.0440   28.8110   77.2350 O   0  0  0  0  0  0
   28.6900   29.7630   74.3790 C   0  0  0  0  0  0
   31.0520   29.0000   74.6770 C   0  0  0  0  0  0
   28.2560   27.6020   76.6150 N   0  0  0  0  0  0
   27.8540   27.2670   77.9720 C   0  0  2  0  0  0
   28.8730   26.3610   78.6560 C   0  0  0  0  0  0
   29.1610   26.5020   79.8470 O   0  0  0  0  0  0
   26.4920   26.5820   77.9360 C   0  0  0  0  0  0
   25.8860   26.1930   79.2810 C   0  0  0  0  0  0
   25.7360   27.4380   80.1700 C   0  0  0  0  0  0
   24.5410   25.5210   79.0330 C   0  0  0  0  0  0
   29.4160   25.4290   77.8820 N   0  0  0  0  0  0
   30.4040   24.4830   78.3720 C   0  0  2  0  0  0
   31.7420   25.1600   78.6610 C   0  0  0  0  0  0
   32.4830   24.7440   79.5520 O   0  0  0  0  0  0
   30.5960   23.3850   77.3370 C   0  0  0  0  0  0
   31.7680   22.5090   77.5990 C   0  0  0  0  0  0
   31.8480   21.4800   78.4940 C   0  0  0  0  0  0
   33.0420   22.5880   76.9610 C   0  0  0  0  0  0
   33.0950   20.9120   78.4510 N   0  0  0  0  0  0
   33.8500   21.5740   77.5170 C   0  0  0  0  0  0
   33.5810   23.4210   75.9690 C   0  0  0  0  0  0
   35.1730   21.3670   77.1140 C   0  0  0  0  0  0
   34.8960   23.2160   75.5670 C   0  0  0  0  0  0
   35.6770   22.1960   76.1400 C   0  0  0  0  0  0
   32.0540   26.2010   77.8990 N   0  0  0  0  0  0
   33.3080   26.9210   78.0800 C   0  0  2  0  0  0
   33.2590   27.8690   79.2670 C   0  0  0  0  0  0
   34.2790   28.4240   79.6670 O   0  0  0  0  0  0
   33.6590   27.7020   76.8160 C   0  0  0  0  0  0
   33.9510   26.8230   75.6220 C   0  0  0  0  0  0
   34.5340   27.6480   74.5060 C   0  0  0  0  0  0
   35.6250   28.4830   74.9980 N   0  0  0  0  0  0
   36.3500   29.2920   74.2340 C   0  0  0  0  0  0
   37.3220   30.0160   74.7730 N   0  0  0  0  0  0
   36.1050   29.3730   72.9320 N   0  0  0  0  0  0
   32.0690   28.0580   79.8240 N   0  0  0  0  0  0
   31.9070   28.9340   80.9770 C   0  0  2  0  0  0
   32.4340   28.2050   82.2090 C   0  0  0  0  0  0
   31.6370   27.9540   83.1390 O   0  0  0  0  0  0
   30.4270   29.3030   81.1690 C   0  0  0  0  0  0
   29.8150   30.0570   79.9890 C   0  0  0  0  0  0
   30.4380   31.4360   79.8240 C   0  0  0  0  0  0
   30.0640   32.0830   78.5660 N   0  0  0  0  0  0
   30.6170   31.8110   77.3850 C   0  0  0  0  0  0
   31.5760   30.8990   77.2910 N   0  0  0  0  0  0
   30.2190   32.4600   76.2960 N   0  0  0  0  0  0
   33.6430   27.8830   82.2220 O   0  0  0  0  0  0
   22.8352   31.0307   66.2908 H   0  0  0  0  0  0
   23.9034   30.8669   64.8560 H   0  0  0  0  0  0
   24.5274   30.4623   66.4911 H   0  0  0  0  0  0
   22.3091   29.0333   64.9989 H   0  0  0  0  0  0
   24.6537   28.6649   64.1013 H   0  0  0  0  0  0
   25.1435   28.0876   65.7303 H   0  0  0  0  0  0
   25.5428   26.5437   63.4377 H   0  0  0  0  0  0
   24.3580   25.0550   63.5394 H   0  0  0  0  0  0
   20.9493   27.9511   66.2412 H   0  0  0  0  0  0
   21.1060   28.1104   69.1162 H   0  0  0  0  0  0
   19.0582   27.5003   67.7618 H   0  0  0  0  0  0
   19.7878   25.8944   67.4223 H   0  0  0  0  0  0
   18.4017   27.9616   70.4344 H   0  0  0  0  0  0
   19.9181   23.5790   68.2206 H   0  0  0  0  0  0
   17.4400   23.5046   72.5914 H   0  0  0  0  0  0
   19.3975   21.4292   69.3619 H   0  0  0  0  0  0
   18.1753   21.4021   71.5188 H   0  0  0  0  0  0
   22.1648   25.6093   66.7731 H   0  0  0  0  0  0
   22.9151   23.7669   68.8569 H   0  0  0  0  0  0
   23.8626   24.0882   65.9329 H   0  0  0  0  0  0
   24.3704   22.6869   66.9353 H   0  0  0  0  0  0
   21.6585   24.2272   65.0274 H   0  0  0  0  0  0
   22.7067   21.0454   67.7033 H   0  0  0  0  0  0
   19.5016   23.1214   64.5522 H   0  0  0  0  0  0
   20.5418   19.9330   67.2407 H   0  0  0  0  0  0
   18.9293   20.9738   65.6602 H   0  0  0  0  0  0
   24.4027   26.6824   68.3187 H   0  0  0  0  0  0
   27.0468   25.4926   69.1284 H   0  0  0  0  0  0
   26.1821   28.3571   68.3773 H   0  0  0  0  0  0
   27.8210   28.0178   69.0296 H   0  0  0  0  0  0
   28.3157   25.8602   65.8890 H   0  0  0  0  0  0
   24.2158   26.8839   70.5267 H   0  0  0  0  0  0
   25.5392   28.4391   72.4676 H   0  0  0  0  0  0
   22.8625   26.8689   72.7733 H   0  0  0  0  0  0
   23.4291   29.7202   71.8082 H   0  0  0  0  0  0
   22.9485   28.3268   70.7815 H   0  0  0  0  0  0
   23.6868   27.7069   74.9867 H   0  0  0  0  0  0
   22.2138   28.5900   74.4602 H   0  0  0  0  0  0
   23.8282   29.3619   74.3028 H   0  0  0  0  0  0
   21.0855   29.8109   71.2108 H   0  0  0  0  0  0
   21.2978   29.5913   72.9809 H   0  0  0  0  0  0
   20.8171   28.1979   71.9543 H   0  0  0  0  0  0
   24.8460   24.9214   72.7262 H   0  0  0  0  0  0
   25.4227   25.0045   75.5746 H   0  0  0  0  0  0
   25.9219   22.3857   75.2136 H   0  0  0  0  0  0
   26.6488   22.5584   72.8301 H   0  0  0  0  0  0
   23.6830   23.3383   75.8564 H   0  0  0  0  0  0
   23.5548   21.9140   74.7694 H   0  0  0  0  0  0
   23.3197   23.5693   74.1125 H   0  0  0  0  0  0
   27.4315   25.1629   72.7355 H   0  0  0  0  0  0
   29.7962   24.0891   74.1245 H   0  0  0  0  0  0
   29.6918   24.2171   71.6688 H   0  0  0  0  0  0
   29.5635   26.0073   71.7418 H   0  0  0  0  0  0
   31.6431   23.2212   72.8446 H   0  0  0  0  0  0
   33.2797   24.1599   72.5793 H   0  0  0  0  0  0
   28.5255   27.3980   73.3611 H   0  0  0  0  0  0
   27.6347   29.4913   74.5291 H   0  0  0  0  0  0
   28.8770   29.9296   73.3079 H   0  0  0  0  0  0
   28.9148   30.6833   74.9380 H   0  0  0  0  0  0
   31.6922   28.1825   75.0401 H   0  0  0  0  0  0
   31.2790   29.9196   75.2363 H   0  0  0  0  0  0
   31.2412   29.1659   73.6062 H   0  0  0  0  0  0
   27.6767   27.2227   75.7603 H   0  0  0  0  0  0
   27.8090   28.2241   78.5123 H   0  0  0  0  0  0
   25.7586   27.2490   77.4593 H   0  0  0  0  0  0
   26.5665   25.6477   77.3602 H   0  0  0  0  0  0
   26.5436   25.4814   79.8018 H   0  0  0  0  0  0
   26.7232   27.8967   80.3281 H   0  0  0  0  0  0
   25.3076   27.1463   81.1402 H   0  0  0  0  0  0
   25.0698   28.1619   79.6778 H   0  0  0  0  0  0
   24.6852   24.6364   78.3952 H   0  0  0  0  0  0
   23.8646   26.2286   78.5312 H   0  0  0  0  0  0
   24.1024   25.2130   79.9936 H   0  0  0  0  0  0
   29.0904   25.3898   76.8320 H   0  0  0  0  0  0
   29.9923   24.0842   79.3109 H   0  0  0  0  0  0
   29.7052   22.7399   77.3173 H   0  0  0  0  0  0
   30.7430   23.8376   76.3452 H   0  0  0  0  0  0
   31.0377   21.1573   79.1477 H   0  0  0  0  0  0
   32.9805   24.2134   75.5222 H   0  0  0  0  0  0
   35.7818   20.5780   77.5556 H   0  0  0  0  0  0
   35.3280   23.8549   74.7967 H   0  0  0  0  0  0
   36.7050   22.0598   75.8042 H   0  0  0  0  0  0
   31.3456   26.5177   77.1194 H   0  0  0  0  0  0
   34.0502   26.1344   78.2811 H   0  0  0  0  0  0
   32.8176   28.3562   76.5437 H   0  0  0  0  0  0
   34.5545   28.3137   76.9998 H   0  0  0  0  0  0
   34.6706   26.0421   75.9089 H   0  0  0  0  0  0
   33.0186   26.3531   75.2758 H   0  0  0  0  0  0
   34.9221   26.9816   73.7216 H   0  0  0  0  0  0
   33.7528   28.2965   74.0827 H   0  0  0  0  0  0
   35.8919   28.4668   76.0650 H   0  0  0  0  0  0
   37.5245   29.9484   75.8521 H   0  0  0  0  0  0
   35.2988   28.7723   72.4856 H   0  0  0  0  0  0
   36.7082   30.0408   72.2993 H   0  0  0  0  0  0
   31.1963   27.5396   79.4002 H   0  0  0  0  0  0
   32.4901   29.8451   80.7772 H   0  0  0  0  0  0
   29.8358   28.3861   81.3095 H   0  0  0  0  0  0
   30.3215   29.9466   82.0548 H   0  0  0  0  0  0
   29.9819   29.4868   79.0633 H   0  0  0  0  0  0
   28.7345   30.1808   80.1536 H   0  0  0  0  0  0
   30.1089   32.0878   80.6467 H   0  0  0  0  0  0
   31.5343   31.3477   79.8423 H   0  0  0  0  0  0
   29.2767   32.8512   78.5554 H   0  0  0  0  0  0
   31.9103   30.3580   78.1885 H   0  0  0  0  0  0
   29.4244   33.2174   76.3667 H   0  0  0  0  0  0
   30.6841   32.2399   75.3238 H   0  0  0  0  0  0
   34.0625   27.3560   83.0917 H   0  0  0  0  0  0
  1  2  1  0  0  0
  1116  1  0  0  0
  1117  1  0  0  0
  1118  1  0  0  0
  2  3  1  0  0  0
  2  5  1  0  0  0
  2119  1  0  0  0
  3  4  2  0  0  0
  3  9  1  0  0  0
  5  6  1  0  0  0
  5120  1  0  0  0
  5121  1  0  0  0
  6  7  2  0  0  0
  6  8  1  0  0  0
  8122  1  0  0  0
  8123  1  0  0  0
  9 10  1  0  0  0
  9124  1  0  0  0
 10 11  1  0  0  0
 10 13  1  0  0  0
 10125  1  0  0  0
 11 12  2  0  0  0
 11 23  1  0  0  0
 13 14  1  0  0  0
 13126  1  0  0  0
 13127  1  0  0  0
 14 15  2  0  0  0
 14 16  1  0  0  0
 15 17  1  0  0  0
 15128  1  0  0  0
 16 18  2  0  0  0
 16 19  1  0  0  0
 17 18  1  0  0  0
 18 20  1  0  0  0
 19 21  2  0  0  0
 19129  1  0  0  0
 20 22  2  0  0  0
 20130  1  0  0  0
 21 22  1  0  0  0
 21131  1  0  0  0
 22132  1  0  0  0
 23 24  1  0  0  0
 23133  1  0  0  0
 24 25  1  0  0  0
 24 27  1  0  0  0
 24134  1  0  0  0
 25 26  2  0  0  0
 25 34  1  0  0  0
 27 28  1  0  0  0
 27135  1  0  0  0
 27136  1  0  0  0
 28 29  2  0  0  0
 28 30  1  0  0  0
 29 31  1  0  0  0
 29137  1  0  0  0
 30 32  2  0  0  0
 30138  1  0  0  0
 31 33  2  0  0  0
 31139  1  0  0  0
 32 33  1  0  0  0
 32140  1  0  0  0
 33141  1  0  0  0
 34 35  1  0  0  0
 34142  1  0  0  0
 35 36  1  0  0  0
 35 38  1  0  0  0
 35143  1  0  0  0
 36 37  2  0  0  0
 36 42  1  0  0  0
 38 39  1  0  0  0
 38144  1  0  0  0
 38145  1  0  0  0
 39 40  1  0  0  0
 39 41  2  0  0  0
 40146  1  0  0  0
 42 43  1  0  0  0
 42147  1  0  0  0
 43 44  1  0  0  0
 43 46  1  0  0  0
 43148  1  0  0  0
 44 45  2  0  0  0
 44 50  1  0  0  0
 46 47  1  0  0  0
 46 48  1  0  0  0
 46149  1  0  0  0
 47 49  1  0  0  0
 47150  1  0  0  0
 47151  1  0  0  0
 48152  1  0  0  0
 48153  1  0  0  0
 48154  1  0  0  0
 49155  1  0  0  0
 49156  1  0  0  0
 49157  1  0  0  0
 50 51  1  0  0  0
 50158  1  0  0  0
 51 52  1  0  0  0
 51 54  1  0  0  0
 51159  1  0  0  0
 52 53  2  0  0  0
 52 57  1  0  0  0
 54 55  1  0  0  0
 54 56  1  0  0  0
 54160  1  0  0  0
 55161  1  0  0  0
 56162  1  0  0  0
 56163  1  0  0  0
 56164  1  0  0  0
 57 58  1  0  0  0
 57165  1  0  0  0
 58 59  1  0  0  0
 58 61  1  0  0  0
 58166  1  0  0  0
 59 60  2  0  0  0
 59 65  1  0  0  0
 61 62  1  0  0  0
 61167  1  0  0  0
 61168  1  0  0  0
 62 63  2  0  0  0
 62 64  1  0  0  0
 64169  1  0  0  0
 64170  1  0  0  0
 65 66  1  0  0  0
 65171  1  0  0  0
 66 67  1  0  0  0
 66 69  1  0  0  0
 66 70  1  0  0  0
 67 68  2  0  0  0
 67 71  1  0  0  0
 69172  1  0  0  0
 69173  1  0  0  0
 69174  1  0  0  0
 70175  1  0  0  0
 70176  1  0  0  0
 70177  1  0  0  0
 71 72  1  0  0  0
 71178  1  0  0  0
 72 73  1  0  0  0
 72 75  1  0  0  0
 72179  1  0  0  0
 73 74  2  0  0  0
 73 79  1  0  0  0
 75 76  1  0  0  0
 75180  1  0  0  0
 75181  1  0  0  0
 76 77  1  0  0  0
 76 78  1  0  0  0
 76182  1  0  0  0
 77183  1  0  0  0
 77184  1  0  0  0
 77185  1  0  0  0
 78186  1  0  0  0
 78187  1  0  0  0
 78188  1  0  0  0
 79 80  1  0  0  0
 79189  1  0  0  0
 80 81  1  0  0  0
 80 83  1  0  0  0
 80190  1  0  0  0
 81 82  2  0  0  0
 81 93  1  0  0  0
 83 84  1  0  0  0
 83191  1  0  0  0
 83192  1  0  0  0
 84 85  2  0  0  0
 84 86  1  0  0  0
 85 87  1  0  0  0
 85193  1  0  0  0
 86 88  2  0  0  0
 86 89  1  0  0  0
 87 88  1  0  0  0
 88 90  1  0  0  0
 89 91  2  0  0  0
 89194  1  0  0  0
 90 92  2  0  0  0
 90195  1  0  0  0
 91 92  1  0  0  0
 91196  1  0  0  0
 92197  1  0  0  0
 93 94  1  0  0  0
 93198  1  0  0  0
 94 95  1  0  0  0
 94 97  1  0  0  0
 94199  1  0  0  0
 95 96  2  0  0  0
 95104  1  0  0  0
 97 98  1  0  0  0
 97200  1  0  0  0
 97201  1  0  0  0
 98 99  1  0  0  0
 98202  1  0  0  0
 98203  1  0  0  0
 99100  1  0  0  0
 99204  1  0  0  0
 99205  1  0  0  0
100101  1  0  0  0
100206  1  0  0  0
101102  2  0  0  0
101103  1  0  0  0
102207  1  0  0  0
103208  1  0  0  0
103209  1  0  0  0
104105  1  0  0  0
104210  1  0  0  0
105106  1  0  0  0
105108  1  0  0  0
105211  1  0  0  0
106107  2  0  0  0
106115  1  0  0  0
108109  1  0  0  0
108212  1  0  0  0
108213  1  0  0  0
109110  1  0  0  0
109214  1  0  0  0
109215  1  0  0  0
110111  1  0  0  0
110216  1  0  0  0
110217  1  0  0  0
111112  1  0  0  0
111218  1  0  0  0
112113  2  0  0  0
112114  1  0  0  0
113219  1  0  0  0
114220  1  0  0  0
114221  1  0  0  0
115222  1  0  0  0
M  CHG  1   1   1
M  END
> <s_m_source_file>
../2fx8_ligand.sdf

> <i_m_source_file_index>
1

> <s_epik_input>
W2NIXTFbY0hdW2NIXVtjSF1jKGMxMilbbkhdW2NIXWMyW0NIMl1bQ0BIXShbTkhdQyg9TylbQ0BASF0oW05IMytdKVtDSDJdQyg9TylbTkgyXSlDKD1PKVtOSF1bQ0BASF0oW0NIMl1jM1tjSF1bY0hdW2NIXVtjSF1bY0hdMylDKD1PKVtOSF1bQ0BASF0oW0NIMl1DKD1PKVtPSF0pQyg9TylbTkhdW0NAQEhdKFtDQEBIXShbQ0gzXSlbQ0gyXVtDSDNdKUMoPU8pW05IXVtDQEBIXShbQ0BIXShbT0hdKVtDSDNdKUMoPU8pW05IXVtDQEBIXShbQ0gyXUMoPU8pW05IMl0pQyg9TylbTkhdQyhbQ0gzXSkoW0NIM10pQyg9TylbTkhdW0NAQEhdKFtDSDJdW0NIXShbQ0gzXSlbQ0gzXSlDKD1PKVtOSF1bQ0BASF0oW0NIMl1jNFtjSF1bbkhdYyhjNDUpW2NIXVtjSF1bY0hdW2NIXTUpQyg9TylbTkhdW0NAQEhdKFtDSDJdW0NIMl1bQ0gyXVtOSF0vQyg9TlxbSF0pW05IMl0pQyg9TylbTkhdW0NASF0oQyg9TylbT0hdKVtDSDJdW0NIMl1bQ0gyXVtOSF0vQyg9TlxbSF0pW05IMl0=

> <s_epik_cmdline>
J2VwaWtfYXBwJywgJy1pbWFlJywgJ2xpZ2FuZF9wcm8ubWFlJywgJy1vbWFlJywgJ2xpZ2FuZF9wcmVwLm1hZScsICctbXMnLCAnMScsICctcGgnLCAnNycsICctcGh0JywgJzAuNScsICctbnQn

> <s_epik_pKa_notes>
Molecule size exceeds maximum supported for generating protonation states

> <s_epik_Chemistry_Notes>
This compound has an imine and may undergo hydrolysis.

$$$$
