2fx9_ligand
                    3D
 Schrodinger Suite 2020-3.
279286  0  0  1  0            999 V2000
   23.3590   29.9440   33.1050 N   0  3  0  0  0  0
   23.1470   28.5740   32.5530 C   0  0  2  0  0  0
   22.0890   27.8120   33.3360 C   0  0  0  0  0  0
   22.1930   27.6050   34.5480 O   0  0  0  0  0  0
   24.4590   27.7890   32.5670 C   0  0  0  0  0  0
   24.2960   26.3800   32.0530 C   0  0  0  0  0  0
   23.2650   26.0400   31.4610 O   0  0  0  0  0  0
   25.3120   25.5530   32.2600 N   0  0  0  0  0  0
   21.0380   27.3770   32.6560 N   0  0  0  0  0  0
   19.9610   26.6350   33.2950 C   0  0  2  0  0  0
   20.4560   25.3620   33.9920 C   0  0  0  0  0  0
   19.9430   24.9730   35.0320 O   0  0  0  0  0  0
   18.9140   26.2670   32.2510 C   0  0  0  0  0  0
   17.7130   25.5530   32.7850 C   0  0  0  0  0  0
   16.5740   26.1170   33.2900 C   0  0  0  0  0  0
   17.5020   24.1380   32.8010 C   0  0  0  0  0  0
   15.6630   25.1370   33.6100 N   0  0  0  0  0  0
   16.2080   23.9130   33.3200 C   0  0  0  0  0  0
   18.2830   23.0330   32.4200 C   0  0  0  0  0  0
   15.6690   22.6240   33.4680 C   0  0  0  0  0  0
   17.7460   21.7520   32.5670 C   0  0  0  0  0  0
   16.4500   21.5640   33.0870 C   0  0  0  0  0  0
   21.4570   24.6790   33.4460 N   0  0  0  0  0  0
   21.9620   23.4540   34.0690 C   0  0  2  0  0  0
   22.7560   23.7320   35.3480 C   0  0  0  0  0  0
   23.3150   22.8280   35.9730 O   0  0  0  0  0  0
   22.8350   22.6660   33.0850 C   0  0  0  0  0  0
   22.0720   22.0880   31.9170 C   0  0  0  0  0  0
   22.0650   22.7310   30.6840 C   0  0  0  0  0  0
   21.3560   20.9010   32.0550 C   0  0  0  0  0  0
   21.3610   22.2030   29.6030 C   0  0  0  0  0  0
   20.6420   20.3580   30.9790 C   0  0  0  0  0  0
   20.6450   21.0120   29.7480 C   0  0  0  0  0  0
   22.8190   24.9940   35.7630 N   0  0  0  0  0  0
   23.5330   25.3990   36.9680 C   0  0  2  0  0  0
   22.5910   25.7160   38.1110 C   0  0  0  0  0  0
   22.9810   25.7420   39.2840 O   0  0  0  0  0  0
   24.3670   26.6490   36.6950 C   0  0  0  0  0  0
   26.1080   26.3110   36.0740 S   0  0  0  0  0  0
   21.3270   25.9800   37.7960 N   0  0  0  0  0  0
   20.3350   26.3400   38.7980 C   0  0  2  0  0  0
   20.1840   25.3760   39.9790 C   0  0  0  0  0  0
   20.1170   25.8040   41.1330 O   0  0  0  0  0  0
   18.9580   26.5590   38.1440 C   0  0  2  0  0  0
   19.0340   27.7340   37.1620 C   0  0  0  0  0  0
   17.9190   26.8350   39.2070 C   0  0  0  0  0  0
   17.7710   27.9410   36.3300 C   0  0  0  0  0  0
   20.0980   24.0670   39.7540 N   0  0  0  0  0  0
   19.9580   23.1610   40.8870 C   0  0  2  0  0  0
   21.2310   23.2220   41.7270 C   0  0  0  0  0  0
   21.2050   23.1300   42.9440 O   0  0  0  0  0  0
   19.6800   21.7080   40.4400 C   0  0  2  0  0  0
   20.6680   21.2940   39.4900 O   0  0  0  0  0  0
   18.2870   21.6100   39.8220 C   0  0  0  0  0  0
   22.3820   23.3990   41.0970 N   0  0  0  0  0  0
   23.6370   23.5040   41.8330 C   0  0  1  0  0  0
   24.7940   23.6560   40.8460 C   0  0  0  0  0  0
   26.1180   24.1370   41.4530 C   0  0  0  0  0  0
   26.9320   24.8560   40.4000 C   0  0  0  0  0  0
   27.0560   24.0050   39.2250 N   0  0  0  0  0  0
   27.2650   23.6260   37.0510 O   0  0  0  0  0  0
   23.5750   24.7250   42.7550 C   0  0  0  0  0  0
   23.9190   24.6720   43.9430 O   0  0  0  0  0  0
   27.1650   24.4330   37.9680 C   0  0  0  0  0  0
   27.1640   25.9200   37.6560 C   0  0  0  0  0  0
   23.1190   25.8590   42.2260 N   0  0  0  0  0  0
   23.0290   27.0800   43.0110 C   0  0  2  0  0  0
   21.9650   26.9410   44.0860 C   0  0  0  0  0  0
   22.1340   27.4160   45.2040 O   0  0  0  0  0  0
   22.7270   28.2900   42.1150 C   0  0  0  0  0  0
   23.8050   28.5900   41.1030 C   0  0  0  0  0  0
   25.1540   28.4110   41.2580 C   0  0  0  0  0  0
   23.6270   29.1570   39.7960 C   0  0  0  0  0  0
   25.8240   28.8290   40.1290 N   0  0  0  0  0  0
   24.9110   29.2930   39.2180 C   0  0  0  0  0  0
   22.5050   29.5680   39.0570 C   0  0  0  0  0  0
   25.1060   29.8220   37.9330 C   0  0  0  0  0  0
   22.7000   30.0960   37.7780 C   0  0  0  0  0  0
   23.9930   30.2180   37.2310 C   0  0  0  0  0  0
   20.8430   26.2890   43.7870 N   0  0  0  0  0  0
   19.7880   26.1070   44.7820 C   0  0  2  0  0  0
   20.3050   25.2090   45.8960 C   0  0  0  0  0  0
   20.0370   25.4150   47.0800 O   0  0  0  0  0  0
   18.5510   25.4490   44.1650 C   0  0  0  0  0  0
   17.7310   26.2040   43.1200 C   0  0  0  0  0  0
   16.5830   25.3170   42.6420 C   0  0  0  0  0  0
   17.1960   27.5020   43.7190 C   0  0  0  0  0  0
   21.0520   24.1740   45.5320 N   0  0  0  0  0  0
   21.5990   23.2480   46.5050 C   0  0  2  0  0  0
   22.6090   23.9700   47.3910 C   0  0  0  0  0  0
   22.6520   23.7860   48.6060 O   0  0  0  0  0  0
   22.2840   22.0870   45.7920 C   0  0  0  0  0  0
   22.7590   21.0200   46.7200 C   0  0  0  0  0  0
   22.0140   20.0120   47.2680 C   0  0  0  0  0  0
   24.0890   20.8550   47.2170 C   0  0  0  0  0  0
   22.8040   19.2270   48.0740 N   0  0  0  0  0  0
   24.0820   19.7220   48.0610 C   0  0  0  0  0  0
   25.2880   21.5540   47.0310 C   0  0  0  0  0  0
   25.2280   19.2710   48.7170 C   0  0  0  0  0  0
   26.4290   21.1060   47.6830 C   0  0  0  0  0  0
   26.3890   19.9730   48.5160 C   0  0  0  0  0  0
   23.4520   24.8090   46.7980 N   0  0  0  0  0  0
   24.4520   25.5510   47.5550 C   0  0  2  0  0  0
   23.7710   26.5700   48.4630 C   0  0  0  0  0  0
   24.1250   26.7330   49.6310 O   0  0  0  0  0  0
   25.4100   26.2600   46.5960 C   0  0  0  0  0  0
   26.5420   27.0130   47.2710 C   0  0  0  0  0  0
   27.5050   27.5740   46.2360 C   0  0  0  0  0  0
   28.7320   28.2070   46.8820 C   0  0  0  0  0  0
   29.7710   28.5470   45.8600 N   0  3  0  0  0  0
   22.7670   27.2730   47.9470 N   0  0  0  0  0  0
   22.0410   28.2730   48.7220 C   0  0  2  0  0  0
   21.4070   27.6540   49.9630 C   0  0  0  0  0  0
   21.2780   28.2970   51.0030 O   0  0  0  0  0  0
   20.9560   28.9290   47.8610 C   0  0  0  0  0  0
   20.1490   30.0030   48.5770 C   0  0  0  0  0  0
   19.0210   30.5190   47.6960 C   0  0  0  0  0  0
   18.1960   31.5850   48.4020 C   0  0  0  0  0  0
   18.9660   32.8390   48.6250 N   0  3  0  0  0  0
   20.9890   26.3920   49.8880 N   0  0  0  0  0  0
   20.3850   25.7280   51.0390 C   0  0  2  0  0  0
   21.4750   25.0630   51.8730 C   0  0  0  0  0  0
   21.5280   25.1960   53.0970 O   0  0  0  0  0  0
   19.3650   24.6750   50.5900 C   0  0  0  0  0  0
   19.9590   23.4910   49.8360 C   0  0  0  0  0  0
   19.5420   22.1630   50.4600 C   0  0  0  0  0  0
   20.0960   22.0110   51.8740 C   0  0  0  0  0  0
   19.6890   20.7300   52.5180 N   0  3  0  0  0  0
   22.3740   24.3260   51.2260 N   0  0  0  0  0  0
   23.4660   23.6510   51.9180 C   0  0  2  0  0  0
   24.2870   24.6690   52.7040 C   0  0  0  0  0  0
   24.5580   24.4070   53.8950 O   0  0  0  0  0  0
   24.3540   22.9150   50.9060 C   0  0  0  0  0  0
   25.7150   22.4830   51.4370 C   0  0  0  0  0  0
   25.5960   21.5440   52.6240 C   0  0  0  0  0  0
   26.9710   21.2020   53.1880 C   0  0  0  0  0  0
   26.8950   20.3480   54.4100 N   0  3  0  0  0  0
   24.6480   25.7140   52.1200 O   0  0  0  0  0  0
   22.4082   30.4969   33.0890 H   0  0  0  0  0  0
   24.1024   30.4751   32.4924 H   0  0  0  0  0  0
   23.7227   29.8698   34.1405 H   0  0  0  0  0  0
   22.7906   28.7094   31.5212 H   0  0  0  0  0  0
   25.1976   28.2980   31.9303 H   0  0  0  0  0  0
   24.8408   27.7312   33.5970 H   0  0  0  0  0  0
   26.2078   25.9048   32.7927 H   0  0  0  0  0  0
   25.2588   24.5153   31.8990 H   0  0  0  0  0  0
   20.9940   27.5915   31.5780 H   0  0  0  0  0  0
   19.5582   27.3247   34.0514 H   0  0  0  0  0  0
   18.5458   27.1814   31.7628 H   0  0  0  0  0  0
   19.3648   25.6050   31.4971 H   0  0  0  0  0  0
   16.4117   27.1870   33.4200 H   0  0  0  0  0  0
   19.2866   23.1729   32.0183 H   0  0  0  0  0  0
   14.6675   22.4726   33.8706 H   0  0  0  0  0  0
   18.3384   20.8848   32.2751 H   0  0  0  0  0  0
   16.0592   20.5516   33.1887 H   0  0  0  0  0  0
   21.9069   25.0468   32.5120 H   0  0  0  0  0  0
   21.0511   22.8935   34.3261 H   0  0  0  0  0  0
   23.6104   23.3277   32.6717 H   0  0  0  0  0  0
   23.3121   21.8254   33.6101 H   0  0  0  0  0  0
   22.6184   23.6620   30.5610 H   0  0  0  0  0  0
   21.3513   20.3864   33.0158 H   0  0  0  0  0  0
   21.3691   22.7199   28.6434 H   0  0  0  0  0  0
   20.0867   19.4284   31.1038 H   0  0  0  0  0  0
   20.0928   20.5973   28.9047 H   0  0  0  0  0  0
   22.3005   25.7472   35.1516 H   0  0  0  0  0  0
   24.1514   24.5249   37.2200 H   0  0  0  0  0  0
   23.8694   27.2616   35.9287 H   0  0  0  0  0  0
   24.4678   27.2323   37.6222 H   0  0  0  0  0  0
   21.0406   25.9188   36.7357 H   0  0  0  0  0  0
   20.7828   27.2631   39.1948 H   0  0  0  0  0  0
   18.6530   25.6514   37.6025 H   0  0  0  0  0  0
   19.2085   28.6665   37.7188 H   0  0  0  0  0  0
   19.8608   27.5686   36.4555 H   0  0  0  0  0  0
   17.8738   25.9858   39.9048 H   0  0  0  0  0  0
   16.9362   26.9722   38.7323 H   0  0  0  0  0  0
   18.1910   27.7478   39.7573 H   0  0  0  0  0  0
   17.9120   28.7994   35.6568 H   0  0  0  0  0  0
   16.9193   28.1354   36.9985 H   0  0  0  0  0  0
   17.5716   27.0374   35.7352 H   0  0  0  0  0  0
   20.1313   23.6662   38.7301 H   0  0  0  0  0  0
   19.0907   23.5324   41.4525 H   0  0  0  0  0  0
   19.7751   21.0034   41.2794 H   0  0  0  0  0  0
   21.7329   21.3004   39.7657 H   0  0  0  0  0  0
   17.5356   21.9299   40.5589 H   0  0  0  0  0  0
   18.0899   20.5692   39.5254 H   0  0  0  0  0  0
   18.2322   22.2603   38.9365 H   0  0  0  0  0  0
   22.3809   23.4668   39.9991 H   0  0  0  0  0  0
   23.7537   22.5793   42.4172 H   0  0  0  0  0  0
   25.0030   22.6848   40.3737 H   0  0  0  0  0  0
   24.5220   24.3890   40.0723 H   0  0  0  0  0  0
   25.9110   24.8251   42.2858 H   0  0  0  0  0  0
   26.6866   23.2719   41.8249 H   0  0  0  0  0  0
   26.4280   25.7941   40.1242 H   0  0  0  0  0  0
   27.9319   25.0807   40.7996 H   0  0  0  0  0  0
   27.0650   22.9107   39.3369 H   0  0  0  0  0  0
   28.2027   26.2431   37.4926 H   0  0  0  0  0  0
   26.7443   26.4575   38.5191 H   0  0  0  0  0  0
   22.8068   25.8590   41.1712 H   0  0  0  0  0  0
   24.0171   27.1962   43.4803 H   0  0  0  0  0  0
   21.7979   28.1086   41.5547 H   0  0  0  0  0  0
   22.6093   29.1881   42.7391 H   0  0  0  0  0  0
   25.6295   27.9971   42.1472 H   0  0  0  0  0  0
   21.5018   29.4768   39.4733 H   0  0  0  0  0  0
   26.1049   29.9155   37.5068 H   0  0  0  0  0  0
   21.8381   30.4187   37.1940 H   0  0  0  0  0  0
   24.1127   30.6348   36.2310 H   0  0  0  0  0  0
   20.7173   25.8844   42.7719 H   0  0  0  0  0  0
   19.5422   27.1150   45.1474 H   0  0  0  0  0  0
   18.8459   24.5204   43.6543 H   0  0  0  0  0  0
   17.8252   25.2166   44.9582 H   0  0  0  0  0  0
   18.3677   26.4578   42.2597 H   0  0  0  0  0  0
   16.9903   24.3888   42.2148 H   0  0  0  0  0  0
   16.0027   25.8502   41.8745 H   0  0  0  0  0  0
   15.9293   25.0733   43.4925 H   0  0  0  0  0  0
   18.0379   28.1246   44.0561 H   0  0  0  0  0  0
   16.5456   27.2699   44.5752 H   0  0  0  0  0  0
   16.6190   28.0468   42.9573 H   0  0  0  0  0  0
   21.2527   24.0280   44.4604 H   0  0  0  0  0  0
   20.7467   22.8864   47.0990 H   0  0  0  0  0  0
   21.5789   21.6222   45.0872 H   0  0  0  0  0  0
   23.1601   22.4603   45.2415 H   0  0  0  0  0  0
   20.9500   19.8543   47.0915 H   0  0  0  0  0  0
   25.3248   22.4326   46.3870 H   0  0  0  0  0  0
   25.2015   18.3944   49.3643 H   0  0  0  0  0  0
   27.3695   21.6400   47.5475 H   0  0  0  0  0  0
   27.3020   19.6454   49.0133 H   0  0  0  0  0  0
   23.3814   24.9364   45.7077 H   0  0  0  0  0  0
   24.9947   24.8109   48.1615 H   0  0  0  0  0  0
   25.8747   25.5198   45.9281 H   0  0  0  0  0  0
   24.8521   26.9950   45.9972 H   0  0  0  0  0  0
   26.1288   27.8447   47.8605 H   0  0  0  0  0  0
   27.0917   26.3301   47.9355 H   0  0  0  0  0  0
   27.8447   26.7638   45.5741 H   0  0  0  0  0  0
   26.9945   28.3447   45.6399 H   0  0  0  0  0  0
   28.4374   29.1306   47.4017 H   0  0  0  0  0  0
   29.1700   27.5032   47.6051 H   0  0  0  0  0  0
   30.6406   29.0006   46.3581 H   0  0  0  0  0  0
   29.3518   29.2589   45.1337 H   0  0  0  0  0  0
   30.0843   27.6314   45.3370 H   0  0  0  0  0  0
   22.4893   27.0803   46.9002 H   0  0  0  0  0  0
   22.8003   29.0094   49.0240 H   0  0  0  0  0  0
   21.4212   29.4070   46.9863 H   0  0  0  0  0  0
   20.2423   28.1628   47.5238 H   0  0  0  0  0  0
   19.7138   29.5831   49.4959 H   0  0  0  0  0  0
   20.8075   30.8455   48.8350 H   0  0  0  0  0  0
   19.4429   30.9587   46.7802 H   0  0  0  0  0  0
   18.3538   29.6861   47.4291 H   0  0  0  0  0  0
   17.3145   31.8304   47.7915 H   0  0  0  0  0  0
   17.8696   31.2068   49.3820 H   0  0  0  0  0  0
   18.3281   33.5750   49.1363 H   0  0  0  0  0  0
   19.2919   33.2463   47.6565 H   0  0  0  0  0  0
   19.8471   32.6225   49.2470 H   0  0  0  0  0  0
   21.1052   25.8492   48.9383 H   0  0  0  0  0  0
   19.8796   26.5183   51.6134 H   0  0  0  0  0  0
   18.8503   24.2640   51.4710 H   0  0  0  0  0  0
   18.6282   25.1409   49.9191 H   0  0  0  0  0  0
   19.6114   23.5091   48.7925 H   0  0  0  0  0  0
   21.0569   23.5558   49.8579 H   0  0  0  0  0  0
   18.4444   22.1093   50.5085 H   0  0  0  0  0  0
   19.9229   21.3337   49.8459 H   0  0  0  0  0  0
   21.1952   22.0370   51.8419 H   0  0  0  0  0  0
   19.7280   22.8353   52.5026 H   0  0  0  0  0  0
   20.1159   20.6767   53.5304 H   0  0  0  0  0  0
   20.0590   19.8848   51.9191 H   0  0  0  0  0  0
   18.5917   20.6831   52.5798 H   0  0  0  0  0  0
   22.2745   24.2342   50.1344 H   0  0  0  0  0  0
   23.0020   22.9313   52.6084 H   0  0  0  0  0  0
   23.8439   22.0012   50.5671 H   0  0  0  0  0  0
   24.5462   23.5692   50.0428 H   0  0  0  0  0  0
   26.2696   21.9613   50.6431 H   0  0  0  0  0  0
   26.2815   23.3695   51.7582 H   0  0  0  0  0  0
   24.9998   22.0248   53.4135 H   0  0  0  0  0  0
   25.1025   20.6133   52.3073 H   0  0  0  0  0  0
   27.5526   20.6561   52.4305 H   0  0  0  0  0  0
   27.4981   22.1293   53.4568 H   0  0  0  0  0  0
   27.9116   20.1338   54.7714 H   0  0  0  0  0  0
   26.3859   19.4038   54.1664 H   0  0  0  0  0  0
   26.3315   20.8771   55.1926 H   0  0  0  0  0  0
   25.2409   26.4681   52.6583 H   0  0  0  0  0  0
  1  2  1  0  0  0
  1139  1  0  0  0
  1140  1  0  0  0
  1141  1  0  0  0
  2  3  1  0  0  0
  2  5  1  0  0  0
  2142  1  0  0  0
  3  4  2  0  0  0
  3  9  1  0  0  0
  5  6  1  0  0  0
  5143  1  0  0  0
  5144  1  0  0  0
  6  7  2  0  0  0
  6  8  1  0  0  0
  8145  1  0  0  0
  8146  1  0  0  0
  9 10  1  0  0  0
  9147  1  0  0  0
 10 11  1  0  0  0
 10 13  1  0  0  0
 10148  1  0  0  0
 11 12  2  0  0  0
 11 23  1  0  0  0
 13 14  1  0  0  0
 13149  1  0  0  0
 13150  1  0  0  0
 14 15  2  0  0  0
 14 16  1  0  0  0
 15 17  1  0  0  0
 15151  1  0  0  0
 16 18  2  0  0  0
 16 19  1  0  0  0
 17 18  1  0  0  0
 18 20  1  0  0  0
 19 21  2  0  0  0
 19152  1  0  0  0
 20 22  2  0  0  0
 20153  1  0  0  0
 21 22  1  0  0  0
 21154  1  0  0  0
 22155  1  0  0  0
 23 24  1  0  0  0
 23156  1  0  0  0
 24 25  1  0  0  0
 24 27  1  0  0  0
 24157  1  0  0  0
 25 26  2  0  0  0
 25 34  1  0  0  0
 27 28  1  0  0  0
 27158  1  0  0  0
 27159  1  0  0  0
 28 29  2  0  0  0
 28 30  1  0  0  0
 29 31  1  0  0  0
 29160  1  0  0  0
 30 32  2  0  0  0
 30161  1  0  0  0
 31 33  2  0  0  0
 31162  1  0  0  0
 32 33  1  0  0  0
 32163  1  0  0  0
 33164  1  0  0  0
 34 35  1  0  0  0
 34165  1  0  0  0
 35 36  1  0  0  0
 35 38  1  0  0  0
 35166  1  0  0  0
 36 37  2  0  0  0
 36 40  1  0  0  0
 38 39  1  0  0  0
 38167  1  0  0  0
 38168  1  0  0  0
 39 65  1  0  0  0
 40 41  1  0  0  0
 40169  1  0  0  0
 41 42  1  0  0  0
 41 44  1  0  0  0
 41170  1  0  0  0
 42 43  2  0  0  0
 42 48  1  0  0  0
 44 45  1  0  0  0
 44 46  1  0  0  0
 44171  1  0  0  0
 45 47  1  0  0  0
 45172  1  0  0  0
 45173  1  0  0  0
 46174  1  0  0  0
 46175  1  0  0  0
 46176  1  0  0  0
 47177  1  0  0  0
 47178  1  0  0  0
 47179  1  0  0  0
 48 49  1  0  0  0
 48180  1  0  0  0
 49 50  1  0  0  0
 49 52  1  0  0  0
 49181  1  0  0  0
 50 51  2  0  0  0
 50 55  1  0  0  0
 52 53  1  0  0  0
 52 54  1  0  0  0
 52182  1  0  0  0
 53183  1  0  0  0
 54184  1  0  0  0
 54185  1  0  0  0
 54186  1  0  0  0
 55 56  1  0  0  0
 55187  1  0  0  0
 56 57  1  0  0  0
 56 62  1  0  0  0
 56188  1  0  0  0
 57 58  1  0  0  0
 57189  1  0  0  0
 57190  1  0  0  0
 58 59  1  0  0  0
 58191  1  0  0  0
 58192  1  0  0  0
 59 60  1  0  0  0
 59193  1  0  0  0
 59194  1  0  0  0
 60 64  1  0  0  0
 60195  1  0  0  0
 61 64  2  0  0  0
 62 63  2  0  0  0
 62 66  1  0  0  0
 64 65  1  0  0  0
 65196  1  0  0  0
 65197  1  0  0  0
 66 67  1  0  0  0
 66198  1  0  0  0
 67 68  1  0  0  0
 67 70  1  0  0  0
 67199  1  0  0  0
 68 69  2  0  0  0
 68 80  1  0  0  0
 70 71  1  0  0  0
 70200  1  0  0  0
 70201  1  0  0  0
 71 72  2  0  0  0
 71 73  1  0  0  0
 72 74  1  0  0  0
 72202  1  0  0  0
 73 75  2  0  0  0
 73 76  1  0  0  0
 74 75  1  0  0  0
 75 77  1  0  0  0
 76 78  2  0  0  0
 76203  1  0  0  0
 77 79  2  0  0  0
 77204  1  0  0  0
 78 79  1  0  0  0
 78205  1  0  0  0
 79206  1  0  0  0
 80 81  1  0  0  0
 80207  1  0  0  0
 81 82  1  0  0  0
 81 84  1  0  0  0
 81208  1  0  0  0
 82 83  2  0  0  0
 82 88  1  0  0  0
 84 85  1  0  0  0
 84209  1  0  0  0
 84210  1  0  0  0
 85 86  1  0  0  0
 85 87  1  0  0  0
 85211  1  0  0  0
 86212  1  0  0  0
 86213  1  0  0  0
 86214  1  0  0  0
 87215  1  0  0  0
 87216  1  0  0  0
 87217  1  0  0  0
 88 89  1  0  0  0
 88218  1  0  0  0
 89 90  1  0  0  0
 89 92  1  0  0  0
 89219  1  0  0  0
 90 91  2  0  0  0
 90102  1  0  0  0
 92 93  1  0  0  0
 92220  1  0  0  0
 92221  1  0  0  0
 93 94  2  0  0  0
 93 95  1  0  0  0
 94 96  1  0  0  0
 94222  1  0  0  0
 95 97  2  0  0  0
 95 98  1  0  0  0
 96 97  1  0  0  0
 97 99  1  0  0  0
 98100  2  0  0  0
 98223  1  0  0  0
 99101  2  0  0  0
 99224  1  0  0  0
100101  1  0  0  0
100225  1  0  0  0
101226  1  0  0  0
102103  1  0  0  0
102227  1  0  0  0
103104  1  0  0  0
103106  1  0  0  0
103228  1  0  0  0
104105  2  0  0  0
104111  1  0  0  0
106107  1  0  0  0
106229  1  0  0  0
106230  1  0  0  0
107108  1  0  0  0
107231  1  0  0  0
107232  1  0  0  0
108109  1  0  0  0
108233  1  0  0  0
108234  1  0  0  0
109110  1  0  0  0
109235  1  0  0  0
109236  1  0  0  0
110237  1  0  0  0
110238  1  0  0  0
110239  1  0  0  0
111112  1  0  0  0
111240  1  0  0  0
112113  1  0  0  0
112115  1  0  0  0
112241  1  0  0  0
113114  2  0  0  0
113120  1  0  0  0
115116  1  0  0  0
115242  1  0  0  0
115243  1  0  0  0
116117  1  0  0  0
116244  1  0  0  0
116245  1  0  0  0
117118  1  0  0  0
117246  1  0  0  0
117247  1  0  0  0
118119  1  0  0  0
118248  1  0  0  0
118249  1  0  0  0
119250  1  0  0  0
119251  1  0  0  0
119252  1  0  0  0
120121  1  0  0  0
120253  1  0  0  0
121122  1  0  0  0
121124  1  0  0  0
121254  1  0  0  0
122123  2  0  0  0
122129  1  0  0  0
124125  1  0  0  0
124255  1  0  0  0
124256  1  0  0  0
125126  1  0  0  0
125257  1  0  0  0
125258  1  0  0  0
126127  1  0  0  0
126259  1  0  0  0
126260  1  0  0  0
127128  1  0  0  0
127261  1  0  0  0
127262  1  0  0  0
128263  1  0  0  0
128264  1  0  0  0
128265  1  0  0  0
129130  1  0  0  0
129266  1  0  0  0
130131  1  0  0  0
130133  1  0  0  0
130267  1  0  0  0
131132  2  0  0  0
131138  1  0  0  0
133134  1  0  0  0
133268  1  0  0  0
133269  1  0  0  0
134135  1  0  0  0
134270  1  0  0  0
134271  1  0  0  0
135136  1  0  0  0
135272  1  0  0  0
135273  1  0  0  0
136137  1  0  0  0
136274  1  0  0  0
136275  1  0  0  0
137276  1  0  0  0
137277  1  0  0  0
137278  1  0  0  0
138279  1  0  0  0
M  CHG  5   1   1 110   1 119   1 128   1 137   1
M  END
> <s_m_source_file>
../2fx9_ligand.sdf

> <i_m_source_file_index>
1

> <s_epik_input>
W2NIXTFbY0hdW2NIXVtjSF1jKGMxMilbbkhdW2NIXWMyW0NIMl1bQ0BIXShbTkhdQyg9TylbQ0BASF0oW05IMytdKVtDSDJdQyg9TylbTkgyXSlDKD1PKVtOSF1bQ0BASF0oW0NIMl1jM1tjSF1bY0hdW2NIXVtjSF1bY0hdMylDKD1PKVtOSF1bQ0BASF00Qyg9TylbTkhdW0NAQEhdKFtDQEBIXShbQ0gzXSlbQ0gyXVtDSDNdKUMoPU8pW05IXVtDQEBIXShbQ0BIXShbT0hdKVtDSDNdKUMoPU8pW05IXVtDQEBIXShbQ0gyXVtDSDJdW0NIMl1bTkhdQyg9TylbQ0gyXVNbQ0gyXTQpQyg9TylbTkhdW0NAQEhdKFtDSDJdYzVbY0hdW25IXWMoYzU2KVtjSF1bY0hdW2NIXVtjSF02KUMoPU8pW05IXVtDQEBIXShbQ0gyXVtDSF0oW0NIM10pW0NIM10pQyg9TylbTkhdW0NAQEhdKFtDSDJdYzdbY0hdW25IXWMoYzc4KVtjSF1bY0hdW2NIXVtjSF04KUMoPU8pW05IXVtDQEBIXShbQ0gyXVtDSDJdW0NIMl1bQ0gyXVtOSDMrXSlDKD1PKVtOSF1bQ0BASF0oW0NIMl1bQ0gyXVtDSDJdW0NIMl1bTkgzK10pQyg9TylbTkhdW0NAQEhdKFtDSDJdW0NIMl1bQ0gyXVtDSDJdW05IMytdKUMoPU8pW05IXVtDQEhdKEMoPU8pW09IXSlbQ0gyXVtDSDJdW0NIMl1bQ0gyXVtOSDMrXQ==

> <s_epik_cmdline>
J2VwaWtfYXBwJywgJy1pbWFlJywgJ2xpZ2FuZF9wcm8ubWFlJywgJy1vbWFlJywgJ2xpZ2FuZF9wcmVwLm1hZScsICctbXMnLCAnMScsICctcGgnLCAnNycsICctcGh0JywgJzAuNScsICctbnQn

> <s_epik_pKa_notes>
Molecule size exceeds maximum supported for generating protonation states

$$$$
