2fxr_ligand
                    3D
 Schrodinger Suite 2020-3.
 79 83  0  0  1  0            999 V2000
    1.8100   18.3770   71.4840 C   0  0  0  0  0  0
   -0.3230   21.1540   70.4240 C   0  0  0  0  0  0
    3.0780   18.5930   71.1310 C   0  0  0  0  0  0
    0.7880   19.4620   71.6510 C   0  0  0  0  0  0
    0.6050   20.1570   70.3700 O   0  0  0  0  0  0
   -0.9670   21.4720   71.4340 O   0  0  0  0  0  0
   -1.4500   22.8230   68.9160 C   0  0  2  0  0  0
   -0.8320   23.9540   68.0420 C   0  0  0  0  0  0
   -0.4670   21.7330   69.1890 N   0  0  0  0  0  0
    0.3650   24.6560   68.7080 C   0  0  0  0  0  0
    0.9390   25.7870   67.8480 C   0  0  2  0  0  0
    1.5810   25.3580   66.5290 C   0  0  0  0  0  0
    2.5060   26.5180   66.1730 C   0  0  0  0  0  0
    2.5690   27.3610   67.4060 N   0  3  0  0  0  0
    2.0770   26.5030   68.5210 C   0  0  0  0  0  0
   -2.7390   22.1420   68.2560 C   0  0  2  0  0  0
   -3.6200   23.0780   67.8580 O   0  0  0  0  0  0
   -3.4040   21.2530   69.2830 C   0  0  0  0  0  0
   -4.4300   21.6110   70.0820 N   0  0  0  0  0  0
   -4.6540   20.4510   70.8580 O   0  0  0  0  0  0
   -3.7340   19.5200   70.4390 C   0  0  0  0  0  0
   -3.7360   18.1920   71.1030 C   0  0  0  0  0  0
   -5.0430   17.4360   70.9940 C   0  0  0  0  0  0
   -6.1540   17.7660   71.8320 C   0  0  0  0  0  0
   -7.3720   17.0500   71.7300 C   0  0  0  0  0  0
   -7.5070   15.9820   70.7870 C   0  0  0  0  0  0
   -6.4060   15.6450   69.9410 C   0  0  0  0  0  0
   -5.1880   16.3680   70.0470 C   0  0  0  0  0  0
   -8.7910   15.2530   70.7270 C   0  0  0  0  0  0
   -9.6270   15.4580   71.5750 O   0  0  0  0  0  0
   -8.9480   14.3600   69.6820 N   0  0  0  0  0  0
  -10.1290   13.5440   69.4380 C   0  0  0  0  0  0
  -10.1320   12.8710   68.0460 C   0  0  0  0  0  0
  -11.0750   11.7360   68.2690 C   0  0  0  0  0  0
  -11.7960   10.9820   67.3070 C   0  0  0  0  0  0
  -12.6400    9.9350   67.7680 C   0  0  0  0  0  0
  -12.7540    9.6580   69.1690 C   0  0  0  0  0  0
  -12.0230   10.4260   70.1250 C   0  0  0  0  0  0
  -11.1880   11.4610   69.6590 C   0  0  0  0  0  0
  -10.3290   12.3960   70.4630 C   0  0  0  0  0  0
   -2.9480   19.9570   69.4800 N   0  0  0  0  0  0
    1.4584   17.3518   71.6720 H   0  0  0  0  0  0
    3.4296   19.6182   70.9430 H   0  0  0  0  0  0
    3.7721   17.7459   71.0279 H   0  0  0  0  0  0
   -0.1673   19.0198   71.9701 H   0  0  0  0  0  0
    1.1334   20.1771   72.4121 H   0  0  0  0  0  0
   -1.6870   23.3091   69.8739 H   0  0  0  0  0  0
   -0.4788   23.5304   67.0903 H   0  0  0  0  0  0
   -1.5948   24.7207   67.8414 H   0  0  0  0  0  0
    0.1806   21.3614   68.3812 H   0  0  0  0  0  0
    0.0480   25.0897   69.6679 H   0  0  0  0  0  0
    1.1678   23.9248   68.8833 H   0  0  0  0  0  0
    0.0471   26.4111   67.6897 H   0  0  0  0  0  0
    2.1335   24.4187   66.6786 H   0  0  0  0  0  0
    0.7974   25.2059   65.7722 H   0  0  0  0  0  0
    3.4969   26.1262   65.8998 H   0  0  0  0  0  0
    2.0850   27.0752   65.3231 H   0  0  0  0  0  0
    3.6075   27.6793   67.5799 H   0  0  0  0  0  0
    1.9306   28.2474   67.2772 H   0  0  0  0  0  0
    1.6942   27.0742   69.3796 H   0  0  0  0  0  0
    2.8173   25.7682   68.8702 H   0  0  0  0  0  0
   -2.5508   21.6090   67.3123 H   0  0  0  0  0  0
   -3.3257   23.8268   67.1079 H   0  0  0  0  0  0
   -2.9604   17.5555   70.6521 H   0  0  0  0  0  0
   -3.5287   18.3182   72.1759 H   0  0  0  0  0  0
   -6.0627   18.5759   72.5558 H   0  0  0  0  0  0
   -8.2113   17.3140   72.3735 H   0  0  0  0  0  0
   -6.5004   14.8359   69.2168 H   0  0  0  0  0  0
   -4.3510   16.1076   69.3992 H   0  0  0  0  0  0
   -8.0840   14.2936   69.0044 H   0  0  0  0  0  0
  -10.8932   14.3293   69.5341 H   0  0  0  0  0  0
  -10.4856   13.5897   67.2920 H   0  0  0  0  0  0
   -9.1117   12.5467   67.7933 H   0  0  0  0  0  0
  -11.7051   11.1998   66.2429 H   0  0  0  0  0  0
  -13.2042    9.3390   67.0507 H   0  0  0  0  0  0
  -13.4055    8.8527   69.5084 H   0  0  0  0  0  0
  -12.1088   10.2165   71.1912 H   0  0  0  0  0  0
   -9.3506   11.9747   70.7372 H   0  0  0  0  0  0
  -10.8237   12.7900   71.3630 H   0  0  0  0  0  0
  1  3  2  0  0  0
  1  4  1  0  0  0
  1 42  1  0  0  0
  2  5  1  0  0  0
  2  6  2  0  0  0
  2  9  1  0  0  0
  3 43  1  0  0  0
  3 44  1  0  0  0
  4  5  1  0  0  0
  4 45  1  0  0  0
  4 46  1  0  0  0
  7  8  1  0  0  0
  7  9  1  0  0  0
  7 16  1  0  0  0
  7 47  1  0  0  0
  8 10  1  0  0  0
  8 48  1  0  0  0
  8 49  1  0  0  0
  9 50  1  0  0  0
 10 11  1  0  0  0
 10 51  1  0  0  0
 10 52  1  0  0  0
 11 12  1  0  0  0
 11 15  1  0  0  0
 11 53  1  0  0  0
 12 13  1  0  0  0
 12 54  1  0  0  0
 12 55  1  0  0  0
 13 14  1  0  0  0
 13 56  1  0  0  0
 13 57  1  0  0  0
 14 15  1  0  0  0
 14 58  1  0  0  0
 14 59  1  0  0  0
 15 60  1  0  0  0
 15 61  1  0  0  0
 16 17  1  0  0  0
 16 18  1  0  0  0
 16 62  1  0  0  0
 17 63  1  0  0  0
 18 19  2  0  0  0
 18 41  1  0  0  0
 19 20  1  0  0  0
 20 21  1  0  0  0
 21 22  1  0  0  0
 21 41  2  0  0  0
 22 23  1  0  0  0
 22 64  1  0  0  0
 22 65  1  0  0  0
 23 24  2  0  0  0
 23 28  1  0  0  0
 24 25  1  0  0  0
 24 66  1  0  0  0
 25 26  2  0  0  0
 25 67  1  0  0  0
 26 27  1  0  0  0
 26 29  1  0  0  0
 27 28  2  0  0  0
 27 68  1  0  0  0
 28 69  1  0  0  0
 29 30  2  0  0  0
 29 31  1  0  0  0
 31 32  1  0  0  0
 31 70  1  0  0  0
 32 33  1  0  0  0
 32 40  1  0  0  0
 32 71  1  0  0  0
 33 34  1  0  0  0
 33 72  1  0  0  0
 33 73  1  0  0  0
 34 35  2  0  0  0
 34 39  1  0  0  0
 35 36  1  0  0  0
 35 74  1  0  0  0
 36 37  2  0  0  0
 36 75  1  0  0  0
 37 38  1  0  0  0
 37 76  1  0  0  0
 38 39  2  0  0  0
 38 77  1  0  0  0
 39 40  1  0  0  0
 40 78  1  0  0  0
 40 79  1  0  0  0
M  CHG  1  14   1
M  END
> <s_m_source_file>
../2fxr_ligand.sdf

> <i_m_source_file_index>
1

> <s_epik_input>
W0NIMl0xW05IMitdW0NIMl1bQ0gyXVtDQEhdMVtDSDJdW0NIMl1bQ0BIXShbTkhdQyg9TylPW0NIMl1bQ0hdPVtDSDJdKVtDQEhdKFtPSF0pYzJub2MobjIpW0NIMl1jM1tjSF1bY0hdYyhbY0hdW2NIXTMpQyg9TylbTkhdW0NIXShbQ0gyXTQpW0NIMl1jKGM0NSlbY0hdW2NIXVtjSF1bY0hdNQ==

> <s_epik_cmdline>
J2VwaWtfYXBwJywgJy1pbWFlJywgJ2xpZ2FuZF9wcm8ubWFlJywgJy1vbWFlJywgJ2xpZ2FuZF9wcmVwLm1hZScsICctbXMnLCAnMScsICctcGgnLCAnNycsICctcGh0JywgJzAuNScsICctbnQn

> <r_lp_tautomer_probability>
1

> <r_epik_Ionization_Penalty>
  0.0002

> <r_epik_Ionization_Penalty_Charging>
  0.0001

> <r_epik_Ionization_Penalty_Neutral>
  0.0001

> <r_epik_State_Penalty>
 -0.0000

> <r_epik_Charging_Adjusted_Penalty>
5.34756117415586e-05

> <i_epik_Tot_Q>
1

> <i_epik_Tot_abs_Q>
1

> <s_epik_Chemistry_Notes>
This compound has an ester and may undergo hydrolysis at high or low pH.

$$$$
