2fxu_ligand
                    3D
 Schrodinger Suite 2020-3.
118120  0  0  1  0            999 V2000
   14.2060  -12.9030   37.1060 O   0  0  0  0  0  0
   14.1450  -13.6130   36.1170 C   0  0  0  0  0  0
   14.9100  -13.2100   34.8880 C   0  0  1  0  0  0
   14.2890  -11.9090   34.3280 C   0  0  0  0  0  0
   16.4200  -13.1110   35.1420 C   0  0  1  0  0  0
   16.7020  -11.9690   35.9460 O   0  0  0  0  0  0
   16.9360  -14.4070   35.7850 C   0  0  0  0  0  0
   18.3900  -14.3980   35.9460 N   0  0  0  0  0  0
   19.2530  -14.8950   35.0720 C   0  0  0  0  0  0
   18.8500  -15.3550   34.0040 O   0  0  0  0  0  0
   20.7270  -14.8180   35.3960 C   0  0  0  0  0  0
   21.3760  -16.1950   35.3760 C   0  0  1  0  0  0
   22.8710  -16.1350   35.6890 C   0  0  1  0  0  0
   23.6060  -15.1710   34.7820 C   0  0  0  0  0  0
   23.1220  -15.8010   37.1530 C   0  0  0  0  0  0
   22.4060  -16.7970   38.0370 C   0  0  0  0  0  0
   20.7060  -17.0560   36.3090 O   0  0  0  0  0  0
   20.9190  -16.8690   37.7130 C   0  0  1  0  0  0
   20.3280  -18.0630   38.4590 C   0  0  0  0  0  0
   18.8430  -17.9100   38.7180 C   0  0  0  0  0  0
   18.3510  -16.7980   38.7610 O   0  0  0  0  0  0
   17.9560  -19.0770   38.9350 C   0  0  0  0  0  0
   18.3940  -20.3380   38.9170 C   0  0  0  0  0  0
   17.4290  -21.4790   39.1430 C   0  0  0  0  0  0
   13.4460  -14.7330   36.0670 N   0  0  0  0  0  0
   12.6480  -15.2540   37.1700 C   0  0  0  0  0  0
   11.5820  -16.1680   36.5890 C   0  0  0  0  0  0
   10.5960  -16.6390   37.6570 C   0  0  0  0  0  0
    9.5280  -17.5070   37.0230 C   0  0  2  0  0  0
    8.4390  -17.9690   37.9930 C   0  0  1  0  0  0
    7.6670  -16.7860   38.5830 C   0  0  0  0  0  0
    7.5490  -18.9770   37.2710 C   0  0  0  0  0  0
    8.3760  -20.1140   36.6740 C   0  0  0  0  0  0
    9.4710  -19.5690   35.7580 C   0  0  1  0  0  0
   10.2180  -18.6530   36.5480 O   0  0  0  0  0  0
   10.4530  -20.6510   35.3200 C   0  0  0  0  0  0
   11.4970  -20.1190   34.3430 C   0  0  0  0  0  0
   10.7760  -19.4760   33.1660 C   0  0  0  0  0  0
    9.8600  -18.3890   33.6990 C   0  0  2  0  0  0
    8.8850  -18.9710   34.5970 O   0  0  0  0  0  0
    9.1100  -17.7360   32.5690 C   0  0  0  0  0  0
    8.3550  -16.4850   33.0120 C   0  0  0  0  0  0
    7.7170  -15.7120   31.8470 C   0  0  2  0  0  0
    7.1380  -14.3600   32.2750 C   0  0  0  0  0  0
    6.6240  -16.5560   31.2220 C   0  0  0  0  0  0
    6.6480  -17.0360   29.9610 C   0  0  0  0  0  0
    7.7600  -16.7640   28.9730 C   0  0  0  0  0  0
    5.5000  -17.8720   29.4540 C   0  0  2  0  0  0
    5.9740  -19.3010   29.2200 C   0  0  0  0  0  0
    5.0180  -17.3110   28.2270 O   0  0  0  0  0  0
   14.8100  -14.0139   34.1438 H   0  0  0  0  0  0
   13.2100  -12.0553   34.1721 H   0  0  0  0  0  0
   14.7671  -11.6574   33.3698 H   0  0  0  0  0  0
   14.4483  -11.0890   35.0438 H   0  0  0  0  0  0
   16.9746  -12.9139   34.2127 H   0  0  0  0  0  0
   16.3899  -10.9692   35.6100 H   0  0  0  0  0  0
   16.4812  -14.5294   36.7791 H   0  0  0  0  0  0
   16.6661  -15.2639   35.1503 H   0  0  0  0  0  0
   18.8410  -13.9547   36.8461 H   0  0  0  0  0  0
   21.2331  -14.1841   34.6530 H   0  0  0  0  0  0
   20.8600  -14.3853   36.3985 H   0  0  0  0  0  0
   21.2379  -16.6469   34.3827 H   0  0  0  0  0  0
   23.2825  -17.1359   35.4917 H   0  0  0  0  0  0
   23.4090  -15.4329   33.7320 H   0  0  0  0  0  0
   24.6864  -15.2336   34.9790 H   0  0  0  0  0  0
   23.2566  -14.1462   34.9761 H   0  0  0  0  0  0
   24.2018  -15.8432   37.3588 H   0  0  0  0  0  0
   22.7471  -14.7894   37.3678 H   0  0  0  0  0  0
   22.8415  -17.7965   37.8907 H   0  0  0  0  0  0
   22.5173  -16.4991   39.0900 H   0  0  0  0  0  0
   20.4227  -15.9178   37.9557 H   0  0  0  0  0  0
   20.4750  -18.9764   37.8640 H   0  0  0  0  0  0
   20.8310  -18.1736   39.4310 H   0  0  0  0  0  0
   16.8917  -18.8670   39.1172 H   0  0  0  0  0  0
   19.4588  -20.5479   38.7375 H   0  0  0  0  0  0
   17.9722  -22.4342   39.0917 H   0  0  0  0  0  0
   16.6491  -21.4586   38.3676 H   0  0  0  0  0  0
   16.9635  -21.3746   40.1342 H   0  0  0  0  0  0
   13.4929  -15.2818   35.1149 H   0  0  0  0  0  0
   13.2964  -15.8165   37.8579 H   0  0  0  0  0  0
   12.1784  -14.4183   37.7096 H   0  0  0  0  0  0
   11.0193  -15.6282   35.8131 H   0  0  0  0  0  0
   12.0604  -17.0537   36.1456 H   0  0  0  0  0  0
   11.1327  -17.2220   38.4200 H   0  0  0  0  0  0
   10.1219  -15.7658   38.1290 H   0  0  0  0  0  0
    9.0395  -16.9667   36.1987 H   0  0  0  0  0  0
    8.8905  -18.4710   38.8614 H   0  0  0  0  0  0
    8.3688  -16.1042   39.0855 H   0  0  0  0  0  0
    6.9300  -17.1556   39.3112 H   0  0  0  0  0  0
    7.1475  -16.2482   37.7762 H   0  0  0  0  0  0
    6.8267  -19.4039   37.9823 H   0  0  0  0  0  0
    7.0077  -18.4717   36.4576 H   0  0  0  0  0  0
    8.8470  -20.6895   37.4845 H   0  0  0  0  0  0
    7.7210  -20.7751   36.0876 H   0  0  0  0  0  0
   10.9794  -21.0468   36.2010 H   0  0  0  0  0  0
    9.9042  -21.4653   34.8243 H   0  0  0  0  0  0
   12.1269  -19.3730   34.8497 H   0  0  0  0  0  0
   12.1252  -20.9498   33.9893 H   0  0  0  0  0  0
   11.5147  -19.0405   32.4771 H   0  0  0  0  0  0
   10.1858  -20.2385   32.6366 H   0  0  0  0  0  0
   10.4504  -17.6475   34.2573 H   0  0  0  0  0  0
    9.8183  -17.4418   31.7805 H   0  0  0  0  0  0
    8.3768  -18.4452   32.1573 H   0  0  0  0  0  0
    7.5465  -16.7696   33.7014 H   0  0  0  0  0  0
    9.0480  -15.8000   33.5225 H   0  0  0  0  0  0
    8.5063  -15.5097   31.1081 H   0  0  0  0  0  0
    7.9318  -13.7482   32.7284 H   0  0  0  0  0  0
    6.3347  -14.5210   33.0090 H   0  0  0  0  0  0
    6.7318  -13.8400   31.3949 H   0  0  0  0  0  0
    5.7661  -16.7708   31.8760 H   0  0  0  0  0  0
    8.5352  -16.1492   29.4536 H   0  0  0  0  0  0
    7.3541  -16.2277   28.1026 H   0  0  0  0  0  0
    8.1996  -17.7172   28.6441 H   0  0  0  0  0  0
    4.6566  -17.8483   30.1598 H   0  0  0  0  0  0
    6.3423  -19.7247   30.1660 H   0  0  0  0  0  0
    6.7856  -19.3011   28.4775 H   0  0  0  0  0  0
    5.1362  -19.9088   28.8476 H   0  0  0  0  0  0
    4.6338  -16.2805   28.2069 H   0  0  0  0  0  0
  1  2  2  0  0  0
  2  3  1  0  0  0
  2 25  1  0  0  0
  3  4  1  0  0  0
  3  5  1  0  0  0
  3 51  1  0  0  0
  4 52  1  0  0  0
  4 53  1  0  0  0
  4 54  1  0  0  0
  5  6  1  0  0  0
  5  7  1  0  0  0
  5 55  1  0  0  0
  6 56  1  0  0  0
  7  8  1  0  0  0
  7 57  1  0  0  0
  7 58  1  0  0  0
  8  9  1  0  0  0
  8 59  1  0  0  0
  9 10  2  0  0  0
  9 11  1  0  0  0
 11 12  1  0  0  0
 11 60  1  0  0  0
 11 61  1  0  0  0
 12 13  1  0  0  0
 12 17  1  0  0  0
 12 62  1  0  0  0
 13 14  1  0  0  0
 13 15  1  0  0  0
 13 63  1  0  0  0
 14 64  1  0  0  0
 14 65  1  0  0  0
 14 66  1  0  0  0
 15 16  1  0  0  0
 15 67  1  0  0  0
 15 68  1  0  0  0
 16 18  1  0  0  0
 16 69  1  0  0  0
 16 70  1  0  0  0
 17 18  1  0  0  0
 18 19  1  0  0  0
 18 71  1  0  0  0
 19 20  1  0  0  0
 19 72  1  0  0  0
 19 73  1  0  0  0
 20 21  2  0  0  0
 20 22  1  0  0  0
 22 23  2  0  0  0
 22 74  1  0  0  0
 23 24  1  0  0  0
 23 75  1  0  0  0
 24 76  1  0  0  0
 24 77  1  0  0  0
 24 78  1  0  0  0
 25 26  1  0  0  0
 25 79  1  0  0  0
 26 27  1  0  0  0
 26 80  1  0  0  0
 26 81  1  0  0  0
 27 28  1  0  0  0
 27 82  1  0  0  0
 27 83  1  0  0  0
 28 29  1  0  0  0
 28 84  1  0  0  0
 28 85  1  0  0  0
 29 30  1  0  0  0
 29 35  1  0  0  0
 29 86  1  0  0  0
 30 31  1  0  0  0
 30 32  1  0  0  0
 30 87  1  0  0  0
 31 88  1  0  0  0
 31 89  1  0  0  0
 31 90  1  0  0  0
 32 33  1  0  0  0
 32 91  1  0  0  0
 32 92  1  0  0  0
 33 34  1  0  0  0
 33 93  1  0  0  0
 33 94  1  0  0  0
 34 35  1  0  0  0
 34 36  1  0  0  0
 34 40  1  0  0  0
 36 37  1  0  0  0
 36 95  1  0  0  0
 36 96  1  0  0  0
 37 38  1  0  0  0
 37 97  1  0  0  0
 37 98  1  0  0  0
 38 39  1  0  0  0
 38 99  1  0  0  0
 38100  1  0  0  0
 39 40  1  0  0  0
 39 41  1  0  0  0
 39101  1  0  0  0
 41 42  1  0  0  0
 41102  1  0  0  0
 41103  1  0  0  0
 42 43  1  0  0  0
 42104  1  0  0  0
 42105  1  0  0  0
 43 44  1  0  0  0
 43 45  1  0  0  0
 43106  1  0  0  0
 44107  1  0  0  0
 44108  1  0  0  0
 44109  1  0  0  0
 45 46  2  0  0  0
 45110  1  0  0  0
 46 47  1  0  0  0
 46 48  1  0  0  0
 47111  1  0  0  0
 47112  1  0  0  0
 47113  1  0  0  0
 48 49  1  0  0  0
 48 50  1  0  0  0
 48114  1  0  0  0
 49115  1  0  0  0
 49116  1  0  0  0
 49117  1  0  0  0
 50118  1  0  0  0
M  END
> <s_m_source_file>
../2fxu_ligand.sdf

> <i_m_source_file_index>
1

> <s_epik_input>
W0NIM11cW0NIXT1bQ0hdXEMoPU8pW0NIMl1bQ0BIXShPMSlbQ0gyXVtDSDJdW0NASF0oW0NIM10pW0NAQEhdMVtDSDJdQyg9TylbTkhdW0NIMl1bQ0BIXShbT0hdKVtDQEhdKFtDSDNdKUMoPU8pW05IXVtDSDJdW0NIMl1bQ0gyXVtDQEBIXShPMilbQ0BASF0oW0NIM10pW0NIMl1bQ0gyXVtDQF0yM1tDSDJdW0NIMl1bQ0gyXVtDQEhdKE8zKVtDSDJdW0NIMl1bQ0BIXShbQ0gzXSkvW0NIXT1DKFxbQ0gzXSlbQ0BIXShbQ0gzXSlbT0hd

> <s_epik_cmdline>
J2VwaWtfYXBwJywgJy1pbWFlJywgJ2xpZ2FuZF9wcm8ubWFlJywgJy1vbWFlJywgJ2xpZ2FuZF9wcmVwLm1hZScsICctbXMnLCAnMScsICctcGgnLCAnNycsICctcGh0JywgJzAuNScsICctbnQn

> <r_lp_tautomer_probability>
1

> <r_epik_Ionization_Penalty>
  0.0000

> <r_epik_Ionization_Penalty_Charging>
  0.0000

> <r_epik_Ionization_Penalty_Neutral>
  0.0000

> <r_epik_State_Penalty>
 -0.0000

> <r_epik_Charging_Adjusted_Penalty>
0

> <i_epik_Tot_Q>
0

> <i_epik_Tot_abs_Q>
0

$$$$
