2fxv_ligand
                    3D
 Schrodinger Suite 2020-3.
 36 38  0  0  1  0            999 V2000
   12.6590   14.4740    3.5030 P   0  0  0  0  0  0
   12.2320   13.9340    4.9310 O   0  5  0  0  0  0
   13.1780   13.3790    2.6650 O   0  5  0  0  0  0
   11.4670   15.1680    3.0130 O   0  0  0  0  0  0
   13.7590   15.5460    3.7430 O   0  0  0  0  0  0
   13.5470   16.7260    4.4830 C   0  0  0  0  0  0
   14.5560   17.0370    5.5450 C   0  0  1  0  0  0
   15.7680   17.2010    4.7830 O   0  0  0  0  0  0
   14.3770   18.3820    6.3030 C   0  0  1  0  0  0
   14.3820   18.0940    7.7590 O   0  0  0  0  0  0
   15.5370   19.2450    5.8950 C   0  0  1  0  0  0
   16.4000   19.6660    6.9470 O   0  0  0  0  0  0
   16.3470   18.5020    4.8670 C   0  0  2  0  0  0
   16.2410   18.9010    3.4150 N   0  0  0  0  0  0
   15.7090   18.3920    2.2660 C   0  0  0  0  0  0
   15.8760   19.1140    1.1880 N   0  0  0  0  0  0
   16.5800   20.2140    1.5990 C   0  0  0  0  0  0
   17.0800   21.3340    0.9930 C   0  0  0  0  0  0
   16.9360   21.5310   -0.2320 O   0  0  0  0  0  0
   17.7950   22.3300    1.7430 N   0  0  0  0  0  0
   18.0170   22.1990    3.1420 C   0  0  0  0  0  0
   18.6750   23.1200    3.8290 N   0  0  0  0  0  0
   17.5220   21.0620    3.7920 N   0  0  0  0  0  0
   16.8060   20.0780    3.0000 C   0  0  0  0  0  0
   13.5492   17.5906    3.8030 H   0  0  0  0  0  0
   12.5766   16.6668    4.9976 H   0  0  0  0  0  0
   14.5395   16.2153    6.2761 H   0  0  0  0  0  0
   13.4388   18.9195    6.1006 H   0  0  0  0  0  0
   13.5890   17.4717    8.1993 H   0  0  0  0  0  0
   15.1226   20.2023    5.5460 H   0  0  0  0  0  0
   15.9933   20.2292    7.7999 H   0  0  0  0  0  0
   17.3833   18.6122    5.2191 H   0  0  0  0  0  0
   15.1768   17.4409    2.2476 H   0  0  0  0  0  0
   18.1876   23.2237    1.2359 H   0  0  0  0  0  0
   19.0640   24.0134    3.3187 H   0  0  0  0  0  0
   18.8326   22.9917    4.9101 H   0  0  0  0  0  0
  1  2  1  0  0  0
  1  3  1  0  0  0
  1  4  2  0  0  0
  1  5  1  0  0  0
  5  6  1  0  0  0
  6  7  1  0  0  0
  6 25  1  0  0  0
  6 26  1  0  0  0
  7  8  1  0  0  0
  7  9  1  0  0  0
  7 27  1  0  0  0
  8 13  1  0  0  0
  9 10  1  0  0  0
  9 11  1  0  0  0
  9 28  1  0  0  0
 10 29  1  0  0  0
 11 12  1  0  0  0
 11 13  1  0  0  0
 11 30  1  0  0  0
 12 31  1  0  0  0
 13 14  1  0  0  0
 13 32  1  0  0  0
 14 15  1  0  0  0
 14 24  1  0  0  0
 15 16  2  0  0  0
 15 33  1  0  0  0
 16 17  1  0  0  0
 17 18  1  0  0  0
 17 24  2  0  0  0
 18 19  2  0  0  0
 18 20  1  0  0  0
 20 21  1  0  0  0
 20 34  1  0  0  0
 21 22  1  0  0  0
 21 23  2  0  0  0
 22 35  1  0  0  0
 22 36  1  0  0  0
 23 24  1  0  0  0
M  CHG  2   2  -1   3  -1
M  END
> <s_m_source_file>
../2fxv_ligand.sdf

> <i_m_source_file_index>
1

> <s_epik_input>
W09IXVAoPU8pKFtPSF0pT1tDSDJdW0NASF0xT1tDQEhdKFtDQEhdKFtPSF0pW0NAQEhdMVtPSF0pbihbY0hdbjIpYyhjMjMpbmMoW05IMl0pW25IXWMzPU8=

> <s_epik_cmdline>
J2VwaWtfYXBwJywgJy1pbWFlJywgJ2xpZ2FuZF9wcm8ubWFlJywgJy1vbWFlJywgJ2xpZ2FuZF9wcmVwLm1hZScsICctbXMnLCAnMScsICctcGgnLCAnNycsICctcGh0JywgJzAuNScsICctbnQn

> <r_lp_tautomer_probability>
0.999940409345307

> <r_epik_Ionization_Penalty>
  0.1039

> <r_epik_Ionization_Penalty_Charging>
  0.1039

> <r_epik_Ionization_Penalty_Neutral>
  0.0001

> <r_epik_State_Penalty>
  0.0920

> <r_epik_Charging_Adjusted_Penalty>
0.19587073098791

> <i_epik_Tot_Q>
-2

> <i_epik_Tot_abs_Q>
2

> <s_epik_Chemistry_Notes>
This compound contains an acetal/aminal-like group ( X-CH(R)-Y where X, Y are N, S, or O) that may be acid/base labile, releasing an aldehyde.

$$$$
