2fys_ligand
                    3D
 Schrodinger Suite 2020-3.
201201  0  0  1  0            999 V2000
   18.1600   17.8470   -5.9130 N   0  3  0  0  0  0
   17.1440   17.4130   -4.9120 C   0  0  2  0  0  0
   16.6170   16.0100   -5.1930 C   0  0  0  0  0  0
   17.1160   15.3080   -6.0740 O   0  0  0  0  0  0
   15.9730   18.4020   -4.8850 C   0  0  0  0  0  0
   16.2130   19.6530   -4.0460 C   0  0  0  0  0  0
   16.2020   19.3370   -2.5500 C   0  0  0  0  0  0
   17.3070   18.4670   -2.1530 N   0  0  0  0  0  0
   17.4710   17.9690   -0.9300 C   0  0  0  0  0  0
   16.5980   18.2510    0.0280 N   0  0  0  0  0  0
   18.5110   17.1910   -0.6620 N   0  0  0  0  0  0
   15.6080   15.6130   -4.4230 N   0  0  0  0  0  0
   14.9740   14.3070   -4.5600 C   0  0  2  0  0  0
   15.9410   13.1410   -4.3590 C   0  0  0  0  0  0
   17.1630   13.3060   -4.4090 O   0  0  0  0  0  0
   14.3040   14.1910   -5.9330 C   0  0  0  0  0  0
   13.3410   13.0140   -6.0730 C   0  0  0  0  0  0
   11.9660   13.2850   -5.4500 C   0  0  0  0  0  0
   12.0050   13.5230   -4.0070 N   0  0  0  0  0  0
   12.1070   14.7230   -3.4400 C   0  0  0  0  0  0
   12.1810   15.8150   -4.1890 N   0  0  0  0  0  0
   12.1310   14.8310   -2.1190 N   0  0  0  0  0  0
   15.3720   11.9610   -4.1340 N   0  0  0  0  0  0
   16.1350   10.7370   -3.9120 C   0  0  2  0  0  0
   17.0670   10.4320   -5.0840 C   0  0  0  0  0  0
   16.6970    9.7150   -6.0150 O   0  0  0  0  0  0
   15.1650    9.5700   -3.6910 C   0  0  0  0  0  0
   15.7120    8.2200   -3.2290 C   0  0  0  0  0  0
   16.5260    8.3890   -1.9550 C   0  0  0  0  0  0
   14.5460    7.2710   -2.9960 C   0  0  0  0  0  0
   18.2790   10.9800   -5.0270 N   0  0  0  0  0  0
   19.2710   10.7760   -6.0790 C   0  0  2  0  0  0
   20.6940   10.7120   -5.5350 C   0  0  0  0  0  0
   20.9160   10.8160   -4.3280 O   0  0  0  0  0  0
   19.1800   11.8980   -7.1220 C   0  0  0  0  0  0
   18.0820   11.7120   -8.1590 C   0  0  0  0  0  0
   18.3180   10.4990   -9.0410 C   0  0  0  0  0  0
   19.3670   10.3750   -9.6770 O   0  0  0  0  0  0
   17.3420    9.6000   -9.0870 N   0  0  0  0  0  0
   21.6470   10.5370   -6.4460 N   0  0  0  0  0  0
   23.0680   10.4550   -6.1170 C   0  0  2  0  0  0
   23.4540    9.0970   -5.5280 C   0  0  0  0  0  0
   23.7450    8.9870   -4.3360 O   0  0  0  0  0  0
   23.4540   11.5750   -5.1430 C   0  0  0  0  0  0
   24.9560   11.8240   -5.0370 C   0  0  0  0  0  0
   25.5620   12.2860   -6.3610 C   0  0  0  0  0  0
   24.9880   13.6230   -6.8240 C   0  0  0  0  0  0
   23.5530   13.5430   -7.2270 N   0  3  0  0  0  0
   23.4550    8.0650   -6.3720 N   0  0  0  0  0  0
   23.8180    6.7360   -5.9100 C   0  0  0  0  0  0
   23.5490    5.5970   -6.8820 C   0  0  0  0  0  0
   22.5490    5.6080   -7.5980 O   0  0  0  0  0  0
   24.4480    4.6130   -6.8950 N   0  0  0  0  0  0
   24.3440    3.4360   -7.7610 C   0  0  2  0  0  0
   25.3830    2.3670   -7.3780 C   0  0  0  0  0  0
   26.5720    2.6680   -7.2440 O   0  0  0  0  0  0
   24.5360    3.8340   -9.2300 C   0  0  0  0  0  0
   23.3050    4.4940   -9.8280 C   0  0  0  0  0  0
   22.2260    3.8990   -9.8690 O   0  0  0  0  0  0
   23.4620    5.7270  -10.2960 N   0  0  0  0  0  0
   24.9290    1.1240   -7.2140 N   0  0  0  0  0  0
   25.8080    0.0060   -6.8460 C   0  0  2  0  0  0
   25.1440   -1.3560   -7.0830 C   0  0  0  0  0  0
   24.4300   -1.8560   -6.2110 O   0  0  0  0  0  0
   26.1920    0.0920   -5.3630 C   0  0  0  0  0  0
   27.1320    1.1700   -4.8180 C   0  0  0  0  0  0
   27.0050    1.2130   -3.3070 C   0  0  0  0  0  0
   28.5670    0.8840   -5.2290 C   0  0  0  0  0  0
   25.3700   -1.9790   -8.2560 N   0  0  0  0  0  0
   24.7460   -3.2840   -8.5010 C   0  0  2  0  0  0
   25.2170   -4.3120   -7.4730 C   0  0  0  0  0  0
   26.4190   -4.4980   -7.2700 O   0  0  0  0  0  0
   25.1950   -3.6160   -9.9230 C   0  0  0  0  0  0
   25.3160   -2.2550  -10.5540 C   0  0  0  0  0  0
   26.0500   -1.5030   -9.4710 C   0  0  0  0  0  0
   24.2580   -4.9690   -6.8250 N   0  0  0  0  0  0
   24.5580   -5.9630   -5.8000 C   0  0  2  0  0  0
   23.6720   -7.2050   -5.8870 C   0  0  0  0  0  0
   22.8090   -7.3110   -6.7600 O   0  0  0  0  0  0
   24.4170   -5.3490   -4.3860 C   0  0  0  0  0  0
   25.5930   -4.4270   -4.0960 C   0  0  0  0  0  0
   23.1130   -4.5680   -4.2890 C   0  0  0  0  0  0
   23.8990   -8.1410   -4.9680 N   0  0  0  0  0  0
   23.1450   -9.3910   -4.9140 C   0  0  2  0  0  0
   21.6420   -9.1350   -4.8320 C   0  0  0  0  0  0
   20.8990   -9.7280   -5.6410 O   0  0  0  0  0  0
   23.5930  -10.2210   -3.7060 C   0  0  0  0  0  0
   25.1030  -10.4020   -3.6060 C   0  0  0  0  0  0
   25.4950  -11.2500   -2.4020 C   0  0  0  0  0  0
   25.2530  -12.6760   -2.6140 N   0  0  0  0  0  0
   25.9360  -13.4340   -3.4680 C   0  0  0  0  0  0
   26.9120  -12.9090   -4.1990 N   0  0  0  0  0  0
   25.6470  -14.7230   -3.5860 N   0  0  0  0  0  0
   21.1386   -8.3036   -3.9241 O   0  0  0  0  0  0
   18.5073   18.8613   -5.6668 H   0  0  0  0  0  0
   17.7093   17.8472   -6.9164 H   0  0  0  0  0  0
   19.0130   17.1527   -5.8943 H   0  0  0  0  0  0
   17.6692   17.3976   -3.9456 H   0  0  0  0  0  0
   15.7572   18.7427   -5.9084 H   0  0  0  0  0  0
   15.0838   17.9062   -4.4685 H   0  0  0  0  0  0
   17.1917   20.0845   -4.3028 H   0  0  0  0  0  0
   15.4222   20.3896   -4.2514 H   0  0  0  0  0  0
   16.2851   20.2723   -1.9771 H   0  0  0  0  0  0
   15.2614   18.8297   -2.2893 H   0  0  0  0  0  0
   18.0747   18.1829   -2.8878 H   0  0  0  0  0  0
   15.7334   18.8957   -0.1882 H   0  0  0  0  0  0
   16.7387   17.8401    1.0386 H   0  0  0  0  0  0
   19.2384   16.9536   -1.4523 H   0  0  0  0  0  0
   15.2542   16.3185   -3.6567 H   0  0  0  0  0  0
   14.2385   14.2880   -3.7423 H   0  0  0  0  0  0
   13.7241   15.1034   -6.1363 H   0  0  0  0  0  0
   15.0748   14.0662   -6.7078 H   0  0  0  0  0  0
   13.1860   12.7919   -7.1391 H   0  0  0  0  0  0
   13.7656   12.1313   -5.5725 H   0  0  0  0  0  0
   11.5222   14.1776   -5.9151 H   0  0  0  0  0  0
   11.3096   12.4187   -5.6192 H   0  0  0  0  0  0
   11.9485   12.6755   -3.3081 H   0  0  0  0  0  0
   12.1616   15.7321   -5.2857 H   0  0  0  0  0  0
   12.2618   16.8036   -3.7135 H   0  0  0  0  0  0
   12.0700   13.9291   -1.4922 H   0  0  0  0  0  0
   14.2724   11.9339   -4.1197 H   0  0  0  0  0  0
   16.7461   10.9262   -3.0171 H   0  0  0  0  0  0
   14.4303    9.8449   -2.9199 H   0  0  0  0  0  0
   14.6419    9.3447   -4.6321 H   0  0  0  0  0  0
   16.3749    7.7997   -3.9996 H   0  0  0  0  0  0
   17.3630    9.0775   -2.1433 H   0  0  0  0  0  0
   16.9192    7.4116   -1.6388 H   0  0  0  0  0  0
   15.8843    8.8002   -1.1618 H   0  0  0  0  0  0
   13.9704    7.1619   -3.9270 H   0  0  0  0  0  0
   13.8948    7.6768   -2.2078 H   0  0  0  0  0  0
   14.9297    6.2882   -2.6848 H   0  0  0  0  0  0
   18.5236   11.6025   -4.1536 H   0  0  0  0  0  0
   19.0075    9.7978   -6.5076 H   0  0  0  0  0  0
   18.9814   12.8541   -6.6156 H   0  0  0  0  0  0
   20.1301   11.9650   -7.6724 H   0  0  0  0  0  0
   17.1159   11.5790   -7.6502 H   0  0  0  0  0  0
   18.0358   12.5994   -8.8074 H   0  0  0  0  0  0
   16.4238    9.7546   -8.5013 H   0  0  0  0  0  0
   17.4516    8.7006   -9.7108 H   0  0  0  0  0  0
   21.3190   10.4530   -7.4926 H   0  0  0  0  0  0
   23.5769   10.5773   -7.0845 H   0  0  0  0  0  0
   22.9932   12.5192   -5.4688 H   0  0  0  0  0  0
   23.0974   11.3222   -4.1336 H   0  0  0  0  0  0
   25.1462   12.6038   -4.2849 H   0  0  0  0  0  0
   25.4616   10.8942   -4.7371 H   0  0  0  0  0  0
   26.6496   12.4033   -6.2453 H   0  0  0  0  0  0
   25.3548   11.5376   -7.1401 H   0  0  0  0  0  0
   25.0618   14.3562   -6.0073 H   0  0  0  0  0  0
   25.5562   13.9845   -7.6938 H   0  0  0  0  0  0
   23.2063   14.5365   -7.5476 H   0  0  0  0  0  0
   22.9505   13.2027   -6.3719 H   0  0  0  0  0  0
   23.4448   12.8309   -8.0584 H   0  0  0  0  0  0
   23.1785    8.2249   -7.4246 H   0  0  0  0  0  0
   24.8960    6.7049   -5.6931 H   0  0  0  0  0  0
   23.2532    6.4984   -4.9965 H   0  0  0  0  0  0
   25.3016    4.7175   -6.2092 H   0  0  0  0  0  0
   23.3274    3.0507   -7.5935 H   0  0  0  0  0  0
   25.3710    4.5455   -9.3110 H   0  0  0  0  0  0
   24.7593    2.9373   -9.8267 H   0  0  0  0  0  0
   24.4452    6.2167  -10.2369 H   0  0  0  0  0  0
   22.6088    6.2585  -10.7427 H   0  0  0  0  0  0
   23.8532    0.9512   -7.3647 H   0  0  0  0  0  0
   26.6797    0.1248   -7.5063 H   0  0  0  0  0  0
   25.2851    0.2353   -4.7572 H   0  0  0  0  0  0
   26.6925   -0.8392   -5.0592 H   0  0  0  0  0  0
   26.8584    2.1523   -5.2307 H   0  0  0  0  0  0
   25.9603    1.4209   -3.0326 H   0  0  0  0  0  0
   27.6540    2.0060   -2.9069 H   0  0  0  0  0  0
   27.3087    0.2433   -2.8858 H   0  0  0  0  0  0
   28.6357    0.8574   -6.3265 H   0  0  0  0  0  0
   28.8793   -0.0875   -4.8184 H   0  0  0  0  0  0
   29.2246    1.6752   -4.8395 H   0  0  0  0  0  0
   23.6518   -3.2450   -8.3954 H   0  0  0  0  0  0
   26.1523   -4.1567   -9.8884 H   0  0  0  0  0  0
   24.4357   -4.2457  -10.4097 H   0  0  0  0  0  0
   25.8813   -2.3357  -11.4942 H   0  0  0  0  0  0
   24.3120   -1.8571  -10.7629 H   0  0  0  0  0  0
   25.9370   -0.4117   -9.5508 H   0  0  0  0  0  0
   27.1187   -1.7580   -9.4169 H   0  0  0  0  0  0
   23.2128   -4.7431   -7.0829 H   0  0  0  0  0  0
   25.5938   -6.2487   -6.0357 H   0  0  0  0  0  0
   24.4074   -6.1492   -3.6313 H   0  0  0  0  0  0
   26.5315   -4.9963   -4.1675 H   0  0  0  0  0  0
   25.4922   -4.0119   -3.0823 H   0  0  0  0  0  0
   25.6050   -3.6066   -4.8287 H   0  0  0  0  0  0
   22.2672   -5.2391   -4.4994 H   0  0  0  0  0  0
   23.1215   -3.7478   -5.0219 H   0  0  0  0  0  0
   23.0086   -4.1531   -3.2756 H   0  0  0  0  0  0
   24.6905   -7.9438   -4.2300 H   0  0  0  0  0  0
   23.3748   -9.9072   -5.8578 H   0  0  0  0  0  0
   23.2624   -9.7283   -2.7797 H   0  0  0  0  0  0
   23.1483  -11.2253   -3.7659 H   0  0  0  0  0  0
   25.4734  -10.9006   -4.5138 H   0  0  0  0  0  0
   25.5844   -9.4180   -3.5058 H   0  0  0  0  0  0
   26.5669  -11.1174   -2.1935 H   0  0  0  0  0  0
   24.9094  -10.9354   -1.5256 H   0  0  0  0  0  0
   24.4622  -13.1898   -2.0477 H   0  0  0  0  0  0
   27.1558  -11.8405   -4.1050 H   0  0  0  0  0  0
   27.4769  -13.5425   -4.8987 H   0  0  0  0  0  0
   24.8393  -15.1630   -2.9827 H   0  0  0  0  0  0
   20.0533   -8.1305   -3.8787 H   0  0  0  0  0  0
  1  2  1  0  0  0
  1 95  1  0  0  0
  1 96  1  0  0  0
  1 97  1  0  0  0
  2  5  1  0  0  0
  2  3  1  0  0  0
  2 98  1  0  0  0
  3  4  2  0  0  0
  3 12  1  0  0  0
  5  6  1  0  0  0
  5 99  1  0  0  0
  5100  1  0  0  0
  6  7  1  0  0  0
  6101  1  0  0  0
  6102  1  0  0  0
  7  8  1  0  0  0
  7103  1  0  0  0
  7104  1  0  0  0
  8  9  1  0  0  0
  8105  1  0  0  0
  9 11  2  0  0  0
  9 10  1  0  0  0
 10106  1  0  0  0
 10107  1  0  0  0
 11108  1  0  0  0
 12 13  1  0  0  0
 12109  1  0  0  0
 13 16  1  0  0  0
 13 14  1  0  0  0
 13110  1  0  0  0
 14 15  2  0  0  0
 14 23  1  0  0  0
 16 17  1  0  0  0
 16111  1  0  0  0
 16112  1  0  0  0
 17 18  1  0  0  0
 17113  1  0  0  0
 17114  1  0  0  0
 18 19  1  0  0  0
 18115  1  0  0  0
 18116  1  0  0  0
 19 20  1  0  0  0
 19117  1  0  0  0
 20 22  2  0  0  0
 20 21  1  0  0  0
 21118  1  0  0  0
 21119  1  0  0  0
 22120  1  0  0  0
 23 24  1  0  0  0
 23121  1  0  0  0
 24 27  1  0  0  0
 24 25  1  0  0  0
 24122  1  0  0  0
 25 26  2  0  0  0
 25 31  1  0  0  0
 27 28  1  0  0  0
 27123  1  0  0  0
 27124  1  0  0  0
 28 29  1  0  0  0
 28 30  1  0  0  0
 28125  1  0  0  0
 29126  1  0  0  0
 29127  1  0  0  0
 29128  1  0  0  0
 30129  1  0  0  0
 30130  1  0  0  0
 30131  1  0  0  0
 31 32  1  0  0  0
 31132  1  0  0  0
 32 35  1  0  0  0
 32 33  1  0  0  0
 32133  1  0  0  0
 33 34  2  0  0  0
 33 40  1  0  0  0
 35 36  1  0  0  0
 35134  1  0  0  0
 35135  1  0  0  0
 36 37  1  0  0  0
 36136  1  0  0  0
 36137  1  0  0  0
 37 39  1  0  0  0
 37 38  2  0  0  0
 39138  1  0  0  0
 39139  1  0  0  0
 40 41  1  0  0  0
 40140  1  0  0  0
 41 44  1  0  0  0
 41 42  1  0  0  0
 41141  1  0  0  0
 42 43  2  0  0  0
 42 49  1  0  0  0
 44 45  1  0  0  0
 44142  1  0  0  0
 44143  1  0  0  0
 45 46  1  0  0  0
 45144  1  0  0  0
 45145  1  0  0  0
 46 47  1  0  0  0
 46146  1  0  0  0
 46147  1  0  0  0
 47 48  1  0  0  0
 47148  1  0  0  0
 47149  1  0  0  0
 48150  1  0  0  0
 48151  1  0  0  0
 48152  1  0  0  0
 49 50  1  0  0  0
 49153  1  0  0  0
 50 51  1  0  0  0
 50154  1  0  0  0
 50155  1  0  0  0
 51 52  2  0  0  0
 51 53  1  0  0  0
 53 54  1  0  0  0
 53156  1  0  0  0
 54 57  1  0  0  0
 54 55  1  0  0  0
 54157  1  0  0  0
 55 56  2  0  0  0
 55 61  1  0  0  0
 57 58  1  0  0  0
 57158  1  0  0  0
 57159  1  0  0  0
 58 60  1  0  0  0
 58 59  2  0  0  0
 60160  1  0  0  0
 60161  1  0  0  0
 61 62  1  0  0  0
 61162  1  0  0  0
 62 65  1  0  0  0
 62 63  1  0  0  0
 62163  1  0  0  0
 63 64  2  0  0  0
 63 69  1  0  0  0
 65 66  1  0  0  0
 65164  1  0  0  0
 65165  1  0  0  0
 66 67  1  0  0  0
 66 68  1  0  0  0
 66166  1  0  0  0
 67167  1  0  0  0
 67168  1  0  0  0
 67169  1  0  0  0
 68170  1  0  0  0
 68171  1  0  0  0
 68172  1  0  0  0
 69 70  1  0  0  0
 69 75  1  0  0  0
 70 71  1  0  0  0
 70 73  1  0  0  0
 70173  1  0  0  0
 71 72  2  0  0  0
 71 76  1  0  0  0
 73 74  1  0  0  0
 73174  1  0  0  0
 73175  1  0  0  0
 74 75  1  0  0  0
 74176  1  0  0  0
 74177  1  0  0  0
 75178  1  0  0  0
 75179  1  0  0  0
 76 77  1  0  0  0
 76180  1  0  0  0
 77 80  1  0  0  0
 77 78  1  0  0  0
 77181  1  0  0  0
 78 79  2  0  0  0
 78 83  1  0  0  0
 80 82  1  0  0  0
 80 81  1  0  0  0
 80182  1  0  0  0
 81183  1  0  0  0
 81184  1  0  0  0
 81185  1  0  0  0
 82186  1  0  0  0
 82187  1  0  0  0
 82188  1  0  0  0
 83 84  1  0  0  0
 83189  1  0  0  0
 84 87  1  0  0  0
 84 85  1  0  0  0
 84190  1  0  0  0
 85 86  2  0  0  0
 85 94  1  0  0  0
 87 88  1  0  0  0
 87191  1  0  0  0
 87192  1  0  0  0
 88 89  1  0  0  0
 88193  1  0  0  0
 88194  1  0  0  0
 89 90  1  0  0  0
 89195  1  0  0  0
 89196  1  0  0  0
 90 91  1  0  0  0
 90197  1  0  0  0
 91 93  2  0  0  0
 91 92  1  0  0  0
 92198  1  0  0  0
 92199  1  0  0  0
 93200  1  0  0  0
 94201  1  0  0  0
M  CHG  2   1   1  48   1
M  END
> <s_m_source_file>
../2fys_ligand.sdf

> <i_m_source_file_index>
1

> <s_epik_input>
W0hdL049QyhbTkgyXSlcW05IXVtDSDJdW0NIMl1bQ0gyXVtDQEhdKFtOSDMrXSlDKD1PKVtOSF1bQ0BASF0oW0NIMl1bQ0gyXVtDSDJdW05IXS9DKFtOSDJdKT1OXFtIXSlDKD1PKVtOSF1bQ0BASF0oW0NIMl1bQ0hdKFtDSDNdKVtDSDNdKUMoPU8pW05IXVtDQEBIXShbQ0gyXVtDSDJdQyg9TylbTkgyXSlDKD1PKVtOSF1bQ0BASF0oW0NIMl1bQ0gyXVtDSDJdW0NIMl1bTkgzK10pQyg9TylbTkhdW0NIMl1DKD1PKVtOSF1bQ0BASF0oW0NIMl1DKD1PKVtOSDJdKUMoPU8pW05IXVtDQEBIXShbQ0gyXVtDSF0oW0NIM10pW0NIM10pQyg9TylOMVtDQEBIXShbQ0gyXVtDSDJdW0NIMl0xKUMoPU8pW05IXVtDQEBIXShbQ0hdKFtDSDNdKVtDSDNdKUMoPU8pW05IXVtDQEhdKEMoPU8pW09IXSlbQ0gyXVtDSDJdW0NIMl1bTkhdL0MoW05IMl0pPU5cW0hd

> <s_epik_cmdline>
J2VwaWtfYXBwJywgJy1pbWFlJywgJ2xpZ2FuZF9wcm8ubWFlJywgJy1vbWFlJywgJ2xpZ2FuZF9wcmVwLm1hZScsICctbXMnLCAnMScsICctcGgnLCAnNycsICctcGh0JywgJzAuNScsICctbnQn

> <s_epik_pKa_notes>
Molecule size exceeds maximum supported for generating protonation states

> <s_epik_Chemistry_Notes>
This compound has an imine and may undergo hydrolysis.

$$$$
