2fyv_ligand
                    3D
 Schrodinger Suite 2020-3.
 42 42  0  0  1  0            999 V2000
   31.5140   66.2070    7.1750 C   0  0  1  0  0  0
   31.6230   67.1410    6.1300 O   0  0  0  0  0  0
   32.5920   66.0980    8.2440 C   0  0  2  0  0  0
   33.8250   65.4390    8.0020 O   0  0  0  0  0  0
   31.9480   65.5570    9.5040 C   0  0  0  0  0  0
   30.5800   65.0330    9.1330 N   0  3  2  0  0  0
   30.3020   66.0380    8.0800 C   0  0  2  0  0  0
   29.0140   65.9060    7.2820 C   0  0  0  0  0  0
   27.8510   65.9350    8.0890 O   0  0  0  0  0  0
   29.7210   65.3550   10.3330 C   0  0  0  0  0  0
   30.0090   64.1550   11.2320 C   0  0  2  0  0  0
   29.7750   62.9510   10.5020 O   0  0  0  0  0  0
   29.2540   64.0490   12.5610 C   0  0  1  0  0  0
   29.1600   65.3380   13.1660 O   0  0  0  0  0  0
   27.8750   63.3860   12.3810 C   0  0  2  0  0  0
   27.0690   64.4690   11.9180 O   0  0  0  0  0  0
   27.0410   62.7060   13.4730 C   0  0  2  0  0  0
   25.6600   62.6430   13.1080 O   0  0  0  0  0  0
   27.2300   63.4410   14.8140 C   0  0  0  0  0  0
   26.3060   64.3510   15.3680 O   0  5  0  0  0  0
   28.3560   63.2350   15.2990 O   0  0  0  0  0  0
   31.5382   65.5726    6.2767 H   0  0  0  0  0  0
   32.5426   67.1882    5.5283 H   0  0  0  0  0  0
   33.0415   67.1009    8.2909 H   0  0  0  0  0  0
   34.4298   65.7089    7.1237 H   0  0  0  0  0  0
   32.5691   64.7473    9.9146 H   0  0  0  0  0  0
   31.8599   66.3640   10.2463 H   0  0  0  0  0  0
   30.4487   63.9813    8.8387 H   0  0  0  0  0  0
   30.1142   66.9378    8.6842 H   0  0  0  0  0  0
   28.9406   66.7364    6.5644 H   0  0  0  0  0  0
   29.0162   64.9501    6.7376 H   0  0  0  0  0  0
   26.8574   65.8479    7.6252 H   0  0  0  0  0  0
   30.0413   66.3139   10.7664 H   0  0  0  0  0  0
   28.6684   65.4266   10.0218 H   0  0  0  0  0  0
   31.0761   64.2469   11.4827 H   0  0  0  0  0  0
   30.2276   62.8131    9.5089 H   0  0  0  0  0  0
   29.8318   63.4600   13.2885 H   0  0  0  0  0  0
   30.0710   65.9251   13.3539 H   0  0  0  0  0  0
   28.0856   62.5260   11.7283 H   0  0  0  0  0  0
   27.4403   65.1290   11.1201 H   0  0  0  0  0  0
   27.3216   61.6463   13.5639 H   0  0  0  0  0  0
   25.3604   62.1476   12.1727 H   0  0  0  0  0  0
  1  2  1  0  0  0
  1  3  1  0  0  0
  1  7  1  0  0  0
  1 22  1  0  0  0
  2 23  1  0  0  0
  3  4  1  0  0  0
  3  5  1  0  0  0
  3 24  1  0  0  0
  4 25  1  0  0  0
  5  6  1  0  0  0
  5 26  1  0  0  0
  5 27  1  0  0  0
  6  7  1  0  0  0
  6 10  1  0  0  0
  6 28  1  0  0  0
  7  8  1  0  0  0
  7 29  1  0  0  0
  8  9  1  0  0  0
  8 30  1  0  0  0
  8 31  1  0  0  0
  9 32  1  0  0  0
 10 11  1  0  0  0
 10 33  1  0  0  0
 10 34  1  0  0  0
 11 12  1  0  0  0
 11 13  1  0  0  0
 11 35  1  0  0  0
 12 36  1  0  0  0
 13 14  1  0  0  0
 13 15  1  0  0  0
 13 37  1  0  0  0
 14 38  1  0  0  0
 15 16  1  0  0  0
 15 17  1  0  0  0
 15 39  1  0  0  0
 16 40  1  0  0  0
 17 18  1  0  0  0
 17 19  1  0  0  0
 17 41  1  0  0  0
 18 42  1  0  0  0
 19 20  1  0  0  0
 19 21  2  0  0  0
M  CHG  2   6   1  20  -1
M  END
> <s_m_source_file>
../2fyv_ligand.sdf

> <i_m_source_file_index>
1

> <s_epik_input>
W09IXVtDQEhdMVtDQEhdKFtPSF0pW0NIMl1bTkBIK10oW0NAQEhdMVtDSDJdW09IXSlbQ0gyXVtDQEhdKFtPSF0pW0NAQEhdKFtPSF0pW0NASF0oW09IXSlbQ0BIXShbT0hdKUMoPU8pW09IXQ==

> <s_epik_cmdline>
J2VwaWtfYXBwJywgJy1pbWFlJywgJ2xpZ2FuZF9wcm8ubWFlJywgJy1vbWFlJywgJ2xpZ2FuZF9wcmVwLm1hZScsICctbXMnLCAnMScsICctcGgnLCAnNycsICctcGh0JywgJzAuNScsICctbnQn

> <r_epik_Ionization_Penalty>
  0.0642

> <r_epik_Ionization_Penalty_Charging>
  0.0642

> <r_epik_Ionization_Penalty_Neutral>
  0.0000

> <r_epik_State_Penalty>
  0.0557

> <r_epik_Charging_Adjusted_Penalty>
0.119911859046329

> <i_epik_Tot_Q>
0

> <i_epik_Tot_abs_Q>
2

$$$$
