2fzc_ligand
                    3D
 Schrodinger Suite 2020-3.
 30 29  0  0  1  0            999 V2000
   43.9000   28.8450   19.8860 O   0  5  0  0  0  0
   45.0640   29.7360   19.2190 P   0  0  0  0  0  0
   44.9990   31.1810   19.9280 O   0  0  0  0  0  0
   46.3990   29.1130   19.3640 O   0  0  0  0  0  0
   44.6130   29.9730   17.4830 C   0  0  0  0  0  0
   43.1100   29.9490   17.1570 C   0  0  0  0  0  0
   42.5070   30.9910   16.9300 O   0  0  0  0  0  0
   42.5660   28.7380   17.1040 N   0  0  0  0  0  0
   41.1560   28.4780   16.7570 C   0  0  0  0  0  0
   40.2370   28.4380   17.9790 C   0  0  0  0  0  0
   39.5550   29.7360   18.0740 N   0  0  0  0  0  0
   39.3290   30.4010   19.2060 C   0  0  0  0  0  0
   38.8590   31.5390   19.2290 O   0  0  0  0  0  0
   39.8080   29.7370   20.4980 C   0  0  0  0  0  0
   41.4480   30.3720   20.9160 P   0  0  0  0  0  0
   41.1920   31.5600   21.9730 O   0  5  0  0  0  0
   42.0120   31.0590   19.5720 O   0  0  0  0  0  0
   42.3530   29.3250   21.4400 O   0  0  0  0  0  0
   45.2372   31.2802   20.9973 H   0  0  0  0  0  0
   44.9803   30.9511   17.1390 H   0  0  0  0  0  0
   45.0660   29.1765   16.8744 H   0  0  0  0  0  0
   43.2381   27.8996   17.3395 H   0  0  0  0  0  0
   40.7901   29.2724   16.0899 H   0  0  0  0  0  0
   41.0769   27.5062   16.2477 H   0  0  0  0  0  0
   39.5012   27.6293   17.8581 H   0  0  0  0  0  0
   40.8367   28.2560   18.8830 H   0  0  0  0  0  0
   39.1867   30.2317   17.1637 H   0  0  0  0  0  0
   39.1038   29.9667   21.3112 H   0  0  0  0  0  0
   39.8586   28.6477   20.3535 H   0  0  0  0  0  0
   41.4356   31.8548   19.0775 H   0  0  0  0  0  0
  1  2  1  0  0  0
  2  3  1  0  0  0
  2  4  2  0  0  0
  2  5  1  0  0  0
  3 19  1  0  0  0
  5  6  1  0  0  0
  5 20  1  0  0  0
  5 21  1  0  0  0
  6  7  2  0  0  0
  6  8  1  0  0  0
  8  9  1  0  0  0
  8 22  1  0  0  0
  9 10  1  0  0  0
  9 23  1  0  0  0
  9 24  1  0  0  0
 10 11  1  0  0  0
 10 25  1  0  0  0
 10 26  1  0  0  0
 11 12  1  0  0  0
 11 27  1  0  0  0
 12 13  2  0  0  0
 12 14  1  0  0  0
 14 15  1  0  0  0
 14 28  1  0  0  0
 14 29  1  0  0  0
 15 16  1  0  0  0
 15 17  1  0  0  0
 15 18  2  0  0  0
 17 30  1  0  0  0
M  CHG  2   1  -1  16  -1
M  END
> <s_m_source_file>
../2fzc_ligand.sdf

> <i_m_source_file_index>
1

> <s_epik_input>
W09IXVAoPU8pKFtPSF0pW0NIMl1DKD1PKVtOSF1bQ0gyXVtDSDJdW05IXUMoPU8pW0NIMl1QKD1PKShbT0hdKVtPSF0=

> <s_epik_cmdline>
J2VwaWtfYXBwJywgJy1pbWFlJywgJ2xpZ2FuZF9wcm8ubWFlJywgJy1vbWFlJywgJ2xpZ2FuZF9wcmVwLm1hZScsICctbXMnLCAnMScsICctcGgnLCAnNycsICctcGh0JywgJzAuNScsICctbnQn

> <r_epik_Ionization_Penalty>
  0.3446

> <r_epik_Ionization_Penalty_Charging>
  0.0000

> <r_epik_Ionization_Penalty_Neutral>
  0.3446

> <r_epik_State_Penalty>
  0.3840

> <r_epik_Charging_Adjusted_Penalty>
0.384034621990452

> <i_epik_Tot_Q>
-2

> <i_epik_Tot_abs_Q>
2

$$$$
