2fzz_ligand
                    3D
 Schrodinger Suite 2020-3.
 71 77  0  0  1  0            999 V2000
   25.8170   26.3860   63.4850 F   0  0  0  0  0  0
   25.6410   27.7750   65.1970 F   0  0  0  0  0  0
   25.0350   25.6540   65.4070 F   0  0  0  0  0  0
   16.2800   27.6280   65.7490 O   0  0  0  0  0  0
   20.3600   28.9070   61.6560 O   0  0  0  0  0  0
   16.3940   28.4640   66.7810 N   0  0  0  0  0  0
   18.2730   29.6520   67.7210 N   0  0  0  0  0  0
   21.5750   27.4090   63.8500 N   0  0  0  0  0  0
   22.5580   26.7890   64.5770 N   0  0  0  0  0  0
   22.3870   29.9110   61.3100 N   0  0  0  0  0  0
   17.4480   27.4180   65.1380 C   0  0  0  0  0  0
   18.4640   28.1970   65.8180 C   0  0  0  0  0  0
   17.7070   28.8230   66.8430 C   0  0  0  0  0  0
   17.8530   26.5840   63.9850 C   0  0  0  0  0  0
   19.2640   26.5570   63.5280 C   0  0  0  0  0  0
   20.2650   27.3800   64.2360 C   0  0  0  0  0  0
   19.8650   28.2020   65.3930 C   0  0  0  0  0  0
   23.7580   27.1160   64.0630 C   0  0  0  0  0  0
   23.5290   27.9660   62.9730 C   0  0  0  0  0  0
   22.1510   28.1450   62.8540 C   0  0  0  0  0  0
   25.1310   26.7090   64.5610 C   0  0  0  0  0  0
   21.5590   28.9940   61.9140 C   0  0  0  0  0  0
   21.9050   30.7520   60.3440 C   0  0  0  0  0  0
   22.0090   32.1730   60.6140 C   0  0  0  0  0  0
   21.4020   33.1150   59.6950 C   0  0  0  0  0  0
   20.6900   32.6280   58.4980 C   0  0  0  0  0  0
   20.6350   31.1850   58.2150 C   0  0  0  0  0  0
   21.2470   30.2330   59.1380 C   0  0  0  0  0  0
   19.9970   33.6230   57.5700 C   0  0  0  0  0  0
   20.2620   33.7280   56.1330 C   0  0  0  0  0  0
   21.3210   32.8530   55.4260 C   0  0  0  0  0  0
   22.4710   33.6470   54.9410 N   0  3  2  0  0  0
   23.5700   32.9920   54.1820 C   0  0  0  0  0  0
   23.0880   34.4430   56.0250 C   0  0  0  0  0  0
   18.9480   34.5120   58.1070 C   0  0  0  0  0  0
   18.2420   35.4380   57.2250 C   0  0  0  0  0  0
   19.5360   34.6760   55.2550 C   0  0  0  0  0  0
   18.5230   35.5560   55.8080 C   0  0  0  0  0  0
   24.4880   33.8480   56.0850 C   0  0  1  0  0  0
   24.8140   33.7950   54.5920 C   0  0  0  0  0  0
   25.2570   34.7170   56.7070 O   0  0  0  0  0  0
   23.8010   30.0250   61.7500 C   0  0  0  0  0  0
   24.4750   28.6630   62.0280 C   0  0  0  0  0  0
   17.6622   30.1233   68.5051 H   0  0  0  0  0  0
   19.3506   29.8645   67.6611 H   0  0  0  0  0  0
   17.1065   25.9829   63.4658 H   0  0  0  0  0  0
   19.5581   25.9377   62.6806 H   0  0  0  0  0  0
   20.6017   28.8046   65.9242 H   0  0  0  0  0  0
   22.5378   32.5286   61.4983 H   0  0  0  0  0  0
   21.4716   34.1854   59.8885 H   0  0  0  0  0  0
   20.1365   30.8259   57.3146 H   0  0  0  0  0  0
   21.2161   29.1622   58.9365 H   0  0  0  0  0  0
   21.7008   32.0972   56.1292 H   0  0  0  0  0  0
   20.8637   32.3515   54.5604 H   0  0  0  0  0  0
   21.9453   34.2535   54.1887 H   0  0  0  0  0  0
   23.6383   31.9340   54.4753 H   0  0  0  0  0  0
   23.3629   33.0609   53.1039 H   0  0  0  0  0  0
   23.0806   35.5075   55.7480 H   0  0  0  0  0  0
   22.5166   34.3020   56.9543 H   0  0  0  0  0  0
   18.6988   34.4773   59.1676 H   0  0  0  0  0  0
   17.4655   36.0715   57.6537 H   0  0  0  0  0  0
   19.7638   34.7124   54.1897 H   0  0  0  0  0  0
   17.9950   36.2763   55.1831 H   0  0  0  0  0  0
   24.6833   32.9444   56.6812 H   0  0  0  0  0  0
   25.7194   33.2320   54.3214 H   0  0  0  0  0  0
   24.8143   34.7629   54.0694 H   0  0  0  0  0  0
   25.1461   34.8731   57.7902 H   0  0  0  0  0  0
   24.3888   30.5284   60.9683 H   0  0  0  0  0  0
   23.8496   30.6109   62.6797 H   0  0  0  0  0  0
   25.4562   28.7798   62.5113 H   0  0  0  0  0  0
   24.5863   28.0637   61.1123 H   0  0  0  0  0  0
  1 21  1  0  0  0
  2 21  1  0  0  0
  3 21  1  0  0  0
  4  6  1  0  0  0
  4 11  1  0  0  0
  5 22  2  0  0  0
  6 13  2  0  0  0
  7 13  1  0  0  0
  7 44  1  0  0  0
  7 45  1  0  0  0
  8  9  1  0  0  0
  8 16  1  0  0  0
  8 20  1  0  0  0
  9 18  2  0  0  0
 10 22  1  0  0  0
 10 23  1  0  0  0
 10 42  1  0  0  0
 11 12  2  0  0  0
 11 14  1  0  0  0
 12 13  1  0  0  0
 12 17  1  0  0  0
 14 15  2  0  0  0
 14 46  1  0  0  0
 15 16  1  0  0  0
 15 47  1  0  0  0
 16 17  2  0  0  0
 17 48  1  0  0  0
 18 19  1  0  0  0
 18 21  1  0  0  0
 19 20  2  0  0  0
 19 43  1  0  0  0
 20 22  1  0  0  0
 23 24  2  0  0  0
 23 28  1  0  0  0
 24 25  1  0  0  0
 24 49  1  0  0  0
 25 26  2  0  0  0
 25 50  1  0  0  0
 26 27  1  0  0  0
 26 29  1  0  0  0
 27 28  2  0  0  0
 27 51  1  0  0  0
 28 52  1  0  0  0
 29 30  2  0  0  0
 29 35  1  0  0  0
 30 31  1  0  0  0
 30 37  1  0  0  0
 31 32  1  0  0  0
 31 53  1  0  0  0
 31 54  1  0  0  0
 32 33  1  0  0  0
 32 34  1  0  0  0
 32 55  1  0  0  0
 33 40  1  0  0  0
 33 56  1  0  0  0
 33 57  1  0  0  0
 34 39  1  0  0  0
 34 58  1  0  0  0
 34 59  1  0  0  0
 35 36  2  0  0  0
 35 60  1  0  0  0
 36 38  1  0  0  0
 36 61  1  0  0  0
 37 38  2  0  0  0
 37 62  1  0  0  0
 38 63  1  0  0  0
 39 40  1  0  0  0
 39 41  1  0  0  0
 39 64  1  0  0  0
 40 65  1  0  0  0
 40 66  1  0  0  0
 41 67  1  0  0  0
 42 43  1  0  0  0
 42 68  1  0  0  0
 42 69  1  0  0  0
 43 70  1  0  0  0
 43 71  1  0  0  0
M  CHG  1  32   1
M  END
> <s_m_source_file>
../2fzz_ligand.sdf

> <i_m_source_file_index>
1

> <s_epik_input>
bzFuYyhbTkgyXSljKGMxMilbY0hdYyhbY0hdW2NIXTIpLW4obmMzQyhGKShGKUYpYyhjMzQpQyg9TylOKFtDSDJdW0NIMl00KWM1W2NIXVtjSF1jKFtjSF1bY0hdNSktYzZjKFtjSF1bY0hdW2NIXVtjSF02KVtDSDJdW05AQEgrXTdbQ0gyXVtDSDJdW0NASF0oW0NIMl03KVtPSF0=

> <s_epik_cmdline>
J2VwaWtfYXBwJywgJy1pbWFlJywgJ2xpZ2FuZF9wcm8ubWFlJywgJy1vbWFlJywgJ2xpZ2FuZF9wcmVwLm1hZScsICctbXMnLCAnMScsICctcGgnLCAnNycsICctcGh0JywgJzAuNScsICctbnQn

> <r_lp_tautomer_probability>
1

> <r_epik_Ionization_Penalty>
  0.0104

> <r_epik_Ionization_Penalty_Charging>
  0.0104

> <r_epik_Ionization_Penalty_Neutral>
  0.0000

> <r_epik_State_Penalty>
  0.0079

> <r_epik_Charging_Adjusted_Penalty>
0.0183142431308435

> <i_epik_Tot_Q>
1

> <i_epik_Tot_abs_Q>
1

$$$$
