2g00_ligand
                    3D
 Schrodinger Suite 2020-3.
 66 70  0  0  1  0            999 V2000
   17.9420    8.0900   52.8610 C   0  0  0  0  0  0
   17.3350    7.3230   51.7740 C   0  0  0  0  0  0
   17.7890    9.8600   54.5940 C   0  0  0  0  0  0
   23.6330    8.6040   54.0410 C   0  0  0  0  0  0
   23.3750    7.6900   55.0820 C   0  0  0  0  0  0
   21.9980    7.6710   55.3320 C   0  0  0  0  0  0
   25.0340    8.9760   53.5740 C   0  0  0  0  0  0
   21.7100    2.7740   62.7150 C   0  0  0  0  0  0
   23.6980    6.4190   57.1880 C   0  0  0  0  0  0
   21.4300    6.8990   56.3850 C   0  0  0  0  0  0
   21.6300    5.2120   58.0030 C   0  0  0  0  0  0
   20.8930    5.6660   59.2160 C   0  0  0  0  0  0
   20.3080    4.6610   60.1010 C   0  0  0  0  0  0
   21.6900    3.7720   57.6530 C   0  0  0  0  0  0
   23.0220    1.5410   64.5820 C   0  0  0  0  0  0
   18.7440    1.3640   60.4190 C   0  0  0  0  0  0
   18.1150    0.4670   61.3980 C   0  0  0  0  0  0
   24.2800    6.7150   55.8140 C   0  0  0  0  0  0
   19.9000    2.1880   60.8220 C   0  0  0  0  0  0
   25.5040    7.9250   52.9820 F   0  0  0  0  0  0
   25.8180    9.3320   54.5800 F   0  0  0  0  0  0
   24.9400    9.9730   52.7200 F   0  0  0  0  0  0
   20.2190    6.8920   56.6430 O   0  0  0  0  0  0
   21.4130    8.5220   54.4170 N   0  0  0  0  0  0
   22.4250    9.0850   53.6560 N   0  0  0  0  0  0
   22.2510    6.1330   57.1530 N   0  0  0  0  0  0
   17.1290    9.0610   53.5800 C   0  0  0  0  0  0
   19.2210    9.6680   54.8670 C   0  0  0  0  0  0
   20.0420    8.6850   54.1440 C   0  0  0  0  0  0
   19.3810    7.8760   53.1190 C   0  0  0  0  0  0
   20.4420    3.2030   59.8060 C   0  0  0  0  0  0
   21.1010    2.7730   58.5430 C   0  0  0  0  0  0
   20.4010    2.0290   62.2270 C   0  0  0  0  0  0
   22.2770    2.7360   64.1100 N   0  3  0  0  0  0
   23.1330    3.8910   64.4550 C   0  0  0  0  0  0
   15.9270    7.2360   51.3860 O   0  0  0  0  0  0
   18.1830    6.6630   51.0850 N   0  0  0  0  0  0
   18.5790    0.3260   62.7980 C   0  0  0  0  0  0
   19.7380    1.1350   63.1890 C   0  0  0  0  0  0
   17.2229   10.6039   55.1546 H   0  0  0  0  0  0
   22.5727    2.4192   62.1320 H   0  0  0  0  0  0
   21.5905    3.8579   62.5704 H   0  0  0  0  0  0
   24.2014    5.5405   57.6179 H   0  0  0  0  0  0
   23.8506    7.2874   57.8457 H   0  0  0  0  0  0
   20.7921    6.7282   59.4390 H   0  0  0  0  0  0
   19.7652    4.9805   60.9906 H   0  0  0  0  0  0
   22.1750    3.4575   56.7289 H   0  0  0  0  0  0
   22.4410    0.6344   64.3574 H   0  0  0  0  0  0
   23.1824    1.6141   65.6678 H   0  0  0  0  0  0
   23.9944    1.4895   64.0704 H   0  0  0  0  0  0
   18.3590    1.4205   59.4008 H   0  0  0  0  0  0
   17.2598   -0.1275   61.0766 H   0  0  0  0  0  0
   24.3548    5.7809   55.2379 H   0  0  0  0  0  0
   25.2808    7.1574   55.9266 H   0  0  0  0  0  0
   16.0674    9.1822   53.3646 H   0  0  0  0  0  0
   19.6932   10.2789   55.6364 H   0  0  0  0  0  0
   19.9404    7.1289   52.5560 H   0  0  0  0  0  0
   21.1444    1.7156   58.2821 H   0  0  0  0  0  0
   21.3168    2.7379   64.6467 H   0  0  0  0  0  0
   22.6416    4.8208   64.1326 H   0  0  0  0  0  0
   24.1032    3.7934   63.9458 H   0  0  0  0  0  0
   23.2911    3.9181   65.5432 H   0  0  0  0  0  0
   19.2514    6.7016   51.3440 H   0  0  0  0  0  0
   17.8454    6.0556   50.2323 H   0  0  0  0  0  0
   18.0845   -0.3444   63.5010 H   0  0  0  0  0  0
   20.1147    1.0728   64.2100 H   0  0  0  0  0  0
  1  2  1  0  0  0
  1 27  2  0  0  0
  1 30  1  0  0  0
  2 36  2  0  0  0
  2 37  1  0  0  0
  3 27  1  0  0  0
  3 28  2  0  0  0
  3 40  1  0  0  0
  4  5  1  0  0  0
  4  7  1  0  0  0
  4 25  2  0  0  0
  5  6  2  0  0  0
  5 18  1  0  0  0
  6 10  1  0  0  0
  6 24  1  0  0  0
  7 20  1  0  0  0
  7 21  1  0  0  0
  7 22  1  0  0  0
  8 33  1  0  0  0
  8 34  1  0  0  0
  8 41  1  0  0  0
  8 42  1  0  0  0
  9 18  1  0  0  0
  9 26  1  0  0  0
  9 43  1  0  0  0
  9 44  1  0  0  0
 10 23  2  0  0  0
 10 26  1  0  0  0
 11 12  2  0  0  0
 11 14  1  0  0  0
 11 26  1  0  0  0
 12 13  1  0  0  0
 12 45  1  0  0  0
 13 31  2  0  0  0
 13 46  1  0  0  0
 14 32  2  0  0  0
 14 47  1  0  0  0
 15 34  1  0  0  0
 15 48  1  0  0  0
 15 49  1  0  0  0
 15 50  1  0  0  0
 16 17  2  0  0  0
 16 19  1  0  0  0
 16 51  1  0  0  0
 17 38  1  0  0  0
 17 52  1  0  0  0
 18 53  1  0  0  0
 18 54  1  0  0  0
 19 31  1  0  0  0
 19 33  2  0  0  0
 24 25  1  0  0  0
 24 29  1  0  0  0
 27 55  1  0  0  0
 28 29  1  0  0  0
 28 56  1  0  0  0
 29 30  2  0  0  0
 30 57  1  0  0  0
 31 32  1  0  0  0
 32 58  1  0  0  0
 33 39  1  0  0  0
 34 35  1  0  0  0
 34 59  1  0  0  0
 35 60  1  0  0  0
 35 61  1  0  0  0
 35 62  1  0  0  0
 37 63  1  0  0  0
 37 64  1  0  0  0
 38 39  2  0  0  0
 38 65  1  0  0  0
 39 66  1  0  0  0
M  CHG  1  34   1
M  END
> <s_m_source_file>
../2g00_ligand.sdf

> <i_m_source_file_index>
1

> <s_epik_input>
Tz1DKFtOSDJdKWMxW2NIXVtjSF1bY0hdYyhbY0hdMSktbihuYzJDKEYpKEYpRiljKGMyMylDKD1PKU4oW0NIMl1bQ0gyXTMpYzRbY0hdW2NIXWMoW2NIXVtjSF00KS1jNVtjSF1bY0hdW2NIXVtjSF1jNVtDSDJdW05IK10oW0NIM10pW0NIM10=

> <s_epik_cmdline>
J2VwaWtfYXBwJywgJy1pbWFlJywgJ2xpZ2FuZF9wcm8ubWFlJywgJy1vbWFlJywgJ2xpZ2FuZF9wcmVwLm1hZScsICctbXMnLCAnMScsICctcGgnLCAnNycsICctcGh0JywgJzAuNScsICctbnQn

> <r_lp_tautomer_probability>
1

> <r_epik_Ionization_Penalty>
  0.0481

> <r_epik_Ionization_Penalty_Charging>
  0.0481

> <r_epik_Ionization_Penalty_Neutral>
  0.0000

> <r_epik_State_Penalty>
  0.0410

> <r_epik_Charging_Adjusted_Penalty>
0.0891244951077512

> <i_epik_Tot_Q>
1

> <i_epik_Tot_abs_Q>
1

$$$$
