2g01_ligand
                    3D
 Schrodinger Suite 2020-3.
 27 29  0  0  1  0            999 V2000
   25.7510   96.7380   26.1430 C   0  0  0  0  0  0
   25.5430   95.2700   26.3870 C   0  0  0  0  0  0
   25.6710   94.2940   25.4560 N   0  0  0  0  0  0
   25.3980   93.0770   26.0440 N   0  0  0  0  0  0
   25.4350   91.8060   25.3530 C   0  0  0  0  0  0
   25.1020   93.2460   27.3070 C   0  0  0  0  0  0
   24.7480   92.3610   28.3350 N   0  0  0  0  0  0
   24.6660   91.0390   28.0800 O   0  5  0  0  0  0
   24.4720   92.7790   29.6060 C   0  0  0  0  0  0
   24.0950   91.9410   30.7060 C   0  0  0  0  0  0
   23.8200   92.4010   31.9910 C   0  0  0  0  0  0
   23.9130   93.8100   32.2750 C   0  0  0  0  0  0
   23.5990   94.4580   33.8100 Cl  0  0  0  0  0  0
   24.2770   94.6700   31.2340 C   0  0  0  0  0  0
   24.5550   94.1970   29.9160 C   0  0  0  0  0  0
   24.9210   95.1330   28.8680 C   0  0  0  0  0  0
   24.9950   96.3800   29.1240 O   0  0  0  0  0  0
   25.1890   94.6860   27.5830 C   0  0  0  0  0  0
   26.0270   96.8992   25.0905 H   0  0  0  0  0  0
   26.5570   97.1073   26.7942 H   0  0  0  0  0  0
   24.8213   97.2820   26.3657 H   0  0  0  0  0  0
   25.7136   91.9684   24.3013 H   0  0  0  0  0  0
   24.4427   91.3337   25.4007 H   0  0  0  0  0  0
   26.1768   91.1499   25.8317 H   0  0  0  0  0  0
   24.0183   90.8691   30.5239 H   0  0  0  0  0  0
   23.5365   91.7001   32.7762 H   0  0  0  0  0  0
   24.3510   95.7386   31.4359 H   0  0  0  0  0  0
  1  2  1  0  0  0
  1 19  1  0  0  0
  1 20  1  0  0  0
  1 21  1  0  0  0
  2  3  2  0  0  0
  2 18  1  0  0  0
  3  4  1  0  0  0
  4  5  1  0  0  0
  4  6  1  0  0  0
  5 22  1  0  0  0
  5 23  1  0  0  0
  5 24  1  0  0  0
  6  7  1  0  0  0
  6 18  2  0  0  0
  7  8  1  0  0  0
  7  9  1  0  0  0
  9 10  2  0  0  0
  9 15  1  0  0  0
 10 11  1  0  0  0
 10 25  1  0  0  0
 11 12  2  0  0  0
 11 26  1  0  0  0
 12 13  1  0  0  0
 12 14  1  0  0  0
 14 15  2  0  0  0
 14 27  1  0  0  0
 15 16  1  0  0  0
 16 17  2  0  0  0
 16 18  1  0  0  0
M  CHG  1   8  -1
M  END
> <s_m_source_file>
../2g01_ligand.sdf

> <i_m_source_file_index>
1

> <s_epik_input>
W0NIM11uMW5jKFtDSDNdKWMoYzEyKWMoPU8pYzNjKG4yW09IXSlbY0hdW2NIXWMoQ2wpW2NIXTM=

> <s_epik_cmdline>
J2VwaWtfYXBwJywgJy1pbWFlJywgJ2xpZ2FuZF9wcm8ubWFlJywgJy1vbWFlJywgJ2xpZ2FuZF9wcmVwLm1hZScsICctbXMnLCAnMScsICctcGgnLCAnNycsICctcGh0JywgJzAuNScsICctbnQn

> <r_lp_tautomer_probability>
1

> <r_epik_Ionization_Penalty>
  0.0000

> <r_epik_Ionization_Penalty_Charging>
  0.0000

> <r_epik_Ionization_Penalty_Neutral>
  0.0000

> <r_epik_State_Penalty>
 -0.0000

> <r_epik_Charging_Adjusted_Penalty>
2.61695877292006e-09

> <i_epik_Tot_Q>
-1

> <i_epik_Tot_abs_Q>
1

$$$$
