2g0g_ligand
                    3D
 Schrodinger Suite 2020-3.
 40 43  0  0  1  0            999 V2000
    8.7880   -4.9270   34.9140 C   0  0  0  0  0  0
    7.8130   -4.2080   35.5880 C   0  0  0  0  0  0
    6.6150   -4.0840   34.9810 F   0  0  0  0  0  0
    8.0890   -3.6380   36.8280 C   0  0  0  0  0  0
    9.3410   -3.7680   37.4250 C   0  0  0  0  0  0
   10.3250   -4.4820   36.7540 C   0  0  0  0  0  0
   10.0290   -5.0510   35.5200 C   0  0  0  0  0  0
   11.2250   -5.9890   34.6800 S   0  0  0  0  0  0
   12.5760   -5.5080   35.1340 O   0  0  0  0  0  0
   10.9880   -5.8400   33.2030 O   0  0  0  0  0  0
   10.9860   -7.5790   34.9630 N   0  5  0  0  0  0
   11.2710   -8.2070   36.1040 C   0  0  0  0  0  0
   11.9300   -7.6960   37.1410 C   0  0  0  0  0  0
   11.9790   -8.6780   38.0360 C   0  0  0  0  0  0
   12.5830   -8.6240   39.2880 C   0  0  0  0  0  0
   13.1390   -7.6160   39.9520 C   0  0  0  0  0  0
   13.6760   -7.8890   41.1390 C   0  0  0  0  0  0
   13.6070   -9.1520   41.5440 C   0  0  0  0  0  0
   12.8020   -9.9810   40.2920 S   0  0  0  0  0  0
   11.3670   -9.7370   37.5060 N   0  0  0  0  0  0
   10.9310   -9.4620   36.3870 N   0  0  0  0  0  0
   10.3100  -10.3190   35.5720 C   0  0  0  0  0  0
   10.6890  -11.6600   35.5730 C   0  0  0  0  0  0
   10.0860  -12.5730   34.7220 C   0  0  0  0  0  0
    9.1010  -12.1160   33.8560 C   0  0  0  0  0  0
    8.4950  -12.9550   32.9970 F   0  0  0  0  0  0
    8.7200  -10.7830   33.8310 C   0  0  0  0  0  0
    9.3270   -9.8820   34.6930 C   0  0  0  0  0  0
    8.5863   -5.3786   33.9427 H   0  0  0  0  0  0
    7.3085   -3.0778   37.3429 H   0  0  0  0  0  0
    9.5437   -3.3191   38.3974 H   0  0  0  0  0  0
   11.3178   -4.5952   37.1894 H   0  0  0  0  0  0
   12.3405   -6.6907   37.2360 H   0  0  0  0  0  0
   13.1547   -6.6065   39.5412 H   0  0  0  0  0  0
   14.1475   -7.1166   41.7466 H   0  0  0  0  0  0
   13.9846   -9.5690   42.4776 H   0  0  0  0  0  0
   11.4715  -11.9961   36.2533 H   0  0  0  0  0  0
   10.3775  -13.6232   34.7322 H   0  0  0  0  0  0
    7.9487  -10.4456   33.1386 H   0  0  0  0  0  0
    9.0332   -8.8324   34.6808 H   0  0  0  0  0  0
  1  2  2  0  0  0
  1  7  1  0  0  0
  1 29  1  0  0  0
  2  3  1  0  0  0
  2  4  1  0  0  0
  4  5  2  0  0  0
  4 30  1  0  0  0
  5  6  1  0  0  0
  5 31  1  0  0  0
  6  7  2  0  0  0
  6 32  1  0  0  0
  7  8  1  0  0  0
  8  9  2  0  0  0
  8 10  2  0  0  0
  8 11  1  0  0  0
 11 12  1  0  0  0
 12 13  2  0  0  0
 12 21  1  0  0  0
 13 14  1  0  0  0
 13 33  1  0  0  0
 14 15  1  0  0  0
 14 20  2  0  0  0
 15 16  2  0  0  0
 15 19  1  0  0  0
 16 17  1  0  0  0
 16 34  1  0  0  0
 17 18  2  0  0  0
 17 35  1  0  0  0
 18 19  1  0  0  0
 18 36  1  0  0  0
 20 21  1  0  0  0
 21 22  1  0  0  0
 22 23  2  0  0  0
 22 28  1  0  0  0
 23 24  1  0  0  0
 23 37  1  0  0  0
 24 25  2  0  0  0
 24 38  1  0  0  0
 25 26  1  0  0  0
 25 27  1  0  0  0
 27 28  2  0  0  0
 27 39  1  0  0  0
 28 40  1  0  0  0
M  CHG  1  11  -1
M  END
> <s_m_source_file>
../2g0g_ligand.sdf

> <i_m_source_file_index>
1

> <s_epik_input>
RmMxW2NIXWMoW2NIXVtjSF1bY0hdMSlTKD1PKSg9TylbTkhdYzJbY0hdYygtYzNbY0hdW2NIXVtjSF1zMylubjItYzRbY0hdW2NIXWMoRilbY0hdW2NIXTQ=

> <s_epik_cmdline>
J2VwaWtfYXBwJywgJy1pbWFlJywgJ2xpZ2FuZF9wcm8ubWFlJywgJy1vbWFlJywgJ2xpZ2FuZF9wcmVwLm1hZScsICctbXMnLCAnMScsICctcGgnLCAnNycsICctcGh0JywgJzAuNScsICctbnQn

> <r_epik_Ionization_Penalty>
  0.0406

> <r_epik_Ionization_Penalty_Charging>
  0.0406

> <r_epik_Ionization_Penalty_Neutral>
  0.0000

> <r_epik_State_Penalty>
  0.0342

> <r_epik_Charging_Adjusted_Penalty>
0.0747381021560281

> <i_epik_Tot_Q>
-1

> <i_epik_Tot_abs_Q>
1

$$$$
