2g19_ligand
                    3D
 Schrodinger Suite 2020-3.
 27 28  0  0  1  0            999 V2000
    6.4020   47.7320   23.9480 C   0  0  0  0  0  0
    5.6050   48.9260   24.1480 C   0  0  0  0  0  0
    4.3480   48.7720   24.8660 C   0  0  0  0  0  0
    5.8940   46.4670   24.4650 C   0  0  0  0  0  0
    4.6200   46.3470   25.1780 C   0  0  0  0  0  0
    3.8010   47.5370   25.4050 C   0  0  0  0  0  0
    2.5610   47.4220   26.1700 C   0  0  0  0  0  0
    2.1230   46.1910   26.7020 N   0  3  0  0  0  0
    2.9090   45.0360   26.4740 C   0  0  0  0  0  0
    4.1520   45.0730   25.7050 C   0  0  0  0  0  0
    3.2550   50.4520   25.2810 I   0  0  0  0  0  0
    4.8320   43.9350   25.5240 O   0  5  0  0  0  0
    2.3220   43.7880   27.0580 C   0  0  0  0  0  0
    2.0190   41.4360   26.9670 C   0  0  0  0  0  0
    2.6390   40.2040   26.3130 C   0  0  0  0  0  0
    2.2230   39.0850   26.6550 O   0  0  0  0  0  0
    1.4080   43.8810   27.8750 O   0  0  0  0  0  0
    3.5930   40.3510   25.5120 O   0  5  0  0  0  0
    2.7750   42.5910   26.6780 N   0  0  0  0  0  0
    7.3569   47.7787   23.4244 H   0  0  0  0  0  0
    5.9326   49.8971   23.7769 H   0  0  0  0  0  0
    6.4907   45.5675   24.3137 H   0  0  0  0  0  0
    1.9565   48.3140   26.3344 H   0  0  0  0  0  0
    0.9965   41.5775   26.5869 H   0  0  0  0  0  0
    1.9886   41.2961   28.0576 H   0  0  0  0  0  0
    3.7318   42.5024   26.1425 H   0  0  0  0  0  0
    1.1884   46.1431   27.2801 H   0  0  0  0  0  0
  1  2  2  0  0  0
  1  4  1  0  0  0
  1 20  1  0  0  0
  2  3  1  0  0  0
  2 21  1  0  0  0
  3  6  2  0  0  0
  3 11  1  0  0  0
  4  5  2  0  0  0
  4 22  1  0  0  0
  5  6  1  0  0  0
  5 10  1  0  0  0
  6  7  1  0  0  0
  7  8  2  0  0  0
  7 23  1  0  0  0
  8  9  1  0  0  0
  8 27  1  0  0  0
  9 10  2  0  0  0
  9 13  1  0  0  0
 10 12  1  0  0  0
 13 17  2  0  0  0
 13 19  1  0  0  0
 14 15  1  0  0  0
 14 19  1  0  0  0
 14 24  1  0  0  0
 14 25  1  0  0  0
 15 16  2  0  0  0
 15 18  1  0  0  0
 19 26  1  0  0  0
M  CHG  3   8   1  12  -1  18  -1
M  END
> <s_m_source_file>
../2g19_ligand.sdf

> <i_m_source_file_index>
1

> <s_epik_input>
W2NIXTFbY0hdW2NIXWMoSSljKGMxMilbY0hdbmMoYzJbT0hdKUMoPU8pW05IXVtDSDJdQyg9TylbT0hd

> <s_epik_cmdline>
J2VwaWtfYXBwJywgJy1pbWFlJywgJ2xpZ2FuZF9wcm8ubWFlJywgJy1vbWFlJywgJ2xpZ2FuZF9wcmVwLm1hZScsICctbXMnLCAnMScsICctcGgnLCAnNycsICctcGh0JywgJzAuNScsICctbnQn

> <r_epik_Ionization_Penalty>
  0.1022

> <r_epik_Ionization_Penalty_Charging>
  0.1021

> <r_epik_Ionization_Penalty_Neutral>
  0.0000

> <r_epik_State_Penalty>
  0.2848

> <r_epik_Charging_Adjusted_Penalty>
0.386962013092246

> <i_epik_Tot_Q>
-1

> <i_epik_Tot_abs_Q>
3

$$$$
