2g1r_ligand
                    3D
 Schrodinger Suite 2020-3.
 56 58  0  0  1  0            999 V2000
   78.7740   24.9270   71.3990 C   0  0  0  0  0  0
   78.1240   25.8870   72.1090 N   0  0  0  0  0  0
   78.4120   25.9540   73.4200 C   0  0  0  0  0  0
   79.2800   25.1420   74.0530 N   0  3  0  0  0  0
   79.9420   24.1750   73.3570 C   0  0  0  0  0  0
   79.7170   24.0300   71.9620 C   0  0  0  0  0  0
   78.4810   24.8790   70.0870 N   0  0  0  0  0  0
   77.8080   26.8820   74.1580 N   0  0  0  0  0  0
   80.9080   23.3170   74.1550 C   0  0  0  0  0  0
   82.3070   23.9280   74.2220 C   0  0  0  0  0  0
   80.0660   21.6980   70.8870 C   0  0  0  0  0  0
   80.8820   20.8710   70.0510 C   0  0  0  0  0  0
   82.0640   21.3930   69.4480 C   0  0  0  0  0  0
   82.4330   22.7510   69.6740 C   0  0  0  0  0  0
   81.5990   23.5170   70.5160 C   0  0  0  0  0  0
   80.4420   23.0330   71.1150 C   0  0  0  0  0  0
   82.8420   20.5490   68.6520 O   0  0  0  0  0  0
   83.7710   21.1520   67.7220 C   0  0  0  0  0  0
   84.3310   22.5670   68.1510 C   0  0  0  0  0  0
   83.6160   23.2810   69.1000 N   0  0  0  0  0  0
   84.1350   24.6620   69.4400 C   0  0  0  0  0  0
   84.6940   24.7810   70.8780 C   0  0  0  0  0  0
   84.8000   26.1880   71.2740 N   0  0  0  0  0  0
   85.9730   26.7360   71.6710 C   0  0  0  0  0  0
   85.8740   28.2220   72.0300 C   0  0  0  0  0  0
   83.0870   21.3010   66.3440 C   0  0  0  0  0  0
   84.9340   20.1560   67.5890 C   0  0  0  0  0  0
   85.3510   22.9890   67.6210 O   0  0  0  0  0  0
   87.0420   26.1360   71.7420 O   0  0  0  0  0  0
   77.7478   25.5798   69.6612 H   0  0  0  0  0  0
   78.9746   24.1389   69.4399 H   0  0  0  0  0  0
   77.0892   27.5727   73.6929 H   0  0  0  0  0  0
   78.0275   26.9585   75.2332 H   0  0  0  0  0  0
   80.5354   23.2055   75.1839 H   0  0  0  0  0  0
   80.9914   22.3256   73.6858 H   0  0  0  0  0  0
   82.9663   23.2712   74.8085 H   0  0  0  0  0  0
   82.2529   24.9163   74.7020 H   0  0  0  0  0  0
   82.7089   24.0364   73.2038 H   0  0  0  0  0  0
   79.1611   21.2961   71.3428 H   0  0  0  0  0  0
   80.5976   19.8338   69.8739 H   0  0  0  0  0  0
   81.8796   24.5525   70.7086 H   0  0  0  0  0  0
   84.9490   24.9280   68.7497 H   0  0  0  0  0  0
   83.3195   25.3940   69.3446 H   0  0  0  0  0  0
   84.0208   24.2633   71.5771 H   0  0  0  0  0  0
   85.6925   24.3216   70.9225 H   0  0  0  0  0  0
   83.9095   26.8335   71.2542 H   0  0  0  0  0  0
   84.8362   28.5624   71.8992 H   0  0  0  0  0  0
   86.5363   28.8032   71.3715 H   0  0  0  0  0  0
   86.1784   28.3673   73.0770 H   0  0  0  0  0  0
   82.2515   22.0120   66.4244 H   0  0  0  0  0  0
   82.7057   20.3226   66.0162 H   0  0  0  0  0  0
   83.8170   21.6744   65.6108 H   0  0  0  0  0  0
   85.4307   20.0400   68.5636 H   0  0  0  0  0  0
   85.6575   20.5335   66.8514 H   0  0  0  0  0  0
   84.5462   19.1817   67.2568 H   0  0  0  0  0  0
   79.4552   25.2588   75.1326 H   0  0  0  0  0  0
  1  2  2  0  0  0
  1  6  1  0  0  0
  1  7  1  0  0  0
  2  3  1  0  0  0
  3  4  2  0  0  0
  3  8  1  0  0  0
  4  5  1  0  0  0
  4 56  1  0  0  0
  5  6  2  0  0  0
  5  9  1  0  0  0
  6 16  1  0  0  0
  7 30  1  0  0  0
  7 31  1  0  0  0
  8 32  1  0  0  0
  8 33  1  0  0  0
  9 10  1  0  0  0
  9 34  1  0  0  0
  9 35  1  0  0  0
 10 36  1  0  0  0
 10 37  1  0  0  0
 10 38  1  0  0  0
 11 12  2  0  0  0
 11 16  1  0  0  0
 11 39  1  0  0  0
 12 13  1  0  0  0
 12 40  1  0  0  0
 13 14  2  0  0  0
 13 17  1  0  0  0
 14 15  1  0  0  0
 14 20  1  0  0  0
 15 16  2  0  0  0
 15 41  1  0  0  0
 17 18  1  0  0  0
 18 19  1  0  0  0
 18 26  1  0  0  0
 18 27  1  0  0  0
 19 20  1  0  0  0
 19 28  2  0  0  0
 20 21  1  0  0  0
 21 22  1  0  0  0
 21 42  1  0  0  0
 21 43  1  0  0  0
 22 23  1  0  0  0
 22 44  1  0  0  0
 22 45  1  0  0  0
 23 24  1  0  0  0
 23 46  1  0  0  0
 24 25  1  0  0  0
 24 29  2  0  0  0
 25 47  1  0  0  0
 25 48  1  0  0  0
 25 49  1  0  0  0
 26 50  1  0  0  0
 26 51  1  0  0  0
 26 52  1  0  0  0
 27 53  1  0  0  0
 27 54  1  0  0  0
 27 55  1  0  0  0
M  CHG  1   4   1
M  END
> <s_m_source_file>
../2g1r_ligand.sdf

> <i_m_source_file_index>
1

> <s_epik_input>
W05IMl1jMW5jKFtOSDJdKW5jKFtDSDJdW0NIM10pYzEtYyhbY0hdW2NIXTIpW2NIXWMoYzIzKU4oQyg9TylDKE8zKShbQ0gzXSlbQ0gzXSlbQ0gyXVtDSDJdW05IXUMoPU8pW0NIM10=

> <s_epik_cmdline>
J2VwaWtfYXBwJywgJy1pbWFlJywgJ2xpZ2FuZF9wcm8ubWFlJywgJy1vbWFlJywgJ2xpZ2FuZF9wcmVwLm1hZScsICctbXMnLCAnMScsICctcGgnLCAnNycsICctcGh0JywgJzAuNScsICctbnQn

> <r_lp_tautomer_probability>
0.575010577011949

> <r_epik_Ionization_Penalty>
  0.1565

> <r_epik_Ionization_Penalty_Charging>
  0.1565

> <r_epik_Ionization_Penalty_Neutral>
  0.0000

> <r_epik_State_Penalty>
  0.3872

> <r_epik_Charging_Adjusted_Penalty>
0.543667344034015

> <i_epik_Tot_Q>
1

> <i_epik_Tot_abs_Q>
1

$$$$
