2g1y_ligand
                    3D
 Schrodinger Suite 2020-3.
 56 58  0  0  1  0            999 V2000
   27.3650  106.3890  130.6310 C   0  0  0  0  0  0
   28.0590  107.1070  131.5340 N   0  0  0  0  0  0
   27.8160  108.4200  131.5610 C   0  0  0  0  0  0
   26.9440  109.0510  130.7560 N   0  3  0  0  0  0
   26.2260  108.3450  129.8410 C   0  0  0  0  0  0
   26.4110  106.9510  129.7470 C   0  0  0  0  0  0
   27.6220  105.0660  130.6200 N   0  0  0  0  0  0
   28.4760  109.1670  132.4390 N   0  0  0  0  0  0
   25.2490  109.1290  128.9660 C   0  0  0  0  0  0
   25.9960  105.8530  127.4620 C   0  0  0  0  0  0
   25.1930  104.9780  126.6870 C   0  0  0  0  0  0
   24.0730  104.3300  127.2660 C   0  0  0  0  0  0
   23.7300  104.5560  128.6380 C   0  0  0  0  0  0
   24.5420  105.4390  129.3600 C   0  0  0  0  0  0
   25.6580  106.0800  128.8110 C   0  0  0  0  0  0
   23.3370  103.5030  126.4410 O   0  0  0  0  0  0
   22.3660  102.6280  127.0300 C   0  0  0  0  0  0
   21.8700  102.9890  128.4960 C   0  0  0  0  0  0
   22.6160  103.9150  129.2160 N   0  0  0  0  0  0
   22.1760  104.1690  130.6340 C   0  0  0  0  0  0
   21.2070  105.3680  130.8100 C   0  0  0  0  0  0
   21.2520  105.9580  132.2310 C   0  0  0  0  0  0
   20.1000  106.7400  132.4910 O   0  0  0  0  0  0
   20.0440  107.3260  133.7790 C   0  0  0  0  0  0
   22.9770  101.2140  127.0900 C   0  0  0  0  0  0
   21.1970  102.6480  126.0420 C   0  0  0  0  0  0
   20.8950  102.4090  128.9520 O   0  0  0  0  0  0
   23.8550  109.2430  129.5760 C   0  0  0  0  0  0
   28.3655  104.6444  131.3124 H   0  0  0  0  0  0
   27.0883  104.4078  129.9186 H   0  0  0  0  0  0
   29.2017  108.7012  133.1219 H   0  0  0  0  0  0
   28.2969  110.2514  132.4831 H   0  0  0  0  0  0
   25.6301  110.1497  128.8147 H   0  0  0  0  0  0
   25.1457  108.6281  127.9921 H   0  0  0  0  0  0
   26.8633  106.3435  127.0200 H   0  0  0  0  0  0
   25.4385  104.8026  125.6396 H   0  0  0  0  0  0
   24.2922  105.6371  130.4023 H   0  0  0  0  0  0
   21.6548  103.2809  131.0208 H   0  0  0  0  0  0
   23.0565  104.3787  131.2592 H   0  0  0  0  0  0
   21.4787  106.1658  130.1031 H   0  0  0  0  0  0
   20.1763  105.0385  130.6125 H   0  0  0  0  0  0
   21.2976  105.1409  132.9660 H   0  0  0  0  0  0
   22.1425  106.5952  132.3354 H   0  0  0  0  0  0
   19.1158  107.9081  133.8769 H   0  0  0  0  0  0
   20.9098  107.9903  133.9176 H   0  0  0  0  0  0
   20.0629  106.5348  134.5429 H   0  0  0  0  0  0
   23.8159  101.2070  127.8014 H   0  0  0  0  0  0
   23.3404  100.9290  126.0917 H   0  0  0  0  0  0
   22.2106  100.4971  127.4197 H   0  0  0  0  0  0
   20.7661  103.6594  126.0043 H   0  0  0  0  0  0
   20.4275  101.9336  126.3699 H   0  0  0  0  0  0
   21.5574  102.3654  125.0419 H   0  0  0  0  0  0
   23.2043  109.8161  128.8991 H   0  0  0  0  0  0
   23.9201  109.7584  130.5456 H   0  0  0  0  0  0
   23.4357  108.2367  129.7230 H   0  0  0  0  0  0
   26.8100  110.1398  130.8364 H   0  0  0  0  0  0
  1  2  2  0  0  0
  1  6  1  0  0  0
  1  7  1  0  0  0
  2  3  1  0  0  0
  3  4  2  0  0  0
  3  8  1  0  0  0
  4  5  1  0  0  0
  4 56  1  0  0  0
  5  6  2  0  0  0
  5  9  1  0  0  0
  6 15  1  0  0  0
  7 29  1  0  0  0
  7 30  1  0  0  0
  8 31  1  0  0  0
  8 32  1  0  0  0
  9 28  1  0  0  0
  9 33  1  0  0  0
  9 34  1  0  0  0
 10 11  2  0  0  0
 10 15  1  0  0  0
 10 35  1  0  0  0
 11 12  1  0  0  0
 11 36  1  0  0  0
 12 13  2  0  0  0
 12 16  1  0  0  0
 13 14  1  0  0  0
 13 19  1  0  0  0
 14 15  2  0  0  0
 14 37  1  0  0  0
 16 17  1  0  0  0
 17 18  1  0  0  0
 17 25  1  0  0  0
 17 26  1  0  0  0
 18 19  1  0  0  0
 18 27  2  0  0  0
 19 20  1  0  0  0
 20 21  1  0  0  0
 20 38  1  0  0  0
 20 39  1  0  0  0
 21 22  1  0  0  0
 21 40  1  0  0  0
 21 41  1  0  0  0
 22 23  1  0  0  0
 22 42  1  0  0  0
 22 43  1  0  0  0
 23 24  1  0  0  0
 24 44  1  0  0  0
 24 45  1  0  0  0
 24 46  1  0  0  0
 25 47  1  0  0  0
 25 48  1  0  0  0
 25 49  1  0  0  0
 26 50  1  0  0  0
 26 51  1  0  0  0
 26 52  1  0  0  0
 28 53  1  0  0  0
 28 54  1  0  0  0
 28 55  1  0  0  0
M  CHG  1   4   1
M  END
> <s_m_source_file>
../2g1y_ligand.sdf

> <i_m_source_file_index>
1

> <s_epik_input>
W05IMl1jMW5jKFtOSDJdKW5jKFtDSDJdW0NIM10pYzEtYyhbY0hdW2NIXTIpW2NIXWMoYzIzKU4oQyg9TylDKE8zKShbQ0gzXSlbQ0gzXSlbQ0gyXVtDSDJdW0NIMl1PW0NIM10=

> <s_epik_cmdline>
J2VwaWtfYXBwJywgJy1pbWFlJywgJ2xpZ2FuZF9wcm8ubWFlJywgJy1vbWFlJywgJ2xpZ2FuZF9wcmVwLm1hZScsICctbXMnLCAnMScsICctcGgnLCAnNycsICctcGh0JywgJzAuNScsICctbnQn

> <r_lp_tautomer_probability>
0.575010577011949

> <r_epik_Ionization_Penalty>
  0.1565

> <r_epik_Ionization_Penalty_Charging>
  0.1565

> <r_epik_Ionization_Penalty_Neutral>
  0.0000

> <r_epik_State_Penalty>
  0.3872

> <r_epik_Charging_Adjusted_Penalty>
0.543667344034016

> <i_epik_Tot_Q>
1

> <i_epik_Tot_abs_Q>
1

$$$$
