2g24_ligand
                    3D
 Schrodinger Suite 2020-3.
 46 48  0  0  1  0            999 V2000
   27.6260  106.0630  130.2130 C   0  0  0  0  0  0
   28.1670  106.6390  131.3250 N   0  0  0  0  0  0
   27.8690  107.9350  131.5210 C   0  0  0  0  0  0
   27.1000  108.6550  130.7040 N   0  3  0  0  0  0
   26.5520  108.1000  129.5930 C   0  0  0  0  0  0
   26.7840  106.7440  129.2820 C   0  0  0  0  0  0
   27.9410  104.7510  130.0340 N   0  0  0  0  0  0
   28.3560  108.5670  132.5890 N   0  0  0  0  0  0
   25.7100  109.0690  128.8000 C   0  0  0  0  0  0
   24.2370  109.0790  129.2140 C   0  0  0  0  0  0
   24.2590  104.4610  127.6560 C   0  0  0  0  0  0
   24.9920  105.2280  128.5600 C   0  0  0  0  0  0
   26.1200  105.9740  128.1740 C   0  0  0  0  0  0
   26.5060  105.9330  126.8080 C   0  0  0  0  0  0
   25.7580  105.1480  125.8700 C   0  0  0  0  0  0
   24.6210  104.3970  126.2830 C   0  0  0  0  0  0
   23.9150  103.6310  125.3640 N   0  0  0  0  0  0
   24.5380   99.7310  127.2010 C   0  0  0  0  0  0
   24.2810  101.0340  126.7400 C   0  0  0  0  0  0
   23.0160  101.3710  126.1560 C   0  0  0  0  0  0
   22.0350  100.3550  126.0600 C   0  0  0  0  0  0
   22.3190   99.0520  126.5320 C   0  0  0  0  0  0
   23.5680   98.7100  127.1090 C   0  0  0  0  0  0
   25.7480   99.4700  127.7420 F   0  0  0  0  0  0
   22.7180  102.7840  125.6460 C   0  0  0  0  0  0
   21.3760   98.1120  126.4270 F   0  0  0  0  0  0
   28.5906  104.2376  130.7582 H   0  0  0  0  0  0
   27.5460  104.2041  129.1652 H   0  0  0  0  0  0
   28.9975  108.0282  133.3018 H   0  0  0  0  0  0
   28.1163  109.6273  132.7574 H   0  0  0  0  0  0
   26.0975  110.0893  128.9377 H   0  0  0  0  0  0
   25.7503  108.8023  127.7336 H   0  0  0  0  0  0
   23.6875  109.8048  128.5966 H   0  0  0  0  0  0
   24.1559  109.3632  130.2736 H   0  0  0  0  0  0
   23.8087  108.0762  129.0695 H   0  0  0  0  0  0
   23.3930  103.9005  128.0081 H   0  0  0  0  0  0
   24.6796  105.2504  129.6040 H   0  0  0  0  0  0
   27.3738  106.5002  126.4715 H   0  0  0  0  0  0
   26.0646  105.1258  124.8242 H   0  0  0  0  0  0
   24.3191  103.6895  124.3426 H   0  0  0  0  0  0
   25.0536  101.7979  126.8278 H   0  0  0  0  0  0
   21.0614  100.5765  125.6227 H   0  0  0  0  0  0
   23.7707   97.7005  127.4667 H   0  0  0  0  0  0
   22.0996  103.2680  126.4163 H   0  0  0  0  0  0
   22.1287  102.6637  124.7250 H   0  0  0  0  0  0
   26.9020  109.7140  130.9262 H   0  0  0  0  0  0
  1  2  2  0  0  0
  1  6  1  0  0  0
  1  7  1  0  0  0
  2  3  1  0  0  0
  3  4  2  0  0  0
  3  8  1  0  0  0
  4  5  1  0  0  0
  4 46  1  0  0  0
  5  6  2  0  0  0
  5  9  1  0  0  0
  6 13  1  0  0  0
  7 27  1  0  0  0
  7 28  1  0  0  0
  8 29  1  0  0  0
  8 30  1  0  0  0
  9 10  1  0  0  0
  9 31  1  0  0  0
  9 32  1  0  0  0
 10 33  1  0  0  0
 10 34  1  0  0  0
 10 35  1  0  0  0
 11 12  2  0  0  0
 11 16  1  0  0  0
 11 36  1  0  0  0
 12 13  1  0  0  0
 12 37  1  0  0  0
 13 14  2  0  0  0
 14 15  1  0  0  0
 14 38  1  0  0  0
 15 16  2  0  0  0
 15 39  1  0  0  0
 16 17  1  0  0  0
 17 25  1  0  0  0
 17 40  1  0  0  0
 18 19  2  0  0  0
 18 23  1  0  0  0
 18 24  1  0  0  0
 19 20  1  0  0  0
 19 41  1  0  0  0
 20 21  2  0  0  0
 20 25  1  0  0  0
 21 22  1  0  0  0
 21 42  1  0  0  0
 22 23  2  0  0  0
 22 26  1  0  0  0
 23 43  1  0  0  0
 25 44  1  0  0  0
 25 45  1  0  0  0
M  CHG  1   4   1
M  END
> <s_m_source_file>
../2g24_ligand.sdf

> <i_m_source_file_index>
1

> <s_epik_input>
W05IMl1jMW5jKFtOSDJdKW5jKFtDSDJdW0NIM10pYzEtYzJbY0hdW2NIXWMoW2NIXVtjSF0yKVtOSF1bQ0gyXWMoW2NIXWMzRilbY0hdYyhGKVtjSF0z

> <s_epik_cmdline>
J2VwaWtfYXBwJywgJy1pbWFlJywgJ2xpZ2FuZF9wcm8ubWFlJywgJy1vbWFlJywgJ2xpZ2FuZF9wcmVwLm1hZScsICctbXMnLCAnMScsICctcGgnLCAnNycsICctcGh0JywgJzAuNScsICctbnQn

> <r_lp_tautomer_probability>
0.575010577011949

> <r_epik_Ionization_Penalty>
  0.2197

> <r_epik_Ionization_Penalty_Charging>
  0.2197

> <r_epik_Ionization_Penalty_Neutral>
  0.0000

> <r_epik_State_Penalty>
  0.4424

> <r_epik_Charging_Adjusted_Penalty>
0.662121842845185

> <i_epik_Tot_Q>
1

> <i_epik_Tot_abs_Q>
1

$$$$
