2g2r_ligand
                    3D
 Schrodinger Suite 2020-3.
 47 48  0  0  1  0            999 V2000
  -58.3540   27.4370   12.0970 O   0  0  0  0  0  0
  -57.3570   28.0670   12.5380 C   0  0  0  0  0  0
  -57.0900   28.0940   13.7760 O   0  5  0  0  0  0
  -56.4740   28.8100   11.5230 C   0  0  0  0  0  0
  -54.9590   28.5490   11.6850 C   0  0  0  0  0  0
  -54.6310   27.0530   11.8260 C   0  0  0  0  0  0
  -53.1440   26.6860   11.8040 C   0  0  0  0  0  0
  -53.0100   25.4110   12.5270 N   0  0  0  0  0  0
  -53.5000   24.1550   11.9690 C   0  0  0  0  0  0
  -52.3680   25.3850   13.7720 C   0  0  0  0  0  0
  -51.7710   24.2040   14.1870 C   0  0  0  0  0  0
  -51.1160   24.1630   15.4070 C   0  0  0  0  0  0
  -52.2940   26.5270   14.5770 C   0  0  0  0  0  0
  -51.6350   26.4880   15.7940 C   0  0  0  0  0  0
  -51.0500   25.2980   16.2060 C   0  0  0  0  0  0
  -50.3390   25.1870   17.5040 C   0  0  0  0  0  0
  -50.2280   26.2220   18.3250 C   0  0  0  0  0  0
  -49.5320   26.1420   19.6220 C   0  0  0  0  0  0
  -49.4840   27.3020   20.3890 C   0  0  0  0  0  0
  -48.9360   24.9650   20.0760 C   0  0  0  0  0  0
  -48.2890   24.9650   21.3050 C   0  0  0  0  0  0
  -48.2500   26.1320   22.0700 C   0  0  0  0  0  0
  -48.8440   27.3020   21.6150 C   0  0  0  0  0  0
  -47.6060   26.1430   23.3190 N   0  3  0  0  0  0
  -47.0750   25.1270   23.7400 O   0  0  0  0  0  0
  -47.5710   27.1600   24.0100 O   0  5  0  0  0  0
  -56.7463   28.4993   10.5035 H   0  0  0  0  0  0
  -56.6264   29.8942   11.6289 H   0  0  0  0  0  0
  -54.4247   28.9312   10.8027 H   0  0  0  0  0  0
  -54.5928   29.0624   12.5863 H   0  0  0  0  0  0
  -55.0231   26.6804   12.7838 H   0  0  0  0  0  0
  -55.0949   26.4963   10.9984 H   0  0  0  0  0  0
  -52.8076   26.5813   10.7620 H   0  0  0  0  0  0
  -52.5634   27.4785   12.2989 H   0  0  0  0  0  0
  -53.9747   24.3468   10.9954 H   0  0  0  0  0  0
  -54.2367   23.7116   12.6551 H   0  0  0  0  0  0
  -52.6580   23.4598   11.8358 H   0  0  0  0  0  0
  -51.8168   23.3149   13.5581 H   0  0  0  0  0  0
  -50.6502   23.2361   15.7417 H   0  0  0  0  0  0
  -52.7589   27.4547   14.2434 H   0  0  0  0  0  0
  -51.5763   27.3786   16.4197 H   0  0  0  0  0  0
  -49.8985   24.2173   17.7788 H   0  0  0  0  0  0
  -50.6657   27.1926   18.0487 H   0  0  0  0  0  0
  -49.9530   28.2149   20.0219 H   0  0  0  0  0  0
  -48.9776   24.0573   19.4740 H   0  0  0  0  0  0
  -47.8127   24.0556   21.6714 H   0  0  0  0  0  0
  -48.8062   28.2098   22.2172 H   0  0  0  0  0  0
  1  2  2  0  0  0
  2  3  1  0  0  0
  2  4  1  0  0  0
  4  5  1  0  0  0
  4 27  1  0  0  0
  4 28  1  0  0  0
  5  6  1  0  0  0
  5 29  1  0  0  0
  5 30  1  0  0  0
  6  7  1  0  0  0
  6 31  1  0  0  0
  6 32  1  0  0  0
  7  8  1  0  0  0
  7 33  1  0  0  0
  7 34  1  0  0  0
  8  9  1  0  0  0
  8 10  1  0  0  0
  9 35  1  0  0  0
  9 36  1  0  0  0
  9 37  1  0  0  0
 10 11  2  0  0  0
 10 13  1  0  0  0
 11 12  1  0  0  0
 11 38  1  0  0  0
 12 15  2  0  0  0
 12 39  1  0  0  0
 13 14  2  0  0  0
 13 40  1  0  0  0
 14 15  1  0  0  0
 14 41  1  0  0  0
 15 16  1  0  0  0
 16 17  2  0  0  0
 16 42  1  0  0  0
 17 18  1  0  0  0
 17 43  1  0  0  0
 18 19  2  0  0  0
 18 20  1  0  0  0
 19 23  1  0  0  0
 19 44  1  0  0  0
 20 21  2  0  0  0
 20 45  1  0  0  0
 21 22  1  0  0  0
 21 46  1  0  0  0
 22 23  2  0  0  0
 22 24  1  0  0  0
 23 47  1  0  0  0
 24 25  2  0  0  0
 24 26  1  0  0  0
M  CHG  3   3  -1  24   1  26  -1
M  END
> <s_m_source_file>
../2g2r_ligand.sdf

> <i_m_source_file_index>
1

> <s_epik_input>
Tz1DKFtPSF0pW0NIMl1bQ0gyXVtDSDJdW0NIMl1OKFtDSDNdKWMxW2NIXVtjSF1jKFtjSF1bY0hdMSkvW0NIXT1bQ0hdL2MyW2NIXVtjSF1jKFtOK10oPU8pW08tXSlbY0hdW2NIXTI=

> <s_epik_cmdline>
J2VwaWtfYXBwJywgJy1pbWFlJywgJ2xpZ2FuZF9wcm8ubWFlJywgJy1vbWFlJywgJ2xpZ2FuZF9wcmVwLm1hZScsICctbXMnLCAnMScsICctcGgnLCAnNycsICctcGh0JywgJzAuNScsICctbnQn

> <r_epik_Ionization_Penalty>
  0.0302

> <r_epik_Ionization_Penalty_Charging>
  0.0045

> <r_epik_Ionization_Penalty_Neutral>
  0.0256

> <r_epik_State_Penalty>
  0.0209

> <r_epik_Charging_Adjusted_Penalty>
0.0254038164377158

> <i_epik_Tot_Q>
-1

> <i_epik_Tot_abs_Q>
3

$$$$
