2g5p_ligand
                    3D
 Schrodinger Suite 2020-3.
 60 62  0  0  1  0            999 V2000
    3.3930    1.1320    0.9710 C   0  0  0  0  0  0
    3.5000    2.1360    2.1350 C   0  0  2  0  0  0
    4.6740    1.8470    3.0800 C   0  0  0  0  0  0
    4.1720    2.2280    4.4420 C   0  0  0  0  0  0
    2.6770    2.0070    4.3470 C   0  0  2  0  0  0
    2.2180    0.6350    4.8740 C   0  0  0  0  0  0
    2.6900    0.1340    1.0930 O   0  0  0  0  0  0
    2.2910    2.1870    2.9570 N   0  3  0  0  0  0
    4.1280    1.4320   -0.1760 N   0  0  0  0  0  0
    2.1360   -0.3160    7.1770 C   0  0  0  0  0  0
    2.4650    0.7040    6.2650 O   0  0  0  0  0  0
    4.1510    0.5740   -1.3670 C   0  0  1  0  0  0
    5.0640    1.3310   -2.3510 C   0  0  0  0  0  0
    5.8970    2.2800   -1.5030 C   0  0  0  0  0  0
    4.9740    2.6280   -0.3540 C   0  0  0  0  0  0
    2.4390   -0.0690    8.5820 C   0  0  0  0  0  0
    2.0800   -1.0920    9.5150 C   0  0  0  0  0  0
    1.4400   -2.2970    9.1290 C   0  0  0  0  0  0
    1.1670   -2.5110    7.7520 C   0  0  0  0  0  0
    1.4960   -1.5380    6.7980 C   0  0  0  0  0  0
    4.7900   -0.8240   -1.2310 C   0  0  0  0  0  0
    5.3260   -1.2730   -0.0790 N   0  0  0  0  0  0
    1.0780   -3.3250   10.1410 C   0  0  0  0  0  0
    3.1420    1.2530    9.0790 C   0  0  0  0  0  0
    2.3590    2.4980    8.5960 C   0  0  0  0  0  0
    4.6050    1.3260    8.5580 C   0  0  0  0  0  0
    3.2550    1.3780   10.6270 C   0  0  0  0  0  0
    1.3280   -3.1140   11.3320 O   0  0  0  0  0  0
    0.5210   -4.3770    9.7720 O   0  5  0  0  0  0
    3.6125    3.1203    1.6571 H   0  0  0  0  0  0
    4.9346    0.7797    3.0252 H   0  0  0  0  0  0
    5.5426    2.4523    2.7815 H   0  0  0  0  0  0
    4.6418    1.5834    5.1995 H   0  0  0  0  0  0
    4.4264    3.2786    4.6459 H   0  0  0  0  0  0
    2.1657    2.7709    4.9512 H   0  0  0  0  0  0
    1.1506    0.4941    4.6487 H   0  0  0  0  0  0
    2.8034   -0.1592    4.3876 H   0  0  0  0  0  0
    1.7988    3.1619    2.8251 H   0  0  0  0  0  0
    1.6041    1.3849    2.6491 H   0  0  0  0  0  0
    5.7017    0.6122   -2.8865 H   0  0  0  0  0  0
    4.4458    1.8827   -3.0745 H   0  0  0  0  0  0
    6.8095    1.7661   -1.1666 H   0  0  0  0  0  0
    6.1719    3.1611   -2.1014 H   0  0  0  0  0  0
    4.3388    3.4948   -0.5890 H   0  0  0  0  0  0
    5.5325    2.8234    0.5733 H   0  0  0  0  0  0
    2.3086   -0.9385   10.5696 H   0  0  0  0  0  0
    0.6968   -3.4414    7.4335 H   0  0  0  0  0  0
    1.2600   -1.7157    5.7488 H   0  0  0  0  0  0
    4.8213   -1.5011   -2.0974 H   0  0  0  0  0  0
    5.3197   -0.6340    0.8164 H   0  0  0  0  0  0
    2.2495    2.4606    7.5021 H   0  0  0  0  0  0
    2.9076    3.4086    8.8787 H   0  0  0  0  0  0
    1.3636    2.5094    9.0640 H   0  0  0  0  0  0
    4.6081    1.2438    7.4611 H   0  0  0  0  0  0
    5.1894    0.4999    8.9893 H   0  0  0  0  0  0
    5.0525    2.2859    8.8550 H   0  0  0  0  0  0
    2.2503    1.3345   11.0727 H   0  0  0  0  0  0
    3.7288    2.3369   10.8838 H   0  0  0  0  0  0
    3.8657    0.5509   11.0180 H   0  0  0  0  0  0
    5.7698   -2.2785   -0.0340 H   0  0  0  0  0  0
  1  2  1  0  0  0
  1  7  2  0  0  0
  1  9  1  0  0  0
  2  3  1  0  0  0
  2  8  1  0  0  0
  2 30  1  0  0  0
  3  4  1  0  0  0
  3 31  1  0  0  0
  3 32  1  0  0  0
  4  5  1  0  0  0
  4 33  1  0  0  0
  4 34  1  0  0  0
  5  6  1  0  0  0
  5  8  1  0  0  0
  5 35  1  0  0  0
  6 11  1  0  0  0
  6 36  1  0  0  0
  6 37  1  0  0  0
  8 38  1  0  0  0
  8 39  1  0  0  0
  9 12  1  0  0  0
  9 15  1  0  0  0
 10 11  1  0  0  0
 10 16  2  0  0  0
 10 20  1  0  0  0
 12 13  1  0  0  0
 12 21  2  0  0  0
 13 14  1  0  0  0
 13 40  1  0  0  0
 13 41  1  0  0  0
 14 15  1  0  0  0
 14 42  1  0  0  0
 14 43  1  0  0  0
 15 44  1  0  0  0
 15 45  1  0  0  0
 16 17  1  0  0  0
 16 24  1  0  0  0
 17 18  2  0  0  0
 17 46  1  0  0  0
 18 19  1  0  0  0
 18 23  1  0  0  0
 19 20  2  0  0  0
 19 47  1  0  0  0
 20 48  1  0  0  0
 21 22  1  0  0  0
 21 49  1  0  0  0
 22 50  1  0  0  0
 22 60  1  0  0  0
 23 28  2  0  0  0
 23 29  1  0  0  0
 24 25  1  0  0  0
 24 26  1  0  0  0
 24 27  1  0  0  0
 25 51  1  0  0  0
 25 52  1  0  0  0
 25 53  1  0  0  0
 26 54  1  0  0  0
 26 55  1  0  0  0
 26 56  1  0  0  0
 27 57  1  0  0  0
 27 58  1  0  0  0
 27 59  1  0  0  0
M  CHG  2   8   1  29  -1
M  END
> <s_m_source_file>
../2g5p_ligand.sdf

> <i_m_source_file_index>
1

> <s_epik_input>
W0NIMl0xW0NIMl1bQ0gyXVtDQEBIXSgvW0NIXT1OXFtIXSlOMUMoPU8pW0NAQEhdMltDSDJdW0NIMl1bQ0BASF0oW05IMitdMilbQ0gyXU9jM2MoQyhbQ0gzXSkoW0NIM10pW0NIM10pW2NIXWMoW2NIXVtjSF0zKUMoPU8pW09IXQ==

> <s_epik_cmdline>
J2VwaWtfYXBwJywgJy1pbWFlJywgJ2xpZ2FuZF9wcm8ubWFlJywgJy1vbWFlJywgJ2xpZ2FuZF9wcmVwLm1hZScsICctbXMnLCAnMScsICctcGgnLCAnNycsICctcGh0JywgJzAuNScsICctbnQn

> <r_lp_tautomer_probability>
7e-06

> <r_epik_Ionization_Penalty>
  0.1483

> <r_epik_Ionization_Penalty_Charging>
  0.1483

> <r_epik_Ionization_Penalty_Neutral>
  0.0000

> <r_epik_State_Penalty>
  0.1362

> <r_epik_Charging_Adjusted_Penalty>
0.284513227137174

> <i_epik_Tot_Q>
0

> <i_epik_Tot_abs_Q>
2

> <s_epik_Chemistry_Notes>
This compound has an imine and may undergo hydrolysis.

$$$$
