2g5t_ligand
                    3D
 Schrodinger Suite 2020-3.
 48 50  0  0  1  0            999 V2000
   15.0380   -3.1780   34.3720 C   0  0  0  0  0  0
   16.2640   -2.8610   35.2980 C   0  0  2  0  0  0
   16.3980   -3.7420   36.5540 C   0  0  0  0  0  0
   17.2210   -2.8850   37.4980 C   0  0  0  0  0  0
   16.8410   -1.4420   37.1390 C   0  0  2  0  0  0
   15.8640   -0.7930   38.1190 C   0  0  0  0  0  0
   14.2040   -2.3080   34.1930 O   0  0  0  0  0  0
   16.2430   -1.4860   35.8070 N   0  3  0  0  0  0
   14.9510   -4.4520   33.7660 N   0  0  0  0  0  0
   13.6200   -1.1670   38.9610 C   0  0  0  0  0  0
   14.6790   -1.5580   38.1280 O   0  0  0  0  0  0
   12.4460   -1.9690   38.9300 C   0  0  0  0  0  0
   11.3200   -1.6600   39.7300 C   0  0  0  0  0  0
   11.3560   -0.5310   40.5800 C   0  0  0  0  0  0
   12.5130    0.2940   40.6390 C   0  0  0  0  0  0
   13.6320   -0.0330   39.8280 C   0  0  0  0  0  0
   13.8400   -4.8460   32.8500 C   0  0  1  0  0  0
   14.2430   -6.2830   32.4370 C   0  0  0  0  0  0
   15.7380   -6.3140   32.6090 C   0  0  0  0  0  0
   15.9070   -5.5440   33.9020 C   0  0  0  0  0  0
   12.4380   -5.0090   33.4500 C   0  0  0  0  0  0
   12.2840   -5.2630   34.7490 N   0  0  0  0  0  0
   12.5620    1.4820   41.5290 C   0  0  0  0  0  0
   12.3680   -3.3680   37.8940 Cl  0  0  0  0  0  0
   13.5830    2.1660   41.5540 O   0  5  0  0  0  0
   11.5870    1.7530   42.2190 O   0  0  0  0  0  0
   17.1354   -2.9996   34.6411 H   0  0  0  0  0  0
   15.3978   -3.9650   36.9539 H   0  0  0  0  0  0
   16.9053   -4.6817   36.2903 H   0  0  0  0  0  0
   16.9602   -3.1308   38.5380 H   0  0  0  0  0  0
   18.2907   -3.0804   37.3323 H   0  0  0  0  0  0
   17.7416   -0.8104   37.1337 H   0  0  0  0  0  0
   16.3108   -0.7746   39.1240 H   0  0  0  0  0  0
   15.6484    0.2358   37.7947 H   0  0  0  0  0  0
   16.8157   -0.8355   35.1296 H   0  0  0  0  0  0
   15.2031   -1.1317   35.8634 H   0  0  0  0  0  0
   10.4305   -2.2888   39.6909 H   0  0  0  0  0  0
   10.4893   -0.2906   41.1957 H   0  0  0  0  0  0
   14.5208    0.5966   39.8685 H   0  0  0  0  0  0
   13.7379   -7.0080   33.0921 H   0  0  0  0  0  0
   13.9447   -6.4619   31.3934 H   0  0  0  0  0  0
   16.0778   -7.3581   32.6760 H   0  0  0  0  0  0
   16.2165   -5.8274   31.7463 H   0  0  0  0  0  0
   16.9203   -5.1319   34.0175 H   0  0  0  0  0  0
   15.6528   -6.1458   34.7870 H   0  0  0  0  0  0
   11.5504   -4.9163   32.8069 H   0  0  0  0  0  0
   13.1661   -5.3572   35.3993 H   0  0  0  0  0  0
   11.2747   -5.3784   35.1710 H   0  0  0  0  0  0
  1  2  1  0  0  0
  1  7  2  0  0  0
  1  9  1  0  0  0
  2  3  1  0  0  0
  2  8  1  0  0  0
  2 27  1  0  0  0
  3  4  1  0  0  0
  3 28  1  0  0  0
  3 29  1  0  0  0
  4  5  1  0  0  0
  4 30  1  0  0  0
  4 31  1  0  0  0
  5  6  1  0  0  0
  5  8  1  0  0  0
  5 32  1  0  0  0
  6 11  1  0  0  0
  6 33  1  0  0  0
  6 34  1  0  0  0
  8 35  1  0  0  0
  8 36  1  0  0  0
  9 17  1  0  0  0
  9 20  1  0  0  0
 10 11  1  0  0  0
 10 12  2  0  0  0
 10 16  1  0  0  0
 12 13  1  0  0  0
 12 24  1  0  0  0
 13 14  2  0  0  0
 13 37  1  0  0  0
 14 15  1  0  0  0
 14 38  1  0  0  0
 15 16  2  0  0  0
 15 23  1  0  0  0
 16 39  1  0  0  0
 17 18  1  0  0  0
 17 21  2  0  0  0
 18 19  1  0  0  0
 18 40  1  0  0  0
 18 41  1  0  0  0
 19 20  1  0  0  0
 19 42  1  0  0  0
 19 43  1  0  0  0
 20 44  1  0  0  0
 20 45  1  0  0  0
 21 22  1  0  0  0
 21 46  1  0  0  0
 22 47  1  0  0  0
 22 48  1  0  0  0
 23 25  1  0  0  0
 23 26  2  0  0  0
M  CHG  2   8   1  25  -1
M  END
> <s_m_source_file>
../2g5t_ligand.sdf

> <i_m_source_file_index>
1

> <s_epik_input>
W0NIMl0xW0NIMl1bQ0gyXVtDQEBIXSgvW0NIXT1OXFtIXSlOMUMoPU8pW0NAQEhdMltDSDJdW0NIMl1bQ0BASF0oW05IMitdMilbQ0gyXU9jM2MoQ2wpW2NIXVtjSF1jKFtjSF0zKUMoPU8pW09IXQ==

> <s_epik_cmdline>
J2VwaWtfYXBwJywgJy1pbWFlJywgJ2xpZ2FuZF9wcm8ubWFlJywgJy1vbWFlJywgJ2xpZ2FuZF9wcmVwLm1hZScsICctbXMnLCAnMScsICctcGgnLCAnNycsICctcGh0JywgJzAuNScsICctbnQn

> <r_lp_tautomer_probability>
7e-06

> <r_epik_Ionization_Penalty>
  0.1927

> <r_epik_Ionization_Penalty_Charging>
  0.1926

> <r_epik_Ionization_Penalty_Neutral>
  0.0000

> <r_epik_State_Penalty>
  0.1820

> <r_epik_Charging_Adjusted_Penalty>
0.374650173868252

> <i_epik_Tot_Q>
0

> <i_epik_Tot_abs_Q>
2

> <s_epik_Chemistry_Notes>
This compound has an imine and may undergo hydrolysis.

$$$$
