2g63_ligand
                    3D
 Schrodinger Suite 2020-3.
 57 59  0  0  1  0            999 V2000
   30.1760    5.9180   63.3430 C   0  0  0  0  0  0
   31.5050    5.7600   64.1470 C   0  0  2  0  0  0
   32.6700    6.5510   63.5310 C   0  0  0  0  0  0
   33.8850    5.7000   63.8640 C   0  0  0  0  0  0
   33.3640    4.2500   63.9400 C   0  0  2  0  0  0
   33.6410    3.3870   62.6540 C   0  0  0  0  0  0
   29.8920    5.0340   62.5400 O   0  0  0  0  0  0
   31.9180    4.3450   64.1490 N   0  3  0  0  0  0
   29.3600    7.0430   63.5770 N   0  0  0  0  0  0
   28.0840    7.2640   62.8710 C   0  0  1  0  0  0
   27.5160    8.5660   63.4780 C   0  0  0  0  0  0
   28.5450    9.1370   64.4320 C   0  0  0  0  0  0
   29.6600    8.1060   64.5340 C   0  0  0  0  0  0
   28.1250    7.5600   61.3410 C   0  0  0  0  0  0
   33.0220    3.9360   61.4170 N   0  0  0  0  0  0
   33.6550    4.8220   60.5940 C   0  0  0  0  0  0
   34.7820    5.2270   60.8520 O   0  0  0  0  0  0
   29.2690    7.6620   60.6450 N   0  0  0  0  0  0
   32.8890    5.2610   59.5320 N   0  0  0  0  0  0
   33.2070    6.2530   58.6110 C   0  0  0  0  0  0
   32.1390    6.7570   57.8220 C   0  0  0  0  0  0
   32.3630    7.7880   56.8710 C   0  0  0  0  0  0
   33.6720    8.3310   56.6890 C   0  0  0  0  0  0
   34.7460    7.8240   57.4790 C   0  0  0  0  0  0
   34.5200    6.8010   58.4180 C   0  0  0  0  0  0
   33.8880    9.4190   55.7030 C   0  0  0  0  0  0
   32.9950    9.8590   55.0320 O   0  0  0  0  0  0
   35.1600    9.8410   55.6460 O   0  0  0  0  0  0
   35.5360   10.8880   54.7460 C   0  0  0  0  0  0
   31.3240    6.0987   65.1778 H   0  0  0  0  0  0
   32.5119    6.6522   62.4471 H   0  0  0  0  0  0
   32.7180    7.5498   63.9893 H   0  0  0  0  0  0
   34.6408    5.8145   63.0730 H   0  0  0  0  0  0
   34.3084    6.0257   64.8256 H   0  0  0  0  0  0
   33.8430    3.7459   64.7923 H   0  0  0  0  0  0
   34.7253    3.3287   62.4781 H   0  0  0  0  0  0
   33.2380    2.3737   62.7986 H   0  0  0  0  0  0
   31.6596    3.8890   65.1161 H   0  0  0  0  0  0
   31.3978    3.8100   63.3408 H   0  0  0  0  0  0
   27.3088    9.2861   62.6727 H   0  0  0  0  0  0
   26.5845    8.3426   64.0187 H   0  0  0  0  0  0
   28.9256   10.0891   64.0338 H   0  0  0  0  0  0
   28.0790    9.3101   65.4133 H   0  0  0  0  0  0
   29.7033    7.6841   65.5490 H   0  0  0  0  0  0
   30.6299    8.5611   64.2845 H   0  0  0  0  0  0
   27.1876    7.6958   60.7818 H   0  0  0  0  0  0
   32.0058    3.6299   61.1280 H   0  0  0  0  0  0
   30.2358    7.5350   61.1542 H   0  0  0  0  0  0
   31.9032    4.8114   59.3419 H   0  0  0  0  0  0
   31.1364    6.3481   57.9476 H   0  0  0  0  0  0
   31.5316    8.1671   56.2767 H   0  0  0  0  0  0
   35.7490    8.2321   57.3543 H   0  0  0  0  0  0
   35.3536    6.4190   59.0074 H   0  0  0  0  0  0
   36.6127   11.0893   54.8471 H   0  0  0  0  0  0
   34.9685   11.7992   54.9860 H   0  0  0  0  0  0
   35.3158   10.5803   53.7131 H   0  0  0  0  0  0
   29.2393    7.8725   59.5657 H   0  0  0  0  0  0
  1  2  1  0  0  0
  1  7  2  0  0  0
  1  9  1  0  0  0
  2  3  1  0  0  0
  2  8  1  0  0  0
  2 30  1  0  0  0
  3  4  1  0  0  0
  3 31  1  0  0  0
  3 32  1  0  0  0
  4  5  1  0  0  0
  4 33  1  0  0  0
  4 34  1  0  0  0
  5  6  1  0  0  0
  5  8  1  0  0  0
  5 35  1  0  0  0
  6 15  1  0  0  0
  6 36  1  0  0  0
  6 37  1  0  0  0
  8 38  1  0  0  0
  8 39  1  0  0  0
  9 10  1  0  0  0
  9 13  1  0  0  0
 10 11  1  0  0  0
 10 14  2  0  0  0
 11 12  1  0  0  0
 11 40  1  0  0  0
 11 41  1  0  0  0
 12 13  1  0  0  0
 12 42  1  0  0  0
 12 43  1  0  0  0
 13 44  1  0  0  0
 13 45  1  0  0  0
 14 18  1  0  0  0
 14 46  1  0  0  0
 15 16  1  0  0  0
 15 47  1  0  0  0
 16 17  2  0  0  0
 16 19  1  0  0  0
 18 48  1  0  0  0
 18 57  1  0  0  0
 19 20  1  0  0  0
 19 49  1  0  0  0
 20 21  2  0  0  0
 20 25  1  0  0  0
 21 22  1  0  0  0
 21 50  1  0  0  0
 22 23  2  0  0  0
 22 51  1  0  0  0
 23 24  1  0  0  0
 23 26  1  0  0  0
 24 25  2  0  0  0
 24 52  1  0  0  0
 25 53  1  0  0  0
 26 27  2  0  0  0
 26 28  1  0  0  0
 28 29  1  0  0  0
 29 54  1  0  0  0
 29 55  1  0  0  0
 29 56  1  0  0  0
M  CHG  1   8   1
M  END
> <s_m_source_file>
../2g63_ligand.sdf

> <i_m_source_file_index>
1

> <s_epik_input>
W0NIMl0xW0NIMl1bQ0gyXVtDQEBIXSgvW0NIXT1OXFtIXSlOMUMoPU8pW0NAQEhdMltDSDJdW0NIMl1bQ0BASF0oW05IMitdMilbQ0gyXVtOSF1DKD1PKVtOSF1jM1tjSF1bY0hdYyhbY0hdW2NIXTMpQyg9TylPW0NIM10=

> <s_epik_cmdline>
J2VwaWtfYXBwJywgJy1pbWFlJywgJ2xpZ2FuZF9wcm8ubWFlJywgJy1vbWFlJywgJ2xpZ2FuZF9wcmVwLm1hZScsICctbXMnLCAnMScsICctcGgnLCAnNycsICctcGh0JywgJzAuNScsICctbnQn

> <r_lp_tautomer_probability>
7e-06

> <r_epik_Ionization_Penalty>
  0.0769

> <r_epik_Ionization_Penalty_Charging>
  0.0769

> <r_epik_Ionization_Penalty_Neutral>
  0.0000

> <r_epik_State_Penalty>
  0.0679

> <r_epik_Charging_Adjusted_Penalty>
0.144766635375307

> <i_epik_Tot_Q>
1

> <i_epik_Tot_abs_Q>
1

> <s_epik_Chemistry_Notes>
This compound has an ester and may undergo hydrolysis at high or low pH. This compound has an imine and may undergo hydrolysis.

$$$$
