2g6q_ligand
                    3D
 Schrodinger Suite 2020-3.
147146  0  0  1  0            999 V2000
   -9.0380   36.6630   13.6420 N   0  3  0  0  0  0
   -7.6960   37.2800   13.8610 C   0  0  2  0  0  0
   -6.7980   37.0640   12.6440 C   0  0  0  0  0  0
   -7.1570   36.3330   11.7260 O   0  0  0  0  0  0
   -7.0460   36.6810   15.1030 C   0  0  0  0  0  0
   -5.6390   37.7160   12.6350 N   0  0  0  0  0  0
   -4.6890   37.5710   11.5250 C   0  0  2  0  0  0
   -3.5290   36.7140   12.0160 C   0  0  0  0  0  0
   -2.7980   37.1040   12.9250 O   0  0  0  0  0  0
   -4.1350   38.9300   11.0770 C   0  0  0  0  0  0
   -5.1510   39.8840   10.4760 C   0  0  0  0  0  0
   -4.4560   41.0650    9.8080 C   0  0  0  0  0  0
   -3.5660   41.7720   10.7260 N   0  0  0  0  0  0
   -2.2380   41.7880   10.6310 C   0  0  0  0  0  0
   -1.6260   41.1350    9.6510 N   0  3  0  0  0  0
   -1.5190   42.4560   11.5260 N   0  0  0  0  0  0
   -3.3620   35.5460   11.4160 N   0  0  0  0  0  0
   -2.2810   34.6660   11.8140 C   0  0  2  0  0  0
   -1.6600   34.0740   10.5580 C   0  0  0  0  0  0
   -2.2560   34.1010    9.4780 O   0  0  0  0  0  0
   -2.7880   33.5070   12.6930 C   0  0  2  0  0  0
   -3.6010   32.6360   11.9030 O   0  0  0  0  0  0
   -3.6060   34.0310   13.8580 C   0  0  0  0  0  0
   -0.4560   33.5380   10.7030 N   0  0  0  0  0  0
    0.2200   32.9230    9.5800 C   0  0  1  0  0  0
    1.0350   33.9320    8.7640 C   0  0  0  0  0  0
    2.2720   34.4460    9.4970 C   0  0  0  0  0  0
    3.0940   35.4370    8.6830 C   0  0  0  0  0  0
    4.1130   36.1920    9.5470 C   0  0  0  0  0  0
    5.3180   36.7200    8.7770 N   0  3  0  0  0  0
    1.1280   31.8190   10.0950 C   0  0  0  0  0  0
    1.5680   31.8370   11.2470 O   0  0  0  0  0  0
    4.9030   37.6410    7.6770 C   0  0  0  0  0  0
    6.1860   35.7110    8.0870 C   0  0  0  0  0  0
    6.1920   37.4940    9.7060 C   0  0  0  0  0  0
    1.3870   30.8520    9.2280 N   0  0  0  0  0  0
    2.2580   29.7360    9.5460 C   0  0  2  0  0  0
    3.6070   30.0830    8.9400 C   0  0  0  0  0  0
    3.6820   30.4470    7.7700 O   0  0  0  0  0  0
    1.7270   28.4600    8.8960 C   0  0  0  0  0  0
    0.3200   28.0780    9.3020 C   0  0  0  0  0  0
    0.2990   27.2380   10.5550 C   0  0  0  0  0  0
    0.8210   27.6400   11.5870 O   0  0  0  0  0  0
   -0.3030   26.0570   10.4680 N   0  0  0  0  0  0
    4.6680   29.9860    9.7300 N   0  0  0  0  0  0
    6.0010   30.2880    9.2190 C   0  0  2  0  0  0
    6.2600   29.3540    8.0340 C   0  0  0  0  0  0
    5.9750   28.1570    8.1030 O   0  0  0  0  0  0
    7.0740   30.0730   10.3000 C   0  0  2  0  0  0
    6.8190   30.9540   11.4000 O   0  0  0  0  0  0
    8.4650   30.3550    9.7380 C   0  0  0  0  0  0
    6.7880   29.9100    6.9480 N   0  0  0  0  0  0
    7.0580   29.1250    5.7450 C   0  0  2  0  0  0
    8.4020   29.5360    5.1500 C   0  0  0  0  0  0
    8.7320   30.7190    5.1060 O   0  0  0  0  0  0
    5.9460   29.3420    4.7250 C   0  0  0  0  0  0
    9.1570   28.5400    4.6900 N   0  0  0  0  0  0
   10.4780   28.7350    4.0700 C   0  0  2  0  0  0
   11.4990   29.0900    5.1510 C   0  0  0  0  0  0
   12.4870   28.3400    5.2880 O   0  0  0  0  0  0
   10.4160   29.8450    3.0180 C   0  0  0  0  0  0
    9.3780   29.6000    1.9360 C   0  0  0  0  0  0
    9.2350   30.8090    1.0270 C   0  0  0  0  0  0
    8.8630   32.0080    1.7740 N   0  0  0  0  0  0
    8.6490   33.1990    1.2230 C   0  0  0  0  0  0
    8.7660   33.3600   -0.0900 N   0  0  0  0  0  0
    8.3190   34.2340    1.9850 N   0  3  0  0  0  0
   11.3395   30.1631    5.9203 O   0  5  0  0  0  0
   -9.6674   36.8299   14.5286 H   0  0  0  0  0  0
   -8.9215   35.5823   13.4732 H   0  0  0  0  0  0
   -9.5137   37.1223   12.7629 H   0  0  0  0  0  0
   -7.8512   38.3591   14.0072 H   0  0  0  0  0  0
   -7.6999   36.8417   15.9728 H   0  0  0  0  0  0
   -6.0751   37.1671   15.2794 H   0  0  0  0  0  0
   -6.8939   35.6019   14.9530 H   0  0  0  0  0  0
   -5.3983   38.3747   13.4824 H   0  0  0  0  0  0
   -5.2394   37.1049   10.6944 H   0  0  0  0  0  0
   -3.6951   39.4495   11.9411 H   0  0  0  0  0  0
   -3.3623   38.7760   10.3094 H   0  0  0  0  0  0
   -5.7512   39.3533    9.7222 H   0  0  0  0  0  0
   -5.8114   40.2639   11.2694 H   0  0  0  0  0  0
   -3.8559   40.7051    8.9593 H   0  0  0  0  0  0
   -5.2113   41.7784    9.4466 H   0  0  0  0  0  0
   -3.9849   42.3428   11.5679 H   0  0  0  0  0  0
   -2.2165   40.5802    8.9071 H   0  0  0  0  0  0
   -2.0211   42.9990   12.3403 H   0  0  0  0  0  0
   -0.4215   42.4663   11.4529 H   0  0  0  0  0  0
   -4.0488   35.2444   10.6115 H   0  0  0  0  0  0
   -1.5788   35.2985   12.3768 H   0  0  0  0  0  0
   -1.9500   32.9016   13.0688 H   0  0  0  0  0  0
   -3.1817   32.1542   11.0074 H   0  0  0  0  0  0
   -2.9850   34.7021   14.4696 H   0  0  0  0  0  0
   -3.9497   33.1868   14.4738 H   0  0  0  0  0  0
   -4.4765   34.5841   13.4754 H   0  0  0  0  0  0
    0.0292   33.5641   11.6899 H   0  0  0  0  0  0
   -0.5859   32.5227    8.9473 H   0  0  0  0  0  0
    1.3763   33.4589    7.8314 H   0  0  0  0  0  0
    0.4069   34.8028    8.5249 H   0  0  0  0  0  0
    1.9647   34.9554   10.4222 H   0  0  0  0  0  0
    2.9291   33.5996    9.7454 H   0  0  0  0  0  0
    3.6444   34.8987    7.8973 H   0  0  0  0  0  0
    2.4238   36.1764    8.2203 H   0  0  0  0  0  0
    3.6251   37.0593   10.0158 H   0  0  0  0  0  0
    4.4990   35.5215   10.3289 H   0  0  0  0  0  0
    4.2551   37.1006    6.9712 H   0  0  0  0  0  0
    5.7958   38.0069    7.1487 H   0  0  0  0  0  0
    4.3525   38.4938    8.1009 H   0  0  0  0  0  0
    5.5757   35.1176    7.3903 H   0  0  0  0  0  0
    6.6400   35.0449    8.8355 H   0  0  0  0  0  0
    6.9792   36.2301    7.5290 H   0  0  0  0  0  0
    5.5894   38.2480   10.2336 H   0  0  0  0  0  0
    6.9850   37.9949    9.1314 H   0  0  0  0  0  0
    6.6459   36.8097   10.4379 H   0  0  0  0  0  0
    0.9148   30.9160    8.2366 H   0  0  0  0  0  0
    2.2948   29.6063   10.6377 H   0  0  0  0  0  0
    1.7192   28.5813    7.8027 H   0  0  0  0  0  0
    2.3754   27.6135    9.1663 H   0  0  0  0  0  0
   -0.2673   28.9888    9.4904 H   0  0  0  0  0  0
   -0.1505   27.4990    8.4936 H   0  0  0  0  0  0
   -0.7577   25.7401    9.5178 H   0  0  0  0  0  0
   -0.3468   25.3960   11.3461 H   0  0  0  0  0  0
    4.5377   29.6754   10.7772 H   0  0  0  0  0  0
    6.0017   31.3471    8.9219 H   0  0  0  0  0  0
    7.0273   29.0505   10.7029 H   0  0  0  0  0  0
    5.8606   30.9000   11.9372 H   0  0  0  0  0  0
    8.6629   29.6793    8.8929 H   0  0  0  0  0  0
    9.2178   30.1906   10.5230 H   0  0  0  0  0  0
    8.5165   31.3983    9.3932 H   0  0  0  0  0  0
    7.0223   30.9846    6.9676 H   0  0  0  0  0  0
    7.0864   28.0693    6.0528 H   0  0  0  0  0  0
    4.9826   29.0429    5.1637 H   0  0  0  0  0  0
    6.1458   28.7345    3.8300 H   0  0  0  0  0  0
    5.9073   30.4052    4.4454 H   0  0  0  0  0  0
    8.7424   27.5264    4.7938 H   0  0  0  0  0  0
   10.7486   27.7856    3.5848 H   0  0  0  0  0  0
   10.1637   30.7983    3.5053 H   0  0  0  0  0  0
   11.3934   29.9345    2.5213 H   0  0  0  0  0  0
    9.6812   28.7365    1.3258 H   0  0  0  0  0  0
    8.4032   29.3950    2.4027 H   0  0  0  0  0  0
   10.1917   31.0012    0.5194 H   0  0  0  0  0  0
    8.4547   30.6134    0.2768 H   0  0  0  0  0  0
    8.7429   31.9603    2.8664 H   0  0  0  0  0  0
    9.0393   32.5056   -0.7267 H   0  0  0  0  0  0
    8.5896   34.3477   -0.5409 H   0  0  0  0  0  0
    8.2206   34.1066    3.0732 H   0  0  0  0  0  0
   -0.5282   41.1486    9.5827 H   0  0  0  0  0  0
    8.1438   35.2194    1.5285 H   0  0  0  0  0  0
  1  2  1  0  0  0
  1 69  1  0  0  0
  1 70  1  0  0  0
  1 71  1  0  0  0
  2  5  1  0  0  0
  2  3  1  0  0  0
  2 72  1  0  0  0
  3  4  2  0  0  0
  3  6  1  0  0  0
  5 73  1  0  0  0
  5 74  1  0  0  0
  5 75  1  0  0  0
  6  7  1  0  0  0
  6 76  1  0  0  0
  7 10  1  0  0  0
  7  8  1  0  0  0
  7 77  1  0  0  0
  8  9  2  0  0  0
  8 17  1  0  0  0
 10 11  1  0  0  0
 10 78  1  0  0  0
 10 79  1  0  0  0
 11 12  1  0  0  0
 11 80  1  0  0  0
 11 81  1  0  0  0
 12 13  1  0  0  0
 12 82  1  0  0  0
 12 83  1  0  0  0
 13 14  1  0  0  0
 13 84  1  0  0  0
 14 16  1  0  0  0
 14 15  2  0  0  0
 15 85  1  0  0  0
 15146  1  0  0  0
 16 86  1  0  0  0
 16 87  1  0  0  0
 17 18  1  0  0  0
 17 88  1  0  0  0
 18 21  1  0  0  0
 18 19  1  0  0  0
 18 89  1  0  0  0
 19 20  2  0  0  0
 19 24  1  0  0  0
 21 23  1  0  0  0
 21 22  1  0  0  0
 21 90  1  0  0  0
 22 91  1  0  0  0
 23 92  1  0  0  0
 23 93  1  0  0  0
 23 94  1  0  0  0
 24 25  1  0  0  0
 24 95  1  0  0  0
 25 26  1  0  0  0
 25 31  1  0  0  0
 25 96  1  0  0  0
 26 27  1  0  0  0
 26 97  1  0  0  0
 26 98  1  0  0  0
 27 28  1  0  0  0
 27 99  1  0  0  0
 27100  1  0  0  0
 28 29  1  0  0  0
 28101  1  0  0  0
 28102  1  0  0  0
 29 30  1  0  0  0
 29103  1  0  0  0
 29104  1  0  0  0
 30 33  1  0  0  0
 30 34  1  0  0  0
 30 35  1  0  0  0
 31 32  2  0  0  0
 31 36  1  0  0  0
 33105  1  0  0  0
 33106  1  0  0  0
 33107  1  0  0  0
 34108  1  0  0  0
 34109  1  0  0  0
 34110  1  0  0  0
 35111  1  0  0  0
 35112  1  0  0  0
 35113  1  0  0  0
 36 37  1  0  0  0
 36114  1  0  0  0
 37 40  1  0  0  0
 37 38  1  0  0  0
 37115  1  0  0  0
 38 39  2  0  0  0
 38 45  1  0  0  0
 40 41  1  0  0  0
 40116  1  0  0  0
 40117  1  0  0  0
 41 42  1  0  0  0
 41118  1  0  0  0
 41119  1  0  0  0
 42 44  1  0  0  0
 42 43  2  0  0  0
 44120  1  0  0  0
 44121  1  0  0  0
 45 46  1  0  0  0
 45122  1  0  0  0
 46 49  1  0  0  0
 46 47  1  0  0  0
 46123  1  0  0  0
 47 48  2  0  0  0
 47 52  1  0  0  0
 49 51  1  0  0  0
 49 50  1  0  0  0
 49124  1  0  0  0
 50125  1  0  0  0
 51126  1  0  0  0
 51127  1  0  0  0
 51128  1  0  0  0
 52 53  1  0  0  0
 52129  1  0  0  0
 53 56  1  0  0  0
 53 54  1  0  0  0
 53130  1  0  0  0
 54 55  2  0  0  0
 54 57  1  0  0  0
 56131  1  0  0  0
 56132  1  0  0  0
 56133  1  0  0  0
 57 58  1  0  0  0
 57134  1  0  0  0
 58 61  1  0  0  0
 58 59  1  0  0  0
 58135  1  0  0  0
 59 60  2  0  0  0
 59 68  1  0  0  0
 61 62  1  0  0  0
 61136  1  0  0  0
 61137  1  0  0  0
 62 63  1  0  0  0
 62138  1  0  0  0
 62139  1  0  0  0
 63 64  1  0  0  0
 63140  1  0  0  0
 63141  1  0  0  0
 64 65  1  0  0  0
 64142  1  0  0  0
 65 67  2  0  0  0
 65 66  1  0  0  0
 66143  1  0  0  0
 66144  1  0  0  0
 67145  1  0  0  0
 67147  1  0  0  0
M  CHG  5   1   1  15   1  30   1  67   1  68  -1
M  END
> <s_m_source_file>
../2g6q_ligand.sdf

> <i_m_source_file_index>
1

> <s_epik_input>
W0hdL049QyhbTkgyXSlcW05IXVtDSDJdW0NIMl1bQ0gyXVtDQEhdKFtOSF1DKD1PKVtDQEBIXShbTkgzK10pW0NIM10pQyg9TylbTkhdW0NAQEhdKFtDQEhdKFtPSF0pW0NIM10pQyg9TylbTkhdW0NAQEhdKFtDSDJdW0NIMl1bQ0gyXVtDSDJdW04rXShbQ0gzXSkoW0NIM10pW0NIM10pQyg9TylbTkhdW0NAQEhdKFtDSDJdW0NIMl1DKD1PKVtOSDJdKUMoPU8pW05IXVtDQEBIXShbQ0BIXShbT0hdKVtDSDNdKUMoPU8pW05IXVtDQEBIXShbQ0gzXSlDKD1PKVtOSF1bQ0BIXShDKD1PKVtPSF0pW0NIMl1bQ0gyXVtDSDJdW05IXS9DKFtOSDJdKT1OXFtIXQ==

> <s_epik_cmdline>
J2VwaWtfYXBwJywgJy1pbWFlJywgJ2xpZ2FuZF9wcm8ubWFlJywgJy1vbWFlJywgJ2xpZ2FuZF9wcmVwLm1hZScsICctbXMnLCAnMScsICctcGgnLCAnNycsICctcGh0JywgJzAuNScsICctbnQn

> <r_epik_Ionization_Penalty>
  0.1252

> <r_epik_Ionization_Penalty_Charging>
  0.1252

> <r_epik_Ionization_Penalty_Neutral>
  0.0000

> <r_epik_State_Penalty>
  0.1145

> <r_epik_Charging_Adjusted_Penalty>
0.239751587332022

> <i_epik_Tot_Q>
3

> <i_epik_Tot_abs_Q>
5

> <s_epik_Chemistry_Notes>
This compound has an imine and may undergo hydrolysis.

$$$$
