2g78_ligand
                    3D
 Schrodinger Suite 2020-3.
 51 51  0  0  1  0            999 V2000
   21.6270   29.3960   16.5110 C   0  0  0  0  0  0
   20.5360   30.0740   15.6790 C   0  0  0  0  0  0
   19.8510   29.1120   14.7310 C   0  0  0  0  0  0
   19.1600   27.9620   15.4160 C   0  0  0  0  0  0
   20.0480   27.3390   16.4260 C   0  0  0  0  0  0
   21.1140   28.0640   16.9900 C   0  0  0  0  0  0
   21.9100   27.5430   18.0670 C   0  0  0  0  0  0
   21.2650   26.8470   19.1450 C   0  0  0  0  0  0
   22.1110   26.1800   20.0880 C   0  0  0  0  0  0
   21.4310   25.2640   20.9460 C   0  0  0  0  0  0
   22.1430   24.7110   22.0350 C   0  0  0  0  0  0
   21.3270   23.7670   22.7880 C   0  0  0  0  0  0
   21.9120   23.0970   23.9240 C   0  0  0  0  0  0
   21.0020   22.2940   24.6310 C   0  0  0  0  0  0
   21.4340   21.5600   25.8120 C   0  0  0  0  0  0
   22.0600   30.2480   17.7000 C   0  0  0  0  0  0
   22.8920   29.1420   15.6960 C   0  0  0  0  0  0
   19.7050   25.9520   16.8200 C   0  0  0  0  0  0
   23.5870   26.3550   20.2110 C   0  0  0  0  0  0
   23.3450   23.2190   24.3400 C   0  0  0  0  0  0
   22.4630   20.8280   25.7930 O   0  5  0  0  0  0
   20.7930   21.7510   26.8620 O   0  0  0  0  0  0
   19.7709   30.4929   16.3492 H   0  0  0  0  0  0
   20.9808   30.8822   15.0799 H   0  0  0  0  0  0
   19.0867   29.6503   14.1513 H   0  0  0  0  0  0
   20.5951   28.6807   14.0452 H   0  0  0  0  0  0
   18.2525   28.3268   15.9193 H   0  0  0  0  0  0
   18.8850   27.2023   14.6695 H   0  0  0  0  0  0
   22.6352   26.8178   17.6694 H   0  0  0  0  0  0
   22.4476   28.3676   18.5578 H   0  0  0  0  0  0
   20.6681   27.5578   19.7353 H   0  0  0  0  0  0
   20.6066   26.0666   18.7357 H   0  0  0  0  0  0
   20.3797   25.0051   20.7515 H   0  0  0  0  0  0
   23.1792   24.9115   22.3448 H   0  0  0  0  0  0
   20.2863   23.5770   22.4866 H   0  0  0  0  0  0
   19.9580   22.2176   24.2931 H   0  0  0  0  0  0
   21.1864   30.4673   18.3314 H   0  0  0  0  0  0
   22.4955   31.1904   17.3365 H   0  0  0  0  0  0
   22.8103   29.7006   18.2894 H   0  0  0  0  0  0
   22.6450   28.5279   14.8175 H   0  0  0  0  0  0
   23.6288   28.6126   16.3180 H   0  0  0  0  0  0
   23.3140   30.1024   15.3651 H   0  0  0  0  0  0
   18.8372   25.6093   16.2374 H   0  0  0  0  0  0
   19.4606   25.9252   17.8922 H   0  0  0  0  0  0
   20.5627   25.2921   16.6229 H   0  0  0  0  0  0
   23.9311   27.0953   19.4738 H   0  0  0  0  0  0
   24.0870   25.3929   20.0254 H   0  0  0  0  0  0
   23.8314   26.7058   21.2245 H   0  0  0  0  0  0
   23.8712   23.8941   23.6491 H   0  0  0  0  0  0
   23.8195   22.2269   24.3158 H   0  0  0  0  0  0
   23.3971   23.6256   25.3608 H   0  0  0  0  0  0
  1  2  1  0  0  0
  1  6  1  0  0  0
  1 16  1  0  0  0
  1 17  1  0  0  0
  2  3  1  0  0  0
  2 23  1  0  0  0
  2 24  1  0  0  0
  3  4  1  0  0  0
  3 25  1  0  0  0
  3 26  1  0  0  0
  4  5  1  0  0  0
  4 27  1  0  0  0
  4 28  1  0  0  0
  5  6  2  0  0  0
  5 18  1  0  0  0
  6  7  1  0  0  0
  7  8  1  0  0  0
  7 29  1  0  0  0
  7 30  1  0  0  0
  8  9  1  0  0  0
  8 31  1  0  0  0
  8 32  1  0  0  0
  9 10  2  0  0  0
  9 19  1  0  0  0
 10 11  1  0  0  0
 10 33  1  0  0  0
 11 12  2  0  0  0
 11 34  1  0  0  0
 12 13  1  0  0  0
 12 35  1  0  0  0
 13 14  2  0  0  0
 13 20  1  0  0  0
 14 15  1  0  0  0
 14 36  1  0  0  0
 15 21  1  0  0  0
 15 22  2  0  0  0
 16 37  1  0  0  0
 16 38  1  0  0  0
 16 39  1  0  0  0
 17 40  1  0  0  0
 17 41  1  0  0  0
 17 42  1  0  0  0
 18 43  1  0  0  0
 18 44  1  0  0  0
 18 45  1  0  0  0
 19 46  1  0  0  0
 19 47  1  0  0  0
 19 48  1  0  0  0
 20 49  1  0  0  0
 20 50  1  0  0  0
 20 51  1  0  0  0
M  CHG  1  21  -1
M  END
> <s_m_source_file>
../2g78_ligand.sdf

> <i_m_source_file_index>
1

> <s_epik_input>
W0NIM11DMShbQ0gzXSlbQ0gyXVtDSDJdW0NIMl1DKFtDSDNdKT1DMVtDSDJdW0NIMl0vQyhbQ0gzXSk9W0NIXS9bQ0hdPVtDSF0vQyhbQ0gzXSk9W0NIXS9DKD1PKVtPSF0=

> <s_epik_cmdline>
J2VwaWtfYXBwJywgJy1pbWFlJywgJ2xpZ2FuZF9wcm8ubWFlJywgJy1vbWFlJywgJ2xpZ2FuZF9wcmVwLm1hZScsICctbXMnLCAnMScsICctcGgnLCAnNycsICctcGh0JywgJzAuNScsICctbnQn

> <r_lp_tautomer_probability>
1

> <r_epik_Ionization_Penalty>
  0.0087

> <r_epik_Ionization_Penalty_Charging>
  0.0087

> <r_epik_Ionization_Penalty_Neutral>
  0.0000

> <r_epik_State_Penalty>
 -0.0000

> <r_epik_Charging_Adjusted_Penalty>
0.00866183243074315

> <i_epik_Tot_Q>
-1

> <i_epik_Tot_abs_Q>
1

$$$$
