2g79_ligand
                    3D
 Schrodinger Suite 2020-3.
 49 49  0  0  1  0            999 V2000
   21.7940    6.4900  -21.2990 C   0  0  0  0  0  0
   21.0390    7.2510  -22.3780 C   0  0  0  0  0  0
   20.3520    6.2920  -23.3370 C   0  0  0  0  0  0
   19.2600    5.6010  -22.5430 C   0  0  0  0  0  0
   19.8760    4.8340  -21.4040 C   0  0  0  0  0  0
   21.0430    5.2370  -20.8310 C   0  0  0  0  0  0
   21.6810    4.5570  -19.6790 C   0  0  0  0  0  0
   21.0940    3.6690  -18.8940 C   0  0  0  0  0  0
   21.7880    3.0910  -17.7450 C   0  0  0  0  0  0
   21.0710    2.2090  -17.0310 C   0  0  0  0  0  0
   21.5700    1.5290  -15.8630 C   0  0  0  0  0  0
   20.7260    0.6830  -15.2670 C   0  0  0  0  0  0
   21.1190   -0.0760  -14.0590 C   0  0  0  0  0  0
   20.1720   -0.8200  -13.4680 C   0  0  0  0  0  0
   20.3660   -1.6310  -12.2650 C   0  0  0  0  0  0
   21.4350   -1.7540  -11.6910 O   0  0  0  0  0  0
   22.0030    7.4310  -20.1130 C   0  0  0  0  0  0
   23.1720    6.1210  -21.8420 C   0  0  0  0  0  0
   19.0820    3.6230  -20.9990 C   0  0  0  0  0  0
   23.2240    3.4340  -17.4100 C   0  0  0  0  0  0
   22.5260   -0.0350  -13.5200 C   0  0  0  0  0  0
   20.2762    7.8906  -21.9100 H   0  0  0  0  0  0
   21.7431    7.8763  -22.9466 H   0  0  0  0  0  0
   19.9282    6.8574  -24.1801 H   0  0  0  0  0  0
   21.0847    5.5639  -23.7152 H   0  0  0  0  0  0
   18.5644    6.3540  -22.1440 H   0  0  0  0  0  0
   18.7130    4.9074  -23.1985 H   0  0  0  0  0  0
   22.7275    4.8439  -19.4986 H   0  0  0  0  0  0
   20.0614    3.3505  -19.0998 H   0  0  0  0  0  0
   20.0394    1.9696  -17.3286 H   0  0  0  0  0  0
   22.5821    1.6735  -15.4570 H   0  0  0  0  0  0
   19.7140    0.5384  -15.6731 H   0  0  0  0  0  0
   19.1557   -0.8515  -13.8877 H   0  0  0  0  0  0
   19.4734   -2.1473  -11.8819 H   0  0  0  0  0  0
   21.0264    7.7178  -19.6960 H   0  0  0  0  0  0
   22.5369    8.3320  -20.4495 H   0  0  0  0  0  0
   22.5961    6.9205  -19.3400 H   0  0  0  0  0  0
   23.0582    5.4419  -22.6999 H   0  0  0  0  0  0
   23.7550    5.6218  -21.0540 H   0  0  0  0  0  0
   23.6958    7.0333  -22.1635 H   0  0  0  0  0  0
   18.1866    3.5428  -21.6329 H   0  0  0  0  0  0
   18.7784    3.7189  -19.9461 H   0  0  0  0  0  0
   19.7001    2.7214  -21.1217 H   0  0  0  0  0  0
   23.6013    4.1755  -18.1296 H   0  0  0  0  0  0
   23.8403    2.5244  -17.4636 H   0  0  0  0  0  0
   23.2737    3.8513  -16.3934 H   0  0  0  0  0  0
   23.1393    0.6297  -14.1462 H   0  0  0  0  0  0
   22.9533   -1.0485  -13.5331 H   0  0  0  0  0  0
   22.5121    0.3438  -12.4874 H   0  0  0  0  0  0
  1  2  1  0  0  0
  1  6  1  0  0  0
  1 17  1  0  0  0
  1 18  1  0  0  0
  2  3  1  0  0  0
  2 22  1  0  0  0
  2 23  1  0  0  0
  3  4  1  0  0  0
  3 24  1  0  0  0
  3 25  1  0  0  0
  4  5  1  0  0  0
  4 26  1  0  0  0
  4 27  1  0  0  0
  5  6  2  0  0  0
  5 19  1  0  0  0
  6  7  1  0  0  0
  7  8  2  0  0  0
  7 28  1  0  0  0
  8  9  1  0  0  0
  8 29  1  0  0  0
  9 10  2  0  0  0
  9 20  1  0  0  0
 10 11  1  0  0  0
 10 30  1  0  0  0
 11 12  2  0  0  0
 11 31  1  0  0  0
 12 13  1  0  0  0
 12 32  1  0  0  0
 13 14  2  0  0  0
 13 21  1  0  0  0
 14 15  1  0  0  0
 14 33  1  0  0  0
 15 16  2  0  0  0
 15 34  1  0  0  0
 17 35  1  0  0  0
 17 36  1  0  0  0
 17 37  1  0  0  0
 18 38  1  0  0  0
 18 39  1  0  0  0
 18 40  1  0  0  0
 19 41  1  0  0  0
 19 42  1  0  0  0
 19 43  1  0  0  0
 20 44  1  0  0  0
 20 45  1  0  0  0
 20 46  1  0  0  0
 21 47  1  0  0  0
 21 48  1  0  0  0
 21 49  1  0  0  0
M  END
> <s_m_source_file>
../2g79_ligand.sdf

> <i_m_source_file_index>
1

> <s_epik_input>
W0NIM11DMShbQ0gzXSlbQ0gyXVtDSDJdW0NIMl1DKFtDSDNdKT1DMS9bQ0hdPVtDSF0vQyhbQ0gzXSk9W0NIXS9bQ0hdPVtDSF0vQyhbQ0gzXSk9W0NIXS9bQ0hdPU8=

> <s_epik_cmdline>
J2VwaWtfYXBwJywgJy1pbWFlJywgJ2xpZ2FuZF9wcm8ubWFlJywgJy1vbWFlJywgJ2xpZ2FuZF9wcmVwLm1hZScsICctbXMnLCAnMScsICctcGgnLCAnNycsICctcGh0JywgJzAuNScsICctbnQn

> <r_lp_tautomer_probability>
1

> <r_epik_Ionization_Penalty>
  0.0000

> <r_epik_Ionization_Penalty_Charging>
  0.0000

> <r_epik_Ionization_Penalty_Neutral>
  0.0000

> <r_epik_State_Penalty>
 -0.0000

> <r_epik_Charging_Adjusted_Penalty>
0

> <i_epik_Tot_Q>
0

> <i_epik_Tot_abs_Q>
0

$$$$
