2g83_ligand
                    3D
 Schrodinger Suite 2020-3.
 40 42  0  0  1  0            999 V2000
  -47.8950   27.1140   35.9390 P   0  0  0  0  0  0
  -49.2200   26.8930   35.9560 O   0  5  0  0  0  0
  -47.5670   25.8900   36.3520 O   0  0  0  0  0  0
  -47.2060   27.5800   34.6850 O   0  5  0  0  0  0
  -47.8260   27.7890   37.2410 O   0  0  0  0  0  0
  -48.4950   29.0410   37.7140 P   0  0  1  0  0  0
  -47.4670   29.8200   38.0930 O   0  5  0  0  0  0
  -49.1850   29.8080   36.8630 O   0  0  0  0  0  0
  -49.2600   29.0910   38.9510 O   0  0  0  0  0  0
  -50.4990   29.5900   38.7360 C   0  0  0  0  0  0
  -51.1570   30.5340   39.7230 C   0  0  1  0  0  0
  -51.1220   30.2470   41.0630 O   0  0  0  0  0  0
  -50.6460   31.8780   39.6520 C   0  0  1  0  0  0
  -51.6690   32.7310   39.8180 O   0  0  0  0  0  0
  -49.8910   31.8830   40.8540 C   0  0  1  0  0  0
  -49.8680   33.1660   41.1780 O   0  0  0  0  0  0
  -50.7050   31.2660   41.8370 C   0  0  2  0  0  0
  -49.8730   30.5840   42.7850 N   0  0  0  0  0  0
  -48.9210   29.8210   42.4570 C   0  0  0  0  0  0
  -48.3550   29.3030   43.4650 N   0  0  0  0  0  0
  -48.9600   29.7430   44.4930 C   0  0  0  0  0  0
  -48.8770   29.5700   45.8820 C   0  0  0  0  0  0
  -48.1050   28.8720   46.4400 O   0  0  0  0  0  0
  -49.6710   30.1440   46.6260 N   0  0  0  0  0  0
  -50.5480   30.9060   46.1680 C   0  0  0  0  0  0
  -51.2920   31.4390   47.0760 N   0  0  0  0  0  0
  -50.7300   31.1300   44.9300 N   0  0  0  0  0  0
  -49.9580   30.5710   44.0550 C   0  0  0  0  0  0
  -50.5050   30.1651   37.7983 H   0  0  0  0  0  0
  -51.2200   28.7625   38.6632 H   0  0  0  0  0  0
  -52.2236   30.4339   39.4732 H   0  0  0  0  0  0
  -50.1440   32.1912   38.7247 H   0  0  0  0  0  0
  -52.3921   32.8877   39.0040 H   0  0  0  0  0  0
  -48.8815   31.4514   40.7854 H   0  0  0  0  0  0
  -49.2961   33.8780   40.5648 H   0  0  0  0  0  0
  -51.4447   31.9185   42.3239 H   0  0  0  0  0  0
  -48.6214   29.6305   41.4264 H   0  0  0  0  0  0
  -49.6154   29.9898   47.7137 H   0  0  0  0  0  0
  -51.1045   31.2219   48.1379 H   0  0  0  0  0  0
  -52.1143   32.1108   46.7888 H   0  0  0  0  0  0
  1  2  1  0  0  0
  1  3  2  0  0  0
  1  4  1  0  0  0
  1  5  1  0  0  0
  5  6  1  0  0  0
  6  7  1  0  0  0
  6  8  2  0  0  0
  6  9  1  0  0  0
  9 10  1  0  0  0
 10 11  1  0  0  0
 10 29  1  0  0  0
 10 30  1  0  0  0
 11 12  1  0  0  0
 11 13  1  0  0  0
 11 31  1  0  0  0
 12 17  1  0  0  0
 13 14  1  0  0  0
 13 15  1  0  0  0
 13 32  1  0  0  0
 14 33  1  0  0  0
 15 16  1  0  0  0
 15 17  1  0  0  0
 15 34  1  0  0  0
 16 35  1  0  0  0
 17 18  1  0  0  0
 17 36  1  0  0  0
 18 19  1  0  0  0
 18 28  1  0  0  0
 19 20  2  0  0  0
 19 37  1  0  0  0
 20 21  1  0  0  0
 21 22  1  0  0  0
 21 28  2  0  0  0
 22 23  2  0  0  0
 22 24  1  0  0  0
 24 25  1  0  0  0
 24 38  1  0  0  0
 25 26  1  0  0  0
 25 27  2  0  0  0
 26 39  1  0  0  0
 26 40  1  0  0  0
 27 28  1  0  0  0
M  CHG  3   2  -1   4  -1   7  -1
M  END
> <s_m_source_file>
../2g83_ligand.sdf

> <i_m_source_file_index>
1

> <s_epik_input>
W09IXVAoPU8pKFtPSF0pT1tQQF0oPU8pKFtPSF0pT1tDSDJdW0NASF0xT1tDQEhdKFtDQEhdKFtPSF0pW0NAQEhdMVtPSF0pbihbY0hdbjIpYyhjMjMpbmMoW05IMl0pW25IXWMzPU8=

> <s_epik_cmdline>
J2VwaWtfYXBwJywgJy1pbWFlJywgJ2xpZ2FuZF9wcm8ubWFlJywgJy1vbWFlJywgJ2xpZ2FuZF9wcmVwLm1hZScsICctbXMnLCAnMScsICctcGgnLCAnNycsICctcGh0JywgJzAuNScsICctbnQn

> <r_lp_tautomer_probability>
0.999940409345307

> <r_epik_Ionization_Penalty>
  0.1052

> <r_epik_Ionization_Penalty_Charging>
  0.1051

> <r_epik_Ionization_Penalty_Neutral>
  0.0001

> <r_epik_State_Penalty>
  0.0922

> <r_epik_Charging_Adjusted_Penalty>
0.197315167096652

> <i_epik_Tot_Q>
-3

> <i_epik_Tot_abs_Q>
3

> <s_epik_Chemistry_Notes>
This compound contains an acetal/aminal-like group ( X-CH(R)-Y where X, Y are N, S, or O) that may be acid/base labile, releasing an aldehyde.

$$$$
