2g8r_ligand
                    3D
 Schrodinger Suite 2020-3.
 46 48  0  0  1  0            999 V2000
   38.5350    1.0970   18.1450 O   0  0  0  0  0  0
   39.3940    1.8400   17.6080 C   0  0  0  0  0  0
   40.0240    1.4240   16.4820 N   0  0  0  0  0  0
   40.9670    2.1990   15.8860 C   0  0  0  0  0  0
   41.5370    1.7960   14.8380 O   0  0  0  0  0  0
   41.2770    3.4430   16.4440 C   0  0  0  0  0  0
   40.6120    3.8420   17.6060 C   0  0  0  0  0  0
   39.6840    3.0300   18.1680 N   0  0  0  0  0  0
   38.9760    3.4220   19.3960 C   0  0  2  0  0  0
   39.1370    4.8120   19.7010 O   0  0  0  0  0  0
   39.5400    4.9970   21.0700 C   0  0  2  0  0  0
   40.9230    5.6470   21.1450 C   0  0  0  0  0  0
   41.2290    6.2690   19.8900 O   0  0  0  0  0  0
   39.4540    2.6240   20.6170 C   0  0  1  0  0  0
   40.7460    2.0390   20.3840 O   0  0  0  0  0  0
   39.5610    3.6250   21.7540 C   0  0  2  0  0  0
   38.3730    3.3910   22.5880 N   0  3  2  0  0  0
   38.6230    2.5690   23.7870 C   0  0  0  0  0  0
   37.0890    3.9160   22.0880 C   0  0  0  0  0  0
   35.9730    3.8530   23.1180 C   0  0  0  0  0  0
   36.3450    3.2910   24.4910 C   0  0  2  0  0  0
   37.3020    2.1130   24.4060 C   0  0  0  0  0  0
   35.0830    3.0280   25.2690 C   0  0  0  0  0  0
   34.7770    1.8940   25.7380 O   0  5  0  0  0  0
   34.4030    4.0540   25.4220 O   0  0  0  0  0  0
   39.7736    0.4483   16.0402 H   0  0  0  0  0  0
   42.0231    4.0890   15.9813 H   0  0  0  0  0  0
   40.8395    4.8062   18.0605 H   0  0  0  0  0  0
   37.9131    3.2642   19.1608 H   0  0  0  0  0  0
   38.7971    5.6701   21.5227 H   0  0  0  0  0  0
   40.9286    6.4063   21.9409 H   0  0  0  0  0  0
   41.6780    4.8782   21.3663 H   0  0  0  0  0  0
   42.1880    6.7904   19.7539 H   0  0  0  0  0  0
   38.8031    1.7660   20.8410 H   0  0  0  0  0  0
   40.8738    1.2847   19.5936 H   0  0  0  0  0  0
   40.4380    3.5337   22.4117 H   0  0  0  0  0  0
   37.5824    3.7144   23.2811 H   0  0  0  0  0  0
   39.2122    1.6831   23.5078 H   0  0  0  0  0  0
   39.1800    3.1612   24.5280 H   0  0  0  0  0  0
   37.2122    4.9695   21.7965 H   0  0  0  0  0  0
   36.7680    3.3291   21.2148 H   0  0  0  0  0  0
   35.5862    4.8662   23.3019 H   0  0  0  0  0  0
   35.1614    3.2136   22.7406 H   0  0  0  0  0  0
   36.9173    4.0340   25.0658 H   0  0  0  0  0  0
   36.8569    1.3249   23.7809 H   0  0  0  0  0  0
   37.4871    1.7189   25.4162 H   0  0  0  0  0  0
  1  2  2  0  0  0
  2  3  1  0  0  0
  2  8  1  0  0  0
  3  4  1  0  0  0
  3 26  1  0  0  0
  4  5  2  0  0  0
  4  6  1  0  0  0
  6  7  2  0  0  0
  6 27  1  0  0  0
  7  8  1  0  0  0
  7 28  1  0  0  0
  8  9  1  0  0  0
  9 10  1  0  0  0
  9 14  1  0  0  0
  9 29  1  0  0  0
 10 11  1  0  0  0
 11 12  1  0  0  0
 11 16  1  0  0  0
 11 30  1  0  0  0
 12 13  1  0  0  0
 12 31  1  0  0  0
 12 32  1  0  0  0
 13 33  1  0  0  0
 14 15  1  0  0  0
 14 16  1  0  0  0
 14 34  1  0  0  0
 15 35  1  0  0  0
 16 17  1  0  0  0
 16 36  1  0  0  0
 17 18  1  0  0  0
 17 19  1  0  0  0
 17 37  1  0  0  0
 18 22  1  0  0  0
 18 38  1  0  0  0
 18 39  1  0  0  0
 19 20  1  0  0  0
 19 40  1  0  0  0
 19 41  1  0  0  0
 20 21  1  0  0  0
 20 42  1  0  0  0
 20 43  1  0  0  0
 21 22  1  0  0  0
 21 23  1  0  0  0
 21 44  1  0  0  0
 22 45  1  0  0  0
 22 46  1  0  0  0
 23 24  1  0  0  0
 23 25  2  0  0  0
M  CHG  2  17   1  24  -1
M  END
> <s_m_source_file>
../2g8r_ligand.sdf

> <i_m_source_file_index>
1

> <s_epik_input>
Tz1jMVtuSF1jKD1PKVtjSF1bY0hdbjFbQ0BASF0yT1tDQEhdKFtDSDJdW09IXSlbQ0BIXShbQ0BASF0yW09IXSlbTkBASCtdM1tDSDJdW0NIMl1bQ0BASF0oW0NIMl1bQ0gyXTMpQyg9TylbT0hd

> <s_epik_cmdline>
J2VwaWtfYXBwJywgJy1pbWFlJywgJ2xpZ2FuZF9wcm8ubWFlJywgJy1vbWFlJywgJ2xpZ2FuZF9wcmVwLm1hZScsICctbXMnLCAnMScsICctcGgnLCAnNycsICctcGh0JywgJzAuNScsICctbnQn

> <r_lp_tautomer_probability>
0.999537046341301

> <r_epik_Ionization_Penalty>
  0.0289

> <r_epik_Ionization_Penalty_Charging>
  0.0289

> <r_epik_Ionization_Penalty_Neutral>
  0.0000

> <r_epik_State_Penalty>
  0.0167

> <r_epik_Charging_Adjusted_Penalty>
0.0456519381523139

> <i_epik_Tot_Q>
0

> <i_epik_Tot_abs_Q>
2

> <s_epik_Chemistry_Notes>
This compound contains an acetal/aminal-like group ( X-CH(R)-Y where X, Y are N, S, or O) that may be acid/base labile, releasing an aldehyde.

$$$$
