2g94_ligand
                    3D
 Schrodinger Suite 2020-3.
 99 99  0  0  1  0            999 V2000
    1.9840   -5.6010   34.5190 C   0  0  0  0  0  0
    2.8960   -4.4190   34.3400 C   0  0  0  0  0  0
    3.1050   -4.3720   32.7670 N   0  0  0  0  0  0
    2.3600   -5.4370   32.2460 N   0  0  0  0  0  0
    1.6920   -6.1680   33.3200 C   0  0  0  0  0  0
    3.5180   -3.4650   35.2730 C   0  0  0  0  0  0
    2.2360   -5.8200   30.8060 C   0  0  0  0  0  0
    0.9210   -5.6910   30.2630 O   0  0  0  0  0  0
    0.3730   -4.4380   30.1400 C   0  0  0  0  0  0
    0.8010   -7.3800   33.1860 C   0  0  0  0  0  0
    0.9980   -3.3940   30.3070 O   0  0  0  0  0  0
   -0.9370   -4.4500   29.8110 N   0  0  0  0  0  0
   -1.8500   -3.3340   29.6050 C   0  0  1  0  0  0
   -2.0480   -3.1530   28.0760 C   0  0  0  0  0  0
   -0.8900   -2.0900   27.2550 S   0  0  0  0  0  0
   -1.5140   -1.6570   26.0290 O   0  0  0  0  0  0
   -0.4950   -1.0130   28.1650 O   0  0  0  0  0  0
    0.4660   -3.1910   26.9130 C   0  0  0  0  0  0
   -3.1140   -3.7990   30.2500 C   0  0  0  0  0  0
   -4.1370   -4.0120   29.6070 O   0  0  0  0  0  0
   -3.0360   -3.9860   31.6190 N   0  0  0  0  0  0
   -4.2220   -4.4770   32.3760 C   0  0  2  0  0  0
   -4.9840   -3.3880   33.1830 C   0  0  2  0  0  0
   -3.7950   -5.6640   33.3040 C   0  0  0  0  0  0
   -3.2620   -6.9030   32.5090 C   0  0  0  0  0  0
   -4.3290   -7.5100   31.5750 C   0  0  0  0  0  0
   -2.8050   -7.9870   33.5000 C   0  0  0  0  0  0
   -5.3600   -2.1940   32.2830 C   0  0  0  0  0  0
   -6.6620   -1.5430   32.7540 C   0  0  1  0  0  0
   -6.7260   -0.1000   32.2390 C   0  0  0  0  0  0
   -7.8780   -2.2990   32.2090 C   0  0  0  0  0  0
   -4.1550   -2.8940   34.2330 O   0  0  0  0  0  0
   -7.9100   -2.7650   31.0800 O   0  0  0  0  0  0
   -8.9360   -2.3980   33.0750 N   0  0  0  0  0  0
  -10.1770   -3.0790   32.6600 C   0  0  1  0  0  0
  -11.0690   -3.4600   33.8710 C   0  0  0  0  0  0
  -12.2430   -4.3610   33.4340 C   0  0  0  0  0  0
  -11.6220   -2.2120   34.5570 C   0  0  0  0  0  0
  -10.8820   -2.1360   31.6360 C   0  0  0  0  0  0
  -10.7850   -0.9330   31.7260 O   0  0  0  0  0  0
  -11.6110   -2.7780   30.6420 N   0  0  0  0  0  0
  -12.3520   -2.0350   29.5950 C   0  0  0  0  0  0
  -11.6910   -2.1750   28.1840 C   0  0  0  0  0  0
  -10.3120   -1.5090   28.1490 C   0  0  0  0  0  0
  -11.5290   -3.6470   27.8150 C   0  0  0  0  0  0
    1.6087   -5.9543   35.4794 H   0  0  0  0  0  0
    3.2181   -3.7105   36.3025 H   0  0  0  0  0  0
    3.1879   -2.4446   35.0283 H   0  0  0  0  0  0
    4.6127   -3.5272   35.1853 H   0  0  0  0  0  0
    2.8939   -5.1810   30.1987 H   0  0  0  0  0  0
    2.5292   -6.8727   30.6800 H   0  0  0  0  0  0
    0.4547   -7.6924   34.1822 H   0  0  0  0  0  0
    1.3661   -8.2008   32.7201 H   0  0  0  0  0  0
   -0.0667   -7.1295   32.5581 H   0  0  0  0  0  0
   -1.2973   -5.4833   29.6992 H   0  0  0  0  0  0
   -1.4839   -2.4004   30.0571 H   0  0  0  0  0  0
   -1.9677   -4.1304   27.5777 H   0  0  0  0  0  0
   -3.0423   -2.7237   27.8833 H   0  0  0  0  0  0
    0.1308   -3.9839   26.2282 H   0  0  0  0  0  0
    0.8177   -3.6424   27.8525 H   0  0  0  0  0  0
    1.2875   -2.6272   26.4470 H   0  0  0  0  0  0
   -2.0959   -3.7714   32.1483 H   0  0  0  0  0  0
   -4.9130   -4.7961   31.5819 H   0  0  0  0  0  0
   -5.8717   -3.8256   33.6630 H   0  0  0  0  0  0
   -2.9932   -5.3312   33.9795 H   0  0  0  0  0  0
   -4.6601   -5.9953   33.8971 H   0  0  0  0  0  0
   -2.4213   -6.5705   31.8823 H   0  0  0  0  0  0
   -4.6668   -6.7463   30.8590 H   0  0  0  0  0  0
   -5.1850   -7.8565   32.1726 H   0  0  0  0  0  0
   -3.8961   -8.3601   31.0273 H   0  0  0  0  0  0
   -2.0428   -7.5695   34.1743 H   0  0  0  0  0  0
   -2.3782   -8.8351   32.9445 H   0  0  0  0  0  0
   -3.6672   -8.3316   34.0898 H   0  0  0  0  0  0
   -4.5572   -1.4427   32.3162 H   0  0  0  0  0  0
   -5.4934   -2.5425   31.2482 H   0  0  0  0  0  0
   -6.6778   -1.5689   33.8536 H   0  0  0  0  0  0
   -5.8608    0.4634   32.6184 H   0  0  0  0  0  0
   -7.6546    0.3737   32.5900 H   0  0  0  0  0  0
   -6.7085   -0.1021   31.1391 H   0  0  0  0  0  0
   -3.7677   -3.5827   34.9983 H   0  0  0  0  0  0
   -8.8563   -1.9666   34.0837 H   0  0  0  0  0  0
   -9.9024   -4.0377   32.1957 H   0  0  0  0  0  0
  -10.4430   -4.0058   34.5922 H   0  0  0  0  0  0
  -11.8498   -5.2614   32.9393 H   0  0  0  0  0  0
  -12.8874   -3.8096   32.7335 H   0  0  0  0  0  0
  -12.8287   -4.6543   34.3177 H   0  0  0  0  0  0
  -10.7885   -1.5662   34.8705 H   0  0  0  0  0  0
  -12.2085   -2.5080   35.4393 H   0  0  0  0  0  0
  -12.2671   -1.6632   33.8551 H   0  0  0  0  0  0
  -11.6257   -3.8779   30.6505 H   0  0  0  0  0  0
  -13.3796   -2.4218   29.5287 H   0  0  0  0  0  0
  -12.3786   -0.9661   29.8532 H   0  0  0  0  0  0
  -12.3389   -1.6846   27.4426 H   0  0  0  0  0  0
  -10.4115   -0.4458   28.4131 H   0  0  0  0  0  0
   -9.8876   -1.5976   27.1380 H   0  0  0  0  0  0
   -9.6467   -2.0054   28.8708 H   0  0  0  0  0  0
  -12.5119   -4.1405   27.8355 H   0  0  0  0  0  0
  -10.8587   -4.1346   28.5381 H   0  0  0  0  0  0
  -11.0996   -3.7268   26.8054 H   0  0  0  0  0  0
  1  2  1  0  0  0
  1  5  2  0  0  0
  1 46  1  0  0  0
  2  3  2  0  0  0
  2  6  1  0  0  0
  3  4  1  0  0  0
  4  5  1  0  0  0
  4  7  1  0  0  0
  5 10  1  0  0  0
  6 47  1  0  0  0
  6 48  1  0  0  0
  6 49  1  0  0  0
  7  8  1  0  0  0
  7 50  1  0  0  0
  7 51  1  0  0  0
  8  9  1  0  0  0
  9 11  2  0  0  0
  9 12  1  0  0  0
 10 52  1  0  0  0
 10 53  1  0  0  0
 10 54  1  0  0  0
 12 13  1  0  0  0
 12 55  1  0  0  0
 13 14  1  0  0  0
 13 19  1  0  0  0
 13 56  1  0  0  0
 14 15  1  0  0  0
 14 57  1  0  0  0
 14 58  1  0  0  0
 15 16  2  0  0  0
 15 17  2  0  0  0
 15 18  1  0  0  0
 18 59  1  0  0  0
 18 60  1  0  0  0
 18 61  1  0  0  0
 19 20  2  0  0  0
 19 21  1  0  0  0
 21 22  1  0  0  0
 21 62  1  0  0  0
 22 23  1  0  0  0
 22 24  1  0  0  0
 22 63  1  0  0  0
 23 28  1  0  0  0
 23 32  1  0  0  0
 23 64  1  0  0  0
 24 25  1  0  0  0
 24 65  1  0  0  0
 24 66  1  0  0  0
 25 26  1  0  0  0
 25 27  1  0  0  0
 25 67  1  0  0  0
 26 68  1  0  0  0
 26 69  1  0  0  0
 26 70  1  0  0  0
 27 71  1  0  0  0
 27 72  1  0  0  0
 27 73  1  0  0  0
 28 29  1  0  0  0
 28 74  1  0  0  0
 28 75  1  0  0  0
 29 30  1  0  0  0
 29 31  1  0  0  0
 29 76  1  0  0  0
 30 77  1  0  0  0
 30 78  1  0  0  0
 30 79  1  0  0  0
 31 33  2  0  0  0
 31 34  1  0  0  0
 32 80  1  0  0  0
 34 35  1  0  0  0
 34 81  1  0  0  0
 35 36  1  0  0  0
 35 39  1  0  0  0
 35 82  1  0  0  0
 36 37  1  0  0  0
 36 38  1  0  0  0
 36 83  1  0  0  0
 37 84  1  0  0  0
 37 85  1  0  0  0
 37 86  1  0  0  0
 38 87  1  0  0  0
 38 88  1  0  0  0
 38 89  1  0  0  0
 39 40  2  0  0  0
 39 41  1  0  0  0
 41 42  1  0  0  0
 41 90  1  0  0  0
 42 43  1  0  0  0
 42 91  1  0  0  0
 42 92  1  0  0  0
 43 44  1  0  0  0
 43 45  1  0  0  0
 43 93  1  0  0  0
 44 94  1  0  0  0
 44 95  1  0  0  0
 44 96  1  0  0  0
 45 97  1  0  0  0
 45 98  1  0  0  0
 45 99  1  0  0  0
M  END
> <s_m_source_file>
../2g94_ligand.sdf

> <i_m_source_file_index>
1

> <s_epik_input>
W0NIM11jMVtjSF1jKFtDSDNdKW4objEpW0NIMl1PQyg9TylbTkhdW0NAQEhdKFtDSDJdUyg9TykoPU8pW0NIM10pQyg9TylbTkhdW0NAQEhdKFtDSDJdW0NIXShbQ0gzXSlbQ0gzXSlbQ0BASF0oW09IXSlbQ0gyXVtDQEBIXShbQ0gzXSlDKD1PKVtOSF1bQ0BASF0oW0NIXShbQ0gzXSlbQ0gzXSlDKD1PKVtOSF1bQ0gyXVtDSF0oW0NIM10pW0NIM10=

> <s_epik_cmdline>
J2VwaWtfYXBwJywgJy1pbWFlJywgJ2xpZ2FuZF9wcm8ubWFlJywgJy1vbWFlJywgJ2xpZ2FuZF9wcmVwLm1hZScsICctbXMnLCAnMScsICctcGgnLCAnNycsICctcGh0JywgJzAuNScsICctbnQn

> <r_lp_tautomer_probability>
1

> <r_epik_Ionization_Penalty>
  0.0061

> <r_epik_Ionization_Penalty_Charging>
  0.0000

> <r_epik_Ionization_Penalty_Neutral>
  0.0061

> <r_epik_State_Penalty>
 -0.0000

> <r_epik_Charging_Adjusted_Penalty>
0

> <i_epik_Tot_Q>
0

> <i_epik_Tot_abs_Q>
0

> <s_epik_Chemistry_Notes>
This compound has an ester and may undergo hydrolysis at high or low pH. This compound contains an acetal/aminal-like group ( X-CH(R)-Y where X, Y are N, S, or O) that may be acid/base labile, releasing an aldehyde.

$$$$
