2g96_ligand
                    3D
 Schrodinger Suite 2020-3.
 37 38  0  0  1  0            999 V2000
   14.5180   99.4000   11.4700 O   0  5  0  0  0  0
   14.2510   98.4070   10.2970 P   0  0  0  0  0  0
   15.4210   98.3110    9.4380 O   0  0  0  0  0  0
   13.0100   98.9020    9.6460 O   0  5  0  0  0  0
   14.0450   97.0310   11.0480 O   0  0  0  0  0  0
   13.0620   96.9400   12.1440 C   0  0  0  0  0  0
   12.0460   95.8660   11.8040 C   0  0  1  0  0  0
   11.2480   95.5480   12.9670 O   0  0  0  0  0  0
   11.0130   96.2210   10.6560 C   0  0  1  0  0  0
   10.9520   95.1730    9.6790 O   0  0  0  0  0  0
    9.7070   96.4340   11.3630 C   0  0  1  0  0  0
    8.5570   96.0420   10.5990 O   0  0  0  0  0  0
    9.8320   95.6680   12.6310 C   0  0  2  0  0  0
    9.1390   96.3150   13.7680 N   0  0  0  0  0  0
    7.7300   96.2240   13.8300 C   0  0  0  0  0  0
    7.0720   96.8220   14.8830 C   0  0  0  0  0  0
    5.5500   96.7040   14.9150 C   0  0  0  0  0  0
    4.9960   97.2310   15.8380 O   0  0  0  0  0  0
    4.8990   96.0580   13.9700 N   0  0  0  0  0  0
    7.8260   97.5600   15.9430 C   0  0  0  0  0  0
    9.2640   97.6350   15.8490 C   0  0  0  0  0  0
    9.9500   97.0160   14.7620 C   0  0  0  0  0  0
   13.5790   96.6803   13.0796 H   0  0  0  0  0  0
   12.5541   97.9085   12.2624 H   0  0  0  0  0  0
   12.6761   95.0071   11.5296 H   0  0  0  0  0  0
   11.2553   97.0844   10.0190 H   0  0  0  0  0  0
   11.8453   94.9172    9.0903 H   0  0  0  0  0  0
    9.4884   97.5004   11.5209 H   0  0  0  0  0  0
    8.3439   96.5297    9.6363 H   0  0  0  0  0  0
    9.3750   94.6798   12.4743 H   0  0  0  0  0  0
    7.1588   95.6882   13.0575 H   0  0  0  0  0  0
    5.4522   95.5903   13.1422 H   0  0  0  0  0  0
    3.8020   95.9861   14.0084 H   0  0  0  0  0  0
    7.3040   98.0407   16.7835 H   0  0  0  0  0  0
    9.8382   98.1719   16.6184 H   0  0  0  0  0  0
   10.6540   96.3091   15.2254 H   0  0  0  0  0  0
   10.5118   97.8251   14.2723 H   0  0  0  0  0  0
  1  2  1  0  0  0
  2  3  2  0  0  0
  2  4  1  0  0  0
  2  5  1  0  0  0
  5  6  1  0  0  0
  6  7  1  0  0  0
  6 23  1  0  0  0
  6 24  1  0  0  0
  7  8  1  0  0  0
  7  9  1  0  0  0
  7 25  1  0  0  0
  8 13  1  0  0  0
  9 10  1  0  0  0
  9 11  1  0  0  0
  9 26  1  0  0  0
 10 27  1  0  0  0
 11 12  1  0  0  0
 11 13  1  0  0  0
 11 28  1  0  0  0
 12 29  1  0  0  0
 13 14  1  0  0  0
 13 30  1  0  0  0
 14 15  1  0  0  0
 14 22  1  0  0  0
 15 16  2  0  0  0
 15 31  1  0  0  0
 16 17  1  0  0  0
 16 20  1  0  0  0
 17 18  2  0  0  0
 17 19  1  0  0  0
 19 32  1  0  0  0
 19 33  1  0  0  0
 20 21  2  0  0  0
 20 34  1  0  0  0
 21 22  1  0  0  0
 21 35  1  0  0  0
 22 36  1  0  0  0
 22 37  1  0  0  0
M  CHG  2   1  -1   4  -1
M  END
> <s_m_source_file>
../2g96_ligand.sdf

> <i_m_source_file_index>
1

> <s_epik_input>
W09IXVAoPU8pKFtPSF0pT1tDSDJdW0NASF0xT1tDQEhdKFtDQEhdKFtPSF0pW0NAQEhdMVtPSF0pTjJbQ0hdPUMoQyg9TylbTkgyXSlbQ0hdPVtDSF1bQ0gyXTI=

> <s_epik_cmdline>
J2VwaWtfYXBwJywgJy1pbWFlJywgJ2xpZ2FuZF9wcm8ubWFlJywgJy1vbWFlJywgJ2xpZ2FuZF9wcmVwLm1hZScsICctbXMnLCAnMScsICctcGgnLCAnNycsICctcGh0JywgJzAuNScsICctbnQn

> <r_epik_Ionization_Penalty>
  0.1036

> <r_epik_Ionization_Penalty_Charging>
  0.1035

> <r_epik_Ionization_Penalty_Neutral>
  0.0000

> <r_epik_State_Penalty>
  0.0935

> <r_epik_Charging_Adjusted_Penalty>
0.197020832779125

> <i_epik_Tot_Q>
-2

> <i_epik_Tot_abs_Q>
2

> <s_epik_Chemistry_Notes>
This compound contains an acetal/aminal-like group ( X-CH(R)-Y where X, Y are N, S, or O) that may be acid/base labile, releasing an aldehyde.

$$$$
