2g97_ligand
                    3D
 Schrodinger Suite 2020-3.
 58 60  0  0  1  0            999 V2000
   -3.6740  103.1150   10.4560 C   0  0  0  0  0  0
   -3.4850  103.4210    9.1100 C   0  0  0  0  0  0
   -4.3770  104.2690    8.4610 C   0  0  0  0  0  0
   -5.4600  104.8040    9.1560 C   0  0  0  0  0  0
   -5.6530  104.4970   10.4980 C   0  0  0  0  0  0
   -4.7520  103.6540   11.1490 C   0  0  0  0  0  0
   -4.8800  103.4030   12.6540 C   0  0  0  0  0  0
   -5.9570  103.0530   13.1350 O   0  0  0  0  0  0
   -3.8200  103.6100   13.4390 N   0  0  0  0  0  0
   -2.5920  104.2320   12.8910 C   0  0  0  0  0  0
   -1.3600  103.4280   13.3140 C   0  0  0  0  0  0
   -3.8580  103.3360   14.8960 C   0  0  0  0  0  0
   -2.6060  102.5520   15.3100 C   0  0  0  0  0  0
   -1.3340  103.2640   14.8360 C   0  0  0  0  0  0
   -0.0320  102.6240   15.3340 C   0  0  0  0  0  0
    0.3660  101.2730   14.7310 C   0  0  0  0  0  0
    1.8840  101.2210   14.5140 C   0  0  0  0  0  0
    2.4400   99.8160   14.2670 C   0  0  0  0  0  0
    2.0990   98.9680   15.4260 N   0  0  0  0  0  0
    2.9280   98.2470   16.1590 C   0  0  0  0  0  0
    2.5030   97.6710   17.1640 O   0  0  0  0  0  0
    4.3100   98.1540   15.9160 C   0  0  0  0  0  0
    4.9120   97.5680   14.8150 C   0  0  0  0  0  0
    6.3050   97.5070   14.6480 C   0  0  0  0  0  0
    6.8410   96.7720   13.5910 C   0  0  0  0  0  0
    8.2170   96.5810   13.5010 C   0  0  0  0  0  0
    9.0440   97.1570   14.4600 C   0  0  0  0  0  0
    8.5110   97.8670   15.4410 N   0  0  0  0  0  0
    7.2000   98.0400   15.5640 C   0  0  0  0  0  0
   -2.9756  102.4519   10.9665 H   0  0  0  0  0  0
   -2.6404  102.9971    8.5667 H   0  0  0  0  0  0
   -4.2288  104.5148    7.4095 H   0  0  0  0  0  0
   -6.1589  105.4662    8.6450 H   0  0  0  0  0  0
   -6.5034  104.9126   11.0385 H   0  0  0  0  0  0
   -2.6499  104.2520   11.7927 H   0  0  0  0  0  0
   -2.5001  105.2598   13.2721 H   0  0  0  0  0  0
   -1.3923  102.4336   12.8448 H   0  0  0  0  0  0
   -0.4498  103.9556   12.9927 H   0  0  0  0  0  0
   -3.8903  104.2874   15.4473 H   0  0  0  0  0  0
   -4.7536  102.7435   15.1345 H   0  0  0  0  0  0
   -2.5745  102.4636   16.4060 H   0  0  0  0  0  0
   -2.6373  101.5479   14.8619 H   0  0  0  0  0  0
   -1.3374  104.2622   15.2981 H   0  0  0  0  0  0
    0.8118  103.2973   15.1226 H   0  0  0  0  0  0
   -0.0999  102.4505   16.4181 H   0  0  0  0  0  0
    0.0708  100.4645   15.4160 H   0  0  0  0  0  0
   -0.1422  101.1387   13.7647 H   0  0  0  0  0  0
    2.1501  101.8299   13.6374 H   0  0  0  0  0  0
    2.3954  101.6164   15.4040 H   0  0  0  0  0  0
    1.9923   99.4001   13.3524 H   0  0  0  0  0  0
    3.5323   99.8694   14.1489 H   0  0  0  0  0  0
    1.0544   98.8896   15.7617 H   0  0  0  0  0  0
    4.9285   98.6050   16.7060 H   0  0  0  0  0  0
    4.2933   97.1232   14.0216 H   0  0  0  0  0  0
    6.1817   96.3465   12.8344 H   0  0  0  0  0  0
    8.6406   95.9883   12.6903 H   0  0  0  0  0  0
   10.1244   97.0242   14.4036 H   0  0  0  0  0  0
    6.8173   98.6158   16.4067 H   0  0  0  0  0  0
  1  2  2  0  0  0
  1  6  1  0  0  0
  1 30  1  0  0  0
  2  3  1  0  0  0
  2 31  1  0  0  0
  3  4  2  0  0  0
  3 32  1  0  0  0
  4  5  1  0  0  0
  4 33  1  0  0  0
  5  6  2  0  0  0
  5 34  1  0  0  0
  6  7  1  0  0  0
  7  8  2  0  0  0
  7  9  1  0  0  0
  9 10  1  0  0  0
  9 12  1  0  0  0
 10 11  1  0  0  0
 10 35  1  0  0  0
 10 36  1  0  0  0
 11 14  1  0  0  0
 11 37  1  0  0  0
 11 38  1  0  0  0
 12 13  1  0  0  0
 12 39  1  0  0  0
 12 40  1  0  0  0
 13 14  1  0  0  0
 13 41  1  0  0  0
 13 42  1  0  0  0
 14 15  1  0  0  0
 14 43  1  0  0  0
 15 16  1  0  0  0
 15 44  1  0  0  0
 15 45  1  0  0  0
 16 17  1  0  0  0
 16 46  1  0  0  0
 16 47  1  0  0  0
 17 18  1  0  0  0
 17 48  1  0  0  0
 17 49  1  0  0  0
 18 19  1  0  0  0
 18 50  1  0  0  0
 18 51  1  0  0  0
 19 20  1  0  0  0
 19 52  1  0  0  0
 20 21  2  0  0  0
 20 22  1  0  0  0
 22 23  2  0  0  0
 22 53  1  0  0  0
 23 24  1  0  0  0
 23 54  1  0  0  0
 24 25  2  0  0  0
 24 29  1  0  0  0
 25 26  1  0  0  0
 25 55  1  0  0  0
 26 27  2  0  0  0
 26 56  1  0  0  0
 27 28  1  0  0  0
 27 57  1  0  0  0
 28 29  2  0  0  0
 29 58  1  0  0  0
M  END
> <s_m_source_file>
../2g97_ligand.sdf

> <i_m_source_file_index>
1

> <s_epik_input>
W2NIXTFbY0hdW2NIXVtjSF1bY0hdYzFDKD1PKU4yW0NIMl1bQ0gyXVtDSF0oW0NIMl1bQ0gyXTIpW0NIMl1bQ0gyXVtDSDJdW0NIMl1bTkhdQyg9TykvW0NIXT1bQ0hdL2MzW2NIXVtjSF1bY0hdbltjSF0z

> <s_epik_cmdline>
J2VwaWtfYXBwJywgJy1pbWFlJywgJ2xpZ2FuZF9wcm8ubWFlJywgJy1vbWFlJywgJ2xpZ2FuZF9wcmVwLm1hZScsICctbXMnLCAnMScsICctcGgnLCAnNycsICctcGh0JywgJzAuNScsICctbnQn

> <r_lp_tautomer_probability>
1

> <r_epik_Ionization_Penalty>
  0.0020

> <r_epik_Ionization_Penalty_Charging>
  0.0000

> <r_epik_Ionization_Penalty_Neutral>
  0.0020

> <r_epik_State_Penalty>
 -0.0000

> <r_epik_Charging_Adjusted_Penalty>
0

> <i_epik_Tot_Q>
0

> <i_epik_Tot_abs_Q>
0

$$$$
