2g9r_ligand
                    3D
 Schrodinger Suite 2020-3.
 43 44  0  0  1  0            999 V2000
   36.3100   28.3610   29.4400 C   0  0  0  0  0  0
   36.5660   29.7250   29.2790 C   0  0  0  0  0  0
   37.2600   30.1720   28.1560 C   0  0  0  0  0  0
   37.6950   29.2530   27.2010 C   0  0  0  0  0  0
   37.4370   27.8900   27.3640 C   0  0  0  0  0  0
   36.7350   27.4440   28.4810 C   0  0  0  0  0  0
   36.4600   25.9490   28.6790 C   0  0  0  0  0  0
   35.1750   25.4550   28.0060 C   0  0  0  0  0  0
   35.1020   23.9240   28.1570 C   0  0  0  0  0  0
   33.9240   23.3320   27.4930 N   0  3  2  0  0  0
   33.7790   21.9430   28.0080 C   0  0  0  0  0  0
   34.0630   23.3660   26.0120 C   0  0  0  0  0  0
   32.8320   22.7170   25.3360 C   0  0  1  0  0  0
   33.0400   22.6620   23.9270 O   0  0  0  0  0  0
   32.5810   21.2920   25.8610 C   0  0  2  0  0  0
   31.3540   20.7940   25.3040 O   0  0  0  0  0  0
   32.5330   21.2690   27.4110 C   0  0  1  0  0  0
   32.3830   19.8510   27.9890 C   0  0  0  0  0  0
   33.3670   18.9650   27.4360 O   0  0  0  0  0  0
   35.7738   28.0117   30.3224 H   0  0  0  0  0  0
   36.2239   30.4376   30.0295 H   0  0  0  0  0  0
   37.4620   31.2350   28.0246 H   0  0  0  0  0  0
   38.2392   29.6004   26.3228 H   0  0  0  0  0  0
   37.7848   27.1760   26.6175 H   0  0  0  0  0  0
   37.2913   25.3644   28.2581 H   0  0  0  0  0  0
   36.3666   25.7325   29.7534 H   0  0  0  0  0  0
   34.3047   25.9220   28.4902 H   0  0  0  0  0  0
   35.1914   25.7269   26.9402 H   0  0  0  0  0  0
   35.9990   23.4685   27.7122 H   0  0  0  0  0  0
   35.0490   23.6629   29.2243 H   0  0  0  0  0  0
   33.0229   23.9186   27.7252 H   0  0  0  0  0  0
   34.6672   21.3553   27.7327 H   0  0  0  0  0  0
   33.6799   21.9665   29.1033 H   0  0  0  0  0  0
   34.1460   24.4099   25.6754 H   0  0  0  0  0  0
   34.9661   22.8123   25.7157 H   0  0  0  0  0  0
   31.9398   23.3411   25.4922 H   0  0  0  0  0  0
   33.2367   23.5861   23.3636 H   0  0  0  0  0  0
   33.3611   20.6033   25.5045 H   0  0  0  0  0  0
   31.2257   20.7442   24.2126 H   0  0  0  0  0  0
   31.6362   21.8342   27.7050 H   0  0  0  0  0  0
   32.5118   19.8846   29.0809 H   0  0  0  0  0  0
   31.3825   19.4614   27.7496 H   0  0  0  0  0  0
   33.3947   17.9105   27.7477 H   0  0  0  0  0  0
  1  2  2  0  0  0
  1  6  1  0  0  0
  1 20  1  0  0  0
  2  3  1  0  0  0
  2 21  1  0  0  0
  3  4  2  0  0  0
  3 22  1  0  0  0
  4  5  1  0  0  0
  4 23  1  0  0  0
  5  6  2  0  0  0
  5 24  1  0  0  0
  6  7  1  0  0  0
  7  8  1  0  0  0
  7 25  1  0  0  0
  7 26  1  0  0  0
  8  9  1  0  0  0
  8 27  1  0  0  0
  8 28  1  0  0  0
  9 10  1  0  0  0
  9 29  1  0  0  0
  9 30  1  0  0  0
 10 11  1  0  0  0
 10 12  1  0  0  0
 10 31  1  0  0  0
 11 17  1  0  0  0
 11 32  1  0  0  0
 11 33  1  0  0  0
 12 13  1  0  0  0
 12 34  1  0  0  0
 12 35  1  0  0  0
 13 14  1  0  0  0
 13 15  1  0  0  0
 13 36  1  0  0  0
 14 37  1  0  0  0
 15 16  1  0  0  0
 15 17  1  0  0  0
 15 38  1  0  0  0
 16 39  1  0  0  0
 17 18  1  0  0  0
 17 40  1  0  0  0
 18 19  1  0  0  0
 18 41  1  0  0  0
 18 42  1  0  0  0
 19 43  1  0  0  0
M  CHG  1  10   1
M  END
> <s_m_source_file>
../2g9r_ligand.sdf

> <i_m_source_file_index>
1

> <s_epik_input>
W2NIXTFbY0hdW2NIXVtjSF1bY0hdYzFbQ0gyXVtDSDJdW0NIMl1bTkBASCtdMltDSDJdW0NASF0oW0NIMl1bT0hdKVtDQEBIXShbT0hdKVtDQEBIXShbQ0gyXTIpW09IXQ==

> <s_epik_cmdline>
J2VwaWtfYXBwJywgJy1pbWFlJywgJ2xpZ2FuZF9wcm8ubWFlJywgJy1vbWFlJywgJ2xpZ2FuZF9wcmVwLm1hZScsICctbXMnLCAnMScsICctcGgnLCAnNycsICctcGh0JywgJzAuNScsICctbnQn

> <r_epik_Ionization_Penalty>
  0.0129

> <r_epik_Ionization_Penalty_Charging>
  0.0129

> <r_epik_Ionization_Penalty_Neutral>
  0.0000

> <r_epik_State_Penalty>
  0.0100

> <r_epik_Charging_Adjusted_Penalty>
0.0228461744755126

> <i_epik_Tot_Q>
1

> <i_epik_Tot_abs_Q>
1

$$$$
