2g9u_ligand
                    3D
 Schrodinger Suite 2020-3.
 43 44  0  0  1  0            999 V2000
   36.4760   28.1000   29.9550 C   0  0  0  0  0  0
   36.6920   29.4820   29.9620 C   0  0  0  0  0  0
   37.0370   30.1280   28.7760 C   0  0  0  0  0  0
   37.1690   29.3910   27.5960 C   0  0  0  0  0  0
   36.9440   28.0110   27.5890 C   0  0  0  0  0  0
   36.5870   27.3650   28.7700 C   0  0  0  0  0  0
   36.3600   25.8480   28.7980 C   0  0  0  0  0  0
   35.1390   25.3520   28.0110 C   0  0  0  0  0  0
   35.0440   23.8250   28.1780 C   0  0  0  0  0  0
   33.8630   23.2440   27.5130 N   0  3  2  0  0  0
   33.7150   21.8340   27.9870 C   0  0  0  0  0  0
   33.9880   23.3490   26.0240 C   0  0  0  0  0  0
   32.7840   22.6750   25.3200 C   0  0  1  0  0  0
   33.0020   22.6610   23.9120 O   0  0  0  0  0  0
   32.5790   21.2330   25.8070 C   0  0  2  0  0  0
   31.3950   20.6950   25.2000 O   0  0  0  0  0  0
   32.4800   21.1810   27.3520 C   0  0  1  0  0  0
   32.2790   19.7600   27.9040 C   0  0  0  0  0  0
   33.2800   18.8580   27.4030 O   0  0  0  0  0  0
   36.2183   27.5901   30.8833 H   0  0  0  0  0  0
   36.5913   30.0491   30.8874 H   0  0  0  0  0  0
   37.2034   31.2052   28.7689 H   0  0  0  0  0  0
   37.4500   29.8968   26.6723 H   0  0  0  0  0  0
   37.0475   27.4438   26.6640 H   0  0  0  0  0  0
   37.2354   25.3383   28.3692 H   0  0  0  0  0  0
   36.2162   25.5179   29.8374 H   0  0  0  0  0  0
   34.2302   25.8316   28.4036 H   0  0  0  0  0  0
   35.2590   25.6084   26.9481 H   0  0  0  0  0  0
   35.9375   23.3524   27.7440 H   0  0  0  0  0  0
   34.9806   23.5763   29.2477 H   0  0  0  0  0  0
   32.9595   23.8089   27.7861 H   0  0  0  0  0  0
   34.6086   21.2571   27.7063 H   0  0  0  0  0  0
   33.6015   21.8250   29.0811 H   0  0  0  0  0  0
   34.0201   24.4092   25.7326 H   0  0  0  0  0  0
   34.9129   22.8509   25.6976 H   0  0  0  0  0  0
   31.8688   23.2631   25.4832 H   0  0  0  0  0  0
   33.1706   23.6045   23.3721 H   0  0  0  0  0  0
   33.3990   20.5849   25.4640 H   0  0  0  0  0  0
   31.3063   20.6593   24.1042 H   0  0  0  0  0  0
   31.5816   21.7487   27.6359 H   0  0  0  0  0  0
   32.3447   19.7804   29.0018 H   0  0  0  0  0  0
   31.2893   19.3862   27.6028 H   0  0  0  0  0  0
   33.2703   17.8012   27.7081 H   0  0  0  0  0  0
  1  2  2  0  0  0
  1  6  1  0  0  0
  1 20  1  0  0  0
  2  3  1  0  0  0
  2 21  1  0  0  0
  3  4  2  0  0  0
  3 22  1  0  0  0
  4  5  1  0  0  0
  4 23  1  0  0  0
  5  6  2  0  0  0
  5 24  1  0  0  0
  6  7  1  0  0  0
  7  8  1  0  0  0
  7 25  1  0  0  0
  7 26  1  0  0  0
  8  9  1  0  0  0
  8 27  1  0  0  0
  8 28  1  0  0  0
  9 10  1  0  0  0
  9 29  1  0  0  0
  9 30  1  0  0  0
 10 11  1  0  0  0
 10 12  1  0  0  0
 10 31  1  0  0  0
 11 17  1  0  0  0
 11 32  1  0  0  0
 11 33  1  0  0  0
 12 13  1  0  0  0
 12 34  1  0  0  0
 12 35  1  0  0  0
 13 14  1  0  0  0
 13 15  1  0  0  0
 13 36  1  0  0  0
 14 37  1  0  0  0
 15 16  1  0  0  0
 15 17  1  0  0  0
 15 38  1  0  0  0
 16 39  1  0  0  0
 17 18  1  0  0  0
 17 40  1  0  0  0
 18 19  1  0  0  0
 18 41  1  0  0  0
 18 42  1  0  0  0
 19 43  1  0  0  0
M  CHG  1  10   1
M  END
> <s_m_source_file>
../2g9u_ligand.sdf

> <i_m_source_file_index>
1

> <s_epik_input>
W2NIXTFbY0hdW2NIXVtjSF1bY0hdYzFbQ0gyXVtDSDJdW0NIMl1bTkBASCtdMltDSDJdW0NASF0oW0NIMl1bT0hdKVtDQEBIXShbT0hdKVtDQEBIXShbQ0gyXTIpW09IXQ==

> <s_epik_cmdline>
J2VwaWtfYXBwJywgJy1pbWFlJywgJ2xpZ2FuZF9wcm8ubWFlJywgJy1vbWFlJywgJ2xpZ2FuZF9wcmVwLm1hZScsICctbXMnLCAnMScsICctcGgnLCAnNycsICctcGh0JywgJzAuNScsICctbnQn

> <r_epik_Ionization_Penalty>
  0.0129

> <r_epik_Ionization_Penalty_Charging>
  0.0129

> <r_epik_Ionization_Penalty_Neutral>
  0.0000

> <r_epik_State_Penalty>
  0.0100

> <r_epik_Charging_Adjusted_Penalty>
0.0228461744755126

> <i_epik_Tot_Q>
1

> <i_epik_Tot_abs_Q>
1

$$$$
