2g9v_ligand
                    3D
 Schrodinger Suite 2020-3.
 24 24  0  0  1  0            999 V2000
   31.5400   20.7970   25.2760 O   0  0  0  0  0  0
   32.7190   21.3240   25.9110 C   0  0  1  0  0  0
   32.9430   22.7770   25.4470 C   0  0  2  0  0  0
   33.1770   22.7770   24.0370 O   0  0  0  0  0  0
   34.1500   23.4190   26.1810 C   0  0  0  0  0  0
   33.9860   23.3020   27.6580 N   0  3  0  0  0  0
   33.8250   21.8890   28.1250 C   0  0  0  0  0  0
   32.6080   21.2270   27.4560 C   0  0  2  0  0  0
   32.4560   19.7810   27.9600 C   0  0  0  0  0  0
   33.4890   18.9320   27.4220 O   0  0  0  0  0  0
   31.4614   20.7930   24.1788 H   0  0  0  0  0  0
   33.5435   20.6828   25.5660 H   0  0  0  0  0  0
   32.0371   23.3807   25.6048 H   0  0  0  0  0  0
   32.4231   22.3580   23.3544 H   0  0  0  0  0  0
   35.0759   22.9054   25.8828 H   0  0  0  0  0  0
   34.2184   24.4835   25.9126 H   0  0  0  0  0  0
   34.8723   23.7179   28.1594 H   0  0  0  0  0  0
   33.0914   23.8592   27.9729 H   0  0  0  0  0  0
   34.7267   21.3133   27.8691 H   0  0  0  0  0  0
   33.6798   21.8774   29.2153 H   0  0  0  0  0  0
   31.6918   21.7623   27.7458 H   0  0  0  0  0  0
   32.5251   19.7662   29.0577 H   0  0  0  0  0  0
   31.4780   19.3851   27.6488 H   0  0  0  0  0  0
   33.5185   17.8652   27.6886 H   0  0  0  0  0  0
  1  2  1  0  0  0
  1 11  1  0  0  0
  2  3  1  0  0  0
  2  8  1  0  0  0
  2 12  1  0  0  0
  3  4  1  0  0  0
  3  5  1  0  0  0
  3 13  1  0  0  0
  4 14  1  0  0  0
  5  6  1  0  0  0
  5 15  1  0  0  0
  5 16  1  0  0  0
  6  7  1  0  0  0
  6 17  1  0  0  0
  6 18  1  0  0  0
  7  8  1  0  0  0
  7 19  1  0  0  0
  7 20  1  0  0  0
  8  9  1  0  0  0
  8 21  1  0  0  0
  9 10  1  0  0  0
  9 22  1  0  0  0
  9 23  1  0  0  0
 10 24  1  0  0  0
M  CHG  1   6   1
M  END
> <s_m_source_file>
../2g9v_ligand.sdf

> <i_m_source_file_index>
1

> <s_epik_input>
W09IXVtDQEhdMVtDQEhdKFtPSF0pW0NIMl1bTkgyK11bQ0gyXVtDQEBIXTFbQ0gyXVtPSF0=

> <s_epik_cmdline>
J2VwaWtfYXBwJywgJy1pbWFlJywgJ2xpZ2FuZF9wcm8ubWFlJywgJy1vbWFlJywgJ2xpZ2FuZF9wcmVwLm1hZScsICctbXMnLCAnMScsICctcGgnLCAnNycsICctcGh0JywgJzAuNScsICctbnQn

> <r_lp_tautomer_probability>
1

> <r_epik_Ionization_Penalty>
  0.0059

> <r_epik_Ionization_Penalty_Charging>
  0.0059

> <r_epik_Ionization_Penalty_Neutral>
  0.0000

> <r_epik_State_Penalty>
 -0.0000

> <r_epik_Charging_Adjusted_Penalty>
0.00587481957384862

> <i_epik_Tot_Q>
1

> <i_epik_Tot_abs_Q>
1

$$$$
