2g9x_ligand
                    3D
 Schrodinger Suite 2020-3.
 67 70  0  0  1  0            999 V2000
   -2.9360  -28.3320   26.8310 O   0  0  0  0  0  0
   -2.8770  -27.5210   25.6500 S   0  0  0  0  0  0
   -2.7900  -28.4260   24.5250 O   0  0  0  0  0  0
   -1.5680  -26.4910   25.7520 C   0  0  0  0  0  0
   -0.4450  -26.9770   24.8550 C   0  0  0  0  0  0
   -0.5150  -26.4000   23.5210 N   0  3  0  0  0  0
    0.7140  -25.9890   22.8510 C   0  0  0  0  0  0
    0.8080  -26.5510   21.4330 C   0  0  0  0  0  0
    1.1280  -28.0470   21.4110 C   0  0  0  0  0  0
    0.0470  -28.7930   21.9940 O   0  0  0  0  0  0
   -4.2310  -26.6820   25.4720 C   0  0  0  0  0  0
   -5.3430  -27.0140   26.2290 C   0  0  0  0  0  0
   -6.5350  -26.3140   26.0770 C   0  0  0  0  0  0
   -6.6500  -25.2680   25.1710 C   0  0  0  0  0  0
   -5.5380  -24.9280   24.4000 C   0  0  0  0  0  0
   -4.3370  -25.6330   24.5530 C   0  0  0  0  0  0
   -7.8540  -24.6440   25.0980 N   0  0  0  0  0  0
   -8.2000  -23.6080   24.2970 C   0  0  0  0  0  0
   -7.2940  -23.0690   23.4500 N   0  0  0  0  0  0
   -7.5790  -22.0300   22.6460 C   0  0  0  0  0  0
   -8.9400  -21.4760   22.6850 C   0  0  0  0  0  0
   -9.5900  -20.4930   22.0490 N   0  0  0  0  0  0
  -10.8510  -20.4910   22.5400 C   0  0  0  0  0  0
  -11.0330  -21.4570   23.4810 N   0  3  0  0  0  0
   -9.8830  -22.1090   23.6190 C   0  0  0  0  0  0
   -9.4650  -23.1400   24.3780 N   0  0  0  0  0  0
   -6.6440  -21.5150   21.8070 O   0  0  0  0  0  0
   -5.3010  -21.3330   22.2350 C   0  0  0  0  0  0
   -4.4120  -21.9920   21.1740 C   0  0  0  0  0  0
   -4.9830  -21.7410   19.7550 C   0  0  0  0  0  0
   -4.0310  -21.2700   18.6500 C   0  0  0  0  0  0
   -2.5620  -21.5290   18.9600 C   0  0  0  0  0  0
   -2.2300  -20.9160   20.3190 C   0  0  0  0  0  0
   -2.9340  -21.6660   21.4450 C   0  0  0  0  0  0
   -1.8699  -25.4819   25.4349 H   0  0  0  0  0  0
   -1.2085  -26.4566   26.7910 H   0  0  0  0  0  0
    0.5234  -26.6985   25.2963 H   0  0  0  0  0  0
   -0.5019  -28.0711   24.7564 H   0  0  0  0  0  0
   -0.9700  -27.1258   22.8310 H   0  0  0  0  0  0
   -1.1272  -25.4865   23.5483 H   0  0  0  0  0  0
    0.7481  -24.8913   22.7885 H   0  0  0  0  0  0
    1.5817  -26.3508   23.4222 H   0  0  0  0  0  0
   -0.1518  -26.4041   20.9160 H   0  0  0  0  0  0
    1.6044  -26.0279   20.8833 H   0  0  0  0  0  0
    1.2733  -28.3756   20.3713 H   0  0  0  0  0  0
    2.0466  -28.2340   21.9864 H   0  0  0  0  0  0
    0.1084  -29.8893   22.0608 H   0  0  0  0  0  0
   -5.2830  -27.8300   26.9491 H   0  0  0  0  0  0
   -7.3977  -26.5925   26.6822 H   0  0  0  0  0  0
   -5.6037  -24.1137   23.6784 H   0  0  0  0  0  0
   -3.4729  -25.3601   23.9472 H   0  0  0  0  0  0
   -8.6842  -24.9739   25.7398 H   0  0  0  0  0  0
  -11.5846  -19.7603   22.1687 H   0  0  0  0  0  0
   -5.0845  -20.2576   22.3160 H   0  0  0  0  0  0
   -5.1610  -21.8101   23.2162 H   0  0  0  0  0  0
   -4.4280  -23.0892   21.2512 H   0  0  0  0  0  0
   -5.4216  -22.6719   19.3663 H   0  0  0  0  0  0
   -5.7588  -20.9628   19.8043 H   0  0  0  0  0  0
   -4.2671  -21.7967   17.7136 H   0  0  0  0  0  0
   -4.1494  -20.1866   18.5012 H   0  0  0  0  0  0
   -2.3783  -22.6133   18.9854 H   0  0  0  0  0  0
   -1.9362  -21.0692   18.1809 H   0  0  0  0  0  0
   -1.1442  -20.9652   20.4880 H   0  0  0  0  0  0
   -2.5567  -19.8658   20.3372 H   0  0  0  0  0  0
   -2.8562  -21.0364   22.3436 H   0  0  0  0  0  0
   -2.3753  -22.6004   21.6025 H   0  0  0  0  0  0
  -12.0125  -21.5729   23.9679 H   0  0  0  0  0  0
  1  2  2  0  0  0
  2  3  2  0  0  0
  2  4  1  0  0  0
  2 11  1  0  0  0
  4  5  1  0  0  0
  4 35  1  0  0  0
  4 36  1  0  0  0
  5  6  1  0  0  0
  5 37  1  0  0  0
  5 38  1  0  0  0
  6  7  1  0  0  0
  6 39  1  0  0  0
  6 40  1  0  0  0
  7  8  1  0  0  0
  7 41  1  0  0  0
  7 42  1  0  0  0
  8  9  1  0  0  0
  8 43  1  0  0  0
  8 44  1  0  0  0
  9 10  1  0  0  0
  9 45  1  0  0  0
  9 46  1  0  0  0
 10 47  1  0  0  0
 11 12  2  0  0  0
 11 16  1  0  0  0
 12 13  1  0  0  0
 12 48  1  0  0  0
 13 14  2  0  0  0
 13 49  1  0  0  0
 14 15  1  0  0  0
 14 17  1  0  0  0
 15 16  2  0  0  0
 15 50  1  0  0  0
 16 51  1  0  0  0
 17 18  1  0  0  0
 17 52  1  0  0  0
 18 19  2  0  0  0
 18 26  1  0  0  0
 19 20  1  0  0  0
 20 21  2  0  0  0
 20 27  1  0  0  0
 21 22  1  0  0  0
 21 25  1  0  0  0
 22 23  2  0  0  0
 23 24  1  0  0  0
 23 53  1  0  0  0
 24 25  1  0  0  0
 24 67  1  0  0  0
 25 26  2  0  0  0
 27 28  1  0  0  0
 28 29  1  0  0  0
 28 54  1  0  0  0
 28 55  1  0  0  0
 29 30  1  0  0  0
 29 34  1  0  0  0
 29 56  1  0  0  0
 30 31  1  0  0  0
 30 57  1  0  0  0
 30 58  1  0  0  0
 31 32  1  0  0  0
 31 59  1  0  0  0
 31 60  1  0  0  0
 32 33  1  0  0  0
 32 61  1  0  0  0
 32 62  1  0  0  0
 33 34  1  0  0  0
 33 63  1  0  0  0
 33 64  1  0  0  0
 34 65  1  0  0  0
 34 66  1  0  0  0
M  CHG  2   6   1  24   1
M  END
> <s_m_source_file>
../2g9x_ligand.sdf

> <i_m_source_file_index>
1

> <s_epik_input>
W09IXVtDSDJdW0NIMl1bQ0gyXVtOSDIrXVtDSDJdW0NIMl1TKD1PKSg9TyljMVtjSF1bY0hdYyhbY0hdW2NIXTEpW05IXWMobmMoYzIzKVtuSF1bY0hdbjMpbmMyT1tDSDJdW0NIXTRbQ0gyXVtDSDJdW0NIMl1bQ0gyXVtDSDJdNA==

> <s_epik_cmdline>
J2VwaWtfYXBwJywgJy1pbWFlJywgJ2xpZ2FuZF9wcm8ubWFlJywgJy1vbWFlJywgJ2xpZ2FuZF9wcmVwLm1hZScsICctbXMnLCAnMScsICctcGgnLCAnNycsICctcGh0JywgJzAuNScsICctbnQn

> <r_lp_tautomer_probability>
1

> <r_epik_Ionization_Penalty>
  0.0209

> <r_epik_Ionization_Penalty_Charging>
  0.0115

> <r_epik_Ionization_Penalty_Neutral>
  0.0094

> <r_epik_State_Penalty>
 -0.0000

> <r_epik_Charging_Adjusted_Penalty>
0.011511622459388

> <i_epik_Tot_Q>
2

> <i_epik_Tot_abs_Q>
2

> <s_epik_Chemistry_Notes>
This compound has an imine and may undergo hydrolysis.

$$$$
