2gbf_ligand
                    3D
 Schrodinger Suite 2020-3.
 39 40  0  0  1  0            999 V2000
   14.2770   39.3180  -83.2740 C   0  0  2  0  0  0
   16.3030   38.0390  -83.7990 C   0  0  1  0  0  0
   14.8080   37.1930  -81.9510 C   0  0  0  0  0  0
   14.7050   39.6530  -84.7050 C   0  0  0  0  0  0
   14.6430   40.4170  -82.3370 C   0  0  0  0  0  0
   16.1700   39.2400  -84.7620 C   0  0  0  0  0  0
   17.6420   38.2860  -83.0870 C   0  0  0  0  0  0
   13.5140   37.3610  -81.1060 C   0  0  2  0  0  0
   15.0970   38.1240  -82.9370 N   0  0  0  0  0  0
   15.5130   36.2210  -81.6980 O   0  0  0  0  0  0
   14.9620   41.2570  -81.5540 C   0  0  0  0  0  0
   17.6880   38.5860  -81.7720 N   0  0  0  0  0  0
   13.6630   38.0850  -79.7540 C   0  0  0  0  0  0
   12.9760   36.0280  -80.9300 N   0  3  0  0  0  0
   12.3420   38.5400  -79.1320 C   0  0  0  0  0  0
   14.3010   37.3000  -78.6140 C   0  0  0  0  0  0
   12.7300   38.9590  -77.7140 C   0  0  0  0  0  0
   13.9970   38.1560  -77.3790 C   0  0  0  0  0  0
   13.1940   39.1570  -83.1686 H   0  0  0  0  0  0
   14.0873   39.0837  -85.4152 H   0  0  0  0  0  0
   14.5721   40.7300  -84.8849 H   0  0  0  0  0  0
   16.8287   40.0543  -84.4257 H   0  0  0  0  0  0
   16.4592   38.9299  -85.7770 H   0  0  0  0  0  0
   18.5847   38.2195  -83.6499 H   0  0  0  0  0  0
   12.7897   37.9828  -81.6526 H   0  0  0  0  0  0
   16.7565   38.6572  -81.1912 H   0  0  0  0  0  0
   14.3148   38.9108  -80.0752 H   0  0  0  0  0  0
   12.8817   35.5383  -81.9104 H   0  0  0  0  0  0
   11.9857   36.0920  -80.4554 H   0  0  0  0  0  0
   13.6519   35.4413  -80.2905 H   0  0  0  0  0  0
   11.9314   39.3775  -79.7152 H   0  0  0  0  0  0
   11.6270   37.7041  -79.1374 H   0  0  0  0  0  0
   13.8432   36.3015  -78.5552 H   0  0  0  0  0  0
   15.3807   37.1981  -78.7982 H   0  0  0  0  0  0
   12.9235   40.0416  -77.6916 H   0  0  0  0  0  0
   11.9085   38.7190  -77.0230 H   0  0  0  0  0  0
   13.8320   37.5012  -76.5106 H   0  0  0  0  0  0
   14.8471   38.8245  -77.1779 H   0  0  0  0  0  0
   18.6569   38.7593  -81.2810 H   0  0  0  0  0  0
  1  4  1  0  0  0
  1  5  1  0  0  0
  1  9  1  0  0  0
  1 19  1  0  0  0
  2  6  1  0  0  0
  2  7  2  0  0  0
  2  9  1  0  0  0
  3  8  1  0  0  0
  3  9  1  0  0  0
  3 10  2  0  0  0
  4  6  1  0  0  0
  4 20  1  0  0  0
  4 21  1  0  0  0
  5 11  3  0  0  0
  6 22  1  0  0  0
  6 23  1  0  0  0
  7 12  1  0  0  0
  7 24  1  0  0  0
  8 13  1  0  0  0
  8 14  1  0  0  0
  8 25  1  0  0  0
 12 26  1  0  0  0
 12 39  1  0  0  0
 13 15  1  0  0  0
 13 16  1  0  0  0
 13 27  1  0  0  0
 14 28  1  0  0  0
 14 29  1  0  0  0
 14 30  1  0  0  0
 15 17  1  0  0  0
 15 31  1  0  0  0
 15 32  1  0  0  0
 16 18  1  0  0  0
 16 33  1  0  0  0
 16 34  1  0  0  0
 17 18  1  0  0  0
 17 35  1  0  0  0
 17 36  1  0  0  0
 18 37  1  0  0  0
 18 38  1  0  0  0
M  CHG  1  14   1
M  END
> <s_m_source_file>
../2gbf_ligand.sdf

> <i_m_source_file_index>
1

> <s_epik_input>
W0NIXSNDW0NASF0xW0NIMl1bQ0gyXVtDQEBIXSgvW0NIXT1OXFtIXSlOMUMoPU8pW0NAQEhdKFtOSDMrXSlbQ0hdMltDSDJdW0NIMl1bQ0gyXVtDSDJdMg==

> <s_epik_cmdline>
J2VwaWtfYXBwJywgJy1pbWFlJywgJ2xpZ2FuZF9wcm8ubWFlJywgJy1vbWFlJywgJ2xpZ2FuZF9wcmVwLm1hZScsICctbXMnLCAnMScsICctcGgnLCAnNycsICctcGh0JywgJzAuNScsICctbnQn

> <r_lp_tautomer_probability>
7e-06

> <r_epik_Ionization_Penalty>
  0.0832

> <r_epik_Ionization_Penalty_Charging>
  0.0832

> <r_epik_Ionization_Penalty_Neutral>
  0.0000

> <r_epik_State_Penalty>
  0.0738

> <r_epik_Charging_Adjusted_Penalty>
0.156986104317876

> <i_epik_Tot_Q>
1

> <i_epik_Tot_abs_Q>
1

> <s_epik_Chemistry_Notes>
This compound has an imine and may undergo hydrolysis.

$$$$
