2gbg_ligand
                    3D
 Schrodinger Suite 2020-3.
 43 44  0  0  1  0            999 V2000
   14.3610   39.0000  -83.1140 C   0  0  2  0  0  0
   16.4110   37.7450  -83.5180 C   0  0  1  0  0  0
   14.8830   36.9140  -81.6770 C   0  0  0  0  0  0
   14.8470   39.2990  -84.5430 C   0  0  0  0  0  0
   14.6680   40.1120  -82.1960 C   0  0  0  0  0  0
   16.3150   38.8840  -84.5390 C   0  0  0  0  0  0
   17.7420   37.9930  -82.7940 C   0  0  0  0  0  0
   13.5590   37.0330  -80.8550 C   0  0  2  0  0  0
   15.1820   37.8400  -82.6970 N   0  0  0  0  0  0
   15.6140   35.9620  -81.3790 O   0  0  0  0  0  0
   14.8760   40.9770  -81.4080 C   0  0  0  0  0  0
   17.7630   38.2940  -81.4990 N   0  0  0  0  0  0
   13.5980   37.8680  -79.5570 C   0  0  0  0  0  0
   13.1490   35.6580  -80.6030 N   0  3  0  0  0  0
   15.0730   42.0280  -80.4270 C   0  0  0  0  0  0
   12.3900   37.7640  -78.6340 C   0  0  0  0  0  0
   14.7160   37.6120  -78.5570 C   0  0  0  0  0  0
   12.8030   38.6880  -77.4930 C   0  0  0  0  0  0
   14.3400   38.5880  -77.4380 C   0  0  0  0  0  0
   13.2759   38.8312  -83.0508 H   0  0  0  0  0  0
   14.2559   38.7123  -85.2616 H   0  0  0  0  0  0
   14.7235   40.3712  -84.7555 H   0  0  0  0  0  0
   16.9675   39.7126  -84.2264 H   0  0  0  0  0  0
   16.6336   38.5190  -85.5266 H   0  0  0  0  0  0
   18.6903   37.9223  -83.3469 H   0  0  0  0  0  0
   12.7929   37.5627  -81.4402 H   0  0  0  0  0  0
   16.8208   38.3674  -80.9360 H   0  0  0  0  0  0
   13.7027   38.8383  -80.0645 H   0  0  0  0  0  0
   13.1346   35.1001  -81.5509 H   0  0  0  0  0  0
   12.1430   35.6511  -80.1581 H   0  0  0  0  0  0
   13.8598   35.1847  -79.9097 H   0  0  0  0  0  0
   16.1069   42.3983  -80.4890 H   0  0  0  0  0  0
   14.8864   41.6285  -79.4192 H   0  0  0  0  0  0
   14.3750   42.8538  -80.6292 H   0  0  0  0  0  0
   11.4905   38.1050  -79.1675 H   0  0  0  0  0  0
   12.2564   36.7179  -78.3214 H   0  0  0  0  0  0
   14.6941   36.5575  -78.2445 H   0  0  0  0  0  0
   15.6857   37.8354  -79.0259 H   0  0  0  0  0  0
   12.4697   39.7131  -77.7124 H   0  0  0  0  0  0
   12.3393   38.3442  -76.5566 H   0  0  0  0  0  0
   14.6860   38.1900  -76.4727 H   0  0  0  0  0  0
   14.8165   39.5616  -77.6251 H   0  0  0  0  0  0
   18.7225   38.4696  -80.9907 H   0  0  0  0  0  0
  1  4  1  0  0  0
  1  5  1  0  0  0
  1  9  1  0  0  0
  1 20  1  0  0  0
  2  6  1  0  0  0
  2  7  2  0  0  0
  2  9  1  0  0  0
  3  8  1  0  0  0
  3  9  1  0  0  0
  3 10  2  0  0  0
  4  6  1  0  0  0
  4 21  1  0  0  0
  4 22  1  0  0  0
  5 11  3  0  0  0
  6 23  1  0  0  0
  6 24  1  0  0  0
  7 12  1  0  0  0
  7 25  1  0  0  0
  8 13  1  0  0  0
  8 14  1  0  0  0
  8 26  1  0  0  0
 11 15  1  0  0  0
 12 27  1  0  0  0
 12 43  1  0  0  0
 13 16  1  0  0  0
 13 17  1  0  0  0
 13 28  1  0  0  0
 14 29  1  0  0  0
 14 30  1  0  0  0
 14 31  1  0  0  0
 15 32  1  0  0  0
 15 33  1  0  0  0
 15 34  1  0  0  0
 16 18  1  0  0  0
 16 35  1  0  0  0
 16 36  1  0  0  0
 17 19  1  0  0  0
 17 37  1  0  0  0
 17 38  1  0  0  0
 18 19  1  0  0  0
 18 39  1  0  0  0
 18 40  1  0  0  0
 19 41  1  0  0  0
 19 42  1  0  0  0
M  CHG  1  14   1
M  END
> <s_m_source_file>
../2gbg_ligand.sdf

> <i_m_source_file_index>
1

> <s_epik_input>
W0NIM11DI0NbQ0BIXTFbQ0gyXVtDSDJdW0NAQEhdKC9bQ0hdPU5cW0hdKU4xQyg9TylbQ0BASF0oW05IMytdKVtDSF0yW0NIMl1bQ0gyXVtDSDJdW0NIMl0y

> <s_epik_cmdline>
J2VwaWtfYXBwJywgJy1pbWFlJywgJ2xpZ2FuZF9wcm8ubWFlJywgJy1vbWFlJywgJ2xpZ2FuZF9wcmVwLm1hZScsICctbXMnLCAnMScsICctcGgnLCAnNycsICctcGh0JywgJzAuNScsICctbnQn

> <r_lp_tautomer_probability>
7e-06

> <r_epik_Ionization_Penalty>
  0.1251

> <r_epik_Ionization_Penalty_Charging>
  0.1251

> <r_epik_Ionization_Penalty_Neutral>
  0.0000

> <r_epik_State_Penalty>
  0.1145

> <r_epik_Charging_Adjusted_Penalty>
0.239629802119737

> <i_epik_Tot_Q>
1

> <i_epik_Tot_abs_Q>
1

> <s_epik_Chemistry_Notes>
This compound has an imine and may undergo hydrolysis.

$$$$
