2gc8_ligand
                    3D
 Schrodinger Suite 2020-3.
 34 35  0  0  1  0            999 V2000
    6.7990   43.0500   54.4950 C   0  0  0  0  0  0
    7.4540   43.5210   53.2210 C   0  0  0  0  0  0
    8.6050   44.3390   53.3300 C   0  0  0  0  0  0
    9.2780   44.8240   52.1750 C   0  0  0  0  0  0
    8.8090   44.5050   50.8520 C   0  0  0  0  0  0
    7.6400   43.6870   50.7430 C   0  0  0  0  0  0
    6.9620   43.2010   51.9040 C   0  0  0  0  0  0
    5.5500   42.2330   51.6510 Cl  0  0  0  0  0  0
    9.4300   44.9510   49.6860 N   0  0  0  0  0  0
   10.6940   45.8720   52.4530 S   0  0  0  0  0  0
   10.2540   47.2250   52.1370 O   0  0  0  0  0  0
   11.2330   45.5830   53.7710 O   0  0  0  0  0  0
   11.8410   45.3750   51.2710 N   0  0  2  0  0  0
   12.4760   44.0230   51.4280 C   0  0  0  0  0  0
   13.8930   44.3280   51.8810 C   0  0  0  0  0  0
   14.2450   45.5630   51.0660 C   0  0  0  0  0  0
   12.9470   46.3690   51.0060 C   0  0  1  0  0  0
   12.6050   47.0470   49.6610 C   0  0  0  0  0  0
   11.7970   46.4450   48.8900 O   0  5  0  0  0  0
   13.1770   48.1610   49.4910 O   0  0  0  0  0  0
    7.3648   43.4276   55.3595 H   0  0  0  0  0  0
    6.7874   41.9503   54.5164 H   0  0  0  0  0  0
    5.7671   43.4285   54.5384 H   0  0  0  0  0  0
    8.9823   44.6019   54.3183 H   0  0  0  0  0  0
    7.2588   43.4293   49.7549 H   0  0  0  0  0  0
   10.3297   45.5808   49.7484 H   0  0  0  0  0  0
    9.0202   44.6731   48.7037 H   0  0  0  0  0  0
   11.9191   43.4412   52.1772 H   0  0  0  0  0  0
   12.4555   43.4941   50.4637 H   0  0  0  0  0  0
   13.8988   44.5173   52.9646 H   0  0  0  0  0  0
   14.5429   43.4697   51.6553 H   0  0  0  0  0  0
   15.0487   46.1188   51.5711 H   0  0  0  0  0  0
   14.5835   45.2575   50.0650 H   0  0  0  0  0  0
   13.0553   47.1790   51.7423 H   0  0  0  0  0  0
  1  2  1  0  0  0
  1 21  1  0  0  0
  1 22  1  0  0  0
  1 23  1  0  0  0
  2  3  2  0  0  0
  2  7  1  0  0  0
  3  4  1  0  0  0
  3 24  1  0  0  0
  4  5  2  0  0  0
  4 10  1  0  0  0
  5  6  1  0  0  0
  5  9  1  0  0  0
  6  7  2  0  0  0
  6 25  1  0  0  0
  7  8  1  0  0  0
  9 26  1  0  0  0
  9 27  1  0  0  0
 10 11  2  0  0  0
 10 12  2  0  0  0
 10 13  1  0  0  0
 13 14  1  0  0  0
 13 17  1  0  0  0
 14 15  1  0  0  0
 14 28  1  0  0  0
 14 29  1  0  0  0
 15 16  1  0  0  0
 15 30  1  0  0  0
 15 31  1  0  0  0
 16 17  1  0  0  0
 16 32  1  0  0  0
 16 33  1  0  0  0
 17 18  1  0  0  0
 17 34  1  0  0  0
 18 19  1  0  0  0
 18 20  2  0  0  0
M  CHG  1  19  -1
M  END
> <s_m_source_file>
../2gc8_ligand.sdf

> <i_m_source_file_index>
1

> <s_epik_input>
Q2xjMVtjSF1jKFtOSDJdKWMoW2NIXWMxW0NIM10pUyg9TykoPU8pTjJbQ0gyXVtDSDJdW0NIMl1bQ0BIXTJDKD1PKVtPSF0=

> <s_epik_cmdline>
J2VwaWtfYXBwJywgJy1pbWFlJywgJ2xpZ2FuZF9wcm8ubWFlJywgJy1vbWFlJywgJ2xpZ2FuZF9wcmVwLm1hZScsICctbXMnLCAnMScsICctcGgnLCAnNycsICctcGh0JywgJzAuNScsICctbnQn

> <r_lp_tautomer_probability>
1

> <r_epik_Ionization_Penalty>
  0.0001

> <r_epik_Ionization_Penalty_Charging>
  0.0001

> <r_epik_Ionization_Penalty_Neutral>
  0.0000

> <r_epik_State_Penalty>
 -0.0000

> <r_epik_Charging_Adjusted_Penalty>
0.000141886448854801

> <i_epik_Tot_Q>
-1

> <i_epik_Tot_abs_Q>
1

$$$$
