2gd8_ligand
                    3D
 Schrodinger Suite 2020-3.
 58 61  0  0  1  0            999 V2000
   -0.0580    8.8890   11.9170 C   0  0  0  0  0  0
   -0.7450    8.9780   13.1530 C   0  0  0  0  0  0
    2.5890    9.4290   12.6310 O   0  0  0  0  0  0
    2.1890   10.2280   11.5220 S   0  0  0  0  0  0
    2.6440    9.9240   10.2120 O   0  0  0  0  0  0
    2.5120   11.7420   11.8410 N   0  0  0  0  0  0
    0.5830   10.0720   11.4240 O   0  0  0  0  0  0
   -1.3730    7.8210   13.6490 C   0  0  0  0  0  0
   -1.3520    6.5550   12.9750 C   0  0  0  0  0  0
   -0.6500    6.4970   11.7250 C   0  0  0  0  0  0
   -0.0110    7.6490   11.2080 C   0  0  0  0  0  0
   -0.8580   10.1200   13.9220 O   0  0  0  0  0  0
   -0.1290   10.2340   15.1330 C   0  0  0  0  0  0
   -2.0400    5.3220   13.5740 C   0  0  2  0  0  0
   -2.4130    4.2730   12.4590 C   0  0  1  0  0  0
   -1.1590    3.9480   11.6180 C   0  0  0  0  0  0
   -0.5640    5.1970   10.9220 C   0  0  0  0  0  0
   -3.2820    5.7030   14.4500 C   0  0  0  0  0  0
   -3.9730    4.4550   15.0820 C   0  0  0  0  0  0
   -4.3470    3.4060   14.0390 C   0  0  2  0  0  0
   -3.0710    3.0720   13.1900 C   0  0  1  0  0  0
   -5.5810    3.9170   13.2430 C   0  0  0  0  0  0
   -4.5510    1.9600   14.5510 C   0  0  2  0  0  0
   -4.5030    1.1010   13.2950 C   0  0  0  0  0  0
   -3.5290    1.8400   12.3610 C   0  0  0  0  0  0
   -5.8300    1.8250   15.2350 O   0  0  0  0  0  0
   -5.8960    0.9570   16.5670 S   0  0  0  0  0  0
   -7.2760    0.9830   16.9230 O   0  0  0  0  0  0
   -4.9520    1.5590   17.4760 O   0  0  0  0  0  0
   -5.4350   -0.4940   16.1730 N   0  0  0  0  0  0
    3.6013   11.8771   11.9134 H   0  0  0  0  0  0
    2.0433   12.0237   12.7955 H   0  0  0  0  0  0
   -1.9049    7.8904   14.5979 H   0  0  0  0  0  0
    0.5225    7.5900   10.2593 H   0  0  0  0  0  0
   -0.3461   11.2052   15.6016 H   0  0  0  0  0  0
    0.9479   10.1618   14.9208 H   0  0  0  0  0  0
   -0.4234    9.4234   15.8159 H   0  0  0  0  0  0
   -1.2965    4.8688   14.2461 H   0  0  0  0  0  0
   -3.1355    4.6287   11.7097 H   0  0  0  0  0  0
   -0.3808    3.5232   12.2691 H   0  0  0  0  0  0
   -1.4205    3.2199   10.8361 H   0  0  0  0  0  0
   -1.1090    5.3150    9.9738 H   0  0  0  0  0  0
    0.4905    4.9646   10.7123 H   0  0  0  0  0  0
   -2.9639    6.3649   15.2690 H   0  0  0  0  0  0
   -4.0250    6.2220   13.8267 H   0  0  0  0  0  0
   -3.2908    3.9856   15.8060 H   0  0  0  0  0  0
   -4.8945    4.7668   15.5954 H   0  0  0  0  0  0
   -2.1776    2.8204   13.7804 H   0  0  0  0  0  0
   -5.3950    4.9449   12.8983 H   0  0  0  0  0  0
   -6.4681    3.9032   13.8932 H   0  0  0  0  0  0
   -5.7528    3.2644   12.3743 H   0  0  0  0  0  0
   -3.8269    1.6413   15.3153 H   0  0  0  0  0  0
   -4.1410    0.0947   13.5526 H   0  0  0  0  0  0
   -5.5115    1.0281   12.8619 H   0  0  0  0  0  0
   -4.0199    2.1813   11.4377 H   0  0  0  0  0  0
   -2.6540    1.2245   12.1050 H   0  0  0  0  0  0
   -5.4615   -1.1412   17.0621 H   0  0  0  0  0  0
   -4.4097   -0.4579   15.7762 H   0  0  0  0  0  0
  1  2  2  0  0  0
  1  7  1  0  0  0
  1 11  1  0  0  0
  2  8  1  0  0  0
  2 12  1  0  0  0
  3  4  2  0  0  0
  4  5  2  0  0  0
  4  6  1  0  0  0
  4  7  1  0  0  0
  6 31  1  0  0  0
  6 32  1  0  0  0
  8  9  2  0  0  0
  8 33  1  0  0  0
  9 10  1  0  0  0
  9 14  1  0  0  0
 10 11  2  0  0  0
 10 17  1  0  0  0
 11 34  1  0  0  0
 12 13  1  0  0  0
 13 35  1  0  0  0
 13 36  1  0  0  0
 13 37  1  0  0  0
 14 15  1  0  0  0
 14 18  1  0  0  0
 14 38  1  0  0  0
 15 16  1  0  0  0
 15 21  1  0  0  0
 15 39  1  0  0  0
 16 17  1  0  0  0
 16 40  1  0  0  0
 16 41  1  0  0  0
 17 42  1  0  0  0
 17 43  1  0  0  0
 18 19  1  0  0  0
 18 44  1  0  0  0
 18 45  1  0  0  0
 19 20  1  0  0  0
 19 46  1  0  0  0
 19 47  1  0  0  0
 20 21  1  0  0  0
 20 22  1  0  0  0
 20 23  1  0  0  0
 21 25  1  0  0  0
 21 48  1  0  0  0
 22 49  1  0  0  0
 22 50  1  0  0  0
 22 51  1  0  0  0
 23 24  1  0  0  0
 23 26  1  0  0  0
 23 52  1  0  0  0
 24 25  1  0  0  0
 24 53  1  0  0  0
 24 54  1  0  0  0
 25 55  1  0  0  0
 25 56  1  0  0  0
 26 27  1  0  0  0
 27 28  2  0  0  0
 27 29  2  0  0  0
 27 30  1  0  0  0
 30 57  1  0  0  0
 30 58  1  0  0  0
M  END
> <s_m_source_file>
../2gd8_ligand.sdf

> <i_m_source_file_index>
1

> <s_epik_input>
Tz1TKD1PKShbTkgyXSlPYyhjKFtjSF0xKU9bQ0gzXSlbY0hdYyhbQ0gyXVtDSDJdMiljMVtDQEBIXShbQ0gyXVtDSDJdMylbQ0BASF0yW0NAQEhdKFtDQF0zNFtDSDNdKVtDSDJdW0NIMl1bQ0BASF00T1MoPU8pKD1PKVtOSDJd

> <s_epik_cmdline>
J2VwaWtfYXBwJywgJy1pbWFlJywgJ2xpZ2FuZF9wcm8ubWFlJywgJy1vbWFlJywgJ2xpZ2FuZF9wcmVwLm1hZScsICctbXMnLCAnMScsICctcGgnLCAnNycsICctcGh0JywgJzAuNScsICctbnQn

> <r_epik_Ionization_Penalty>
  0.0206

> <r_epik_Ionization_Penalty_Charging>
  0.0000

> <r_epik_Ionization_Penalty_Neutral>
  0.0206

> <r_epik_State_Penalty>
  0.0150

> <r_epik_Charging_Adjusted_Penalty>
0.0149524920258903

> <i_epik_Tot_Q>
0

> <i_epik_Tot_abs_Q>
0

$$$$
