2gde_ligand
                    3D
 Schrodinger Suite 2020-3.
 87 89  0  0  1  0            999 V2000
   20.6550  -15.2220   18.4460 C   0  0  1  0  0  0
   21.1760  -14.0950   19.3760 C   0  0  0  0  0  0
   20.2190  -13.5570   20.4370 C   0  0  2  0  0  0
   19.1840  -14.5650   20.9690 C   0  0  2  0  0  0
   18.6110  -15.5450   19.9140 C   0  0  0  0  0  0
   19.7530  -16.2550   19.1810 C   0  0  2  0  0  0
   20.4820  -17.0490   20.1390 O   0  0  0  0  0  0
   18.1550  -13.6680   21.5580 N   0  0  0  0  0  0
   18.1900  -12.3790   20.8640 C   0  0  1  0  0  0
   19.3180  -12.4730   19.8170 C   0  0  0  0  0  0
   16.8780  -12.1300   20.1530 C   0  0  0  0  0  0
   16.3650  -10.8720   20.1540 N   0  0  0  0  0  0
   15.0980  -10.6020   19.4490 C   0  0  0  0  0  0
   14.2810   -9.6110   20.2700 C   0  0  0  0  0  0
   13.5580  -10.3830   21.3480 C   0  0  0  0  0  0
   12.9610   -9.7310   22.5500 C   0  0  0  0  0  0
   12.2090  -10.7550   23.2710 N   0  0  0  0  0  0
   12.6070  -12.0340   22.6700 C   0  0  0  0  0  0
   13.3880  -11.6830   21.4220 C   0  0  0  0  0  0
   11.3470  -10.5390   24.2380 C   0  0  0  0  0  0
   10.6640  -11.5920   24.8210 N   0  0  0  0  0  0
   11.0860   -9.2630   24.6530 N   0  3  0  0  0  0
   16.3050  -13.0560   19.5820 O   0  0  0  0  0  0
   17.3320  -13.9710   22.5800 C   0  0  0  0  0  0
   16.5600  -13.1120   22.9460 O   0  0  0  0  0  0
   17.3660  -15.3270   23.2710 C   0  0  1  0  0  0
   17.7450  -15.1150   24.7500 C   0  0  1  0  0  0
   17.7410  -16.4080   25.5710 C   0  0  0  0  0  0
   18.6580  -17.5010   24.9920 C   0  0  0  0  0  0
   18.1580  -16.0490   26.9950 C   0  0  0  0  0  0
   19.3340  -14.2690   24.8190 Cl  0  0  0  0  0  0
   16.0430  -15.9480   23.2410 N   0  0  0  0  0  0
   15.7690  -17.0330   22.4770 C   0  0  0  0  0  0
   14.3890  -17.6150   22.5220 C   0  0  2  0  0  0
   13.4510  -16.6030   22.9250 O   0  0  0  0  0  0
   12.9280  -15.8390   21.8240 C   0  0  0  0  0  0
   14.4110  -18.8270   23.4710 C   0  0  0  0  0  0
   14.4860  -18.4670   24.8620 O   0  0  0  0  0  0
   15.0530  -19.5630   25.7960 S   0  0  0  0  0  0
   15.2210  -19.0100   27.0920 O   0  0  0  0  0  0
   13.9750  -20.6200   26.0320 O   0  5  0  0  0  0
   16.1130  -20.1720   25.0540 O   0  0  0  0  0  0
   16.6010  -17.5480   21.7500 O   0  0  0  0  0  0
   19.9940  -14.6320   17.3100 O   0  0  0  0  0  0
   21.5015  -15.7777   18.0163 H   0  0  0  0  0  0
   22.0538  -14.4553   19.9325 H   0  0  0  0  0  0
   21.4591  -13.2214   18.7704 H   0  0  0  0  0  0
   20.9012  -13.2351   21.2376 H   0  0  0  0  0  0
   19.6071  -15.2552   21.7137 H   0  0  0  0  0  0
   17.9813  -16.2954   20.4144 H   0  0  0  0  0  0
   18.0060  -14.9862   19.1848 H   0  0  0  0  0  0
   19.3776  -16.9834   18.4472 H   0  0  0  0  0  0
   21.3489  -17.6434   19.8146 H   0  0  0  0  0  0
   18.3434  -11.5847   21.6093 H   0  0  0  0  0  0
   19.8898  -11.5397   19.7073 H   0  0  0  0  0  0
   18.9689  -12.8074   18.8289 H   0  0  0  0  0  0
   16.8883  -10.0574   20.6761 H   0  0  0  0  0  0
   15.3134  -10.1767   18.4577 H   0  0  0  0  0  0
   14.5367  -11.5406   19.3311 H   0  0  0  0  0  0
   14.9535   -8.8668   20.7216 H   0  0  0  0  0  0
   13.5571   -9.1023   19.6164 H   0  0  0  0  0  0
   13.7634   -9.3239   23.1828 H   0  0  0  0  0  0
   12.2952   -8.9152   22.2320 H   0  0  0  0  0  0
   13.2282  -12.5964   23.3826 H   0  0  0  0  0  0
   11.7085  -12.6195   22.4252 H   0  0  0  0  0  0
   13.7951  -12.3365   20.6364 H   0  0  0  0  0  0
   10.8639  -12.6240   24.4969 H   0  0  0  0  0  0
    9.9212  -11.3970   25.6085 H   0  0  0  0  0  0
   11.6214   -8.4164   24.1984 H   0  0  0  0  0  0
   18.0564  -15.9955   22.7359 H   0  0  0  0  0  0
   16.8578  -14.6302   25.1833 H   0  0  0  0  0  0
   16.7262  -16.8320   25.5528 H   0  0  0  0  0  0
   18.3388  -17.7426   23.9674 H   0  0  0  0  0  0
   18.5940  -18.4030   25.6183 H   0  0  0  0  0  0
   19.6963  -17.1382   24.9766 H   0  0  0  0  0  0
   17.4899  -15.2679   27.3868 H   0  0  0  0  0  0
   19.1935  -15.6778   26.9913 H   0  0  0  0  0  0
   18.0911  -16.9426   27.6329 H   0  0  0  0  0  0
   15.2276  -15.5350   23.8530 H   0  0  0  0  0  0
   14.0342  -17.9071   21.5226 H   0  0  0  0  0  0
   12.2204  -15.0869   22.2030 H   0  0  0  0  0  0
   12.4090  -16.5113   21.1249 H   0  0  0  0  0  0
   13.7547  -15.3347   21.3022 H   0  0  0  0  0  0
   13.4931  -19.4173   23.3332 H   0  0  0  0  0  0
   15.2869  -19.4532   23.2458 H   0  0  0  0  0  0
   20.5169  -13.8830   16.6972 H   0  0  0  0  0  0
   10.3406   -9.0827   25.4416 H   0  0  0  0  0  0
  1  2  1  0  0  0
  1  6  1  0  0  0
  1 44  1  0  0  0
  1 45  1  0  0  0
  2  3  1  0  0  0
  2 46  1  0  0  0
  2 47  1  0  0  0
  3  4  1  0  0  0
  3 10  1  0  0  0
  3 48  1  0  0  0
  4  5  1  0  0  0
  4  8  1  0  0  0
  4 49  1  0  0  0
  5  6  1  0  0  0
  5 50  1  0  0  0
  5 51  1  0  0  0
  6  7  1  0  0  0
  6 52  1  0  0  0
  7 53  1  0  0  0
  8  9  1  0  0  0
  8 24  1  0  0  0
  9 10  1  0  0  0
  9 11  1  0  0  0
  9 54  1  0  0  0
 10 55  1  0  0  0
 10 56  1  0  0  0
 11 12  1  0  0  0
 11 23  2  0  0  0
 12 13  1  0  0  0
 12 57  1  0  0  0
 13 14  1  0  0  0
 13 58  1  0  0  0
 13 59  1  0  0  0
 14 15  1  0  0  0
 14 60  1  0  0  0
 14 61  1  0  0  0
 15 16  1  0  0  0
 15 19  2  0  0  0
 16 17  1  0  0  0
 16 62  1  0  0  0
 16 63  1  0  0  0
 17 18  1  0  0  0
 17 20  1  0  0  0
 18 19  1  0  0  0
 18 64  1  0  0  0
 18 65  1  0  0  0
 19 66  1  0  0  0
 20 21  1  0  0  0
 20 22  2  0  0  0
 21 67  1  0  0  0
 21 68  1  0  0  0
 22 69  1  0  0  0
 22 87  1  0  0  0
 24 25  2  0  0  0
 24 26  1  0  0  0
 26 27  1  0  0  0
 26 32  1  0  0  0
 26 70  1  0  0  0
 27 28  1  0  0  0
 27 31  1  0  0  0
 27 71  1  0  0  0
 28 29  1  0  0  0
 28 30  1  0  0  0
 28 72  1  0  0  0
 29 73  1  0  0  0
 29 74  1  0  0  0
 29 75  1  0  0  0
 30 76  1  0  0  0
 30 77  1  0  0  0
 30 78  1  0  0  0
 32 33  1  0  0  0
 32 79  1  0  0  0
 33 34  1  0  0  0
 33 43  2  0  0  0
 34 35  1  0  0  0
 34 37  1  0  0  0
 34 80  1  0  0  0
 35 36  1  0  0  0
 36 81  1  0  0  0
 36 82  1  0  0  0
 36 83  1  0  0  0
 37 38  1  0  0  0
 37 84  1  0  0  0
 37 85  1  0  0  0
 38 39  1  0  0  0
 39 40  2  0  0  0
 39 41  1  0  0  0
 39 42  2  0  0  0
 44 86  1  0  0  0
M  CHG  2  22   1  41  -1
M  END
> <s_m_source_file>
../2gde_ligand.sdf

> <i_m_source_file_index>
1

> <s_epik_input>
Tz1TKD1PKShbT0hdKU9bQ0gyXVtDQEBIXShPW0NIM10pQyg9TylbTkhdW0NASF0oW0NASF0oQ2wpW0NIXShbQ0gzXSlbQ0gzXSlDKD1PKU4oW0NASF0oW0NAQEhdMTIpW0NIMl1bQ0BIXShbT0hdKVtDQEhdKFtDSDJdMSlbT0hdKVtDQEBIXShbQ0gyXTIpQyg9TylbTkhdW0NIMl1bQ0gyXUMzPVtDSF1bQ0gyXU4oW0NIMl0zKS9DKFtOSDJdKT1OXFtIXQ==

> <s_epik_cmdline>
J2VwaWtfYXBwJywgJy1pbWFlJywgJ2xpZ2FuZF9wcm8ubWFlJywgJy1vbWFlJywgJ2xpZ2FuZF9wcmVwLm1hZScsICctbXMnLCAnMScsICctcGgnLCAnNycsICctcGh0JywgJzAuNScsICctbnQn

> <r_lp_tautomer_probability>
1

> <r_epik_Ionization_Penalty>
  0.0000

> <r_epik_Ionization_Penalty_Charging>
  0.0000

> <r_epik_Ionization_Penalty_Neutral>
  0.0000

> <r_epik_State_Penalty>
 -0.0000

> <r_epik_Charging_Adjusted_Penalty>
8.7574414010304e-06

> <i_epik_Tot_Q>
0

> <i_epik_Tot_abs_Q>
2

> <s_epik_Chemistry_Notes>
This compound has an imine and may undergo hydrolysis.

$$$$
