2gdo_ligand
                    3D
 Schrodinger Suite 2020-3.
 52 57  0  0  1  0            999 V2000
    4.9190   -1.4740   46.0170 C   0  0  0  0  0  0
    5.7240   -2.3230   45.2280 C   0  0  0  0  0  0
    7.0500   -2.0020   44.9310 C   0  0  0  0  0  0
    7.9820   -3.0800   43.9710 Cl  0  0  0  0  0  0
    7.6190   -0.8190   45.4080 C   0  0  0  0  0  0
    6.8460    0.0470   46.2000 C   0  0  0  0  0  0
    5.5110   -0.2840   46.4980 C   0  0  0  0  0  0
    4.7610    0.5870   47.3010 N   0  0  0  0  0  0
    3.4510    0.3510   47.6640 C   0  0  0  0  0  0
    2.8410    1.1550   48.3750 O   0  0  0  0  0  0
    2.8010   -0.9050   47.1480 C   0  0  0  0  0  0
    1.4280   -1.2210   47.4900 C   0  0  0  0  0  0
    3.5020   -1.7810   46.3620 C   0  0  0  0  0  0
    2.8960   -2.9400   45.8680 N   0  0  0  0  0  0
    2.8120   -3.5020   44.5280 C   0  0  2  0  0  0
    0.6910   -2.2720   47.1330 N   0  0  0  0  0  0
   -0.5410   -2.0940   47.7090 C   0  0  0  0  0  0
   -0.5810   -0.9050   48.4350 C   0  0  0  0  0  0
    0.6740   -0.3690   48.2810 N   0  0  0  0  0  0
   -1.6910   -2.9130   47.6500 C   0  0  0  0  0  0
   -2.8470   -2.5020   48.3340 C   0  0  0  0  0  0
   -2.8590   -1.3000   49.0600 C   0  0  0  0  0  0
   -1.7210   -0.4710   49.1290 C   0  0  0  0  0  0
    1.4170   -3.1860   43.9150 C   0  0  0  0  0  0
    0.7180   -4.4950   43.5420 N   0  3  1  0  0  0
    1.5400   -5.2440   42.5060 C   0  0  0  0  0  0
    2.9130   -5.5700   43.1130 C   0  0  0  0  0  0
    0.5150   -5.3690   44.7760 C   0  0  0  0  0  0
    1.8830   -5.6980   45.3820 C   0  0  0  0  0  0
    3.0100   -5.0400   44.5640 C   0  0  2  0  0  0
    5.3011   -3.2504   44.8417 H   0  0  0  0  0  0
    8.6527   -0.5699   45.1682 H   0  0  0  0  0  0
    7.2788    0.9716   46.5821 H   0  0  0  0  0  0
    5.2142    1.5162   47.6768 H   0  0  0  0  0  0
    2.4209   -3.4596   46.7131 H   0  0  0  0  0  0
    3.6270   -3.0187   43.9693 H   0  0  0  0  0  0
   -1.6691   -3.8514   47.0766 H   0  0  0  0  0  0
   -3.7430   -3.1218   48.3009 H   0  0  0  0  0  0
   -3.7830   -1.0103   49.5819 H   0  0  0  0  0  0
   -1.7561    0.4644   49.7068 H   0  0  0  0  0  0
    0.8079   -2.6410   44.6512 H   0  0  0  0  0  0
    1.5439   -2.5675   43.0142 H   0  0  0  0  0  0
   -0.2681   -4.2601   43.1148 H   0  0  0  0  0  0
    1.0220   -6.1743   42.2297 H   0  0  0  0  0  0
    1.6652   -4.6148   41.6125 H   0  0  0  0  0  0
    3.0603   -6.6601   43.1223 H   0  0  0  0  0  0
    3.7022   -5.0985   42.5090 H   0  0  0  0  0  0
   -0.0971   -4.8274   45.5122 H   0  0  0  0  0  0
    0.0033   -6.2988   44.4867 H   0  0  0  0  0  0
    1.9263   -5.3225   46.4150 H   0  0  0  0  0  0
    2.0317   -6.7879   45.3815 H   0  0  0  0  0  0
    3.9815   -5.2791   45.0211 H   0  0  0  0  0  0
  1  2  2  0  0  0
  1  7  1  0  0  0
  1 13  1  0  0  0
  2  3  1  0  0  0
  2 31  1  0  0  0
  3  4  1  0  0  0
  3  5  2  0  0  0
  5  6  1  0  0  0
  5 32  1  0  0  0
  6  7  2  0  0  0
  6 33  1  0  0  0
  7  8  1  0  0  0
  8  9  1  0  0  0
  8 34  1  0  0  0
  9 10  2  0  0  0
  9 11  1  0  0  0
 11 12  1  0  0  0
 11 13  2  0  0  0
 12 16  2  0  0  0
 12 19  1  0  0  0
 13 14  1  0  0  0
 14 15  1  0  0  0
 14 35  1  0  0  0
 15 24  1  0  0  0
 15 30  1  0  0  0
 15 36  1  0  0  0
 16 17  1  0  0  0
 17 18  1  0  0  0
 17 20  2  0  0  0
 18 19  2  0  0  0
 18 23  1  0  0  0
 20 21  1  0  0  0
 20 37  1  0  0  0
 21 22  1  0  0  0
 21 38  1  0  0  0
 22 23  2  0  0  0
 22 39  1  0  0  0
 23 40  1  0  0  0
 24 25  1  0  0  0
 24 41  1  0  0  0
 24 42  1  0  0  0
 25 26  1  0  0  0
 25 28  1  0  0  0
 25 43  1  0  0  0
 26 27  1  0  0  0
 26 44  1  0  0  0
 26 45  1  0  0  0
 27 30  1  0  0  0
 27 46  1  0  0  0
 27 47  1  0  0  0
 28 29  1  0  0  0
 28 48  1  0  0  0
 28 49  1  0  0  0
 29 30  1  0  0  0
 29 50  1  0  0  0
 29 51  1  0  0  0
 30 52  1  0  0  0
M  CHG  1  25   1
M  END
> <s_m_source_file>
../2gdo_ligand.sdf

> <i_m_source_file_index>
1

> <s_epik_input>
W2NIXTFjKENsKVtjSF1bY0hdYyhjMTIpW25IXWMoPU8pYyhjMltOSF1bQ0BIXShbQ0gyXVtOQEBIK10zNClbQ0BIXShbQ0gyXVtDSDJdMylbQ0gyXVtDSDJdNClDKD1ONSlOPUMoQzU9NilbQ0hdPVtDSF1bQ0gyXVtDSF02

> <s_epik_cmdline>
J2VwaWtfYXBwJywgJy1pbWFlJywgJ2xpZ2FuZF9wcm8ubWFlJywgJy1vbWFlJywgJ2xpZ2FuZF9wcmVwLm1hZScsICctbXMnLCAnMScsICctcGgnLCAnNycsICctcGh0JywgJzAuNScsICctbnQn

> <r_lp_tautomer_probability>
1

> <r_epik_Ionization_Penalty>
  0.0038

> <r_epik_Ionization_Penalty_Charging>
  0.0008

> <r_epik_Ionization_Penalty_Neutral>
  0.0030

> <r_epik_State_Penalty>
 -0.0000

> <r_epik_Charging_Adjusted_Penalty>
0.000830044439221567

> <i_epik_Tot_Q>
1

> <i_epik_Tot_abs_Q>
1

> <s_epik_Chemistry_Notes>
This compound has an imine and may undergo hydrolysis.

$$$$
