2gej_ligand
                    3D
 Schrodinger Suite 2020-3.
 62 65  0  0  1  0            999 V2000
    3.8970   50.7450   29.0900 N   0  0  0  0  0  0
    2.7850   50.2180   29.5620 C   0  0  0  0  0  0
    2.1080   50.9870   30.4790 N   0  3  0  0  0  0
    2.3400   49.0060   29.1880 N   0  0  0  0  0  0
    1.1770   48.5670   29.6750 C   0  0  0  0  0  0
    0.4210   49.3130   30.5890 C   0  0  0  0  0  0
    0.8950   50.5660   31.0030 C   0  0  0  0  0  0
    0.2980   51.3090   31.8090 O   0  0  0  0  0  0
   -0.6790   48.5960   30.9040 N   0  0  0  0  0  0
   -0.6290   47.4460   30.2110 C   0  0  0  0  0  0
    0.5100   47.4330   29.4740 N   0  0  0  0  0  0
    0.9030   46.3890   28.5600 C   0  0  1  0  0  0
    1.1970   45.1680   29.3470 C   0  0  2  0  0  0
    2.5580   45.2820   29.7140 O   0  0  0  0  0  0
    0.9410   44.1010   28.2610 C   0  0  2  0  0  0
    2.0160   43.9440   27.3050 O   0  0  0  0  0  0
   -0.2680   44.7010   27.4790 C   0  0  2  0  0  0
   -0.3730   46.0720   27.9330 O   0  0  0  0  0  0
   -1.5400   43.9270   27.8040 C   0  0  0  0  0  0
   -1.6910   43.7040   29.1710 O   0  0  0  0  0  0
   -3.0770   44.0560   29.8520 P   0  0  1  0  0  0
   -3.1420   43.4550   31.2510 O   0  5  0  0  0  0
   -3.3660   45.5330   29.8420 O   0  0  0  0  0  0
   -4.0670   43.0490   29.0530 O   0  0  0  0  0  0
   -5.3360   43.5260   28.2250 P   0  0  1  0  0  0
   -6.3190   44.1200   29.4230 O   0  5  0  0  0  0
   -4.9920   44.5010   27.1840 O   0  0  0  0  0  0
   -5.9630   42.1740   27.6880 O   0  0  0  0  0  0
   -5.3770   41.4960   26.5960 C   0  0  1  0  0  0
   -4.0130   41.1410   27.0330 O   0  0  0  0  0  0
   -3.9440   40.0680   28.0260 C   0  0  2  0  0  0
   -2.4510   39.9310   28.0760 C   0  0  0  0  0  0
   -2.1020   38.7740   27.3930 O   0  0  0  0  0  0
   -6.3110   40.3110   26.2860 C   0  0  1  0  0  0
   -5.8500   39.6130   25.1620 O   0  0  0  0  0  0
   -6.2710   39.2660   27.3780 C   0  0  1  0  0  0
   -7.1340   38.1450   27.0260 O   0  0  0  0  0  0
   -4.7770   38.8280   27.6260 C   0  0  2  0  0  0
   -4.7000   37.8280   28.6650 O   0  0  0  0  0  0
    4.2199   51.7411   29.4270 H   0  0  0  0  0  0
   -1.3787   46.6552   30.2366 H   0  0  0  0  0  0
    1.7371   46.6887   27.9085 H   0  0  0  0  0  0
    0.6817   44.9977   30.3038 H   0  0  0  0  0  0
    2.8619   46.0107   30.4799 H   0  0  0  0  0  0
    0.8596   43.0939   28.6959 H   0  0  0  0  0  0
    2.9837   43.5328   27.6281 H   0  0  0  0  0  0
   -0.1503   44.7031   26.3853 H   0  0  0  0  0  0
   -2.4144   44.4951   27.4538 H   0  0  0  0  0  0
   -1.5127   42.9490   27.3012 H   0  0  0  0  0  0
   -5.2627   42.1277   25.7027 H   0  0  0  0  0  0
   -4.3778   40.2912   29.0119 H   0  0  0  0  0  0
   -1.9863   40.8072   27.6003 H   0  0  0  0  0  0
   -2.1236   39.8662   29.1242 H   0  0  0  0  0  0
   -1.0446   38.4829   27.3086 H   0  0  0  0  0  0
   -7.3199   40.7033   26.0905 H   0  0  0  0  0  0
   -5.7678   40.1252   24.1920 H   0  0  0  0  0  0
   -6.7257   39.6615   28.2982 H   0  0  0  0  0  0
   -8.2024   38.3148   26.8269 H   0  0  0  0  0  0
   -4.3458   38.3274   26.7466 H   0  0  0  0  0  0
   -3.7239   37.4153   28.9599 H   0  0  0  0  0  0
    4.5022   50.1887   28.3591 H   0  0  0  0  0  0
    2.5276   51.9498   30.8061 H   0  0  0  0  0  0
  1  2  1  0  0  0
  1 40  1  0  0  0
  1 61  1  0  0  0
  2  3  1  0  0  0
  2  4  2  0  0  0
  3  7  1  0  0  0
  3 62  1  0  0  0
  4  5  1  0  0  0
  5  6  2  0  0  0
  5 11  1  0  0  0
  6  7  1  0  0  0
  6  9  1  0  0  0
  7  8  2  0  0  0
  9 10  2  0  0  0
 10 11  1  0  0  0
 10 41  1  0  0  0
 11 12  1  0  0  0
 12 13  1  0  0  0
 12 18  1  0  0  0
 12 42  1  0  0  0
 13 14  1  0  0  0
 13 15  1  0  0  0
 13 43  1  0  0  0
 14 44  1  0  0  0
 15 16  1  0  0  0
 15 17  1  0  0  0
 15 45  1  0  0  0
 16 46  1  0  0  0
 17 18  1  0  0  0
 17 19  1  0  0  0
 17 47  1  0  0  0
 19 20  1  0  0  0
 19 48  1  0  0  0
 19 49  1  0  0  0
 20 21  1  0  0  0
 21 22  1  0  0  0
 21 23  2  0  0  0
 21 24  1  0  0  0
 24 25  1  0  0  0
 25 26  1  0  0  0
 25 27  2  0  0  0
 25 28  1  0  0  0
 28 29  1  0  0  0
 29 30  1  0  0  0
 29 34  1  0  0  0
 29 50  1  0  0  0
 30 31  1  0  0  0
 31 32  1  0  0  0
 31 38  1  0  0  0
 31 51  1  0  0  0
 32 33  1  0  0  0
 32 52  1  0  0  0
 32 53  1  0  0  0
 33 54  1  0  0  0
 34 35  1  0  0  0
 34 36  1  0  0  0
 34 55  1  0  0  0
 35 56  1  0  0  0
 36 37  1  0  0  0
 36 38  1  0  0  0
 36 57  1  0  0  0
 37 58  1  0  0  0
 38 39  1  0  0  0
 38 59  1  0  0  0
 39 60  1  0  0  0
M  CHG  3   3   1  22  -1  26  -1
M  END
> <s_m_source_file>
../2gej_ligand.sdf

> <i_m_source_file_index>
1

> <s_epik_input>
W0hdL049YyhbbkhdMSlcW25IXWMoPU8pYyhjMTIpbltjSF1uMltDQEhdM1tDQEhdKFtPSF0pW0NASF0oW09IXSlbQ0BIXShPMylbQ0gyXU9bUEBdKD1PKShbT0hdKU9bUEBdKD1PKShbT0hdKU9bQ0BIXTRPW0NASF0oW0NIMl1bT0hdKVtDQEBIXShbT0hdKVtDQEhdKFtPSF0pW0NAQEhdNFtPSF0=

> <s_epik_cmdline>
J2VwaWtfYXBwJywgJy1pbWFlJywgJ2xpZ2FuZF9wcm8ubWFlJywgJy1vbWFlJywgJ2xpZ2FuZF9wcmVwLm1hZScsICctbXMnLCAnMScsICctcGgnLCAnNycsICctcGh0JywgJzAuNScsICctbnQn

> <r_epik_Ionization_Penalty>
  2.3890

> <r_epik_Ionization_Penalty_Charging>
  2.3890

> <r_epik_Ionization_Penalty_Neutral>
  0.0000

> <r_epik_State_Penalty>
  0.2015

> <r_epik_Charging_Adjusted_Penalty>
2.5905017988101

> <i_epik_Tot_Q>
-1

> <i_epik_Tot_abs_Q>
3

> <s_epik_Chemistry_Notes>
This compound has an imine and may undergo hydrolysis. This compound contains an acetal/aminal-like group ( X-CH(R)-Y where X, Y are N, S, or O) that may be acid/base labile, releasing an aldehyde.

$$$$
