2gek_ligand
                    3D
 Schrodinger Suite 2020-3.
 40 42  0  0  1  0            999 V2000
   -5.1640   43.9720   28.8040 P   0  0  0  0  0  0
   -5.1780   45.4160   29.2620 O   0  0  0  0  0  0
   -6.3980   43.5090   29.5760 O   0  5  0  0  0  0
   -5.1520   43.8490   27.2730 O   0  5  0  0  0  0
   -3.9550   42.9370   29.2700 O   0  0  0  0  0  0
   -2.6910   43.5720   30.0080 P   0  0  1  0  0  0
   -2.8890   45.0290   29.7160 O   0  0  0  0  0  0
   -2.6490   43.5600   31.5330 O   0  5  0  0  0  0
   -1.3680   43.1960   29.1710 O   0  0  0  0  0  0
   -1.1930   43.9140   27.9680 C   0  0  0  0  0  0
    0.2110   44.3660   27.5740 C   0  0  1  0  0  0
    0.3200   45.7700   27.7630 O   0  0  0  0  0  0
    1.3850   43.7680   28.2910 C   0  0  1  0  0  0
    2.3590   43.7700   27.2680 O   0  0  0  0  0  0
    1.6970   44.7990   29.3480 C   0  0  1  0  0  0
    3.0730   44.8520   29.7150 O   0  0  0  0  0  0
    1.3650   46.1010   28.6530 C   0  0  2  0  0  0
    0.8580   47.1010   29.6280 N   0  0  0  0  0  0
   -0.2620   47.0360   30.4070 C   0  0  0  0  0  0
   -0.3370   48.1810   31.1140 N   0  0  0  0  0  0
    0.7220   48.9530   30.8000 C   0  0  0  0  0  0
    1.2550   50.2800   31.1840 C   0  0  0  0  0  0
    0.6030   50.9290   32.0640 O   0  0  0  0  0  0
    2.4160   50.7240   30.5910 N   0  3  0  0  0  0
    3.0610   49.9970   29.6700 C   0  0  0  0  0  0
    4.2030   50.4300   29.0810 N   0  0  0  0  0  0
    2.6170   48.7720   29.3060 N   0  0  0  0  0  0
    1.4970   48.2370   29.8210 C   0  0  0  0  0  0
   -1.5328   43.2993   27.1214 H   0  0  0  0  0  0
   -1.7813   44.8426   28.0063 H   0  0  0  0  0  0
    0.3094   44.0781   26.5169 H   0  0  0  0  0  0
    1.3155   42.7554   28.7150 H   0  0  0  0  0  0
    2.2703   43.0716   26.4228 H   0  0  0  0  0  0
    1.1937   44.5762   30.3004 H   0  0  0  0  0  0
    3.5357   44.0024   30.2385 H   0  0  0  0  0  0
    2.2142   46.5416   28.1101 H   0  0  0  0  0  0
   -0.9684   46.2069   30.4493 H   0  0  0  0  0  0
    4.6132   51.4181   29.3366 H   0  0  0  0  0  0
    4.7192   49.7932   28.3475 H   0  0  0  0  0  0
    2.8379   51.7006   30.8708 H   0  0  0  0  0  0
  1  2  2  0  0  0
  1  3  1  0  0  0
  1  4  1  0  0  0
  1  5  1  0  0  0
  5  6  1  0  0  0
  6  7  2  0  0  0
  6  8  1  0  0  0
  6  9  1  0  0  0
  9 10  1  0  0  0
 10 11  1  0  0  0
 10 29  1  0  0  0
 10 30  1  0  0  0
 11 12  1  0  0  0
 11 13  1  0  0  0
 11 31  1  0  0  0
 12 17  1  0  0  0
 13 14  1  0  0  0
 13 15  1  0  0  0
 13 32  1  0  0  0
 14 33  1  0  0  0
 15 16  1  0  0  0
 15 17  1  0  0  0
 15 34  1  0  0  0
 16 35  1  0  0  0
 17 18  1  0  0  0
 17 36  1  0  0  0
 18 19  1  0  0  0
 18 28  1  0  0  0
 19 20  2  0  0  0
 19 37  1  0  0  0
 20 21  1  0  0  0
 21 22  1  0  0  0
 21 28  2  0  0  0
 22 23  2  0  0  0
 22 24  1  0  0  0
 24 25  1  0  0  0
 24 40  1  0  0  0
 25 26  1  0  0  0
 25 27  2  0  0  0
 26 38  1  0  0  0
 26 39  1  0  0  0
 27 28  1  0  0  0
M  CHG  4   3  -1   4  -1   8  -1  24   1
M  END
> <s_m_source_file>
../2gek_ligand.sdf

> <i_m_source_file_index>
1

> <s_epik_input>
Tz1QKFtPSF0pKFtPSF0pT1tQQEBdKD1PKShbT0hdKU9bQ0gyXVtDQEhdMU9bQ0BIXShbQ0BIXShbT0hdKVtDQEBIXTFbT0hdKW4oW2NIXW4yKWMoYzIzKVtuSF1jKD1OXFtIXSlcW25IXWMzPU8=

> <s_epik_cmdline>
J2VwaWtfYXBwJywgJy1pbWFlJywgJ2xpZ2FuZF9wcm8ubWFlJywgJy1vbWFlJywgJ2xpZ2FuZF9wcmVwLm1hZScsICctbXMnLCAnMScsICctcGgnLCAnNycsICctcGh0JywgJzAuNScsICctbnQn

> <r_epik_Ionization_Penalty>
  2.4918

> <r_epik_Ionization_Penalty_Charging>
  2.4918

> <r_epik_Ionization_Penalty_Neutral>
  0.0000

> <r_epik_State_Penalty>
  0.1302

> <r_epik_Charging_Adjusted_Penalty>
2.62193179535438

> <i_epik_Tot_Q>
-2

> <i_epik_Tot_abs_Q>
4

> <s_epik_Chemistry_Notes>
This compound has an imine and may undergo hydrolysis. This compound contains an acetal/aminal-like group ( X-CH(R)-Y where X, Y are N, S, or O) that may be acid/base labile, releasing an aldehyde.

$$$$
