2gfa_ligand
                    3D
 Schrodinger Suite 2020-3.
123122  0  0  1  0            999 V2000
   27.9830   22.6390  -19.1800 N   0  3  0  0  0  0
   27.9030   22.0700  -20.5660 C   0  0  2  0  0  0
   27.9580   20.5470  -20.5290 C   0  0  0  0  0  0
   27.4880   19.8790  -21.4490 O   0  0  0  0  0  0
   29.0420   22.6120  -21.4220 C   0  0  0  0  0  0
   28.5490   20.0060  -19.4680 N   0  0  0  0  0  0
   28.6540   18.5590  -19.2920 C   0  0  2  0  0  0
   28.8910   17.7680  -20.5820 C   0  0  0  0  0  0
   28.0050   17.0550  -21.0620 O   0  0  0  0  0  0
   27.3970   18.0310  -18.5970 C   0  0  0  0  0  0
   27.2540   18.4790  -17.1560 C   0  0  0  0  0  0
   25.8040   18.7490  -16.8020 C   0  0  0  0  0  0
   25.6210   18.9320  -15.3690 N   0  0  0  0  0  0
   24.5560   19.5050  -14.8180 C   0  0  0  0  0  0
   23.5700   19.9600  -15.5810 N   0  3  0  0  0  0
   24.4720   19.6180  -13.4980 N   0  0  0  0  0  0
   30.0890   17.9050  -21.1370 N   0  0  0  0  0  0
   30.4690   17.1830  -22.3450 C   0  0  2  0  0  0
   31.7800   16.4630  -22.0470 C   0  0  0  0  0  0
   32.6280   16.9660  -21.2980 O   0  0  0  0  0  0
   30.6480   18.1260  -23.5610 C   0  0  2  0  0  0
   31.6010   19.1450  -23.2500 O   0  0  0  0  0  0
   29.3110   18.7740  -23.9400 C   0  0  0  0  0  0
   31.9400   15.2910  -22.6470 N   0  0  0  0  0  0
   33.1140   14.4590  -22.4270 C   0  0  1  0  0  0
   32.6450   13.1630  -21.7560 C   0  0  0  0  0  0
   33.6890   12.1130  -21.5290 C   0  0  0  0  0  0
   33.0370   10.7320  -21.3520 C   0  0  0  0  0  0
   32.0920   10.6960  -20.1620 C   0  0  0  0  0  0
   31.8280    9.3200  -19.5400 N   0  3  0  0  0  0
   33.8040   14.1530  -23.7550 C   0  0  0  0  0  0
   33.1850   14.2640  -24.8110 O   0  0  0  0  0  0
   31.2280    8.4410  -20.6040 C   0  0  0  0  0  0
   33.0320    8.6050  -19.0350 C   0  0  0  0  0  0
   30.8760    9.5650  -18.4230 C   0  0  0  0  0  0
   35.0790   13.7750  -23.7030 N   0  0  0  0  0  0
   35.8250   13.4340  -24.9150 C   0  0  2  0  0  0
   37.2290   12.9200  -24.6160 C   0  0  0  0  0  0
   37.7760   13.1400  -23.5290 O   0  0  0  0  0  0
   35.9310   14.6360  -25.8680 C   0  0  0  0  0  0
   36.8570   15.7560  -25.3920 C   0  0  0  0  0  0
   36.1800   16.6990  -24.4120 C   0  0  0  0  0  0
   35.1060   17.2290  -24.6940 O   0  0  0  0  0  0
   36.8080   16.9190  -23.2590 N   0  0  0  0  0  0
   37.8050   12.2400  -25.6020 N   0  0  0  0  0  0
   39.1400   11.6740  -25.4860 C   0  0  2  0  0  0
   40.0530   12.4370  -26.4210 C   0  0  0  0  0  0
   40.0930   12.1610  -27.6160 O   0  0  0  0  0  0
   39.1820   10.1910  -25.9200 C   0  0  2  0  0  0
   38.2310    9.4270  -25.1640 O   0  0  0  0  0  0
   40.5750    9.6190  -25.6980 C   0  0  0  0  0  0
   40.7800   13.4040  -25.8840 N   0  0  0  0  0  0
   41.6930   14.1760  -26.7100 C   0  0  2  0  0  0
   43.0960   13.9830  -26.1550 C   0  0  0  0  0  0
   43.8800   13.2170  -26.7710 O   0  0  0  0  0  0
   41.3020   15.6610  -26.6820 C   0  0  0  0  0  0
   43.4834   14.6083  -25.0469 O   0  5  0  0  0  0
   27.9416   23.7370  -19.2315 H   0  0  0  0  0  0
   28.9284   22.3293  -18.7105 H   0  0  0  0  0  0
   27.1377   22.2678  -18.5819 H   0  0  0  0  0  0
   26.9392   22.3817  -20.9949 H   0  0  0  0  0  0
   28.9942   23.7108  -21.4428 H   0  0  0  0  0  0
   28.9489   22.2215  -22.4461 H   0  0  0  0  0  0
   30.0047   22.2949  -20.9947 H   0  0  0  0  0  0
   28.9663   20.6841  -18.7090 H   0  0  0  0  0  0
   29.5574   18.4562  -18.6729 H   0  0  0  0  0  0
   26.5049   18.3827  -19.1360 H   0  0  0  0  0  0
   27.4140   16.9311  -18.5945 H   0  0  0  0  0  0
   27.6359   17.6929  -16.4880 H   0  0  0  0  0  0
   27.8293   19.4036  -17.0006 H   0  0  0  0  0  0
   25.4661   19.6630  -17.3123 H   0  0  0  0  0  0
   25.1838   17.8992  -17.1231 H   0  0  0  0  0  0
   26.3940   18.5857  -14.6672 H   0  0  0  0  0  0
   23.6345   19.8689  -16.6753 H   0  0  0  0  0  0
   25.2864   19.2426  -12.8609 H   0  0  0  0  0  0
   23.5880   20.0871  -13.0413 H   0  0  0  0  0  0
   30.8045   18.5888  -20.6569 H   0  0  0  0  0  0
   29.6475   16.4836  -22.5596 H   0  0  0  0  0  0
   31.0695   17.5840  -24.4204 H   0  0  0  0  0  0
   32.6240   18.8695  -22.9539 H   0  0  0  0  0  0
   28.5781   17.9894  -24.1792 H   0  0  0  0  0  0
   29.4534   19.4225  -24.8171 H   0  0  0  0  0  0
   28.9424   19.3750  -23.0956 H   0  0  0  0  0  0
   31.1471   14.9536  -23.3307 H   0  0  0  0  0  0
   33.8097   15.0211  -21.7867 H   0  0  0  0  0  0
   32.2294   13.3934  -20.7639 H   0  0  0  0  0  0
   31.8708   12.6881  -22.3766 H   0  0  0  0  0  0
   34.3683   12.0784  -22.3935 H   0  0  0  0  0  0
   34.2620   12.3557  -20.6219 H   0  0  0  0  0  0
   32.4616   10.4798  -22.2549 H   0  0  0  0  0  0
   33.8190    9.9751  -21.1922 H   0  0  0  0  0  0
   32.4987   11.3191  -19.3518 H   0  0  0  0  0  0
   31.1076   11.0834  -20.4636 H   0  0  0  0  0  0
   31.9622    8.2855  -21.4082 H   0  0  0  0  0  0
   30.3300    8.9247  -21.0158 H   0  0  0  0  0  0
   30.9532    7.4703  -20.1657 H   0  0  0  0  0  0
   33.7294    8.4284  -19.8671 H   0  0  0  0  0  0
   32.7301    7.6414  -18.5988 H   0  0  0  0  0  0
   33.5261    9.2169  -18.2659 H   0  0  0  0  0  0
   29.9902   10.0933  -18.8054 H   0  0  0  0  0  0
   31.3650   10.1792  -17.6525 H   0  0  0  0  0  0
   30.5690    8.6036  -17.9854 H   0  0  0  0  0  0
   35.5714   13.7218  -22.7208 H   0  0  0  0  0  0
   35.2238   12.6242  -25.3541 H   0  0  0  0  0  0
   36.3172   14.2992  -26.8414 H   0  0  0  0  0  0
   34.9361   15.0851  -26.0038 H   0  0  0  0  0  0
   37.7325   15.3191  -24.8894 H   0  0  0  0  0  0
   37.1889   16.3497  -26.2565 H   0  0  0  0  0  0
   37.7671   16.4219  -23.0515 H   0  0  0  0  0  0
   36.3678   17.5979  -22.5138 H   0  0  0  0  0  0
   37.2324   12.1123  -26.5325 H   0  0  0  0  0  0
   39.4113   11.7840  -24.4257 H   0  0  0  0  0  0
   38.8837   10.0814  -26.9731 H   0  0  0  0  0  0
   37.1635    9.6904  -25.1966 H   0  0  0  0  0  0
   41.3071   10.2020  -26.2760 H   0  0  0  0  0  0
   40.5978    8.5703  -26.0292 H   0  0  0  0  0  0
   40.8267    9.6714  -24.6285 H   0  0  0  0  0  0
   40.6917   13.6226  -24.8096 H   0  0  0  0  0  0
   41.6206   13.7960  -27.7397 H   0  0  0  0  0  0
   40.2861   15.7803  -27.0865 H   0  0  0  0  0  0
   42.0105   16.2383  -27.2941 H   0  0  0  0  0  0
   41.3294   16.0279  -25.6453 H   0  0  0  0  0  0
   22.6883   20.4282  -15.1191 H   0  0  0  0  0  0
  1  2  1  0  0  0
  1 58  1  0  0  0
  1 59  1  0  0  0
  1 60  1  0  0  0
  2  5  1  0  0  0
  2  3  1  0  0  0
  2 61  1  0  0  0
  3  4  2  0  0  0
  3  6  1  0  0  0
  5 62  1  0  0  0
  5 63  1  0  0  0
  5 64  1  0  0  0
  6  7  1  0  0  0
  6 65  1  0  0  0
  7 10  1  0  0  0
  7  8  1  0  0  0
  7 66  1  0  0  0
  8  9  2  0  0  0
  8 17  1  0  0  0
 10 11  1  0  0  0
 10 67  1  0  0  0
 10 68  1  0  0  0
 11 12  1  0  0  0
 11 69  1  0  0  0
 11 70  1  0  0  0
 12 13  1  0  0  0
 12 71  1  0  0  0
 12 72  1  0  0  0
 13 14  1  0  0  0
 13 73  1  0  0  0
 14 16  1  0  0  0
 14 15  2  0  0  0
 15 74  1  0  0  0
 15123  1  0  0  0
 16 75  1  0  0  0
 16 76  1  0  0  0
 17 18  1  0  0  0
 17 77  1  0  0  0
 18 21  1  0  0  0
 18 19  1  0  0  0
 18 78  1  0  0  0
 19 20  2  0  0  0
 19 24  1  0  0  0
 21 23  1  0  0  0
 21 22  1  0  0  0
 21 79  1  0  0  0
 22 80  1  0  0  0
 23 81  1  0  0  0
 23 82  1  0  0  0
 23 83  1  0  0  0
 24 25  1  0  0  0
 24 84  1  0  0  0
 25 26  1  0  0  0
 25 31  1  0  0  0
 25 85  1  0  0  0
 26 27  1  0  0  0
 26 86  1  0  0  0
 26 87  1  0  0  0
 27 28  1  0  0  0
 27 88  1  0  0  0
 27 89  1  0  0  0
 28 29  1  0  0  0
 28 90  1  0  0  0
 28 91  1  0  0  0
 29 30  1  0  0  0
 29 92  1  0  0  0
 29 93  1  0  0  0
 30 33  1  0  0  0
 30 34  1  0  0  0
 30 35  1  0  0  0
 31 32  2  0  0  0
 31 36  1  0  0  0
 33 94  1  0  0  0
 33 95  1  0  0  0
 33 96  1  0  0  0
 34 97  1  0  0  0
 34 98  1  0  0  0
 34 99  1  0  0  0
 35100  1  0  0  0
 35101  1  0  0  0
 35102  1  0  0  0
 36 37  1  0  0  0
 36103  1  0  0  0
 37 40  1  0  0  0
 37 38  1  0  0  0
 37104  1  0  0  0
 38 39  2  0  0  0
 38 45  1  0  0  0
 40 41  1  0  0  0
 40105  1  0  0  0
 40106  1  0  0  0
 41 42  1  0  0  0
 41107  1  0  0  0
 41108  1  0  0  0
 42 44  1  0  0  0
 42 43  2  0  0  0
 44109  1  0  0  0
 44110  1  0  0  0
 45 46  1  0  0  0
 45111  1  0  0  0
 46 49  1  0  0  0
 46 47  1  0  0  0
 46112  1  0  0  0
 47 48  2  0  0  0
 47 52  1  0  0  0
 49 51  1  0  0  0
 49 50  1  0  0  0
 49113  1  0  0  0
 50114  1  0  0  0
 51115  1  0  0  0
 51116  1  0  0  0
 51117  1  0  0  0
 52 53  1  0  0  0
 52118  1  0  0  0
 53 56  1  0  0  0
 53 54  1  0  0  0
 53119  1  0  0  0
 54 55  2  0  0  0
 54 57  1  0  0  0
 56120  1  0  0  0
 56121  1  0  0  0
 56122  1  0  0  0
M  CHG  4   1   1  15   1  30   1  57  -1
M  END
> <s_m_source_file>
../2gfa_ligand.sdf

> <i_m_source_file_index>
1

> <s_epik_input>
W0hdL049QyhbTkgyXSlcW05IXVtDSDJdW0NIMl1bQ0gyXVtDQEhdKFtOSF1DKD1PKVtDQEBIXShbTkgzK10pW0NIM10pQyg9TylbTkhdW0NAQEhdKFtDQEhdKFtPSF0pW0NIM10pQyg9TylbTkhdW0NAQEhdKFtDSDJdW0NIMl1bQ0gyXVtDSDJdW04rXShbQ0gzXSkoW0NIM10pW0NIM10pQyg9TylbTkhdW0NAQEhdKFtDSDJdW0NIMl1DKD1PKVtOSDJdKUMoPU8pW05IXVtDQEBIXShbQ0BIXShbT0hdKVtDSDNdKUMoPU8pW05IXVtDQEBIXShbQ0gzXSlDKD1PKVtPSF0=

> <s_epik_cmdline>
J2VwaWtfYXBwJywgJy1pbWFlJywgJ2xpZ2FuZF9wcm8ubWFlJywgJy1vbWFlJywgJ2xpZ2FuZF9wcmVwLm1hZScsICctbXMnLCAnMScsICctcGgnLCAnNycsICctcGh0JywgJzAuNScsICctbnQn

> <r_epik_Ionization_Penalty>
  0.1252

> <r_epik_Ionization_Penalty_Charging>
  0.1252

> <r_epik_Ionization_Penalty_Neutral>
  0.0000

> <r_epik_State_Penalty>
  0.1145

> <r_epik_Charging_Adjusted_Penalty>
0.239759325379152

> <i_epik_Tot_Q>
2

> <i_epik_Tot_abs_Q>
4

> <s_epik_Chemistry_Notes>
This compound has an imine and may undergo hydrolysis.

$$$$
