2gfd_ligand
                    3D
 Schrodinger Suite 2020-3.
 43 44  0  0  1  0            999 V2000
 -118.6280  -41.6200   54.6740 C   0  0  0  0  0  0
 -118.5140  -40.2690   54.2170 O   0  0  0  0  0  0
 -119.6170  -39.9090   53.5060 C   0  0  0  0  0  0
 -120.0490  -40.6550   52.6290 O   0  0  0  0  0  0
 -120.3100  -38.5730   53.7910 C   0  0  0  0  0  0
 -120.7200  -37.8030   52.7060 C   0  0  0  0  0  0
 -120.4820  -38.2280   51.4370 O   0  0  0  0  0  0
 -121.3760  -36.5940   52.9100 C   0  0  0  0  0  0
 -121.6180  -36.1670   54.2110 C   0  0  0  0  0  0
 -122.2270  -34.9700   54.4230 O   0  5  0  0  0  0
 -121.2090  -36.9500   55.2870 C   0  0  0  0  0  0
 -121.6060  -36.4140   56.8840 Cl  0  0  0  0  0  0
 -120.5420  -38.1610   55.1020 C   0  0  0  0  0  0
 -120.0600  -38.9960   56.2930 C   0  0  0  0  0  0
 -118.6730  -38.5490   56.7640 C   0  0  0  0  0  0
 -117.9960  -39.6180   57.6260 C   0  0  0  0  0  0
 -116.8920  -40.0690   57.3230 O   0  0  0  0  0  0
 -118.6940  -40.0290   58.6810 N   0  0  0  0  0  0
 -118.7380  -39.3410   59.8200 C   0  0  0  0  0  0
 -119.5180  -38.1920   59.9110 C   0  0  0  0  0  0
 -119.6320  -37.5170   61.1220 C   0  0  0  0  0  0
 -120.3040  -36.4900   61.1880 O   0  0  0  0  0  0
 -118.9710  -37.9890   62.2520 C   0  0  0  0  0  0
 -119.1550  -37.3410   63.4350 O   0  0  0  0  0  0
 -118.5020  -37.7820   64.6300 C   0  0  0  0  0  0
 -118.1810  -39.1320   62.1590 C   0  0  0  0  0  0
 -118.0640  -39.8060   60.9460 C   0  0  0  0  0  0
 -117.3610  -40.8120   60.8740 O   0  0  0  0  0  0
 -117.7280  -41.8909   55.2454 H   0  0  0  0  0  0
 -118.7295  -42.2922   53.8092 H   0  0  0  0  0  0
 -119.5142  -41.7154   55.3186 H   0  0  0  0  0  0
 -119.9638  -39.1829   51.2649 H   0  0  0  0  0  0
 -121.6962  -35.9892   52.0616 H   0  0  0  0  0  0
 -120.7657  -38.8834   57.1293 H   0  0  0  0  0  0
 -120.0047  -40.0548   56.0000 H   0  0  0  0  0  0
 -118.0344  -38.3535   55.8900 H   0  0  0  0  0  0
 -118.7672  -37.6306   57.3620 H   0  0  0  0  0  0
 -119.2629  -40.9692   58.6317 H   0  0  0  0  0  0
 -120.0470  -37.8146   59.0234 H   0  0  0  0  0  0
 -118.7844  -37.1251   65.4659 H   0  0  0  0  0  0
 -117.4119  -37.7455   64.4870 H   0  0  0  0  0  0
 -118.8079  -38.8143   64.8554 H   0  0  0  0  0  0
 -117.6470  -39.5051   63.0454 H   0  0  0  0  0  0
  1  2  1  0  0  0
  1 29  1  0  0  0
  1 30  1  0  0  0
  1 31  1  0  0  0
  2  3  1  0  0  0
  3  4  2  0  0  0
  3  5  1  0  0  0
  5  6  2  0  0  0
  5 13  1  0  0  0
  6  7  1  0  0  0
  6  8  1  0  0  0
  7 32  1  0  0  0
  8  9  2  0  0  0
  8 33  1  0  0  0
  9 10  1  0  0  0
  9 11  1  0  0  0
 11 12  1  0  0  0
 11 13  2  0  0  0
 13 14  1  0  0  0
 14 15  1  0  0  0
 14 34  1  0  0  0
 14 35  1  0  0  0
 15 16  1  0  0  0
 15 36  1  0  0  0
 15 37  1  0  0  0
 16 17  2  0  0  0
 16 18  1  0  0  0
 18 19  1  0  0  0
 18 38  1  0  0  0
 19 20  2  0  0  0
 19 27  1  0  0  0
 20 21  1  0  0  0
 20 39  1  0  0  0
 21 22  2  0  0  0
 21 23  1  0  0  0
 23 24  1  0  0  0
 23 26  2  0  0  0
 24 25  1  0  0  0
 25 40  1  0  0  0
 25 41  1  0  0  0
 25 42  1  0  0  0
 26 27  1  0  0  0
 26 43  1  0  0  0
 27 28  2  0  0  0
M  CHG  1  10  -1
M  END
> <s_m_source_file>
../2gfd_ligand.sdf

> <i_m_source_file_index>
1

> <s_epik_input>
W0NIM11PQyg9TyljMWMoW09IXSlbY0hdYyhbT0hdKWMoQ2wpYzFbQ0gyXVtDSDJdQyg9TylbTkhdQzI9W0NIXUMoPU8pQyhPW0NIM10pPVtDSF1DMj1P

> <s_epik_cmdline>
J2VwaWtfYXBwJywgJy1pbWFlJywgJ2xpZ2FuZF9wcm8ubWFlJywgJy1vbWFlJywgJ2xpZ2FuZF9wcmVwLm1hZScsICctbXMnLCAnMScsICctcGgnLCAnNycsICctcGh0JywgJzAuNScsICctbnQn

> <r_lp_tautomer_probability>
1

> <r_epik_Ionization_Penalty>
  0.1540

> <r_epik_Ionization_Penalty_Charging>
  0.1422

> <r_epik_Ionization_Penalty_Neutral>
  0.0118

> <r_epik_State_Penalty>
 -0.0000

> <r_epik_Charging_Adjusted_Penalty>
0.142178251562305

> <i_epik_Tot_Q>
-1

> <i_epik_Tot_abs_Q>
1

> <s_epik_Chemistry_Notes>
This compound has an ester and may undergo hydrolysis at high or low pH. This compound has an imine and may undergo hydrolysis.

$$$$
