2gfj_ligand
                    3D
 Schrodinger Suite 2020-3.
 33 35  0  0  1  0            999 V2000
   12.4780   31.0510   35.1110 O   0  5  0  0  0  0
   12.0640   29.8830   34.8820 C   0  0  0  0  0  0
   11.9440   29.0270   35.7790 O   0  0  0  0  0  0
   11.7850   29.4230   33.5030 C   0  0  0  0  0  0
   10.9860   28.4660   33.0280 N   0  0  0  0  0  0
   10.0670   27.8010   33.7410 C   0  0  0  0  0  0
    9.0650   28.5850   34.3690 C   0  0  0  0  0  0
    8.0160   28.0850   35.1210 C   0  0  0  0  0  0
    7.8970   26.7000   35.2070 C   0  0  0  0  0  0
    8.8330   25.8650   34.5680 C   0  0  0  0  0  0
    9.9080   26.4030   33.8350 C   0  0  0  0  0  0
   10.9780   28.3080   31.6470 N   0  0  0  0  0  0
   12.4890   29.8980   32.2890 C   0  0  0  0  0  0
   13.4750   31.0020   32.2290 C   0  0  0  0  0  0
   13.0210   32.1840   31.9380 O   0  5  0  0  0  0
   14.6540   30.8140   32.5000 O   0  0  0  0  0  0
   11.8950   29.1460   31.1380 C   0  0  0  0  0  0
   12.1690   29.2540   29.6870 C   0  0  0  0  0  0
   11.2880   28.5760   28.8260 C   0  0  0  0  0  0
   11.4740   28.6660   27.4410 C   0  0  0  0  0  0
   12.5130   29.4400   26.9410 C   0  0  0  0  0  0
   13.3880   30.1140   27.8060 C   0  0  0  0  0  0
   13.2090   30.0240   29.1850 C   0  0  0  0  0  0
    9.1261   29.6667   34.2498 H   0  0  0  0  0  0
    7.3123   28.7476   35.6249 H   0  0  0  0  0  0
    7.0750   26.2604   35.7719 H   0  0  0  0  0  0
    8.7236   24.7830   34.6420 H   0  0  0  0  0  0
   10.6171   25.7392   33.3404 H   0  0  0  0  0  0
   10.4673   27.9854   29.2332 H   0  0  0  0  0  0
   10.8090   28.1332   26.7613 H   0  0  0  0  0  0
   12.6504   29.5249   25.8630 H   0  0  0  0  0  0
   14.2071   30.7075   27.3998 H   0  0  0  0  0  0
   13.8790   30.5530   29.8627 H   0  0  0  0  0  0
  1  2  1  0  0  0
  2  3  2  0  0  0
  2  4  1  0  0  0
  4  5  1  0  0  0
  4 13  2  0  0  0
  5  6  1  0  0  0
  5 12  1  0  0  0
  6  7  2  0  0  0
  6 11  1  0  0  0
  7  8  1  0  0  0
  7 24  1  0  0  0
  8  9  2  0  0  0
  8 25  1  0  0  0
  9 10  1  0  0  0
  9 26  1  0  0  0
 10 11  2  0  0  0
 10 27  1  0  0  0
 11 28  1  0  0  0
 12 17  2  0  0  0
 13 14  1  0  0  0
 13 17  1  0  0  0
 14 15  1  0  0  0
 14 16  2  0  0  0
 17 18  1  0  0  0
 18 19  2  0  0  0
 18 23  1  0  0  0
 19 20  1  0  0  0
 19 29  1  0  0  0
 20 21  2  0  0  0
 20 30  1  0  0  0
 21 22  1  0  0  0
 21 31  1  0  0  0
 22 23  2  0  0  0
 22 32  1  0  0  0
 23 33  1  0  0  0
M  CHG  2   1  -1  15  -1
M  END
> <s_m_source_file>
../2gfj_ligand.sdf

> <i_m_source_file_index>
1

> <s_epik_input>
W2NIXTFbY0hdW2NIXVtjSF1bY0hdYzEtbihjMkMoPU8pW09IXSluYyhjMkMoPU8pW09IXSktYzNbY0hdW2NIXVtjSF1bY0hdW2NIXTM=

> <s_epik_cmdline>
J2VwaWtfYXBwJywgJy1pbWFlJywgJ2xpZ2FuZF9wcm8ubWFlJywgJy1vbWFlJywgJ2xpZ2FuZF9wcmVwLm1hZScsICctbXMnLCAnMScsICctcGgnLCAnNycsICctcGh0JywgJzAuNScsICctbnQn

> <r_lp_tautomer_probability>
1

> <r_epik_Ionization_Penalty>
  0.0028

> <r_epik_Ionization_Penalty_Charging>
  0.0028

> <r_epik_Ionization_Penalty_Neutral>
  0.0000

> <r_epik_State_Penalty>
 -0.0000

> <r_epik_Charging_Adjusted_Penalty>
0.00278580141723642

> <i_epik_Tot_Q>
-2

> <i_epik_Tot_abs_Q>
2

$$$$
