2gfk_ligand
                    3D
 Schrodinger Suite 2020-3.
 33 35  0  0  1  0            999 V2000
   11.2400   28.2760   28.7780 C   0  0  0  0  0  0
   11.4360   28.2790   27.4010 C   0  0  0  0  0  0
   12.4160   29.0900   26.8580 C   0  0  0  0  0  0
   13.2170   29.8900   27.6780 C   0  0  0  0  0  0
   13.0310   29.8870   29.0550 C   0  0  0  0  0  0
   12.0460   29.0760   29.6060 C   0  0  0  0  0  0
   11.7550   29.0400   31.0550 C   0  0  0  0  0  0
   10.7840   28.2380   31.5790 O   0  0  0  0  0  0
   12.3190   29.7960   32.2030 C   0  0  0  0  0  0
   13.3380   30.8710   32.1430 C   0  0  0  0  0  0
   14.5280   30.6640   32.4130 O   0  0  0  0  0  0
   12.9020   32.0130   31.8010 O   0  5  0  0  0  0
   11.5530   29.3710   33.3940 C   0  0  0  0  0  0
   11.7760   29.8550   34.7750 C   0  0  0  0  0  0
   11.5900   29.0900   35.7560 O   0  5  0  0  0  0
   12.1760   31.0290   34.8890 O   0  0  0  0  0  0
   10.6220   28.3330   32.9250 C   0  0  0  0  0  0
    9.5780   27.5350   33.6010 C   0  0  0  0  0  0
    8.7430   28.1630   34.5270 C   0  0  0  0  0  0
    7.7250   27.4190   35.1230 C   0  0  0  0  0  0
    7.5430   26.0920   34.7420 C   0  0  0  0  0  0
    8.3650   25.4720   33.7980 C   0  0  0  0  0  0
    9.3860   26.2100   33.1970 C   0  0  0  0  0  0
   10.4603   27.6524   29.2155 H   0  0  0  0  0  0
   10.8235   27.6486   26.7564 H   0  0  0  0  0  0
   12.5654   29.1055   25.7784 H   0  0  0  0  0  0
   13.9901   30.5183   27.2357 H   0  0  0  0  0  0
   13.6508   30.5139   29.6960 H   0  0  0  0  0  0
    8.8839   29.2140   34.7792 H   0  0  0  0  0  0
    7.0803   27.8703   35.8772 H   0  0  0  0  0  0
    6.7337   25.5191   35.1946 H   0  0  0  0  0  0
    8.2111   24.4257   33.5342 H   0  0  0  0  0  0
   10.0192   25.7637   32.4302 H   0  0  0  0  0  0
  1  2  2  0  0  0
  1  6  1  0  0  0
  1 24  1  0  0  0
  2  3  1  0  0  0
  2 25  1  0  0  0
  3  4  2  0  0  0
  3 26  1  0  0  0
  4  5  1  0  0  0
  4 27  1  0  0  0
  5  6  2  0  0  0
  5 28  1  0  0  0
  6  7  1  0  0  0
  7  8  1  0  0  0
  7  9  2  0  0  0
  8 17  1  0  0  0
  9 10  1  0  0  0
  9 13  1  0  0  0
 10 11  2  0  0  0
 10 12  1  0  0  0
 13 14  1  0  0  0
 13 17  2  0  0  0
 14 15  1  0  0  0
 14 16  2  0  0  0
 17 18  1  0  0  0
 18 19  2  0  0  0
 18 23  1  0  0  0
 19 20  1  0  0  0
 19 29  1  0  0  0
 20 21  2  0  0  0
 20 30  1  0  0  0
 21 22  1  0  0  0
 21 31  1  0  0  0
 22 23  2  0  0  0
 22 32  1  0  0  0
 23 33  1  0  0  0
M  CHG  2  12  -1  15  -1
M  END
> <s_m_source_file>
../2gfk_ligand.sdf

> <i_m_source_file_index>
1

> <s_epik_input>
W2NIXTFbY0hdW2NIXVtjSF1bY0hdYzEtYzJvYyhjKEMoPU8pW09IXSljMkMoPU8pW09IXSktYzNbY0hdW2NIXVtjSF1bY0hdW2NIXTM=

> <s_epik_cmdline>
J2VwaWtfYXBwJywgJy1pbWFlJywgJ2xpZ2FuZF9wcm8ubWFlJywgJy1vbWFlJywgJ2xpZ2FuZF9wcmVwLm1hZScsICctbXMnLCAnMScsICctcGgnLCAnNycsICctcGh0JywgJzAuNScsICctbnQn

> <r_lp_tautomer_probability>
1

> <r_epik_Ionization_Penalty>
  0.0034

> <r_epik_Ionization_Penalty_Charging>
  0.0034

> <r_epik_Ionization_Penalty_Neutral>
  0.0000

> <r_epik_State_Penalty>
 -0.0000

> <r_epik_Charging_Adjusted_Penalty>
0.003412374400548

> <i_epik_Tot_Q>
-2

> <i_epik_Tot_abs_Q>
2

$$$$
