2gfs_ligand
                    3D
 Schrodinger Suite 2020-3.
 45 47  0  0  1  0            999 V2000
   19.8940    9.3090   30.8900 N   0  0  0  0  0  0
   20.5990   10.4490   31.1270 C   0  0  0  0  0  0
   21.9790   10.4980   31.2180 C   0  0  0  0  0  0
   22.2960   11.8420   31.4630 C   0  0  0  0  0  0
   21.1400   12.5810   31.5100 N   0  0  0  0  0  0
   20.1010   11.6670   31.2890 N   0  0  0  0  0  0
   18.8050   12.0180   31.2720 C   0  0  0  0  0  0
   17.8810   11.5120   32.1930 C   0  0  0  0  0  0
   16.5340   11.8780   32.1970 C   0  0  0  0  0  0
   16.0590   12.7870   31.2580 C   0  0  0  0  0  0
   14.7570   13.1470   31.2450 F   0  0  0  0  0  0
   16.9490   13.3080   30.3290 C   0  0  0  0  0  0
   18.2920   12.9330   30.3450 C   0  0  0  0  0  0
   22.8390    9.2830   31.0760 C   0  0  0  0  0  0
   22.3420    8.1870   30.8720 O   0  0  0  0  0  0
   24.3390    9.3690   31.1760 C   0  0  0  0  0  0
   25.0490   10.3510   30.4840 C   0  0  0  0  0  0
   26.4390   10.4060   30.5830 C   0  0  0  0  0  0
   27.1160    9.4720   31.3630 C   0  0  0  0  0  0
   26.4120    8.4810   32.0430 C   0  0  0  0  0  0
   27.0850    7.5590   32.8100 O   0  0  0  0  0  0
   26.5580    7.1420   34.0750 C   0  0  0  0  0  0
   27.6440    6.4440   34.8830 C   0  0  1  0  0  0
   28.4770    7.4260   35.5090 O   0  0  0  0  0  0
   27.0000    5.5450   35.9310 C   0  0  0  0  0  0
   26.6540    4.2920   35.3260 O   0  0  0  0  0  0
   25.0220    8.4310   31.9450 C   0  0  0  0  0  0
   20.4212    8.3507   30.7724 H   0  0  0  0  0  0
   18.7971    9.3460   30.8161 H   0  0  0  0  0  0
   23.3029   12.2379   31.5954 H   0  0  0  0  0  0
   18.2289   10.7998   32.9412 H   0  0  0  0  0  0
   15.8551   11.4517   32.9355 H   0  0  0  0  0  0
   16.5950   14.0166   29.5802 H   0  0  0  0  0  0
   18.9673   13.3684   29.6085 H   0  0  0  0  0  0
   24.5174   11.0748   29.8663 H   0  0  0  0  0  0
   26.9943   11.1784   30.0510 H   0  0  0  0  0  0
   28.2022    9.5166   31.4418 H   0  0  0  0  0  0
   26.2001    8.0212   34.6309 H   0  0  0  0  0  0
   25.7221    6.4457   33.9124 H   0  0  0  0  0  0
   28.3147    5.8601   34.2355 H   0  0  0  0  0  0
   29.0198    8.1592   34.8944 H   0  0  0  0  0  0
   27.7096    5.3749   36.7541 H   0  0  0  0  0  0
   26.0934    6.0295   36.3226 H   0  0  0  0  0  0
   26.1748    3.5049   35.9267 H   0  0  0  0  0  0
   24.4681    7.6545   32.4726 H   0  0  0  0  0  0
  1  2  1  0  0  0
  1 28  1  0  0  0
  1 29  1  0  0  0
  2  3  2  0  0  0
  2  6  1  0  0  0
  3  4  1  0  0  0
  3 14  1  0  0  0
  4  5  2  0  0  0
  4 30  1  0  0  0
  5  6  1  0  0  0
  6  7  1  0  0  0
  7  8  2  0  0  0
  7 13  1  0  0  0
  8  9  1  0  0  0
  8 31  1  0  0  0
  9 10  2  0  0  0
  9 32  1  0  0  0
 10 11  1  0  0  0
 10 12  1  0  0  0
 12 13  2  0  0  0
 12 33  1  0  0  0
 13 34  1  0  0  0
 14 15  2  0  0  0
 14 16  1  0  0  0
 16 17  2  0  0  0
 16 27  1  0  0  0
 17 18  1  0  0  0
 17 35  1  0  0  0
 18 19  2  0  0  0
 18 36  1  0  0  0
 19 20  1  0  0  0
 19 37  1  0  0  0
 20 21  1  0  0  0
 20 27  2  0  0  0
 21 22  1  0  0  0
 22 23  1  0  0  0
 22 38  1  0  0  0
 22 39  1  0  0  0
 23 24  1  0  0  0
 23 25  1  0  0  0
 23 40  1  0  0  0
 24 41  1  0  0  0
 25 26  1  0  0  0
 25 42  1  0  0  0
 25 43  1  0  0  0
 26 44  1  0  0  0
 27 45  1  0  0  0
M  END
> <s_m_source_file>
../2gfs_ligand.sdf

> <i_m_source_file_index>
1

> <s_epik_input>
W2NIXTFbY0hdYyhGKVtjSF1bY0hdYzEtbjJuW2NIXWMoYzJbTkgyXSlDKD1PKWMzW2NIXVtjSF1bY0hdYyhbY0hdMylPW0NIMl1bQ0BASF0oW09IXSlbQ0gyXVtPSF0=

> <s_epik_cmdline>
J2VwaWtfYXBwJywgJy1pbWFlJywgJ2xpZ2FuZF9wcm8ubWFlJywgJy1vbWFlJywgJ2xpZ2FuZF9wcmVwLm1hZScsICctbXMnLCAnMScsICctcGgnLCAnNycsICctcGh0JywgJzAuNScsICctbnQn

> <r_lp_tautomer_probability>
1

> <r_epik_Ionization_Penalty>
  0.0002

> <r_epik_Ionization_Penalty_Charging>
  0.0000

> <r_epik_Ionization_Penalty_Neutral>
  0.0002

> <r_epik_State_Penalty>
 -0.0000

> <r_epik_Charging_Adjusted_Penalty>
0

> <i_epik_Tot_Q>
0

> <i_epik_Tot_abs_Q>
0

$$$$
