2gg0_ligand
                    3D
 Schrodinger Suite 2020-3.
 48 48  0  0  1  0            999 V2000
   17.9570    1.0670   14.5680 F   0  0  0  0  0  0
   17.3680   -0.0520   15.0030 C   0  0  0  0  0  0
   17.8250   -0.3020   16.2160 F   0  0  0  0  0  0
   17.7040   -1.0660   14.2040 F   0  0  0  0  0  0
   15.8930    0.2680   15.0750 C   0  0  0  0  0  0
   15.0860    0.1570   13.9510 C   0  0  0  0  0  0
   13.7290    0.5010   14.0140 C   0  0  0  0  0  0
   15.3490    0.7200   16.2690 C   0  0  0  0  0  0
   13.9980    1.0450   16.3330 C   0  0  0  0  0  0
   13.1680    0.9600   15.2090 C   0  0  0  0  0  0
   11.7080    1.3130   15.2860 C   0  0  1  0  0  0
   11.2610    2.2340   14.2430 N   0  3  0  0  0  0
   10.8500    0.0480   15.4090 C   0  0  2  0  0  0
    9.4540    0.3710   15.3780 O   0  0  0  0  0  0
   11.1520   -0.5240   16.7680 C   0  0  0  0  0  0
   10.6750    0.0200   17.7670 O   0  0  0  0  0  0
   11.9500   -1.5850   16.7860 N   0  0  0  0  0  0
   12.3690   -2.1890   18.0300 C   0  0  1  0  0  0
   11.2750   -3.1070   18.5300 C   0  0  0  0  0  0
   13.5940   -3.0050   17.7800 C   0  0  0  0  0  0
   13.7950   -3.5910   16.7350 O   0  0  0  0  0  0
   14.4790   -3.0930   18.7750 N   0  0  0  0  0  0
   15.7100   -3.8630   18.7810 C   0  0  0  0  0  0
   15.2470   -5.2310   19.2350 C   0  0  0  0  0  0
   14.1250   -5.4080   19.7050 O   0  0  0  0  0  0
   16.1250   -6.3820   19.1110 O   0  0  0  0  0  0
   16.0620   -7.4270   20.0890 C   0  0  0  0  0  0
   15.5108   -0.2002   13.0129 H   0  0  0  0  0  0
   13.1062    0.4099   13.1241 H   0  0  0  0  0  0
   15.9781    0.8200   17.1535 H   0  0  0  0  0  0
   13.5751    1.3741   17.2822 H   0  0  0  0  0  0
   11.5690    1.9382   16.1803 H   0  0  0  0  0  0
   11.9247    3.1109   14.2191 H   0  0  0  0  0  0
   10.2320    2.5587   14.4570 H   0  0  0  0  0  0
   11.2898    1.7256   13.2680 H   0  0  0  0  0  0
   11.0129   -0.6532   14.5773 H   0  0  0  0  0  0
    9.0103    0.8069   14.4707 H   0  0  0  0  0  0
   12.2927   -2.0039   15.8283 H   0  0  0  0  0  0
   12.5758   -1.3778   18.7436 H   0  0  0  0  0  0
   10.3633   -2.5215   18.7197 H   0  0  0  0  0  0
   11.6005   -3.5913   19.4625 H   0  0  0  0  0  0
   11.0660   -3.8755   17.7712 H   0  0  0  0  0  0
   14.1964   -2.5007   19.6578 H   0  0  0  0  0  0
   16.1401   -3.8746   17.7686 H   0  0  0  0  0  0
   16.4262   -3.4040   19.4784 H   0  0  0  0  0  0
   16.7920   -8.2101   19.8364 H   0  0  0  0  0  0
   15.0503   -7.8586   20.0998 H   0  0  0  0  0  0
   16.2953   -7.0146   21.0817 H   0  0  0  0  0  0
  1  2  1  0  0  0
  2  3  1  0  0  0
  2  4  1  0  0  0
  2  5  1  0  0  0
  5  6  2  0  0  0
  5  8  1  0  0  0
  6  7  1  0  0  0
  6 28  1  0  0  0
  7 10  2  0  0  0
  7 29  1  0  0  0
  8  9  2  0  0  0
  8 30  1  0  0  0
  9 10  1  0  0  0
  9 31  1  0  0  0
 10 11  1  0  0  0
 11 12  1  0  0  0
 11 13  1  0  0  0
 11 32  1  0  0  0
 12 33  1  0  0  0
 12 34  1  0  0  0
 12 35  1  0  0  0
 13 14  1  0  0  0
 13 15  1  0  0  0
 13 36  1  0  0  0
 14 37  1  0  0  0
 15 16  2  0  0  0
 15 17  1  0  0  0
 17 18  1  0  0  0
 17 38  1  0  0  0
 18 19  1  0  0  0
 18 20  1  0  0  0
 18 39  1  0  0  0
 19 40  1  0  0  0
 19 41  1  0  0  0
 19 42  1  0  0  0
 20 21  2  0  0  0
 20 22  1  0  0  0
 22 23  1  0  0  0
 22 43  1  0  0  0
 23 24  1  0  0  0
 23 44  1  0  0  0
 23 45  1  0  0  0
 24 25  2  0  0  0
 24 26  1  0  0  0
 26 27  1  0  0  0
 27 46  1  0  0  0
 27 47  1  0  0  0
 27 48  1  0  0  0
M  CHG  1  12   1
M  END
> <s_m_source_file>
../2gg0_ligand.sdf

> <i_m_source_file_index>
1

> <s_epik_input>
RkMoRikoRiljMVtjSF1bY0hdYyhbY0hdW2NIXTEpW0NAQEhdKFtOSDMrXSlbQ0BIXShbT0hdKUMoPU8pW05IXVtDQEBIXShbQ0gzXSlDKD1PKVtOSF1bQ0gyXUMoPU8pT1tDSDNd

> <s_epik_cmdline>
J2VwaWtfYXBwJywgJy1pbWFlJywgJ2xpZ2FuZF9wcm8ubWFlJywgJy1vbWFlJywgJ2xpZ2FuZF9wcmVwLm1hZScsICctbXMnLCAnMScsICctcGgnLCAnNycsICctcGh0JywgJzAuNScsICctbnQn

> <r_epik_Ionization_Penalty>
  0.1887

> <r_epik_Ionization_Penalty_Charging>
  0.1885

> <r_epik_Ionization_Penalty_Neutral>
  0.0002

> <r_epik_State_Penalty>
  0.1781

> <r_epik_Charging_Adjusted_Penalty>
0.366641839103841

> <i_epik_Tot_Q>
1

> <i_epik_Tot_abs_Q>
1

> <s_epik_Chemistry_Notes>
This compound has an ester and may undergo hydrolysis at high or low pH.

$$$$
