2gg3_ligand
                    3D
 Schrodinger Suite 2020-3.
 25 26  0  0  1  0            999 V2000
   -8.4270   -1.7810    7.6520 F   0  0  0  0  0  0
   -7.1880   -1.4290    8.0680 C   0  0  0  0  0  0
   -6.0540   -2.0670    7.5690 C   0  0  0  0  0  0
   -4.7900   -1.6780    8.0160 C   0  0  0  0  0  0
   -4.6830   -0.6810    8.9910 C   0  0  0  0  0  0
   -5.8130   -0.0250    9.4630 C   0  0  0  0  0  0
   -7.0660   -0.4170    9.0120 C   0  0  0  0  0  0
   -3.4480   -0.2000    9.4460 N   0  0  0  0  0  0
   -2.4850   -0.4760    8.7240 N   0  0  0  0  0  0
   -1.2090   -0.0390    8.9890 C   0  0  0  0  0  0
   -0.6660    0.8020   10.0640 C   0  0  0  0  0  0
   -1.3420    1.3480   11.1300 N   0  0  0  0  0  0
    0.6700    0.9860    9.8930 N   0  3  0  0  0  0
    1.0850    0.3020    8.7360 N   0  0  0  0  0  0
   -0.0100   -0.2930    8.1920 C   0  0  0  0  0  0
    0.0010   -1.0490    7.0650 N   0  0  0  0  0  0
   -6.1534   -2.8654    6.8337 H   0  0  0  0  0  0
   -3.8944   -2.1471    7.6087 H   0  0  0  0  0  0
   -5.7167    0.7898   10.1806 H   0  0  0  0  0  0
   -7.9592    0.0720    9.4007 H   0  0  0  0  0  0
   -2.4236    1.1802   11.2396 H   0  0  0  0  0  0
   -0.8011    1.9525   11.8730 H   0  0  0  0  0  0
   -0.9331   -1.4949    6.6927 H   0  0  0  0  0  0
    0.9440   -1.2159    6.5239 H   0  0  0  0  0  0
    1.4012    1.5505   10.4902 H   0  0  0  0  0  0
  1  2  1  0  0  0
  2  3  2  0  0  0
  2  7  1  0  0  0
  3  4  1  0  0  0
  3 17  1  0  0  0
  4  5  2  0  0  0
  4 18  1  0  0  0
  5  6  1  0  0  0
  5  8  1  0  0  0
  6  7  2  0  0  0
  6 19  1  0  0  0
  7 20  1  0  0  0
  8  9  2  0  0  0
  9 10  1  0  0  0
 10 11  2  0  0  0
 10 15  1  0  0  0
 11 12  1  0  0  0
 11 13  1  0  0  0
 12 21  1  0  0  0
 12 22  1  0  0  0
 13 14  1  0  0  0
 13 25  1  0  0  0
 14 15  2  0  0  0
 15 16  1  0  0  0
 16 23  1  0  0  0
 16 24  1  0  0  0
M  CHG  1  13   1
M  END
> <s_m_source_file>
../2gg3_ligand.sdf

> <i_m_source_file_index>
1

> <s_epik_input>
RmMxW2NIXVtjSF1jKFtjSF1bY0hdMSkvTj1OL2MyYyhbTkgyXSlbbkhdbmMyW05IMl0=

> <s_epik_cmdline>
J2VwaWtfYXBwJywgJy1pbWFlJywgJ2xpZ2FuZF9wcm8ubWFlJywgJy1vbWFlJywgJ2xpZ2FuZF9wcmVwLm1hZScsICctbXMnLCAnMScsICctcGgnLCAnNycsICctcGh0JywgJzAuNScsICctbnQn

> <r_epik_Ionization_Penalty>
  0.0009

> <r_epik_Ionization_Penalty_Charging>
  0.0000

> <r_epik_Ionization_Penalty_Neutral>
  0.0009

> <r_epik_State_Penalty>
  0.4107

> <r_epik_Charging_Adjusted_Penalty>
0.410679838952604

> <i_epik_Tot_Q>
1

> <i_epik_Tot_abs_Q>
1

> <s_epik_Chemistry_Notes>
This compound has an imine and may undergo hydrolysis.

$$$$
