2gg5_ligand
                    3D
 Schrodinger Suite 2020-3.
 28 29  0  0  1  0            999 V2000
   16.3300    0.6290   14.1890 F   0  0  0  0  0  0
   16.8770    1.0150   15.3270 C   0  0  0  0  0  0
   18.0400    1.6160   15.0960 F   0  0  0  0  0  0
   16.0970    1.9650   15.8210 F   0  0  0  0  0  0
   17.0230   -0.0690   16.3960 C   0  0  0  0  0  0
   18.2730   -0.5620   16.7800 C   0  0  0  0  0  0
   18.3820   -1.5370   17.7690 C   0  0  0  0  0  0
   15.8850   -0.5830   17.0300 C   0  0  0  0  0  0
   15.9800   -1.5690   18.0280 C   0  0  0  0  0  0
   17.2420   -2.0430   18.3850 C   0  0  0  0  0  0
   14.6570   -0.1130   16.6610 N   0  0  0  0  0  0
   13.6660   -0.5680   17.2390 N   0  0  0  0  0  0
   12.3930   -0.1830   16.9580 C   0  0  0  0  0  0
   11.8940    0.7920   15.9920 C   0  0  0  0  0  0
   12.6790    1.5150   15.1470 N   0  0  0  0  0  0
   10.5550    0.8580   16.0620 N   0  3  0  0  0  0
   10.0810   -0.0350   17.0470 N   0  0  0  0  0  0
   11.1660   -0.6580   17.5920 C   0  0  0  0  0  0
   11.1760   -1.6070   18.5710 N   0  0  0  0  0  0
   19.1735   -0.1790   16.2999 H   0  0  0  0  0  0
   19.3653   -1.9052   18.0616 H   0  0  0  0  0  0
   15.0840   -1.9556   18.5135 H   0  0  0  0  0  0
   17.3356   -2.8135   19.1503 H   0  0  0  0  0  0
   13.7715    1.3879   15.1672 H   0  0  0  0  0  0
   12.2209    2.2263   14.4440 H   0  0  0  0  0  0
   12.1308   -2.0280   18.9192 H   0  0  0  0  0  0
   10.2293   -1.9516   19.0126 H   0  0  0  0  0  0
    9.8450    1.4738   15.4905 H   0  0  0  0  0  0
  1  2  1  0  0  0
  2  3  1  0  0  0
  2  4  1  0  0  0
  2  5  1  0  0  0
  5  6  2  0  0  0
  5  8  1  0  0  0
  6  7  1  0  0  0
  6 20  1  0  0  0
  7 10  2  0  0  0
  7 21  1  0  0  0
  8  9  2  0  0  0
  8 11  1  0  0  0
  9 10  1  0  0  0
  9 22  1  0  0  0
 10 23  1  0  0  0
 11 12  2  0  0  0
 12 13  1  0  0  0
 13 14  2  0  0  0
 13 18  1  0  0  0
 14 15  1  0  0  0
 14 16  1  0  0  0
 15 24  1  0  0  0
 15 25  1  0  0  0
 16 17  1  0  0  0
 16 28  1  0  0  0
 17 18  2  0  0  0
 18 19  1  0  0  0
 19 26  1  0  0  0
 19 27  1  0  0  0
M  CHG  1  16   1
M  END
> <s_m_source_file>
../2gg5_ligand.sdf

> <i_m_source_file_index>
1

> <s_epik_input>
RkMoRikoRiljMVtjSF1bY0hdW2NIXVtjSF1jMS9OPU4vYzJjKFtOSDJdKVtuSF1uYzJbTkgyXQ==

> <s_epik_cmdline>
J2VwaWtfYXBwJywgJy1pbWFlJywgJ2xpZ2FuZF9wcm8ubWFlJywgJy1vbWFlJywgJ2xpZ2FuZF9wcmVwLm1hZScsICctbXMnLCAnMScsICctcGgnLCAnNycsICctcGh0JywgJzAuNScsICctbnQn

> <r_epik_Ionization_Penalty>
  0.0009

> <r_epik_Ionization_Penalty_Charging>
  0.0000

> <r_epik_Ionization_Penalty_Neutral>
  0.0009

> <r_epik_State_Penalty>
  0.4107

> <r_epik_Charging_Adjusted_Penalty>
0.410679838952604

> <i_epik_Tot_Q>
1

> <i_epik_Tot_abs_Q>
1

> <s_epik_Chemistry_Notes>
This compound has an imine and may undergo hydrolysis.

$$$$
