2gg8_ligand
                    3D
 Schrodinger Suite 2020-3.
 60 60  0  0  1  0            999 V2000
   -5.1170   -6.4560    6.1520 O   0  0  0  0  0  0
   -4.3440   -5.6440    5.6570 C   0  0  0  0  0  0
   -3.2140   -6.3070    5.0140 O   0  0  0  0  0  0
   -3.3390   -7.7360    4.9190 C   0  0  0  0  0  0
   -4.5550   -4.1400    5.7200 C   0  0  1  0  0  0
   -5.4910   -3.7020    6.8390 C   0  0  0  0  0  0
   -6.5400   -2.6540    6.4330 C   0  0  0  0  0  0
   -6.0620   -1.2400    6.7200 C   0  0  0  0  0  0
   -7.8660   -2.8200    7.1580 C   0  0  0  0  0  0
   -3.2950   -3.4130    5.8690 N   0  0  0  0  0  0
   -2.5900   -3.2890    6.9930 C   0  0  0  0  0  0
   -2.8700   -3.7810    8.0800 O   0  0  0  0  0  0
   -1.3100   -2.5010    6.9140 C   0  0  2  0  0  0
   -0.1770   -3.4410    6.4710 C   0  0  0  0  0  0
   -1.0270   -1.9100    8.2230 N   0  0  0  0  0  0
   -0.2910   -0.8300    8.2560 C   0  0  0  0  0  0
    0.1560   -0.2580    7.2640 O   0  0  0  0  0  0
    0.0280   -0.2030    9.5970 C   0  0  1  0  0  0
    1.4540    0.1220    9.4950 O   0  0  0  0  0  0
   -0.7240    1.1260    9.5910 C   0  0  2  0  0  0
   -0.3570    2.1110   10.6230 N   0  3  0  0  0  0
   -2.1910    0.8480    9.7060 C   0  0  0  0  0  0
   -2.7510    0.3990   10.9100 C   0  0  0  0  0  0
   -4.1210    0.1110   11.0150 C   0  0  0  0  0  0
   -4.9740    0.2640    9.9290 C   0  0  0  0  0  0
   -6.4200   -0.0360   10.0530 C   0  0  0  0  0  0
   -4.4410    0.7000    8.7120 C   0  0  0  0  0  0
   -3.0670    0.9870    8.6190 C   0  0  0  0  0  0
   -2.4481   -8.1499    4.4241 H   0  0  0  0  0  0
   -4.2347   -7.9875    4.3320 H   0  0  0  0  0  0
   -3.4299   -8.1640    5.9282 H   0  0  0  0  0  0
   -4.9873   -3.8661    4.7463 H   0  0  0  0  0  0
   -6.0453   -4.5742    7.2158 H   0  0  0  0  0  0
   -4.9031   -3.2599    7.6569 H   0  0  0  0  0  0
   -6.6929   -2.8061    5.3544 H   0  0  0  0  0  0
   -5.1001   -1.0685    6.2147 H   0  0  0  0  0  0
   -5.9349   -1.1090    7.8048 H   0  0  0  0  0  0
   -6.8051   -0.5192    6.3482 H   0  0  0  0  0  0
   -8.2563   -3.8331    6.9810 H   0  0  0  0  0  0
   -8.5856   -2.0786    6.7805 H   0  0  0  0  0  0
   -7.7154   -2.6684    8.2370 H   0  0  0  0  0  0
   -2.8474   -2.9048    5.0022 H   0  0  0  0  0  0
   -1.4108   -1.6586    6.2139 H   0  0  0  0  0  0
   -0.4187   -3.8681    5.4865 H   0  0  0  0  0  0
   -0.0655   -4.2524    7.2053 H   0  0  0  0  0  0
    0.7639   -2.8751    6.4042 H   0  0  0  0  0  0
   -1.4297   -2.3748    9.1350 H   0  0  0  0  0  0
   -0.1876   -0.8267   10.4770 H   0  0  0  0  0  0
    2.2022   -0.6842    9.4804 H   0  0  0  0  0  0
   -0.4416    1.6308    8.6553 H   0  0  0  0  0  0
    0.7190    2.3293   10.5553 H   0  0  0  0  0  0
   -0.5863    1.7022   11.6181 H   0  0  0  0  0  0
   -0.9296    3.0370   10.4661 H   0  0  0  0  0  0
   -2.1099    0.2709   11.7822 H   0  0  0  0  0  0
   -4.5228   -0.2390   11.9658 H   0  0  0  0  0  0
   -6.6401   -0.3618   11.0803 H   0  0  0  0  0  0
   -6.6901   -0.8366    9.3486 H   0  0  0  0  0  0
   -7.0031    0.8677    9.8221 H   0  0  0  0  0  0
   -5.0860    0.8167    7.8411 H   0  0  0  0  0  0
   -2.6673    1.3309    7.6650 H   0  0  0  0  0  0
  1  2  2  0  0  0
  2  3  1  0  0  0
  2  5  1  0  0  0
  3  4  1  0  0  0
  4 29  1  0  0  0
  4 30  1  0  0  0
  4 31  1  0  0  0
  5  6  1  0  0  0
  5 10  1  0  0  0
  5 32  1  0  0  0
  6  7  1  0  0  0
  6 33  1  0  0  0
  6 34  1  0  0  0
  7  8  1  0  0  0
  7  9  1  0  0  0
  7 35  1  0  0  0
  8 36  1  0  0  0
  8 37  1  0  0  0
  8 38  1  0  0  0
  9 39  1  0  0  0
  9 40  1  0  0  0
  9 41  1  0  0  0
 10 11  1  0  0  0
 10 42  1  0  0  0
 11 12  2  0  0  0
 11 13  1  0  0  0
 13 14  1  0  0  0
 13 15  1  0  0  0
 13 43  1  0  0  0
 14 44  1  0  0  0
 14 45  1  0  0  0
 14 46  1  0  0  0
 15 16  1  0  0  0
 15 47  1  0  0  0
 16 17  2  0  0  0
 16 18  1  0  0  0
 18 19  1  0  0  0
 18 20  1  0  0  0
 18 48  1  0  0  0
 19 49  1  0  0  0
 20 21  1  0  0  0
 20 22  1  0  0  0
 20 50  1  0  0  0
 21 51  1  0  0  0
 21 52  1  0  0  0
 21 53  1  0  0  0
 22 23  2  0  0  0
 22 28  1  0  0  0
 23 24  1  0  0  0
 23 54  1  0  0  0
 24 25  2  0  0  0
 24 55  1  0  0  0
 25 26  1  0  0  0
 25 27  1  0  0  0
 26 56  1  0  0  0
 26 57  1  0  0  0
 26 58  1  0  0  0
 27 28  2  0  0  0
 27 59  1  0  0  0
 28 60  1  0  0  0
M  CHG  1  21   1
M  END
> <s_m_source_file>
../2gg8_ligand.sdf

> <i_m_source_file_index>
1

> <s_epik_input>
W0NIM11PQyg9TylbQ0BASF0oW0NIMl1bQ0hdKFtDSDNdKVtDSDNdKVtOSF1DKD1PKVtDQEhdKFtDSDNdKVtOSF1DKD1PKVtDQEBIXShbT0hdKVtDQEhdKFtOSDMrXSljMVtjSF1bY0hdYyhbQ0gzXSlbY0hdW2NIXTE=

> <s_epik_cmdline>
J2VwaWtfYXBwJywgJy1pbWFlJywgJ2xpZ2FuZF9wcm8ubWFlJywgJy1vbWFlJywgJ2xpZ2FuZF9wcmVwLm1hZScsICctbXMnLCAnMScsICctcGgnLCAnNycsICctcGh0JywgJzAuNScsICctbnQn

> <r_epik_Ionization_Penalty>
  0.1442

> <r_epik_Ionization_Penalty_Charging>
  0.1440

> <r_epik_Ionization_Penalty_Neutral>
  0.0002

> <r_epik_State_Penalty>
  0.1333

> <r_epik_Charging_Adjusted_Penalty>
0.277333736771285

> <i_epik_Tot_Q>
1

> <i_epik_Tot_abs_Q>
1

> <s_epik_Chemistry_Notes>
This compound has an ester and may undergo hydrolysis at high or low pH.

$$$$
