2gg9_ligand
                    3D
 Schrodinger Suite 2020-3.
 66 66  0  0  1  0            999 V2000
   -0.0060    0.0110    6.9890 O   0  0  0  0  0  0
   -0.4730   -0.5270    7.9850 C   0  0  0  0  0  0
   -0.1860    0.0890    9.3230 C   0  0  2  0  0  0
   -1.0730    1.3530    9.4450 C   0  0  1  0  0  0
   -2.5090    0.9430    9.5660 C   0  0  0  0  0  0
   -2.9930    0.4230   10.7620 C   0  0  0  0  0  0
   -4.3170    0.0270   10.8610 C   0  0  0  0  0  0
   -5.1570    0.1200    9.7620 C   0  0  0  0  0  0
   -6.5700   -0.2780    9.8410 C   0  0  0  0  0  0
   -7.4110    0.9820    9.8930 C   0  0  0  0  0  0
   -6.8710   -1.0930   11.0650 C   0  0  0  0  0  0
   -4.7070    0.6200    8.5550 C   0  0  0  0  0  0
   -3.3750    1.0120    8.4560 C   0  0  0  0  0  0
   -0.5350    2.2320   10.5000 N   0  3  0  0  0  0
    1.2180    0.4400    9.3290 O   0  0  0  0  0  0
   -1.2480   -1.6000    7.9580 N   0  0  0  0  0  0
   -1.6310   -2.2510    6.7100 C   0  0  1  0  0  0
   -0.5400   -3.2000    6.2370 C   0  0  0  0  0  0
   -2.8930   -3.0310    6.8870 C   0  0  0  0  0  0
   -3.1450   -3.6000    7.9260 O   0  0  0  0  0  0
   -3.7050   -3.0980    5.8420 N   0  0  0  0  0  0
   -4.9110   -3.8740    5.8500 C   0  0  2  0  0  0
   -6.0690   -3.4850    6.7520 C   0  0  0  0  0  0
   -6.9650   -2.3860    6.1820 C   0  0  0  0  0  0
   -8.4440   -2.7550    6.2780 C   0  0  0  0  0  0
   -6.6260   -1.9710    4.7520 C   0  0  0  0  0  0
   -4.6380   -5.2650    5.3830 C   0  0  0  0  0  0
   -3.5320   -5.5510    4.9300 O   0  0  0  0  0  0
   -5.6630   -6.2860    5.4620 O   0  0  0  0  0  0
   -5.6450   -7.3930    4.5610 C   0  0  0  0  0  0
   -0.3455   -0.6039   10.1623 H   0  0  0  0  0  0
   -1.0638    2.0154    8.5668 H   0  0  0  0  0  0
   -2.3301    0.3270   11.6219 H   0  0  0  0  0  0
   -4.6994   -0.3589   11.8060 H   0  0  0  0  0  0
   -6.7702   -0.9008    8.9567 H   0  0  0  0  0  0
   -7.2065    1.5963    9.0037 H   0  0  0  0  0  0
   -7.1600    1.5532   10.7989 H   0  0  0  0  0  0
   -8.4768    0.7108    9.9141 H   0  0  0  0  0  0
   -6.2705   -2.0145   11.0487 H   0  0  0  0  0  0
   -7.9400   -1.3521   11.0792 H   0  0  0  0  0  0
   -6.6231   -0.5096   11.9640 H   0  0  0  0  0  0
   -5.3789    0.7054    7.7010 H   0  0  0  0  0  0
   -2.9947    1.3790    7.5027 H   0  0  0  0  0  0
    0.5217    2.4534   10.2892 H   0  0  0  0  0  0
   -0.6167    1.7279   11.4743 H   0  0  0  0  0  0
   -1.1087    3.1703   10.5234 H   0  0  0  0  0  0
    1.9821   -0.3473    9.2494 H   0  0  0  0  0  0
   -1.6051   -1.9993    8.9188 H   0  0  0  0  0  0
   -1.7914   -1.4353    5.9896 H   0  0  0  0  0  0
    0.3980   -2.6417    6.1012 H   0  0  0  0  0  0
   -0.8383   -3.6540    5.2805 H   0  0  0  0  0  0
   -0.3910   -3.9904    6.9873 H   0  0  0  0  0  0
   -3.4235   -2.5283    4.9441 H   0  0  0  0  0  0
   -5.5198   -3.4454    5.0402 H   0  0  0  0  0  0
   -6.7076   -4.3632    6.9281 H   0  0  0  0  0  0
   -5.6783   -3.1173    7.7123 H   0  0  0  0  0  0
   -6.7622   -1.5109    6.8169 H   0  0  0  0  0  0
   -8.6814   -3.0528    7.3100 H   0  0  0  0  0  0
   -8.6582   -3.5915    5.5965 H   0  0  0  0  0  0
   -9.0576   -1.8865    5.9966 H   0  0  0  0  0  0
   -5.5600   -1.7067    4.6899 H   0  0  0  0  0  0
   -7.2366   -1.1012    4.4681 H   0  0  0  0  0  0
   -6.8372   -2.8062    4.0680 H   0  0  0  0  0  0
   -6.4970   -8.0547    4.7761 H   0  0  0  0  0  0
   -4.7059   -7.9520    4.6857 H   0  0  0  0  0  0
   -5.7183   -7.0253    3.5269 H   0  0  0  0  0  0
  1  2  2  0  0  0
  2  3  1  0  0  0
  2 16  1  0  0  0
  3  4  1  0  0  0
  3 15  1  0  0  0
  3 31  1  0  0  0
  4  5  1  0  0  0
  4 14  1  0  0  0
  4 32  1  0  0  0
  5  6  2  0  0  0
  5 13  1  0  0  0
  6  7  1  0  0  0
  6 33  1  0  0  0
  7  8  2  0  0  0
  7 34  1  0  0  0
  8  9  1  0  0  0
  8 12  1  0  0  0
  9 10  1  0  0  0
  9 11  1  0  0  0
  9 35  1  0  0  0
 10 36  1  0  0  0
 10 37  1  0  0  0
 10 38  1  0  0  0
 11 39  1  0  0  0
 11 40  1  0  0  0
 11 41  1  0  0  0
 12 13  2  0  0  0
 12 42  1  0  0  0
 13 43  1  0  0  0
 14 44  1  0  0  0
 14 45  1  0  0  0
 14 46  1  0  0  0
 15 47  1  0  0  0
 16 17  1  0  0  0
 16 48  1  0  0  0
 17 18  1  0  0  0
 17 19  1  0  0  0
 17 49  1  0  0  0
 18 50  1  0  0  0
 18 51  1  0  0  0
 18 52  1  0  0  0
 19 20  2  0  0  0
 19 21  1  0  0  0
 21 22  1  0  0  0
 21 53  1  0  0  0
 22 23  1  0  0  0
 22 27  1  0  0  0
 22 54  1  0  0  0
 23 24  1  0  0  0
 23 55  1  0  0  0
 23 56  1  0  0  0
 24 25  1  0  0  0
 24 26  1  0  0  0
 24 57  1  0  0  0
 25 58  1  0  0  0
 25 59  1  0  0  0
 25 60  1  0  0  0
 26 61  1  0  0  0
 26 62  1  0  0  0
 26 63  1  0  0  0
 27 28  2  0  0  0
 27 29  1  0  0  0
 29 30  1  0  0  0
 30 64  1  0  0  0
 30 65  1  0  0  0
 30 66  1  0  0  0
M  CHG  1  14   1
M  END
> <s_m_source_file>
../2gg9_ligand.sdf

> <i_m_source_file_index>
1

> <s_epik_input>
W0NIM11bQ0hdKFtDSDNdKVtDSDJdW0NASF0oQyg9TylPW0NIM10pW05IXUMoPU8pW0NASF0oW0NIM10pW05IXUMoPU8pW0NAQEhdKFtPSF0pW0NASF0oW05IMytdKWMxW2NIXVtjSF1jKFtDSF0oW0NIM10pW0NIM10pW2NIXVtjSF0x

> <s_epik_cmdline>
J2VwaWtfYXBwJywgJy1pbWFlJywgJ2xpZ2FuZF9wcm8ubWFlJywgJy1vbWFlJywgJ2xpZ2FuZF9wcmVwLm1hZScsICctbXMnLCAnMScsICctcGgnLCAnNycsICctcGh0JywgJzAuNScsICctbnQn

> <r_epik_Ionization_Penalty>
  0.1436

> <r_epik_Ionization_Penalty_Charging>
  0.1434

> <r_epik_Ionization_Penalty_Neutral>
  0.0002

> <r_epik_State_Penalty>
  0.1327

> <r_epik_Charging_Adjusted_Penalty>
0.276160524031097

> <i_epik_Tot_Q>
1

> <i_epik_Tot_abs_Q>
1

> <s_epik_Chemistry_Notes>
This compound has an ester and may undergo hydrolysis at high or low pH.

$$$$
