2ggb_ligand
                    3D
 Schrodinger Suite 2020-3.
 56 55  0  0  1  0            999 V2000
   11.7200    0.1630   18.2710 O   0  0  0  0  0  0
   11.8330   -0.5760   17.3440 C   0  0  0  0  0  0
   11.3310    0.0510   16.0890 C   0  0  2  0  0  0
   12.1140    1.3370   15.8870 C   0  0  1  0  0  0
   13.6030    1.1350   16.1440 C   0  0  0  0  0  0
   14.6520    0.8930   15.4580 C   0  0  0  0  0  0
   15.8260    0.8810   15.1350 C   0  0  0  0  0  0
   17.0790    1.0250   15.0260 C   0  0  0  0  0  0
   11.5590    2.2330   14.8480 N   0  3  0  0  0  0
    9.9660    0.3670   16.3480 O   0  0  0  0  0  0
   12.3270   -1.8050   17.4010 N   0  0  0  0  0  0
   12.6730   -2.5020   18.6490 C   0  0  1  0  0  0
   11.5530   -3.4290   19.2040 C   0  0  0  0  0  0
   11.9070   -4.6400   19.9070 O   0  0  0  0  0  0
   13.9840   -3.1920   18.3740 C   0  0  0  0  0  0
   13.9350   -3.8170   17.3340 O   0  0  0  0  0  0
   15.0520   -3.0880   19.1930 N   0  0  0  0  0  0
   16.2600   -3.9270   19.2180 C   0  0  1  0  0  0
   17.4030   -3.0110   19.6870 C   0  0  0  0  0  0
   18.7160   -2.9570   18.8890 C   0  0  0  0  0  0
   18.9710   -1.4930   18.5410 C   0  0  0  0  0  0
   19.9340   -3.5930   19.5860 C   0  0  0  0  0  0
   16.1670   -5.1550   20.1320 C   0  0  0  0  0  0
   15.7340   -5.0330   21.2750 O   0  0  0  0  0  0
   16.5750   -6.5220   19.7510 O   0  0  0  0  0  0
   16.4580   -7.6700   20.6100 C   0  0  0  0  0  0
   11.3848   -0.6043   15.2072 H   0  0  0  0  0  0
   11.9168    2.1100   16.6443 H   0  0  0  0  0  0
   14.0202    2.0388   16.6122 H   0  0  0  0  0  0
   13.7460    0.2751   16.8150 H   0  0  0  0  0  0
   17.4330    0.4913   14.1317 H   0  0  0  0  0  0
   17.5743    0.6142   15.9182 H   0  0  0  0  0  0
   17.3185    2.0946   14.9334 H   0  0  0  0  0  0
   10.4602    2.1917   14.8771 H   0  0  0  0  0  0
   11.9120    1.9091   13.8578 H   0  0  0  0  0  0
   11.8923    3.2641   15.0369 H   0  0  0  0  0  0
    9.2382   -0.4393   16.5216 H   0  0  0  0  0  0
   12.4744   -2.3053   16.4325 H   0  0  0  0  0  0
   12.7998   -1.7493   19.4410 H   0  0  0  0  0  0
   10.9385   -2.8703   19.9253 H   0  0  0  0  0  0
   10.9197   -3.7762   18.3743 H   0  0  0  0  0  0
   11.1183   -5.2979   20.3008 H   0  0  0  0  0  0
   14.9453   -2.2561   19.9048 H   0  0  0  0  0  0
   16.3786   -4.3226   18.1985 H   0  0  0  0  0  0
   17.0548   -1.9676   19.7001 H   0  0  0  0  0  0
   17.7171   -3.3055   20.6992 H   0  0  0  0  0  0
   18.5896   -3.5682   17.9832 H   0  0  0  0  0  0
   18.0825   -1.0736   18.0463 H   0  0  0  0  0  0
   19.8352   -1.4222   17.8642 H   0  0  0  0  0  0
   19.1790   -0.9281   19.4617 H   0  0  0  0  0  0
   19.7141   -4.6449   19.8210 H   0  0  0  0  0  0
   20.1506   -3.0471   20.5161 H   0  0  0  0  0  0
   20.8068   -3.5411   18.9186 H   0  0  0  0  0  0
   16.8320   -8.5609   20.0843 H   0  0  0  0  0  0
   15.4022   -7.8198   20.8800 H   0  0  0  0  0  0
   17.0503   -7.5070   21.5225 H   0  0  0  0  0  0
  1  2  2  0  0  0
  2  3  1  0  0  0
  2 11  1  0  0  0
  3  4  1  0  0  0
  3 10  1  0  0  0
  3 27  1  0  0  0
  4  5  1  0  0  0
  4  9  1  0  0  0
  4 28  1  0  0  0
  5  6  1  0  0  0
  5 29  1  0  0  0
  5 30  1  0  0  0
  6  7  3  0  0  0
  7  8  1  0  0  0
  8 31  1  0  0  0
  8 32  1  0  0  0
  8 33  1  0  0  0
  9 34  1  0  0  0
  9 35  1  0  0  0
  9 36  1  0  0  0
 10 37  1  0  0  0
 11 12  1  0  0  0
 11 38  1  0  0  0
 12 13  1  0  0  0
 12 15  1  0  0  0
 12 39  1  0  0  0
 13 14  1  0  0  0
 13 40  1  0  0  0
 13 41  1  0  0  0
 14 42  1  0  0  0
 15 16  2  0  0  0
 15 17  1  0  0  0
 17 18  1  0  0  0
 17 43  1  0  0  0
 18 19  1  0  0  0
 18 23  1  0  0  0
 18 44  1  0  0  0
 19 20  1  0  0  0
 19 45  1  0  0  0
 19 46  1  0  0  0
 20 21  1  0  0  0
 20 22  1  0  0  0
 20 47  1  0  0  0
 21 48  1  0  0  0
 21 49  1  0  0  0
 21 50  1  0  0  0
 22 51  1  0  0  0
 22 52  1  0  0  0
 22 53  1  0  0  0
 23 24  2  0  0  0
 23 25  1  0  0  0
 25 26  1  0  0  0
 26 54  1  0  0  0
 26 55  1  0  0  0
 26 56  1  0  0  0
M  CHG  1   9   1
M  END
> <s_m_source_file>
../2ggb_ligand.sdf

> <i_m_source_file_index>
1

> <s_epik_input>
W0NIM11DI0NbQ0gyXVtDQEBIXShbTkgzK10pW0NASF0oW09IXSlDKD1PKVtOSF1bQ0BASF0oW0NIMl1bT0hdKUMoPU8pW05IXVtDQEBIXShbQ0gyXVtDSF0oW0NIM10pW0NIM10pQyg9TylPW0NIM10=

> <s_epik_cmdline>
J2VwaWtfYXBwJywgJy1pbWFlJywgJ2xpZ2FuZF9wcm8ubWFlJywgJy1vbWFlJywgJ2xpZ2FuZF9wcmVwLm1hZScsICctbXMnLCAnMScsICctcGgnLCAnNycsICctcGh0JywgJzAuNScsICctbnQn

> <r_epik_Ionization_Penalty>
  0.1372

> <r_epik_Ionization_Penalty_Charging>
  0.1368

> <r_epik_Ionization_Penalty_Neutral>
  0.0004

> <r_epik_State_Penalty>
  0.1261

> <r_epik_Charging_Adjusted_Penalty>
0.262912731784886

> <i_epik_Tot_Q>
1

> <i_epik_Tot_abs_Q>
1

> <s_epik_Chemistry_Notes>
This compound has an ester and may undergo hydrolysis at high or low pH.

$$$$
