2ggd_ligand
                    3D
 Schrodinger Suite 2020-3.
 16 15  0  0  1  0            999 V2000
 -130.2710   27.3180  126.5450 P   0  0  0  0  0  0
 -129.7830   27.9450  127.7940 O   0  5  0  0  0  0
 -129.2150   26.9300  125.6130 O   0  0  0  0  0  0
 -131.2390   26.1710  126.8280 O   0  5  0  0  0  0
 -133.5020   31.0980  127.9580 O   0  5  0  0  0  0
 -134.5540   31.9150  126.2030 O   0  0  0  0  0  0
 -131.2080   28.4840  125.6420 C   0  0  0  0  0  0
 -132.9200   30.3070  125.7970 C   0  0  0  0  0  0
 -133.7100   31.1740  126.7310 C   0  0  0  0  0  0
 -132.0020   29.3620  126.4970 N   0  3  0  0  0  0
 -130.5320   29.1171  125.0486 H   0  0  0  0  0  0
 -131.9005   27.9563  124.9697 H   0  0  0  0  0  0
 -133.6080   29.7055  125.1848 H   0  0  0  0  0  0
 -132.3041   30.9402  125.1415 H   0  0  0  0  0  0
 -132.6377   28.7539  127.1574 H   0  0  0  0  0  0
 -131.3310   29.9854  127.1063 H   0  0  0  0  0  0
  1  2  1  0  0  0
  1  3  2  0  0  0
  1  4  1  0  0  0
  1  7  1  0  0  0
  5  9  1  0  0  0
  6  9  2  0  0  0
  7 10  1  0  0  0
  7 11  1  0  0  0
  7 12  1  0  0  0
  8  9  1  0  0  0
  8 10  1  0  0  0
  8 13  1  0  0  0
  8 14  1  0  0  0
 10 15  1  0  0  0
 10 16  1  0  0  0
M  CHG  4   2  -1   4  -1   5  -1  10   1
M  END
> <s_m_source_file>
../2ggd_ligand.sdf

> <i_m_source_file_index>
1

> <s_epik_input>
W09IXVAoPU8pKFtPSF0pW0NIMl1bTkgyK11bQ0gyXUMoPU8pW09IXQ==

> <s_epik_cmdline>
J2VwaWtfYXBwJywgJy1pbWFlJywgJ2xpZ2FuZF9wcm8ubWFlJywgJy1vbWFlJywgJ2xpZ2FuZF9wcmVwLm1hZScsICctbXMnLCAnMScsICctcGgnLCAnNycsICctcGh0JywgJzAuNScsICctbnQn

> <r_lp_tautomer_probability>
1

> <r_epik_Ionization_Penalty>
  0.0859

> <r_epik_Ionization_Penalty_Charging>
  0.0859

> <r_epik_Ionization_Penalty_Neutral>
  0.0000

> <r_epik_State_Penalty>
 -0.0000

> <r_epik_Charging_Adjusted_Penalty>
0.0859451347210524

> <i_epik_Tot_Q>
-2

> <i_epik_Tot_abs_Q>
4

$$$$
