2ggu_ligand
                    3D
 Schrodinger Suite 2020-3.
 66 68  0  0  1  0            999 V2000
   23.4760   -7.2680    4.5870 C   0  0  2  0  0  0
   23.1650   -8.6380    3.9260 C   0  0  1  0  0  0
   23.7880   -9.7760    4.7400 C   0  0  2  0  0  0
   25.3390   -9.5310    4.7250 C   0  0  1  0  0  0
   25.6400   -8.1210    5.4410 C   0  0  1  0  0  0
   27.1320   -7.7310    5.4880 C   0  0  0  0  0  0
   22.8650   -6.0030    3.7810 O   0  0  0  0  0  0
   21.7310   -8.7390    3.8510 O   0  0  0  0  0  0
   23.4690  -11.0270    4.0920 O   0  0  0  0  0  0
   25.9640  -10.5560    5.4690 O   0  0  0  0  0  0
   24.9400   -7.0770    4.7150 O   0  0  0  0  0  0
   27.8630   -7.5290    4.1990 O   0  0  0  0  0  0
   27.1170  -11.2950    4.7190 C   0  0  2  0  0  0
   26.9470  -12.8310    4.9250 C   0  0  1  0  0  0
   27.0300  -13.1650    6.4550 C   0  0  2  0  0  0
   28.4080  -12.7270    6.9900 C   0  0  1  0  0  0
   28.5840  -11.1570    6.7800 C   0  0  1  0  0  0
   29.9680  -10.6760    7.2900 C   0  0  0  0  0  0
   25.6810  -13.2150    4.3830 O   0  0  0  0  0  0
   26.8740  -14.5970    6.6360 O   0  0  0  0  0  0
   28.4960  -13.0450    8.4210 O   0  0  0  0  0  0
   28.4630  -10.8620    5.3160 O   0  0  0  0  0  0
   30.2060   -9.2720    7.1300 O   0  0  0  0  0  0
   29.0870  -14.2090    8.9550 C   0  0  2  0  0  0
   28.1550  -14.7710   10.1100 C   0  0  1  0  0  0
   28.0600  -13.6920   11.2700 C   0  0  2  0  0  0
   29.5020  -13.4630   11.8140 C   0  0  1  0  0  0
   30.4230  -12.9240   10.6630 C   0  0  1  0  0  0
   31.8530  -12.7060   11.1400 C   0  0  0  0  0  0
   26.8770  -15.0360    9.5640 O   0  0  0  0  0  0
   27.2350  -14.1960   12.3110 O   0  0  0  0  0  0
   29.4730  -12.4970   12.8690 O   0  0  0  0  0  0
   30.4420  -13.9080    9.5290 O   0  0  0  0  0  0
   32.6270  -12.2230   10.0540 O   0  0  0  0  0  0
   23.0640   -7.3334    5.6048 H   0  0  0  0  0  0
   23.5335   -8.7346    2.8941 H   0  0  0  0  0  0
   23.3701   -9.8666    5.7535 H   0  0  0  0  0  0
   25.7665   -9.6268    3.7160 H   0  0  0  0  0  0
   25.2748   -8.1388    6.4785 H   0  0  0  0  0  0
   27.2450   -6.7775    6.0247 H   0  0  0  0  0  0
   27.6997   -8.5152    6.0102 H   0  0  0  0  0  0
   21.7852   -5.9497    3.5779 H   0  0  0  0  0  0
   21.1548   -7.9846    3.2952 H   0  0  0  0  0  0
   22.4218  -11.3547    4.0141 H   0  0  0  0  0  0
   28.9272   -7.2506    4.2080 H   0  0  0  0  0  0
   27.1011  -11.0440    3.6481 H   0  0  0  0  0  0
   27.6807  -13.4234    4.3586 H   0  0  0  0  0  0
   26.2205  -12.6959    7.0335 H   0  0  0  0  0  0
   29.2033  -13.3081    6.5003 H   0  0  0  0  0  0
   27.8066  -10.5891    7.3121 H   0  0  0  0  0  0
   30.0594  -10.8952    8.3641 H   0  0  0  0  0  0
   30.7637  -11.1997    6.7399 H   0  0  0  0  0  0
   25.4650  -13.0467    3.3176 H   0  0  0  0  0  0
   25.9481  -15.0947    6.3120 H   0  0  0  0  0  0
   31.1593   -8.8345    7.4614 H   0  0  0  0  0  0
   29.2096  -14.8680    8.0829 H   0  0  0  0  0  0
   28.4694  -15.7520   10.4957 H   0  0  0  0  0  0
   27.5667  -12.7539   10.9756 H   0  0  0  0  0  0
   29.8975  -14.3805   12.2742 H   0  0  0  0  0  0
   30.0337  -11.9618   10.2988 H   0  0  0  0  0  0
   31.8585  -11.9709   11.9583 H   0  0  0  0  0  0
   32.2687  -13.6587   11.5001 H   0  0  0  0  0  0
   26.7683  -15.7641    8.7466 H   0  0  0  0  0  0
   26.1762  -14.4200   12.1141 H   0  0  0  0  0  0
   28.8782  -12.6889   13.7742 H   0  0  0  0  0  0
   33.6952  -12.0018   10.1954 H   0  0  0  0  0  0
  1  2  1  0  0  0
  1  7  1  0  0  0
  1 11  1  0  0  0
  1 35  1  0  0  0
  2  3  1  0  0  0
  2  8  1  0  0  0
  2 36  1  0  0  0
  3  4  1  0  0  0
  3  9  1  0  0  0
  3 37  1  0  0  0
  4  5  1  0  0  0
  4 10  1  0  0  0
  4 38  1  0  0  0
  5  6  1  0  0  0
  5 11  1  0  0  0
  5 39  1  0  0  0
  6 12  1  0  0  0
  6 40  1  0  0  0
  6 41  1  0  0  0
  7 42  1  0  0  0
  8 43  1  0  0  0
  9 44  1  0  0  0
 10 13  1  0  0  0
 12 45  1  0  0  0
 13 14  1  0  0  0
 13 22  1  0  0  0
 13 46  1  0  0  0
 14 15  1  0  0  0
 14 19  1  0  0  0
 14 47  1  0  0  0
 15 16  1  0  0  0
 15 20  1  0  0  0
 15 48  1  0  0  0
 16 17  1  0  0  0
 16 21  1  0  0  0
 16 49  1  0  0  0
 17 18  1  0  0  0
 17 22  1  0  0  0
 17 50  1  0  0  0
 18 23  1  0  0  0
 18 51  1  0  0  0
 18 52  1  0  0  0
 19 53  1  0  0  0
 20 54  1  0  0  0
 21 24  1  0  0  0
 23 55  1  0  0  0
 24 25  1  0  0  0
 24 33  1  0  0  0
 24 56  1  0  0  0
 25 26  1  0  0  0
 25 30  1  0  0  0
 25 57  1  0  0  0
 26 27  1  0  0  0
 26 31  1  0  0  0
 26 58  1  0  0  0
 27 28  1  0  0  0
 27 32  1  0  0  0
 27 59  1  0  0  0
 28 29  1  0  0  0
 28 33  1  0  0  0
 28 60  1  0  0  0
 29 34  1  0  0  0
 29 61  1  0  0  0
 29 62  1  0  0  0
 30 63  1  0  0  0
 31 64  1  0  0  0
 32 65  1  0  0  0
 34 66  1  0  0  0
M  END
> <s_m_source_file>
../2ggu_ligand.sdf

> <i_m_source_file_index>
1

> <s_epik_input>
W09IXVtDQEhdMVtDQEhdKFtPSF0pW0NAQEhdKFtPSF0pW0NAQEhdKFtDQEhdKE8xKVtDSDJdW09IXSlPW0NAQEhdMltDQEhdKFtPSF0pW0NAQEhdKFtPSF0pW0NAQEhdKFtDQEhdKE8yKVtDSDJdW09IXSlPW0NAQEhdM1tDQEhdKFtPSF0pW0NAQEhdKFtPSF0pW0NASF0oW09IXSlbQ0BIXShPMylbQ0gyXVtPSF0=

> <s_epik_cmdline>
J2VwaWtfYXBwJywgJy1pbWFlJywgJ2xpZ2FuZF9wcm8ubWFlJywgJy1vbWFlJywgJ2xpZ2FuZF9wcmVwLm1hZScsICctbXMnLCAnMScsICctcGgnLCAnNycsICctcGh0JywgJzAuNScsICctbnQn

> <r_lp_tautomer_probability>
1

> <r_epik_Ionization_Penalty>
  0.0000

> <r_epik_Ionization_Penalty_Charging>
  0.0000

> <r_epik_Ionization_Penalty_Neutral>
  0.0000

> <r_epik_State_Penalty>
 -0.0000

> <r_epik_Charging_Adjusted_Penalty>
0

> <i_epik_Tot_Q>
0

> <i_epik_Tot_abs_Q>
0

> <s_epik_Chemistry_Notes>
This compound contains an acetal/aminal-like group ( X-CH(R)-Y where X, Y are N, S, or O) that may be acid/base labile, releasing an aldehyde.

$$$$
