2ggx_ligand
                    3D
 Schrodinger Suite 2020-3.
 57 59  0  0  1  0            999 V2000
   36.9130   53.9980    1.4270 C   0  0  1  0  0  0
   38.1000   54.6440    0.6670 C   0  0  1  0  0  0
   39.2360   53.5790    0.5300 C   0  0  2  0  0  0
   39.6890   53.1750    1.9480 C   0  0  1  0  0  0
   38.4590   52.5670    2.6910 C   0  0  1  0  0  0
   38.8710   52.1710    4.1100 C   0  0  0  0  0  0
   36.4610   52.8670    0.6530 O   0  0  0  0  0  0
   37.6500   55.0420   -0.6330 O   0  0  0  0  0  0
   40.3550   54.1430   -0.1670 O   0  0  0  0  0  0
   40.7430   52.1890    1.8420 O   0  0  0  0  0  0
   37.3720   53.5690    2.7720 O   0  0  0  0  0  0
   37.7220   51.6630    4.8010 O   0  0  0  0  0  0
   32.5130   51.6670   -0.5720 C   0  0  1  0  0  0
   32.8660   53.1590   -0.6730 C   0  0  1  0  0  0
   34.3920   53.3130   -0.6680 C   0  0  2  0  0  0
   34.9400   52.7000    0.6420 C   0  0  1  0  0  0
   34.5240   51.2090    0.6770 C   0  0  1  0  0  0
   35.0510   50.5760    1.9660 C   0  0  0  0  0  0
   32.9920   50.9400   -1.7130 O   0  0  0  0  0  0
   32.3270   53.7030   -1.8830 O   0  0  0  0  0  0
   34.7360   54.7050   -0.7490 O   0  0  0  0  0  0
   33.0700   51.0930    0.6540 O   0  0  0  0  0  0
   34.6790   49.1950    2.0080 O   0  0  0  0  0  0
   32.1040   47.2350   -3.6410 C   0  0  0  0  0  0
   31.7580   47.4590   -2.2620 C   0  0  0  0  0  0
   32.0580   48.6660   -1.6590 C   0  0  0  0  0  0
   32.7080   49.6960   -2.3900 C   0  0  0  0  0  0
   33.0620   49.5020   -3.7510 C   0  0  0  0  0  0
   32.7680   48.2900   -4.3770 C   0  0  0  0  0  0
   31.8020   46.0430   -4.2280 N   0  3  0  0  0  0
   32.0850   45.8300   -5.3970 O   0  0  0  0  0  0
   31.2400   45.1670   -3.5870 O   0  5  0  0  0  0
   36.0464   54.6614    1.5642 H   0  0  0  0  0  0
   38.4533   55.5699    1.1444 H   0  0  0  0  0  0
   38.9281   52.7140   -0.0758 H   0  0  0  0  0  0
   40.1336   54.0162    2.5001 H   0  0  0  0  0  0
   38.0612   51.6968    2.1484 H   0  0  0  0  0  0
   39.6500   51.3958    4.0627 H   0  0  0  0  0  0
   39.2630   53.0530    4.6376 H   0  0  0  0  0  0
   36.8491   55.7894   -0.7328 H   0  0  0  0  0  0
   40.2371   54.4959   -1.2022 H   0  0  0  0  0  0
   41.6894   52.4469    1.3442 H   0  0  0  0  0  0
   37.8128   51.3227    5.8431 H   0  0  0  0  0  0
   31.4233   51.5172   -0.5594 H   0  0  0  0  0  0
   32.4012   53.7411    0.1364 H   0  0  0  0  0  0
   34.8528   52.8588   -1.5576 H   0  0  0  0  0  0
   34.5456   53.2034    1.5370 H   0  0  0  0  0  0
   34.8925   50.6739   -0.2107 H   0  0  0  0  0  0
   36.1474   50.6608    1.9945 H   0  0  0  0  0  0
   34.6203   51.0976    2.8334 H   0  0  0  0  0  0
   31.2417   53.6798   -2.0609 H   0  0  0  0  0  0
   34.4234   55.2990   -1.6205 H   0  0  0  0  0  0
   34.9722   48.5723    2.8660 H   0  0  0  0  0  0
   31.2585   46.6754   -1.6922 H   0  0  0  0  0  0
   31.7937   48.8288   -0.6141 H   0  0  0  0  0  0
   33.5616   50.2968   -4.3049 H   0  0  0  0  0  0
   33.0387   48.1374   -5.4218 H   0  0  0  0  0  0
  1  2  1  0  0  0
  1  7  1  0  0  0
  1 11  1  0  0  0
  1 33  1  0  0  0
  2  3  1  0  0  0
  2  8  1  0  0  0
  2 34  1  0  0  0
  3  4  1  0  0  0
  3  9  1  0  0  0
  3 35  1  0  0  0
  4  5  1  0  0  0
  4 10  1  0  0  0
  4 36  1  0  0  0
  5  6  1  0  0  0
  5 11  1  0  0  0
  5 37  1  0  0  0
  6 12  1  0  0  0
  6 38  1  0  0  0
  6 39  1  0  0  0
  7 16  1  0  0  0
  8 40  1  0  0  0
  9 41  1  0  0  0
 10 42  1  0  0  0
 12 43  1  0  0  0
 13 14  1  0  0  0
 13 19  1  0  0  0
 13 22  1  0  0  0
 13 44  1  0  0  0
 14 15  1  0  0  0
 14 20  1  0  0  0
 14 45  1  0  0  0
 15 16  1  0  0  0
 15 21  1  0  0  0
 15 46  1  0  0  0
 16 17  1  0  0  0
 16 47  1  0  0  0
 17 18  1  0  0  0
 17 22  1  0  0  0
 17 48  1  0  0  0
 18 23  1  0  0  0
 18 49  1  0  0  0
 18 50  1  0  0  0
 19 27  1  0  0  0
 20 51  1  0  0  0
 21 52  1  0  0  0
 23 53  1  0  0  0
 24 25  2  0  0  0
 24 29  1  0  0  0
 24 30  1  0  0  0
 25 26  1  0  0  0
 25 54  1  0  0  0
 26 27  2  0  0  0
 26 55  1  0  0  0
 27 28  1  0  0  0
 28 29  2  0  0  0
 28 56  1  0  0  0
 29 57  1  0  0  0
 30 31  2  0  0  0
 30 32  1  0  0  0
M  CHG  2  30   1  32  -1
M  END
> <s_m_source_file>
../2ggx_ligand.sdf

> <i_m_source_file_index>
1

> <s_epik_input>
W09IXVtDSDJdW0NAQEhdKE8xKVtDQEBIXShbT0hdKVtDQEhdKFtPSF0pW0NAQEhdKFtPSF0pW0NASF0xT1tDQEhdKFtDQEhdKE8yKVtDSDJdW09IXSlbQ0BIXShbT0hdKVtDQEBIXShbT0hdKVtDQEhdMk9jKFtjSF1bY0hdMylbY0hdW2NIXWMzW04rXSg9TylbTy1d

> <s_epik_cmdline>
J2VwaWtfYXBwJywgJy1pbWFlJywgJ2xpZ2FuZF9wcm8ubWFlJywgJy1vbWFlJywgJ2xpZ2FuZF9wcmVwLm1hZScsICctbXMnLCAnMScsICctcGgnLCAnNycsICctcGh0JywgJzAuNScsICctbnQn

> <r_lp_tautomer_probability>
1

> <r_epik_Ionization_Penalty>
  0.0000

> <r_epik_Ionization_Penalty_Charging>
  0.0000

> <r_epik_Ionization_Penalty_Neutral>
  0.0000

> <r_epik_State_Penalty>
 -0.0000

> <r_epik_Charging_Adjusted_Penalty>
0

> <i_epik_Tot_Q>
0

> <i_epik_Tot_abs_Q>
2

> <s_epik_Chemistry_Notes>
This compound contains an acetal/aminal-like group ( X-CH(R)-Y where X, Y are N, S, or O) that may be acid/base labile, releasing an aldehyde.

$$$$
