2gh6_ligand
                    3D
 Schrodinger Suite 2020-3.
 39 39  0  0  1  0            999 V2000
  -12.5170   13.4370   45.7870 C   0  0  0  0  0  0
  -13.7240   13.7190   46.4410 C   0  0  0  0  0  0
  -14.2230   15.0270   46.4180 C   0  0  0  0  0  0
  -13.5100   16.0310   45.7400 C   0  0  0  0  0  0
  -12.3040   15.7400   45.0860 C   0  0  0  0  0  0
  -11.7830   14.4340   45.1020 C   0  0  0  0  0  0
  -10.6030   14.1650   44.4560 N   0  0  0  0  0  0
   -9.6230   13.3520   44.9270 C   0  0  0  0  0  0
   -9.6860   12.7510   45.9990 O   0  0  0  0  0  0
   -8.3460   13.1550   44.0610 C   0  0  0  0  0  0
   -8.3740   11.7850   43.3510 C   0  0  0  0  0  0
   -7.0860   10.9750   43.4520 C   0  0  0  0  0  0
   -6.8920   10.2530   42.1110 C   0  0  0  0  0  0
   -6.2070    8.8860   42.2440 C   0  0  0  0  0  0
   -6.0660    8.3650   40.8190 C   0  0  0  0  0  0
   -4.9840    7.2870   40.5680 C   0  0  0  0  0  0
   -4.0070    7.1300   41.2920 O   0  0  0  0  0  0
   -5.1270    6.4860   39.2780 C   0  0  0  0  0  0
   -6.3670    6.1790   38.9160 F   0  0  0  0  0  0
   -4.6170    7.3310   38.3960 F   0  0  0  0  0  0
   -4.3660    5.4280   39.1950 F   0  0  0  0  0  0
  -12.1316   12.4176   45.8067 H   0  0  0  0  0  0
  -14.2674   12.9301   46.9610 H   0  0  0  0  0  0
  -15.1591   15.2654   46.9230 H   0  0  0  0  0  0
  -13.8995   17.0489   45.7224 H   0  0  0  0  0  0
  -11.7673   16.5310   44.5621 H   0  0  0  0  0  0
  -10.3946   14.6231   43.4779 H   0  0  0  0  0  0
   -8.2926   13.9482   43.3008 H   0  0  0  0  0  0
   -7.4553   13.2035   44.7047 H   0  0  0  0  0  0
   -9.1701   11.1628   43.7860 H   0  0  0  0  0  0
   -8.5682   11.9318   42.2783 H   0  0  0  0  0  0
   -6.2419   11.6517   43.6510 H   0  0  0  0  0  0
   -7.1738   10.2474   44.2723 H   0  0  0  0  0  0
   -7.8717   10.0855   41.6397 H   0  0  0  0  0  0
   -6.2675   10.8708   41.4489 H   0  0  0  0  0  0
   -5.2262    9.0127   42.7256 H   0  0  0  0  0  0
   -6.8329    8.2202   42.8564 H   0  0  0  0  0  0
   -7.0153    7.9106   40.4991 H   0  0  0  0  0  0
   -5.8138    9.1986   40.1471 H   0  0  0  0  0  0
  1  2  2  0  0  0
  1  6  1  0  0  0
  1 22  1  0  0  0
  2  3  1  0  0  0
  2 23  1  0  0  0
  3  4  2  0  0  0
  3 24  1  0  0  0
  4  5  1  0  0  0
  4 25  1  0  0  0
  5  6  2  0  0  0
  5 26  1  0  0  0
  6  7  1  0  0  0
  7  8  1  0  0  0
  7 27  1  0  0  0
  8  9  2  0  0  0
  8 10  1  0  0  0
 10 11  1  0  0  0
 10 28  1  0  0  0
 10 29  1  0  0  0
 11 12  1  0  0  0
 11 30  1  0  0  0
 11 31  1  0  0  0
 12 13  1  0  0  0
 12 32  1  0  0  0
 12 33  1  0  0  0
 13 14  1  0  0  0
 13 34  1  0  0  0
 13 35  1  0  0  0
 14 15  1  0  0  0
 14 36  1  0  0  0
 14 37  1  0  0  0
 15 16  1  0  0  0
 15 38  1  0  0  0
 15 39  1  0  0  0
 16 17  2  0  0  0
 16 18  1  0  0  0
 18 19  1  0  0  0
 18 20  1  0  0  0
 18 21  1  0  0  0
M  END
> <s_m_source_file>
../2gh6_ligand.sdf

> <i_m_source_file_index>
1

> <s_epik_input>
W2NIXTFbY0hdW2NIXVtjSF1bY0hdYzFbTkhdQyg9TylbQ0gyXVtDSDJdW0NIMl1bQ0gyXVtDSDJdW0NIMl1DKD1PKUMoRikoRilG

> <s_epik_cmdline>
J2VwaWtfYXBwJywgJy1pbWFlJywgJ2xpZ2FuZF9wcm8ubWFlJywgJy1vbWFlJywgJ2xpZ2FuZF9wcmVwLm1hZScsICctbXMnLCAnMScsICctcGgnLCAnNycsICctcGh0JywgJzAuNScsICctbnQn

> <r_lp_tautomer_probability>
1

> <r_epik_Ionization_Penalty>
  0.0000

> <r_epik_Ionization_Penalty_Charging>
  0.0000

> <r_epik_Ionization_Penalty_Neutral>
  0.0000

> <r_epik_State_Penalty>
 -0.0000

> <r_epik_Charging_Adjusted_Penalty>
0

> <i_epik_Tot_Q>
0

> <i_epik_Tot_abs_Q>
0

$$$$
