2gh7_ligand
                    3D
 Schrodinger Suite 2020-3.
 31 32  0  0  1  0            999 V2000
   32.7730   18.1450   14.0450 C   0  0  0  0  0  0
   33.7030   17.4480   13.5110 O   0  0  0  0  0  0
   32.7260   19.4420   13.8670 O   0  5  0  0  0  0
   31.7670   17.4900   14.9420 C   0  0  0  0  0  0
   31.3330   16.1390   14.5830 C   0  0  0  0  0  0
   30.5220   16.1550   13.2690 C   0  0  0  0  0  0
   30.1950   14.7530   12.7960 C   0  0  0  0  0  0
   29.1750   14.6230   11.7500 C   0  0  2  0  0  0
   27.6110   15.2170   11.7390 S   0  0  0  0  0  0
   27.1720   14.6510   10.1750 C   0  0  0  0  0  0
   27.8700   13.2950   10.0980 C   0  0  2  0  0  0
   26.9820   12.2340   10.5670 N   0  0  0  0  0  0
   27.5330   11.6360   11.6670 C   0  0  0  0  0  0
   26.9870   10.6840   12.2560 O   0  0  0  0  0  0
   28.7110   12.1630   11.9770 N   0  0  0  0  0  0
   29.0700   13.2600   11.0340 C   0  0  2  0  0  0
   32.1810   17.4062   15.9577 H   0  0  0  0  0  0
   30.8498   18.0966   14.9689 H   0  0  0  0  0  0
   32.2142   15.4945   14.4481 H   0  0  0  0  0  0
   30.7003   15.7318   15.3854 H   0  0  0  0  0  0
   29.5776   16.6962   13.4276 H   0  0  0  0  0  0
   31.1056   16.6582   12.4840 H   0  0  0  0  0  0
   31.1011   14.2842   12.3846 H   0  0  0  0  0  0
   29.8262   14.1567   13.6436 H   0  0  0  0  0  0
   29.9148   15.3514   11.3864 H   0  0  0  0  0  0
   26.0771   14.5692   10.1087 H   0  0  0  0  0  0
   27.5336   15.3584    9.4142 H   0  0  0  0  0  0
   28.1433   13.1109    9.0485 H   0  0  0  0  0  0
   26.0381   12.0333   10.0390 H   0  0  0  0  0  0
   29.3961   11.8943   12.7946 H   0  0  0  0  0  0
   30.0385   13.0595   10.5524 H   0  0  0  0  0  0
  1  2  2  0  0  0
  1  3  1  0  0  0
  1  4  1  0  0  0
  4  5  1  0  0  0
  4 17  1  0  0  0
  4 18  1  0  0  0
  5  6  1  0  0  0
  5 19  1  0  0  0
  5 20  1  0  0  0
  6  7  1  0  0  0
  6 21  1  0  0  0
  6 22  1  0  0  0
  7  8  1  0  0  0
  7 23  1  0  0  0
  7 24  1  0  0  0
  8  9  1  0  0  0
  8 16  1  0  0  0
  8 25  1  0  0  0
  9 10  1  0  0  0
 10 11  1  0  0  0
 10 26  1  0  0  0
 10 27  1  0  0  0
 11 12  1  0  0  0
 11 16  1  0  0  0
 11 28  1  0  0  0
 12 13  1  0  0  0
 12 29  1  0  0  0
 13 14  2  0  0  0
 13 15  1  0  0  0
 15 16  1  0  0  0
 15 30  1  0  0  0
 16 31  1  0  0  0
M  CHG  1   3  -1
M  END
> <s_m_source_file>
../2gh7_ligand.sdf

> <i_m_source_file_index>
1

> <s_epik_input>
Tz1DKFtPSF0pW0NIMl1bQ0gyXVtDSDJdW0NIMl1bQ0BIXShTW0NIMl0xKVtDQEhdKFtDQEhdMTIpW05IXUMoPU8pW05IXTI=

> <s_epik_cmdline>
J2VwaWtfYXBwJywgJy1pbWFlJywgJ2xpZ2FuZF9wcm8ubWFlJywgJy1vbWFlJywgJ2xpZ2FuZF9wcmVwLm1hZScsICctbXMnLCAnMScsICctcGgnLCAnNycsICctcGh0JywgJzAuNScsICctbnQn

> <r_lp_tautomer_probability>
1

> <r_epik_Ionization_Penalty>
  0.0045

> <r_epik_Ionization_Penalty_Charging>
  0.0044

> <r_epik_Ionization_Penalty_Neutral>
  0.0000

> <r_epik_State_Penalty>
 -0.0000

> <r_epik_Charging_Adjusted_Penalty>
0.00443833021372702

> <i_epik_Tot_Q>
-1

> <i_epik_Tot_abs_Q>
1

$$$$
