2gh9_ligand
                    3D
 Schrodinger Suite 2020-3.
 66 68  0  0  1  0            999 V2000
   21.9180   19.4720   18.0840 C   0  0  1  0  0  0
   21.2150   18.1540   17.7640 C   0  0  1  0  0  0
   21.2260   17.2600   18.9880 C   0  0  2  0  0  0
   22.6760   17.0360   19.4450 C   0  0  1  0  0  0
   23.3740   18.3710   19.7510 C   0  0  1  0  0  0
   24.8750   18.1690   20.0360 C   0  0  0  0  0  0
   21.1070   20.2000   19.0030 O   0  0  0  0  0  0
   19.8710   18.3910   17.2900 O   0  0  0  0  0  0
   20.5720   16.0050   18.7380 O   0  0  0  0  0  0
   22.6620   16.3380   20.6780 O   0  0  0  0  0  0
   23.2210   19.2480   18.6370 O   0  0  0  0  0  0
   25.5480   19.4220   20.2650 O   0  0  0  0  0  0
   23.3230   15.0620   20.6720 C   0  0  2  0  0  0
   22.3730   14.0280   21.2470 C   0  0  1  0  0  0
   22.1350   14.3280   22.7440 C   0  0  2  0  0  0
   23.4260   14.4860   23.5320 C   0  0  1  0  0  0
   24.3540   15.4740   22.8300 C   0  0  1  0  0  0
   25.7230   15.5230   23.5190 C   0  0  0  0  0  0
   21.1210   14.0860   20.5580 O   0  0  0  0  0  0
   21.3320   13.3200   23.3190 O   0  0  0  0  0  0
   23.1320   14.9410   24.8680 O   0  0  0  0  0  0
   24.5310   15.1080   21.4420 O   0  0  0  0  0  0
   26.3730   16.7840   23.3370 O   0  0  0  0  0  0
   23.4320   13.9780   25.8730 C   0  0  2  0  0  0
   22.2720   14.0270   26.8500 C   0  0  1  0  0  0
   22.2410   15.3660   27.5690 C   0  0  2  0  0  0
   23.6020   15.6270   28.2020 C   0  0  1  0  0  0
   24.7480   15.5290   27.1840 C   0  0  1  0  0  0
   26.1420   15.6580   27.8160 C   0  0  0  0  0  0
   21.0270   13.8050   26.1610 O   0  0  0  0  0  0
   21.2270   15.3560   28.5690 O   0  0  0  0  0  0
   23.5620   16.9230   28.7980 O   0  0  0  0  0  0
   24.6880   14.2620   26.5230 O   0  0  0  0  0  0
   27.0840   16.0240   26.8010 O   0  0  0  0  0  0
   22.0807   20.0998   17.1955 H   0  0  0  0  0  0
   21.7077   17.6371   16.9273 H   0  0  0  0  0  0
   20.6143   17.7159   19.7805 H   0  0  0  0  0  0
   23.2090   16.4369   18.6921 H   0  0  0  0  0  0
   22.8860   18.8666   20.6032 H   0  0  0  0  0  0
   24.9970   17.5421   20.9316 H   0  0  0  0  0  0
   25.3484   17.6744   19.1750 H   0  0  0  0  0  0
   20.0715   20.4590   18.7372 H   0  0  0  0  0  0
   19.7031   19.0237   16.4059 H   0  0  0  0  0  0
   19.5247   15.9879   18.4021 H   0  0  0  0  0  0
   26.6264   19.4356   20.4817 H   0  0  0  0  0  0
   23.6311   14.8418   19.6392 H   0  0  0  0  0  0
   22.7661   13.0147   21.0774 H   0  0  0  0  0  0
   21.5506   15.2537   22.8519 H   0  0  0  0  0  0
   23.9239   13.5121   23.6487 H   0  0  0  0  0  0
   23.8832   16.4682   22.8277 H   0  0  0  0  0  0
   25.5962   15.3561   24.5988 H   0  0  0  0  0  0
   26.3723   14.7398   23.1007 H   0  0  0  0  0  0
   21.0802   13.8996   19.4747 H   0  0  0  0  0  0
   20.3570   13.0727   22.8737 H   0  0  0  0  0  0
   27.3650   16.9602   23.7784 H   0  0  0  0  0  0
   23.5866   12.9961   25.4018 H   0  0  0  0  0  0
   22.3611   13.2067   27.5774 H   0  0  0  0  0  0
   21.9582   16.1799   26.8852 H   0  0  0  0  0  0
   23.7976   14.9082   29.0113 H   0  0  0  0  0  0
   24.6051   16.3194   26.4324 H   0  0  0  0  0  0
   26.1201   16.4320   28.5973 H   0  0  0  0  0  0
   26.4331   14.6953   28.2616 H   0  0  0  0  0  0
   20.8744   12.8803   25.5851 H   0  0  0  0  0  0
   20.1783   15.1807   28.2871 H   0  0  0  0  0  0
   22.7963   17.1583   29.5518 H   0  0  0  0  0  0
   28.1439   16.1650   27.0594 H   0  0  0  0  0  0
  1  2  1  0  0  0
  1  7  1  0  0  0
  1 11  1  0  0  0
  1 35  1  0  0  0
  2  3  1  0  0  0
  2  8  1  0  0  0
  2 36  1  0  0  0
  3  4  1  0  0  0
  3  9  1  0  0  0
  3 37  1  0  0  0
  4  5  1  0  0  0
  4 10  1  0  0  0
  4 38  1  0  0  0
  5  6  1  0  0  0
  5 11  1  0  0  0
  5 39  1  0  0  0
  6 12  1  0  0  0
  6 40  1  0  0  0
  6 41  1  0  0  0
  7 42  1  0  0  0
  8 43  1  0  0  0
  9 44  1  0  0  0
 10 13  1  0  0  0
 12 45  1  0  0  0
 13 14  1  0  0  0
 13 22  1  0  0  0
 13 46  1  0  0  0
 14 15  1  0  0  0
 14 19  1  0  0  0
 14 47  1  0  0  0
 15 16  1  0  0  0
 15 20  1  0  0  0
 15 48  1  0  0  0
 16 17  1  0  0  0
 16 21  1  0  0  0
 16 49  1  0  0  0
 17 18  1  0  0  0
 17 22  1  0  0  0
 17 50  1  0  0  0
 18 23  1  0  0  0
 18 51  1  0  0  0
 18 52  1  0  0  0
 19 53  1  0  0  0
 20 54  1  0  0  0
 21 24  1  0  0  0
 23 55  1  0  0  0
 24 25  1  0  0  0
 24 33  1  0  0  0
 24 56  1  0  0  0
 25 26  1  0  0  0
 25 30  1  0  0  0
 25 57  1  0  0  0
 26 27  1  0  0  0
 26 31  1  0  0  0
 26 58  1  0  0  0
 27 28  1  0  0  0
 27 32  1  0  0  0
 27 59  1  0  0  0
 28 29  1  0  0  0
 28 33  1  0  0  0
 28 60  1  0  0  0
 29 34  1  0  0  0
 29 61  1  0  0  0
 29 62  1  0  0  0
 30 63  1  0  0  0
 31 64  1  0  0  0
 32 65  1  0  0  0
 34 66  1  0  0  0
M  END
> <s_m_source_file>
../2gh9_ligand.sdf

> <i_m_source_file_index>
1

> <s_epik_input>
W09IXVtDQEBIXTFbQ0BIXShbT0hdKVtDQEBIXShbT0hdKVtDQEBIXShbQ0BIXShPMSlbQ0gyXVtPSF0pT1tDQEBIXTJbQ0BIXShbT0hdKVtDQEBIXShbT0hdKVtDQEBIXShbQ0BIXShPMilbQ0gyXVtPSF0pT1tDQEBIXTNbQ0BIXShbT0hdKVtDQEBIXShbT0hdKVtDQEhdKFtPSF0pW0NASF0oTzMpW0NIMl1bT0hd

> <s_epik_cmdline>
J2VwaWtfYXBwJywgJy1pbWFlJywgJ2xpZ2FuZF9wcm8ubWFlJywgJy1vbWFlJywgJ2xpZ2FuZF9wcmVwLm1hZScsICctbXMnLCAnMScsICctcGgnLCAnNycsICctcGh0JywgJzAuNScsICctbnQn

> <r_lp_tautomer_probability>
1

> <r_epik_Ionization_Penalty>
  0.0000

> <r_epik_Ionization_Penalty_Charging>
  0.0000

> <r_epik_Ionization_Penalty_Neutral>
  0.0000

> <r_epik_State_Penalty>
 -0.0000

> <r_epik_Charging_Adjusted_Penalty>
0

> <i_epik_Tot_Q>
0

> <i_epik_Tot_abs_Q>
0

> <s_epik_Chemistry_Notes>
This compound contains an acetal/aminal-like group ( X-CH(R)-Y where X, Y are N, S, or O) that may be acid/base labile, releasing an aldehyde.

$$$$
