2ghg_ligand
                    3D
 Schrodinger Suite 2020-3.
 63 68  0  0  1  0            999 V2000
   -1.5120    8.8540  -19.4980 C   0  0  0  0  0  0
   -0.5240    7.9510  -19.4040 C   0  0  0  0  0  0
    0.6660    8.4330  -20.1190 C   0  0  0  0  0  0
    0.4120    9.6370  -20.6520 C   0  0  0  0  0  0
   -0.9730    9.9680  -20.2880 N   0  0  0  0  0  0
   -2.8710    8.7330  -18.9380 C   0  0  0  0  0  0
   -4.0650    9.6030  -19.2120 C   0  0  3  0  0  0
   -4.2370   10.8150  -20.0870 C   0  0  0  0  0  0
   -5.4970   11.2360  -19.9790 N   0  0  0  0  0  0
   -6.2450   10.4450  -19.0990 C   0  0  0  0  0  0
   -5.3760    9.3890  -18.5870 C   0  0  0  0  0  0
   -3.3670   11.3160  -20.7840 O   0  0  0  0  0  0
   -7.6270   10.4360  -18.6100 C   0  0  0  0  0  0
   -8.1090    9.4740  -17.6950 C   0  0  0  0  0  0
   -7.2810    8.4480  -17.1950 C   0  0  0  0  0  0
   -5.9370    8.4230  -17.6440 C   0  0  0  0  0  0
   -7.8010    7.4050  -16.2130 C   0  0  0  0  0  0
   -9.1680    7.2990  -15.8500 C   0  0  0  0  0  0
   -9.6210    6.3530  -14.9690 N   0  0  0  0  0  0
   -8.7520    5.4710  -14.4030 C   0  0  0  0  0  0
   -7.3730    5.4890  -14.6950 C   0  0  0  0  0  0
   -6.9190    6.4760  -15.6100 C   0  0  0  0  0  0
   -6.5510    4.5370  -14.0640 O   0  0  0  0  0  0
   -5.8870    3.5940  -14.9070 C   0  0  0  0  0  0
   -6.6830    2.2860  -14.9220 C   0  0  2  0  0  0
   -5.7890    1.0860  -15.2840 C   0  0  0  0  0  0
   -7.7910    2.4220  -15.8700 N   0  3  0  0  0  0
   -5.6500    0.1630  -14.0850 C   0  0  0  0  0  0
   -6.7010   -0.4440  -13.3830 C   0  0  0  0  0  0
   -6.2030   -1.2000  -12.3760 N   0  3  0  0  0  0
   -4.8170   -1.1340  -12.3590 C   0  0  0  0  0  0
   -4.4260   -0.2710  -13.4460 C   0  0  0  0  0  0
   -3.8460   -1.7180  -11.5450 C   0  0  0  0  0  0
   -2.4660   -1.4600  -11.7800 C   0  0  0  0  0  0
   -2.0750   -0.6060  -12.8510 C   0  0  0  0  0  0
   -3.0700   -0.0110  -13.6790 C   0  0  0  0  0  0
   -0.6849    7.0155  -18.8481 H   0  0  0  0  0  0
    1.6100    7.8946  -20.2031 H   0  0  0  0  0  0
    1.0063   10.3416  -21.2523 H   0  0  0  0  0  0
   -3.2927    7.7534  -19.2074 H   0  0  0  0  0  0
   -2.8257    8.8240  -17.8427 H   0  0  0  0  0  0
   -3.7860   10.2516  -18.3685 H   0  0  0  0  0  0
   -5.8344   12.1138  -20.5497 H   0  0  0  0  0  0
   -8.3120   11.2047  -18.9679 H   0  0  0  0  0  0
   -9.1472    9.5260  -17.3671 H   0  0  0  0  0  0
   -5.2835    7.6377  -17.2641 H   0  0  0  0  0  0
   -9.8835    7.9951  -16.2877 H   0  0  0  0  0  0
   -9.1342    4.7283  -13.7027 H   0  0  0  0  0  0
   -5.8580    6.5196  -15.8557 H   0  0  0  0  0  0
   -5.8206    3.9980  -15.9280 H   0  0  0  0  0  0
   -4.8744    3.4060  -14.5205 H   0  0  0  0  0  0
   -7.1274    2.0997  -13.9332 H   0  0  0  0  0  0
   -6.2414    0.5303  -16.1186 H   0  0  0  0  0  0
   -4.7932    1.4470  -15.5809 H   0  0  0  0  0  0
   -8.4115    3.2852  -15.5874 H   0  0  0  0  0  0
   -8.4035    1.5085  -15.8516 H   0  0  0  0  0  0
   -7.3902    2.5745  -16.8830 H   0  0  0  0  0  0
   -7.7424   -0.2652  -13.6890 H   0  0  0  0  0  0
   -4.1449   -2.3735  -10.7270 H   0  0  0  0  0  0
   -1.7093   -1.9154  -11.1412 H   0  0  0  0  0  0
   -1.0191   -0.4086  -13.0362 H   0  0  0  0  0  0
   -2.7751    0.6480  -14.4956 H   0  0  0  0  0  0
   -6.8855   -1.7541  -11.7148 H   0  0  0  0  0  0
  1  2  2  0  0  0
  1  5  1  0  0  0
  1  6  1  0  0  0
  2  3  1  0  0  0
  2 37  1  0  0  0
  3  4  1  0  0  0
  3 38  1  0  0  0
  4  5  2  0  0  0
  4 39  1  0  0  0
  6  7  1  0  0  0
  6 40  1  0  0  0
  6 41  1  0  0  0
  7  8  1  0  0  0
  7 11  1  0  0  0
  7 42  1  0  0  0
  8  9  1  0  0  0
  8 12  2  0  0  0
  9 10  1  0  0  0
  9 43  1  0  0  0
 10 11  2  0  0  0
 10 13  1  0  0  0
 11 16  1  0  0  0
 13 14  2  0  0  0
 13 44  1  0  0  0
 14 15  1  0  0  0
 14 45  1  0  0  0
 15 16  2  0  0  0
 15 17  1  0  0  0
 16 46  1  0  0  0
 17 18  2  0  0  0
 17 22  1  0  0  0
 18 19  1  0  0  0
 18 47  1  0  0  0
 19 20  2  0  0  0
 20 21  1  0  0  0
 20 48  1  0  0  0
 21 22  2  0  0  0
 21 23  1  0  0  0
 22 49  1  0  0  0
 23 24  1  0  0  0
 24 25  1  0  0  0
 24 50  1  0  0  0
 24 51  1  0  0  0
 25 26  1  0  0  0
 25 27  1  0  0  0
 25 52  1  0  0  0
 26 28  1  0  0  0
 26 53  1  0  0  0
 26 54  1  0  0  0
 27 55  1  0  0  0
 27 56  1  0  0  0
 27 57  1  0  0  0
 28 29  2  0  0  0
 28 32  1  0  0  0
 29 30  1  0  0  0
 29 58  1  0  0  0
 30 31  1  0  0  0
 30 63  1  0  0  0
 31 32  2  0  0  0
 31 33  1  0  0  0
 32 36  1  0  0  0
 33 34  2  0  0  0
 33 59  1  0  0  0
 34 35  1  0  0  0
 34 60  1  0  0  0
 35 36  2  0  0  0
 35 61  1  0  0  0
 36 62  1  0  0  0
M  CHG  2  27   1  30   1
M  END
> <s_m_source_file>
../2ghg_ligand.sdf

> <i_m_source_file_index>
1

> <s_epik_input>
TjE9W0NIXVtDSDJdW0NIXT1DMVtDSDJdW0NIXShDKD1PKVtOSF0yKWMoYzIzKVtjSF1jKFtjSF1bY0hdMyktYzRbY0hdbltjSF1jKFtjSF00KU9bQ0gyXVtDQEBIXShbTkgzK10pW0NIMl1jKFtjSF1bbkhdNSljKGM1NilbY0hdW2NIXVtjSF1bY0hdNg==

> <s_epik_cmdline>
J2VwaWtfYXBwJywgJy1pbWFlJywgJ2xpZ2FuZF9wcm8ubWFlJywgJy1vbWFlJywgJ2xpZ2FuZF9wcmVwLm1hZScsICctbXMnLCAnMScsICctcGgnLCAnNycsICctcGh0JywgJzAuNScsICctbnQn

> <r_epik_Ionization_Penalty>
  0.0161

> <r_epik_Ionization_Penalty_Charging>
  0.0151

> <r_epik_Ionization_Penalty_Neutral>
  0.0009

> <r_epik_State_Penalty>
  0.0119

> <r_epik_Charging_Adjusted_Penalty>
0.0270030632776238

> <i_epik_Tot_Q>
2

> <i_epik_Tot_abs_Q>
2

> <s_epik_Chemistry_Notes>
This compound has an imine and may undergo hydrolysis.

$$$$
