2giu_ligand
                    3D
 Schrodinger Suite 2020-3.
 39 41  0  0  1  0            999 V2000
   22.9210    9.0370  115.3330 C   0  0  2  0  0  0
   22.4450    8.0850  116.4500 C   0  0  0  0  0  0
   20.9070    8.1950  116.5030 C   0  0  0  0  0  0
   20.3470    7.7940  115.1540 C   0  0  0  0  0  0
   19.2410    7.3180  115.1040 O   0  0  0  0  0  0
   21.1430    8.0220  113.9260 C   0  0  0  0  0  0
   20.4090    7.1960  112.5220 Br  0  0  0  0  0  0
   22.3490    8.6250  113.9990 C   0  0  0  0  0  0
   23.4070    8.7370  112.9720 C   0  0  0  0  0  0
   23.3580    8.6780  111.5750 C   0  0  0  0  0  0
   24.5470    8.8530  110.8570 C   0  0  0  0  0  0
   25.7740    9.0260  111.5250 C   0  0  0  0  0  0
   26.9270    9.1090  110.8390 O   0  0  0  0  0  0
   25.8120    9.0600  112.9240 C   0  0  0  0  0  0
   24.6150    8.9510  113.6350 C   0  0  0  0  0  0
   24.4460    9.0220  115.1340 C   0  0  0  0  0  0
   22.4130   10.4820  115.5210 C   0  0  0  0  0  0
   23.1370   11.2900  116.6040 C   0  0  0  0  0  0
   22.2290   12.2960  117.3190 C   0  0  0  0  0  0
   23.0160   12.8190  118.5400 C   0  0  0  0  0  0
   22.7553    7.0568  116.2123 H   0  0  0  0  0  0
   22.8919    8.3907  117.4075 H   0  0  0  0  0  0
   20.5182    7.5250  117.2840 H   0  0  0  0  0  0
   20.6213    9.2319  116.7338 H   0  0  0  0  0  0
   22.4154    8.4998  111.0574 H   0  0  0  0  0  0
   24.5224    8.8553  109.7673 H   0  0  0  0  0  0
   26.9158    9.0839  109.7393 H   0  0  0  0  0  0
   26.7605    9.1698  113.4498 H   0  0  0  0  0  0
   24.8801    9.9394  115.5581 H   0  0  0  0  0  0
   24.8735    8.1452  115.6423 H   0  0  0  0  0  0
   22.5343   11.0386  114.5800 H   0  0  0  0  0  0
   21.3495   10.4632  115.8014 H   0  0  0  0  0  0
   23.5373   10.6053  117.3662 H   0  0  0  0  0  0
   23.9635   11.8554  116.1487 H   0  0  0  0  0  0
   21.9816   13.1191  116.6325 H   0  0  0  0  0  0
   21.3038   11.7933  117.6372 H   0  0  0  0  0  0
   22.4010   13.5483  119.0876 H   0  0  0  0  0  0
   23.9427   13.3035  118.1988 H   0  0  0  0  0  0
   23.2650   11.9777  119.2035 H   0  0  0  0  0  0
  1  2  1  0  0  0
  1  8  1  0  0  0
  1 16  1  0  0  0
  1 17  1  0  0  0
  2  3  1  0  0  0
  2 21  1  0  0  0
  2 22  1  0  0  0
  3  4  1  0  0  0
  3 23  1  0  0  0
  3 24  1  0  0  0
  4  5  2  0  0  0
  4  6  1  0  0  0
  6  7  1  0  0  0
  6  8  2  0  0  0
  8  9  1  0  0  0
  9 10  2  0  0  0
  9 15  1  0  0  0
 10 11  1  0  0  0
 10 25  1  0  0  0
 11 12  2  0  0  0
 11 26  1  0  0  0
 12 13  1  0  0  0
 12 14  1  0  0  0
 13 27  1  0  0  0
 14 15  2  0  0  0
 14 28  1  0  0  0
 15 16  1  0  0  0
 16 29  1  0  0  0
 16 30  1  0  0  0
 17 18  1  0  0  0
 17 31  1  0  0  0
 17 32  1  0  0  0
 18 19  1  0  0  0
 18 33  1  0  0  0
 18 34  1  0  0  0
 19 20  1  0  0  0
 19 35  1  0  0  0
 19 36  1  0  0  0
 20 37  1  0  0  0
 20 38  1  0  0  0
 20 39  1  0  0  0
M  END
> <s_m_source_file>
../2giu_ligand.sdf

> <i_m_source_file_index>
1

> <s_epik_input>
W0NIM11bQ0gyXVtDSDJdW0NIMl1bQ0BdMTJDKD1DKEJyKUMoPU8pW0NIMl1bQ0gyXTEpYzNjKFtDSDJdMilbY0hdYyhbT0hdKVtjSF1bY0hdMw==

> <s_epik_cmdline>
J2VwaWtfYXBwJywgJy1pbWFlJywgJ2xpZ2FuZF9wcm8ubWFlJywgJy1vbWFlJywgJ2xpZ2FuZF9wcmVwLm1hZScsICctbXMnLCAnMScsICctcGgnLCAnNycsICctcGh0JywgJzAuNScsICctbnQn

> <r_lp_tautomer_probability>
1

> <r_epik_Ionization_Penalty>
  0.0007

> <r_epik_Ionization_Penalty_Charging>
  0.0000

> <r_epik_Ionization_Penalty_Neutral>
  0.0007

> <r_epik_State_Penalty>
 -0.0000

> <r_epik_Charging_Adjusted_Penalty>
0

> <i_epik_Tot_Q>
0

> <i_epik_Tot_abs_Q>
0

$$$$
