2gj5_ligand
                    3D
 Schrodinger Suite 2020-3.
 76 78  0  0  1  0            999 V2000
   -0.3760    0.1720   24.5870 O   0  0  0  0  0  0
    0.7100    1.3280   21.4030 C   0  0  0  0  0  0
    0.4350    1.6960   22.8140 C   0  0  0  0  0  0
   -0.8320    1.0150   23.5110 C   0  0  1  0  0  0
   -1.6350    0.1660   22.4900 C   0  0  0  0  0  0
   -1.8270    0.8320   21.0410 C   0  0  1  0  0  0
   -3.0170    0.7230   20.3760 C   0  0  0  0  0  0
   -4.4060    1.3320   20.3160 C   0  0  0  0  0  0
   -4.6770    2.6370   19.8890 C   0  0  2  0  0  0
   -4.6590    2.1750   18.3350 C   0  0  0  0  0  0
   -0.5570    1.5740   20.5560 C   0  0  0  0  0  0
   -4.3550    3.2200   17.3230 C   0  0  0  0  0  0
   -4.6900    4.7220   17.6710 C   0  0  0  0  0  0
   -4.3770    5.1520   19.1110 C   0  0  1  0  0  0
   -3.7620    3.9740   19.9600 C   0  0  1  0  0  0
   -3.5680    4.7120   21.3800 C   0  0  0  0  0  0
   -3.2280    6.2690   21.0100 C   0  0  0  0  0  0
   -3.2090    6.2670   19.4350 C   0  0  2  0  0  0
   -5.8170    5.6360   19.6230 C   0  0  0  0  0  0
   -0.5150    2.3310   19.5340 C   0  0  0  0  0  0
   -3.5620    7.7220   18.7240 C   0  0  2  0  0  0
   -2.8980    7.7440   17.3660 C   0  0  0  0  0  0
   -3.0400    9.0810   19.3210 C   0  0  0  0  0  0
   -4.1810   10.2680   18.9580 C   0  0  0  0  0  0
   -3.2030   11.4000   18.5670 C   0  0  0  0  0  0
   -3.4180   12.8640   19.0180 C   0  0  0  0  0  0
   -2.1790   12.8600   19.7030 C   0  0  0  0  0  0
   -3.0820   14.1050   18.3630 C   0  0  0  0  0  0
    0.2141    0.6015   25.4100 H   0  0  0  0  0  0
    1.5360    1.9438   21.0178 H   0  0  0  0  0  0
    0.9888    0.2653   21.3489 H   0  0  0  0  0  0
    1.2976    1.4220   23.4392 H   0  0  0  0  0  0
    0.2617    2.7801   22.8831 H   0  0  0  0  0  0
   -1.5021    1.7514   23.9786 H   0  0  0  0  0  0
   -1.1216   -0.7930   22.3264 H   0  0  0  0  0  0
   -2.6452   -0.0213   22.8829 H   0  0  0  0  0  0
   -1.4773   -0.0973   20.5675 H   0  0  0  0  0  0
   -2.8547    0.9003   19.3026 H   0  0  0  0  0  0
   -3.4279   -0.2867   20.5228 H   0  0  0  0  0  0
   -5.0366    0.7406   19.6359 H   0  0  0  0  0  0
   -4.8506    1.3309   21.3221 H   0  0  0  0  0  0
   -5.4757    2.9222   20.5895 H   0  0  0  0  0  0
   -3.8958    1.3957   18.1930 H   0  0  0  0  0  0
   -5.6463    1.7758   18.0597 H   0  0  0  0  0  0
   -3.2771    3.2154   17.1036 H   0  0  0  0  0  0
   -4.9177    3.0123   16.4010 H   0  0  0  0  0  0
   -4.1104    5.3883   17.0152 H   0  0  0  0  0  0
   -5.7645    4.9026   17.5198 H   0  0  0  0  0  0
   -2.8074    3.5603   19.6027 H   0  0  0  0  0  0
   -4.4950    4.6286   21.9662 H   0  0  0  0  0  0
   -2.7422    4.2372   21.9302 H   0  0  0  0  0  0
   -4.0110    6.9230   21.4213 H   0  0  0  0  0  0
   -2.2551    6.5448   21.4430 H   0  0  0  0  0  0
   -2.1930    6.0414   19.0788 H   0  0  0  0  0  0
   -6.5672    4.8664   19.3887 H   0  0  0  0  0  0
   -6.0875    6.5766   19.1210 H   0  0  0  0  0  0
   -5.7843    5.7971   20.7107 H   0  0  0  0  0  0
    0.4273    2.8241   19.2531 H   0  0  0  0  0  0
   -1.4210    2.4923   18.9314 H   0  0  0  0  0  0
   -4.6602    7.7748   18.7597 H   0  0  0  0  0  0
   -3.1715    6.8355   16.8094 H   0  0  0  0  0  0
   -1.8059    7.7818   17.4924 H   0  0  0  0  0  0
   -3.2335    8.6307   16.8082 H   0  0  0  0  0  0
   -2.9226    8.9819   20.4102 H   0  0  0  0  0  0
   -2.0689    9.3312   18.8689 H   0  0  0  0  0  0
   -4.8293    9.9161   18.1420 H   0  0  0  0  0  0
   -4.7923   10.4738   19.8491 H   0  0  0  0  0  0
   -2.2004   11.1690   18.9561 H   0  0  0  0  0  0
   -3.1603   11.4855   17.4712 H   0  0  0  0  0  0
   -4.4807   12.9988   19.2679 H   0  0  0  0  0  0
   -2.1163   11.9669   20.3421 H   0  0  0  0  0  0
   -2.1017   13.7631   20.3263 H   0  0  0  0  0  0
   -1.3564   12.8469   18.9728 H   0  0  0  0  0  0
   -3.9088   14.4070   17.7033 H   0  0  0  0  0  0
   -2.1679   13.9689   17.7665 H   0  0  0  0  0  0
   -2.9132   14.8851   19.1199 H   0  0  0  0  0  0
  1  4  1  0  0  0
  1 29  1  0  0  0
  2  3  1  0  0  0
  2 11  1  0  0  0
  2 30  1  0  0  0
  2 31  1  0  0  0
  3  4  1  0  0  0
  3 32  1  0  0  0
  3 33  1  0  0  0
  4  5  1  0  0  0
  4 34  1  0  0  0
  5  6  1  0  0  0
  5 35  1  0  0  0
  5 36  1  0  0  0
  6  7  1  0  0  0
  6 11  1  0  0  0
  6 37  1  0  0  0
  7  8  1  0  0  0
  7 38  1  0  0  0
  7 39  1  0  0  0
  8  9  1  0  0  0
  8 40  1  0  0  0
  8 41  1  0  0  0
  9 10  1  0  0  0
  9 15  1  0  0  0
  9 42  1  0  0  0
 10 12  1  0  0  0
 10 43  1  0  0  0
 10 44  1  0  0  0
 11 20  2  0  0  0
 12 13  1  0  0  0
 12 45  1  0  0  0
 12 46  1  0  0  0
 13 14  1  0  0  0
 13 47  1  0  0  0
 13 48  1  0  0  0
 14 15  1  0  0  0
 14 18  1  0  0  0
 14 19  1  0  0  0
 15 16  1  0  0  0
 15 49  1  0  0  0
 16 17  1  0  0  0
 16 50  1  0  0  0
 16 51  1  0  0  0
 17 18  1  0  0  0
 17 52  1  0  0  0
 17 53  1  0  0  0
 18 21  1  0  0  0
 18 54  1  0  0  0
 19 55  1  0  0  0
 19 56  1  0  0  0
 19 57  1  0  0  0
 20 58  1  0  0  0
 20 59  1  0  0  0
 21 22  1  0  0  0
 21 23  1  0  0  0
 21 60  1  0  0  0
 22 61  1  0  0  0
 22 62  1  0  0  0
 22 63  1  0  0  0
 23 24  1  0  0  0
 23 64  1  0  0  0
 23 65  1  0  0  0
 24 25  1  0  0  0
 24 66  1  0  0  0
 24 67  1  0  0  0
 25 26  1  0  0  0
 25 68  1  0  0  0
 25 69  1  0  0  0
 26 27  1  0  0  0
 26 28  1  0  0  0
 26 70  1  0  0  0
 27 71  1  0  0  0
 27 72  1  0  0  0
 27 73  1  0  0  0
 28 74  1  0  0  0
 28 75  1  0  0  0
 28 76  1  0  0  0
M  END
> <s_m_source_file>
../2gj5_ligand.sdf

> <i_m_source_file_index>
1

> <s_epik_input>
W09IXVtDQEhdMVtDSDJdW0NIMl1DKD1bQ0gyXSlbQ0hdKFtDSDJdMSlbQ0gyXVtDSDJdW0NASF0oW0NIMl1bQ0gyXVtDSDJdMilbQ0BASF0oW0NAXTIzW0NIM10pW0NIMl1bQ0gyXVtDQEBIXTNbQ0BIXShbQ0gzXSlbQ0gyXVtDSDJdW0NIMl1bQ0hdKFtDSDNdKVtDSDNd

> <s_epik_cmdline>
J2VwaWtfYXBwJywgJy1pbWFlJywgJ2xpZ2FuZF9wcm8ubWFlJywgJy1vbWFlJywgJ2xpZ2FuZF9wcmVwLm1hZScsICctbXMnLCAnMScsICctcGgnLCAnNycsICctcGh0JywgJzAuNScsICctbnQn

> <r_lp_tautomer_probability>
1

> <r_epik_Ionization_Penalty>
  0.0000

> <r_epik_Ionization_Penalty_Charging>
  0.0000

> <r_epik_Ionization_Penalty_Neutral>
  0.0000

> <r_epik_State_Penalty>
 -0.0000

> <r_epik_Charging_Adjusted_Penalty>
0

> <i_epik_Tot_Q>
0

> <i_epik_Tot_abs_Q>
0

$$$$
