2gl0_ligand
                    3D
 Schrodinger Suite 2020-3.
 32 34  0  0  1  0            999 V2000
   18.6640   18.0410   12.2420 O   0  0  0  0  0  0
   18.0650   19.2950   11.9860 C   0  0  0  0  0  0
   17.1780   18.8790   10.8360 C   0  0  1  0  0  0
   15.9370   18.4640   11.3880 O   0  0  0  0  0  0
   16.8200   20.0210    9.9220 C   0  0  1  0  0  0
   17.6380   19.8210    8.8030 O   0  0  0  0  0  0
   15.3300   19.8540    9.6280 C   0  0  1  0  0  0
   15.0560   18.7430    8.8310 O   0  0  0  0  0  0
   14.8340   19.1950   10.8240 C   0  0  2  0  0  0
   14.3520   20.2020   11.7710 N   0  0  0  0  0  0
   15.0600   21.1970   12.3440 C   0  0  0  0  0  0
   14.2660   21.9180   13.1750 N   0  0  0  0  0  0
   13.0370   21.3850   13.1270 C   0  0  0  0  0  0
   11.7380   21.6960   13.7580 C   0  0  0  0  0  0
   11.5950   22.7330   14.6620 N   0  0  0  0  0  0
   10.7150   20.8500   13.3990 N   0  0  0  0  0  0
   10.8640   19.8180   12.5150 C   0  0  0  0  0  0
   11.9900   19.4770   11.9120 N   0  0  0  0  0  0
   13.0870   20.2290   12.2010 C   0  0  0  0  0  0
   19.4041   17.9396   13.0494 H   0  0  0  0  0  0
   17.5273   19.6346   12.8836 H   0  0  0  0  0  0
   18.8437   20.0272   11.7262 H   0  0  0  0  0  0
   17.6800   18.0732   10.2804 H   0  0  0  0  0  0
   17.0332   21.0456   10.2608 H   0  0  0  0  0  0
   18.7300   19.9155    8.8960 H   0  0  0  0  0  0
   14.9107   20.7875    9.2244 H   0  0  0  0  0  0
   15.2813   18.7692    7.7546 H   0  0  0  0  0  0
   14.0096   18.5049   10.5915 H   0  0  0  0  0  0
   16.1172   21.3934   12.1652 H   0  0  0  0  0  0
   12.4557   23.3734   14.9051 H   0  0  0  0  0  0
   10.6206   22.9173   15.1379 H   0  0  0  0  0  0
    9.9780   19.2251   12.2877 H   0  0  0  0  0  0
  1  2  1  0  0  0
  1 20  1  0  0  0
  2  3  1  0  0  0
  2 21  1  0  0  0
  2 22  1  0  0  0
  3  4  1  0  0  0
  3  5  1  0  0  0
  3 23  1  0  0  0
  4  9  1  0  0  0
  5  6  1  0  0  0
  5  7  1  0  0  0
  5 24  1  0  0  0
  6 25  1  0  0  0
  7  8  1  0  0  0
  7  9  1  0  0  0
  7 26  1  0  0  0
  8 27  1  0  0  0
  9 10  1  0  0  0
  9 28  1  0  0  0
 10 11  1  0  0  0
 10 19  1  0  0  0
 11 12  2  0  0  0
 11 29  1  0  0  0
 12 13  1  0  0  0
 13 14  2  0  0  0
 13 19  1  0  0  0
 14 15  1  0  0  0
 14 16  1  0  0  0
 15 30  1  0  0  0
 15 31  1  0  0  0
 16 17  2  0  0  0
 17 18  1  0  0  0
 17 32  1  0  0  0
 18 19  2  0  0  0
M  END
> <s_m_source_file>
../2gl0_ligand.sdf

> <i_m_source_file_index>
1

> <s_epik_input>
W09IXVtDSDJdW0NASF0xT1tDQEhdKFtDQEhdKFtPSF0pW0NAQEhdMVtPSF0pbihbY0hdbjIpYyhjMjMpbltjSF1uYzNbTkgyXQ==

> <s_epik_cmdline>
J2VwaWtfYXBwJywgJy1pbWFlJywgJ2xpZ2FuZF9wcm8ubWFlJywgJy1vbWFlJywgJ2xpZ2FuZF9wcmVwLm1hZScsICctbXMnLCAnMScsICctcGgnLCAnNycsICctcGh0JywgJzAuNScsICctbnQn

> <r_lp_tautomer_probability>
1

> <r_epik_Ionization_Penalty>
  0.0004

> <r_epik_Ionization_Penalty_Charging>
  0.0000

> <r_epik_Ionization_Penalty_Neutral>
  0.0004

> <r_epik_State_Penalty>
 -0.0000

> <r_epik_Charging_Adjusted_Penalty>
0

> <i_epik_Tot_Q>
0

> <i_epik_Tot_abs_Q>
0

> <s_epik_Chemistry_Notes>
This compound contains an acetal/aminal-like group ( X-CH(R)-Y where X, Y are N, S, or O) that may be acid/base labile, releasing an aldehyde.

$$$$
