2glm_ligand
                    3D
 Schrodinger Suite 2020-3.
 51 54  0  0  1  0            999 V2000
  -88.3550   62.6110  193.3390 C   0  0  0  0  0  0
  -88.8490   63.7380  194.0550 O   0  0  0  0  0  0
  -87.9920   64.0750  195.1610 C   0  0  0  0  0  0
  -88.7820   63.9070  196.4560 C   0  0  0  0  0  0
  -88.9920   65.1890  197.1420 N   0  0  0  0  0  0
  -88.0240   66.1120  197.2430 C   0  0  0  0  0  0
  -86.9160   65.9490  196.7610 O   0  0  0  0  0  0
  -88.3860   67.2620  197.9270 C   0  0  0  0  0  0
  -87.5820   68.3760  198.1730 C   0  0  0  0  0  0
  -86.1840   68.3570  198.0910 C   0  0  0  0  0  0
  -85.4510   67.6550  197.2290 C   0  0  0  0  0  0
  -84.1640   67.9120  197.4590 C   0  0  0  0  0  0
  -84.0990   68.7900  198.4550 C   0  0  0  0  0  0
  -85.3580   69.0880  198.8830 O   0  0  0  0  0  0
  -82.9880   69.3370  199.0730 C   0  0  0  0  0  0
  -83.1980   70.2470  200.0970 C   0  0  0  0  0  0
  -82.1220   70.8010  200.7660 C   0  0  0  0  0  0
  -80.8370   70.4330  200.4050 C   0  0  0  0  0  0
  -79.4710   71.1180  201.2120 Cl  0  0  0  0  0  0
  -80.6220   69.5190  199.3840 C   0  0  0  0  0  0
  -81.7010   68.9550  198.7150 C   0  0  0  0  0  0
  -79.1740   69.1610  199.0590 C   0  0  0  0  0  0
  -78.9430   68.2910  198.2050 O   0  0  0  0  0  0
  -78.2920   69.7510  199.7100 O   0  5  0  0  0  0
  -90.0010   67.0520  198.3990 S   0  0  0  0  0  0
  -90.1560   65.5210  197.7140 C   0  0  0  0  0  0
  -91.2340   64.7440  197.7350 N   0  0  0  0  0  0
  -92.4780   65.1990  197.8960 C   0  0  0  0  0  0
  -92.7380   66.5420  198.0870 C   0  0  0  0  0  0
  -94.0440   66.9840  198.2490 C   0  0  0  0  0  0
  -95.0970   66.0890  198.2170 C   0  0  0  0  0  0
  -94.8420   64.7440  198.0280 C   0  0  0  0  0  0
  -93.5390   64.3050  197.8740 C   0  0  0  0  0  0
  -89.0324   62.3820  192.5031 H   0  0  0  0  0  0
  -88.2988   61.7439  194.0136 H   0  0  0  0  0  0
  -87.3522   62.8364  192.9472 H   0  0  0  0  0  0
  -87.1186   63.4063  195.1651 H   0  0  0  0  0  0
  -87.6553   65.1173  195.0597 H   0  0  0  0  0  0
  -89.7670   63.4723  196.2308 H   0  0  0  0  0  0
  -88.2333   63.2390  197.1362 H   0  0  0  0  0  0
  -88.0422   69.3363  198.4486 H   0  0  0  0  0  0
  -85.8388   66.9828  196.4636 H   0  0  0  0  0  0
  -83.3168   67.4800  196.9263 H   0  0  0  0  0  0
  -84.2139   70.5267  200.3758 H   0  0  0  0  0  0
  -82.2838   71.5199  201.5692 H   0  0  0  0  0  0
  -81.5405   68.2246  197.9220 H   0  0  0  0  0  0
  -91.9155   67.2568  198.1106 H   0  0  0  0  0  0
  -94.2406   68.0451  198.4026 H   0  0  0  0  0  0
  -96.1210   66.4416  198.3400 H   0  0  0  0  0  0
  -95.6656   64.0306  198.0003 H   0  0  0  0  0  0
  -93.3432   63.2420  197.7334 H   0  0  0  0  0  0
  1  2  1  0  0  0
  1 34  1  0  0  0
  1 35  1  0  0  0
  1 36  1  0  0  0
  2  3  1  0  0  0
  3  4  1  0  0  0
  3 37  1  0  0  0
  3 38  1  0  0  0
  4  5  1  0  0  0
  4 39  1  0  0  0
  4 40  1  0  0  0
  5  6  1  0  0  0
  5 26  1  0  0  0
  6  7  2  0  0  0
  6  8  1  0  0  0
  8  9  2  0  0  0
  8 25  1  0  0  0
  9 10  1  0  0  0
  9 41  1  0  0  0
 10 11  2  0  0  0
 10 14  1  0  0  0
 11 12  1  0  0  0
 11 42  1  0  0  0
 12 13  2  0  0  0
 12 43  1  0  0  0
 13 14  1  0  0  0
 13 15  1  0  0  0
 15 16  2  0  0  0
 15 21  1  0  0  0
 16 17  1  0  0  0
 16 44  1  0  0  0
 17 18  2  0  0  0
 17 45  1  0  0  0
 18 19  1  0  0  0
 18 20  1  0  0  0
 20 21  2  0  0  0
 20 22  1  0  0  0
 21 46  1  0  0  0
 22 23  2  0  0  0
 22 24  1  0  0  0
 25 26  1  0  0  0
 26 27  2  0  0  0
 27 28  1  0  0  0
 28 29  2  0  0  0
 28 33  1  0  0  0
 29 30  1  0  0  0
 29 47  1  0  0  0
 30 31  2  0  0  0
 30 48  1  0  0  0
 31 32  1  0  0  0
 31 49  1  0  0  0
 32 33  2  0  0  0
 32 50  1  0  0  0
 33 51  1  0  0  0
M  CHG  1  24  -1
M  END
> <s_m_source_file>
../2glm_ligand.sdf

> <i_m_source_file_index>
1

> <s_epik_input>
W2NIXTFbY0hdW2NIXVtjSF1bY0hdYzFcTj1DXDJTQyhcQyg9TylOMltDSDJdW0NIMl1PW0NIM10pPVtDSF1cYzNbY0hdW2NIXWMobzMpLWM0W2NIXVtjSF1jKENsKWMoW2NIXTQpQyg9TylbT0hd

> <s_epik_cmdline>
J2VwaWtfYXBwJywgJy1pbWFlJywgJ2xpZ2FuZF9wcm8ubWFlJywgJy1vbWFlJywgJ2xpZ2FuZF9wcmVwLm1hZScsICctbXMnLCAnMScsICctcGgnLCAnNycsICctcGh0JywgJzAuNScsICctbnQn

> <r_epik_Ionization_Penalty>
  0.0116

> <r_epik_Ionization_Penalty_Charging>
  0.0000

> <r_epik_Ionization_Penalty_Neutral>
  0.0116

> <r_epik_State_Penalty>
  0.0089

> <r_epik_Charging_Adjusted_Penalty>
0.00892957048092162

> <i_epik_Tot_Q>
-1

> <i_epik_Tot_abs_Q>
1

> <s_epik_Chemistry_Notes>
This compound has an imine and may undergo hydrolysis.

$$$$
