2glp_ligand
                    3D
 Schrodinger Suite 2020-3.
 29 30  0  0  1  0            999 V2000
  -72.6410   33.3490  129.1280 C   0  0  0  0  0  0
  -72.5740   31.9620  129.0540 C   0  0  0  0  0  0
  -71.3490   31.3380  129.2700 C   0  0  0  0  0  0
  -70.2720   32.0590  129.5360 N   0  0  0  0  0  0
  -70.3000   33.3800  129.6130 C   0  0  0  0  0  0
  -71.4910   34.0750  129.4200 C   0  0  0  0  0  0
  -71.5530   35.5690  129.7500 C   0  0  0  0  0  0
  -70.5160   36.1890  129.9840 O   0  0  0  0  0  0
  -72.7450   36.1620  129.7320 N   0  0  0  0  0  0
  -73.8090   35.6430  129.3890 N   0  0  0  0  0  0
  -74.8920   36.3790  129.5570 C   0  0  0  0  0  0
  -76.0400   36.3070  128.7770 C   0  0  0  0  0  0
  -77.1630   36.9960  129.2280 C   0  0  0  0  0  0
  -78.3770   36.8780  128.5590 C   0  0  0  0  0  0
  -79.9410   37.6630  129.2840 Br  0  0  0  0  0  0
  -78.4650   36.0970  127.4120 C   0  0  0  0  0  0
  -79.6440   35.9880  126.7420 O   0  0  0  0  0  0
  -77.3390   35.4260  126.9470 C   0  0  0  0  0  0
  -77.3610   34.7420  125.1810 Br  0  0  0  0  0  0
  -76.1350   35.5020  127.6430 C   0  0  0  0  0  0
  -75.0630   34.7920  127.2020 O   0  5  0  0  0  0
  -73.5871   33.8631  128.9586 H   0  0  0  0  0  0
  -73.4645   31.3744  128.8309 H   0  0  0  0  0  0
  -71.2765   30.2516  129.2199 H   0  0  0  0  0  0
  -69.3832   33.9284  129.8293 H   0  0  0  0  0  0
  -72.7261   37.2110  130.0624 H   0  0  0  0  0  0
  -74.9320   37.1216  130.3675 H   0  0  0  0  0  0
  -77.0904   37.6316  130.1105 H   0  0  0  0  0  0
  -80.5357   36.5179  127.1081 H   0  0  0  0  0  0
  1  2  2  0  0  0
  1  6  1  0  0  0
  1 22  1  0  0  0
  2  3  1  0  0  0
  2 23  1  0  0  0
  3  4  2  0  0  0
  3 24  1  0  0  0
  4  5  1  0  0  0
  5  6  2  0  0  0
  5 25  1  0  0  0
  6  7  1  0  0  0
  7  8  2  0  0  0
  7  9  1  0  0  0
  9 10  1  0  0  0
  9 26  1  0  0  0
 10 11  2  0  0  0
 11 12  1  0  0  0
 11 27  1  0  0  0
 12 13  2  0  0  0
 12 20  1  0  0  0
 13 14  1  0  0  0
 13 28  1  0  0  0
 14 15  1  0  0  0
 14 16  2  0  0  0
 16 17  1  0  0  0
 16 18  1  0  0  0
 17 29  1  0  0  0
 18 19  1  0  0  0
 18 20  2  0  0  0
 20 21  1  0  0  0
M  CHG  1  21  -1
M  END
> <s_m_source_file>
../2glp_ligand.sdf

> <i_m_source_file_index>
1

> <s_epik_input>
W2NIXTFuW2NIXVtjSF1bY0hdYzFDKD1PKVtOSF0vTj1bQ0hdL2MyW2NIXWMoQnIpYyhbT0hdKWMoQnIpYzJbT0hd

> <s_epik_cmdline>
J2VwaWtfYXBwJywgJy1pbWFlJywgJ2xpZ2FuZF9wcm8ubWFlJywgJy1vbWFlJywgJ2xpZ2FuZF9wcmVwLm1hZScsICctbXMnLCAnMScsICctcGgnLCAnNycsICctcGh0JywgJzAuNScsICctbnQn

> <r_epik_Ionization_Penalty>
  0.1029

> <r_epik_Ionization_Penalty_Charging>
  0.0329

> <r_epik_Ionization_Penalty_Neutral>
  0.0700

> <r_epik_State_Penalty>
  0.3056

> <r_epik_Charging_Adjusted_Penalty>
0.338454019399572

> <i_epik_Tot_Q>
-1

> <i_epik_Tot_abs_Q>
1

> <s_epik_Chemistry_Notes>
This compound has an imine and may undergo hydrolysis.

$$$$
