2gm9_ligand
                    3D
 Schrodinger Suite 2020-3.
 34 37  0  0  1  0            999 V2000
    8.4090  109.4230   20.0190 Cl  0  0  0  0  0  0
    9.3650  109.2080   21.4500 C   0  0  0  0  0  0
    9.0730  109.6900   22.7380 C   0  0  0  0  0  0
   10.0940  109.2700   23.5910 C   0  0  0  0  0  0
   10.3880  109.4250   24.9590 C   0  0  0  0  0  0
   11.6020  108.7310   25.1520 C   0  0  3  0  0  0
   11.9340  108.2100   23.9010 N   0  0  0  0  0  0
   11.0330  108.5370   22.9750 C   0  0  0  0  0  0
   10.8210  108.2610   21.3320 S   0  0  0  0  0  0
   12.4830  108.4900   26.3220 C   0  0  0  0  0  0
   13.6500  108.0820   26.1080 O   0  0  0  0  0  0
   12.0030  108.6990   27.6230 N   0  0  0  0  0  0
   12.8180  108.4690   28.8370 C   0  0  2  0  0  0
   12.0530  107.9280   30.0480 C   0  0  0  0  0  0
   12.9410  107.8980   31.2730 C   0  0  0  0  0  0
   12.8360  106.8850   32.2470 C   0  0  0  0  0  0
   13.6900  106.8680   33.3500 C   0  0  0  0  0  0
   14.6550  107.8770   33.5210 C   0  0  0  0  0  0
   14.7740  108.9100   32.5790 C   0  0  0  0  0  0
   13.9190  108.9140   31.4610 C   0  0  0  0  0  0
   14.0530  109.9110   30.4900 N   0  0  0  0  0  0
   13.5610  109.7660   29.2100 C   0  0  0  0  0  0
   13.7340  110.6710   28.4100 O   0  0  0  0  0  0
    8.1634  110.2843   22.9097 H   0  0  0  0  0  0
    9.7080  109.9984   25.6062 H   0  0  0  0  0  0
   10.9652  109.0517   27.7159 H   0  0  0  0  0  0
   13.5024  107.6627   28.5345 H   0  0  0  0  0  0
   11.1868  108.5742   30.2530 H   0  0  0  0  0  0
   11.7060  106.9060   29.8358 H   0  0  0  0  0  0
   12.0802  106.1072   32.1375 H   0  0  0  0  0  0
   13.6089  106.0669   34.0847 H   0  0  0  0  0  0
   15.3134  107.8563   34.3894 H   0  0  0  0  0  0
   15.5167  109.6968   32.7109 H   0  0  0  0  0  0
   14.5661  110.8525   30.7356 H   0  0  0  0  0  0
  1  2  1  0  0  0
  2  3  2  0  0  0
  2  9  1  0  0  0
  3  4  1  0  0  0
  3 24  1  0  0  0
  4  5  2  0  0  0
  4  8  1  0  0  0
  5  6  1  0  0  0
  5 25  1  0  0  0
  6  7  1  0  0  0
  6 10  1  0  0  0
  7  8  2  0  0  0
  8  9  1  0  0  0
 10 11  2  0  0  0
 10 12  1  0  0  0
 12 13  1  0  0  0
 12 26  1  0  0  0
 13 14  1  0  0  0
 13 22  1  0  0  0
 13 27  1  0  0  0
 14 15  1  0  0  0
 14 28  1  0  0  0
 14 29  1  0  0  0
 15 16  2  0  0  0
 15 20  1  0  0  0
 16 17  1  0  0  0
 16 30  1  0  0  0
 17 18  2  0  0  0
 17 31  1  0  0  0
 18 19  1  0  0  0
 18 32  1  0  0  0
 19 20  2  0  0  0
 19 33  1  0  0  0
 20 21  1  0  0  0
 21 22  1  0  0  0
 21 34  1  0  0  0
 22 23  2  0  0  0
M  END
> <s_m_source_file>
../2gm9_ligand.sdf

> <i_m_source_file_index>
1

> <s_epik_input>
Q2xjKFtjSF0xKXNjKGMxPTIpPU5bQ0hdKFtDSF0yKUMoPU8pW05IXVtDQEhdKFtDSDJdMylDKD1PKVtOSF1jKGMzNClbY0hdW2NIXVtjSF1bY0hdNA==

> <s_epik_cmdline>
J2VwaWtfYXBwJywgJy1pbWFlJywgJ2xpZ2FuZF9wcm8ubWFlJywgJy1vbWFlJywgJ2xpZ2FuZF9wcmVwLm1hZScsICctbXMnLCAnMScsICctcGgnLCAnNycsICctcGh0JywgJzAuNScsICctbnQn

> <r_epik_Ionization_Penalty>
  0.0439

> <r_epik_Ionization_Penalty_Charging>
  0.0000

> <r_epik_Ionization_Penalty_Neutral>
  0.0439

> <r_epik_State_Penalty>
  0.0372

> <r_epik_Charging_Adjusted_Penalty>
0.0371945326035864

> <i_epik_Tot_Q>
0

> <i_epik_Tot_abs_Q>
0

> <s_epik_Chemistry_Notes>
This compound has an imine and may undergo hydrolysis.

$$$$
