2gmk_ligand
                    3D
 Schrodinger Suite 2020-3.
 35 37  0  0  1  0            999 V2000
  -22.5540   -2.0320   -5.0630 P   0  0  0  0  0  0
  -22.7040   -3.4780   -5.4850 O   0  5  0  0  0  0
  -23.8600   -1.2600   -5.0030 O   0  5  0  0  0  0
  -21.4070   -1.3170   -5.7440 O   0  0  0  0  0  0
  -22.0690   -2.1410   -3.5320 O   0  0  0  0  0  0
  -21.6940   -0.9780   -2.7950 C   0  0  0  0  0  0
  -22.3920   -1.0440   -1.4490 C   0  0  1  0  0  0
  -22.1240   -2.3150   -0.8510 O   0  0  0  0  0  0
  -21.8730    0.0120   -0.4880 C   0  0  1  0  0  0
  -22.7040    1.1790   -0.4790 O   0  0  0  0  0  0
  -21.8550   -0.6780    0.8600 C   0  0  1  0  0  0
  -22.9700   -0.2790    1.6730 O   0  0  0  0  0  0
  -21.9370   -2.1660    0.5560 C   0  0  2  0  0  0
  -20.6770   -2.7860    1.0330 N   0  0  0  0  0  0
  -19.5310   -2.9710    0.3420 C   0  0  0  0  0  0
  -18.5900   -3.5650    1.1270 N   0  0  0  0  0  0
  -19.1420   -3.7620    2.3460 C   0  0  0  0  0  0
  -18.7200   -4.3410    3.6480 C   0  0  0  0  0  0
  -17.4760   -4.8440    3.8240 N   0  0  0  0  0  0
  -19.6140   -4.3490    4.6640 N   0  0  0  0  0  0
  -20.8610   -3.8550    4.5230 C   0  0  0  0  0  0
  -21.3170   -3.3180    3.3780 N   0  0  0  0  0  0
  -20.5160   -3.2430    2.2770 C   0  0  0  0  0  0
  -20.6023   -0.9651   -2.6609 H   0  0  0  0  0  0
  -22.0064   -0.0784   -3.3456 H   0  0  0  0  0  0
  -23.4755   -0.9353   -1.6044 H   0  0  0  0  0  0
  -20.8997    0.4351   -0.7774 H   0  0  0  0  0  0
  -22.8135    1.7833   -1.3916 H   0  0  0  0  0  0
  -20.9812   -0.3910    1.4634 H   0  0  0  0  0  0
  -23.0722    0.7693    1.9901 H   0  0  0  0  0  0
  -22.7853   -2.6941    1.0158 H   0  0  0  0  0  0
  -19.3805   -2.6847   -0.6989 H   0  0  0  0  0  0
  -16.7558   -4.8334    2.9927 H   0  0  0  0  0  0
  -17.1851   -5.2634    4.7984 H   0  0  0  0  0  0
  -21.5329   -3.8931    5.3805 H   0  0  0  0  0  0
  1  2  1  0  0  0
  1  3  1  0  0  0
  1  4  2  0  0  0
  1  5  1  0  0  0
  5  6  1  0  0  0
  6  7  1  0  0  0
  6 24  1  0  0  0
  6 25  1  0  0  0
  7  8  1  0  0  0
  7  9  1  0  0  0
  7 26  1  0  0  0
  8 13  1  0  0  0
  9 10  1  0  0  0
  9 11  1  0  0  0
  9 27  1  0  0  0
 10 28  1  0  0  0
 11 12  1  0  0  0
 11 13  1  0  0  0
 11 29  1  0  0  0
 12 30  1  0  0  0
 13 14  1  0  0  0
 13 31  1  0  0  0
 14 15  1  0  0  0
 14 23  1  0  0  0
 15 16  2  0  0  0
 15 32  1  0  0  0
 16 17  1  0  0  0
 17 18  2  0  0  0
 17 23  1  0  0  0
 18 19  1  0  0  0
 18 20  1  0  0  0
 19 33  1  0  0  0
 19 34  1  0  0  0
 20 21  2  0  0  0
 21 22  1  0  0  0
 21 35  1  0  0  0
 22 23  2  0  0  0
M  CHG  2   2  -1   3  -1
M  END
> <s_m_source_file>
../2gmk_ligand.sdf

> <i_m_source_file_index>
1

> <s_epik_input>
W09IXVAoPU8pKFtPSF0pT1tDSDJdW0NASF0xT1tDQEhdKFtDQEhdKFtPSF0pW0NAQEhdMVtPSF0pbihbY0hdbjIpYyhjMjMpbltjSF1uYzNbTkgyXQ==

> <s_epik_cmdline>
J2VwaWtfYXBwJywgJy1pbWFlJywgJ2xpZ2FuZF9wcm8ubWFlJywgJy1vbWFlJywgJ2xpZ2FuZF9wcmVwLm1hZScsICctbXMnLCAnMScsICctcGgnLCAnNycsICctcGh0JywgJzAuNScsICctbnQn

> <r_lp_tautomer_probability>
0.999997216410988

> <r_epik_Ionization_Penalty>
  0.1025

> <r_epik_Ionization_Penalty_Charging>
  0.1020

> <r_epik_Ionization_Penalty_Neutral>
  0.0004

> <r_epik_State_Penalty>
  0.0920

> <r_epik_Charging_Adjusted_Penalty>
0.194024004396068

> <i_epik_Tot_Q>
-2

> <i_epik_Tot_abs_Q>
2

> <s_epik_Chemistry_Notes>
This compound contains an acetal/aminal-like group ( X-CH(R)-Y where X, Y are N, S, or O) that may be acid/base labile, releasing an aldehyde.

$$$$
