2gmv_ligand
                    3D
 Schrodinger Suite 2020-3.
 67 71  0  0  1  0            999 V2000
   21.8840   -3.3890   46.2810 O   0  0  0  0  0  0
   23.1200   -4.0540   46.2720 S   0  0  0  0  0  0
   23.9360   -4.3240   47.3720 O   0  0  0  0  0  0
   24.2070   -3.2650   45.1030 C   0  0  0  0  0  0
   24.1620   -2.0160   44.4040 C   0  0  0  0  0  0
   25.4010   -1.7600   43.8020 N   0  0  0  0  0  0
   25.7780   -0.6540   42.9610 C   0  0  0  0  0  0
   26.2430   -2.8120   44.2270 C   0  0  0  0  0  0
   25.5720   -3.6530   45.0360 N   0  0  0  0  0  0
   22.8180   -5.6470   45.7660 N   0  0  0  0  0  0
   22.3270   -6.1050   44.5150 C   0  0  0  0  0  0
   22.6110   -7.3960   43.9870 C   0  0  0  0  0  0
   22.1800   -7.8080   42.7220 C   0  0  0  0  0  0
   21.5770   -5.2840   43.6490 C   0  0  0  0  0  0
   21.1330   -5.7060   42.3990 C   0  0  0  0  0  0
   21.4070   -6.9880   41.8890 C   0  0  0  0  0  0
   20.9950   -7.3780   40.4980 C   0  0  0  0  0  0
   21.9070   -6.6990   39.4940 C   0  0  0  0  0  0
   23.1300   -7.2250   39.0510 N   0  0  0  0  0  0
   23.6890   -6.2850   38.1850 C   0  0  3  0  0  0
   24.9180   -6.3550   37.3990 C   0  0  0  0  0  0
   25.7200   -7.2940   37.4390 O   0  0  0  0  0  0
   22.7800   -5.1810   38.1460 C   0  0  0  0  0  0
   21.6810   -5.4560   38.9730 N   0  0  0  0  0  0
   23.0770   -4.0620   37.3740 N   0  0  0  0  0  0
   22.1160   -2.9860   37.1320 C   0  0  0  0  0  0
   21.4340   -3.1380   35.7690 C   0  0  0  0  0  0
   20.5680   -1.9700   35.3480 C   0  0  0  0  0  0
   20.0280   -2.2460   33.9640 C   0  0  0  0  0  0
   24.2670   -4.1270   36.5830 C   0  0  0  0  0  0
   24.5610   -3.1490   35.8580 O   0  0  0  0  0  0
   25.2190   -5.1950   36.6850 N   0  0  0  0  0  0
   26.2050   -5.1460   35.6180 C   0  0  0  0  0  0
   27.5480   -4.6870   36.0910 C   0  0  0  0  0  0
   28.7090   -5.4250   35.8220 C   0  0  0  0  0  0
   28.6140   -6.5740   35.1180 F   0  0  0  0  0  0
   29.9700   -4.9720   36.2510 C   0  0  0  0  0  0
   30.0770   -3.7890   36.9740 C   0  0  0  0  0  0
   28.9290   -3.0470   37.2560 C   0  0  0  0  0  0
   27.6840   -3.4900   36.8120 C   0  0  0  0  0  0
   23.2924   -1.3612   44.3485 H   0  0  0  0  0  0
   24.9081    0.0008   42.8045 H   0  0  0  0  0  0
   26.1299   -1.0345   41.9907 H   0  0  0  0  0  0
   26.5841   -0.0833   43.4452 H   0  0  0  0  0  0
   27.2884   -2.9264   43.9403 H   0  0  0  0  0  0
   23.0067   -6.4868   46.4510 H   0  0  0  0  0  0
   23.1887   -8.0928   44.5942 H   0  0  0  0  0  0
   22.4552   -8.8027   42.3713 H   0  0  0  0  0  0
   21.3335   -4.2721   43.9729 H   0  0  0  0  0  0
   20.5493   -5.0150   41.7907 H   0  0  0  0  0  0
   21.0722   -8.4695   40.3852 H   0  0  0  0  0  0
   19.9557   -7.0638   40.3217 H   0  0  0  0  0  0
   21.3413   -3.0039   37.9127 H   0  0  0  0  0  0
   22.6368   -2.0173   37.1544 H   0  0  0  0  0  0
   22.1989   -3.2584   34.9877 H   0  0  0  0  0  0
   20.7811   -4.0232   35.7824 H   0  0  0  0  0  0
   19.7364   -1.8551   36.0589 H   0  0  0  0  0  0
   21.1718   -1.0506   35.3384 H   0  0  0  0  0  0
   19.3955   -1.4053   33.6428 H   0  0  0  0  0  0
   19.4300   -3.1691   33.9811 H   0  0  0  0  0  0
   20.8654   -2.3645   33.2606 H   0  0  0  0  0  0
   26.3263   -6.1497   35.1845 H   0  0  0  0  0  0
   25.8668   -4.4481   34.8379 H   0  0  0  0  0  0
   30.8644   -5.5492   36.0163 H   0  0  0  0  0  0
   31.0516   -3.4432   37.3184 H   0  0  0  0  0  0
   29.0060   -2.1200   37.8241 H   0  0  0  0  0  0
   26.7973   -2.8944   37.0292 H   0  0  0  0  0  0
  1  2  2  0  0  0
  2  3  2  0  0  0
  2  4  1  0  0  0
  2 10  1  0  0  0
  4  5  2  0  0  0
  4  9  1  0  0  0
  5  6  1  0  0  0
  5 41  1  0  0  0
  6  7  1  0  0  0
  6  8  1  0  0  0
  7 42  1  0  0  0
  7 43  1  0  0  0
  7 44  1  0  0  0
  8  9  2  0  0  0
  8 45  1  0  0  0
 10 11  1  0  0  0
 10 46  1  0  0  0
 11 12  2  0  0  0
 11 14  1  0  0  0
 12 13  1  0  0  0
 12 47  1  0  0  0
 13 16  2  0  0  0
 13 48  1  0  0  0
 14 15  2  0  0  0
 14 49  1  0  0  0
 15 16  1  0  0  0
 15 50  1  0  0  0
 16 17  1  0  0  0
 17 18  1  0  0  0
 17 51  1  0  0  0
 17 52  1  0  0  0
 18 19  2  0  0  0
 18 24  1  0  0  0
 19 20  1  0  0  0
 20 21  1  0  0  0
 20 23  1  0  0  0
 21 22  2  0  0  0
 21 32  1  0  0  0
 23 24  2  0  0  0
 23 25  1  0  0  0
 25 26  1  0  0  0
 25 30  1  0  0  0
 26 27  1  0  0  0
 26 53  1  0  0  0
 26 54  1  0  0  0
 27 28  1  0  0  0
 27 55  1  0  0  0
 27 56  1  0  0  0
 28 29  1  0  0  0
 28 57  1  0  0  0
 28 58  1  0  0  0
 29 59  1  0  0  0
 29 60  1  0  0  0
 29 61  1  0  0  0
 30 31  2  0  0  0
 30 32  1  0  0  0
 32 33  1  0  0  0
 33 34  1  0  0  0
 33 62  1  0  0  0
 33 63  1  0  0  0
 34 35  2  0  0  0
 34 40  1  0  0  0
 35 36  1  0  0  0
 35 37  1  0  0  0
 37 38  2  0  0  0
 37 64  1  0  0  0
 38 39  1  0  0  0
 38 65  1  0  0  0
 39 40  2  0  0  0
 39 66  1  0  0  0
 40 67  1  0  0  0
M  END
> <s_m_source_file>
../2gmv_ligand.sdf

> <i_m_source_file_index>
1

> <s_epik_input>
bjFbY0hdbihbQ0gzXSlbY0hdYzFTKD1PKSg9TylbTkhdYzJbY0hdW2NIXWMoW2NIXVtjSF0yKVtDSDJdQyg9TjMpTj1DKFtDSF0zNClOKFtDSDJdW0NIMl1bQ0gyXVtDSDNdKUMoPU8pTihDND1PKVtDSDJdYzVjKEYpW2NIXVtjSF1bY0hdW2NIXTU=

> <s_epik_cmdline>
J2VwaWtfYXBwJywgJy1pbWFlJywgJ2xpZ2FuZF9wcm8ubWFlJywgJy1vbWFlJywgJ2xpZ2FuZF9wcmVwLm1hZScsICctbXMnLCAnMScsICctcGgnLCAnNycsICctcGh0JywgJzAuNScsICctbnQn

> <r_epik_Ionization_Penalty>
  0.0340

> <r_epik_Ionization_Penalty_Charging>
  0.0000

> <r_epik_Ionization_Penalty_Neutral>
  0.0340

> <r_epik_State_Penalty>
  0.1062

> <r_epik_Charging_Adjusted_Penalty>
0.106169432754241

> <i_epik_Tot_Q>
0

> <i_epik_Tot_abs_Q>
0

> <s_epik_Chemistry_Notes>
This compound has an imine and may undergo hydrolysis.

$$$$
