2gmx_ligand
                    3D
 Schrodinger Suite 2020-3.
 46 47  0  0  1  0            999 V2000
   27.6200   93.1450   24.9470 C   0  0  0  0  0  0
   26.2810   92.9500   25.4440 C   0  0  0  0  0  0
   25.7530   91.6140   25.5350 C   0  0  0  0  0  0
   26.5600   90.5100   25.1230 C   0  0  0  0  0  0
   27.8820   90.6800   24.6290 C   0  0  0  0  0  0
   28.4280   92.0310   24.5380 C   0  0  0  0  0  0
   24.3470   91.3570   26.0570 C   0  0  0  0  0  0
   24.3480   91.2490   27.5840 C   0  0  0  0  0  0
   24.2730   92.4600   28.1940 N   0  0  0  0  0  0
   24.2430   92.8150   29.5190 C   0  0  0  0  0  0
   24.4100   90.1570   28.1160 O   0  0  0  0  0  0
   24.6920   94.0870   29.7310 N   0  0  0  0  0  0
   24.7220   94.6190   31.0080 C   0  0  0  0  0  0
   24.2910   93.8600   32.1330 C   0  0  0  0  0  0
   23.8180   92.5230   31.9230 C   0  0  0  0  0  0
   23.7970   91.9970   30.6050 C   0  0  0  0  0  0
   28.6300   89.5620   24.2360 O   0  0  0  0  0  0
   29.3240   88.9340   25.3090 C   0  0  0  0  0  0
   25.4200   93.9980   25.8620 O   0  0  0  0  0  0
   25.9320   94.9490   26.7880 C   0  0  0  0  0  0
   23.3880   91.7310   32.9470 N   0  0  0  0  0  0
   24.3320   94.4510   33.4580 C   0  0  0  0  0  0
   25.1870   95.9310   31.2230 O   0  0  0  0  0  0
   24.5030   96.9640   30.5230 C   0  0  0  0  0  0
   25.2860   97.4790   29.2950 C   0  0  0  0  0  0
   30.2260   92.3880   23.8840 Br  0  0  0  0  0  0
   24.3590   94.9510   34.5030 N   0  0  0  0  0  0
   28.0256   94.1546   24.8806 H   0  0  0  0  0  0
   26.1482   89.5030   25.1896 H   0  0  0  0  0  0
   23.6883   92.1863   25.7597 H   0  0  0  0  0  0
   23.9653   90.4159   25.6343 H   0  0  0  0  0  0
   24.2236   93.3780   27.5900 H   0  0  0  0  0  0
   23.4452   90.9817   30.4222 H   0  0  0  0  0  0
   29.8858   88.0693   24.9261 H   0  0  0  0  0  0
   28.6005   88.5955   26.0653 H   0  0  0  0  0  0
   30.0218   89.6521   25.7645 H   0  0  0  0  0  0
   25.1554   95.6940   27.0156 H   0  0  0  0  0  0
   26.8064   95.4528   26.3504 H   0  0  0  0  0  0
   26.2300   94.4354   27.7140 H   0  0  0  0  0  0
   23.3938   92.1139   33.9782 H   0  0  0  0  0  0
   23.0355   90.7095   32.7415 H   0  0  0  0  0  0
   23.5332   96.5859   30.1673 H   0  0  0  0  0  0
   24.3388   97.8174   31.1974 H   0  0  0  0  0  0
   24.7084   98.2724   28.7982 H   0  0  0  0  0  0
   25.4508   96.6499   28.5911 H   0  0  0  0  0  0
   26.2564   97.8814   29.6213 H   0  0  0  0  0  0
  1  2  2  0  0  0
  1  6  1  0  0  0
  1 28  1  0  0  0
  2  3  1  0  0  0
  2 19  1  0  0  0
  3  4  2  0  0  0
  3  7  1  0  0  0
  4  5  1  0  0  0
  4 29  1  0  0  0
  5  6  2  0  0  0
  5 17  1  0  0  0
  6 26  1  0  0  0
  7  8  1  0  0  0
  7 30  1  0  0  0
  7 31  1  0  0  0
  8  9  1  0  0  0
  8 11  2  0  0  0
  9 10  1  0  0  0
  9 32  1  0  0  0
 10 12  2  0  0  0
 10 16  1  0  0  0
 12 13  1  0  0  0
 13 14  2  0  0  0
 13 23  1  0  0  0
 14 15  1  0  0  0
 14 22  1  0  0  0
 15 16  2  0  0  0
 15 21  1  0  0  0
 16 33  1  0  0  0
 17 18  1  0  0  0
 18 34  1  0  0  0
 18 35  1  0  0  0
 18 36  1  0  0  0
 19 20  1  0  0  0
 20 37  1  0  0  0
 20 38  1  0  0  0
 20 39  1  0  0  0
 21 40  1  0  0  0
 21 41  1  0  0  0
 22 27  3  0  0  0
 23 24  1  0  0  0
 24 25  1  0  0  0
 24 42  1  0  0  0
 24 43  1  0  0  0
 25 44  1  0  0  0
 25 45  1  0  0  0
 25 46  1  0  0  0
M  END
> <s_m_source_file>
../2gmx_ligand.sdf

> <i_m_source_file_index>
1

> <s_epik_input>
W0NIM11PYzFbY0hdYyhCciljKE9bQ0gzXSlbY0hdYzFbQ0gyXUMoPU8pW05IXWMybmMoYyhDI04pYyhbY0hdMilbTkgyXSlPW0NIMl1bQ0gzXQ==

> <s_epik_cmdline>
J2VwaWtfYXBwJywgJy1pbWFlJywgJ2xpZ2FuZF9wcm8ubWFlJywgJy1vbWFlJywgJ2xpZ2FuZF9wcmVwLm1hZScsICctbXMnLCAnMScsICctcGgnLCAnNycsICctcGh0JywgJzAuNScsICctbnQn

> <r_lp_tautomer_probability>
1

> <r_epik_Ionization_Penalty>
  0.0000

> <r_epik_Ionization_Penalty_Charging>
  0.0000

> <r_epik_Ionization_Penalty_Neutral>
  0.0000

> <r_epik_State_Penalty>
 -0.0000

> <r_epik_Charging_Adjusted_Penalty>
0

> <i_epik_Tot_Q>
0

> <i_epik_Tot_abs_Q>
0

$$$$
