2gnf_ligand
                    3D
 Schrodinger Suite 2020-3.
 40 41  0  0  1  0            999 V2000
    7.5170   10.0600   41.9260 O   0  0  0  0  0  0
    7.9880    9.7810   43.0660 C   0  0  0  0  0  0
    9.4020    9.3230   43.3050 C   0  0  1  0  0  0
    9.6040    7.9990   42.5540 C   0  0  0  0  0  0
   11.0610    7.4850   42.6130 C   0  0  0  0  0  0
   12.0440    8.5720   42.1270 C   0  0  1  0  0  0
   11.9020    9.7720   43.0770 C   0  0  0  0  0  0
   10.4620   10.3700   42.9070 C   0  0  0  0  0  0
   13.5230    8.0650   42.0410 C   0  0  1  0  0  0
   13.9640    7.4060   43.3560 C   0  0  0  0  0  0
   13.7500    7.1170   40.9030 N   0  3  0  0  0  0
    7.2190    9.8130   44.2520 N   0  0  0  0  0  0
    5.7770    9.9740   44.2750 C   0  0  0  0  0  0
    5.1980    9.9890   45.5840 C   0  0  0  0  0  0
    3.8200   10.1310   45.6670 C   0  0  0  0  0  0
    3.0630   10.2640   44.5440 N   0  0  0  0  0  0
    3.5640   10.2620   43.2940 C   0  0  0  0  0  0
    4.9340   10.1350   43.1070 C   0  0  0  0  0  0
    9.5208    9.1816   44.3894 H   0  0  0  0  0  0
    8.9593    7.2249   42.9957 H   0  0  0  0  0  0
    9.3410    8.1346   41.4945 H   0  0  0  0  0  0
   11.3131    7.2157   43.6493 H   0  0  0  0  0  0
   11.1638    6.5994   41.9687 H   0  0  0  0  0  0
   11.7755    8.8709   41.1030 H   0  0  0  0  0  0
   12.0508    9.4379   44.1144 H   0  0  0  0  0  0
   12.6570   10.5310   42.8244 H   0  0  0  0  0  0
   10.3139   10.6606   41.8565 H   0  0  0  0  0  0
   10.3614   11.2565   43.5504 H   0  0  0  0  0  0
   14.1640    8.9344   41.8331 H   0  0  0  0  0  0
   13.7965    8.1036   44.1899 H   0  0  0  0  0  0
   15.0329    7.1528   43.2988 H   0  0  0  0  0  0
   13.3784    6.4896   43.5213 H   0  0  0  0  0  0
   13.4335    7.5910   39.9622 H   0  0  0  0  0  0
   13.1643    6.2004   41.0670 H   0  0  0  0  0  0
   14.8188    6.8637   40.8445 H   0  0  0  0  0  0
    7.7122    9.7127   45.2301 H   0  0  0  0  0  0
    5.8137    9.8929   46.4783 H   0  0  0  0  0  0
    3.3377   10.1361   46.6445 H   0  0  0  0  0  0
    2.8992   10.3593   42.4357 H   0  0  0  0  0  0
    5.3651   10.1559   42.1061 H   0  0  0  0  0  0
  1  2  2  0  0  0
  2  3  1  0  0  0
  2 12  1  0  0  0
  3  4  1  0  0  0
  3  8  1  0  0  0
  3 19  1  0  0  0
  4  5  1  0  0  0
  4 20  1  0  0  0
  4 21  1  0  0  0
  5  6  1  0  0  0
  5 22  1  0  0  0
  5 23  1  0  0  0
  6  7  1  0  0  0
  6  9  1  0  0  0
  6 24  1  0  0  0
  7  8  1  0  0  0
  7 25  1  0  0  0
  7 26  1  0  0  0
  8 27  1  0  0  0
  8 28  1  0  0  0
  9 10  1  0  0  0
  9 11  1  0  0  0
  9 29  1  0  0  0
 10 30  1  0  0  0
 10 31  1  0  0  0
 10 32  1  0  0  0
 11 33  1  0  0  0
 11 34  1  0  0  0
 11 35  1  0  0  0
 12 13  1  0  0  0
 12 36  1  0  0  0
 13 14  2  0  0  0
 13 18  1  0  0  0
 14 15  1  0  0  0
 14 37  1  0  0  0
 15 16  2  0  0  0
 15 38  1  0  0  0
 16 17  1  0  0  0
 17 18  2  0  0  0
 17 39  1  0  0  0
 18 40  1  0  0  0
M  CHG  1  11   1
M  END
> <s_m_source_file>
../2gnf_ligand.sdf

> <i_m_source_file_index>
1

> <s_epik_input>
W0NIMl0xW0NIMl1bQ0BASF0oW0NAQEhdKFtDSDNdKVtOSDMrXSlbQ0gyXVtDSDJdW0NAQEhdMUMoPU8pW05IXWMyW2NIXVtjSF1uW2NIXVtjSF0y

> <s_epik_cmdline>
J2VwaWtfYXBwJywgJy1pbWFlJywgJ2xpZ2FuZF9wcm8ubWFlJywgJy1vbWFlJywgJ2xpZ2FuZF9wcmVwLm1hZScsICctbXMnLCAnMScsICctcGgnLCAnNycsICctcGh0JywgJzAuNScsICctbnQn

> <r_lp_tautomer_probability>
1

> <r_epik_Ionization_Penalty>
  0.0038

> <r_epik_Ionization_Penalty_Charging>
  0.0004

> <r_epik_Ionization_Penalty_Neutral>
  0.0035

> <r_epik_State_Penalty>
 -0.0000

> <r_epik_Charging_Adjusted_Penalty>
0.000353003559528669

> <i_epik_Tot_Q>
1

> <i_epik_Tot_abs_Q>
1

$$$$
