2gnh_ligand
                    3D
 Schrodinger Suite 2020-3.
 44 46  0  0  1  0            999 V2000
    9.3410   11.0100    4.5490 O   0  0  0  0  0  0
    8.9860    9.7260    4.0600 S   0  0  0  0  0  0
    8.8110    8.7120    5.0260 O   0  0  0  0  0  0
   10.1230    9.2010    3.0980 N   0  0  3  0  0  0
   10.4910    7.7530    3.0200 C   0  0  1  0  0  0
    9.5580    6.9980    2.0900 C   0  0  0  0  0  0
   11.9370    7.5230    2.5640 C   0  0  0  0  0  0
   12.8430    8.3610    3.3140 N   0  3  0  0  0  0
   13.2400    9.6450    2.7600 C   0  0  0  0  0  0
   12.0870   10.6390    2.8720 C   0  0  0  0  0  0
   10.8370   10.0940    2.1760 C   0  0  0  0  0  0
    7.5130    9.7830    3.2950 C   0  0  0  0  0  0
    6.1920    9.8920    3.8840 C   0  0  0  0  0  0
    5.8420    9.9820    5.2660 C   0  0  0  0  0  0
    6.8080   10.0190    6.4410 C   0  0  0  0  0  0
    5.0850    9.8670    3.0180 C   0  0  0  0  0  0
    5.1980    9.7680    1.6290 C   0  0  0  0  0  0
    6.4430    9.7240    1.0570 C   0  0  0  0  0  0
    7.5750    9.7250    1.8830 C   0  0  0  0  0  0
    3.7720    9.8980    3.5020 C   0  0  0  0  0  0
    3.5130    9.9720    4.8060 N   0  0  0  0  0  0
    4.5040    9.9940    5.7070 C   0  0  0  0  0  0
   10.3767    7.3879    4.0513 H   0  0  0  0  0  0
    8.5168    7.1558    2.4078 H   0  0  0  0  0  0
    9.7938    5.9242    2.1266 H   0  0  0  0  0  0
    9.6875    7.3670    1.0619 H   0  0  0  0  0  0
   12.2089    6.4693    2.7247 H   0  0  0  0  0  0
   12.0274    7.7661    1.4950 H   0  0  0  0  0  0
   12.3932    8.6084    4.2869 H   0  0  0  0  0  0
   13.7905    7.8256    3.4737 H   0  0  0  0  0  0
   14.1072   10.0316    3.3155 H   0  0  0  0  0  0
   13.5092    9.5199    1.7008 H   0  0  0  0  0  0
   11.8562   10.8148    3.9331 H   0  0  0  0  0  0
   12.3741   11.5887    2.3970 H   0  0  0  0  0  0
   11.1298    9.5336    1.2759 H   0  0  0  0  0  0
   10.1794   10.9283    1.8907 H   0  0  0  0  0  0
    7.8421   10.0087    6.0660 H   0  0  0  0  0  0
    6.6411    9.1398    7.0807 H   0  0  0  0  0  0
    6.6391   10.9353    7.0258 H   0  0  0  0  0  0
    4.3046    9.7261    1.0060 H   0  0  0  0  0  0
    6.5511    9.6887   -0.0270 H   0  0  0  0  0  0
    8.5568    9.6786    1.4118 H   0  0  0  0  0  0
    2.9428    9.8607    2.7955 H   0  0  0  0  0  0
    4.2770   10.0210    6.7728 H   0  0  0  0  0  0
  1  2  2  0  0  0
  2  3  2  0  0  0
  2  4  1  0  0  0
  2 12  1  0  0  0
  4  5  1  0  0  0
  4 11  1  0  0  0
  5  6  1  0  0  0
  5  7  1  0  0  0
  5 23  1  0  0  0
  6 24  1  0  0  0
  6 25  1  0  0  0
  6 26  1  0  0  0
  7  8  1  0  0  0
  7 27  1  0  0  0
  7 28  1  0  0  0
  8  9  1  0  0  0
  8 29  1  0  0  0
  8 30  1  0  0  0
  9 10  1  0  0  0
  9 31  1  0  0  0
  9 32  1  0  0  0
 10 11  1  0  0  0
 10 33  1  0  0  0
 10 34  1  0  0  0
 11 35  1  0  0  0
 11 36  1  0  0  0
 12 13  2  0  0  0
 12 19  1  0  0  0
 13 14  1  0  0  0
 13 16  1  0  0  0
 14 15  1  0  0  0
 14 22  2  0  0  0
 15 37  1  0  0  0
 15 38  1  0  0  0
 15 39  1  0  0  0
 16 17  2  0  0  0
 16 20  1  0  0  0
 17 18  1  0  0  0
 17 40  1  0  0  0
 18 19  2  0  0  0
 18 41  1  0  0  0
 19 42  1  0  0  0
 20 21  2  0  0  0
 20 43  1  0  0  0
 21 22  1  0  0  0
 22 44  1  0  0  0
M  CHG  1   8   1
M  END
> <s_m_source_file>
../2gnh_ligand.sdf

> <i_m_source_file_index>
1

> <s_epik_input>
W0NIMl0xW0NIMl1bQ0gyXVtOSDIrXVtDSDJdW0NASF0oW0NIM10pTjFTKD1PKSg9TyljMltjSF1bY0hdW2NIXWMoYzIzKVtjSF1uW2NIXWMzW0NIM10=

> <s_epik_cmdline>
J2VwaWtfYXBwJywgJy1pbWFlJywgJ2xpZ2FuZF9wcm8ubWFlJywgJy1vbWFlJywgJ2xpZ2FuZF9wcmVwLm1hZScsICctbXMnLCAnMScsICctcGgnLCAnNycsICctcGh0JywgJzAuNScsICctbnQn

> <r_lp_tautomer_probability>
1

> <r_epik_Ionization_Penalty>
  0.0096

> <r_epik_Ionization_Penalty_Charging>
  0.0080

> <r_epik_Ionization_Penalty_Neutral>
  0.0016

> <r_epik_State_Penalty>
 -0.0000

> <r_epik_Charging_Adjusted_Penalty>
0.00796083755350341

> <i_epik_Tot_Q>
1

> <i_epik_Tot_abs_Q>
1

$$$$
