2gni_ligand
                    3D
 Schrodinger Suite 2020-3.
 38 40  0  0  1  0            999 V2000
    8.6630   11.0830    5.1390 O   0  0  0  0  0  0
    8.5630   10.0750    4.0780 S   0  0  0  0  0  0
    9.5790   10.2220    3.0610 O   0  0  0  0  0  0
    8.7470    8.5900    4.6610 N   0  0  3  0  0  0
    8.6400    7.4430    3.7020 C   0  0  0  0  0  0
    9.8160    7.4110    2.7170 C   0  0  0  0  0  0
   11.1150    7.1450    3.4660 N   0  3  0  0  0  0
   11.3480    7.9200    4.7470 C   0  0  0  0  0  0
   10.4640    7.5710    5.9470 C   0  0  0  0  0  0
    9.1740    8.4300    6.0430 C   0  0  0  0  0  0
    7.0820   10.0850    3.1460 C   0  0  0  0  0  0
    7.2290   10.1470    1.7680 C   0  0  0  0  0  0
    6.0790   10.1340    0.9240 C   0  0  0  0  0  0
    4.8170   10.1030    1.5120 C   0  0  0  0  0  0
    4.6530   10.0680    2.9120 C   0  0  0  0  0  0
    5.7840   10.0280    3.7640 C   0  0  0  0  0  0
    5.5290    9.9710    5.1760 C   0  0  0  0  0  0
    3.3890   10.0080    3.5140 C   0  0  0  0  0  0
    3.1880    9.9250    4.8300 N   0  0  0  0  0  0
    4.2550    9.9320    5.6800 C   0  0  0  0  0  0
    8.6332    6.4963    4.2620 H   0  0  0  0  0  0
    7.7084    7.5338    3.1242 H   0  0  0  0  0  0
    9.6539    6.6122    1.9783 H   0  0  0  0  0  0
    9.8878    8.3793    2.2001 H   0  0  0  0  0  0
   11.1624    6.0840    3.7524 H   0  0  0  0  0  0
   11.9690    7.3881    2.8167 H   0  0  0  0  0  0
   12.3817    7.7620    5.0882 H   0  0  0  0  0  0
   11.1825    8.9917    4.5624 H   0  0  0  0  0  0
   10.1520    6.5184    5.8788 H   0  0  0  0  0  0
   11.0305    7.7260    6.8771 H   0  0  0  0  0  0
    9.3688    9.4190    6.4834 H   0  0  0  0  0  0
    8.3827    7.9234    6.6150 H   0  0  0  0  0  0
    8.2251   10.2058    1.3293 H   0  0  0  0  0  0
    6.1861   10.1481   -0.1606 H   0  0  0  0  0  0
    3.9335   10.1059    0.8737 H   0  0  0  0  0  0
    6.3723    9.9584    5.8664 H   0  0  0  0  0  0
    2.5136   10.0306    2.8650 H   0  0  0  0  0  0
    4.0947    9.9066    6.7578 H   0  0  0  0  0  0
  1  2  2  0  0  0
  2  3  2  0  0  0
  2  4  1  0  0  0
  2 11  1  0  0  0
  4  5  1  0  0  0
  4 10  1  0  0  0
  5  6  1  0  0  0
  5 21  1  0  0  0
  5 22  1  0  0  0
  6  7  1  0  0  0
  6 23  1  0  0  0
  6 24  1  0  0  0
  7  8  1  0  0  0
  7 25  1  0  0  0
  7 26  1  0  0  0
  8  9  1  0  0  0
  8 27  1  0  0  0
  8 28  1  0  0  0
  9 10  1  0  0  0
  9 29  1  0  0  0
  9 30  1  0  0  0
 10 31  1  0  0  0
 10 32  1  0  0  0
 11 12  2  0  0  0
 11 16  1  0  0  0
 12 13  1  0  0  0
 12 33  1  0  0  0
 13 14  2  0  0  0
 13 34  1  0  0  0
 14 15  1  0  0  0
 14 35  1  0  0  0
 15 16  2  0  0  0
 15 18  1  0  0  0
 16 17  1  0  0  0
 17 20  2  0  0  0
 17 36  1  0  0  0
 18 19  2  0  0  0
 18 37  1  0  0  0
 19 20  1  0  0  0
 20 38  1  0  0  0
M  CHG  1   7   1
M  END
> <s_m_source_file>
../2gni_ligand.sdf

> <i_m_source_file_index>
1

> <s_epik_input>
W2NIXTFuW2NIXVtjSF1jKGMxMiljKFtjSF1bY0hdW2NIXTIpUyg9TykoPU8pTjNbQ0gyXVtDSDJdW05IMitdW0NIMl1bQ0gyXVtDSDJdMw==

> <s_epik_cmdline>
J2VwaWtfYXBwJywgJy1pbWFlJywgJ2xpZ2FuZF9wcm8ubWFlJywgJy1vbWFlJywgJ2xpZ2FuZF9wcmVwLm1hZScsICctbXMnLCAnMScsICctcGgnLCAnNycsICctcGh0JywgJzAuNScsICctbnQn

> <r_lp_tautomer_probability>
1

> <r_epik_Ionization_Penalty>
  0.0088

> <r_epik_Ionization_Penalty_Charging>
  0.0081

> <r_epik_Ionization_Penalty_Neutral>
  0.0007

> <r_epik_State_Penalty>
 -0.0000

> <r_epik_Charging_Adjusted_Penalty>
0.00808172145150982

> <i_epik_Tot_Q>
1

> <i_epik_Tot_abs_Q>
1

$$$$
