2gnj_ligand
                    3D
 Schrodinger Suite 2020-3.
 40 41  0  0  1  0            999 V2000
    7.3520    9.8870    1.4790 O   0  0  0  0  0  0
    7.7390    9.4660    2.5670 C   0  0  0  0  0  0
    9.1180    8.9010    2.7550 C   0  0  1  0  0  0
    9.3370    7.6300    1.9050 C   0  0  0  0  0  0
   10.7730    7.1060    2.0930 C   0  0  0  0  0  0
   11.8090    8.2240    1.8510 C   0  0  1  0  0  0
   11.5840    9.3980    2.8210 C   0  0  0  0  0  0
   10.1860    9.9780    2.4870 C   0  0  0  0  0  0
   13.2700    7.7040    1.8660 C   0  0  1  0  0  0
   13.6360    6.9610    3.1600 C   0  0  0  0  0  0
   13.5380    6.8380    0.6630 N   0  3  0  0  0  0
    6.9210    9.4600    3.7290 N   0  0  0  0  0  0
    5.4690    9.6840    3.7930 C   0  0  0  0  0  0
    4.9070    9.6460    5.0690 C   0  0  0  0  0  0
    3.5360    9.8280    5.2290 C   0  0  0  0  0  0
    2.7480   10.0070    4.1890 N   0  0  0  0  0  0
    3.2510   10.0480    2.9550 C   0  0  0  0  0  0
    4.6000    9.9220    2.7030 C   0  0  0  0  0  0
    9.1924    8.6011    3.8107 H   0  0  0  0  0  0
    8.6256    6.8519    2.2189 H   0  0  0  0  0  0
    9.1761    7.8669    0.8429 H   0  0  0  0  0  0
   10.8947    6.7301    3.1196 H   0  0  0  0  0  0
   10.9622    6.2907    1.3792 H   0  0  0  0  0  0
   11.6432    8.6086    0.8339 H   0  0  0  0  0  0
   11.6211    9.0299    3.8569 H   0  0  0  0  0  0
   12.3701   10.1528    2.6717 H   0  0  0  0  0  0
   10.1508   10.2737    1.4281 H   0  0  0  0  0  0
    9.9883   10.8559    3.1196 H   0  0  0  0  0  0
   13.9342    8.5787    1.8050 H   0  0  0  0  0  0
   13.4332    7.6095    4.0250 H   0  0  0  0  0  0
   14.7037    6.6972    3.1418 H   0  0  0  0  0  0
   13.0331    6.0444    3.2395 H   0  0  0  0  0  0
   13.2698    7.3875   -0.2514 H   0  0  0  0  0  0
   12.9346    5.9207    0.7298 H   0  0  0  0  0  0
   14.6053    6.5735    0.6321 H   0  0  0  0  0  0
    7.3690    9.2727    4.7160 H   0  0  0  0  0  0
    5.5401    9.4741    5.9395 H   0  0  0  0  0  0
    3.1078    9.8223    6.2314 H   0  0  0  0  0  0
    2.5705   10.1862    2.1148 H   0  0  0  0  0  0
    4.9880   10.0038    1.6877 H   0  0  0  0  0  0
  1  2  2  0  0  0
  2  3  1  0  0  0
  2 12  1  0  0  0
  3  4  1  0  0  0
  3  8  1  0  0  0
  3 19  1  0  0  0
  4  5  1  0  0  0
  4 20  1  0  0  0
  4 21  1  0  0  0
  5  6  1  0  0  0
  5 22  1  0  0  0
  5 23  1  0  0  0
  6  7  1  0  0  0
  6  9  1  0  0  0
  6 24  1  0  0  0
  7  8  1  0  0  0
  7 25  1  0  0  0
  7 26  1  0  0  0
  8 27  1  0  0  0
  8 28  1  0  0  0
  9 10  1  0  0  0
  9 11  1  0  0  0
  9 29  1  0  0  0
 10 30  1  0  0  0
 10 31  1  0  0  0
 10 32  1  0  0  0
 11 33  1  0  0  0
 11 34  1  0  0  0
 11 35  1  0  0  0
 12 13  1  0  0  0
 12 36  1  0  0  0
 13 14  2  0  0  0
 13 18  1  0  0  0
 14 15  1  0  0  0
 14 37  1  0  0  0
 15 16  2  0  0  0
 15 38  1  0  0  0
 16 17  1  0  0  0
 17 18  2  0  0  0
 17 39  1  0  0  0
 18 40  1  0  0  0
M  CHG  1  11   1
M  END
> <s_m_source_file>
../2gnj_ligand.sdf

> <i_m_source_file_index>
1

> <s_epik_input>
W0NIMl0xW0NIMl1bQ0BASF0oW0NAQEhdKFtDSDNdKVtOSDMrXSlbQ0gyXVtDSDJdW0NAQEhdMUMoPU8pW05IXWMyW2NIXVtjSF1uW2NIXVtjSF0y

> <s_epik_cmdline>
J2VwaWtfYXBwJywgJy1pbWFlJywgJ2xpZ2FuZF9wcm8ubWFlJywgJy1vbWFlJywgJ2xpZ2FuZF9wcmVwLm1hZScsICctbXMnLCAnMScsICctcGgnLCAnNycsICctcGh0JywgJzAuNScsICctbnQn

> <r_lp_tautomer_probability>
1

> <r_epik_Ionization_Penalty>
  0.0038

> <r_epik_Ionization_Penalty_Charging>
  0.0004

> <r_epik_Ionization_Penalty_Neutral>
  0.0035

> <r_epik_State_Penalty>
 -0.0000

> <r_epik_Charging_Adjusted_Penalty>
0.000353003559528669

> <i_epik_Tot_Q>
1

> <i_epik_Tot_abs_Q>
1

$$$$
