2gnl_ligand
                    3D
 Schrodinger Suite 2020-3.
 44 46  0  0  1  0            999 V2000
    9.2980   11.0130    4.6250 O   0  0  0  0  0  0
    8.8560    9.7810    4.0710 S   0  0  0  0  0  0
    8.6700    8.8850    5.1560 O   0  0  0  0  0  0
    9.9830    9.1810    3.1940 N   0  0  3  0  0  0
   10.1930    7.7290    3.0850 C   0  0  1  0  0  0
    9.3500    7.0290    2.0070 C   0  0  0  0  0  0
   11.6570    7.4590    2.7740 C   0  0  0  0  0  0
   12.4710    8.2510    3.6530 N   0  3  0  0  0  0
   13.1230    9.4270    3.1740 C   0  0  0  0  0  0
   12.0480   10.4680    3.3050 C   0  0  0  0  0  0
   10.8660   10.0680    2.4230 C   0  0  0  0  0  0
    7.4690    9.9020    3.1890 C   0  0  0  0  0  0
    6.1170   10.0560    3.6370 C   0  0  0  0  0  0
    5.6630   10.1850    4.9710 C   0  0  0  0  0  0
    6.5300   10.1860    6.1950 C   0  0  0  0  0  0
    5.0830   10.0830    2.6730 C   0  0  0  0  0  0
    5.3200    9.9630    1.3170 C   0  0  0  0  0  0
    6.6030    9.8330    0.8810 C   0  0  0  0  0  0
    7.6420    9.8070    1.7980 C   0  0  0  0  0  0
    3.7450   10.2140    3.0170 C   0  0  0  0  0  0
    3.3870   10.3120    4.2850 N   0  0  0  0  0  0
    4.3030   10.2990    5.2490 C   0  0  0  0  0  0
    9.8764    7.3578    4.0709 H   0  0  0  0  0  0
    8.2824    7.2058    2.2043 H   0  0  0  0  0  0
    9.5526    5.9480    2.0277 H   0  0  0  0  0  0
    9.6118    7.4323    1.0176 H   0  0  0  0  0  0
   11.8734    6.3914    2.9268 H   0  0  0  0  0  0
   11.8657    7.7294    1.7284 H   0  0  0  0  0  0
   11.8584    8.6156    4.4907 H   0  0  0  0  0  0
   13.2958    7.6361    4.0423 H   0  0  0  0  0  0
   14.0025    9.6393    3.7997 H   0  0  0  0  0  0
   13.4426    9.2709    2.1331 H   0  0  0  0  0  0
   11.7253   10.5318    4.3547 H   0  0  0  0  0  0
   12.4409   11.4435    2.9823 H   0  0  0  0  0  0
   11.2283    9.5384    1.5296 H   0  0  0  0  0  0
   10.3078   10.9649    2.1163 H   0  0  0  0  0  0
    7.5849   10.0933    5.8972 H   0  0  0  0  0  0
    6.2551    9.3382    6.8397 H   0  0  0  0  0  0
    6.3858   11.1273    6.7457 H   0  0  0  0  0  0
    4.4926    9.9723    0.6075 H   0  0  0  0  0  0
    6.8125    9.7497   -0.1854 H   0  0  0  0  0  0
    8.6578    9.7065    1.4157 H   0  0  0  0  0  0
    2.9847   10.2362    2.2363 H   0  0  0  0  0  0
    3.9801   10.3799    6.2869 H   0  0  0  0  0  0
  1  2  2  0  0  0
  2  3  2  0  0  0
  2  4  1  0  0  0
  2 12  1  0  0  0
  4  5  1  0  0  0
  4 11  1  0  0  0
  5  6  1  0  0  0
  5  7  1  0  0  0
  5 23  1  0  0  0
  6 24  1  0  0  0
  6 25  1  0  0  0
  6 26  1  0  0  0
  7  8  1  0  0  0
  7 27  1  0  0  0
  7 28  1  0  0  0
  8  9  1  0  0  0
  8 29  1  0  0  0
  8 30  1  0  0  0
  9 10  1  0  0  0
  9 31  1  0  0  0
  9 32  1  0  0  0
 10 11  1  0  0  0
 10 33  1  0  0  0
 10 34  1  0  0  0
 11 35  1  0  0  0
 11 36  1  0  0  0
 12 13  2  0  0  0
 12 19  1  0  0  0
 13 14  1  0  0  0
 13 16  1  0  0  0
 14 15  1  0  0  0
 14 22  2  0  0  0
 15 37  1  0  0  0
 15 38  1  0  0  0
 15 39  1  0  0  0
 16 17  2  0  0  0
 16 20  1  0  0  0
 17 18  1  0  0  0
 17 40  1  0  0  0
 18 19  2  0  0  0
 18 41  1  0  0  0
 19 42  1  0  0  0
 20 21  2  0  0  0
 20 43  1  0  0  0
 21 22  1  0  0  0
 22 44  1  0  0  0
M  CHG  1   8   1
M  END
> <s_m_source_file>
../2gnl_ligand.sdf

> <i_m_source_file_index>
1

> <s_epik_input>
W0NIMl0xW0NIMl1bQ0gyXVtOSDIrXVtDSDJdW0NASF0oW0NIM10pTjFTKD1PKSg9TyljMltjSF1bY0hdW2NIXWMoYzIzKVtjSF1uW2NIXWMzW0NIM10=

> <s_epik_cmdline>
J2VwaWtfYXBwJywgJy1pbWFlJywgJ2xpZ2FuZF9wcm8ubWFlJywgJy1vbWFlJywgJ2xpZ2FuZF9wcmVwLm1hZScsICctbXMnLCAnMScsICctcGgnLCAnNycsICctcGh0JywgJzAuNScsICctbnQn

> <r_lp_tautomer_probability>
1

> <r_epik_Ionization_Penalty>
  0.0096

> <r_epik_Ionization_Penalty_Charging>
  0.0080

> <r_epik_Ionization_Penalty_Neutral>
  0.0016

> <r_epik_State_Penalty>
 -0.0000

> <r_epik_Charging_Adjusted_Penalty>
0.00796083755350341

> <i_epik_Tot_Q>
1

> <i_epik_Tot_abs_Q>
1

$$$$
