2go4_ligand
                    3D
 Schrodinger Suite 2020-3.
 71 71  0  0  1  0            999 V2000
  -30.9350   77.2910    5.3030 C   0  0  1  0  0  0
  -32.0710   78.3100    5.2000 C   0  0  1  0  0  0
  -32.1150   78.8920    3.7840 C   0  0  2  0  0  0
  -29.6160   77.9540    4.8970 C   0  0  2  0  0  0
  -29.7580   78.5920    3.5110 C   0  0  0  0  0  0
  -30.8550   79.5230    3.4950 O   0  0  0  0  0  0
  -30.8270   76.8150    6.6520 O   0  0  0  0  0  0
  -31.2350   74.7680    5.7900 O   0  0  0  0  0  0
  -30.9760   75.4670    6.7690 C   0  0  0  0  0  0
  -30.8580   74.8550    8.1670 C   0  0  0  0  0  0
  -31.3740   73.4170    8.2340 C   0  0  0  0  0  0
  -31.9200   73.1420    9.6370 C   0  0  0  0  0  0
  -32.3290   71.6790    9.8150 C   0  0  0  0  0  0
  -33.3330   71.4890   10.9560 C   0  0  0  0  0  0
  -32.8430   71.9980   12.3150 C   0  0  0  0  0  0
  -33.8440   71.5970   13.4010 C   0  0  0  0  0  0
  -33.4930   72.1810   14.7710 C   0  0  0  0  0  0
  -34.3970   71.5770   15.8490 C   0  0  0  0  0  0
  -34.1570   72.1950   17.2300 C   0  0  0  0  0  0
  -34.8650   73.5400   17.4300 C   0  0  0  0  0  0
  -36.3660   73.4080   17.7110 C   0  0  0  0  0  0
  -37.1640   72.9100   16.5030 C   0  0  0  0  0  0
  -28.4870   76.9210    4.9330 C   0  0  0  0  0  0
  -27.1010   77.5640    4.8510 C   0  0  0  0  0  0
  -26.5470   78.0000    5.8580 O   0  0  0  0  0  0
  -26.5680   77.5970    3.6340 N   0  0  0  0  0  0
  -25.3210   78.1110    3.4670 O   0  0  0  0  0  0
  -33.3130   77.6660    5.4960 O   0  0  0  0  0  0
  -33.2640   79.8990    3.6810 C   0  0  0  0  0  0
  -33.4170   80.3350    2.3280 O   0  0  0  0  0  0
  -31.1487   76.4056    4.6863 H   0  0  0  0  0  0
  -31.9604   79.1071    5.9499 H   0  0  0  0  0  0
  -32.2303   78.1067    3.0225 H   0  0  0  0  0  0
  -29.3652   78.7532    5.6101 H   0  0  0  0  0  0
  -28.8312   79.1273    3.2571 H   0  0  0  0  0  0
  -29.9445   77.8070    2.7633 H   0  0  0  0  0  0
  -29.8022   74.8462    8.4755 H   0  0  0  0  0  0
  -31.4434   75.4540    8.8801 H   0  0  0  0  0  0
  -32.1754   73.2801    7.4930 H   0  0  0  0  0  0
  -30.5503   72.7213    8.0159 H   0  0  0  0  0  0
  -31.1469   73.3762   10.3837 H   0  0  0  0  0  0
  -32.8048   73.7706    9.8158 H   0  0  0  0  0  0
  -32.7946   71.3131    8.8880 H   0  0  0  0  0  0
  -31.4385   71.0743   10.0415 H   0  0  0  0  0  0
  -34.2602   72.0331   10.7229 H   0  0  0  0  0  0
  -33.5559   70.4183   11.0738 H   0  0  0  0  0  0
  -31.8612   71.5558   12.5399 H   0  0  0  0  0  0
  -32.7534   73.0939   12.2855 H   0  0  0  0  0  0
  -34.8463   71.9582   13.1272 H   0  0  0  0  0  0
  -33.8624   70.5013   13.4962 H   0  0  0  0  0  0
  -32.4441   71.9512   15.0097 H   0  0  0  0  0  0
  -33.6341   73.2717   14.7517 H   0  0  0  0  0  0
  -35.4504   71.7459   15.5810 H   0  0  0  0  0  0
  -34.2065   70.4962   15.9240 H   0  0  0  0  0  0
  -34.5262   71.5100   18.0074 H   0  0  0  0  0  0
  -33.0798   72.3657   17.3732 H   0  0  0  0  0  0
  -34.4161   74.0671   18.2848 H   0  0  0  0  0  0
  -34.7535   74.1516   16.5225 H   0  0  0  0  0  0
  -36.5239   72.6925   18.5314 H   0  0  0  0  0  0
  -36.7732   74.3891   17.9967 H   0  0  0  0  0  0
  -38.2284   72.8381   16.7711 H   0  0  0  0  0  0
  -36.7938   71.9187   16.2024 H   0  0  0  0  0  0
  -37.0431   73.6154   15.6677 H   0  0  0  0  0  0
  -28.5409   76.3516    5.8726 H   0  0  0  0  0  0
  -28.5920   76.2332    4.0810 H   0  0  0  0  0  0
  -27.1256   77.2137    2.7667 H   0  0  0  0  0  0
  -24.8693   78.1437    2.4646 H   0  0  0  0  0  0
  -33.4649   77.1876    6.4748 H   0  0  0  0  0  0
  -34.1985   79.4243    4.0147 H   0  0  0  0  0  0
  -33.0471   80.7693    4.3179 H   0  0  0  0  0  0
  -34.1999   81.0634    2.0701 H   0  0  0  0  0  0
  1  2  1  0  0  0
  1  4  1  0  0  0
  1  7  1  0  0  0
  1 31  1  0  0  0
  2  3  1  0  0  0
  2 28  1  0  0  0
  2 32  1  0  0  0
  3  6  1  0  0  0
  3 29  1  0  0  0
  3 33  1  0  0  0
  4  5  1  0  0  0
  4 23  1  0  0  0
  4 34  1  0  0  0
  5  6  1  0  0  0
  5 35  1  0  0  0
  5 36  1  0  0  0
  7  9  1  0  0  0
  8  9  2  0  0  0
  9 10  1  0  0  0
 10 11  1  0  0  0
 10 37  1  0  0  0
 10 38  1  0  0  0
 11 12  1  0  0  0
 11 39  1  0  0  0
 11 40  1  0  0  0
 12 13  1  0  0  0
 12 41  1  0  0  0
 12 42  1  0  0  0
 13 14  1  0  0  0
 13 43  1  0  0  0
 13 44  1  0  0  0
 14 15  1  0  0  0
 14 45  1  0  0  0
 14 46  1  0  0  0
 15 16  1  0  0  0
 15 47  1  0  0  0
 15 48  1  0  0  0
 16 17  1  0  0  0
 16 49  1  0  0  0
 16 50  1  0  0  0
 17 18  1  0  0  0
 17 51  1  0  0  0
 17 52  1  0  0  0
 18 19  1  0  0  0
 18 53  1  0  0  0
 18 54  1  0  0  0
 19 20  1  0  0  0
 19 55  1  0  0  0
 19 56  1  0  0  0
 20 21  1  0  0  0
 20 57  1  0  0  0
 20 58  1  0  0  0
 21 22  1  0  0  0
 21 59  1  0  0  0
 21 60  1  0  0  0
 22 61  1  0  0  0
 22 62  1  0  0  0
 22 63  1  0  0  0
 23 24  1  0  0  0
 23 64  1  0  0  0
 23 65  1  0  0  0
 24 25  2  0  0  0
 24 26  1  0  0  0
 26 27  1  0  0  0
 26 66  1  0  0  0
 27 67  1  0  0  0
 28 68  1  0  0  0
 29 30  1  0  0  0
 29 69  1  0  0  0
 29 70  1  0  0  0
 30 71  1  0  0  0
M  END
> <s_m_source_file>
../2go4_ligand.sdf

> <i_m_source_file_index>
1

> <s_epik_input>
W09IXVtOSF1DKD1PKVtDSDJdW0NASF0xW0NIMl1PW0NASF0oW0NIMl1bT0hdKVtDQEBIXShbT0hdKVtDQEBIXTFPQyg9TylbQ0gyXVtDSDJdW0NIMl1bQ0gyXVtDSDJdW0NIMl1bQ0gyXVtDSDJdW0NIMl1bQ0gyXVtDSDJdW0NIMl1bQ0gzXQ==

> <s_epik_cmdline>
J2VwaWtfYXBwJywgJy1pbWFlJywgJ2xpZ2FuZF9wcm8ubWFlJywgJy1vbWFlJywgJ2xpZ2FuZF9wcmVwLm1hZScsICctbXMnLCAnMScsICctcGgnLCAnNycsICctcGh0JywgJzAuNScsICctbnQn

> <r_lp_tautomer_probability>
1

> <r_epik_Ionization_Penalty>
  0.0052

> <r_epik_Ionization_Penalty_Charging>
  0.0000

> <r_epik_Ionization_Penalty_Neutral>
  0.0052

> <r_epik_State_Penalty>
 -0.0000

> <r_epik_Charging_Adjusted_Penalty>
0

> <i_epik_Tot_Q>
0

> <i_epik_Tot_abs_Q>
0

> <s_epik_Chemistry_Notes>
This compound has an ester and may undergo hydrolysis at high or low pH. This compound has a N-S or N-O group and may undergo hydrolysis at high or low pH.

$$$$
