2gph_ligand
                    3D
 Schrodinger Suite 2020-3.
262261  0  0  1  0            999 V2000
   25.5380   27.0060   13.8760 N   0  3  0  0  0  0
   24.8710   26.4110   15.0740 C   0  0  2  0  0  0
   23.9100   27.4310   15.6950 C   0  0  0  0  0  0
   24.2960   28.5700   15.9580 O   0  0  0  0  0  0
   25.9270   25.9870   16.1080 C   0  0  0  0  0  0
   26.0360   24.4770   16.3520 C   0  0  0  0  0  0
   27.3020   24.1150   17.1420 C   0  0  0  0  0  0
   28.5260   24.3390   16.3640 N   0  0  0  0  0  0
   29.7720   24.1520   16.8120 C   0  0  0  0  0  0
   29.9910   23.7320   18.0560 N   0  0  0  0  0  0
   30.8080   24.3780   16.0090 N   0  0  0  0  0  0
   22.6610   27.0240   15.9100 N   0  0  0  0  0  0
   21.6470   27.8920   16.5100 C   0  0  2  0  0  0
   22.2150   28.6240   17.7230 C   0  0  0  0  0  0
   21.9100   29.7960   17.9490 O   0  0  0  0  0  0
   20.4170   27.0570   16.9250 C   0  0  0  0  0  0
   19.4530   27.6360   17.9810 C   0  0  0  0  0  0
   18.9030   28.9840   17.5330 C   0  0  0  0  0  0
   18.3180   26.6460   18.2200 C   0  0  0  0  0  0
   23.0540   27.9270   18.4900 N   0  0  0  0  0  0
   23.6720   28.4960   19.6850 C   0  0  2  0  0  0
   24.6170   29.6570   19.3670 C   0  0  0  0  0  0
   24.6000   30.6780   20.0510 O   0  0  0  0  0  0
   24.4320   27.4060   20.4660 C   0  0  0  0  0  0
   25.2890   27.9410   21.6300 C   0  0  0  0  0  0
   25.9460   26.8420   22.4600 C   0  0  0  0  0  0
   26.3060   25.7850   21.9450 O   0  0  0  0  0  0
   26.1200   27.1040   23.7600 N   0  0  0  0  0  0
   25.4470   29.5090   18.3420 N   0  0  0  0  0  0
   26.3820   30.5770   17.9850 C   0  0  2  0  0  0
   25.5550   31.7720   17.5670 C   0  0  0  0  0  0
   25.8190   32.9040   17.9640 O   0  0  0  0  0  0
   27.2680   30.1630   16.8090 C   0  0  0  0  0  0
   27.9550   28.8290   16.9650 C   0  0  0  0  0  0
   28.6940   28.4200   15.6930 C   0  0  0  0  0  0
   28.1130   28.5810   14.5910 O   0  0  0  0  0  0
   29.8440   27.9310   15.7950 O   0  0  0  0  0  0
   24.5570   31.4880   16.7400 N   0  0  0  0  0  0
   23.6230   32.4730   16.2180 C   0  0  2  0  0  0
   23.0680   33.3450   17.3520 C   0  0  0  0  0  0
   22.9130   34.5540   17.1990 O   0  0  0  0  0  0
   22.4780   31.7340   15.5260 C   0  0  0  0  0  0
   22.0190   32.3450   14.2330 C   0  0  0  0  0  0
   21.6040   31.2580   13.2670 C   0  0  0  0  0  0
   20.2200   30.8360   13.4430 N   0  0  0  0  0  0
   19.8280   29.5640   13.4350 C   0  0  0  0  0  0
   20.7250   28.5950   13.2730 N   0  0  0  0  0  0
   18.5420   29.2650   13.5520 N   0  0  0  0  0  0
   22.7680   32.7200   18.4870 N   0  0  0  0  0  0
   22.2160   33.4420   19.6370 C   0  0  2  0  0  0
   23.3050   34.1400   20.4500 C   0  0  0  0  0  0
   23.0290   34.7560   21.4790 O   0  0  0  0  0  0
   21.4450   32.4720   20.5390 C   0  0  0  0  0  0
   20.1510   31.9410   19.9250 C   0  0  0  0  0  0
   19.0740   33.0130   19.7770 C   0  0  0  0  0  0
   17.8160   32.4370   19.3030 N   0  0  0  0  0  0
   17.5380   32.1730   18.0250 C   0  0  0  0  0  0
   18.4280   32.4480   17.0780 N   0  0  0  0  0  0
   16.3870   31.5960   17.6940 N   0  0  0  0  0  0
   24.5470   34.0120   19.9900 N   0  0  0  0  0  0
   25.6640   34.6420   20.6690 C   0  0  0  0  0  0
   26.1820   33.8970   21.8870 C   0  0  0  0  0  0
   26.9030   34.4770   22.7090 O   0  0  0  0  0  0
   25.8200   32.6230   22.0250 N   0  0  0  0  0  0
   26.2870   31.8460   23.1670 C   0  0  2  0  0  0
   27.6010   31.1770   22.7810 C   0  0  0  0  0  0
   27.6860   30.4780   21.7690 O   0  0  0  0  0  0
   25.2520   30.7950   23.5760 C   0  0  0  0  0  0
   25.6030   30.2130   24.8180 O   0  0  0  0  0  0
   28.6230   31.4060   23.5970 N   0  0  0  0  0  0
   29.9660   30.8790   23.3640 C   0  0  2  0  0  0
   30.2600   29.6010   24.1340 C   0  0  0  0  0  0
   31.1680   28.8460   23.7720 O   0  0  0  0  0  0
   30.9870   31.9250   23.7870 C   0  0  0  0  0  0
   30.7490   32.4100   25.2120 C   0  0  0  0  0  0
   29.7790   33.1340   25.4810 O   0  0  0  0  0  0
   31.6190   31.9960   26.1370 N   0  0  0  0  0  0
   29.5140   29.3910   25.2150 N   0  0  0  0  0  0
   29.6870   28.2240   26.0630 C   0  0  2  0  0  0
   29.8150   26.9570   25.2290 C   0  0  0  0  0  0
   28.9110   26.6030   24.4730 O   0  0  0  0  0  0
   28.5050   28.0830   27.0510 C   0  0  0  0  0  0
   28.6840   26.8390   27.9050 C   0  0  0  0  0  0
   28.4290   29.3200   27.9400 C   0  0  0  0  0  0
   30.9560   26.2890   25.3620 N   0  0  0  0  0  0
   31.2190   25.0600   24.6260 C   0  0  2  0  0  0
   30.4760   23.8980   25.2750 C   0  0  0  0  0  0
   30.9940   23.2460   26.1730 O   0  0  0  0  0  0
   32.7090   24.7760   24.6080 C   0  0  0  0  0  0
   29.2620   23.6360   24.8080 N   0  0  0  0  0  0
   28.4570   22.5620   25.3700 C   0  0  2  0  0  0
   28.8760   21.2090   24.8200 C   0  0  0  0  0  0
   28.7480   20.9420   23.6260 O   0  0  0  0  0  0
   26.9730   22.8330   25.0990 C   0  0  0  0  0  0
   26.4700   24.1470   25.7140 C   0  0  0  0  0  0
   24.9970   24.3420   25.4110 C   0  0  0  0  0  0
   26.6930   24.1250   27.2190 C   0  0  0  0  0  0
   29.3990   20.3610   25.6970 N   0  0  0  0  0  0
   29.8410   19.0420   25.2800 C   0  0  2  0  0  0
   28.9780   17.9100   25.8050 C   0  0  0  0  0  0
   28.2760   18.0480   26.8010 O   0  0  0  0  0  0
   31.2730   18.8130   25.7230 C   0  0  0  0  0  0
   32.2360   19.8610   25.2130 C   0  0  0  0  0  0
   33.8670   19.5460   25.8700 S   0  0  0  0  0  0
   33.5510   19.7520   27.6710 C   0  0  0  0  0  0
   29.0530   16.7810   25.1130 N   0  0  0  0  0  0
   28.3090   15.5860   25.4760 C   0  0  2  0  0  0
   29.3340   14.5170   25.8090 C   0  0  0  0  0  0
   30.4020   14.4650   25.1980 O   0  0  0  0  0  0
   27.4460   15.1140   24.2980 C   0  0  0  0  0  0
   26.4660   16.1250   23.6990 C   0  0  0  0  0  0
   25.6410   15.4450   22.6180 C   0  0  0  0  0  0
   25.5690   16.6870   24.7990 C   0  0  0  0  0  0
   29.0160   13.6580   26.7650 N   0  0  0  0  0  0
   29.9480   12.6150   27.1330 C   0  0  2  0  0  0
   29.5190   11.2660   26.5780 C   0  0  0  0  0  0
   30.2710   10.3020   26.6310 O   0  0  0  0  0  0
   30.0920   12.5500   28.6530 C   0  0  0  0  0  0
   31.3550   11.8180   29.0820 C   0  0  0  0  0  0
   31.2450   10.6710   29.5730 O   0  0  0  0  0  0
   32.4530   12.3980   28.9120 O   0  0  0  0  0  0
   28.3010   11.1980   26.0500 N   0  0  0  0  0  0
   27.7920    9.9560   25.4680 C   0  0  2  0  0  0
   26.6590   10.2490   24.4900 C   0  0  0  0  0  0
   26.6540   11.3690   23.9310 O   0  0  0  0  0  0
   27.3030    8.9840   26.5560 C   0  0  0  0  0  0
   25.7590    9.4660   27.3950 S   0  0  0  0  0  0
   25.8100    9.3490   24.2810 O   0  0  0  0  0  0
   24.7749   27.3059   13.1427 H   0  0  0  0  0  0
   26.2096   26.2619   13.4229 H   0  0  0  0  0  0
   26.1203   27.8880   14.1808 H   0  0  0  0  0  0
   24.3069   25.5293   14.7357 H   0  0  0  0  0  0
   26.9207   26.3220   15.7758 H   0  0  0  0  0  0
   25.6922   26.4442   17.0806 H   0  0  0  0  0  0
   25.1622   24.1343   16.9255 H   0  0  0  0  0  0
   26.0701   23.9511   15.3865 H   0  0  0  0  0  0
   27.3571   24.7336   18.0499 H   0  0  0  0  0  0
   27.2669   23.0523   17.4240 H   0  0  0  0  0  0
   28.4599   24.6893   15.3234 H   0  0  0  0  0  0
   29.1425   23.5416   18.7296 H   0  0  0  0  0  0
   31.0205   23.5753   18.4104 H   0  0  0  0  0  0
   30.6399   24.7253   14.9789 H   0  0  0  0  0  0
   22.4021   25.9952   15.6193 H   0  0  0  0  0  0
   21.3813   28.6250   15.7340 H   0  0  0  0  0  0
   19.7863   26.8701   16.0433 H   0  0  0  0  0  0
   20.7506   26.0976   17.3472 H   0  0  0  0  0  0
   19.9915   27.8011   18.9259 H   0  0  0  0  0  0
   19.7360   29.6828   17.3662 H   0  0  0  0  0  0
   18.2378   29.3857   18.3116 H   0  0  0  0  0  0
   18.3380   28.8570   16.5978 H   0  0  0  0  0  0
   18.7353   25.6806   18.5422 H   0  0  0  0  0  0
   17.7501   26.5073   17.2882 H   0  0  0  0  0  0
   17.6499   27.0360   19.0020 H   0  0  0  0  0  0
   23.2758   26.8903   18.1966 H   0  0  0  0  0  0
   22.8191   28.8867   20.2594 H   0  0  0  0  0  0
   23.7123   26.6944   20.8968 H   0  0  0  0  0  0
   25.1114   26.8730   19.7846 H   0  0  0  0  0  0
   26.0933   28.5767   21.2312 H   0  0  0  0  0  0
   24.6571   28.5322   22.3091 H   0  0  0  0  0  0
   25.7819   28.0638   24.1777 H   0  0  0  0  0  0
   26.6012   26.3597   24.4115 H   0  0  0  0  0  0
   25.4291   28.5761   17.7594 H   0  0  0  0  0  0
   27.0066   30.7816   18.8670 H   0  0  0  0  0  0
   26.6583   30.0978   15.8958 H   0  0  0  0  0  0
   28.0621   30.9109   16.6671 H   0  0  0  0  0  0
   28.6854   28.8865   17.7855 H   0  0  0  0  0  0
   27.2068   28.0557   17.1936 H   0  0  0  0  0  0
   28.6181   28.2964   13.6562 H   0  0  0  0  0  0
   24.4596   30.4309   16.4519 H   0  0  0  0  0  0
   24.1857   33.0989   15.5098 H   0  0  0  0  0  0
   22.7921   30.7055   15.2948 H   0  0  0  0  0  0
   21.6024   31.7091   16.1914 H   0  0  0  0  0  0
   21.1612   33.0065   14.4242 H   0  0  0  0  0  0
   22.8404   32.9281   13.7910 H   0  0  0  0  0  0
   21.7127   31.6234   12.2352 H   0  0  0  0  0  0
   22.2432   30.3746   13.4124 H   0  0  0  0  0  0
   19.4308   31.5874   13.5932 H   0  0  0  0  0  0
   21.7921   28.8439   13.1760 H   0  0  0  0  0  0
   20.3996   27.5449   13.2361 H   0  0  0  0  0  0
   17.8009   30.0668   13.6859 H   0  0  0  0  0  0
   22.9432   31.6359   18.5507 H   0  0  0  0  0  0
   21.5499   34.2030   19.2044 H   0  0  0  0  0  0
   22.0768   31.6003   20.7646 H   0  0  0  0  0  0
   21.1731   32.9801   21.4760 H   0  0  0  0  0  0
   20.3592   31.5375   18.9231 H   0  0  0  0  0  0
   19.7422   31.1441   20.5636 H   0  0  0  0  0  0
   18.8959   33.4908   20.7517 H   0  0  0  0  0  0
   19.4079   33.7707   19.0528 H   0  0  0  0  0  0
   17.0191   32.1907   20.0202 H   0  0  0  0  0  0
   19.3830   32.9253   17.3427 H   0  0  0  0  0  0
   15.6441   31.3646   18.4716 H   0  0  0  0  0  0
   16.1775   31.3499   16.6425 H   0  0  0  0  0  0
   24.7204   33.4178   19.0807 H   0  0  0  0  0  0
   26.5113   34.7337   19.9736 H   0  0  0  0  0  0
   25.3651   35.6419   21.0166 H   0  0  0  0  0  0
   25.1660   32.1571   21.2732 H   0  0  0  0  0  0
   26.4272   32.5491   24.0013 H   0  0  0  0  0  0
   24.2643   31.2701   23.6697 H   0  0  0  0  0  0
   25.2083   30.0061   22.8106 H   0  0  0  0  0  0
   24.9641   29.4348   25.2609 H   0  0  0  0  0  0
   28.4213   32.0252   24.4835 H   0  0  0  0  0  0
   29.9871   30.6562   22.2870 H   0  0  0  0  0  0
   31.9974   31.4932   23.7350 H   0  0  0  0  0  0
   30.9239   32.7924   23.1135 H   0  0  0  0  0  0
   32.4645   31.3541   25.8487 H   0  0  0  0  0  0
   31.4901   32.2970   27.1871 H   0  0  0  0  0  0
   28.7447   30.1386   25.4584 H   0  0  0  0  0  0
   30.6308   28.4094   26.5968 H   0  0  0  0  0  0
   27.5604   27.9845   26.4960 H   0  0  0  0  0  0
   28.7377   25.9529   27.2554 H   0  0  0  0  0  0
   27.8301   26.7394   28.5912 H   0  0  0  0  0  0
   29.6138   26.9242   28.4866 H   0  0  0  0  0  0
   28.2995   30.2146   27.3132 H   0  0  0  0  0  0
   29.3582   29.4111   28.5216 H   0  0  0  0  0  0
   27.5745   29.2263   28.6263 H   0  0  0  0  0  0
   31.7132   26.6896   26.0521 H   0  0  0  0  0  0
   30.8559   25.2228   23.6005 H   0  0  0  0  0  0
   33.2373   25.6189   24.1384 H   0  0  0  0  0  0
   32.9003   23.8576   24.0337 H   0  0  0  0  0  0
   33.0699   24.6457   25.6389 H   0  0  0  0  0  0
   28.8662   24.2459   23.9825 H   0  0  0  0  0  0
   28.6602   22.5683   26.4510 H   0  0  0  0  0  0
   26.8030   22.8902   24.0137 H   0  0  0  0  0  0
   26.3681   22.0177   25.5224 H   0  0  0  0  0  0
   27.0234   24.9923   25.2791 H   0  0  0  0  0  0
   24.8456   24.3566   24.3216 H   0  0  0  0  0  0
   24.6573   25.2957   25.8412 H   0  0  0  0  0  0
   24.4197   23.5152   25.8504 H   0  0  0  0  0  0
   27.7634   23.9832   27.4290 H   0  0  0  0  0  0
   26.1196   23.2977   27.6626 H   0  0  0  0  0  0
   26.3572   25.0782   27.6534 H   0  0  0  0  0  0
   29.4960   20.6664   26.7493 H   0  0  0  0  0  0
   29.7406   19.0752   24.1851 H   0  0  0  0  0  0
   31.3234   18.8259   26.8218 H   0  0  0  0  0  0
   31.6202   17.8376   25.3515 H   0  0  0  0  0  0
   32.2709   19.8232   24.1142 H   0  0  0  0  0  0
   31.8982   20.8571   25.5350 H   0  0  0  0  0  0
   34.4845   19.5853   28.2285 H   0  0  0  0  0  0
   32.7945   19.0227   27.9963 H   0  0  0  0  0  0
   33.1851   20.7711   27.8648 H   0  0  0  0  0  0
   29.7117   16.7724   24.2321 H   0  0  0  0  0  0
   27.6657   15.8317   26.3338 H   0  0  0  0  0  0
   28.0972   14.8081   23.4659 H   0  0  0  0  0  0
   26.8295   14.2597   24.6143 H   0  0  0  0  0  0
   27.0154   16.9609   23.2414 H   0  0  0  0  0  0
   26.3106   15.0500   21.8398 H   0  0  0  0  0  0
   24.9496   16.1745   22.1711 H   0  0  0  0  0  0
   25.0660   14.6185   23.0611 H   0  0  0  0  0  0
   26.1900   17.1723   25.5663 H   0  0  0  0  0  0
   24.9935   15.8688   25.2566 H   0  0  0  0  0  0
   24.8771   17.4248   24.3667 H   0  0  0  0  0  0
   28.0465   13.7357   27.2789 H   0  0  0  0  0  0
   30.9005   12.9054   26.6657 H   0  0  0  0  0  0
   30.1342   13.5706   29.0613 H   0  0  0  0  0  0
   29.2286   12.0194   29.0808 H   0  0  0  0  0  0
   33.3888   11.9020   29.2091 H   0  0  0  0  0  0
   27.6722   12.1005   26.0566 H   0  0  0  0  0  0
   28.6503    9.5218   24.9343 H   0  0  0  0  0  0
   27.1197    7.9957   26.1092 H   0  0  0  0  0  0
   28.0695    8.8955   27.3400 H   0  0  0  0  0  0
   25.3400    8.8265   28.1859 H   0  0  0  0  0  0
   24.9801    9.5275   23.5815 H   0  0  0  0  0  0
  1  2  1  0  0  0
  1129  1  0  0  0
  1130  1  0  0  0
  1131  1  0  0  0
  2  3  1  0  0  0
  2  5  1  0  0  0
  2132  1  0  0  0
  3  4  2  0  0  0
  3 12  1  0  0  0
  5  6  1  0  0  0
  5133  1  0  0  0
  5134  1  0  0  0
  6  7  1  0  0  0
  6135  1  0  0  0
  6136  1  0  0  0
  7  8  1  0  0  0
  7137  1  0  0  0
  7138  1  0  0  0
  8  9  1  0  0  0
  8139  1  0  0  0
  9 10  1  0  0  0
  9 11  2  0  0  0
 10140  1  0  0  0
 10141  1  0  0  0
 11142  1  0  0  0
 12 13  1  0  0  0
 12143  1  0  0  0
 13 14  1  0  0  0
 13 16  1  0  0  0
 13144  1  0  0  0
 14 15  2  0  0  0
 14 20  1  0  0  0
 16 17  1  0  0  0
 16145  1  0  0  0
 16146  1  0  0  0
 17 18  1  0  0  0
 17 19  1  0  0  0
 17147  1  0  0  0
 18148  1  0  0  0
 18149  1  0  0  0
 18150  1  0  0  0
 19151  1  0  0  0
 19152  1  0  0  0
 19153  1  0  0  0
 20 21  1  0  0  0
 20154  1  0  0  0
 21 22  1  0  0  0
 21 24  1  0  0  0
 21155  1  0  0  0
 22 23  2  0  0  0
 22 29  1  0  0  0
 24 25  1  0  0  0
 24156  1  0  0  0
 24157  1  0  0  0
 25 26  1  0  0  0
 25158  1  0  0  0
 25159  1  0  0  0
 26 27  2  0  0  0
 26 28  1  0  0  0
 28160  1  0  0  0
 28161  1  0  0  0
 29 30  1  0  0  0
 29162  1  0  0  0
 30 31  1  0  0  0
 30 33  1  0  0  0
 30163  1  0  0  0
 31 32  2  0  0  0
 31 38  1  0  0  0
 33 34  1  0  0  0
 33164  1  0  0  0
 33165  1  0  0  0
 34 35  1  0  0  0
 34166  1  0  0  0
 34167  1  0  0  0
 35 36  1  0  0  0
 35 37  2  0  0  0
 36168  1  0  0  0
 38 39  1  0  0  0
 38169  1  0  0  0
 39 40  1  0  0  0
 39 42  1  0  0  0
 39170  1  0  0  0
 40 41  2  0  0  0
 40 49  1  0  0  0
 42 43  1  0  0  0
 42171  1  0  0  0
 42172  1  0  0  0
 43 44  1  0  0  0
 43173  1  0  0  0
 43174  1  0  0  0
 44 45  1  0  0  0
 44175  1  0  0  0
 44176  1  0  0  0
 45 46  1  0  0  0
 45177  1  0  0  0
 46 47  1  0  0  0
 46 48  2  0  0  0
 47178  1  0  0  0
 47179  1  0  0  0
 48180  1  0  0  0
 49 50  1  0  0  0
 49181  1  0  0  0
 50 51  1  0  0  0
 50 53  1  0  0  0
 50182  1  0  0  0
 51 52  2  0  0  0
 51 60  1  0  0  0
 53 54  1  0  0  0
 53183  1  0  0  0
 53184  1  0  0  0
 54 55  1  0  0  0
 54185  1  0  0  0
 54186  1  0  0  0
 55 56  1  0  0  0
 55187  1  0  0  0
 55188  1  0  0  0
 56 57  1  0  0  0
 56189  1  0  0  0
 57 58  2  0  0  0
 57 59  1  0  0  0
 58190  1  0  0  0
 59191  1  0  0  0
 59192  1  0  0  0
 60 61  1  0  0  0
 60193  1  0  0  0
 61 62  1  0  0  0
 61194  1  0  0  0
 61195  1  0  0  0
 62 63  2  0  0  0
 62 64  1  0  0  0
 64 65  1  0  0  0
 64196  1  0  0  0
 65 66  1  0  0  0
 65 68  1  0  0  0
 65197  1  0  0  0
 66 67  2  0  0  0
 66 70  1  0  0  0
 68 69  1  0  0  0
 68198  1  0  0  0
 68199  1  0  0  0
 69200  1  0  0  0
 70 71  1  0  0  0
 70201  1  0  0  0
 71 72  1  0  0  0
 71 74  1  0  0  0
 71202  1  0  0  0
 72 73  2  0  0  0
 72 78  1  0  0  0
 74 75  1  0  0  0
 74203  1  0  0  0
 74204  1  0  0  0
 75 76  2  0  0  0
 75 77  1  0  0  0
 77205  1  0  0  0
 77206  1  0  0  0
 78 79  1  0  0  0
 78207  1  0  0  0
 79 80  1  0  0  0
 79 82  1  0  0  0
 79208  1  0  0  0
 80 81  2  0  0  0
 80 85  1  0  0  0
 82 83  1  0  0  0
 82 84  1  0  0  0
 82209  1  0  0  0
 83210  1  0  0  0
 83211  1  0  0  0
 83212  1  0  0  0
 84213  1  0  0  0
 84214  1  0  0  0
 84215  1  0  0  0
 85 86  1  0  0  0
 85216  1  0  0  0
 86 87  1  0  0  0
 86 89  1  0  0  0
 86217  1  0  0  0
 87 88  2  0  0  0
 87 90  1  0  0  0
 89218  1  0  0  0
 89219  1  0  0  0
 89220  1  0  0  0
 90 91  1  0  0  0
 90221  1  0  0  0
 91 92  1  0  0  0
 91 94  1  0  0  0
 91222  1  0  0  0
 92 93  2  0  0  0
 92 98  1  0  0  0
 94 95  1  0  0  0
 94223  1  0  0  0
 94224  1  0  0  0
 95 96  1  0  0  0
 95 97  1  0  0  0
 95225  1  0  0  0
 96226  1  0  0  0
 96227  1  0  0  0
 96228  1  0  0  0
 97229  1  0  0  0
 97230  1  0  0  0
 97231  1  0  0  0
 98 99  1  0  0  0
 98232  1  0  0  0
 99100  1  0  0  0
 99102  1  0  0  0
 99233  1  0  0  0
100101  2  0  0  0
100106  1  0  0  0
102103  1  0  0  0
102234  1  0  0  0
102235  1  0  0  0
103104  1  0  0  0
103236  1  0  0  0
103237  1  0  0  0
104105  1  0  0  0
105238  1  0  0  0
105239  1  0  0  0
105240  1  0  0  0
106107  1  0  0  0
106241  1  0  0  0
107108  1  0  0  0
107110  1  0  0  0
107242  1  0  0  0
108109  2  0  0  0
108114  1  0  0  0
110111  1  0  0  0
110243  1  0  0  0
110244  1  0  0  0
111112  1  0  0  0
111113  1  0  0  0
111245  1  0  0  0
112246  1  0  0  0
112247  1  0  0  0
112248  1  0  0  0
113249  1  0  0  0
113250  1  0  0  0
113251  1  0  0  0
114115  1  0  0  0
114252  1  0  0  0
115116  1  0  0  0
115118  1  0  0  0
115253  1  0  0  0
116117  2  0  0  0
116122  1  0  0  0
118119  1  0  0  0
118254  1  0  0  0
118255  1  0  0  0
119120  2  0  0  0
119121  1  0  0  0
121256  1  0  0  0
122123  1  0  0  0
122257  1  0  0  0
123124  1  0  0  0
123126  1  0  0  0
123258  1  0  0  0
124125  2  0  0  0
124128  1  0  0  0
126127  1  0  0  0
126259  1  0  0  0
126260  1  0  0  0
127261  1  0  0  0
128262  1  0  0  0
M  CHG  1   1   1
M  END
> <s_m_source_file>
../2gph_ligand.sdf

> <i_m_source_file_index>
1

> <s_epik_input>
W0hdL049QyhbTkgyXSlcW05IXVtDSDJdW0NIMl1bQ0gyXVtDQEhdKFtOSDMrXSlDKD1PKVtOSF1bQ0BASF0oW0NIMl1bQ0hdKFtDSDNdKVtDSDNdKUMoPU8pW05IXVtDQEBIXShbQ0gyXVtDSDJdQyg9TylbTkgyXSlDKD1PKVtOSF1bQ0BASF0oW0NIMl1bQ0gyXUMoPU8pW09IXSlDKD1PKVtOSF1bQ0BASF0oW0NIMl1bQ0gyXVtDSDJdW05IXS9DKFtOSDJdKT1OXFtIXSlDKD1PKVtOSF1bQ0BASF0oW0NIMl1bQ0gyXVtDSDJdW05IXS9DKD1OXFtIXSlbTkgyXSlDKD1PKVtOSF1bQ0gyXUMoPU8pW05IXVtDQEBIXShbQ0gyXVtPSF0pQyg9TylbTkhdW0NAQEhdKFtDSDJdQyg9TylbTkgyXSlDKD1PKVtOSF1bQ0BASF0oW0NIXShbQ0gzXSlbQ0gzXSlDKD1PKVtOSF1bQ0BASF0oW0NIM10pQyg9TylbTkhdW0NAQEhdKFtDSDJdW0NIXShbQ0gzXSlbQ0gzXSlDKD1PKVtOSF1bQ0BASF0oW0NIMl1bQ0gyXVNbQ0gzXSlDKD1PKVtOSF1bQ0BASF0oW0NIMl1bQ0hdKFtDSDNdKVtDSDNdKUMoPU8pW05IXVtDQEBIXShbQ0gyXUMoPU8pW09IXSlDKD1PKVtOSF1bQ0BIXShDKD1PKVtPSF0pW0NIMl1bU0hd

> <s_epik_cmdline>
J2VwaWtfYXBwJywgJy1pbWFlJywgJ2xpZ2FuZF9wcm8ubWFlJywgJy1vbWFlJywgJ2xpZ2FuZF9wcmVwLm1hZScsICctbXMnLCAnMScsICctcGgnLCAnNycsICctcGh0JywgJzAuNScsICctbnQn

> <s_epik_pKa_notes>
Molecule size exceeds maximum supported for generating protonation states

> <s_epik_Chemistry_Notes>
This compound has an imine and may undergo hydrolysis.

$$$$
