2gqn_ligand
                    3D
 Schrodinger Suite 2020-3.
 48 49  0  0  1  0            999 V2000
  -12.8740    6.5150   51.7590 O   0  5  0  0  0  0
  -13.2040    6.4870   50.5450 N   0  3  0  0  0  0
  -13.4880    5.3210   50.0700 O   0  0  0  0  0  0
  -13.2970    7.5950   49.7160 C   0  0  0  0  0  0
  -13.7630    7.3110   48.4000 C   0  0  0  0  0  0
  -13.8990    8.3310   47.4220 C   0  0  0  0  0  0
  -13.6060    9.6720   47.7690 C   0  0  0  0  0  0
  -13.1610    9.9170   49.0600 C   0  0  0  0  0  0
  -12.9840    8.9160   50.0540 C   0  0  0  0  0  0
  -12.5810    9.3860   51.4560 C   0  0  0  0  0  0
  -12.6810    8.5970   52.4490 O   0  0  0  0  0  0
  -12.2710   10.7080   51.6990 N   0  0  0  0  0  0
  -11.9090   11.4460   52.9430 C   0  0  0  0  0  0
  -10.5400   11.0340   52.9920 C   0  0  0  0  0  0
  -10.2930   10.4080   54.0210 O   0  0  0  0  0  0
   -9.7010   11.2780   51.8690 N   0  0  0  0  0  0
   -8.3730   10.6990   52.0350 N   0  0  0  0  0  0
   -7.4090   10.4640   51.2110 C   0  0  0  0  0  0
   -6.2130    9.6720   51.7270 C   0  0  0  0  0  0
   -6.0110    9.3090   53.0920 C   0  0  0  0  0  0
   -6.8670    9.6970   54.0990 O   0  5  0  0  0  0
   -4.9020    8.5200   53.4530 C   0  0  0  0  0  0
   -4.6130    8.1200   54.8850 C   0  0  0  0  0  0
   -5.2920    9.1640   50.7810 C   0  0  0  0  0  0
   -4.2190    8.3790   51.1950 C   0  0  0  0  0  0
   -4.0400    8.0840   52.4860 N   0  3  0  0  0  0
   -5.4270    9.4160   49.2750 C   0  0  0  0  0  0
   -4.7080   10.5680   48.8460 O   0  0  0  0  0  0
   -5.2460   11.4460   47.5990 P   0  0  0  0  0  0
   -6.6830   11.8050   48.0690 O   0  5  0  0  0  0
   -4.3080   12.6080   47.6150 O   0  0  0  0  0  0
   -5.2040   10.4340   46.4490 O   0  5  0  0  0  0
  -14.0215    6.2851   48.1375 H   0  0  0  0  0  0
  -14.2263    8.0838   46.4121 H   0  0  0  0  0  0
  -13.7256   10.4815   47.0489 H   0  0  0  0  0  0
  -12.9313   10.9475   49.3308 H   0  0  0  0  0  0
  -12.3262   11.2421   50.7390 H   0  0  0  0  0  0
  -12.0721   12.5232   52.7909 H   0  0  0  0  0  0
  -12.5374   11.0938   53.7743 H   0  0  0  0  0  0
   -9.9503   11.8279   50.9495 H   0  0  0  0  0  0
   -7.4682   10.8316   50.1760 H   0  0  0  0  0  0
   -5.3853    8.5403   55.5461 H   0  0  0  0  0  0
   -3.6266    8.5062   55.1816 H   0  0  0  0  0  0
   -4.6172    7.0231   54.9673 H   0  0  0  0  0  0
   -3.5145    7.9994   50.4549 H   0  0  0  0  0  0
   -5.0369    8.5490   48.7218 H   0  0  0  0  0  0
   -6.4869    9.5658   49.0218 H   0  0  0  0  0  0
   -3.1687    7.4716   52.7614 H   0  0  0  0  0  0
  1  2  1  0  0  0
  2  3  2  0  0  0
  2  4  1  0  0  0
  4  5  2  0  0  0
  4  9  1  0  0  0
  5  6  1  0  0  0
  5 33  1  0  0  0
  6  7  2  0  0  0
  6 34  1  0  0  0
  7  8  1  0  0  0
  7 35  1  0  0  0
  8  9  2  0  0  0
  8 36  1  0  0  0
  9 10  1  0  0  0
 10 11  2  0  0  0
 10 12  1  0  0  0
 12 13  1  0  0  0
 12 37  1  0  0  0
 13 14  1  0  0  0
 13 38  1  0  0  0
 13 39  1  0  0  0
 14 15  2  0  0  0
 14 16  1  0  0  0
 16 17  1  0  0  0
 16 40  1  0  0  0
 17 18  2  0  0  0
 18 19  1  0  0  0
 18 41  1  0  0  0
 19 20  2  0  0  0
 19 24  1  0  0  0
 20 21  1  0  0  0
 20 22  1  0  0  0
 22 23  1  0  0  0
 22 26  2  0  0  0
 23 42  1  0  0  0
 23 43  1  0  0  0
 23 44  1  0  0  0
 24 25  2  0  0  0
 24 27  1  0  0  0
 25 26  1  0  0  0
 25 45  1  0  0  0
 26 48  1  0  0  0
 27 28  1  0  0  0
 27 46  1  0  0  0
 27 47  1  0  0  0
 28 29  1  0  0  0
 29 30  1  0  0  0
 29 31  2  0  0  0
 29 32  1  0  0  0
M  CHG  6   1  -1   2   1  21  -1  26   1  30  -1  32  -1
M  END
> <s_m_source_file>
../2gqn_ligand.sdf

> <i_m_source_file_index>
1

> <s_epik_input>
W08tXVtOK10oPU8pYzFbY0hdW2NIXVtjSF1bY0hdYzFDKD1PKVtOSF1bQ0gyXUMoPU8pW05IXS9OPVtDSF0vYzJjKFtPSF0pYyhbQ0gzXSluW2NIXWMyW0NIMl1PUCg9TykoW09IXSlbT0hd

> <s_epik_cmdline>
J2VwaWtfYXBwJywgJy1pbWFlJywgJ2xpZ2FuZF9wcm8ubWFlJywgJy1vbWFlJywgJ2xpZ2FuZF9wcmVwLm1hZScsICctbXMnLCAnMScsICctcGgnLCAnNycsICctcGh0JywgJzAuNScsICctbnQn

> <r_lp_tautomer_probability>
1

> <r_epik_Ionization_Penalty>
  0.0932

> <r_epik_Ionization_Penalty_Charging>
  0.0927

> <r_epik_Ionization_Penalty_Neutral>
  0.0005

> <r_epik_State_Penalty>
 -0.0000

> <r_epik_Charging_Adjusted_Penalty>
0.0927339803556522

> <i_epik_Tot_Q>
-2

> <i_epik_Tot_abs_Q>
6

> <s_epik_Chemistry_Notes>
This compound has an imine and may undergo hydrolysis.

$$$$
