2gst_ligand
                    3D
 Schrodinger Suite 2020-3.
 61 63  0  0  1  0            999 V2000
   14.5290   14.7370   24.8900 N   0  3  0  0  0  0
   14.2360   15.2720   26.2990 C   0  0  2  0  0  0
   13.3570   16.4680   26.1920 C   0  0  0  0  0  0
   12.4840   16.8710   26.9910 O   0  0  0  0  0  0
   13.2920   17.1450   24.9790 O   0  5  0  0  0  0
   15.6600   15.6090   26.8930 C   0  0  0  0  0  0
   15.3370   15.9670   28.3530 C   0  0  0  0  0  0
   16.5850   16.1850   29.1690 C   0  0  0  0  0  0
   17.7430   15.9140   28.7680 O   0  0  0  0  0  0
   16.3040   16.5080   30.4590 N   0  0  0  0  0  0
   17.4070   17.0290   31.2870 C   0  0  2  0  0  0
   17.0800   16.5220   32.7420 C   0  0  0  0  0  0
   17.8450   17.0550   33.5350 O   0  0  0  0  0  0
   17.1720   18.5740   31.3290 C   0  0  0  0  0  0
   17.3830   19.3950   29.7930 S   0  0  0  0  0  0
   16.3980   15.3850   32.8590 N   0  0  0  0  0  0
   16.0460   14.8750   34.1920 C   0  0  0  0  0  0
   16.7690   13.6100   34.5130 C   0  0  0  0  0  0
   17.6580   13.1470   33.7470 O   0  0  0  0  0  0
   16.4020   13.0050   35.6380 O   0  5  0  0  0  0
   19.0400   19.4160   29.3160 C   0  0  1  0  0  0
   19.4100   20.7740   28.7470 C   0  0  0  0  0  0
   19.2580   20.8670   27.3240 C   0  0  0  0  0  0
   19.6050   22.0520   26.7350 C   0  0  0  0  0  0
   20.0650   23.1500   27.4810 C   0  0  0  0  0  0
   20.1690   23.0530   28.8730 C   0  0  0  0  0  0
   19.8680   21.8530   29.5160 C   0  0  0  0  0  0
   19.9440   21.6730   30.9250 C   0  0  0  0  0  0
   19.9530   22.7900   31.8070 C   0  0  0  0  0  0
   20.0770   22.5870   33.1920 C   0  0  0  0  0  0
   20.1880   21.2700   33.6940 C   0  0  0  0  0  0
   20.1680   20.1760   32.8320 C   0  0  0  0  0  0
   20.0200   20.4050   31.4260 C   0  0  0  0  0  0
   20.0380   19.2230   30.4890 C   0  0  2  0  0  0
   21.4250   19.1070   30.0180 O   0  0  0  0  0  0
   15.1787   13.8523   24.9615 H   0  0  0  0  0  0
   15.0338   15.5159   24.2997 H   0  0  0  0  0  0
   13.5844   14.4596   24.3994 H   0  0  0  0  0  0
   13.6586   14.5843   26.9343 H   0  0  0  0  0  0
   16.3122   14.7277   26.8043 H   0  0  0  0  0  0
   16.1005   16.4487   26.3355 H   0  0  0  0  0  0
   14.7421   16.8918   28.3807 H   0  0  0  0  0  0
   14.7639   15.1485   28.8131 H   0  0  0  0  0  0
   15.2988   16.3934   30.8908 H   0  0  0  0  0  0
   18.3878   16.7245   30.8929 H   0  0  0  0  0  0
   16.1428   18.7795   31.6585 H   0  0  0  0  0  0
   17.8811   19.0338   32.0331 H   0  0  0  0  0  0
   16.0978   14.8271   31.9598 H   0  0  0  0  0  0
   16.3095   15.6246   34.9527 H   0  0  0  0  0  0
   14.9653   14.6740   34.2341 H   0  0  0  0  0  0
   19.2387   18.6296   28.5729 H   0  0  0  0  0  0
   18.8820   20.0292   26.7368 H   0  0  0  0  0  0
   19.5219   22.1473   25.6524 H   0  0  0  0  0  0
   20.3404   24.0760   26.9762 H   0  0  0  0  0  0
   20.4861   23.9176   29.4561 H   0  0  0  0  0  0
   19.8639   23.8008   31.4090 H   0  0  0  0  0  0
   20.0875   23.4377   33.8734 H   0  0  0  0  0  0
   20.2903   21.1090   34.7672 H   0  0  0  0  0  0
   20.2634   19.1623   33.2211 H   0  0  0  0  0  0
   19.7643   18.2941   31.0107 H   0  0  0  0  0  0
   21.7016   18.3091   29.3131 H   0  0  0  0  0  0
  1  2  1  0  0  0
  1 36  1  0  0  0
  1 37  1  0  0  0
  1 38  1  0  0  0
  2  6  1  0  0  0
  2  3  1  0  0  0
  2 39  1  0  0  0
  3  5  1  0  0  0
  3  4  2  0  0  0
  6  7  1  0  0  0
  6 40  1  0  0  0
  6 41  1  0  0  0
  7  8  1  0  0  0
  7 42  1  0  0  0
  7 43  1  0  0  0
  8 10  1  0  0  0
  8  9  2  0  0  0
 10 11  1  0  0  0
 10 44  1  0  0  0
 11 14  1  0  0  0
 11 12  1  0  0  0
 11 45  1  0  0  0
 12 16  1  0  0  0
 12 13  2  0  0  0
 14 15  1  0  0  0
 14 46  1  0  0  0
 14 47  1  0  0  0
 15 21  1  0  0  0
 16 17  1  0  0  0
 16 48  1  0  0  0
 17 18  1  0  0  0
 17 49  1  0  0  0
 17 50  1  0  0  0
 18 20  1  0  0  0
 18 19  2  0  0  0
 21 22  1  0  0  0
 21 34  1  0  0  0
 21 51  1  0  0  0
 22 27  1  0  0  0
 22 23  2  0  0  0
 23 24  1  0  0  0
 23 52  1  0  0  0
 24 25  2  0  0  0
 24 53  1  0  0  0
 25 26  1  0  0  0
 25 54  1  0  0  0
 26 27  2  0  0  0
 26 55  1  0  0  0
 27 28  1  0  0  0
 28 33  1  0  0  0
 28 29  2  0  0  0
 29 30  1  0  0  0
 29 56  1  0  0  0
 30 31  2  0  0  0
 30 57  1  0  0  0
 31 32  1  0  0  0
 31 58  1  0  0  0
 32 33  2  0  0  0
 32 59  1  0  0  0
 33 34  1  0  0  0
 34 35  1  0  0  0
 34 60  1  0  0  0
 35 61  1  0  0  0
M  CHG  3   1   1   5  -1  20  -1
M  END
> <s_m_source_file>
../2gst_ligand.sdf

> <i_m_source_file_index>
1

> <s_epik_input>
Tz1DKFtPSF0pW0NAQEhdKFtOSDMrXSlbQ0gyXVtDSDJdQyg9TylbTkhdW0NASF0oQyg9TylbTkhdW0NIMl1DKD1PKVtPSF0pW0NIMl1TW0NAQEhdMVtDQEBIXShbT0hdKWMoW2NIXVtjSF1bY0hdW2NIXTIpYzJjKGMxMylbY0hdW2NIXVtjSF1bY0hdMw==

> <s_epik_cmdline>
J2VwaWtfYXBwJywgJy1pbWFlJywgJ2xpZ2FuZF9wcm8ubWFlJywgJy1vbWFlJywgJ2xpZ2FuZF9wcmVwLm1hZScsICctbXMnLCAnMScsICctcGgnLCAnNycsICctcGh0JywgJzAuNScsICctbnQn

> <r_lp_tautomer_probability>
1

> <r_epik_Ionization_Penalty>
  0.0025

> <r_epik_Ionization_Penalty_Charging>
  0.0025

> <r_epik_Ionization_Penalty_Neutral>
  0.0000

> <r_epik_State_Penalty>
 -0.0000

> <r_epik_Charging_Adjusted_Penalty>
0.00251955541370068

> <i_epik_Tot_Q>
-1

> <i_epik_Tot_abs_Q>
3

$$$$
