2gsu_ligand
                    3D
 Schrodinger Suite 2020-3.
 35 37  0  0  1  0            999 V2000
   29.5860   43.9380   22.7300 P   0  0  0  0  0  0
   28.3430   44.7100   23.0700 O   0  5  0  0  0  0
   29.8250   42.6930   23.5730 O   0  5  0  0  0  0
   30.7940   44.7930   22.5040 O   0  0  0  0  0  0
   29.2740   43.4120   21.2330 O   0  0  0  0  0  0
   27.9430   43.1350   20.7540 C   0  0  0  0  0  0
   27.5620   44.0160   19.5540 C   0  0  1  0  0  0
   27.1770   43.2010   18.4360 O   0  0  0  0  0  0
   26.3930   44.9470   19.8320 C   0  0  1  0  0  0
   26.8460   46.3080   19.9420 O   0  0  0  0  0  0
   25.4030   44.7610   18.6890 C   0  0  1  0  0  0
   25.2850   45.9640   17.9180 O   0  0  0  0  0  0
   25.9170   43.5790   17.8560 C   0  0  2  0  0  0
   24.9970   42.3930   17.8350 N   0  0  0  0  0  0
   23.9770   42.1770   18.6850 C   0  0  0  0  0  0
   23.3240   41.0220   18.4250 N   0  0  0  0  0  0
   23.9220   40.4530   17.3840 C   0  0  0  0  0  0
   23.7040   39.2090   16.6220 C   0  0  0  0  0  0
   22.6940   38.3710   16.9670 N   0  0  0  0  0  0
   24.5400   38.9570   15.5870 N   0  0  0  0  0  0
   25.5310   39.8090   15.2560 C   0  0  0  0  0  0
   25.7730   40.9590   15.9250 N   0  0  0  0  0  0
   25.0230   41.3460   16.9900 C   0  0  0  0  0  0
   27.8781   42.0830   20.4393 H   0  0  0  0  0  0
   27.2172   43.3223   21.5590 H   0  0  0  0  0  0
   28.4544   44.5980   19.2801 H   0  0  0  0  0  0
   25.9219   44.7651   20.8092 H   0  0  0  0  0  0
   27.5654   46.5865   20.7262 H   0  0  0  0  0  0
   24.3695   44.6067   19.0327 H   0  0  0  0  0  0
   24.9269   46.8891   18.3934 H   0  0  0  0  0  0
   26.0486   43.8680   16.8028 H   0  0  0  0  0  0
   23.7071   42.8570   19.4930 H   0  0  0  0  0  0
   22.0401   38.6182   17.8163 H   0  0  0  0  0  0
   22.5292   37.4445   16.3974 H   0  0  0  0  0  0
   26.1682   39.5587   14.4078 H   0  0  0  0  0  0
  1  2  1  0  0  0
  1  3  1  0  0  0
  1  4  2  0  0  0
  1  5  1  0  0  0
  5  6  1  0  0  0
  6  7  1  0  0  0
  6 24  1  0  0  0
  6 25  1  0  0  0
  7  8  1  0  0  0
  7  9  1  0  0  0
  7 26  1  0  0  0
  8 13  1  0  0  0
  9 10  1  0  0  0
  9 11  1  0  0  0
  9 27  1  0  0  0
 10 28  1  0  0  0
 11 12  1  0  0  0
 11 13  1  0  0  0
 11 29  1  0  0  0
 12 30  1  0  0  0
 13 14  1  0  0  0
 13 31  1  0  0  0
 14 15  1  0  0  0
 14 23  1  0  0  0
 15 16  2  0  0  0
 15 32  1  0  0  0
 16 17  1  0  0  0
 17 18  2  0  0  0
 17 23  1  0  0  0
 18 19  1  0  0  0
 18 20  1  0  0  0
 19 33  1  0  0  0
 19 34  1  0  0  0
 20 21  2  0  0  0
 21 22  1  0  0  0
 21 35  1  0  0  0
 22 23  2  0  0  0
M  CHG  2   2  -1   3  -1
M  END
> <s_m_source_file>
../2gsu_ligand.sdf

> <i_m_source_file_index>
1

> <s_epik_input>
W09IXVAoPU8pKFtPSF0pT1tDSDJdW0NASF0xT1tDQEhdKFtDQEhdKFtPSF0pW0NAQEhdMVtPSF0pbihbY0hdbjIpYyhjMjMpbltjSF1uYzNbTkgyXQ==

> <s_epik_cmdline>
J2VwaWtfYXBwJywgJy1pbWFlJywgJ2xpZ2FuZF9wcm8ubWFlJywgJy1vbWFlJywgJ2xpZ2FuZF9wcmVwLm1hZScsICctbXMnLCAnMScsICctcGgnLCAnNycsICctcGh0JywgJzAuNScsICctbnQn

> <r_lp_tautomer_probability>
0.999997216410988

> <r_epik_Ionization_Penalty>
  0.1025

> <r_epik_Ionization_Penalty_Charging>
  0.1020

> <r_epik_Ionization_Penalty_Neutral>
  0.0004

> <r_epik_State_Penalty>
  0.0920

> <r_epik_Charging_Adjusted_Penalty>
0.194024004396068

> <i_epik_Tot_Q>
-2

> <i_epik_Tot_abs_Q>
2

> <s_epik_Chemistry_Notes>
This compound contains an acetal/aminal-like group ( X-CH(R)-Y where X, Y are N, S, or O) that may be acid/base labile, releasing an aldehyde.

$$$$
