2gu8_ligand
                    3D
 Schrodinger Suite 2020-3.
 48 50  0  0  1  0            999 V2000
   -9.6900   -9.2610    0.6840 O   0  0  0  0  0  0
  -10.0940   -9.5220    1.8320 C   0  0  0  0  0  0
   -9.1420   -9.7940    2.9270 C   0  0  0  0  0  0
   -7.4760   -9.9170    2.3660 S   0  0  0  0  0  0
   -9.2430  -10.0010    4.2890 C   0  0  0  0  0  0
   -8.0150  -10.2540    4.9150 C   0  0  0  0  0  0
   -6.9350  -10.2680    4.0330 C   0  0  0  0  0  0
   -5.4560  -10.3730    4.2130 C   0  0  0  0  0  0
   -4.8850  -10.4440    5.4910 C   0  0  0  0  0  0
   -4.6670  -10.2940    3.1150 N   0  0  0  0  0  0
   -3.3130  -10.3060    3.2990 C   0  0  0  0  0  0
   -2.5670  -10.2390    2.2320 N   0  0  0  0  0  0
   -3.2340   -9.9220    0.9880 C   0  0  0  0  0  0
   -2.7590  -10.4040    4.5180 N   0  0  0  0  0  0
   -3.4870  -10.4710    5.6370 C   0  0  0  0  0  0
  -11.3640   -9.5860    2.2010 N   0  0  0  0  0  0
  -12.3920   -8.9870    1.3750 C   0  0  2  0  0  0
  -12.5970   -7.5230    1.7500 C   0  0  0  0  0  0
  -13.3690   -6.7970    0.7530 N   0  3  0  0  0  0
  -13.5920   -9.8620    1.6990 C   0  0  0  0  0  0
  -13.4750  -11.1960    0.9510 C   0  0  0  0  0  0
  -13.8750  -11.3060   -0.3710 C   0  0  0  0  0  0
  -13.7900  -12.5400   -1.0330 C   0  0  0  0  0  0
  -13.3070  -13.6450   -0.3650 C   0  0  0  0  0  0
  -13.1680  -15.2310   -1.1410 Cl  0  0  0  0  0  0
  -12.8850  -13.5670    0.9220 C   0  0  0  0  0  0
  -12.9660  -12.3430    1.5530 C   0  0  0  0  0  0
  -12.4060  -12.3460    3.2400 Cl  0  0  0  0  0  0
  -10.1904   -9.9704    4.8272 H   0  0  0  0  0  0
   -7.9139  -10.4234    5.9870 H   0  0  0  0  0  0
   -5.5253  -10.4783    6.3724 H   0  0  0  0  0  0
   -1.4805  -10.4102    2.2454 H   0  0  0  0  0  0
   -2.4963   -9.8968    0.1725 H   0  0  0  0  0  0
   -3.7204   -8.9390    1.0729 H   0  0  0  0  0  0
   -3.9925  -10.6891    0.7728 H   0  0  0  0  0  0
   -3.0180  -10.5433    6.6183 H   0  0  0  0  0  0
  -11.6377  -10.0953    3.1368 H   0  0  0  0  0  0
  -12.1280   -8.9800    0.3072 H   0  0  0  0  0  0
  -13.1358   -7.4616    2.7070 H   0  0  0  0  0  0
  -11.6190   -7.0290    1.8475 H   0  0  0  0  0  0
  -13.4870   -5.7507    1.0712 H   0  0  0  0  0  0
  -14.3602   -7.2620    0.6468 H   0  0  0  0  0  0
  -12.8434   -6.8295   -0.2127 H   0  0  0  0  0  0
  -13.6252  -10.0525    2.7819 H   0  0  0  0  0  0
  -14.5143   -9.3492    1.3885 H   0  0  0  0  0  0
  -14.2567  -10.4315   -0.8980 H   0  0  0  0  0  0
  -14.1051  -12.6249   -2.0730 H   0  0  0  0  0  0
  -12.4947  -14.4428    1.4404 H   0  0  0  0  0  0
  1  2  2  0  0  0
  2  3  1  0  0  0
  2 16  1  0  0  0
  3  4  1  0  0  0
  3  5  2  0  0  0
  4  7  1  0  0  0
  5  6  1  0  0  0
  5 29  1  0  0  0
  6  7  2  0  0  0
  6 30  1  0  0  0
  7  8  1  0  0  0
  8  9  2  0  0  0
  8 10  1  0  0  0
  9 15  1  0  0  0
  9 31  1  0  0  0
 10 11  2  0  0  0
 11 12  1  0  0  0
 11 14  1  0  0  0
 12 13  1  0  0  0
 12 32  1  0  0  0
 13 33  1  0  0  0
 13 34  1  0  0  0
 13 35  1  0  0  0
 14 15  2  0  0  0
 15 36  1  0  0  0
 16 17  1  0  0  0
 16 37  1  0  0  0
 17 18  1  0  0  0
 17 20  1  0  0  0
 17 38  1  0  0  0
 18 19  1  0  0  0
 18 39  1  0  0  0
 18 40  1  0  0  0
 19 41  1  0  0  0
 19 42  1  0  0  0
 19 43  1  0  0  0
 20 21  1  0  0  0
 20 44  1  0  0  0
 20 45  1  0  0  0
 21 22  2  0  0  0
 21 27  1  0  0  0
 22 23  1  0  0  0
 22 46  1  0  0  0
 23 24  2  0  0  0
 23 47  1  0  0  0
 24 25  1  0  0  0
 24 26  1  0  0  0
 26 27  2  0  0  0
 26 48  1  0  0  0
 27 28  1  0  0  0
M  CHG  1  19   1
M  END
> <s_m_source_file>
../2gu8_ligand.sdf

> <i_m_source_file_index>
1

> <s_epik_input>
Q2xjMVtjSF1jKENsKVtjSF1bY0hdYzFbQ0gyXVtDQEBIXShbQ0gyXVtOSDMrXSlbTkhdQyg9TyljMnNjKFtjSF1bY0hdMiktYzNbY0hdW2NIXW5jKG4zKVtOSF1bQ0gzXQ==

> <s_epik_cmdline>
J2VwaWtfYXBwJywgJy1pbWFlJywgJ2xpZ2FuZF9wcm8ubWFlJywgJy1vbWFlJywgJ2xpZ2FuZF9wcmVwLm1hZScsICctbXMnLCAnMScsICctcGgnLCAnNycsICctcGh0JywgJzAuNScsICctbnQn

> <r_lp_tautomer_probability>
1

> <r_epik_Ionization_Penalty>
  0.0044

> <r_epik_Ionization_Penalty_Charging>
  0.0040

> <r_epik_Ionization_Penalty_Neutral>
  0.0004

> <r_epik_State_Penalty>
 -0.0000

> <r_epik_Charging_Adjusted_Penalty>
0.00398435694478382

> <i_epik_Tot_Q>
1

> <i_epik_Tot_abs_Q>
1

$$$$
