2gv2_ligand
                    3D
 Schrodinger Suite 2020-3.
155159  0  0  1  0            999 V2000
   14.8600   22.4250   12.0340 C   0  0  0  0  0  0
   14.6390   21.4690   12.7740 O   0  0  0  0  0  0
   16.1580   23.2190   12.1550 C   0  0  0  0  0  0
   14.0130   22.8210   11.0860 N   0  0  0  0  0  0
   12.7340   22.1560   10.8740 C   0  0  2  0  0  0
   12.8490   20.6570   10.5980 C   0  0  0  0  0  0
   12.2110   19.8520   11.2710 O   0  0  0  0  0  0
   11.9720   22.8150    9.7230 C   0  0  0  0  0  0
   10.6890   22.1160    9.3780 C   0  0  0  0  0  0
    9.5740   22.2300   10.2040 C   0  0  0  0  0  0
   10.6120   21.3000    8.2550 C   0  0  0  0  0  0
    8.3980   21.5340    9.9160 C   0  0  0  0  0  0
    9.4420   20.6020    7.9560 C   0  0  0  0  0  0
    8.3350   20.7200    8.7910 C   0  0  0  0  0  0
   13.6490   20.2830    9.6020 N   0  0  0  0  0  0
   13.8150   18.8730    9.2530 C   0  0  2  0  0  0
   14.1790   18.0170   10.4620 C   0  0  0  0  0  0
   13.6310   16.9270   10.6510 O   0  0  0  0  0  0
   14.8910   18.7170    8.1730 C   0  0  0  0  0  0
   14.4930   19.2590    6.8130 C   0  0  0  0  0  0
   13.1420   18.3300    6.0570 S   0  0  0  0  0  0
   14.0420   16.9580    5.3170 C   0  0  0  0  0  0
   15.1030   18.5190   11.2770 N   0  0  0  0  0  0
   15.5570   17.8170   12.4780 C   0  0  0  0  0  0
   14.3600   17.5040   13.3780 C   0  0  0  0  0  0
   14.2110   16.3790   13.8600 O   0  0  0  0  0  0
   16.5490   18.6910   13.2280 C   0  0  0  0  0  0
   16.2540   16.5220   12.0820 C   0  0  0  0  0  0
   13.5150   18.5020   13.6140 N   0  0  0  0  0  0
   12.3310   18.3170   14.4450 C   0  0  1  0  0  0
   11.6150   19.6540   14.6600 C   0  0  0  0  0  0
   12.3320   20.6210   15.5680 C   0  0  0  0  0  0
   12.6570   21.9050   15.1320 C   0  0  0  0  0  0
   13.2700   22.8190   15.9860 C   0  0  0  0  0  0
   12.6410   20.2700   16.8780 C   0  0  0  0  0  0
   13.2560   21.1710   17.7380 C   0  0  0  0  0  0
   13.5650   22.4420   17.2880 C   0  0  0  0  0  0
   14.2340   23.4200   18.2220 C   0  0  0  0  0  0
   16.0110   23.5050   18.2080 P   0  0  0  0  0  0
   16.4760   22.1290   18.5200 O   0  0  0  0  0  0
   16.3530   23.9430   16.8330 O   0  0  0  0  0  0
   16.3740   24.4980   19.2460 O   0  0  0  0  0  0
   11.3520   17.3570   13.7800 C   0  0  0  0  0  0
   10.8180   16.4470   14.4100 O   0  0  0  0  0  0
   11.1140   17.5860   12.4950 N   0  0  0  0  0  0
   10.1760   16.7800   11.7290 C   0  0  1  0  0  0
   10.0930   17.3310   10.3030 C   0  0  0  0  0  0
    8.9420   16.8030    9.5300 C   0  0  0  0  0  0
    7.5690   17.1660    9.6950 C   0  0  0  0  0  0
    6.8930   18.0570   10.5410 C   0  0  0  0  0  0
    6.8240   16.4160    8.7580 C   0  0  0  0  0  0
    7.7100   15.6340    8.0620 N   0  0  0  0  0  0
    8.9770   15.8700    8.5300 C   0  0  0  0  0  0
    5.4320   16.5250    8.6460 C   0  0  0  0  0  0
    4.7950   17.4050    9.4860 C   0  0  3  0  0  0
    3.0730   17.5770    9.3880 Cl  0  0  0  0  0  0
    5.5130   18.1670   10.4290 C   0  0  0  0  0  0
   10.5310   15.2960   11.7060 C   0  0  0  0  0  0
    9.6480   14.4400   11.7030 O   0  0  0  0  0  0
   11.8230   14.9940   11.6930 N   0  0  0  0  0  0
   12.2760   13.6100   11.6690 C   0  0  2  0  0  0
   11.8090   12.8790   12.9210 C   0  0  0  0  0  0
   11.5960   11.6670   12.9010 O   0  0  0  0  0  0
   13.8040   13.5570   11.5860 C   0  0  0  0  0  0
   14.3680   12.1540   11.4040 C   0  0  0  0  0  0
   15.8810   12.1120   11.5300 C   0  0  0  0  0  0
   16.5620   12.9050   10.8470 O   0  0  0  0  0  0
   16.3900   11.2810   12.3110 O   0  0  0  0  0  0
   12.2830   12.4400   16.1620 C   0  0  0  0  0  0
   11.6660   13.7550   16.5410 C   0  0  0  0  0  0
   11.2180   13.0530   15.2780 C   0  0  0  0  0  0
    9.8320   12.4250   15.2380 C   0  0  0  0  0  0
    9.4820   11.6370   16.1140 O   0  0  0  0  0  0
   11.6480   13.6250   14.0080 N   0  0  0  0  0  0
    9.0410   12.7680   14.2270 N   0  0  0  0  0  0
    7.7010   12.2070   14.1180 C   0  0  2  0  0  0
    7.7440   10.7250   13.7770 C   0  0  0  0  0  0
    8.6780   10.3060   13.0600 O   0  0  0  0  0  0
    6.8940   12.9420   13.0490 C   0  0  0  0  0  0
    6.4410   14.3620   13.3910 C   0  0  0  0  0  0
    5.7630   14.9790   12.1780 C   0  0  0  0  0  0
    5.4880   14.3260   14.5790 C   0  0  0  0  0  0
    6.8230   10.0090   14.2200 O   0  0  0  0  0  0
   16.7701   22.7994   12.9669 H   0  0  0  0  0  0
   15.9250   24.2708   12.3774 H   0  0  0  0  0  0
   16.7142   23.1590   11.2079 H   0  0  0  0  0  0
   14.3006   23.6743   10.4542 H   0  0  0  0  0  0
   12.2305   22.2954   11.8420 H   0  0  0  0  0  0
   11.7204   23.8506    9.9953 H   0  0  0  0  0  0
   12.6003   22.8156    8.8201 H   0  0  0  0  0  0
    9.6195   22.8697   11.0854 H   0  0  0  0  0  0
   11.4776   21.2044    7.5994 H   0  0  0  0  0  0
    7.5322   21.6288   10.5714 H   0  0  0  0  0  0
    9.3949   19.9665    7.0717 H   0  0  0  0  0  0
    7.4192   20.1745    8.5630 H   0  0  0  0  0  0
   14.1903   21.0567    9.0377 H   0  0  0  0  0  0
   12.8265   18.5642    8.8821 H   0  0  0  0  0  0
   15.7999   19.2549    8.4805 H   0  0  0  0  0  0
   15.1240   17.6504    8.0389 H   0  0  0  0  0  0
   14.1653   20.3040    6.9163 H   0  0  0  0  0  0
   15.3557   19.2109    6.1323 H   0  0  0  0  0  0
   13.3344   16.2881    4.8065 H   0  0  0  0  0  0
   14.5723   16.4008    6.1033 H   0  0  0  0  0  0
   14.7692   17.3467    4.5890 H   0  0  0  0  0  0
   15.5285   19.5001   11.0195 H   0  0  0  0  0  0
   16.0601   19.6317   13.5214 H   0  0  0  0  0  0
   17.4082   18.9116   12.5775 H   0  0  0  0  0  0
   16.8965   18.1621   14.1278 H   0  0  0  0  0  0
   15.5483   15.8775   11.5374 H   0  0  0  0  0  0
   16.6027   16.0019   12.9864 H   0  0  0  0  0  0
   17.1144   16.7514   11.4362 H   0  0  0  0  0  0
   13.7248   19.4847   13.1666 H   0  0  0  0  0  0
   12.7084   17.9019   15.3912 H   0  0  0  0  0  0
   11.4903   20.1629   13.6928 H   0  0  0  0  0  0
   10.6273   19.4730   15.1090 H   0  0  0  0  0  0
   12.4279   22.1980   14.1074 H   0  0  0  0  0  0
   13.5156   23.8211   15.6345 H   0  0  0  0  0  0
   12.3962   19.2701   17.2361 H   0  0  0  0  0  0
   13.4935   20.8784   18.7608 H   0  0  0  0  0  0
   13.8970   24.4404   17.9872 H   0  0  0  0  0  0
   13.9675   23.1758   19.2609 H   0  0  0  0  0  0
   16.2649   21.3056   17.8219 H   0  0  0  0  0  0
   16.1313   23.2894   15.9764 H   0  0  0  0  0  0
   11.6510   18.4145   12.0101 H   0  0  0  0  0  0
    9.2220   16.8801   12.2675 H   0  0  0  0  0  0
    9.9912   18.4257   10.3383 H   0  0  0  0  0  0
   11.0081   17.0653    9.7534 H   0  0  0  0  0  0
    7.4346   18.6623   11.2828 H   0  0  0  0  0  0
    9.8329   15.3329    8.0952 H   0  0  0  0  0  0
    4.8906   15.9181    7.9053 H   0  0  0  0  0  0
    4.9615   18.8582   11.0832 H   0  0  0  0  0  0
   12.5573   15.8130   11.7007 H   0  0  0  0  0  0
   11.8202   13.1602   10.7746 H   0  0  0  0  0  0
   14.1457   14.1570   10.7297 H   0  0  0  0  0  0
   14.2359   13.9619   12.5131 H   0  0  0  0  0  0
   13.9466   11.4871   12.1706 H   0  0  0  0  0  0
   14.1017   11.7785   10.4049 H   0  0  0  0  0  0
   17.4831   11.2284   12.4221 H   0  0  0  0  0  0
   13.3671   12.5688   16.0277 H   0  0  0  0  0  0
   12.0971   11.7046   16.9586 H   0  0  0  0  0  0
   11.1786   13.6619   17.5227 H   0  0  0  0  0  0
   12.4487   14.5262   16.5919 H   0  0  0  0  0  0
   11.8491   14.7037   13.9306 H   0  0  0  0  0  0
    9.4027   13.4795   13.4700 H   0  0  0  0  0  0
    7.2594   12.3496   15.1153 H   0  0  0  0  0  0
    8.7340    9.2392   12.7977 H   0  0  0  0  0  0
    7.4955   13.0314   12.1324 H   0  0  0  0  0  0
    5.9750   12.3781   12.8310 H   0  0  0  0  0  0
    7.3095   14.9805   13.6616 H   0  0  0  0  0  0
    6.4672   14.9953   11.3331 H   0  0  0  0  0  0
    5.4513   16.0068   12.4155 H   0  0  0  0  0  0
    4.8800   14.3812   11.9079 H   0  0  0  0  0  0
    5.9975   13.8768   15.4443 H   0  0  0  0  0  0
    4.6036   13.7248   14.3215 H   0  0  0  0  0  0
    5.1749   15.3504   14.8290 H   0  0  0  0  0  0
  1  2  2  0  0  0
  1  3  1  0  0  0
  1  4  1  0  0  0
  3 84  1  0  0  0
  3 85  1  0  0  0
  3 86  1  0  0  0
  4  5  1  0  0  0
  4 87  1  0  0  0
  5  6  1  0  0  0
  5  8  1  0  0  0
  5 88  1  0  0  0
  6  7  2  0  0  0
  6 15  1  0  0  0
  8  9  1  0  0  0
  8 89  1  0  0  0
  8 90  1  0  0  0
  9 10  2  0  0  0
  9 11  1  0  0  0
 10 12  1  0  0  0
 10 91  1  0  0  0
 11 13  2  0  0  0
 11 92  1  0  0  0
 12 14  2  0  0  0
 12 93  1  0  0  0
 13 14  1  0  0  0
 13 94  1  0  0  0
 14 95  1  0  0  0
 15 16  1  0  0  0
 15 96  1  0  0  0
 16 17  1  0  0  0
 16 19  1  0  0  0
 16 97  1  0  0  0
 17 18  2  0  0  0
 17 23  1  0  0  0
 19 20  1  0  0  0
 19 98  1  0  0  0
 19 99  1  0  0  0
 20 21  1  0  0  0
 20100  1  0  0  0
 20101  1  0  0  0
 21 22  1  0  0  0
 22102  1  0  0  0
 22103  1  0  0  0
 22104  1  0  0  0
 23 24  1  0  0  0
 23105  1  0  0  0
 24 25  1  0  0  0
 24 27  1  0  0  0
 24 28  1  0  0  0
 25 26  2  0  0  0
 25 29  1  0  0  0
 27106  1  0  0  0
 27107  1  0  0  0
 27108  1  0  0  0
 28109  1  0  0  0
 28110  1  0  0  0
 28111  1  0  0  0
 29 30  1  0  0  0
 29112  1  0  0  0
 30 31  1  0  0  0
 30 43  1  0  0  0
 30113  1  0  0  0
 31 32  1  0  0  0
 31114  1  0  0  0
 31115  1  0  0  0
 32 33  2  0  0  0
 32 35  1  0  0  0
 33 34  1  0  0  0
 33116  1  0  0  0
 34 37  2  0  0  0
 34117  1  0  0  0
 35 36  2  0  0  0
 35118  1  0  0  0
 36 37  1  0  0  0
 36119  1  0  0  0
 37 38  1  0  0  0
 38 39  1  0  0  0
 38120  1  0  0  0
 38121  1  0  0  0
 39 40  1  0  0  0
 39 41  1  0  0  0
 39 42  2  0  0  0
 40122  1  0  0  0
 41123  1  0  0  0
 43 44  2  0  0  0
 43 45  1  0  0  0
 45 46  1  0  0  0
 45124  1  0  0  0
 46 47  1  0  0  0
 46 58  1  0  0  0
 46125  1  0  0  0
 47 48  1  0  0  0
 47126  1  0  0  0
 47127  1  0  0  0
 48 49  2  0  0  0
 48 53  1  0  0  0
 49 50  1  0  0  0
 49 51  1  0  0  0
 50 57  2  0  0  0
 50128  1  0  0  0
 51 52  1  0  0  0
 51 54  2  0  0  0
 52 53  2  0  0  0
 53129  1  0  0  0
 54 55  1  0  0  0
 54130  1  0  0  0
 55 56  1  0  0  0
 55 57  1  0  0  0
 57131  1  0  0  0
 58 59  2  0  0  0
 58 60  1  0  0  0
 60 61  1  0  0  0
 60132  1  0  0  0
 61 62  1  0  0  0
 61 64  1  0  0  0
 61133  1  0  0  0
 62 63  2  0  0  0
 62 74  1  0  0  0
 64 65  1  0  0  0
 64134  1  0  0  0
 64135  1  0  0  0
 65 66  1  0  0  0
 65136  1  0  0  0
 65137  1  0  0  0
 66 67  2  0  0  0
 66 68  1  0  0  0
 68138  1  0  0  0
 69 70  1  0  0  0
 69 71  1  0  0  0
 69139  1  0  0  0
 69140  1  0  0  0
 70 71  1  0  0  0
 70141  1  0  0  0
 70142  1  0  0  0
 71 72  1  0  0  0
 71 74  1  0  0  0
 72 73  2  0  0  0
 72 75  1  0  0  0
 74143  1  0  0  0
 75 76  1  0  0  0
 75144  1  0  0  0
 76 77  1  0  0  0
 76 79  1  0  0  0
 76145  1  0  0  0
 77 78  1  0  0  0
 77 83  2  0  0  0
 78146  1  0  0  0
 79 80  1  0  0  0
 79147  1  0  0  0
 79148  1  0  0  0
 80 81  1  0  0  0
 80 82  1  0  0  0
 80149  1  0  0  0
 81150  1  0  0  0
 81151  1  0  0  0
 81152  1  0  0  0
 82153  1  0  0  0
 82154  1  0  0  0
 82155  1  0  0  0
M  END
> <s_m_source_file>
../2gv2_ligand.sdf

> <i_m_source_file_index>
1

> <s_epik_input>
W2NIXTFbY0hdW2NIXVtjSF1bY0hdYzFbQ0gyXVtDQEhdKFtOSF1DKD1PKVtDSDNdKUMoPU8pW05IXVtDQEBIXShbQ0gyXVtDSDJdU1tDSDNdKUMoPU8pW05IXUMoW0NIM10pKFtDSDNdKUMoPU8pW05IXVtDQEBIXShbQ0gyXWMyW2NIXVtjSF1jKFtjSF1bY0hdMilbQ0gyXVAoPU8pKFtPSF0pW09IXSlDKD1PKVtOSF1bQ0BASF0oW0NIMl1DPTNbQ0hdPU5DKEMzNCk9W0NIXVtDSF0oQ2wpW0NIXT1bQ0hdNClDKD1PKVtOSF1bQ0BASF0oW0NIMl1bQ0gyXUMoPU8pW09IXSlDKD1PKVtOSF1DNShbQ0gyXVtDSDJdNSlDKD1PKVtOSF1bQ0BIXShDKD1PKVtPSF0pW0NIMl1bQ0hdKFtDSDNdKVtDSDNd

> <s_epik_cmdline>
J2VwaWtfYXBwJywgJy1pbWFlJywgJ2xpZ2FuZF9wcm8ubWFlJywgJy1vbWFlJywgJ2xpZ2FuZF9wcmVwLm1hZScsICctbXMnLCAnMScsICctcGgnLCAnNycsICctcGh0JywgJzAuNScsICctbnQn

> <s_epik_pKa_notes>
Molecule size exceeds maximum supported for generating protonation states

> <s_epik_Chemistry_Notes>
This compound has an imine and may undergo hydrolysis.

$$$$
