2gv7_ligand
                    3D
 Schrodinger Suite 2020-3.
105108  0  0  1  0            999 V2000
   13.2860   67.7070   27.4180 C   0  0  0  0  0  0
   13.5330   69.2330   27.4640 C   0  0  0  0  0  0
   14.6020   66.9120   27.5460 C   0  0  0  0  0  0
   14.5800   65.6700   28.2110 C   0  0  0  0  0  0
   15.7570   64.8720   28.3680 C   0  0  0  0  0  0
   15.6410   63.5290   29.1150 C   0  0  0  0  0  0
   14.3740   62.7220   28.7290 C   0  0  0  0  0  0
   15.6630   63.7950   30.6460 C   0  0  0  0  0  0
   17.0210   65.3370   27.8400 C   0  0  0  0  0  0
   18.5490   64.3310   28.0320 S   0  0  0  0  0  0
   18.3240   63.0430   27.0200 N   0  0  3  0  0  0
   17.9920   63.3230   25.6170 C   0  0  1  0  0  0
   19.0940   62.7470   24.6740 C   0  0  0  0  0  0
   18.9320   61.2500   24.3530 C   0  0  0  0  0  0
   19.5890   60.2850   25.1810 C   0  0  0  0  0  0
   19.4440   58.8960   24.9150 C   0  0  0  0  0  0
   20.1000   57.9320   25.7230 C   0  0  0  0  0  0
   20.0620   56.6140   25.4020 N   0  0  0  0  0  0
   20.7970   58.3000   26.8070 N   0  3  0  0  0  0
   18.6270   58.4870   23.8090 C   0  0  0  0  0  0
   17.9770   59.4390   22.9820 C   0  0  0  0  0  0
   18.1260   60.8180   23.2430 C   0  0  0  0  0  0
   16.6060   62.7970   25.3360 C   0  0  0  0  0  0
   15.7050   63.4740   24.3220 N   0  0  0  0  0  0
   16.2330   64.6340   23.6370 C   0  0  0  0  0  0
   15.1220   65.7200   23.4970 C   0  0  0  0  0  0
   13.7970   65.1170   23.6210 N   0  0  0  0  0  0
   12.7070   65.7180   22.8210 C   0  0  0  0  0  0
   12.9730   66.9540   21.9940 C   0  0  0  0  0  0
   13.0840   66.5060   20.5020 C   0  0  0  0  0  0
   13.2510   67.7160   19.5630 C   0  0  0  0  0  0
   12.0780   68.6850   19.8440 N   0  0  0  0  0  0
   11.1610   68.9890   18.8840 C   0  0  0  0  0  0
   11.3570   68.6040   17.6090 N   0  3  0  0  0  0
   10.0270   69.6620   19.1900 N   0  0  0  0  0  0
   11.9640   69.2320   21.2560 C   0  0  0  0  0  0
   11.8190   68.0190   22.2150 C   0  0  0  0  0  0
   11.5860   65.2140   22.8460 O   0  0  0  0  0  0
   13.3830   63.9740   24.4280 C   0  0  0  0  0  0
   14.3980   62.8590   24.1900 C   0  0  0  0  0  0
   16.2080   61.8010   25.9510 O   0  0  0  0  0  0
   18.6160   63.7980   29.3830 O   0  0  0  0  0  0
   19.7050   65.0690   27.5590 O   0  0  0  0  0  0
   17.0420   66.6290   27.1490 C   0  0  0  0  0  0
   18.3340   67.2300   26.5450 C   0  0  0  0  0  0
   18.8690   68.3860   27.4270 C   0  0  0  0  0  0
   18.1000   67.7630   25.1080 C   0  0  0  0  0  0
   15.8330   67.3840   27.0210 C   0  0  0  0  0  0
   12.5640   67.3620   26.1020 C   0  0  0  0  0  0
   12.6566   67.4181   28.2726 H   0  0  0  0  0  0
   14.0487   69.4929   28.4002 H   0  0  0  0  0  0
   12.5697   69.7619   27.4170 H   0  0  0  0  0  0
   14.1563   69.5295   26.6075 H   0  0  0  0  0  0
   13.6369   65.3058   28.6185 H   0  0  0  0  0  0
   16.5029   62.9168   28.8112 H   0  0  0  0  0  0
   14.3711   62.5409   27.6440 H   0  0  0  0  0  0
   13.4763   63.2933   29.0078 H   0  0  0  0  0  0
   14.3761   61.7594   29.2614 H   0  0  0  0  0  0
   16.5657   64.3674   30.9057 H   0  0  0  0  0  0
   15.6693   62.8360   31.1847 H   0  0  0  0  0  0
   14.7696   64.3699   30.9311 H   0  0  0  0  0  0
   18.2549   62.0157   27.4071 H   0  0  0  0  0  0
   17.9541   64.4132   25.4758 H   0  0  0  0  0  0
   19.0747   63.2861   23.7154 H   0  0  0  0  0  0
   20.0806   62.8708   25.1445 H   0  0  0  0  0  0
   20.2028   60.6163   26.0186 H   0  0  0  0  0  0
   19.4988   56.2791   24.5185 H   0  0  0  0  0  0
   20.5944   55.8805   26.0253 H   0  0  0  0  0  0
   20.8477   59.3606   27.0944 H   0  0  0  0  0  0
   18.5033   57.4244   23.6000 H   0  0  0  0  0  0
   17.3629   59.1056   22.1455 H   0  0  0  0  0  0
   17.6325   61.5522   22.6062 H   0  0  0  0  0  0
   17.0743   65.0480   24.2121 H   0  0  0  0  0  0
   16.5821   64.3413   22.6358 H   0  0  0  0  0  0
   15.2458   66.4752   24.2872 H   0  0  0  0  0  0
   15.2035   66.2031   22.5121 H   0  0  0  0  0  0
   13.9237   67.4036   22.3165 H   0  0  0  0  0  0
   13.9565   65.8471   20.3810 H   0  0  0  0  0  0
   12.1718   65.9633   20.2133 H   0  0  0  0  0  0
   14.2138   68.2076   19.7661 H   0  0  0  0  0  0
   13.2269   67.3749   18.5175 H   0  0  0  0  0  0
   12.2702   68.0558   17.3342 H   0  0  0  0  0  0
    9.8429   69.9878   20.2244 H   0  0  0  0  0  0
    9.2896   69.8831   18.4042 H   0  0  0  0  0  0
   12.8681   69.8092   21.4997 H   0  0  0  0  0  0
   11.0819   69.8854   21.3260 H   0  0  0  0  0  0
   10.8433   67.5462   22.0294 H   0  0  0  0  0  0
   11.8557   68.3901   23.2499 H   0  0  0  0  0  0
   13.3669   64.2613   25.4897 H   0  0  0  0  0  0
   12.3771   63.6527   24.1199 H   0  0  0  0  0  0
   14.2928   62.4344   23.1807 H   0  0  0  0  0  0
   14.2921   62.0588   24.9373 H   0  0  0  0  0  0
   19.0743   66.4172   26.5084 H   0  0  0  0  0  0
   19.0387   68.0185   28.4498 H   0  0  0  0  0  0
   18.1320   69.2023   27.4482 H   0  0  0  0  0  0
   19.8161   68.7579   27.0091 H   0  0  0  0  0  0
   17.7197   66.9496   24.4726 H   0  0  0  0  0  0
   19.0492   68.1366   24.6964 H   0  0  0  0  0  0
   17.3651   68.5810   25.1355 H   0  0  0  0  0  0
   15.8583   68.3452   26.5076 H   0  0  0  0  0  0
   11.6305   67.9399   26.0335 H   0  0  0  0  0  0
   12.3320   66.2869   26.0820 H   0  0  0  0  0  0
   13.2138   67.6128   25.2506 H   0  0  0  0  0  0
   10.6039   68.8376   16.8420 H   0  0  0  0  0  0
   21.3184   57.5414   27.4093 H   0  0  0  0  0  0
  1  2  1  0  0  0
  1  3  1  0  0  0
  1 49  1  0  0  0
  1 50  1  0  0  0
  2 51  1  0  0  0
  2 52  1  0  0  0
  2 53  1  0  0  0
  3  4  2  0  0  0
  3 48  1  0  0  0
  4  5  1  0  0  0
  4 54  1  0  0  0
  5  6  1  0  0  0
  5  9  2  0  0  0
  6  7  1  0  0  0
  6  8  1  0  0  0
  6 55  1  0  0  0
  7 56  1  0  0  0
  7 57  1  0  0  0
  7 58  1  0  0  0
  8 59  1  0  0  0
  8 60  1  0  0  0
  8 61  1  0  0  0
  9 10  1  0  0  0
  9 44  1  0  0  0
 10 11  1  0  0  0
 10 42  2  0  0  0
 10 43  2  0  0  0
 11 12  1  0  0  0
 11 62  1  0  0  0
 12 13  1  0  0  0
 12 23  1  0  0  0
 12 63  1  0  0  0
 13 14  1  0  0  0
 13 64  1  0  0  0
 13 65  1  0  0  0
 14 15  2  0  0  0
 14 22  1  0  0  0
 15 16  1  0  0  0
 15 66  1  0  0  0
 16 17  1  0  0  0
 16 20  2  0  0  0
 17 18  1  0  0  0
 17 19  2  0  0  0
 18 67  1  0  0  0
 18 68  1  0  0  0
 19 69  1  0  0  0
 19105  1  0  0  0
 20 21  1  0  0  0
 20 70  1  0  0  0
 21 22  2  0  0  0
 21 71  1  0  0  0
 22 72  1  0  0  0
 23 24  1  0  0  0
 23 41  2  0  0  0
 24 25  1  0  0  0
 24 40  1  0  0  0
 25 26  1  0  0  0
 25 73  1  0  0  0
 25 74  1  0  0  0
 26 27  1  0  0  0
 26 75  1  0  0  0
 26 76  1  0  0  0
 27 28  1  0  0  0
 27 39  1  0  0  0
 28 29  1  0  0  0
 28 38  2  0  0  0
 29 30  1  0  0  0
 29 37  1  0  0  0
 29 77  1  0  0  0
 30 31  1  0  0  0
 30 78  1  0  0  0
 30 79  1  0  0  0
 31 32  1  0  0  0
 31 80  1  0  0  0
 31 81  1  0  0  0
 32 33  1  0  0  0
 32 36  1  0  0  0
 33 34  2  0  0  0
 33 35  1  0  0  0
 34 82  1  0  0  0
 34104  1  0  0  0
 35 83  1  0  0  0
 35 84  1  0  0  0
 36 37  1  0  0  0
 36 85  1  0  0  0
 36 86  1  0  0  0
 37 87  1  0  0  0
 37 88  1  0  0  0
 39 40  1  0  0  0
 39 89  1  0  0  0
 39 90  1  0  0  0
 40 91  1  0  0  0
 40 92  1  0  0  0
 44 45  1  0  0  0
 44 48  2  0  0  0
 45 46  1  0  0  0
 45 47  1  0  0  0
 45 93  1  0  0  0
 46 94  1  0  0  0
 46 95  1  0  0  0
 46 96  1  0  0  0
 47 97  1  0  0  0
 47 98  1  0  0  0
 47 99  1  0  0  0
 48100  1  0  0  0
 49101  1  0  0  0
 49102  1  0  0  0
 49103  1  0  0  0
M  CHG  2  19   1  34   1
M  END
> <s_m_source_file>
../2gv7_ligand.sdf

> <i_m_source_file_index>
1

> <s_epik_input>
W0NIM11bQ0hdKFtDSDNdKWMxW2NIXWMoW0NIXShbQ0gzXSlbQ0gzXSljKGMoW2NIXTEpW0NIXShbQ0gzXSlbQ0gzXSlTKD1PKSg9TylbTkhdW0NAQEhdKFtDSDJdYzJbY0hdYygvQyhbTkgyXSk9TlxbSF0pW2NIXVtjSF1bY0hdMilDKD1PKU4zW0NIMl1bQ0gyXU4oW0NIMl1bQ0gyXTMpQyg9TylbQ0hdNFtDSDJdW0NIMl1OKC9DKD1OXFtIXSlbTkgyXSlbQ0gyXVtDSDJdNA==

> <s_epik_cmdline>
J2VwaWtfYXBwJywgJy1pbWFlJywgJ2xpZ2FuZF9wcm8ubWFlJywgJy1vbWFlJywgJ2xpZ2FuZF9wcmVwLm1hZScsICctbXMnLCAnMScsICctcGgnLCAnNycsICctcGh0JywgJzAuNScsICctbnQn

> <r_lp_tautomer_probability>
1

> <r_epik_Ionization_Penalty>
  0.0004

> <r_epik_Ionization_Penalty_Charging>
  0.0002

> <r_epik_Ionization_Penalty_Neutral>
  0.0002

> <r_epik_State_Penalty>
 -0.0000

> <r_epik_Charging_Adjusted_Penalty>
0.000202164840877015

> <i_epik_Tot_Q>
2

> <i_epik_Tot_abs_Q>
2

> <s_epik_Chemistry_Notes>
This compound has an imine and may undergo hydrolysis.

$$$$
