2gvf_ligand
                    3D
 Schrodinger Suite 2020-3.
115119  0  0  1  0            999 V2000
  190.6710  -10.7660   48.1360 C   0  0  0  0  0  0
  190.0340  -11.7900   49.0680 C   0  0  0  0  0  0
  189.8020  -11.2810   50.4460 C   0  0  0  0  0  0
  190.7040  -11.5610   51.4660 C   0  0  0  0  0  0
  188.7000  -10.4840   50.7210 C   0  0  0  0  0  0
  190.5130  -11.0700   52.7590 C   0  0  0  0  0  0
  188.4850   -9.9920   51.9990 C   0  0  0  0  0  0
  189.3950  -10.2820   53.0070 C   0  0  0  0  0  0
  192.1750  -10.7200   48.3730 C   0  0  0  0  0  0
  192.7970  -11.7270   48.7060 O   0  0  0  0  0  0
  191.3960  -11.3270   53.8350 O   0  0  0  0  0  0
  192.5020  -12.1270   53.4680 C   0  0  0  0  0  0
  193.4990  -11.0850   53.0250 C   0  0  0  0  0  0
  194.5650  -11.7550   52.4530 O   0  0  0  0  0  0
  192.7620   -9.5530   48.1690 N   0  0  0  0  0  0
  194.2060   -9.4300   48.2100 C   0  0  1  0  0  0
  194.7350   -8.6670   46.9940 C   0  0  0  0  0  0
  196.2590   -8.5350   47.0510 C   0  0  0  0  0  0
  194.3750   -9.3680   45.6900 C   0  0  0  0  0  0
  196.8210   -7.7790   45.8650 C   0  0  0  0  0  0
  194.8800   -8.6160   44.4760 C   0  0  0  0  0  0
  196.3910   -8.4310   44.5510 C   0  0  0  0  0  0
  194.6410   -8.6560   49.4390 C   0  0  0  0  0  0
  194.3170   -7.4810   49.5760 O   0  0  0  0  0  0
  195.3160   -9.3210   50.3750 N   0  0  0  0  0  0
  195.4340  -10.7800   50.4920 C   0  0  0  0  0  0
  195.7820   -8.6470   51.5810 C   0  0  1  0  0  0
  196.3580   -9.7800   52.4080 C   0  0  0  0  0  0
  195.4860  -10.8620   51.9710 C   0  0  1  0  0  0
  196.8690   -7.6690   51.1830 C   0  0  0  0  0  0
  197.8440   -8.0430   50.5240 O   0  0  0  0  0  0
  196.6850   -6.4110   51.5720 N   0  0  0  0  0  0
  197.6280   -5.3410   51.2610 C   0  0  1  0  0  0
  196.9530   -4.2670   50.3840 C   0  0  0  0  0  0
  196.1020   -4.8340   49.2430 C   0  0  0  0  0  0
  196.0810   -4.0390   47.9920 C   0  0  0  0  0  0
  198.6940   -5.8640   53.4180 O   0  0  0  0  0  0
  198.3220   -4.7920   52.5180 C   0  0  1  0  0  0
  199.5300   -2.8090   51.6750 O   0  0  0  0  0  0
  200.6260   -4.7360   52.0000 N   0  0  0  0  0  0
  201.9470   -4.1920   51.7620 C   0  0  0  0  0  0
  202.2260   -4.1450   50.2840 C   0  0  0  0  0  0
  201.3580   -4.4080   49.4520 O   0  0  0  0  0  0
  199.5330   -3.9930   52.0210 C   0  0  0  0  0  0
  203.4560   -3.7720   49.9640 N   0  0  0  0  0  0
  203.9360   -3.6910   48.6030 C   0  0  1  0  0  0
  203.7270   -2.3680   47.8990 C   0  0  0  0  0  0
  203.3130   -2.3680   46.5820 C   0  0  0  0  0  0
  203.9990   -1.1580   48.5160 C   0  0  0  0  0  0
  203.1760   -1.1860   45.8860 C   0  0  0  0  0  0
  203.8670    0.0330   47.8320 C   0  0  0  0  0  0
  203.4570    0.0230   46.5140 C   0  0  0  0  0  0
  205.4530   -3.7330   48.7280 C   0  0  0  0  0  0
  206.0200   -3.1800   49.6800 O   0  0  0  0  0  0
  206.1330   -4.3830   47.7700 N   0  0  0  0  0  0
  207.5310   -4.3920   47.8330 C   0  0  0  0  0  0
  205.4750   -5.0340   46.7310 C   0  0  0  0  0  0
  190.4754  -11.0495   47.0913 H   0  0  0  0  0  0
  190.2407   -9.7731   48.3332 H   0  0  0  0  0  0
  189.0581  -12.0968   48.6636 H   0  0  0  0  0  0
  190.6898  -12.6693   49.1498 H   0  0  0  0  0  0
  191.5780  -12.1762   51.2521 H   0  0  0  0  0  0
  187.9965  -10.2424   49.9243 H   0  0  0  0  0  0
  187.6073   -9.3815   52.2113 H   0  0  0  0  0  0
  189.2300   -9.8854   54.0088 H   0  0  0  0  0  0
  192.8397  -12.7075   54.3392 H   0  0  0  0  0  0
  192.2060  -12.8143   52.6618 H   0  0  0  0  0  0
  193.0267  -10.4134   52.2929 H   0  0  0  0  0  0
  193.8315  -10.5018   53.8964 H   0  0  0  0  0  0
  192.1402   -8.6686   47.9662 H   0  0  0  0  0  0
  194.5595  -10.4714   48.2306 H   0  0  0  0  0  0
  194.2617   -7.6743   47.0171 H   0  0  0  0  0  0
  196.5462   -7.9935   47.9644 H   0  0  0  0  0  0
  196.7137   -9.5366   47.0602 H   0  0  0  0  0  0
  194.8216  -10.3732   45.6787 H   0  0  0  0  0  0
  193.2812   -9.4519   45.6086 H   0  0  0  0  0  0
  196.4530   -6.7425   45.8831 H   0  0  0  0  0  0
  197.9198   -7.7790   45.9174 H   0  0  0  0  0  0
  194.6348   -9.1826   43.5656 H   0  0  0  0  0  0
  194.4013   -7.6266   44.4322 H   0  0  0  0  0  0
  196.7026   -7.7969   43.7079 H   0  0  0  0  0  0
  196.8640   -9.4200   44.4604 H   0  0  0  0  0  0
  194.5559  -11.2569   50.0321 H   0  0  0  0  0  0
  196.3458  -11.1166   49.9770 H   0  0  0  0  0  0
  194.9842   -8.0945   52.0989 H   0  0  0  0  0  0
  197.4176   -9.9214   52.1486 H   0  0  0  0  0  0
  196.2718   -9.5345   53.4768 H   0  0  0  0  0  0
  195.6623  -11.3350   52.9484 H   0  0  0  0  0  0
  195.7761   -6.1919   52.1516 H   0  0  0  0  0  0
  198.4224   -5.8164   50.6669 H   0  0  0  0  0  0
  196.2889   -3.6495   51.0066 H   0  0  0  0  0  0
  197.7239   -3.6296   49.9264 H   0  0  0  0  0  0
  196.4772   -5.8302   48.9658 H   0  0  0  0  0  0
  195.0553   -4.9148   49.5714 H   0  0  0  0  0  0
  195.4423   -4.5401   47.2498 H   0  0  0  0  0  0
  197.1036   -3.9512   47.5962 H   0  0  0  0  0  0
  195.6816   -3.0358   48.2018 H   0  0  0  0  0  0
  197.9187   -6.5153   53.8478 H   0  0  0  0  0  0
  197.6620   -4.1817   53.1520 H   0  0  0  0  0  0
  200.4986   -5.8146   52.1743 H   0  0  0  0  0  0
  202.0036   -3.1734   52.1734 H   0  0  0  0  0  0
  202.6991   -4.8277   52.2521 H   0  0  0  0  0  0
  204.1247   -3.5165   50.7992 H   0  0  0  0  0  0
  203.3855   -4.4889   48.0831 H   0  0  0  0  0  0
  203.0919   -3.3135   46.0868 H   0  0  0  0  0  0
  204.3220   -1.1466   49.5570 H   0  0  0  0  0  0
  202.8484   -1.1987   44.8465 H   0  0  0  0  0  0
  204.0855    0.9775   48.3302 H   0  0  0  0  0  0
  203.3537    0.9600   45.9668 H   0  0  0  0  0  0
  207.8618   -3.8291   48.7183 H   0  0  0  0  0  0
  207.9419   -3.9240   46.9263 H   0  0  0  0  0  0
  207.8881   -5.4300   47.9039 H   0  0  0  0  0  0
  204.3883   -4.9154   46.8539 H   0  0  0  0  0  0
  205.7314   -6.1036   46.7477 H   0  0  0  0  0  0
  205.7851   -4.5976   45.7701 H   0  0  0  0  0  0
  1  2  1  0  0  0
  1  9  1  0  0  0
  1 58  1  0  0  0
  1 59  1  0  0  0
  2  3  1  0  0  0
  2 60  1  0  0  0
  2 61  1  0  0  0
  3  4  2  0  0  0
  3  5  1  0  0  0
  4  6  1  0  0  0
  4 62  1  0  0  0
  5  7  2  0  0  0
  5 63  1  0  0  0
  6  8  2  0  0  0
  6 11  1  0  0  0
  7  8  1  0  0  0
  7 64  1  0  0  0
  8 65  1  0  0  0
  9 10  2  0  0  0
  9 15  1  0  0  0
 11 12  1  0  0  0
 12 13  1  0  0  0
 12 66  1  0  0  0
 12 67  1  0  0  0
 13 14  1  0  0  0
 13 68  1  0  0  0
 13 69  1  0  0  0
 14 29  1  0  0  0
 15 16  1  0  0  0
 15 70  1  0  0  0
 16 17  1  0  0  0
 16 23  1  0  0  0
 16 71  1  0  0  0
 17 18  1  0  0  0
 17 19  1  0  0  0
 17 72  1  0  0  0
 18 20  1  0  0  0
 18 73  1  0  0  0
 18 74  1  0  0  0
 19 21  1  0  0  0
 19 75  1  0  0  0
 19 76  1  0  0  0
 20 22  1  0  0  0
 20 77  1  0  0  0
 20 78  1  0  0  0
 21 22  1  0  0  0
 21 79  1  0  0  0
 21 80  1  0  0  0
 22 81  1  0  0  0
 22 82  1  0  0  0
 23 24  2  0  0  0
 23 25  1  0  0  0
 25 26  1  0  0  0
 25 27  1  0  0  0
 26 29  1  0  0  0
 26 83  1  0  0  0
 26 84  1  0  0  0
 27 28  1  0  0  0
 27 30  1  0  0  0
 27 85  1  0  0  0
 28 29  1  0  0  0
 28 86  1  0  0  0
 28 87  1  0  0  0
 29 88  1  0  0  0
 30 31  2  0  0  0
 30 32  1  0  0  0
 32 33  1  0  0  0
 32 89  1  0  0  0
 33 34  1  0  0  0
 33 38  1  0  0  0
 33 90  1  0  0  0
 34 35  1  0  0  0
 34 91  1  0  0  0
 34 92  1  0  0  0
 35 36  1  0  0  0
 35 93  1  0  0  0
 35 94  1  0  0  0
 36 95  1  0  0  0
 36 96  1  0  0  0
 36 97  1  0  0  0
 37 38  1  0  0  0
 37 98  1  0  0  0
 38 44  1  0  0  0
 38 99  1  0  0  0
 39 44  2  0  0  0
 40 41  1  0  0  0
 40 44  1  0  0  0
 40100  1  0  0  0
 41 42  1  0  0  0
 41101  1  0  0  0
 41102  1  0  0  0
 42 43  2  0  0  0
 42 45  1  0  0  0
 45 46  1  0  0  0
 45103  1  0  0  0
 46 47  1  0  0  0
 46 53  1  0  0  0
 46104  1  0  0  0
 47 48  2  0  0  0
 47 49  1  0  0  0
 48 50  1  0  0  0
 48105  1  0  0  0
 49 51  2  0  0  0
 49106  1  0  0  0
 50 52  2  0  0  0
 50107  1  0  0  0
 51 52  1  0  0  0
 51108  1  0  0  0
 52109  1  0  0  0
 53 54  2  0  0  0
 53 55  1  0  0  0
 55 56  1  0  0  0
 55 57  1  0  0  0
 56110  1  0  0  0
 56111  1  0  0  0
 56112  1  0  0  0
 57113  1  0  0  0
 57114  1  0  0  0
 57115  1  0  0  0
M  END
> <s_m_source_file>
../2gvf_ligand.sdf

> <i_m_source_file_index>
1

> <s_epik_input>
W2NIXTFbY0hdW2NIXWMoW2NIXWMxMilPW0NIMl1bQ0gyXU9bQ0BIXTNbQ0gyXU4oQyg9TylbQ0BASF0oW05IXUMoPU8pW0NIMl1bQ0gyXTIpW0NIXTRbQ0gyXVtDSDJdW0NIMl1bQ0gyXVtDSDJdNClbQ0BASF0oW0NIMl0zKUMoPU8pW05IXVtDQEBIXShbQ0gyXVtDSDJdW0NIM10pW0NAQEhdKFtPSF0pQyg9TylbTkhdW0NIMl1DKD1PKVtOSF1bQ0BIXShDKD1PKU4oW0NIM10pW0NIM10pYzVbY0hdW2NIXVtjSF1bY0hdW2NIXTU=

> <s_epik_cmdline>
J2VwaWtfYXBwJywgJy1pbWFlJywgJ2xpZ2FuZF9wcm8ubWFlJywgJy1vbWFlJywgJ2xpZ2FuZF9wcmVwLm1hZScsICctbXMnLCAnMScsICctcGgnLCAnNycsICctcGh0JywgJzAuNScsICctbnQn

> <r_lp_tautomer_probability>
1

> <r_epik_Ionization_Penalty>
  0.0000

> <r_epik_Ionization_Penalty_Charging>
  0.0000

> <r_epik_Ionization_Penalty_Neutral>
  0.0000

> <r_epik_State_Penalty>
 -0.0000

> <r_epik_Charging_Adjusted_Penalty>
0

> <i_epik_Tot_Q>
0

> <i_epik_Tot_abs_Q>
0

$$$$
