2gvv_ligand
                    3D
 Schrodinger Suite 2020-3.
 35 36  0  0  1  0            999 V2000
   19.6170    4.9840   58.4910 C   0  0  0  0  0  0
   21.0620    4.6560   58.1030 C   0  0  0  0  0  0
   21.4050    3.5080   59.0510 C   0  0  0  0  0  0
   20.8830    4.1270   60.3470 C   0  0  0  0  0  0
   19.4540    4.4810   59.9300 C   0  0  0  0  0  0
   18.6820    3.2760   59.8910 O   0  0  0  0  0  0
   17.7730    2.8330   61.1460 P   0  0  0  0  0  0
   17.4800    4.1850   61.9950 N   0  0  0  0  0  0
   16.5330    2.1360   60.7390 O   0  0  0  0  0  0
   18.7160    1.9200   62.0790 O   0  0  0  0  0  0
   18.3480    1.6610   63.4370 C   0  0  0  0  0  0
   18.4440    0.1580   63.7050 C   0  0  0  0  0  0
   19.9590   -0.0010   63.8190 C   0  0  0  0  0  0
   20.2210    1.0740   64.8740 C   0  0  0  0  0  0
   19.4320    2.2700   64.3340 C   0  0  0  0  0  0
   19.4572    6.0703   58.4250 H   0  0  0  0  0  0
   18.9275    4.4696   57.8054 H   0  0  0  0  0  0
   21.0994    4.3613   57.0439 H   0  0  0  0  0  0
   21.6939    5.5427   58.2594 H   0  0  0  0  0  0
   20.8768    2.5978   58.7308 H   0  0  0  0  0  0
   22.4900    3.3282   59.0317 H   0  0  0  0  0  0
   20.9375    3.3839   61.1562 H   0  0  0  0  0  0
   21.4975    5.0007   60.6096 H   0  0  0  0  0  0
   18.9255    5.1616   60.6138 H   0  0  0  0  0  0
   16.5193    4.4659   62.1912 H   0  0  0  0  0  0
   18.2566    4.7538   62.3323 H   0  0  0  0  0  0
   17.3370    2.0757   63.5630 H   0  0  0  0  0  0
   17.9000   -0.0850   64.6297 H   0  0  0  0  0  0
   18.0006   -0.3937   62.8630 H   0  0  0  0  0  0
   20.1970   -1.0259   64.1399 H   0  0  0  0  0  0
   20.4228    0.1940   62.8408 H   0  0  0  0  0  0
   19.8532    0.7265   65.8507 H   0  0  0  0  0  0
   21.3016    1.2697   64.9376 H   0  0  0  0  0  0
   20.0688    2.9392   63.7368 H   0  0  0  0  0  0
   18.9580    2.8422   65.1451 H   0  0  0  0  0  0
  1  2  1  0  0  0
  1  5  1  0  0  0
  1 16  1  0  0  0
  1 17  1  0  0  0
  2  3  1  0  0  0
  2 18  1  0  0  0
  2 19  1  0  0  0
  3  4  1  0  0  0
  3 20  1  0  0  0
  3 21  1  0  0  0
  4  5  1  0  0  0
  4 22  1  0  0  0
  4 23  1  0  0  0
  5  6  1  0  0  0
  5 24  1  0  0  0
  6  7  1  0  0  0
  7  8  1  0  0  0
  7  9  2  0  0  0
  7 10  1  0  0  0
  8 25  1  0  0  0
  8 26  1  0  0  0
 10 11  1  0  0  0
 11 12  1  0  0  0
 11 15  1  0  0  0
 11 27  1  0  0  0
 12 13  1  0  0  0
 12 28  1  0  0  0
 12 29  1  0  0  0
 13 14  1  0  0  0
 13 30  1  0  0  0
 13 31  1  0  0  0
 14 15  1  0  0  0
 14 32  1  0  0  0
 14 33  1  0  0  0
 15 34  1  0  0  0
 15 35  1  0  0  0
M  END
> <s_m_source_file>
../2gvv_ligand.sdf

> <i_m_source_file_index>
1

> <s_epik_input>
W0NIMl0xW0NIMl1bQ0gyXVtDSDJdW0NIXTFPUCg9TykoW05IMl0pT1tDSF0yW0NIMl1bQ0gyXVtDSDJdW0NIMl0y

> <s_epik_cmdline>
J2VwaWtfYXBwJywgJy1pbWFlJywgJ2xpZ2FuZF9wcm8ubWFlJywgJy1vbWFlJywgJ2xpZ2FuZF9wcmVwLm1hZScsICctbXMnLCAnMScsICctcGgnLCAnNycsICctcGh0JywgJzAuNScsICctbnQn

> <r_lp_tautomer_probability>
1

> <r_epik_Ionization_Penalty>
  0.0000

> <r_epik_Ionization_Penalty_Charging>
  0.0000

> <r_epik_Ionization_Penalty_Neutral>
  0.0000

> <r_epik_State_Penalty>
 -0.0000

> <r_epik_Charging_Adjusted_Penalty>
0

> <i_epik_Tot_Q>
0

> <i_epik_Tot_abs_Q>
0

$$$$
