2gvz_ligand
                    3D
 Schrodinger Suite 2020-3.
 62 65  0  0  1  0            999 V2000
   66.4750  -13.8310   54.2670 C   0  0  0  0  0  0
   65.0900  -14.2600   54.5890 N   0  0  0  0  0  0
   64.6280  -15.4970   54.9490 C   0  0  0  0  0  0
   65.6330  -16.7210   55.0680 C   0  0  0  0  0  0
   65.0050  -18.1670   55.2880 C   0  0  0  0  0  0
   63.5100  -18.2060   55.7560 C   0  0  0  0  0  0
   62.7080  -16.8750   55.5750 C   0  0  0  0  0  0
   63.2250  -15.6280   55.2040 C   0  0  0  0  0  0
   62.2010  -14.4790   55.1090 C   0  0  0  0  0  0
   62.2030  -13.3990   56.0610 O   0  0  0  0  0  0
   57.5360   -9.8790   54.5440 P   0  0  2  0  0  0
   58.0550   -8.7880   53.5430 O   0  5  0  0  0  0
   56.2280  -10.4840   54.2330 O   0  0  0  0  0  0
   57.7730   -9.6350   56.0790 O   0  0  0  0  0  0
   56.7890   -8.9600   57.0770 P   0  0  2  0  0  0
   55.6160  -10.0680   56.9290 O   0  5  0  0  0  0
   56.1280   -7.5930   56.8900 O   0  0  0  0  0  0
   57.6880   -9.3530   58.2650 O   0  0  0  0  0  0
   58.4560   -8.1580   58.8760 P   0  0  0  0  0  0
   58.9490   -7.1550   57.6840 O   0  5  0  0  0  0
   57.3550   -7.4640   59.8430 O   0  5  0  0  0  0
   59.6300   -8.6540   59.6390 O   0  0  0  0  0  0
   57.4750  -15.5500   52.2530 N   0  0  0  0  0  0
   57.2030  -16.8360   51.9360 C   0  0  0  0  0  0
   56.1400  -16.8940   51.1300 N   0  0  0  0  0  0
   55.7230  -15.6530   50.9250 C   0  0  0  0  0  0
   56.5740  -14.7780   51.6440 C   0  0  0  0  0  0
   56.3950  -13.4190   51.6250 N   0  0  0  0  0  0
   55.4100  -12.8080   50.9330 C   0  0  0  0  0  0
   54.5160  -13.6240   50.1830 N   0  0  0  0  0  0
   54.6750  -15.0600   50.1770 C   0  0  0  0  0  0
   53.8360  -15.8190   49.4700 N   0  0  0  0  0  0
   61.3070  -14.5820   54.0780 O   0  0  0  0  0  0
   60.3130  -13.5540   53.6830 C   0  0  1  0  0  0
   59.5560  -14.0960   52.4810 C   0  0  1  0  0  0
   60.4470  -14.7100   51.5470 O   0  0  0  0  0  0
   59.1710  -13.4130   54.6860 C   0  0  1  0  0  0
   58.4050  -12.0480   54.8740 C   0  0  0  0  0  0
   58.7830  -10.9190   54.3950 O   0  0  0  0  0  0
   58.1630  -14.4440   54.3430 O   0  0  0  0  0  0
   58.6190  -15.1150   53.1320 C   0  0  1  0  0  0
   66.4786  -12.7593   54.0190 H   0  0  0  0  0  0
   66.8469  -14.4076   53.4072 H   0  0  0  0  0  0
   67.1252  -14.0083   55.1363 H   0  0  0  0  0  0
   66.7175  -16.5510   54.9979 H   0  0  0  0  0  0
   65.0431  -18.7307   54.3442 H   0  0  0  0  0  0
   65.5790  -18.7027   56.0584 H   0  0  0  0  0  0
   62.9669  -18.9734   55.1849 H   0  0  0  0  0  0
   63.4676  -18.4483   56.8281 H   0  0  0  0  0  0
   61.6317  -16.9876   55.7720 H   0  0  0  0  0  0
   57.7687  -17.6991   52.2870 H   0  0  0  0  0  0
   55.3023  -11.7234   50.9479 H   0  0  0  0  0  0
   53.9555  -16.9125   49.4642 H   0  0  0  0  0  0
   53.0247  -15.3513   48.8928 H   0  0  0  0  0  0
   60.8976  -12.6309   53.5564 H   0  0  0  0  0  0
   59.0653  -13.3430   51.8468 H   0  0  0  0  0  0
   61.1797  -14.0972   51.0014 H   0  0  0  0  0  0
   59.6924  -13.5722   55.6414 H   0  0  0  0  0  0
   57.3941  -12.1333   54.4488 H   0  0  0  0  0  0
   58.3332  -11.8125   55.9461 H   0  0  0  0  0  0
   59.1203  -16.0639   53.3732 H   0  0  0  0  0  0
   64.2664  -13.5318   54.5534 H   0  0  0  0  0  0
  1  2  1  0  0  0
  1 42  1  0  0  0
  1 43  1  0  0  0
  1 44  1  0  0  0
  2  3  1  0  0  0
  2 62  1  0  0  0
  3  4  2  0  0  0
  3  8  1  0  0  0
  4  5  1  0  0  0
  4 45  1  0  0  0
  5  6  1  0  0  0
  5 46  1  0  0  0
  5 47  1  0  0  0
  6  7  1  0  0  0
  6 48  1  0  0  0
  6 49  1  0  0  0
  7  8  2  0  0  0
  7 50  1  0  0  0
  8  9  1  0  0  0
  9 10  2  0  0  0
  9 33  1  0  0  0
 11 12  1  0  0  0
 11 13  2  0  0  0
 11 14  1  0  0  0
 11 39  1  0  0  0
 14 15  1  0  0  0
 15 16  1  0  0  0
 15 17  2  0  0  0
 15 18  1  0  0  0
 18 19  1  0  0  0
 19 20  1  0  0  0
 19 21  1  0  0  0
 19 22  2  0  0  0
 23 24  1  0  0  0
 23 27  1  0  0  0
 23 41  1  0  0  0
 24 25  2  0  0  0
 24 51  1  0  0  0
 25 26  1  0  0  0
 26 27  2  0  0  0
 26 31  1  0  0  0
 27 28  1  0  0  0
 28 29  2  0  0  0
 29 30  1  0  0  0
 29 52  1  0  0  0
 30 31  2  0  0  0
 31 32  1  0  0  0
 32 53  1  0  0  0
 32 54  1  0  0  0
 33 34  1  0  0  0
 34 35  1  0  0  0
 34 37  1  0  0  0
 34 55  1  0  0  0
 35 36  1  0  0  0
 35 41  1  0  0  0
 35 56  1  0  0  0
 36 57  1  0  0  0
 37 38  1  0  0  0
 37 40  1  0  0  0
 37 58  1  0  0  0
 38 39  1  0  0  0
 38 59  1  0  0  0
 38 60  1  0  0  0
 40 41  1  0  0  0
 41 61  1  0  0  0
M  CHG  4  12  -1  16  -1  20  -1  21  -1
M  END
> <s_m_source_file>
../2gvz_ligand.sdf

> <i_m_source_file_index>
1

> <s_epik_input>
W0NIM10vTj1DMVxbQ0gyXVtDSDJdW0NIMl1bQ0hdPUMxQyg9TylPW0NASF0yW0NAQEhdKFtPSF0pW0NASF0obihbY0hdbjMpYyhjMzQpbltjSF1uYzRbTkgyXSlPW0NAQEhdMltDSDJdT1tQQF0oPU8pKFtPSF0pT1tQQEBdKD1PKShbT0hdKU9QKD1PKShbT0hdKVtPSF0=

> <s_epik_cmdline>
J2VwaWtfYXBwJywgJy1pbWFlJywgJ2xpZ2FuZF9wcm8ubWFlJywgJy1vbWFlJywgJ2xpZ2FuZF9wcmVwLm1hZScsICctbXMnLCAnMScsICctcGgnLCAnNycsICctcGh0JywgJzAuNScsICctbnQn

> <r_lp_tautomer_probability>
1

> <r_epik_Ionization_Penalty>
  0.0888

> <r_epik_Ionization_Penalty_Charging>
  0.0878

> <r_epik_Ionization_Penalty_Neutral>
  0.0010

> <r_epik_State_Penalty>
 -0.0000

> <r_epik_Charging_Adjusted_Penalty>
0.0878375378069116

> <i_epik_Tot_Q>
-4

> <i_epik_Tot_abs_Q>
4

> <s_epik_Chemistry_Notes>
This compound has an ester and may undergo hydrolysis at high or low pH. This compound has an imine and may undergo hydrolysis. This compound contains an acetal/aminal-like group ( X-CH(R)-Y where X, Y are N, S, or O) that may be acid/base labile, releasing an aldehyde.

$$$$
