2gyi_ligand
                    3D
 Schrodinger Suite 2020-3.
 19 18  0  0  1  0            999 V2000
   15.8850    5.7280  -12.2640 C   0  0  0  0  0  0
   17.0010    6.3900  -11.4310 C   0  0  1  0  0  0
   16.7440    6.1030   -9.9320 C   0  0  1  0  0  0
   17.9580    6.0650   -8.9580 C   0  0  0  0  0  0
   15.8850    4.5690  -12.8860 N   0  0  0  0  0  0
   14.7680    6.4130  -12.1500 O   0  0  0  0  0  0
   18.2780    6.4390  -11.9720 O   0  0  0  0  0  0
   16.0870    7.2920   -9.6000 O   0  0  0  0  0  0
   18.6860    4.9010   -9.0880 O   0  0  0  0  0  0
   14.7940    4.2980  -13.6690 O   0  0  0  0  0  0
   17.1166    7.4735  -11.5815 H   0  0  0  0  0  0
   16.2058    5.1522   -9.8044 H   0  0  0  0  0  0
   18.6250    6.9136   -9.1701 H   0  0  0  0  0  0
   17.5981    6.1319   -7.9207 H   0  0  0  0  0  0
   16.6995    3.8342  -12.8043 H   0  0  0  0  0  0
   18.4137    6.6464  -13.0437 H   0  0  0  0  0  0
   15.1736    7.5846  -10.1387 H   0  0  0  0  0  0
   19.5747    4.7352   -8.4613 H   0  0  0  0  0  0
   14.7325    3.3456  -14.2160 H   0  0  0  0  0  0
  1  2  1  0  0  0
  1  5  1  0  0  0
  1  6  2  0  0  0
  2  3  1  0  0  0
  2  7  1  0  0  0
  2 11  1  0  0  0
  3  4  1  0  0  0
  3  8  1  0  0  0
  3 12  1  0  0  0
  4  9  1  0  0  0
  4 13  1  0  0  0
  4 14  1  0  0  0
  5 10  1  0  0  0
  5 15  1  0  0  0
  7 16  1  0  0  0
  8 17  1  0  0  0
  9 18  1  0  0  0
 10 19  1  0  0  0
M  END
> <s_m_source_file>
../2gyi_ligand.sdf

> <i_m_source_file_index>
1

> <s_epik_input>
W09IXVtOSF1DKD1PKVtDQEhdKFtPSF0pW0NASF0oW09IXSlbQ0gyXVtPSF0=

> <s_epik_cmdline>
J2VwaWtfYXBwJywgJy1pbWFlJywgJ2xpZ2FuZF9wcm8ubWFlJywgJy1vbWFlJywgJ2xpZ2FuZF9wcmVwLm1hZScsICctbXMnLCAnMScsICctcGgnLCAnNycsICctcGh0JywgJzAuNScsICctbnQn

> <r_lp_tautomer_probability>
1

> <r_epik_Ionization_Penalty>
  0.0084

> <r_epik_Ionization_Penalty_Charging>
  0.0000

> <r_epik_Ionization_Penalty_Neutral>
  0.0084

> <r_epik_State_Penalty>
 -0.0000

> <r_epik_Charging_Adjusted_Penalty>
0

> <i_epik_Tot_Q>
0

> <i_epik_Tot_abs_Q>
0

> <s_epik_Chemistry_Notes>
This compound has a N-S or N-O group and may undergo hydrolysis at high or low pH.

$$$$
