2h03_ligand
                    3D
 Schrodinger Suite 2020-3.
 64 64  0  0  1  0            999 V2000
   22.4760    4.6290   24.2290 N   0  0  0  0  0  0
   19.5270    1.7630   31.6650 O   0  0  0  0  0  0
   20.4130    2.5950   31.5110 C   0  0  0  0  0  0
   21.2760    2.8430   32.6380 O   0  0  0  0  0  0
   21.2000    2.0150   33.7980 C   0  0  0  0  0  0
   22.6080    1.6440   34.1970 C   0  0  0  0  0  0
   20.6550    3.3490   30.2220 C   0  0  0  0  0  0
   20.9270    4.8330   30.4910 C   0  0  0  0  0  0
   19.7780    5.6610   31.0800 C   0  0  0  0  0  0
   20.2060    7.0420   31.3380 N   0  0  0  0  0  0
   20.0610    8.1280   30.5670 C   0  0  0  0  0  0
   19.5320    8.0820   29.4670 O   0  0  0  0  0  0
   20.5370    9.4430   30.9980 O   0  0  0  0  0  0
   20.2510   10.6570   30.2850 C   0  0  0  0  0  0
   18.8420   10.6330   29.6990 C   0  0  0  0  0  0
   20.3310   11.8610   31.2230 C   0  0  0  0  0  0
   21.2850   10.8130   29.1670 C   0  0  0  0  0  0
   19.4450    3.1890   29.3380 C   0  0  0  0  0  0
   19.0260    1.8380   29.0280 O   0  0  0  0  0  0
   18.0140    1.6700   28.0200 C   0  0  0  0  0  0
   17.8430    0.1950   27.7590 C   0  0  0  0  0  0
   18.8300    4.1490   28.8910 O   0  0  0  0  0  0
   21.8490    2.6300   29.5480 C   0  0  0  0  0  0
   22.0220    3.1400   28.1240 C   0  0  0  0  0  0
   21.5080    2.4320   27.0280 C   0  0  0  0  0  0
   21.6700    2.9150   25.7180 C   0  0  0  0  0  0
   22.7030    4.3430   27.8980 C   0  0  0  0  0  0
   22.8510    4.8380   26.5940 C   0  0  0  0  0  0
   22.3350    4.1300   25.4950 C   0  0  0  0  0  0
   23.6760    4.1230   23.2510 S   0  0  0  0  0  0
   24.8500    4.7340   23.8970 O   0  0  0  0  0  0
   23.3030    4.7160   21.9520 O   0  5  0  0  0  0
   23.7460    2.6600   23.3720 O   0  0  0  0  0  0
   21.7602    5.3856   23.8752 H   0  0  0  0  0  0
   20.7071    2.5677   34.6113 H   0  0  0  0  0  0
   20.6195    1.1101   33.5652 H   0  0  0  0  0  0
   22.5791    1.0040   35.0912 H   0  0  0  0  0  0
   23.1792    2.5577   34.4183 H   0  0  0  0  0  0
   23.0916    1.1001   33.3722 H   0  0  0  0  0  0
   21.7560    4.9298   31.2075 H   0  0  0  0  0  0
   21.1963    5.3331   29.5490 H   0  0  0  0  0  0
   18.9373    5.6780   30.3709 H   0  0  0  0  0  0
   19.4492    5.2098   32.0278 H   0  0  0  0  0  0
   20.7240    7.2912   32.2759 H   0  0  0  0  0  0
   18.1089   10.5206   30.5114 H   0  0  0  0  0  0
   18.7492    9.7873   29.0018 H   0  0  0  0  0  0
   18.6524   11.5738   29.1615 H   0  0  0  0  0  0
   19.5882   11.7496   32.0267 H   0  0  0  0  0  0
   20.1237   12.7811   30.6570 H   0  0  0  0  0  0
   21.3387   11.9187   31.6604 H   0  0  0  0  0  0
   21.2280    9.9468   28.4914 H   0  0  0  0  0  0
   22.2925   10.8709   29.6048 H   0  0  0  0  0  0
   21.0775   11.7334   28.6014 H   0  0  0  0  0  0
   17.0668    2.1016   28.3759 H   0  0  0  0  0  0
   18.3265    2.1817   27.0978 H   0  0  0  0  0  0
   17.0715    0.0459   26.9892 H   0  0  0  0  0  0
   17.5365   -0.3086   28.6877 H   0  0  0  0  0  0
   18.7962   -0.2285   27.4096 H   0  0  0  0  0  0
   22.7673    2.8297   30.1196 H   0  0  0  0  0  0
   21.6594    1.5467   29.5255 H   0  0  0  0  0  0
   20.9761    1.4952   27.1941 H   0  0  0  0  0  0
   21.2788    2.3453   24.8751 H   0  0  0  0  0  0
   23.1198    4.8969   28.7392 H   0  0  0  0  0  0
   23.3717    5.7817   26.4313 H   0  0  0  0  0  0
  1 29  1  0  0  0
  1 30  1  0  0  0
  1 34  1  0  0  0
  2  3  2  0  0  0
  3  4  1  0  0  0
  3  7  1  0  0  0
  4  5  1  0  0  0
  5  6  1  0  0  0
  5 35  1  0  0  0
  5 36  1  0  0  0
  6 37  1  0  0  0
  6 38  1  0  0  0
  6 39  1  0  0  0
  7  8  1  0  0  0
  7 18  1  0  0  0
  7 23  1  0  0  0
  8  9  1  0  0  0
  8 40  1  0  0  0
  8 41  1  0  0  0
  9 10  1  0  0  0
  9 42  1  0  0  0
  9 43  1  0  0  0
 10 11  1  0  0  0
 10 44  1  0  0  0
 11 12  2  0  0  0
 11 13  1  0  0  0
 13 14  1  0  0  0
 14 15  1  0  0  0
 14 16  1  0  0  0
 14 17  1  0  0  0
 15 45  1  0  0  0
 15 46  1  0  0  0
 15 47  1  0  0  0
 16 48  1  0  0  0
 16 49  1  0  0  0
 16 50  1  0  0  0
 17 51  1  0  0  0
 17 52  1  0  0  0
 17 53  1  0  0  0
 18 19  1  0  0  0
 18 22  2  0  0  0
 19 20  1  0  0  0
 20 21  1  0  0  0
 20 54  1  0  0  0
 20 55  1  0  0  0
 21 56  1  0  0  0
 21 57  1  0  0  0
 21 58  1  0  0  0
 23 24  1  0  0  0
 23 59  1  0  0  0
 23 60  1  0  0  0
 24 25  2  0  0  0
 24 27  1  0  0  0
 25 26  1  0  0  0
 25 61  1  0  0  0
 26 29  2  0  0  0
 26 62  1  0  0  0
 27 28  2  0  0  0
 27 63  1  0  0  0
 28 29  1  0  0  0
 28 64  1  0  0  0
 30 31  2  0  0  0
 30 32  1  0  0  0
 30 33  2  0  0  0
M  CHG  1  32  -1
M  END
> <s_m_source_file>
../2h03_ligand.sdf

> <i_m_source_file_index>
1

> <s_epik_input>
Tz1TKD1PKShbT0hdKVtOSF1jKFtjSF1bY0hdMSlbY0hdW2NIXWMxW0NIMl1DKEMoPU8pT1tDSDJdW0NIM10pKEMoPU8pT1tDSDJdW0NIM10pW0NIMl1bQ0gyXVtOSF1DKD1PKU9DKFtDSDNdKShbQ0gzXSlbQ0gzXQ==

> <s_epik_cmdline>
J2VwaWtfYXBwJywgJy1pbWFlJywgJ2xpZ2FuZF9wcm8ubWFlJywgJy1vbWFlJywgJ2xpZ2FuZF9wcmVwLm1hZScsICctbXMnLCAnMScsICctcGgnLCAnNycsICctcGh0JywgJzAuNScsICctbnQn

> <r_lp_tautomer_probability>
1

> <r_epik_Ionization_Penalty>
  0.0071

> <r_epik_Ionization_Penalty_Charging>
  0.0000

> <r_epik_Ionization_Penalty_Neutral>
  0.0071

> <r_epik_State_Penalty>
 -0.0000

> <r_epik_Charging_Adjusted_Penalty>
4.09899988921955e-08

> <i_epik_Tot_Q>
-1

> <i_epik_Tot_abs_Q>
1

> <s_epik_Chemistry_Notes>
This compound has an ester and may undergo hydrolysis at high or low pH.

$$$$
