2h13_ligand
                    3D
 Schrodinger Suite 2020-3.
 81 80  0  0  1  0            999 V2000
  -11.2080  -29.5380   -7.6050 N   0  3  0  0  0  0
  -11.7120  -28.1300   -7.6950 C   0  0  2  0  0  0
  -13.2390  -28.0620   -7.5470 C   0  0  0  0  0  0
  -13.9070  -29.0970   -7.6000 O   0  0  0  0  0  0
  -11.3150  -27.5110   -9.0160 C   0  0  0  0  0  0
  -13.7610  -26.8450   -7.3970 N   0  0  0  0  0  0
  -15.1750  -26.5820   -7.1780 C   0  0  2  0  0  0
  -16.0810  -27.2910   -8.1750 C   0  0  0  0  0  0
  -17.2710  -27.5150   -7.9390 O   0  0  0  0  0  0
  -15.3930  -25.0500   -7.3420 C   0  0  0  0  0  0
  -16.7820  -24.5270   -7.0850 C   0  0  0  0  0  0
  -16.8290  -23.0250   -7.2990 C   0  0  0  0  0  0
  -15.9160  -22.3160   -6.3900 N   0  0  0  0  0  0
  -16.3030  -21.7690   -5.2310 C   0  0  0  0  0  0
  -17.6010  -21.8790   -4.8270 N   0  0  0  0  0  0
  -15.4300  -21.1220   -4.4510 N   0  3  0  0  0  0
  -15.5290  -27.5420   -9.3510 N   0  0  0  0  0  0
  -16.3170  -28.1160  -10.4540 C   0  0  2  0  0  0
  -16.5290  -29.6190  -10.3350 C   0  0  0  0  0  0
  -17.2110  -30.2120  -11.1920 O   0  0  0  0  0  0
  -15.6250  -27.7550  -11.7560 C   0  0  2  0  0  0
  -14.2820  -28.2010  -11.6650 O   0  0  0  0  0  0
  -15.6480  -26.2560  -11.9560 C   0  0  0  0  0  0
  -16.0070  -30.1950   -9.2420 N   0  0  0  0  0  0
  -16.2640  -31.5950   -8.8440 C   0  0  1  0  0  0
  -14.9450  -32.3860   -8.8620 C   0  0  0  0  0  0
  -14.4050  -32.5880  -10.2370 C   0  0  0  0  0  0
  -16.8850  -31.7070   -7.4330 C   0  0  0  0  0  0
  -16.9150  -30.7220   -6.6760 O   0  0  0  0  0  0
  -17.3670  -32.9210   -7.1560 N   0  0  0  0  0  0
  -17.6590  -33.5580   -5.8410 C   0  0  2  0  0  0
  -19.1510  -33.5530   -5.4730 C   0  0  0  0  0  0
  -19.9890  -33.7900   -6.3650 O   0  0  0  0  0  0
  -16.6820  -33.1930   -4.6860 C   0  0  0  0  0  0
  -17.1990  -32.1820   -3.6580 C   0  0  0  0  0  0
  -17.1090  -32.6620   -2.2000 C   0  0  0  0  0  0
  -17.4610  -33.8020   -1.8580 O   0  0  0  0  0  0
  -16.6700  -31.7630   -1.3250 N   0  0  0  0  0  0
  -19.5408  -33.3007   -4.2267 O   0  5  0  0  0  0
  -10.1136  -29.5434   -7.7154 H   0  0  0  0  0  0
  -11.6604  -30.1412   -8.4059 H   0  0  0  0  0  0
  -11.4801  -29.9630   -6.6276 H   0  0  0  0  0  0
  -11.2351  -27.5807   -6.8699 H   0  0  0  0  0  0
  -10.2217  -27.5565   -9.1284 H   0  0  0  0  0  0
  -11.6430  -26.4614   -9.0423 H   0  0  0  0  0  0
  -11.7915  -28.0648   -9.8383 H   0  0  0  0  0  0
  -13.0475  -26.0093   -7.4477 H   0  0  0  0  0  0
  -15.3852  -26.9880   -6.1775 H   0  0  0  0  0  0
  -14.7388  -24.5096   -6.6420 H   0  0  0  0  0  0
  -15.1510  -24.7535   -8.3733 H   0  0  0  0  0  0
  -17.4892  -25.0098   -7.7755 H   0  0  0  0  0  0
  -17.0719  -24.7506   -6.0477 H   0  0  0  0  0  0
  -16.5362  -22.7927   -8.3335 H   0  0  0  0  0  0
  -17.8506  -22.6604   -7.1165 H   0  0  0  0  0  0
  -14.8519  -22.2133   -6.6491 H   0  0  0  0  0  0
  -18.3304  -22.4082   -5.4578 H   0  0  0  0  0  0
  -17.9185  -21.4385   -3.8703 H   0  0  0  0  0  0
  -14.3798  -21.0252   -4.7636 H   0  0  0  0  0  0
  -14.4627  -27.3145   -9.4971 H   0  0  0  0  0  0
  -17.3192  -27.6671  -10.3908 H   0  0  0  0  0  0
  -16.0808  -28.2573  -12.6220 H   0  0  0  0  0  0
  -14.0661  -29.2695  -11.5177 H   0  0  0  0  0  0
  -16.6903  -25.9114  -12.0264 H   0  0  0  0  0  0
  -15.1142  -26.0016  -12.8836 H   0  0  0  0  0  0
  -15.1562  -25.7648  -11.1035 H   0  0  0  0  0  0
  -15.3528  -29.5596   -8.6269 H   0  0  0  0  0  0
  -16.9806  -31.9679   -9.5906 H   0  0  0  0  0  0
  -14.1844  -31.8439   -8.2809 H   0  0  0  0  0  0
  -15.1069  -33.3791   -8.4176 H   0  0  0  0  0  0
  -13.4655  -33.1575  -10.1819 H   0  0  0  0  0  0
  -14.2143  -31.6102  -10.7033 H   0  0  0  0  0  0
  -15.1368  -33.1454  -10.8401 H   0  0  0  0  0  0
  -17.5515  -33.4747   -8.0884 H   0  0  0  0  0  0
  -17.4259  -34.6108   -6.0585 H   0  0  0  0  0  0
  -16.4295  -34.1009   -4.1186 H   0  0  0  0  0  0
  -15.7641  -32.7563   -5.1064 H   0  0  0  0  0  0
  -16.6120  -31.2544   -3.7287 H   0  0  0  0  0  0
  -18.2577  -31.9622   -3.8602 H   0  0  0  0  0  0
  -16.3674  -30.7629   -1.6689 H   0  0  0  0  0  0
  -16.6093  -32.0191   -0.2569 H   0  0  0  0  0  0
  -15.7623  -20.6867   -3.4970 H   0  0  0  0  0  0
  1  2  1  0  0  0
  1 40  1  0  0  0
  1 41  1  0  0  0
  1 42  1  0  0  0
  2  5  1  0  0  0
  2  3  1  0  0  0
  2 43  1  0  0  0
  3  4  2  0  0  0
  3  6  1  0  0  0
  5 44  1  0  0  0
  5 45  1  0  0  0
  5 46  1  0  0  0
  6  7  1  0  0  0
  6 47  1  0  0  0
  7 10  1  0  0  0
  7  8  1  0  0  0
  7 48  1  0  0  0
  8  9  2  0  0  0
  8 17  1  0  0  0
 10 11  1  0  0  0
 10 49  1  0  0  0
 10 50  1  0  0  0
 11 12  1  0  0  0
 11 51  1  0  0  0
 11 52  1  0  0  0
 12 13  1  0  0  0
 12 53  1  0  0  0
 12 54  1  0  0  0
 13 14  1  0  0  0
 13 55  1  0  0  0
 14 16  2  0  0  0
 14 15  1  0  0  0
 15 56  1  0  0  0
 15 57  1  0  0  0
 16 58  1  0  0  0
 16 81  1  0  0  0
 17 18  1  0  0  0
 17 59  1  0  0  0
 18 21  1  0  0  0
 18 19  1  0  0  0
 18 60  1  0  0  0
 19 20  2  0  0  0
 19 24  1  0  0  0
 21 23  1  0  0  0
 21 22  1  0  0  0
 21 61  1  0  0  0
 22 62  1  0  0  0
 23 63  1  0  0  0
 23 64  1  0  0  0
 23 65  1  0  0  0
 24 25  1  0  0  0
 24 66  1  0  0  0
 25 26  1  0  0  0
 25 28  1  0  0  0
 25 67  1  0  0  0
 26 27  1  0  0  0
 26 68  1  0  0  0
 26 69  1  0  0  0
 27 70  1  0  0  0
 27 71  1  0  0  0
 27 72  1  0  0  0
 28 29  2  0  0  0
 28 30  1  0  0  0
 30 31  1  0  0  0
 30 73  1  0  0  0
 31 34  1  0  0  0
 31 32  1  0  0  0
 31 74  1  0  0  0
 32 33  2  0  0  0
 32 39  1  0  0  0
 34 35  1  0  0  0
 34 75  1  0  0  0
 34 76  1  0  0  0
 35 36  1  0  0  0
 35 77  1  0  0  0
 35 78  1  0  0  0
 36 38  1  0  0  0
 36 37  2  0  0  0
 38 79  1  0  0  0
 38 80  1  0  0  0
M  CHG  3   1   1  16   1  39  -1
M  END
> <s_m_source_file>
../2h13_ligand.sdf

> <i_m_source_file_index>
1

> <s_epik_input>
W0hdL049QyhbTkgyXSlcW05IXVtDSDJdW0NIMl1bQ0gyXVtDQEhdKFtOSF1DKD1PKVtDQEBIXShbTkgzK10pW0NIM10pQyg9TylbTkhdW0NAQEhdKFtDQEhdKFtPSF0pW0NIM10pQyg9TylbTkhdW0NAQEhdKFtDSDJdW0NIM10pQyg9TylbTkhdW0NASF0oQyg9TylbT0hdKVtDSDJdW0NIMl1DKD1PKVtOSDJd

> <s_epik_cmdline>
J2VwaWtfYXBwJywgJy1pbWFlJywgJ2xpZ2FuZF9wcm8ubWFlJywgJy1vbWFlJywgJ2xpZ2FuZF9wcmVwLm1hZScsICctbXMnLCAnMScsICctcGgnLCAnNycsICctcGh0JywgJzAuNScsICctbnQn

> <r_epik_Ionization_Penalty>
  0.1252

> <r_epik_Ionization_Penalty_Charging>
  0.1252

> <r_epik_Ionization_Penalty_Neutral>
  0.0000

> <r_epik_State_Penalty>
  0.1145

> <r_epik_Charging_Adjusted_Penalty>
0.239715692693762

> <i_epik_Tot_Q>
1

> <i_epik_Tot_abs_Q>
3

> <s_epik_Chemistry_Notes>
This compound has an imine and may undergo hydrolysis.

$$$$
