2h15_ligand
                    3D
 Schrodinger Suite 2020-3.
 43 45  0  0  1  0            999 V2000
   -5.9730    6.2820   13.1580 C   0  0  0  0  0  0
   -4.7800    5.4260   12.7050 C   0  0  0  0  0  0
   -3.6980    6.2740   12.0100 C   0  0  0  0  0  0
   -4.2050    4.7510   13.8330 O   0  0  0  0  0  0
   -5.2540    4.4350   11.8230 O   0  0  0  0  0  0
   -5.3600    3.1990   12.5460 C   0  0  1  0  0  0
   -5.0790    2.1240   11.4660 C   0  0  2  0  0  0
   -4.9300    0.7730   11.9800 O   0  0  0  0  0  0
   -4.1180    0.1070   11.0170 C   0  0  0  0  0  0
   -4.9860   -0.6930   10.0430 C   0  0  0  0  0  0
   -3.1520   -0.8040   11.7480 C   0  0  0  0  0  0
   -3.3680    1.1240   10.2760 O   0  0  0  0  0  0
   -3.7350    2.3980   10.8030 C   0  0  2  0  0  0
   -2.6520    2.8460   11.8040 C   0  0  0  0  0  0
   -3.0240    2.8230   13.2180 O   0  0  0  0  0  0
   -4.3090    3.3770   13.6260 C   0  0  1  0  0  0
   -4.8130    2.9000   14.9690 C   0  0  0  0  0  0
   -4.5530    1.4760   15.0850 N   0  5  0  0  0  0
   -5.3700    0.8250   16.3620 S   0  0  0  0  0  0
   -4.7400    1.1670   17.6670 O   0  0  0  0  0  0
   -6.7990    1.2430   16.4470 O   0  0  0  0  0  0
   -5.1920   -0.7630   16.1050 N   0  0  0  0  0  0
   -5.6225    7.0631   13.8487 H   0  0  0  0  0  0
   -6.7090    5.6439   13.6690 H   0  0  0  0  0  0
   -6.4414    6.7517   12.2805 H   0  0  0  0  0  0
   -3.3336    7.0447   12.7051 H   0  0  0  0  0  0
   -4.1264    6.7566   11.1192 H   0  0  0  0  0  0
   -2.8614    5.6262   11.7094 H   0  0  0  0  0  0
   -6.3217    2.9723   13.0295 H   0  0  0  0  0  0
   -5.9513    2.1254   10.7959 H   0  0  0  0  0  0
   -5.5501   -1.4574   10.5975 H   0  0  0  0  0  0
   -4.3435   -1.1816    9.2957 H   0  0  0  0  0  0
   -5.6882   -0.0150    9.5358 H   0  0  0  0  0  0
   -3.7168   -1.5669   12.3038 H   0  0  0  0  0  0
   -2.5484   -0.2104   12.4504 H   0  0  0  0  0  0
   -2.4897   -1.2957   11.0203 H   0  0  0  0  0  0
   -3.8085    3.1611   10.0142 H   0  0  0  0  0  0
   -1.7741    2.1895   11.7126 H   0  0  0  0  0  0
   -2.3582    3.8835   11.5865 H   0  0  0  0  0  0
   -4.2896    3.4418   15.7706 H   0  0  0  0  0  0
   -5.8940    3.0897   15.0434 H   0  0  0  0  0  0
   -5.7014   -1.3229   16.9031 H   0  0  0  0  0  0
   -4.1216   -1.0167   16.1048 H   0  0  0  0  0  0
  1  2  1  0  0  0
  1 23  1  0  0  0
  1 24  1  0  0  0
  1 25  1  0  0  0
  2  3  1  0  0  0
  2  4  1  0  0  0
  2  5  1  0  0  0
  3 26  1  0  0  0
  3 27  1  0  0  0
  3 28  1  0  0  0
  4 16  1  0  0  0
  5  6  1  0  0  0
  6  7  1  0  0  0
  6 16  1  0  0  0
  6 29  1  0  0  0
  7  8  1  0  0  0
  7 13  1  0  0  0
  7 30  1  0  0  0
  8  9  1  0  0  0
  9 10  1  0  0  0
  9 11  1  0  0  0
  9 12  1  0  0  0
 10 31  1  0  0  0
 10 32  1  0  0  0
 10 33  1  0  0  0
 11 34  1  0  0  0
 11 35  1  0  0  0
 11 36  1  0  0  0
 12 13  1  0  0  0
 13 14  1  0  0  0
 13 37  1  0  0  0
 14 15  1  0  0  0
 14 38  1  0  0  0
 14 39  1  0  0  0
 15 16  1  0  0  0
 16 17  1  0  0  0
 17 18  1  0  0  0
 17 40  1  0  0  0
 17 41  1  0  0  0
 18 19  1  0  0  0
 19 20  2  0  0  0
 19 21  2  0  0  0
 19 22  1  0  0  0
 22 42  1  0  0  0
 22 43  1  0  0  0
M  CHG  1  18  -1
M  END
> <s_m_source_file>
../2h15_ligand.sdf

> <i_m_source_file_index>
1

> <s_epik_input>
Tz1TKD1PKShbTkgyXSlbTkhdW0NIMl1bQ0BAXTEyW0NAQEhdKE9DKE8xKShbQ0gzXSlbQ0gzXSlbQ0BIXTNbQ0BASF0oW0NIMl1PMilPQyhPMykoW0NIM10pW0NIM10=

> <s_epik_cmdline>
J2VwaWtfYXBwJywgJy1pbWFlJywgJ2xpZ2FuZF9wcm8ubWFlJywgJy1vbWFlJywgJ2xpZ2FuZF9wcmVwLm1hZScsICctbXMnLCAnMScsICctcGgnLCAnNycsICctcGh0JywgJzAuNScsICctbnQn

> <r_epik_Ionization_Penalty>
  0.3132

> <r_epik_Ionization_Penalty_Charging>
  0.3117

> <r_epik_Ionization_Penalty_Neutral>
  0.0014

> <r_epik_State_Penalty>
  0.3058

> <r_epik_Charging_Adjusted_Penalty>
0.61749809970181

> <i_epik_Tot_Q>
-1

> <i_epik_Tot_abs_Q>
1

$$$$
