2h1h_ligand
                    3D
 Schrodinger Suite 2020-3.
 64 67  0  0  1  0            999 V2000
   47.7970   11.7740    5.5690 N   0  0  0  0  0  0
   48.7210   10.9760    4.9610 C   0  0  0  0  0  0
   49.7900   10.8550    5.7270 N   0  0  0  0  0  0
   49.5980   11.5490    6.8300 C   0  0  0  0  0  0
   50.3420   11.8310    8.0270 C   0  0  0  0  0  0
   51.5570   11.2960    8.1560 N   0  0  0  0  0  0
   49.8010   12.6540    9.0520 N   0  0  0  0  0  0
   48.5450   13.2190    8.9380 C   0  0  0  0  0  0
   47.8210   12.9570    7.7830 N   0  0  0  0  0  0
   48.2890   12.1560    6.7330 C   0  0  0  0  0  0
   42.5920    9.3730    1.4840 P   0  0  1  0  0  0
   41.9250    9.5910    0.2590 O   0  0  0  0  0  0
   41.5830    9.3630    2.5450 O   0  5  0  0  0  0
   43.4210    8.1020    1.3090 O   0  0  0  0  0  0
   43.1770    6.6340    1.2420 P   0  0  1  0  0  0
   43.7470    6.0410   -0.0110 O   0  5  0  0  0  0
   43.8140    6.0760    2.3990 O   0  0  0  0  0  0
   41.5710    6.5290    1.4250 O   0  0  0  0  0  0
   40.9510    5.5080    0.9640 C   0  0  1  0  0  0
   40.0030    4.8610    1.9840 C   0  0  1  0  0  0
   39.3080    3.6550    1.2980 C   0  0  2  0  0  0
   38.5180    4.2210    0.0970 C   0  0  1  0  0  0
   39.4790    4.9000   -0.9180 C   0  0  1  0  0  0
   38.7820    5.5320   -2.1710 C   0  0  2  0  0  0
   39.7250    6.2010   -3.2110 C   0  0  0  0  0  0
   40.7400    4.4320    3.1100 F   0  0  0  0  0  0
   38.4240    3.0200    2.2180 O   0  0  0  0  0  0
   37.8370    3.1970   -0.6050 O   0  0  0  0  0  0
   40.2560    5.9760   -0.2390 O   0  0  0  0  0  0
   37.8260    6.4980   -1.7190 O   0  0  0  0  0  0
   41.1230    6.1680   -2.9210 O   0  0  0  0  0  0
   46.4340   12.1870    5.0590 C   0  0  1  0  0  0
   46.5130   12.8580    3.6860 C   0  0  2  0  0  0
   46.9870   14.2050    3.6850 O   0  0  0  0  0  0
   45.1210   12.6620    3.1480 C   0  0  1  0  0  0
   44.7550   11.3490    3.7080 C   0  0  2  0  0  0
   45.5680   11.0810    4.8670 O   0  0  0  0  0  0
   44.1800   13.6530    3.5960 O   0  0  0  0  0  0
   44.8910   10.3490    2.5710 C   0  0  0  0  0  0
   43.7070   10.4480    1.6970 O   0  0  0  0  0  0
   48.5955   10.5066    3.9853 H   0  0  0  0  0  0
   51.9659   10.6606    7.3566 H   0  0  0  0  0  0
   52.1501   11.4902    9.0618 H   0  0  0  0  0  0
   48.1367   13.8490    9.7282 H   0  0  0  0  0  0
   41.7822    4.8239    0.7381 H   0  0  0  0  0  0
   39.2838    5.5788    2.4054 H   0  0  0  0  0  0
   40.0009    2.8502    1.0113 H   0  0  0  0  0  0
   37.7318    4.8904    0.4762 H   0  0  0  0  0  0
   40.1593    4.1055   -1.2585 H   0  0  0  0  0  0
   38.2384    4.7350   -2.6995 H   0  0  0  0  0  0
   39.6093    5.7026   -4.1848 H   0  0  0  0  0  0
   39.4649    7.2652   -3.3106 H   0  0  0  0  0  0
   38.8217    2.5602    3.1347 H   0  0  0  0  0  0
   37.0956    2.5728   -0.0847 H   0  0  0  0  0  0
   37.0669    6.2142   -0.9752 H   0  0  0  0  0  0
   41.8404    6.6247   -3.6187 H   0  0  0  0  0  0
   46.0033   12.8211    5.8479 H   0  0  0  0  0  0
   47.3045   12.4769    3.0239 H   0  0  0  0  0  0
   47.9948   14.4337    4.0620 H   0  0  0  0  0  0
   45.0608   12.7512    2.0533 H   0  0  0  0  0  0
   43.7374   11.3142    4.1243 H   0  0  0  0  0  0
   44.2913   14.7003    3.2786 H   0  0  0  0  0  0
   45.7985   10.5739    1.9915 H   0  0  0  0  0  0
   44.9622    9.3319    2.9838 H   0  0  0  0  0  0
  1  2  1  0  0  0
  1 10  1  0  0  0
  1 32  1  0  0  0
  2  3  2  0  0  0
  2 41  1  0  0  0
  3  4  1  0  0  0
  4  5  2  0  0  0
  4 10  1  0  0  0
  5  6  1  0  0  0
  5  7  1  0  0  0
  6 42  1  0  0  0
  6 43  1  0  0  0
  7  8  2  0  0  0
  8  9  1  0  0  0
  8 44  1  0  0  0
  9 10  2  0  0  0
 11 12  2  0  0  0
 11 13  1  0  0  0
 11 14  1  0  0  0
 11 40  1  0  0  0
 14 15  1  0  0  0
 15 16  1  0  0  0
 15 17  2  0  0  0
 15 18  1  0  0  0
 18 19  1  0  0  0
 19 20  1  0  0  0
 19 29  1  0  0  0
 19 45  1  0  0  0
 20 21  1  0  0  0
 20 26  1  0  0  0
 20 46  1  0  0  0
 21 22  1  0  0  0
 21 27  1  0  0  0
 21 47  1  0  0  0
 22 23  1  0  0  0
 22 28  1  0  0  0
 22 48  1  0  0  0
 23 24  1  0  0  0
 23 29  1  0  0  0
 23 49  1  0  0  0
 24 25  1  0  0  0
 24 30  1  0  0  0
 24 50  1  0  0  0
 25 31  1  0  0  0
 25 51  1  0  0  0
 25 52  1  0  0  0
 27 53  1  0  0  0
 28 54  1  0  0  0
 30 55  1  0  0  0
 31 56  1  0  0  0
 32 33  1  0  0  0
 32 37  1  0  0  0
 32 57  1  0  0  0
 33 34  1  0  0  0
 33 35  1  0  0  0
 33 58  1  0  0  0
 34 59  1  0  0  0
 35 36  1  0  0  0
 35 38  1  0  0  0
 35 60  1  0  0  0
 36 37  1  0  0  0
 36 39  1  0  0  0
 36 61  1  0  0  0
 38 62  1  0  0  0
 39 40  1  0  0  0
 39 63  1  0  0  0
 39 64  1  0  0  0
M  CHG  2  13  -1  16  -1
M  END
> <s_m_source_file>
../2h1h_ligand.sdf

> <i_m_source_file_index>
1

> <s_epik_input>
W05IMl1jMW5bY0hdbmMoYzEyKW4oW2NIXW4yKVtDQEhdM1tDQEhdKFtPSF0pW0NASF0oW09IXSlbQ0BIXShPMylbQ0gyXU9bUEBdKD1PKShbT0hdKU9bUEBdKD1PKShbT0hdKU9bQ0BIXTRbQ0BIXShGKVtDQEBIXShbT0hdKVtDQEhdKFtPSF0pW0NASF0oTzQpW0NAQEhdKFtPSF0pW0NIMl1bT0hd

> <s_epik_cmdline>
J2VwaWtfYXBwJywgJy1pbWFlJywgJ2xpZ2FuZF9wcm8ubWFlJywgJy1vbWFlJywgJ2xpZ2FuZF9wcmVwLm1hZScsICctbXMnLCAnMScsICctcGgnLCAnNycsICctcGh0JywgJzAuNScsICctbnQn

> <r_lp_tautomer_probability>
1

> <r_epik_Ionization_Penalty>
  0.0010

> <r_epik_Ionization_Penalty_Charging>
  0.0004

> <r_epik_Ionization_Penalty_Neutral>
  0.0006

> <r_epik_State_Penalty>
 -0.0000

> <r_epik_Charging_Adjusted_Penalty>
0.000420664182745811

> <i_epik_Tot_Q>
-2

> <i_epik_Tot_abs_Q>
2

> <s_epik_Chemistry_Notes>
This compound contains an acetal/aminal-like group ( X-CH(R)-Y where X, Y are N, S, or O) that may be acid/base labile, releasing an aldehyde.

$$$$
