2h21_ligand
                    3D
 Schrodinger Suite 2020-3.
 50 52  0  0  1  0            999 V2000
   71.0000  131.5610   50.0280 N   0  3  0  0  0  0
   69.6630  131.1270   50.4510 C   0  0  2  0  0  0
   68.7050  131.0350   49.2120 C   0  0  0  0  0  0
   67.4900  131.3030   49.3420 O   0  5  0  0  0  0
   69.1600  130.6940   48.0980 O   0  0  0  0  0  0
   69.1150  132.0950   51.5350 C   0  0  0  0  0  0
   69.6760  131.9000   52.9120 C   0  0  0  0  0  0
   68.8410  131.0100   53.8940 S   0  0  2  0  0  0
   68.5900  132.0440   55.3260 C   0  0  0  0  0  0
   70.1530  129.9610   54.5510 C   0  0  0  0  0  0
   70.6800  128.8680   53.6270 C   0  0  1  0  0  0
   71.4840  129.4410   52.5590 O   0  0  0  0  0  0
   71.6030  127.8680   54.2940 C   0  0  1  0  0  0
   70.9070  126.8090   54.9350 O   0  0  0  0  0  0
   72.4740  127.4060   53.1660 C   0  0  1  0  0  0
   71.9420  126.3750   52.3590 O   0  0  0  0  0  0
   72.7080  128.7410   52.4600 C   0  0  2  0  0  0
   73.8190  129.5430   53.0540 N   0  0  0  0  0  0
   73.7850  130.7130   53.8080 C   0  0  0  0  0  0
   74.9620  131.1550   54.1850 N   0  0  0  0  0  0
   75.8450  130.2200   53.6450 C   0  0  0  0  0  0
   77.2680  130.0880   53.6820 C   0  0  0  0  0  0
   78.0670  130.9540   54.3050 N   0  0  0  0  0  0
   77.8400  129.0220   53.0360 N   0  0  0  0  0  0
   77.0420  128.1340   52.3920 C   0  0  0  0  0  0
   75.6930  128.1480   52.2880 N   0  0  0  0  0  0
   75.1530  129.2200   52.9440 C   0  0  0  0  0  0
   71.3833  130.8724   49.2606 H   0  0  0  0  0  0
   71.6776  131.5583   50.8945 H   0  0  0  0  0  0
   70.9409  132.5776   49.6119 H   0  0  0  0  0  0
   69.7919  130.1275   50.8920 H   0  0  0  0  0  0
   69.3433  133.1324   51.2493 H   0  0  0  0  0  0
   68.0256  131.9698   51.6215 H   0  0  0  0  0  0
   70.6632  131.4201   52.8411 H   0  0  0  0  0  0
   69.7778  132.8765   53.4082 H   0  0  0  0  0  0
   67.7974  132.7769   55.1146 H   0  0  0  0  0  0
   69.5245  132.5730   55.5646 H   0  0  0  0  0  0
   68.2933  131.4196   56.1816 H   0  0  0  0  0  0
   71.0241  130.5814   54.8086 H   0  0  0  0  0  0
   69.7921  129.4434   55.4520 H   0  0  0  0  0  0
   69.7812  128.3692   53.2353 H   0  0  0  0  0  0
   72.1625  128.2577   55.1572 H   0  0  0  0  0  0
   70.2353  127.0239   55.7792 H   0  0  0  0  0  0
   73.3610  126.8248   53.4581 H   0  0  0  0  0  0
   71.7446  125.3835   52.7926 H   0  0  0  0  0  0
   72.9711  128.6144   51.3994 H   0  0  0  0  0  0
   72.8555  131.2212   54.0646 H   0  0  0  0  0  0
   77.6368  131.8186   54.8316 H   0  0  0  0  0  0
   79.1567  130.8041   54.2926 H   0  0  0  0  0  0
   77.5505  127.3067   51.8970 H   0  0  0  0  0  0
  1  2  1  0  0  0
  1 28  1  0  0  0
  1 29  1  0  0  0
  1 30  1  0  0  0
  2  3  1  0  0  0
  2  6  1  0  0  0
  2 31  1  0  0  0
  3  4  1  0  0  0
  3  5  2  0  0  0
  6  7  1  0  0  0
  6 32  1  0  0  0
  6 33  1  0  0  0
  7  8  1  0  0  0
  7 34  1  0  0  0
  7 35  1  0  0  0
  8  9  1  0  0  0
  8 10  1  0  0  0
  9 36  1  0  0  0
  9 37  1  0  0  0
  9 38  1  0  0  0
 10 11  1  0  0  0
 10 39  1  0  0  0
 10 40  1  0  0  0
 11 12  1  0  0  0
 11 13  1  0  0  0
 11 41  1  0  0  0
 12 17  1  0  0  0
 13 14  1  0  0  0
 13 15  1  0  0  0
 13 42  1  0  0  0
 14 43  1  0  0  0
 15 16  1  0  0  0
 15 17  1  0  0  0
 15 44  1  0  0  0
 16 45  1  0  0  0
 17 18  1  0  0  0
 17 46  1  0  0  0
 18 19  1  0  0  0
 18 27  1  0  0  0
 19 20  2  0  0  0
 19 47  1  0  0  0
 20 21  1  0  0  0
 21 22  2  0  0  0
 21 27  1  0  0  0
 22 23  1  0  0  0
 22 24  1  0  0  0
 23 48  1  0  0  0
 23 49  1  0  0  0
 24 25  2  0  0  0
 25 26  1  0  0  0
 25 50  1  0  0  0
 26 27  2  0  0  0
M  CHG  2   1   1   4  -1
M  END
> <s_m_source_file>
../2h21_ligand.sdf

> <i_m_source_file_index>
1

> <s_epik_input>
W09IXUMoPU8pW0NAQEhdKFtOSDMrXSlbQ0gyXVtDSDJdW1NASF0oW0NIM10pW0NIMl1bQ0BIXTFPW0NASF0oW0NASF0oW09IXSlbQ0BASF0xW09IXSluKFtjSF1uMiljKGMyMyluW2NIXW5jM1tOSDJd

> <s_epik_cmdline>
J2VwaWtfYXBwJywgJy1pbWFlJywgJ2xpZ2FuZF9wcm8ubWFlJywgJy1vbWFlJywgJ2xpZ2FuZF9wcmVwLm1hZScsICctbXMnLCAnMScsICctcGgnLCAnNycsICctcGh0JywgJzAuNScsICctbnQn

> <r_lp_tautomer_probability>
1

> <r_epik_Ionization_Penalty>
  0.0015

> <r_epik_Ionization_Penalty_Charging>
  0.0011

> <r_epik_Ionization_Penalty_Neutral>
  0.0004

> <r_epik_State_Penalty>
 -0.0000

> <r_epik_Charging_Adjusted_Penalty>
0.00106610994672706

> <i_epik_Tot_Q>
0

> <i_epik_Tot_abs_Q>
2

> <s_epik_Chemistry_Notes>
This compound contains an acetal/aminal-like group ( X-CH(R)-Y where X, Y are N, S, or O) that may be acid/base labile, releasing an aldehyde.

$$$$
