2h23_ligand
                    3D
 Schrodinger Suite 2020-3.
 46 48  0  0  1  0            999 V2000
   71.0850  132.9670   50.9430 N   0  3  0  0  0  0
   69.7460  132.6790   51.4690 C   0  0  1  0  0  0
   69.2720  133.8340   52.4020 C   0  0  0  0  0  0
   69.7350  133.7380   53.8290 C   0  0  0  0  0  0
   68.7790  132.6310   54.9320 S   0  0  0  0  0  0
   68.7440  132.4420   50.2910 C   0  0  0  0  0  0
   67.5240  132.3440   50.5380 O   0  0  0  0  0  0
   69.1720  132.3460   49.1120 O   0  5  0  0  0  0
   70.1360  131.6860   55.6100 C   0  0  0  0  0  0
   70.5640  130.4930   54.7690 C   0  0  1  0  0  0
   71.4030  130.9560   53.6680 O   0  0  0  0  0  0
   71.4380  129.4750   55.5010 C   0  0  1  0  0  0
   70.7030  128.4750   56.1960 O   0  0  0  0  0  0
   72.3180  128.9210   54.4000 C   0  0  1  0  0  0
   71.8060  127.8480   53.6290 O   0  0  0  0  0  0
   72.6100  130.2100   53.6330 C   0  0  2  0  0  0
   73.7440  130.9960   54.2060 N   0  0  0  0  0  0
   73.7430  132.1720   54.9520 C   0  0  0  0  0  0
   74.9280  132.5940   55.3050 N   0  0  0  0  0  0
   75.7880  131.6390   54.7610 C   0  0  0  0  0  0
   77.2140  131.4860   54.7720 C   0  0  0  0  0  0
   78.0340  132.3370   55.3850 N   0  0  0  0  0  0
   77.7620  130.4060   54.1240 N   0  0  0  0  0  0
   76.9440  129.5240   53.4930 C   0  0  0  0  0  0
   75.5870  129.5580   53.4110 N   0  0  0  0  0  0
   75.0680  130.6490   54.0730 C   0  0  0  0  0  0
   71.7800  133.1316   51.7796 H   0  0  0  0  0  0
   71.0461  133.8696   50.3155 H   0  0  0  0  0  0
   71.4328  132.1156   50.3395 H   0  0  0  0  0  0
   69.8508  131.7564   52.0588 H   0  0  0  0  0  0
   69.6461  134.7938   52.0163 H   0  0  0  0  0  0
   68.1726  133.8540   52.4312 H   0  0  0  0  0  0
   70.7692  133.3642   53.8545 H   0  0  0  0  0  0
   69.6932  134.7332   54.2958 H   0  0  0  0  0  0
   71.0186  132.3343   55.7137 H   0  0  0  0  0  0
   69.8519  131.2928   56.5973 H   0  0  0  0  0  0
   69.6281  130.0283   54.4252 H   0  0  0  0  0  0
   71.9896  129.8805   56.3620 H   0  0  0  0  0  0
   70.0291  128.7591   57.0177 H   0  0  0  0  0  0
   73.1749  128.3212   54.7404 H   0  0  0  0  0  0
   71.5713  126.8874   54.1109 H   0  0  0  0  0  0
   72.8882  130.0248   52.5850 H   0  0  0  0  0  0
   72.8268  132.6983   55.2199 H   0  0  0  0  0  0
   77.6251  133.2114   55.9125 H   0  0  0  0  0  0
   79.1204  132.1657   55.3640 H   0  0  0  0  0  0
   77.4340  128.6889   52.9924 H   0  0  0  0  0  0
  1  2  1  0  0  0
  1 27  1  0  0  0
  1 28  1  0  0  0
  1 29  1  0  0  0
  2  3  1  0  0  0
  2  6  1  0  0  0
  2 30  1  0  0  0
  3  4  1  0  0  0
  3 31  1  0  0  0
  3 32  1  0  0  0
  4  5  1  0  0  0
  4 33  1  0  0  0
  4 34  1  0  0  0
  5  9  1  0  0  0
  6  7  2  0  0  0
  6  8  1  0  0  0
  9 10  1  0  0  0
  9 35  1  0  0  0
  9 36  1  0  0  0
 10 11  1  0  0  0
 10 12  1  0  0  0
 10 37  1  0  0  0
 11 16  1  0  0  0
 12 13  1  0  0  0
 12 14  1  0  0  0
 12 38  1  0  0  0
 13 39  1  0  0  0
 14 15  1  0  0  0
 14 16  1  0  0  0
 14 40  1  0  0  0
 15 41  1  0  0  0
 16 17  1  0  0  0
 16 42  1  0  0  0
 17 18  1  0  0  0
 17 26  1  0  0  0
 18 19  2  0  0  0
 18 43  1  0  0  0
 19 20  1  0  0  0
 20 21  2  0  0  0
 20 26  1  0  0  0
 21 22  1  0  0  0
 21 23  1  0  0  0
 22 44  1  0  0  0
 22 45  1  0  0  0
 23 24  2  0  0  0
 24 25  1  0  0  0
 24 46  1  0  0  0
 25 26  2  0  0  0
M  CHG  2   1   1   8  -1
M  END
> <s_m_source_file>
../2h23_ligand.sdf

> <i_m_source_file_index>
1

> <s_epik_input>
Tz1DKFtPSF0pW0NAQEhdKFtOSDMrXSlbQ0gyXVtDSDJdU1tDSDJdW0NASF0xT1tDQEhdKFtDQEhdKFtPSF0pW0NAQEhdMVtPSF0pbihbY0hdbjIpYyhjMjMpbltjSF1uYzNbTkgyXQ==

> <s_epik_cmdline>
J2VwaWtfYXBwJywgJy1pbWFlJywgJ2xpZ2FuZF9wcm8ubWFlJywgJy1vbWFlJywgJ2xpZ2FuZF9wcmVwLm1hZScsICctbXMnLCAnMScsICctcGgnLCAnNycsICctcGh0JywgJzAuNScsICctbnQn

> <r_lp_tautomer_probability>
1

> <r_epik_Ionization_Penalty>
  0.0026

> <r_epik_Ionization_Penalty_Charging>
  0.0022

> <r_epik_Ionization_Penalty_Neutral>
  0.0004

> <r_epik_State_Penalty>
 -0.0000

> <r_epik_Charging_Adjusted_Penalty>
0.00216156469931729

> <i_epik_Tot_Q>
0

> <i_epik_Tot_abs_Q>
2

> <s_epik_Chemistry_Notes>
This compound contains an acetal/aminal-like group ( X-CH(R)-Y where X, Y are N, S, or O) that may be acid/base labile, releasing an aldehyde.

$$$$
