2h2e_ligand
                    3D
 Schrodinger Suite 2020-3.
 51 53  0  0  1  0            999 V2000
   70.9100  136.2930   50.9190 N   0  3  0  0  0  0
   70.4820  134.9160   51.0490 C   0  0  2  0  0  0
   69.7970  134.4490   49.7500 C   0  0  0  0  0  0
   68.6980  134.9550   49.4230 O   0  5  0  0  0  0
   70.3700  133.5830   49.0760 O   0  0  0  0  0  0
   69.5080  134.7700   52.2250 C   0  0  0  0  0  0
   70.0210  135.1870   53.6130 C   0  0  0  0  0  0
   69.6300  134.2240   54.7820 N   0  3  2  0  0  0
   70.1220  134.7460   56.0670 C   0  0  0  0  0  0
   70.2120  132.7730   54.6240 C   0  0  0  0  0  0
   71.2950  132.4970   53.6080 C   0  0  1  0  0  0
   72.4840  133.3220   53.7410 O   0  0  0  0  0  0
   71.7310  131.0400   53.6240 C   0  0  1  0  0  0
   71.2460  130.3890   52.4380 O   0  0  0  0  0  0
   73.2450  131.0960   53.7260 C   0  0  1  0  0  0
   73.8520  130.0990   52.8650 O   0  0  0  0  0  0
   73.6020  132.5270   53.3230 C   0  0  2  0  0  0
   74.8750  133.0300   53.9640 N   0  0  0  0  0  0
   75.0470  133.9780   54.9400 C   0  0  0  0  0  0
   76.2650  134.2290   55.3160 N   0  0  0  0  0  0
   77.0280  133.3600   54.5110 C   0  0  0  0  0  0
   78.4380  133.0900   54.3860 C   0  0  0  0  0  0
   79.3640  133.7220   55.1200 N   0  0  0  0  0  0
   78.8540  132.1410   53.4700 N   0  0  0  0  0  0
   77.9300  131.4920   52.7180 C   0  0  0  0  0  0
   76.5850  131.6480   52.7350 N   0  0  0  0  0  0
   76.1920  132.6130   53.6740 C   0  0  0  0  0  0
   71.6071  136.3819   50.0727 H   0  0  0  0  0  0
   71.4141  136.6091   51.8441 H   0  0  0  0  0  0
   70.0339  136.9340   50.7413 H   0  0  0  0  0  0
   71.4027  134.3446   51.2382 H   0  0  0  0  0  0
   68.6166  135.3880   52.0417 H   0  0  0  0  0  0
   69.2092  133.7161   52.3250 H   0  0  0  0  0  0
   71.1199  135.2337   53.5989 H   0  0  0  0  0  0
   69.6153  136.1761   53.8720 H   0  0  0  0  0  0
   68.5307  134.1985   54.8135 H   0  0  0  0  0  0
   69.7373  135.7651   56.2202 H   0  0  0  0  0  0
   71.2218  134.7667   56.0574 H   0  0  0  0  0  0
   69.7746  134.0963   56.8838 H   0  0  0  0  0  0
   70.6553  132.4499   55.5775 H   0  0  0  0  0  0
   69.4034  132.0822   54.3429 H   0  0  0  0  0  0
   70.8478  132.7907   52.6469 H   0  0  0  0  0  0
   71.3013  130.4154   54.4210 H   0  0  0  0  0  0
   70.1637  130.2946   52.2659 H   0  0  0  0  0  0
   73.6429  130.8225   54.7144 H   0  0  0  0  0  0
   73.6723  129.0297   53.0500 H   0  0  0  0  0  0
   73.7519  132.6257   52.2377 H   0  0  0  0  0  0
   74.1975  134.4990   55.3817 H   0  0  0  0  0  0
   79.0589  134.4810   55.8554 H   0  0  0  0  0  0
   80.4292  133.4818   54.9871 H   0  0  0  0  0  0
   78.3175  130.7552   52.0144 H   0  0  0  0  0  0
  1  2  1  0  0  0
  1 28  1  0  0  0
  1 29  1  0  0  0
  1 30  1  0  0  0
  2  3  1  0  0  0
  2  6  1  0  0  0
  2 31  1  0  0  0
  3  4  1  0  0  0
  3  5  2  0  0  0
  6  7  1  0  0  0
  6 32  1  0  0  0
  6 33  1  0  0  0
  7  8  1  0  0  0
  7 34  1  0  0  0
  7 35  1  0  0  0
  8  9  1  0  0  0
  8 10  1  0  0  0
  8 36  1  0  0  0
  9 37  1  0  0  0
  9 38  1  0  0  0
  9 39  1  0  0  0
 10 11  1  0  0  0
 10 40  1  0  0  0
 10 41  1  0  0  0
 11 12  1  0  0  0
 11 13  1  0  0  0
 11 42  1  0  0  0
 12 17  1  0  0  0
 13 14  1  0  0  0
 13 15  1  0  0  0
 13 43  1  0  0  0
 14 44  1  0  0  0
 15 16  1  0  0  0
 15 17  1  0  0  0
 15 45  1  0  0  0
 16 46  1  0  0  0
 17 18  1  0  0  0
 17 47  1  0  0  0
 18 19  1  0  0  0
 18 27  1  0  0  0
 19 20  2  0  0  0
 19 48  1  0  0  0
 20 21  1  0  0  0
 21 22  2  0  0  0
 21 27  1  0  0  0
 22 23  1  0  0  0
 22 24  1  0  0  0
 23 49  1  0  0  0
 23 50  1  0  0  0
 24 25  2  0  0  0
 25 26  1  0  0  0
 25 51  1  0  0  0
 26 27  2  0  0  0
M  CHG  3   1   1   4  -1   8   1
M  END
> <s_m_source_file>
../2h2e_ligand.sdf

> <i_m_source_file_index>
1

> <s_epik_input>
W09IXUMoPU8pW0NAQEhdKFtOSDMrXSlbQ0gyXVtDSDJdW05ASCtdKFtDSDNdKVtDSDJdW0NASF0xT1tDQEhdKFtDQEhdKFtPSF0pW0NAQEhdMVtPSF0pbihbY0hdbjIpYyhjMjMpbltjSF1uYzNbTkgyXQ==

> <s_epik_cmdline>
J2VwaWtfYXBwJywgJy1pbWFlJywgJ2xpZ2FuZF9wcm8ubWFlJywgJy1vbWFlJywgJ2xpZ2FuZF9wcmVwLm1hZScsICctbXMnLCAnMScsICctcGgnLCAnNycsICctcGh0JywgJzAuNScsICctbnQn

> <r_lp_tautomer_probability>
0.999997216410988

> <r_epik_Ionization_Penalty>
  0.0834

> <r_epik_Ionization_Penalty_Charging>
  0.0830

> <r_epik_Ionization_Penalty_Neutral>
  0.0004

> <r_epik_State_Penalty>
  0.0657

> <r_epik_Charging_Adjusted_Penalty>
0.148740215214111

> <i_epik_Tot_Q>
1

> <i_epik_Tot_abs_Q>
3

> <s_epik_Chemistry_Notes>
This compound contains an acetal/aminal-like group ( X-CH(R)-Y where X, Y are N, S, or O) that may be acid/base labile, releasing an aldehyde.

$$$$
