2h2j_ligand
                    3D
 Schrodinger Suite 2020-3.
 51 53  0  0  1  0            999 V2000
   71.0100  132.8580   50.4890 N   0  3  0  0  0  0
   70.0900  131.7690   50.7610 C   0  0  2  0  0  0
   69.2700  131.3780   49.5140 C   0  0  0  0  0  0
   68.1230  130.9130   49.6630 O   0  5  0  0  0  0
   69.7780  131.5600   48.3990 O   0  0  0  0  0  0
   69.1190  132.1230   51.9170 C   0  0  0  0  0  0
   69.6810  132.6070   53.2630 C   0  0  0  0  0  0
   69.2630  131.8320   54.5420 C   0  0  2  0  0  0
   69.8300  132.5760   55.6890 N   0  3  0  0  0  0
   69.8860  130.4090   54.7160 C   0  0  0  0  0  0
   70.6990  129.7160   53.6370 C   0  0  1  0  0  0
   71.8220  130.4710   53.1520 O   0  0  0  0  0  0
   71.2070  128.3410   54.0850 C   0  0  1  0  0  0
   70.5260  127.2840   53.3860 O   0  0  0  0  0  0
   72.6540  128.3140   53.7730 C   0  0  1  0  0  0
   72.8760  127.1990   52.8990 O   0  0  0  0  0  0
   72.9830  129.6280   53.0720 C   0  0  2  0  0  0
   74.1600  130.3030   53.6930 N   0  0  0  0  0  0
   74.2130  131.3930   54.5270 C   0  0  0  0  0  0
   75.3850  131.7820   54.9360 N   0  0  0  0  0  0
   76.2370  130.8480   54.3040 C   0  0  0  0  0  0
   77.6570  130.6540   54.3040 C   0  0  0  0  0  0
   78.4880  131.4400   54.9820 N   0  0  0  0  0  0
   78.1690  129.6150   53.5620 N   0  0  0  0  0  0
   77.3250  128.8120   52.8710 C   0  0  0  0  0  0
   75.9780  128.8880   52.7930 N   0  0  0  0  0  0
   75.4900  129.9340   53.5450 C   0  0  0  0  0  0
   71.6820  132.5733   49.6660 H   0  0  0  0  0  0
   71.6036  133.0703   51.3904 H   0  0  0  0  0  0
   70.4416  133.7557   50.2044 H   0  0  0  0  0  0
   70.7680  130.9501   51.0436 H   0  0  0  0  0  0
   68.4496  132.9354   51.5978 H   0  0  0  0  0  0
   68.5216  131.2371   52.1784 H   0  0  0  0  0  0
   70.7796  132.5559   53.2413 H   0  0  0  0  0  0
   69.3657  133.6459   53.4397 H   0  0  0  0  0  0
   68.1653  131.7665   54.5133 H   0  0  0  0  0  0
   69.4578  133.6110   55.6747 H   0  0  0  0  0  0
   70.9276  132.5800   55.6169 H   0  0  0  0  0  0
   69.5259  132.0899   56.6277 H   0  0  0  0  0  0
   70.5860  130.4165   55.5645 H   0  0  0  0  0  0
   69.0856  129.6792   54.9075 H   0  0  0  0  0  0
   70.0208  129.6555   52.7731 H   0  0  0  0  0  0
   71.0190  128.1290   55.1479 H   0  0  0  0  0  0
   69.4397  127.1573   53.5040 H   0  0  0  0  0  0
   73.2838  128.1551   54.6608 H   0  0  0  0  0  0
   72.6850  126.1755   53.2538 H   0  0  0  0  0  0
   73.2203  129.4733   52.0091 H   0  0  0  0  0  0
   73.3060  131.9132   54.8350 H   0  0  0  0  0  0
   78.0916  132.2743   55.5793 H   0  0  0  0  0  0
   79.5719  131.2559   54.9456 H   0  0  0  0  0  0
   77.7904  128.0034   52.3074 H   0  0  0  0  0  0
  1  2  1  0  0  0
  1 28  1  0  0  0
  1 29  1  0  0  0
  1 30  1  0  0  0
  2  3  1  0  0  0
  2  6  1  0  0  0
  2 31  1  0  0  0
  3  4  1  0  0  0
  3  5  2  0  0  0
  6  7  1  0  0  0
  6 32  1  0  0  0
  6 33  1  0  0  0
  7  8  1  0  0  0
  7 34  1  0  0  0
  7 35  1  0  0  0
  8  9  1  0  0  0
  8 10  1  0  0  0
  8 36  1  0  0  0
  9 37  1  0  0  0
  9 38  1  0  0  0
  9 39  1  0  0  0
 10 11  1  0  0  0
 10 40  1  0  0  0
 10 41  1  0  0  0
 11 12  1  0  0  0
 11 13  1  0  0  0
 11 42  1  0  0  0
 12 17  1  0  0  0
 13 14  1  0  0  0
 13 15  1  0  0  0
 13 43  1  0  0  0
 14 44  1  0  0  0
 15 16  1  0  0  0
 15 17  1  0  0  0
 15 45  1  0  0  0
 16 46  1  0  0  0
 17 18  1  0  0  0
 17 47  1  0  0  0
 18 19  1  0  0  0
 18 27  1  0  0  0
 19 20  2  0  0  0
 19 48  1  0  0  0
 20 21  1  0  0  0
 21 22  2  0  0  0
 21 27  1  0  0  0
 22 23  1  0  0  0
 22 24  1  0  0  0
 23 49  1  0  0  0
 23 50  1  0  0  0
 24 25  2  0  0  0
 25 26  1  0  0  0
 25 51  1  0  0  0
 26 27  2  0  0  0
M  CHG  3   1   1   4  -1   9   1
M  END
> <s_m_source_file>
../2h2j_ligand.sdf

> <i_m_source_file_index>
1

> <s_epik_input>
W09IXUMoPU8pW0NAQEhdKFtOSDMrXSlbQ0gyXVtDSDJdW0NASF0oW05IMytdKVtDSDJdW0NASF0xT1tDQEhdKFtDQEhdKFtPSF0pW0NAQEhdMVtPSF0pbihbY0hdbjIpYyhjMjMpbltjSF1uYzNbTkgyXQ==

> <s_epik_cmdline>
J2VwaWtfYXBwJywgJy1pbWFlJywgJ2xpZ2FuZF9wcm8ubWFlJywgJy1vbWFlJywgJ2xpZ2FuZF9wcmVwLm1hZScsICctbXMnLCAnMScsICctcGgnLCAnNycsICctcGh0JywgJzAuNScsICctbnQn

> <r_lp_tautomer_probability>
1

> <r_epik_Ionization_Penalty>
  0.0044

> <r_epik_Ionization_Penalty_Charging>
  0.0040

> <r_epik_Ionization_Penalty_Neutral>
  0.0004

> <r_epik_State_Penalty>
 -0.0000

> <r_epik_Charging_Adjusted_Penalty>
0.00403663670421057

> <i_epik_Tot_Q>
1

> <i_epik_Tot_abs_Q>
3

> <s_epik_Chemistry_Notes>
This compound contains an acetal/aminal-like group ( X-CH(R)-Y where X, Y are N, S, or O) that may be acid/base labile, releasing an aldehyde.

$$$$
