2h3e_ligand
                    3D
 Schrodinger Suite 2020-3.
 25 24  0  0  1  0            999 V2000
   68.5170   48.0160   63.2800 O   0  5  0  0  0  0
   67.3700   49.1450   63.2550 P   0  0  0  0  0  0
   66.8110   49.1740   61.7470 O   0  0  0  0  0  0
   66.3130   48.8940   64.2610 O   0  0  0  0  0  0
   68.2340   50.7140   63.5080 C   0  0  0  0  0  0
   67.3700   51.9350   63.1790 C   0  0  0  0  0  0
   66.3690   52.2010   63.8400 O   0  0  0  0  0  0
   67.7930   52.6470   62.1350 N   0  0  0  0  0  0
   67.1230   53.8720   61.6730 C   0  0  1  0  0  0
   67.9840   54.5670   60.6140 C   0  0  0  0  0  0
   68.2270   53.7110   59.3680 C   0  0  0  0  0  0
   67.4550   52.7500   59.1600 O   0  5  0  0  0  0
   69.1860   54.0470   58.6400 O   0  0  0  0  0  0
   65.7190   53.6050   61.1260 C   0  0  0  0  0  0
   65.2440   52.4720   61.0900 O   0  0  0  0  0  0
   65.0730   54.6890   60.7050 N   0  0  0  0  0  0
   66.2428   48.3178   61.3545 H   0  0  0  0  0  0
   68.5419   50.7974   64.5607 H   0  0  0  0  0  0
   69.1234   50.7512   62.8618 H   0  0  0  0  0  0
   68.6879   52.2788   61.6119 H   0  0  0  0  0  0
   67.0232   54.4982   62.5718 H   0  0  0  0  0  0
   67.4869   55.4920   60.2866 H   0  0  0  0  0  0
   68.9670   54.8111   61.0431 H   0  0  0  0  0  0
   65.5563   55.6753   60.7652 H   0  0  0  0  0  0
   64.0556   54.5990   60.2967 H   0  0  0  0  0  0
  1  2  1  0  0  0
  2  3  1  0  0  0
  2  4  2  0  0  0
  2  5  1  0  0  0
  3 17  1  0  0  0
  5  6  1  0  0  0
  5 18  1  0  0  0
  5 19  1  0  0  0
  6  7  2  0  0  0
  6  8  1  0  0  0
  8  9  1  0  0  0
  8 20  1  0  0  0
  9 10  1  0  0  0
  9 14  1  0  0  0
  9 21  1  0  0  0
 10 11  1  0  0  0
 10 22  1  0  0  0
 10 23  1  0  0  0
 11 12  1  0  0  0
 11 13  2  0  0  0
 14 15  2  0  0  0
 14 16  1  0  0  0
 16 24  1  0  0  0
 16 25  1  0  0  0
M  CHG  2   1  -1  12  -1
M  END
> <s_m_source_file>
../2h3e_ligand.sdf

> <i_m_source_file_index>
1

> <s_epik_input>
W09IXVAoPU8pKFtPSF0pW0NIMl1DKD1PKVtOSF1bQ0BIXShDKD1PKVtOSDJdKVtDSDJdQyg9TylbT0hd

> <s_epik_cmdline>
J2VwaWtfYXBwJywgJy1pbWFlJywgJ2xpZ2FuZF9wcm8ubWFlJywgJy1vbWFlJywgJ2xpZ2FuZF9wcmVwLm1hZScsICctbXMnLCAnMScsICctcGgnLCAnNycsICctcGh0JywgJzAuNScsICctbnQn

> <r_epik_Ionization_Penalty>
  0.1989

> <r_epik_Ionization_Penalty_Charging>
  0.0007

> <r_epik_Ionization_Penalty_Neutral>
  0.1983

> <r_epik_State_Penalty>
  0.1881

> <r_epik_Charging_Adjusted_Penalty>
0.18873971630666

> <i_epik_Tot_Q>
-2

> <i_epik_Tot_abs_Q>
2

$$$$
