2h42_ligand
                    3D
 Schrodinger Suite 2020-3.
 63 66  0  0  1  0            999 V2000
   26.4280  119.9220   10.0560 C   0  0  0  0  0  0
   27.3610  119.8470   11.2650 C   0  0  0  0  0  0
   27.7990  121.2430   11.7120 C   0  0  0  0  0  0
   28.8090  121.1320   12.8550 C   0  0  0  0  0  0
   28.5810  121.3610   14.1460 N   0  0  0  0  0  0
   29.5930  121.1190   14.8040 N   0  0  0  0  0  0
   29.6850  121.3040   16.2700 C   0  0  0  0  0  0
   30.6020  120.7020   14.0430 C   0  0  0  0  0  0
   31.9130  120.3100   14.2860 C   0  0  0  0  0  0
   32.3620  120.2670   15.4300 O   0  0  0  0  0  0
   32.7120  119.9430   13.1980 N   0  0  0  0  0  0
   32.1760  119.9820   11.9050 C   0  0  0  0  0  0
   30.9030  120.3550   11.7060 N   0  0  0  0  0  0
   30.1260  120.7070   12.7400 C   0  0  0  0  0  0
   32.9980  119.7020   10.8200 C   0  0  0  0  0  0
   33.0670  120.5870    9.7510 C   0  0  0  0  0  0
   33.9110  120.3220    8.6770 C   0  0  0  0  0  0
   34.6860  119.1670    8.6810 C   0  0  0  0  0  0
   34.6140  118.2820    9.7510 C   0  0  0  0  0  0
   33.7660  118.5440   10.8230 C   0  0  0  0  0  0
   33.6310  117.6620   11.8510 O   0  0  0  0  0  0
   34.8440  116.9250   12.0640 C   0  0  0  0  0  0
   34.5950  115.8590   13.1330 C   0  0  0  0  0  0
   34.0250  121.4580    7.3510 S   0  0  0  0  0  0
   35.1510  121.0430    6.4510 O   0  0  0  0  0  0
   34.3100  122.8240    7.9000 O   0  0  0  0  0  0
   32.6500  121.5170    6.4740 N   0  0  1  0  0  0
   32.3190  120.2480    5.8060 C   0  0  0  0  0  0
   31.1870  119.4770    6.4880 C   0  0  0  0  0  0
   30.0390  120.3680    6.6960 N   0  0  0  0  0  0
   28.9040  119.5930    7.2170 C   0  0  0  0  0  0
   30.4670  121.3490    7.7030 C   0  0  0  0  0  0
   31.5490  122.2550    7.1130 C   0  0  0  0  0  0
   26.1308  118.9055    9.7586 H   0  0  0  0  0  0
   26.9497  120.4109    9.2201 H   0  0  0  0  0  0
   25.5323  120.5035   10.3196 H   0  0  0  0  0  0
   26.8393  119.3581   12.1009 H   0  0  0  0  0  0
   28.2567  119.2654   11.0014 H   0  0  0  0  0  0
   28.2654  121.7693   10.8662 H   0  0  0  0  0  0
   26.9217  121.8095   12.0575 H   0  0  0  0  0  0
   28.7167  121.6543   16.6568 H   0  0  0  0  0  0
   30.4619  122.0488   16.4975 H   0  0  0  0  0  0
   29.9448  120.3464   16.7448 H   0  0  0  0  0  0
   33.7528  119.6269   13.3618 H   0  0  0  0  0  0
   32.4583  121.4912    9.7538 H   0  0  0  0  0  0
   35.3510  118.9553    7.8437 H   0  0  0  0  0  0
   35.2244  117.3790    9.7502 H   0  0  0  0  0  0
   35.1507  116.4439   11.1235 H   0  0  0  0  0  0
   35.6356  117.6109   12.4001 H   0  0  0  0  0  0
   35.5196  115.2880   13.3038 H   0  0  0  0  0  0
   33.8008  115.1778   12.7935 H   0  0  0  0  0  0
   34.2856  116.3448   14.0702 H   0  0  0  0  0  0
   32.0038  120.4495    4.7716 H   0  0  0  0  0  0
   33.2045  119.5954    5.7990 H   0  0  0  0  0  0
   30.8834  118.6325    5.8519 H   0  0  0  0  0  0
   31.5355  119.0973    7.4598 H   0  0  0  0  0  0
   28.5842  118.8590    6.4627 H   0  0  0  0  0  0
   28.0694  120.2726    7.4442 H   0  0  0  0  0  0
   29.2090  119.0674    8.1339 H   0  0  0  0  0  0
   29.6054  121.9611    8.0080 H   0  0  0  0  0  0
   30.8711  120.8219    8.5799 H   0  0  0  0  0  0
   31.9472  122.8692    7.9341 H   0  0  0  0  0  0
   31.0640  122.9056    6.3704 H   0  0  0  0  0  0
  1  2  1  0  0  0
  1 34  1  0  0  0
  1 35  1  0  0  0
  1 36  1  0  0  0
  2  3  1  0  0  0
  2 37  1  0  0  0
  2 38  1  0  0  0
  3  4  1  0  0  0
  3 39  1  0  0  0
  3 40  1  0  0  0
  4  5  2  0  0  0
  4 14  1  0  0  0
  5  6  1  0  0  0
  6  7  1  0  0  0
  6  8  1  0  0  0
  7 41  1  0  0  0
  7 42  1  0  0  0
  7 43  1  0  0  0
  8  9  1  0  0  0
  8 14  2  0  0  0
  9 10  2  0  0  0
  9 11  1  0  0  0
 11 12  1  0  0  0
 11 44  1  0  0  0
 12 13  2  0  0  0
 12 15  1  0  0  0
 13 14  1  0  0  0
 15 16  2  0  0  0
 15 20  1  0  0  0
 16 17  1  0  0  0
 16 45  1  0  0  0
 17 18  2  0  0  0
 17 24  1  0  0  0
 18 19  1  0  0  0
 18 46  1  0  0  0
 19 20  2  0  0  0
 19 47  1  0  0  0
 20 21  1  0  0  0
 21 22  1  0  0  0
 22 23  1  0  0  0
 22 48  1  0  0  0
 22 49  1  0  0  0
 23 50  1  0  0  0
 23 51  1  0  0  0
 23 52  1  0  0  0
 24 25  2  0  0  0
 24 26  2  0  0  0
 24 27  1  0  0  0
 27 28  1  0  0  0
 27 33  1  0  0  0
 28 29  1  0  0  0
 28 53  1  0  0  0
 28 54  1  0  0  0
 29 30  1  0  0  0
 29 55  1  0  0  0
 29 56  1  0  0  0
 30 31  1  0  0  0
 30 32  1  0  0  0
 31 57  1  0  0  0
 31 58  1  0  0  0
 31 59  1  0  0  0
 32 33  1  0  0  0
 32 60  1  0  0  0
 32 61  1  0  0  0
 33 62  1  0  0  0
 33 63  1  0  0  0
M  END
> <s_m_source_file>
../2h42_ligand.sdf

> <i_m_source_file_index>
1

> <s_epik_input>
W0NIM11bQ0gyXVtDSDJdYyhubjFbQ0gzXSljKGMxMiluYyhbbkhdYzI9TyktYzNbY0hdYyhbY0hdW2NIXWMzT1tDSDJdW0NIM10pUyg9TykoPU8pTjRbQ0gyXVtDSDJdW05IK10oW0NIM10pW0NIMl1bQ0gyXTQ=

> <s_epik_cmdline>
J2VwaWtfYXBwJywgJy1pbWFlJywgJ2xpZ2FuZF9wcm8ubWFlJywgJy1vbWFlJywgJ2xpZ2FuZF9wcmVwLm1hZScsICctbXMnLCAnMScsICctcGgnLCAnNycsICctcGh0JywgJzAuNScsICctbnQn

> <r_lp_tautomer_probability>
1

> <r_epik_Ionization_Penalty>
  0.1911

> <r_epik_Ionization_Penalty_Charging>
  0.0000

> <r_epik_Ionization_Penalty_Neutral>
  0.1911

> <r_epik_State_Penalty>
  0.1740

> <r_epik_Charging_Adjusted_Penalty>
0.17398267960302

> <i_epik_Tot_Q>
0

> <i_epik_Tot_abs_Q>
0

$$$$
