2h5a_ligand
                    3D
 Schrodinger Suite 2020-3.
 23 23  0  0  1  0            999 V2000
  -48.2460  -14.0200   16.3590 C   0  0  2  0  0  0
  -46.9950  -13.3260   16.4110 O   0  0  0  0  0  0
  -46.3920  -12.7730   17.8010 P   0  0  0  0  0  0
  -46.0910  -13.9640   18.6810 O   0  5  0  0  0  0
  -47.3990  -11.8500   18.4640 O   0  5  0  0  0  0
  -45.1440  -12.0070   17.4500 O   0  0  0  0  0  0
  -48.0590  -15.5440   16.2730 C   0  0  2  0  0  0
  -47.3920  -16.0550   17.4250 O   0  0  0  0  0  0
  -47.2970  -15.9240   14.9990 C   0  0  1  0  0  0
  -47.0740  -17.3330   14.9660 O   0  0  0  0  0  0
  -48.1030  -15.4140   13.7980 C   0  0  2  0  0  0
  -47.4240  -15.6170   12.5630 O   0  0  0  0  0  0
  -48.3440  -13.9090   13.9610 C   0  0  0  0  0  0
  -48.9850  -13.5800   15.2080 O   0  0  0  0  0  0
  -48.7837  -13.7200   17.2705 H   0  0  0  0  0  0
  -49.0387  -16.0433   16.3014 H   0  0  0  0  0  0
  -47.8071  -15.8722   18.4272 H   0  0  0  0  0  0
  -46.2711  -15.5282   14.9685 H   0  0  0  0  0  0
  -46.5073  -17.8192   15.7737 H   0  0  0  0  0  0
  -49.0274  -16.0025   13.7021 H   0  0  0  0  0  0
  -47.1510  -16.6344   12.2462 H   0  0  0  0  0  0
  -47.3814  -13.3777   13.9268 H   0  0  0  0  0  0
  -48.9897  -13.5506   13.1457 H   0  0  0  0  0  0
  1  2  1  0  0  0
  1  7  1  0  0  0
  1 14  1  0  0  0
  1 15  1  0  0  0
  2  3  1  0  0  0
  3  4  1  0  0  0
  3  5  1  0  0  0
  3  6  2  0  0  0
  7  8  1  0  0  0
  7  9  1  0  0  0
  7 16  1  0  0  0
  8 17  1  0  0  0
  9 10  1  0  0  0
  9 11  1  0  0  0
  9 18  1  0  0  0
 10 19  1  0  0  0
 11 12  1  0  0  0
 11 13  1  0  0  0
 11 20  1  0  0  0
 12 21  1  0  0  0
 13 14  1  0  0  0
 13 22  1  0  0  0
 13 23  1  0  0  0
M  CHG  2   4  -1   5  -1
M  END
> <s_m_source_file>
../2h5a_ligand.sdf

> <i_m_source_file_index>
1

> <s_epik_input>
W09IXVAoPU8pKFtPSF0pT1tDQEBIXTFbQ0BIXShbT0hdKVtDQEBIXShbT0hdKVtDQEhdKFtPSF0pW0NIMl1PMQ==

> <s_epik_cmdline>
J2VwaWtfYXBwJywgJy1pbWFlJywgJ2xpZ2FuZF9wcm8ubWFlJywgJy1vbWFlJywgJ2xpZ2FuZF9wcmVwLm1hZScsICctbXMnLCAnMScsICctcGgnLCAnNycsICctcGh0JywgJzAuNScsICctbnQn

> <r_epik_Ionization_Penalty>
  0.0795

> <r_epik_Ionization_Penalty_Charging>
  0.0795

> <r_epik_Ionization_Penalty_Neutral>
  0.0000

> <r_epik_State_Penalty>
  0.0704

> <r_epik_Charging_Adjusted_Penalty>
0.149894746582429

> <i_epik_Tot_Q>
-2

> <i_epik_Tot_abs_Q>
2

> <s_epik_Chemistry_Notes>
This compound contains an acetal/aminal-like group ( X-CH(R)-Y where X, Y are N, S, or O) that may be acid/base labile, releasing an aldehyde.

$$$$
