2h5d_ligand
                    3D
 Schrodinger Suite 2020-3.
 68 68  0  0  1  0            999 V2000
   12.0030   41.8080   18.0220 C   0  0  0  0  0  0
   11.7280   41.1780   17.0060 O   0  0  0  0  0  0
   11.3350   43.1730   18.2350 C   0  0  0  0  0  0
   10.4690   43.5190   17.0560 C   0  0  0  0  0  0
   11.2390   43.7670   15.7640 C   0  0  0  0  0  0
   12.4520   43.8460   15.7000 O   0  0  0  0  0  0
   10.4530   43.8690   14.6090 O   0  0  0  0  0  0
   11.0430   44.6880   13.5810 C   0  0  0  0  0  0
   12.8750   41.4490   18.9540 N   0  0  0  0  0  0
   13.6860   40.2690   18.6580 C   0  0  2  0  0  0
   12.8270   39.0200   18.7220 C   0  0  0  0  0  0
   11.9950   38.8650   19.6150 O   0  0  0  0  0  0
   14.7980   40.1460   19.6830 C   0  0  0  0  0  0
   13.0720   38.0980   17.8260 N   0  0  0  0  0  0
   12.4190   36.8260   17.7730 C   0  0  2  0  0  0
   13.4750   35.7560   17.4670 C   0  0  0  0  0  0
   14.3870   36.0250   16.6620 O   0  0  0  0  0  0
   11.3340   36.7470   16.7070 C   0  0  0  0  0  0
   13.3040   34.6160   18.0430 N   0  0  0  0  0  0
   14.0830   33.4280   17.6150 C   0  0  2  0  0  0
   13.7060   33.0860   16.1690 C   0  0  0  0  0  0
   12.5510   33.2550   15.8030 O   0  0  0  0  0  0
   13.6280   32.3410   18.5960 C   0  0  0  0  0  0
   12.9650   33.0490   19.7250 C   0  0  0  0  0  0
   12.3130   34.2340   19.0490 C   0  0  0  0  0  0
   14.6750   32.5670   15.4270 N   0  0  0  0  0  0
   14.5030   32.0300   14.0660 C   0  0  1  0  0  0
   15.2560   32.9000   13.0420 C   0  0  0  0  0  0
   14.7040   34.3090   12.9850 C   0  0  0  0  0  0
   16.7660   32.8940   13.2340 C   0  0  0  0  0  0
   14.8490   30.4590   14.0470 B   0  0  0  0  0  0
   14.8550   29.9150   12.6660 O   0  0  0  0  0  0
   13.8450   29.6500   14.8530 O   0  0  0  0  0  0
   10.7118   43.1389   19.1408 H   0  0  0  0  0  0
   12.1090   43.9459   18.3514 H   0  0  0  0  0  0
    9.7692   42.6932   16.8602 H   0  0  0  0  0  0
    9.9021   44.4361   17.2740 H   0  0  0  0  0  0
   10.3729   44.7216   12.7093 H   0  0  0  0  0  0
   12.0117   44.2606   13.2826 H   0  0  0  0  0  0
   11.1949   45.7071   13.9662 H   0  0  0  0  0  0
   13.0084   41.9833   19.9062 H   0  0  0  0  0  0
   14.0937   40.4093   17.6460 H   0  0  0  0  0  0
   15.4299   41.0457   19.6481 H   0  0  0  0  0  0
   15.4090   39.2597   19.4566 H   0  0  0  0  0  0
   14.3612   40.0434   20.6873 H   0  0  0  0  0  0
   13.8380   38.3545   17.0794 H   0  0  0  0  0  0
   11.9503   36.7336   18.7638 H   0  0  0  0  0  0
   10.5656   37.5078   16.9088 H   0  0  0  0  0  0
   10.8743   35.7478   16.7250 H   0  0  0  0  0  0
   11.7785   36.9283   15.7173 H   0  0  0  0  0  0
   15.1706   33.5907   17.6400 H   0  0  0  0  0  0
   12.9270   31.6607   18.0902 H   0  0  0  0  0  0
   14.5027   31.7728   18.9452 H   0  0  0  0  0  0
   12.2336   32.3783   20.1995 H   0  0  0  0  0  0
   13.7218   33.3485   20.4650 H   0  0  0  0  0  0
   12.1449   35.0762   19.7364 H   0  0  0  0  0  0
   11.3675   33.9725   18.5515 H   0  0  0  0  0  0
   15.6674   32.5557   15.9014 H   0  0  0  0  0  0
   13.4442   32.1666   13.8011 H   0  0  0  0  0  0
   15.0815   32.4462   12.0553 H   0  0  0  0  0  0
   13.6135   34.2702   12.8459 H   0  0  0  0  0  0
   15.1621   34.8485   12.1429 H   0  0  0  0  0  0
   14.9355   34.8317   13.9248 H   0  0  0  0  0  0
   17.1269   31.8555   13.2702 H   0  0  0  0  0  0
   17.0178   33.4027   14.1762 H   0  0  0  0  0  0
   17.2445   33.4194   12.3944 H   0  0  0  0  0  0
   15.5156   30.3550   11.9044 H   0  0  0  0  0  0
   13.6762   29.8834   15.9146 H   0  0  0  0  0  0
  1  2  2  0  0  0
  1  3  1  0  0  0
  1  9  1  0  0  0
  3  4  1  0  0  0
  3 34  1  0  0  0
  3 35  1  0  0  0
  4  5  1  0  0  0
  4 36  1  0  0  0
  4 37  1  0  0  0
  5  6  2  0  0  0
  5  7  1  0  0  0
  7  8  1  0  0  0
  8 38  1  0  0  0
  8 39  1  0  0  0
  8 40  1  0  0  0
  9 10  1  0  0  0
  9 41  1  0  0  0
 10 11  1  0  0  0
 10 13  1  0  0  0
 10 42  1  0  0  0
 11 12  2  0  0  0
 11 14  1  0  0  0
 13 43  1  0  0  0
 13 44  1  0  0  0
 13 45  1  0  0  0
 14 15  1  0  0  0
 14 46  1  0  0  0
 15 16  1  0  0  0
 15 18  1  0  0  0
 15 47  1  0  0  0
 16 17  2  0  0  0
 16 19  1  0  0  0
 18 48  1  0  0  0
 18 49  1  0  0  0
 18 50  1  0  0  0
 19 20  1  0  0  0
 19 25  1  0  0  0
 20 21  1  0  0  0
 20 23  1  0  0  0
 20 51  1  0  0  0
 21 22  2  0  0  0
 21 26  1  0  0  0
 23 24  1  0  0  0
 23 52  1  0  0  0
 23 53  1  0  0  0
 24 25  1  0  0  0
 24 54  1  0  0  0
 24 55  1  0  0  0
 25 56  1  0  0  0
 25 57  1  0  0  0
 26 27  1  0  0  0
 26 58  1  0  0  0
 27 28  1  0  0  0
 27 31  1  0  0  0
 27 59  1  0  0  0
 28 29  1  0  0  0
 28 30  1  0  0  0
 28 60  1  0  0  0
 29 61  1  0  0  0
 29 62  1  0  0  0
 29 63  1  0  0  0
 30 64  1  0  0  0
 30 65  1  0  0  0
 30 66  1  0  0  0
 31 32  1  0  0  0
 31 33  1  0  0  0
 32 67  1  0  0  0
 33 68  1  0  0  0
M  END
> <s_m_source_file>
../2h5d_ligand.sdf

> <i_m_source_file_index>
1

> <s_epik_input>
W0NIM11PQyg9TylbQ0gyXVtDSDJdQyg9TylbTkhdW0NAQEhdKFtDSDNdKUMoPU8pW05IXVtDQEBIXShbQ0gzXSlDKD1PKU4xW0NAQEhdKFtDSDJdW0NIMl1bQ0gyXTEpQyg9TylbTkhdW0NAQEhdKFtDSF0oW0NIM10pW0NIM10pQihbT0hdKVtPSF0=

> <s_epik_cmdline>
J2VwaWtfYXBwJywgJy1pbWFlJywgJ2xpZ2FuZF9wcm8ubWFlJywgJy1vbWFlJywgJ2xpZ2FuZF9wcmVwLm1hZScsICctbXMnLCAnMScsICctcGgnLCAnNycsICctcGh0JywgJzAuNScsICctbnQn

> <r_lp_tautomer_probability>
1

> <r_epik_Ionization_Penalty>
  0.0000

> <r_epik_Ionization_Penalty_Charging>
  0.0000

> <r_epik_Ionization_Penalty_Neutral>
  0.0000

> <r_epik_State_Penalty>
 -0.0000

> <r_epik_Charging_Adjusted_Penalty>
0

> <i_epik_Tot_Q>
0

> <i_epik_Tot_abs_Q>
0

> <s_epik_Chemistry_Notes>
This compound has an ester and may undergo hydrolysis at high or low pH. This compound contains a Lewis acid (boronic acid) which adds nucleophiles to form tetrahedral complexes, lowering the experimental pKa

$$$$
