2h5e_ligand
                    3D
 Schrodinger Suite 2020-3.
 40 42  0  0  1  0            999 V2000
   -2.7820   26.7130   -1.1860 P   0  0  0  0  0  0
   -3.3700   27.0580   -2.5000 O   0  0  0  0  0  0
   -1.3040   27.1470   -1.2220 O   0  5  0  0  0  0
   -3.5770   27.4540   -0.1000 O   0  5  0  0  0  0
   -2.8600   25.1090   -0.9010 O   0  0  0  0  0  0
   -4.0550   24.4740   -0.0380 P   0  0  1  0  0  0
   -3.7760   24.7030    1.3680 O   0  0  0  0  0  0
   -5.4060   25.0860   -0.4390 O   0  5  0  0  0  0
   -4.0010   22.8880   -0.3750 O   0  0  0  0  0  0
   -4.0840   22.4540   -1.7170 C   0  0  0  0  0  0
   -4.4940   20.9950   -1.7760 C   0  0  1  0  0  0
   -3.4500   20.2000   -1.2400 O   0  0  0  0  0  0
   -5.7690   20.7260   -0.9770 C   0  0  1  0  0  0
   -6.6490   19.8210   -1.6720 O   0  0  0  0  0  0
   -5.2060   20.1780    0.3280 C   0  0  1  0  0  0
   -6.0890   19.2670    0.9340 O   0  0  0  0  0  0
   -3.9140   19.4990   -0.1070 C   0  0  2  0  0  0
   -2.8080   19.5120    0.8710 N   0  0  0  0  0  0
   -2.3000   20.5980    1.5410 C   0  0  0  0  0  0
   -1.2640   20.1830    2.3140 N   0  0  0  0  0  0
   -1.0970   18.8560    2.1260 C   0  0  0  0  0  0
   -0.2040   17.9320    2.6700 C   0  0  0  0  0  0
    0.3240   18.1490    3.7660 O   0  0  0  0  0  0
   -0.3060   16.6150    2.2770 N   0  3  0  0  0  0
   -1.2610   16.2130    1.3570 C   0  0  0  0  0  0
   -1.4080   14.9170    1.1090 N   0  0  0  0  0  0
   -2.1440   17.1250    0.8280 N   0  0  0  0  0  0
   -2.0600   18.4210    1.2140 C   0  0  0  0  0  0
   -4.8314   23.0582   -2.2522 H   0  0  0  0  0  0
   -3.1033   22.5705   -2.2014 H   0  0  0  0  0  0
   -4.6289   20.6974   -2.8263 H   0  0  0  0  0  0
   -6.4556   21.5746   -0.8415 H   0  0  0  0  0  0
   -7.1077   20.1232   -2.6250 H   0  0  0  0  0  0
   -5.0965   20.9186    1.1340 H   0  0  0  0  0  0
   -7.0671   19.6107    1.3016 H   0  0  0  0  0  0
   -4.1252   18.4406   -0.3197 H   0  0  0  0  0  0
   -2.6671   21.6215    1.4649 H   0  0  0  0  0  0
   -0.6989   14.1917    1.5346 H   0  0  0  0  0  0
   -2.2389   14.5686    0.4779 H   0  0  0  0  0  0
    0.3780   15.8617    2.6950 H   0  0  0  0  0  0
  1  2  2  0  0  0
  1  3  1  0  0  0
  1  4  1  0  0  0
  1  5  1  0  0  0
  5  6  1  0  0  0
  6  7  2  0  0  0
  6  8  1  0  0  0
  6  9  1  0  0  0
  9 10  1  0  0  0
 10 11  1  0  0  0
 10 29  1  0  0  0
 10 30  1  0  0  0
 11 12  1  0  0  0
 11 13  1  0  0  0
 11 31  1  0  0  0
 12 17  1  0  0  0
 13 14  1  0  0  0
 13 15  1  0  0  0
 13 32  1  0  0  0
 14 33  1  0  0  0
 15 16  1  0  0  0
 15 17  1  0  0  0
 15 34  1  0  0  0
 16 35  1  0  0  0
 17 18  1  0  0  0
 17 36  1  0  0  0
 18 19  1  0  0  0
 18 28  1  0  0  0
 19 20  2  0  0  0
 19 37  1  0  0  0
 20 21  1  0  0  0
 21 22  1  0  0  0
 21 28  2  0  0  0
 22 23  2  0  0  0
 22 24  1  0  0  0
 24 25  1  0  0  0
 24 40  1  0  0  0
 25 26  1  0  0  0
 25 27  2  0  0  0
 26 38  1  0  0  0
 26 39  1  0  0  0
 27 28  1  0  0  0
M  CHG  4   3  -1   4  -1   8  -1  24   1
M  END
> <s_m_source_file>
../2h5e_ligand.sdf

> <i_m_source_file_index>
1

> <s_epik_input>
Tz1QKFtPSF0pKFtPSF0pT1tQQEBdKD1PKShbT0hdKU9bQ0gyXVtDQEhdMU9bQ0BIXShbQ0BIXShbT0hdKVtDQEBIXTFbT0hdKW4oW2NIXW4yKWMoYzIzKVtuSF1jKD1OXFtIXSlcW25IXWMzPU8=

> <s_epik_cmdline>
J2VwaWtfYXBwJywgJy1pbWFlJywgJ2xpZ2FuZF9wcm8ubWFlJywgJy1vbWFlJywgJ2xpZ2FuZF9wcmVwLm1hZScsICctbXMnLCAnMScsICctcGgnLCAnNycsICctcGh0JywgJzAuNScsICctbnQn

> <r_epik_Ionization_Penalty>
  2.4918

> <r_epik_Ionization_Penalty_Charging>
  2.4918

> <r_epik_Ionization_Penalty_Neutral>
  0.0000

> <r_epik_State_Penalty>
  0.1302

> <r_epik_Charging_Adjusted_Penalty>
2.62193179535438

> <i_epik_Tot_Q>
-2

> <i_epik_Tot_abs_Q>
4

> <s_epik_Chemistry_Notes>
This compound has an imine and may undergo hydrolysis. This compound contains an acetal/aminal-like group ( X-CH(R)-Y where X, Y are N, S, or O) that may be acid/base labile, releasing an aldehyde.

$$$$
