2h5i_ligand
                    3D
 Schrodinger Suite 2020-3.
 62 61  0  0  1  0            999 V2000
   -6.7620   71.9270   27.0170 C   0  0  0  0  0  0
   -5.5790   72.0730   26.7120 O   0  0  0  0  0  0
   -7.1800   71.6770   28.4470 C   0  0  0  0  0  0
   -7.7510   71.9860   26.1320 N   0  0  0  0  0  0
   -7.4770   72.1480   24.7040 C   0  0  2  0  0  0
   -7.0780   73.5880   24.3940 C   0  0  0  0  0  0
   -7.7570   74.5280   24.8490 O   0  0  0  0  0  0
   -8.6970   71.7420   23.8800 C   0  0  0  0  0  0
   -9.0730   70.2820   23.9380 C   0  0  0  0  0  0
   -8.1920   69.3910   23.9140 O   0  0  0  0  0  0
  -10.2930   69.9830   23.9730 O   0  5  0  0  0  0
   -6.0060   73.7660   23.6180 N   0  0  0  0  0  0
   -5.5140   75.0960   23.2600 C   0  0  2  0  0  0
   -5.0880   75.1420   21.7920 C   0  0  0  0  0  0
   -4.7960   74.0430   21.2890 O   0  0  0  0  0  0
   -4.2910   75.4600   24.1230 C   0  0  0  0  0  0
   -4.5220   75.3070   25.6290 C   0  0  0  0  0  0
   -3.3760   75.8390   26.4730 C   0  0  0  0  0  0
   -2.2060   75.8790   26.0280 O   0  0  0  0  0  0
   -3.6190   76.2470   27.6420 O   0  5  0  0  0  0
   -4.9830   76.2970   21.1410 N   0  0  0  0  0  0
   -4.5070   76.2410   19.7390 C   0  0  2  0  0  0
   -3.0780   76.7240   19.5290 C   0  0  0  0  0  0
   -2.5610   77.5850   20.2350 O   0  0  0  0  0  0
   -5.4620   77.0370   18.8290 C   0  0  0  0  0  0
   -6.8410   76.3820   18.7880 C   0  0  0  0  0  0
   -5.6100   78.4890   19.2490 C   0  0  0  0  0  0
   -2.3880   76.1850   18.5140 N   0  0  0  0  0  0
   -1.0600   76.5340   18.0330 C   0  0  2  0  0  0
   -1.0790   77.5420   16.8920 C   0  0  0  0  0  0
    0.1510   77.9840   16.3580 O   0  0  0  0  0  0
   -0.3130   75.2450   17.6400 C   0  0  0  0  0  0
    0.3610   74.5270   18.7920 C   0  0  0  0  0  0
    0.7580   75.2090   19.7610 O   0  0  0  0  0  0
    0.8080   73.3560   18.6780 O   0  5  0  0  0  0
   -6.2879   71.6475   29.0899 H   0  0  0  0  0  0
   -7.7103   70.7154   28.5112 H   0  0  0  0  0  0
   -7.8461   72.4861   28.7811 H   0  0  0  0  0  0
   -8.7892   71.9110   26.4878 H   0  0  0  0  0  0
   -6.6349   71.4774   24.4779 H   0  0  0  0  0  0
   -9.5780   72.3001   24.2299 H   0  0  0  0  0  0
   -8.5157   71.9705   22.8194 H   0  0  0  0  0  0
   -5.4889   72.8695   23.2452 H   0  0  0  0  0  0
   -6.3632   75.7713   23.4413 H   0  0  0  0  0  0
   -3.4469   74.8070   23.8566 H   0  0  0  0  0  0
   -4.0141   76.5092   23.9426 H   0  0  0  0  0  0
   -5.4288   75.8581   25.9187 H   0  0  0  0  0  0
   -4.6461   74.2420   25.8746 H   0  0  0  0  0  0
   -5.2319   77.2656   21.5991 H   0  0  0  0  0  0
   -4.5054   75.1648   19.5117 H   0  0  0  0  0  0
   -5.0158   77.0362   17.8236 H   0  0  0  0  0  0
   -6.7382   75.3298   18.4841 H   0  0  0  0  0  0
   -7.4774   76.9122   18.0642 H   0  0  0  0  0  0
   -7.3006   76.4322   19.7861 H   0  0  0  0  0  0
   -4.6186   78.9646   19.2798 H   0  0  0  0  0  0
   -6.0709   78.5369   20.2466 H   0  0  0  0  0  0
   -6.2477   79.0170   18.5247 H   0  0  0  0  0  0
   -2.9565   75.3807   18.0243 H   0  0  0  0  0  0
   -0.5768   77.0414   18.8810 H   0  0  0  0  0  0
   -2.0255   77.9255   16.4834 H   0  0  0  0  0  0
   -1.0216   74.5325   17.1925 H   0  0  0  0  0  0
    0.4748   75.4855   16.9109 H   0  0  0  0  0  0
  1  2  2  0  0  0
  1  3  1  0  0  0
  1  4  1  0  0  0
  3 36  1  0  0  0
  3 37  1  0  0  0
  3 38  1  0  0  0
  4  5  1  0  0  0
  4 39  1  0  0  0
  5  6  1  0  0  0
  5  8  1  0  0  0
  5 40  1  0  0  0
  6  7  2  0  0  0
  6 12  1  0  0  0
  8  9  1  0  0  0
  8 41  1  0  0  0
  8 42  1  0  0  0
  9 10  2  0  0  0
  9 11  1  0  0  0
 12 13  1  0  0  0
 12 43  1  0  0  0
 13 14  1  0  0  0
 13 16  1  0  0  0
 13 44  1  0  0  0
 14 15  2  0  0  0
 14 21  1  0  0  0
 16 17  1  0  0  0
 16 45  1  0  0  0
 16 46  1  0  0  0
 17 18  1  0  0  0
 17 47  1  0  0  0
 17 48  1  0  0  0
 18 19  2  0  0  0
 18 20  1  0  0  0
 21 22  1  0  0  0
 21 49  1  0  0  0
 22 23  1  0  0  0
 22 25  1  0  0  0
 22 50  1  0  0  0
 23 24  2  0  0  0
 23 28  1  0  0  0
 25 26  1  0  0  0
 25 27  1  0  0  0
 25 51  1  0  0  0
 26 52  1  0  0  0
 26 53  1  0  0  0
 26 54  1  0  0  0
 27 55  1  0  0  0
 27 56  1  0  0  0
 27 57  1  0  0  0
 28 29  1  0  0  0
 28 58  1  0  0  0
 29 30  1  0  0  0
 29 32  1  0  0  0
 29 59  1  0  0  0
 30 31  2  0  0  0
 30 60  1  0  0  0
 32 33  1  0  0  0
 32 61  1  0  0  0
 32 62  1  0  0  0
 33 34  2  0  0  0
 33 35  1  0  0  0
M  CHG  3  11  -1  20  -1  35  -1
M  END
> <s_m_source_file>
../2h5i_ligand.sdf

> <i_m_source_file_index>
1

> <s_epik_input>
Tz1DKFtDSDNdKVtOSF1bQ0BASF0oW0NIMl1DKD1PKVtPSF0pQyg9TylbTkhdW0NAQEhdKFtDSDJdW0NIMl1DKD1PKVtPSF0pQyg9TylbTkhdW0NAQEhdKFtDSF0oW0NIM10pW0NIM10pQyg9TylbTkhdW0NASF0oW0NIXT1PKVtDSDJdQyg9TylbT0hd

> <s_epik_cmdline>
J2VwaWtfYXBwJywgJy1pbWFlJywgJ2xpZ2FuZF9wcm8ubWFlJywgJy1vbWFlJywgJ2xpZ2FuZF9wcmVwLm1hZScsICctbXMnLCAnMScsICctcGgnLCAnNycsICctcGh0JywgJzAuNScsICctbnQn

> <r_lp_tautomer_probability>
1

> <r_epik_Ionization_Penalty>
  0.0039

> <r_epik_Ionization_Penalty_Charging>
  0.0038

> <r_epik_Ionization_Penalty_Neutral>
  0.0001

> <r_epik_State_Penalty>
 -0.0000

> <r_epik_Charging_Adjusted_Penalty>
0.00382807294559543

> <i_epik_Tot_Q>
-3

> <i_epik_Tot_abs_Q>
3

$$$$
