2h5j_ligand
                    3D
 Schrodinger Suite 2020-3.
 67 66  0  0  1  0            999 V2000
   22.4020   14.2030   45.8600 C   0  0  0  0  0  0
   22.3930   13.0010   45.5760 O   0  0  0  0  0  0
   22.6150   14.6460   47.2930 C   0  0  0  0  0  0
   22.2360   15.1710   44.9720 N   0  0  0  0  0  0
   21.9310   14.9550   43.5610 C   0  0  2  0  0  0
   23.1890   14.5770   42.7970 C   0  0  0  0  0  0
   24.1860   15.3030   42.7840 O   0  0  0  0  0  0
   21.2910   16.1970   42.9430 C   0  0  0  0  0  0
   19.8820   16.5220   43.3830 C   0  0  0  0  0  0
   19.0930   15.6260   43.7700 O   0  0  0  0  0  0
   19.5120   17.7220   43.3410 O   0  5  0  0  0  0
   23.2070   13.4220   42.1350 N   0  0  0  0  0  0
   24.4020   13.0240   41.3920 C   0  0  2  0  0  0
   23.9920   12.6330   39.9740 C   0  0  0  0  0  0
   22.7830   12.6180   39.7350 O   0  0  0  0  0  0
   25.0940   11.8510   42.0790 C   0  0  0  0  0  0
   25.3310   12.0980   43.5670 C   0  0  0  0  0  0
   25.9940   10.6600   44.4260 S   0  0  0  0  0  0
   27.7550   10.9320   44.2010 C   0  0  0  0  0  0
   24.9340   12.3070   39.1180 N   0  0  0  0  0  0
   24.6480   11.9790   37.7290 C   0  0  2  0  0  0
   24.9350   10.5090   37.4330 C   0  0  0  0  0  0
   25.9290    9.9630   37.9220 O   0  0  0  0  0  0
   25.4850   12.8320   36.7690 C   0  0  0  0  0  0
   25.2920   14.3280   36.9080 C   0  0  0  0  0  0
   26.2310   14.9670   37.9170 C   0  0  0  0  0  0
   27.4240   14.6830   37.9700 O   0  0  0  0  0  0
   25.6890   15.8560   38.7390 N   0  0  0  0  0  0
   24.0720    9.9110   36.6260 N   0  0  0  0  0  0
   24.2150    8.5530   36.1210 C   0  0  2  0  0  0
   24.5950    8.5140   34.6730 C   0  0  0  0  0  0
   25.2810    7.4560   34.0890 O   0  0  0  0  0  0
   22.8820    7.8030   36.2590 C   0  0  0  0  0  0
   22.7160    7.0770   37.5680 C   0  0  0  0  0  0
   23.7430    6.8270   38.2350 O   0  5  0  0  0  0
   21.5590    6.7690   37.9150 O   0  0  0  0  0  0
   22.7401   13.7618   47.9353 H   0  0  0  0  0  0
   21.7428   15.2246   47.6314 H   0  0  0  0  0  0
   23.5167   15.2732   47.3527 H   0  0  0  0  0  0
   22.3428   16.1943   45.3612 H   0  0  0  0  0  0
   21.2165   14.1190   43.5386 H   0  0  0  0  0  0
   21.8943   17.0826   43.1916 H   0  0  0  0  0  0
   21.2442   16.0802   41.8502 H   0  0  0  0  0  0
   22.3232   12.7672   42.1469 H   0  0  0  0  0  0
   25.0801   13.8901   41.3831 H   0  0  0  0  0  0
   24.4710   10.9496   41.9816 H   0  0  0  0  0  0
   26.0714   11.6740   41.6064 H   0  0  0  0  0  0
   26.0498   12.9212   43.6921 H   0  0  0  0  0  0
   24.3797   12.3652   44.0504 H   0  0  0  0  0  0
   28.3162   10.1171   44.6816 H   0  0  0  0  0  0
   28.0390   11.8917   44.6573 H   0  0  0  0  0  0
   27.9883   10.9537   43.1262 H   0  0  0  0  0  0
   25.9706   12.2874   39.4856 H   0  0  0  0  0  0
   23.5750   12.1989   37.6278 H   0  0  0  0  0  0
   26.5536   12.6349   36.9401 H   0  0  0  0  0  0
   25.2266   12.5761   35.7308 H   0  0  0  0  0  0
   25.4716   14.8126   35.9370 H   0  0  0  0  0  0
   24.2631   14.5360   37.2368 H   0  0  0  0  0  0
   24.6165   16.0894   38.6670 H   0  0  0  0  0  0
   26.3121   16.3597   39.4926 H   0  0  0  0  0  0
   23.1986   10.5152   36.3395 H   0  0  0  0  0  0
   25.0328    8.1284   36.7217 H   0  0  0  0  0  0
   23.6873    8.5697   34.0541 H   0  0  0  0  0  0
   25.2490    9.3679   34.4424 H   0  0  0  0  0  0
   25.5314    7.4870   33.0183 H   0  0  0  0  0  0
   22.0493    8.5172   36.1778 H   0  0  0  0  0  0
   22.7997    7.0515   35.4600 H   0  0  0  0  0  0
  1  2  2  0  0  0
  1  3  1  0  0  0
  1  4  1  0  0  0
  3 37  1  0  0  0
  3 38  1  0  0  0
  3 39  1  0  0  0
  4  5  1  0  0  0
  4 40  1  0  0  0
  5  6  1  0  0  0
  5  8  1  0  0  0
  5 41  1  0  0  0
  6  7  2  0  0  0
  6 12  1  0  0  0
  8  9  1  0  0  0
  8 42  1  0  0  0
  8 43  1  0  0  0
  9 10  2  0  0  0
  9 11  1  0  0  0
 12 13  1  0  0  0
 12 44  1  0  0  0
 13 14  1  0  0  0
 13 16  1  0  0  0
 13 45  1  0  0  0
 14 15  2  0  0  0
 14 20  1  0  0  0
 16 17  1  0  0  0
 16 46  1  0  0  0
 16 47  1  0  0  0
 17 18  1  0  0  0
 17 48  1  0  0  0
 17 49  1  0  0  0
 18 19  1  0  0  0
 19 50  1  0  0  0
 19 51  1  0  0  0
 19 52  1  0  0  0
 20 21  1  0  0  0
 20 53  1  0  0  0
 21 22  1  0  0  0
 21 24  1  0  0  0
 21 54  1  0  0  0
 22 23  2  0  0  0
 22 29  1  0  0  0
 24 25  1  0  0  0
 24 55  1  0  0  0
 24 56  1  0  0  0
 25 26  1  0  0  0
 25 57  1  0  0  0
 25 58  1  0  0  0
 26 27  2  0  0  0
 26 28  1  0  0  0
 28 59  1  0  0  0
 28 60  1  0  0  0
 29 30  1  0  0  0
 29 61  1  0  0  0
 30 31  1  0  0  0
 30 33  1  0  0  0
 30 62  1  0  0  0
 31 32  1  0  0  0
 31 63  1  0  0  0
 31 64  1  0  0  0
 32 65  1  0  0  0
 33 34  1  0  0  0
 33 66  1  0  0  0
 33 67  1  0  0  0
 34 35  1  0  0  0
 34 36  2  0  0  0
M  CHG  2  11  -1  35  -1
M  END
> <s_m_source_file>
../2h5j_ligand.sdf

> <i_m_source_file_index>
1

> <s_epik_input>
Tz1DKFtDSDNdKVtOSF1bQ0BASF0oW0NIMl1DKD1PKVtPSF0pQyg9TylbTkhdW0NAQEhdKFtDSDJdW0NIMl1TW0NIM10pQyg9TylbTkhdW0NAQEhdKFtDSDJdW0NIMl1DKD1PKVtOSDJdKUMoPU8pW05IXVtDQEhdKFtDSDJdW09IXSlbQ0gyXUMoPU8pW09IXQ==

> <s_epik_cmdline>
J2VwaWtfYXBwJywgJy1pbWFlJywgJ2xpZ2FuZF9wcm8ubWFlJywgJy1vbWFlJywgJ2xpZ2FuZF9wcmVwLm1hZScsICctbXMnLCAnMScsICctcGgnLCAnNycsICctcGh0JywgJzAuNScsICctbnQn

> <r_lp_tautomer_probability>
1

> <r_epik_Ionization_Penalty>
  0.0028

> <r_epik_Ionization_Penalty_Charging>
  0.0028

> <r_epik_Ionization_Penalty_Neutral>
  0.0000

> <r_epik_State_Penalty>
 -0.0000

> <r_epik_Charging_Adjusted_Penalty>
0.00277320038983829

> <i_epik_Tot_Q>
-2

> <i_epik_Tot_abs_Q>
2

$$$$
