2h65_ligand
                    3D
 Schrodinger Suite 2020-3.
 73 72  0  0  1  0            999 V2000
   22.3830   15.1160   48.1030 C   0  0  0  0  0  0
   21.4390   15.7720   47.7070 O   0  0  0  0  0  0
   22.1980   14.1880   49.2800 C   0  0  0  0  0  0
   23.6200   15.1790   47.4920 N   0  0  0  0  0  0
   23.7840   15.8400   46.1940 C   0  0  2  0  0  0
   23.4200   14.8960   45.0550 C   0  0  0  0  0  0
   23.2870   13.6840   45.2480 O   0  0  0  0  0  0
   25.2560   16.2940   45.9980 C   0  0  0  0  0  0
   25.6760   17.2440   47.1110 C   0  0  0  0  0  0
   26.1670   15.0810   45.9560 C   0  0  0  0  0  0
   23.2630   15.4590   43.8650 N   0  0  0  0  0  0
   22.9250   14.6730   42.6950 C   0  0  2  0  0  0
   24.1810   14.4130   41.8730 C   0  0  0  0  0  0
   25.0250   15.2920   41.7170 O   0  0  0  0  0  0
   21.8810   15.4220   41.8730 C   0  0  0  0  0  0
   20.6000   15.6790   42.6600 C   0  0  0  0  0  0
   19.9780   14.6840   43.1200 O   0  5  0  0  0  0
   20.2160   16.8680   42.8240 O   0  0  0  0  0  0
   24.3160   13.1960   41.3640 N   0  0  0  0  0  0
   25.4700   12.8470   40.5520 C   0  0  2  0  0  0
   24.9970   12.2030   39.2580 C   0  0  0  0  0  0
   23.8870   11.6870   39.1900 O   0  0  0  0  0  0
   26.4160   11.8900   41.3100 C   0  0  0  0  0  0
   27.0100   12.6010   42.5220 C   0  0  0  0  0  0
   25.6640   10.6500   41.7560 C   0  0  0  0  0  0
   25.8400   12.2450   38.2330 N   0  0  0  0  0  0
   25.4810   11.6810   36.9430 C   0  0  2  0  0  0
   25.8120   10.1970   36.8530 C   0  0  0  0  0  0
   26.6060    9.6800   37.6350 O   0  0  0  0  0  0
   26.1730   12.4450   35.8340 C   0  0  0  0  0  0
   25.1610    9.5190   35.9120 N   0  0  0  0  0  0
   25.3630    8.0930   35.6700 C   0  0  2  0  0  0
   25.8750    7.8790   34.2340 C   0  0  0  0  0  0
   25.8190    6.4900   33.8680 O   0  0  0  0  0  0
   24.0390    7.3380   35.8430 C   0  0  0  0  0  0
   23.9810    6.5340   37.1300 C   0  0  0  0  0  0
   25.0250    6.0260   37.5850 O   0  5  0  0  0  0
   22.8770    6.4020   37.6910 O   0  0  0  0  0  0
   21.1626   14.2598   49.6443 H   0  0  0  0  0  0
   22.8907   14.4744   50.0851 H   0  0  0  0  0  0
   22.4060   13.1539   48.9678 H   0  0  0  0  0  0
   24.4885   14.7252   47.9917 H   0  0  0  0  0  0
   23.0866   16.6903   46.2213 H   0  0  0  0  0  0
   25.3620   16.8332   45.0451 H   0  0  0  0  0  0
   25.0036   18.1144   47.1233 H   0  0  0  0  0  0
   26.7084   17.5807   46.9356 H   0  0  0  0  0  0
   25.6195   16.7233   48.0783 H   0  0  0  0  0  0
   25.8461   14.4093   45.1462 H   0  0  0  0  0  0
   26.1132   14.5486   46.9171 H   0  0  0  0  0  0
   27.2021   15.4060   45.7743 H   0  0  0  0  0  0
   23.3949   16.5475   43.7770 H   0  0  0  0  0  0
   22.5127   13.7171   43.0504 H   0  0  0  0  0  0
   22.2893   16.3943   41.5600 H   0  0  0  0  0  0
   21.6211   14.8299   40.9832 H   0  0  0  0  0  0
   23.5374   12.4453   41.5647 H   0  0  0  0  0  0
   25.9860   13.7957   40.3429 H   0  0  0  0  0  0
   27.2325   11.5734   40.6444 H   0  0  0  0  0  0
   27.5533   13.4983   42.1908 H   0  0  0  0  0  0
   27.7036   11.9232   43.0412 H   0  0  0  0  0  0
   26.2015   12.8941   43.2078 H   0  0  0  0  0  0
   25.2389   10.1431   40.8772 H   0  0  0  0  0  0
   24.8529   10.9394   42.4404 H   0  0  0  0  0  0
   26.3550    9.9685   42.2738 H   0  0  0  0  0  0
   26.8240   12.7166   38.3725 H   0  0  0  0  0  0
   24.3903   11.8041   36.8712 H   0  0  0  0  0  0
   25.9235   13.5134   35.9138 H   0  0  0  0  0  0
   25.8365   12.0617   34.8594 H   0  0  0  0  0  0
   27.2616   12.3150   35.9232 H   0  0  0  0  0  0
   24.4416   10.0841   35.3011 H   0  0  0  0  0  0
   26.1018    7.7600   36.4139 H   0  0  0  0  0  0
   26.2501    8.6225   33.5153 H   0  0  0  0  0  0
   23.2065    8.0568   35.8592 H   0  0  0  0  0  0
   23.9034    6.6387   35.0048 H   0  0  0  0  0  0
  1  2  2  0  0  0
  1  3  1  0  0  0
  1  4  1  0  0  0
  3 39  1  0  0  0
  3 40  1  0  0  0
  3 41  1  0  0  0
  4  5  1  0  0  0
  4 42  1  0  0  0
  5  6  1  0  0  0
  5  8  1  0  0  0
  5 43  1  0  0  0
  6  7  2  0  0  0
  6 11  1  0  0  0
  8  9  1  0  0  0
  8 10  1  0  0  0
  8 44  1  0  0  0
  9 45  1  0  0  0
  9 46  1  0  0  0
  9 47  1  0  0  0
 10 48  1  0  0  0
 10 49  1  0  0  0
 10 50  1  0  0  0
 11 12  1  0  0  0
 11 51  1  0  0  0
 12 13  1  0  0  0
 12 15  1  0  0  0
 12 52  1  0  0  0
 13 14  2  0  0  0
 13 19  1  0  0  0
 15 16  1  0  0  0
 15 53  1  0  0  0
 15 54  1  0  0  0
 16 17  1  0  0  0
 16 18  2  0  0  0
 19 20  1  0  0  0
 19 55  1  0  0  0
 20 21  1  0  0  0
 20 23  1  0  0  0
 20 56  1  0  0  0
 21 22  2  0  0  0
 21 26  1  0  0  0
 23 24  1  0  0  0
 23 25  1  0  0  0
 23 57  1  0  0  0
 24 58  1  0  0  0
 24 59  1  0  0  0
 24 60  1  0  0  0
 25 61  1  0  0  0
 25 62  1  0  0  0
 25 63  1  0  0  0
 26 27  1  0  0  0
 26 64  1  0  0  0
 27 28  1  0  0  0
 27 30  1  0  0  0
 27 65  1  0  0  0
 28 29  2  0  0  0
 28 31  1  0  0  0
 30 66  1  0  0  0
 30 67  1  0  0  0
 30 68  1  0  0  0
 31 32  1  0  0  0
 31 69  1  0  0  0
 32 33  1  0  0  0
 32 35  1  0  0  0
 32 70  1  0  0  0
 33 34  2  0  0  0
 33 71  1  0  0  0
 35 36  1  0  0  0
 35 72  1  0  0  0
 35 73  1  0  0  0
 36 37  1  0  0  0
 36 38  2  0  0  0
M  CHG  2  17  -1  37  -1
M  END
> <s_m_source_file>
../2h65_ligand.sdf

> <i_m_source_file_index>
1

> <s_epik_input>
Tz1DKFtDSDNdKVtOSF1bQ0BASF0oW0NIXShbQ0gzXSlbQ0gzXSlDKD1PKVtOSF1bQ0BASF0oW0NIMl1DKD1PKVtPSF0pQyg9TylbTkhdW0NAQEhdKFtDSF0oW0NIM10pW0NIM10pQyg9TylbTkhdW0NAQEhdKFtDSDNdKUMoPU8pW05IXVtDQEhdKFtDSF09TylbQ0gyXUMoPU8pW09IXQ==

> <s_epik_cmdline>
J2VwaWtfYXBwJywgJy1pbWFlJywgJ2xpZ2FuZF9wcm8ubWFlJywgJy1vbWFlJywgJ2xpZ2FuZF9wcmVwLm1hZScsICctbXMnLCAnMScsICctcGgnLCAnNycsICctcGh0JywgJzAuNScsICctbnQn

> <r_lp_tautomer_probability>
1

> <r_epik_Ionization_Penalty>
  0.0021

> <r_epik_Ionization_Penalty_Charging>
  0.0019

> <r_epik_Ionization_Penalty_Neutral>
  0.0001

> <r_epik_State_Penalty>
 -0.0000

> <r_epik_Charging_Adjusted_Penalty>
0.00192802334787121

> <i_epik_Tot_Q>
-2

> <i_epik_Tot_abs_Q>
2

$$$$
