2h6b_ligand
                    3D
 Schrodinger Suite 2020-3.
 18 18  0  0  1  0            999 V2000
   60.5330   83.3660   11.3130 O   0  0  0  0  0  0
   61.4870   83.2680   12.1480 C   0  0  0  0  0  0
   62.5310   82.5720   11.9040 O   0  5  0  0  0  0
   61.2990   84.0550   13.4320 C   0  0  0  0  0  0
   62.4180   83.8990   14.4920 C   0  0  0  0  0  0
   63.6360   84.4950   14.3050 C   0  0  0  0  0  0
   64.6000   84.4000   15.1460 C   0  0  0  0  0  0
   64.5040   83.6120   16.3990 C   0  0  0  0  0  0
   65.5260   83.4780   17.3610 O   0  0  0  0  0  0
   62.7560   82.0230   17.9910 Cl  0  0  0  0  0  0
   63.1470   82.9630   16.5560 C   0  0  0  0  0  0
   62.1830   83.1490   15.6160 C   0  0  0  0  0  0
   61.2453   85.1288   13.1994 H   0  0  0  0  0  0
   60.3665   83.7390   13.9225 H   0  0  0  0  0  0
   63.7944   85.0783   13.3979 H   0  0  0  0  0  0
   65.5321   84.9221   14.9300 H   0  0  0  0  0  0
   66.4977   83.9689   17.2032 H   0  0  0  0  0  0
   61.2033   82.6929   15.7584 H   0  0  0  0  0  0
  1  2  2  0  0  0
  2  3  1  0  0  0
  2  4  1  0  0  0
  4  5  1  0  0  0
  4 13  1  0  0  0
  4 14  1  0  0  0
  5  6  2  0  0  0
  5 12  1  0  0  0
  6  7  1  0  0  0
  6 15  1  0  0  0
  7  8  2  0  0  0
  7 16  1  0  0  0
  8  9  1  0  0  0
  8 11  1  0  0  0
  9 17  1  0  0  0
 10 11  1  0  0  0
 11 12  2  0  0  0
 12 18  1  0  0  0
M  CHG  1   3  -1
M  END
> <s_m_source_file>
../2h6b_ligand.sdf

> <i_m_source_file_index>
1

> <s_epik_input>
Tz1DKFtPSF0pW0NIMl1jMVtjSF1bY0hdYyhbT0hdKWMoQ2wpW2NIXTE=

> <s_epik_cmdline>
J2VwaWtfYXBwJywgJy1pbWFlJywgJ2xpZ2FuZF9wcm8ubWFlJywgJy1vbWFlJywgJ2xpZ2FuZF9wcmVwLm1hZScsICctbXMnLCAnMScsICctcGgnLCAnNycsICctcGh0JywgJzAuNScsICctbnQn

> <r_lp_tautomer_probability>
0.999999999997365

> <r_epik_Ionization_Penalty>
  0.0156

> <r_epik_Ionization_Penalty_Charging>
  0.0012

> <r_epik_Ionization_Penalty_Neutral>
  0.0144

> <r_epik_State_Penalty>
  0.0113

> <r_epik_Charging_Adjusted_Penalty>
0.0124703283906892

> <i_epik_Tot_Q>
-1

> <i_epik_Tot_abs_Q>
1

$$$$
