2h6k_ligand
                    3D
 Schrodinger Suite 2020-3.
162161  0  0  1  0            999 V2000
    4.4440    6.3190   46.0610 N   0  3  0  0  0  0
    5.8440    5.8260   46.0840 C   0  0  2  0  0  0
    6.4940    5.9250   44.7130 C   0  0  0  0  0  0
    7.6810    6.2090   44.6460 O   0  0  0  0  0  0
    5.9210    4.3640   46.6060 C   0  0  0  0  0  0
    5.7490    5.6870   43.6240 N   0  0  0  0  0  0
    6.3910    5.5690   42.2910 C   0  0  2  0  0  0
    7.1680    6.8310   41.9320 C   0  0  0  0  0  0
    8.1750    6.7840   41.2120 O   0  0  0  0  0  0
    5.3590    5.2630   41.1900 C   0  0  0  0  0  0
    5.9540    5.1210   39.7960 C   0  0  0  0  0  0
    4.8830    4.8390   38.7180 C   0  0  0  0  0  0
    4.0680    3.6370   38.9660 N   0  0  0  0  0  0
    4.3290    2.4220   38.4830 C   0  0  0  0  0  0
    5.4090    2.2050   37.7350 N   0  0  0  0  0  0
    3.4980    1.4190   38.7390 N   0  0  0  0  0  0
    6.7230    7.9580   42.4680 N   0  0  0  0  0  0
    7.3400    9.2490   42.1500 C   0  0  2  0  0  0
    8.6290    9.5030   42.9420 C   0  0  0  0  0  0
    9.2830   10.5460   42.7620 O   0  0  0  0  0  0
    6.3460   10.4200   42.3430 C   0  0  2  0  0  0
    5.9820   10.5170   43.7190 O   0  0  0  0  0  0
    5.0870   10.2280   41.5000 C   0  0  0  0  0  0
    9.0030    8.5440   43.7930 N   0  0  0  0  0  0
   10.2400    8.6090   44.5850 C   0  0  1  0  0  0
    9.9000    8.5460   46.0670 C   0  0  0  0  0  0
    9.2570    9.8540   46.5280 C   0  0  0  0  0  0
    8.8880    9.7460   48.0010 C   0  0  0  0  0  0
    7.9920   10.9020   48.4330 C   0  0  0  0  0  0
    7.4310   10.6910   49.7590 N   0  3  0  0  0  0
    6.2660    9.8260   49.9140 C   0  0  0  0  0  0
   11.1300    7.4520   44.2120 C   0  0  0  0  0  0
   10.6380    6.4280   43.7570 O   0  0  0  0  0  0
   12.4410    7.5940   44.3850 N   0  0  0  0  0  0
   13.3600    6.4900   44.0910 C   0  0  2  0  0  0
   13.3990    5.5160   45.2680 C   0  0  0  0  0  0
   13.6780    5.9260   46.3920 O   0  0  0  0  0  0
   14.7730    7.0140   43.8670 C   0  0  0  0  0  0
   14.8630    8.1690   42.9260 C   0  0  0  0  0  0
   16.2570    8.6990   42.8300 C   0  0  0  0  0  0
   17.2270    7.9750   43.0840 O   0  0  0  0  0  0
   16.3820    9.9670   42.4450 N   0  0  0  0  0  0
   13.1280    4.2360   45.0080 N   0  0  0  0  0  0
   13.0460    3.2300   46.0800 C   0  0  2  0  0  0
   13.8290    1.9490   45.7780 C   0  0  0  0  0  0
   13.7010    0.9530   46.4940 O   0  0  0  0  0  0
   11.5800    2.8210   46.3780 C   0  0  2  0  0  0
   10.9290    2.4240   45.1610 O   0  0  0  0  0  0
   10.7920    3.9730   47.0560 C   0  0  0  0  0  0
   14.6380    1.9570   44.7240 N   0  0  0  0  0  0
   15.3290    0.7260   44.3370 C   0  0  2  0  0  0
   16.8320    0.7540   44.5690 C   0  0  0  0  0  0
   17.4630    1.8100   44.4950 O   0  0  0  0  0  0
   15.0310    0.3960   42.8900 C   0  0  0  0  0  0
   17.4030   -0.4220   44.8270 N   0  0  0  0  0  0
   18.8560   -0.5910   44.7590 C   0  0  2  0  0  0
   19.3310   -0.2650   43.3360 C   0  0  0  0  0  0
   18.5160   -0.1710   42.3960 O   0  0  0  0  0  0
   19.2570   -2.0240   45.1190 C   0  0  0  0  0  0
   18.6210   -3.0580   44.2300 C   0  0  0  0  0  0
   19.0910   -4.4550   44.5460 C   0  0  0  0  0  0
   18.3750   -5.4450   43.7370 N   0  0  0  0  0  0
   18.8550   -6.0120   42.6320 C   0  0  0  0  0  0
   20.0730   -5.6970   42.1910 N   0  0  0  0  0  0
   18.1200   -6.9030   41.9720 N   0  0  0  0  0  0
   20.6430   -0.1040   43.1830 N   0  0  0  0  0  0
   21.2480    0.1920   41.8890 C   0  0  2  0  0  0
   20.9610   -0.9260   40.8830 C   0  0  0  0  0  0
   21.1590   -2.1160   41.1700 O   0  0  0  0  0  0
   22.7570    0.4130   42.0500 C   0  0  0  0  0  0
   23.3860    1.2350   40.9350 C   0  0  0  0  0  0
   24.5720    2.0820   41.4340 C   0  0  0  0  0  0
   25.7100    1.2260   41.9700 C   0  0  0  0  0  0
   26.9270    2.0480   42.2290 N   0  3  0  0  0  0
   20.5140   -0.6540   39.7640 O   0  0  0  0  0  0
    4.4257    7.3535   45.6876 H   0  0  0  0  0  0
    4.0280    6.2891   47.0789 H   0  0  0  0  0  0
    3.8410    5.6797   45.3995 H   0  0  0  0  0  0
    6.3714    6.5078   46.7674 H   0  0  0  0  0  0
    5.4485    4.3033   47.5975 H   0  0  0  0  0  0
    6.9745    4.0570   46.6825 H   0  0  0  0  0  0
    5.3945    3.6971   45.9074 H   0  0  0  0  0  0
    4.6586    5.5791   43.7208 H   0  0  0  0  0  0
    7.0932    4.7282   42.3904 H   0  0  0  0  0  0
    4.8476    4.3165   41.4196 H   0  0  0  0  0  0
    4.6204    6.0768   41.1433 H   0  0  0  0  0  0
    6.4719    6.0519   39.5218 H   0  0  0  0  0  0
    6.6705    4.2864   39.7864 H   0  0  0  0  0  0
    4.1883    5.6899   38.6599 H   0  0  0  0  0  0
    5.3724    4.6979   37.7430 H   0  0  0  0  0  0
    3.1663    3.7035   39.5926 H   0  0  0  0  0  0
    6.1028    3.0306   37.5181 H   0  0  0  0  0  0
    5.6075    1.2001   37.3340 H   0  0  0  0  0  0
    2.6035    1.5897   39.3560 H   0  0  0  0  0  0
    5.8727    7.9114   43.1643 H   0  0  0  0  0  0
    7.6026    9.1397   41.0874 H   0  0  0  0  0  0
    6.8219   11.3778   42.0858 H   0  0  0  0  0  0
    6.7589   10.6586   44.4848 H   0  0  0  0  0  0
    5.3646   10.1529   40.4383 H   0  0  0  0  0  0
    4.4152   11.0871   41.6434 H   0  0  0  0  0  0
    4.5745    9.3058   41.8112 H   0  0  0  0  0  0
    8.3351    7.6750   43.8865 H   0  0  0  0  0  0
   10.7468    9.5569   44.3512 H   0  0  0  0  0  0
    9.1959    7.7202   46.2469 H   0  0  0  0  0  0
   10.8191    8.3771   46.6472 H   0  0  0  0  0  0
    9.9680   10.6815   46.3877 H   0  0  0  0  0  0
    8.3501   10.0455   45.9357 H   0  0  0  0  0  0
    8.3509    8.8022   48.1762 H   0  0  0  0  0  0
    9.8034    9.7656   48.6107 H   0  0  0  0  0  0
    8.5780   11.8327   48.4522 H   0  0  0  0  0  0
    7.1602   11.0071   47.7210 H   0  0  0  0  0  0
    8.1930   10.2407   50.4121 H   0  0  0  0  0  0
    7.1114   11.6558   50.1797 H   0  0  0  0  0  0
    5.9805    9.7821   50.9754 H   0  0  0  0  0  0
    6.5105    8.8144   49.5579 H   0  0  0  0  0  0
    5.4288   10.2295   49.3255 H   0  0  0  0  0  0
   12.8337    8.5533   44.7531 H   0  0  0  0  0  0
   12.9706    6.0122   43.1799 H   0  0  0  0  0  0
   15.1961    7.3488   44.8256 H   0  0  0  0  0  0
   15.3997    6.2120   43.4497 H   0  0  0  0  0  0
   14.5449    7.8500   41.9225 H   0  0  0  0  0  0
   14.2085    8.9802   43.2775 H   0  0  0  0  0  0
   15.4857   10.5678   42.2312 H   0  0  0  0  0  0
   17.3816   10.4141   42.3406 H   0  0  0  0  0  0
   12.9640    3.9393   43.9616 H   0  0  0  0  0  0
   13.5150    3.7638   46.9197 H   0  0  0  0  0  0
   11.5593    1.9281   47.0201 H   0  0  0  0  0  0
   11.3541    1.6153   44.5484 H   0  0  0  0  0  0
   11.3005    4.2674   47.9859 H   0  0  0  0  0  0
    9.7720    3.6327   47.2878 H   0  0  0  0  0  0
   10.7449    4.8355   46.3749 H   0  0  0  0  0  0
   14.7904    2.8790   44.1437 H   0  0  0  0  0  0
   14.9091   -0.0330   45.0135 H   0  0  0  0  0  0
   13.9422    0.3787   42.7346 H   0  0  0  0  0  0
   15.4522   -0.5901   42.6446 H   0  0  0  0  0  0
   15.4821    1.1597   42.2394 H   0  0  0  0  0  0
   16.7620   -1.2749   45.0950 H   0  0  0  0  0  0
   19.2836    0.1042   45.4964 H   0  0  0  0  0  0
   20.3478   -2.1333   45.0283 H   0  0  0  0  0  0
   18.9515   -2.2415   46.1531 H   0  0  0  0  0  0
   17.5289   -3.0300   44.3582 H   0  0  0  0  0  0
   18.8726   -2.8442   43.1807 H   0  0  0  0  0  0
   20.1671   -4.5368   44.3329 H   0  0  0  0  0  0
   18.9103   -4.6709   45.6094 H   0  0  0  0  0  0
   17.3657   -5.7691   44.0307 H   0  0  0  0  0  0
   20.6818   -4.9604   42.7358 H   0  0  0  0  0  0
   20.4692   -6.1737   41.2823 H   0  0  0  0  0  0
   17.1148   -7.1638   42.3348 H   0  0  0  0  0  0
   21.2765   -0.2017   44.0769 H   0  0  0  0  0  0
   20.7688    1.1187   41.5402 H   0  0  0  0  0  0
   20.9457   -2.9027   40.4314 H   0  0  0  0  0  0
   22.9511    0.9444   42.9934 H   0  0  0  0  0  0
   23.2705   -0.5597   42.0647 H   0  0  0  0  0  0
   23.7546    0.5622   40.1467 H   0  0  0  0  0  0
   22.6332    1.9168   40.5127 H   0  0  0  0  0  0
   24.9643    2.6883   40.6043 H   0  0  0  0  0  0
   24.2341    2.7446   42.2445 H   0  0  0  0  0  0
   25.3995    0.7519   42.9128 H   0  0  0  0  0  0
   25.9619    0.4482   41.2340 H   0  0  0  0  0  0
   27.7300    1.4027   42.6147 H   0  0  0  0  0  0
   26.6931    2.8256   42.9711 H   0  0  0  0  0  0
   27.2555    2.5220   41.2923 H   0  0  0  0  0  0
  1  2  1  0  0  0
  1 76  1  0  0  0
  1 77  1  0  0  0
  1 78  1  0  0  0
  2  3  1  0  0  0
  2  5  1  0  0  0
  2 79  1  0  0  0
  3  4  2  0  0  0
  3  6  1  0  0  0
  5 80  1  0  0  0
  5 81  1  0  0  0
  5 82  1  0  0  0
  6  7  1  0  0  0
  6 83  1  0  0  0
  7  8  1  0  0  0
  7 10  1  0  0  0
  7 84  1  0  0  0
  8  9  2  0  0  0
  8 17  1  0  0  0
 10 11  1  0  0  0
 10 85  1  0  0  0
 10 86  1  0  0  0
 11 12  1  0  0  0
 11 87  1  0  0  0
 11 88  1  0  0  0
 12 13  1  0  0  0
 12 89  1  0  0  0
 12 90  1  0  0  0
 13 14  1  0  0  0
 13 91  1  0  0  0
 14 15  1  0  0  0
 14 16  2  0  0  0
 15 92  1  0  0  0
 15 93  1  0  0  0
 16 94  1  0  0  0
 17 18  1  0  0  0
 17 95  1  0  0  0
 18 19  1  0  0  0
 18 21  1  0  0  0
 18 96  1  0  0  0
 19 20  2  0  0  0
 19 24  1  0  0  0
 21 22  1  0  0  0
 21 23  1  0  0  0
 21 97  1  0  0  0
 22 98  1  0  0  0
 23 99  1  0  0  0
 23100  1  0  0  0
 23101  1  0  0  0
 24 25  1  0  0  0
 24102  1  0  0  0
 25 26  1  0  0  0
 25 32  1  0  0  0
 25103  1  0  0  0
 26 27  1  0  0  0
 26104  1  0  0  0
 26105  1  0  0  0
 27 28  1  0  0  0
 27106  1  0  0  0
 27107  1  0  0  0
 28 29  1  0  0  0
 28108  1  0  0  0
 28109  1  0  0  0
 29 30  1  0  0  0
 29110  1  0  0  0
 29111  1  0  0  0
 30 31  1  0  0  0
 30112  1  0  0  0
 30113  1  0  0  0
 31114  1  0  0  0
 31115  1  0  0  0
 31116  1  0  0  0
 32 33  2  0  0  0
 32 34  1  0  0  0
 34 35  1  0  0  0
 34117  1  0  0  0
 35 36  1  0  0  0
 35 38  1  0  0  0
 35118  1  0  0  0
 36 37  2  0  0  0
 36 43  1  0  0  0
 38 39  1  0  0  0
 38119  1  0  0  0
 38120  1  0  0  0
 39 40  1  0  0  0
 39121  1  0  0  0
 39122  1  0  0  0
 40 41  2  0  0  0
 40 42  1  0  0  0
 42123  1  0  0  0
 42124  1  0  0  0
 43 44  1  0  0  0
 43125  1  0  0  0
 44 45  1  0  0  0
 44 47  1  0  0  0
 44126  1  0  0  0
 45 46  2  0  0  0
 45 50  1  0  0  0
 47 48  1  0  0  0
 47 49  1  0  0  0
 47127  1  0  0  0
 48128  1  0  0  0
 49129  1  0  0  0
 49130  1  0  0  0
 49131  1  0  0  0
 50 51  1  0  0  0
 50132  1  0  0  0
 51 52  1  0  0  0
 51 54  1  0  0  0
 51133  1  0  0  0
 52 53  2  0  0  0
 52 55  1  0  0  0
 54134  1  0  0  0
 54135  1  0  0  0
 54136  1  0  0  0
 55 56  1  0  0  0
 55137  1  0  0  0
 56 57  1  0  0  0
 56 59  1  0  0  0
 56138  1  0  0  0
 57 58  2  0  0  0
 57 66  1  0  0  0
 59 60  1  0  0  0
 59139  1  0  0  0
 59140  1  0  0  0
 60 61  1  0  0  0
 60141  1  0  0  0
 60142  1  0  0  0
 61 62  1  0  0  0
 61143  1  0  0  0
 61144  1  0  0  0
 62 63  1  0  0  0
 62145  1  0  0  0
 63 64  1  0  0  0
 63 65  2  0  0  0
 64146  1  0  0  0
 64147  1  0  0  0
 65148  1  0  0  0
 66 67  1  0  0  0
 66149  1  0  0  0
 67 68  1  0  0  0
 67 70  1  0  0  0
 67150  1  0  0  0
 68 69  1  0  0  0
 68 75  2  0  0  0
 69151  1  0  0  0
 70 71  1  0  0  0
 70152  1  0  0  0
 70153  1  0  0  0
 71 72  1  0  0  0
 71154  1  0  0  0
 71155  1  0  0  0
 72 73  1  0  0  0
 72156  1  0  0  0
 72157  1  0  0  0
 73 74  1  0  0  0
 73158  1  0  0  0
 73159  1  0  0  0
 74160  1  0  0  0
 74161  1  0  0  0
 74162  1  0  0  0
M  CHG  3   1   1  30   1  74   1
M  END
> <s_m_source_file>
../2h6k_ligand.sdf

> <i_m_source_file_index>
1

> <s_epik_input>
W0hdL049QyhbTkgyXSlcW05IXVtDSDJdW0NIMl1bQ0gyXVtDQEhdKFtOSF1DKD1PKVtDQEBIXShbTkgzK10pW0NIM10pQyg9TylbTkhdW0NAQEhdKFtDQEhdKFtPSF0pW0NIM10pQyg9TylbTkhdW0NAQEhdKFtDSDJdW0NIMl1bQ0gyXVtDSDJdW05IMitdW0NIM10pQyg9TylbTkhdW0NAQEhdKFtDSDJdW0NIMl1DKD1PKVtOSDJdKUMoPU8pW05IXVtDQEBIXShbQ0BIXShbT0hdKVtDSDNdKUMoPU8pW05IXVtDQEBIXShbQ0gzXSlDKD1PKVtOSF1bQ0BASF0oW0NIMl1bQ0gyXVtDSDJdW05IXS9DKFtOSDJdKT1OXFtIXSlDKD1PKVtOSF1bQ0BIXShDKD1PKVtPSF0pW0NIMl1bQ0gyXVtDSDJdW0NIMl1bTkgzK10=

> <s_epik_cmdline>
J2VwaWtfYXBwJywgJy1pbWFlJywgJ2xpZ2FuZF9wcm8ubWFlJywgJy1vbWFlJywgJ2xpZ2FuZF9wcmVwLm1hZScsICctbXMnLCAnMScsICctcGgnLCAnNycsICctcGh0JywgJzAuNScsICctbnQn

> <s_epik_pKa_notes>
Molecule size exceeds maximum supported for generating protonation states

> <s_epik_Chemistry_Notes>
This compound has an imine and may undergo hydrolysis.

$$$$
