2h6q_ligand
                    3D
 Schrodinger Suite 2020-3.
123122  0  0  1  0            999 V2000
    4.7450    6.1730   46.0520 N   0  3  0  0  0  0
    6.1310    5.6240   46.0130 C   0  0  2  0  0  0
    6.7390    5.7210   44.6130 C   0  0  0  0  0  0
    7.9440    5.9280   44.4790 O   0  0  0  0  0  0
    6.1450    4.1690   46.4950 C   0  0  0  0  0  0
    5.9150    5.5830   43.5710 N   0  0  0  0  0  0
    6.4470    5.5700   42.2080 C   0  0  2  0  0  0
    7.2030    6.8570   41.8530 C   0  0  0  0  0  0
    8.1140    6.8360   41.0350 O   0  0  0  0  0  0
    5.3430    5.3070   41.1750 C   0  0  0  0  0  0
    5.9150    5.0820   39.7630 C   0  0  0  0  0  0
    4.8320    4.7980   38.7220 C   0  0  0  0  0  0
    4.0240    3.6160   39.0380 N   0  0  0  0  0  0
    4.2430    2.3860   38.5520 C   0  0  0  0  0  0
    5.2710    2.1360   37.7180 N   0  0  0  0  0  0
    3.4250    1.3950   38.8950 N   0  3  0  0  0  0
    6.8320    7.9670   42.4710 N   0  0  0  0  0  0
    7.4010    9.2700   42.0740 C   0  0  2  0  0  0
    8.7180    9.6170   42.7900 C   0  0  0  0  0  0
    9.3070   10.6880   42.5570 O   0  0  0  0  0  0
    6.3730   10.4180   42.2530 C   0  0  2  0  0  0
    6.0790   10.5510   43.6360 O   0  0  0  0  0  0
    5.0590   10.1550   41.4750 C   0  0  0  0  0  0
    9.1810    8.7170   43.6520 N   0  0  0  0  0  0
   10.5230    8.8330   44.2560 C   0  0  1  0  0  0
   10.3560    8.8710   45.7660 C   0  0  0  0  0  0
    9.5100   10.0750   46.1800 C   0  0  0  0  0  0
   10.1750   11.4040   45.8040 C   0  0  0  0  0  0
    9.3280   12.5920   46.2880 C   0  0  0  0  0  0
    9.6800   13.8800   45.6510 N   0  3  0  0  0  0
   11.3990    7.6700   43.8530 C   0  0  0  0  0  0
   10.9030    6.6800   43.3130 O   0  0  0  0  0  0
   11.1380   14.1480   45.6860 C   0  0  0  0  0  0
    9.0180   14.9920   46.3650 C   0  0  0  0  0  0
    9.2100   13.8320   44.2500 C   0  0  0  0  0  0
   12.7010    7.7490   44.1080 N   0  0  0  0  0  0
   13.5880    6.6510   43.7410 C   0  0  2  0  0  0
   13.6950    5.7300   44.9340 C   0  0  0  0  0  0
   14.0650    6.1740   46.0270 O   0  0  0  0  0  0
   14.9750    7.1570   43.3600 C   0  0  0  0  0  0
   14.9850    8.2540   42.3570 C   0  0  0  0  0  0
   16.3520    8.8710   42.1940 C   0  0  0  0  0  0
   17.3770    8.2090   42.3850 O   0  0  0  0  0  0
   16.3800   10.1540   41.8390 N   0  0  0  0  0  0
   13.3410    4.4640   44.7320 N   0  0  0  0  0  0
   13.2960    3.4770   45.8190 C   0  0  2  0  0  0
   14.1430    2.2340   45.5340 C   0  0  0  0  0  0
   14.1720    1.2840   46.3320 O   0  0  0  0  0  0
   11.8400    3.0390   46.0960 C   0  0  2  0  0  0
   11.2400    2.6010   44.8670 O   0  0  0  0  0  0
   11.0160    4.2070   46.6770 C   0  0  0  0  0  0
   14.8340    2.2350   44.4030 N   0  0  0  0  0  0
   15.5700    1.0530   43.9860 C   0  0  2  0  0  0
   17.0200    1.1680   44.4200 C   0  0  0  0  0  0
   17.4420    2.2700   44.7820 O   0  0  0  0  0  0
   15.4700    0.8750   42.4980 C   0  0  0  0  0  0
   17.7764    0.1604   44.4109 O   0  5  0  0  0  0
    4.7539    7.2163   45.7034 H   0  0  0  0  0  0
    4.3642    6.1342   47.0832 H   0  0  0  0  0  0
    4.0946    5.5734   45.3982 H   0  0  0  0  0  0
    6.7237    6.2516   46.6949 H   0  0  0  0  0  0
    5.7057    4.1121   47.5019 H   0  0  0  0  0  0
    7.1819    3.8030   46.5261 H   0  0  0  0  0  0
    5.5575    3.5478   45.8029 H   0  0  0  0  0  0
    4.8331    5.4789   43.7401 H   0  0  0  0  0  0
    7.1586    4.7314   42.2282 H   0  0  0  0  0  0
    4.7775    4.4086   41.4634 H   0  0  0  0  0  0
    4.6636    6.1712   41.1364 H   0  0  0  0  0  0
    6.4619    5.9806   39.4415 H   0  0  0  0  0  0
    6.6001    4.2215   39.7777 H   0  0  0  0  0  0
    4.1505    5.6591   38.6576 H   0  0  0  0  0  0
    5.3012    4.6277   37.7418 H   0  0  0  0  0  0
    3.1656    3.7029   39.7204 H   0  0  0  0  0  0
    5.9537    2.9482   37.4277 H   0  0  0  0  0  0
    5.4277    1.1197   37.3273 H   0  0  0  0  0  0
    2.5824    1.5878   39.5753 H   0  0  0  0  0  0
    6.0945    7.9141   43.2854 H   0  0  0  0  0  0
    7.6316    9.1119   41.0101 H   0  0  0  0  0  0
    6.8080   11.3765   41.9335 H   0  0  0  0  0  0
    6.8895   10.7426   44.3546 H   0  0  0  0  0  0
    5.2822   10.0513   40.4029 H   0  0  0  0  0  0
    4.3685   10.9979   41.6260 H   0  0  0  0  0  0
    4.5935    9.2291   41.8439 H   0  0  0  0  0  0
    8.5325    7.8674   43.9119 H   0  0  0  0  0  0
   10.9931    9.7547   43.8824 H   0  0  0  0  0  0
    9.8570    7.9504   46.1030 H   0  0  0  0  0  0
   11.3445    8.9477   46.2424 H   0  0  0  0  0  0
    8.5328   10.0267   45.6773 H   0  0  0  0  0  0
    9.3626   10.0622   47.2700 H   0  0  0  0  0  0
   11.1688   11.4621   46.2721 H   0  0  0  0  0  0
   10.2805   11.4649   44.7108 H   0  0  0  0  0  0
    8.2675   12.3999   46.0681 H   0  0  0  0  0  0
    9.4604   12.7190   47.3726 H   0  0  0  0  0  0
   11.4795   14.1821   46.7311 H   0  0  0  0  0  0
   11.3451   15.1133   45.2008 H   0  0  0  0  0  0
   11.6709   13.3474   45.1520 H   0  0  0  0  0  0
    9.3721   15.0217   47.4060 H   0  0  0  0  0  0
    7.9288   14.8389   46.3524 H   0  0  0  0  0  0
    9.2604   15.9428   45.8679 H   0  0  0  0  0  0
    9.7065   13.0026   43.7249 H   0  0  0  0  0  0
    9.4528   14.7808   43.7491 H   0  0  0  0  0  0
    8.1211   13.6769   44.2337 H   0  0  0  0  0  0
   13.1091    8.6457   44.5973 H   0  0  0  0  0  0
   13.1404    6.1473   42.8716 H   0  0  0  0  0  0
   15.4836    7.5423   44.2560 H   0  0  0  0  0  0
   15.5619    6.3310   42.9319 H   0  0  0  0  0  0
   14.6713    7.8596   41.3792 H   0  0  0  0  0  0
   14.2901    9.0460   42.6729 H   0  0  0  0  0  0
   15.4392   10.7014   41.6804 H   0  0  0  0  0  0
   17.3440   10.6665   41.7044 H   0  0  0  0  0  0
   13.0761    4.1657   43.7069 H   0  0  0  0  0  0
   13.7348    4.0170   46.6710 H   0  0  0  0  0  0
   11.8164    2.1769   46.7788 H   0  0  0  0  0  0
   11.6883    1.7709   44.3013 H   0  0  0  0  0  0
   11.4728    4.5452   47.6188 H   0  0  0  0  0  0
    9.9868    3.8697   46.8691 H   0  0  0  0  0  0
   11.0010    5.0388   45.9573 H   0  0  0  0  0  0
   14.8475    3.1402   43.7782 H   0  0  0  0  0  0
   15.0965    0.1901   44.4772 H   0  0  0  0  0  0
   14.4118    0.7943   42.2087 H   0  0  0  0  0  0
   16.0021   -0.0411   42.2017 H   0  0  0  0  0  0
   15.9229    1.7414   41.9938 H   0  0  0  0  0  0
    3.5910    0.3825   38.4984 H   0  0  0  0  0  0
  1  2  1  0  0  0
  1 58  1  0  0  0
  1 59  1  0  0  0
  1 60  1  0  0  0
  2  3  1  0  0  0
  2  5  1  0  0  0
  2 61  1  0  0  0
  3  4  2  0  0  0
  3  6  1  0  0  0
  5 62  1  0  0  0
  5 63  1  0  0  0
  5 64  1  0  0  0
  6  7  1  0  0  0
  6 65  1  0  0  0
  7  8  1  0  0  0
  7 10  1  0  0  0
  7 66  1  0  0  0
  8  9  2  0  0  0
  8 17  1  0  0  0
 10 11  1  0  0  0
 10 67  1  0  0  0
 10 68  1  0  0  0
 11 12  1  0  0  0
 11 69  1  0  0  0
 11 70  1  0  0  0
 12 13  1  0  0  0
 12 71  1  0  0  0
 12 72  1  0  0  0
 13 14  1  0  0  0
 13 73  1  0  0  0
 14 15  1  0  0  0
 14 16  2  0  0  0
 15 74  1  0  0  0
 15 75  1  0  0  0
 16 76  1  0  0  0
 16123  1  0  0  0
 17 18  1  0  0  0
 17 77  1  0  0  0
 18 19  1  0  0  0
 18 21  1  0  0  0
 18 78  1  0  0  0
 19 20  2  0  0  0
 19 24  1  0  0  0
 21 22  1  0  0  0
 21 23  1  0  0  0
 21 79  1  0  0  0
 22 80  1  0  0  0
 23 81  1  0  0  0
 23 82  1  0  0  0
 23 83  1  0  0  0
 24 25  1  0  0  0
 24 84  1  0  0  0
 25 26  1  0  0  0
 25 31  1  0  0  0
 25 85  1  0  0  0
 26 27  1  0  0  0
 26 86  1  0  0  0
 26 87  1  0  0  0
 27 28  1  0  0  0
 27 88  1  0  0  0
 27 89  1  0  0  0
 28 29  1  0  0  0
 28 90  1  0  0  0
 28 91  1  0  0  0
 29 30  1  0  0  0
 29 92  1  0  0  0
 29 93  1  0  0  0
 30 33  1  0  0  0
 30 34  1  0  0  0
 30 35  1  0  0  0
 31 32  2  0  0  0
 31 36  1  0  0  0
 33 94  1  0  0  0
 33 95  1  0  0  0
 33 96  1  0  0  0
 34 97  1  0  0  0
 34 98  1  0  0  0
 34 99  1  0  0  0
 35100  1  0  0  0
 35101  1  0  0  0
 35102  1  0  0  0
 36 37  1  0  0  0
 36103  1  0  0  0
 37 38  1  0  0  0
 37 40  1  0  0  0
 37104  1  0  0  0
 38 39  2  0  0  0
 38 45  1  0  0  0
 40 41  1  0  0  0
 40105  1  0  0  0
 40106  1  0  0  0
 41 42  1  0  0  0
 41107  1  0  0  0
 41108  1  0  0  0
 42 43  2  0  0  0
 42 44  1  0  0  0
 44109  1  0  0  0
 44110  1  0  0  0
 45 46  1  0  0  0
 45111  1  0  0  0
 46 47  1  0  0  0
 46 49  1  0  0  0
 46112  1  0  0  0
 47 48  2  0  0  0
 47 52  1  0  0  0
 49 50  1  0  0  0
 49 51  1  0  0  0
 49113  1  0  0  0
 50114  1  0  0  0
 51115  1  0  0  0
 51116  1  0  0  0
 51117  1  0  0  0
 52 53  1  0  0  0
 52118  1  0  0  0
 53 54  1  0  0  0
 53 56  1  0  0  0
 53119  1  0  0  0
 54 55  2  0  0  0
 54 57  1  0  0  0
 56120  1  0  0  0
 56121  1  0  0  0
 56122  1  0  0  0
M  CHG  4   1   1  16   1  30   1  57  -1
M  END
> <s_m_source_file>
../2h6q_ligand.sdf

> <i_m_source_file_index>
1

> <s_epik_input>
W0hdL049QyhbTkgyXSlcW05IXVtDSDJdW0NIMl1bQ0gyXVtDQEhdKFtOSF1DKD1PKVtDQEBIXShbTkgzK10pW0NIM10pQyg9TylbTkhdW0NAQEhdKFtDQEhdKFtPSF0pW0NIM10pQyg9TylbTkhdW0NAQEhdKFtDSDJdW0NIMl1bQ0gyXVtDSDJdW04rXShbQ0gzXSkoW0NIM10pW0NIM10pQyg9TylbTkhdW0NAQEhdKFtDSDJdW0NIMl1DKD1PKVtOSDJdKUMoPU8pW05IXVtDQEBIXShbQ0BIXShbT0hdKVtDSDNdKUMoPU8pW05IXVtDQEBIXShbQ0gzXSlDKD1PKVtPSF0=

> <s_epik_cmdline>
J2VwaWtfYXBwJywgJy1pbWFlJywgJ2xpZ2FuZF9wcm8ubWFlJywgJy1vbWFlJywgJ2xpZ2FuZF9wcmVwLm1hZScsICctbXMnLCAnMScsICctcGgnLCAnNycsICctcGh0JywgJzAuNScsICctbnQn

> <r_epik_Ionization_Penalty>
  0.1252

> <r_epik_Ionization_Penalty_Charging>
  0.1252

> <r_epik_Ionization_Penalty_Neutral>
  0.0000

> <r_epik_State_Penalty>
  0.1145

> <r_epik_Charging_Adjusted_Penalty>
0.239746464291294

> <i_epik_Tot_Q>
2

> <i_epik_Tot_abs_Q>
4

> <s_epik_Chemistry_Notes>
This compound has an imine and may undergo hydrolysis.

$$$$
