2h8h_ligand
                    3D
 Schrodinger Suite 2020-3.
 71 76  0  0  1  0            999 V2000
   27.1610   14.9190   60.1170 C   0  0  0  0  0  0
   27.1230   16.3700   59.8410 N   0  3  1  0  0  0
   26.4230   16.5910   58.5480 C   0  0  0  0  0  0
   26.3740   18.1100   58.2720 C   0  0  0  0  0  0
   25.7090   18.8430   59.3760 N   0  0  2  0  0  0
   26.0190   20.2400   59.1190 C   0  0  0  0  0  0
   24.7550   21.0440   58.8870 C   0  0  0  0  0  0
   23.6390   20.2030   59.0860 O   0  0  0  0  0  0
   22.5160   20.8860   58.7490 C   0  0  0  0  0  0
   21.3050   20.1870   58.7360 C   0  0  0  0  0  0
   20.1260   20.8250   58.3890 C   0  0  0  0  0  0
   18.9230   20.1760   58.3460 O   0  0  0  0  0  0
   18.8930   18.9970   59.1450 C   0  0  0  0  0  0
   17.6710   19.1530   60.0500 C   0  0  0  0  0  0
   17.2150   17.8250   60.6710 C   0  0  0  0  0  0
   17.1820   16.7620   59.7110 O   0  0  0  0  0  0
   18.3720   16.5510   58.9550 C   0  0  0  0  0  0
   18.7040   17.8370   58.1730 C   0  0  0  0  0  0
   20.1480   22.2020   58.0760 C   0  0  0  0  0  0
   18.9680   22.9450   57.7350 C   0  0  0  0  0  0
   17.7110   22.3300   57.6890 N   0  0  0  0  0  0
   16.5270   23.0070   57.2880 C   0  0  0  0  0  0
   16.4740   23.7090   56.0740 C   0  0  0  0  0  0
   17.3970   23.9430   55.0710 O   0  0  0  0  0  0
   16.9720   25.1470   54.4240 C   0  0  0  0  0  0
   15.5540   24.9650   54.4830 O   0  0  0  0  0  0
   15.2960   24.3470   55.6850 C   0  0  0  0  0  0
   14.1760   24.3080   56.4990 C   0  0  0  0  0  0
   14.2070   23.6040   57.6940 C   0  0  0  0  0  0
   15.3640   22.9490   58.0830 C   0  0  0  0  0  0
   15.3560   22.0940   59.6070 Cl  0  0  0  0  0  0
   19.1010   24.2560   57.4940 N   0  0  0  0  0  0
   20.2600   24.8470   57.5280 C   0  0  0  0  0  0
   21.3810   24.2100   57.8210 N   0  0  0  0  0  0
   21.3850   22.9060   58.1070 C   0  0  0  0  0  0
   22.5640   22.2410   58.4410 C   0  0  0  0  0  0
   26.3440   18.5430   60.6840 C   0  0  0  0  0  0
   26.3870   17.0280   60.9570 C   0  0  0  0  0  0
   27.7000   14.4057   59.3071 H   0  0  0  0  0  0
   26.1338   14.5303   60.1777 H   0  0  0  0  0  0
   27.6775   14.7408   61.0717 H   0  0  0  0  0  0
   28.1389   16.7857   59.7691 H   0  0  0  0  0  0
   26.9708   16.0801   57.7425 H   0  0  0  0  0  0
   25.4017   16.1872   58.6102 H   0  0  0  0  0  0
   27.3983   18.4965   58.1655 H   0  0  0  0  0  0
   25.8136   18.2962   57.3440 H   0  0  0  0  0  0
   26.5516   20.6625   59.9838 H   0  0  0  0  0  0
   26.6543   20.3160   58.2242 H   0  0  0  0  0  0
   24.7198   21.8845   59.5958 H   0  0  0  0  0  0
   24.7509   21.4320   57.8577 H   0  0  0  0  0  0
   21.2889   19.1300   59.0015 H   0  0  0  0  0  0
   19.8196   18.8796   59.7261 H   0  0  0  0  0  0
   17.9096   19.8433   60.8725 H   0  0  0  0  0  0
   16.8308   19.5558   59.4654 H   0  0  0  0  0  0
   17.9095   17.5384   61.4745 H   0  0  0  0  0  0
   16.2030   17.9425   61.0857 H   0  0  0  0  0  0
   19.2005   16.3065   59.6360 H   0  0  0  0  0  0
   18.2173   15.7190   58.2523 H   0  0  0  0  0  0
   17.8785   18.0672   57.4835 H   0  0  0  0  0  0
   19.6299   17.6852   57.5988 H   0  0  0  0  0  0
   17.6056   21.2722   57.9716 H   0  0  0  0  0  0
   17.3374   26.0163   54.9905 H   0  0  0  0  0  0
   17.3789   25.1777   53.4025 H   0  0  0  0  0  0
   13.2680   24.8317   56.1999 H   0  0  0  0  0  0
   13.3205   23.5662   58.3271 H   0  0  0  0  0  0
   20.3087   25.9129   57.3054 H   0  0  0  0  0  0
   23.5127   22.7773   58.4604 H   0  0  0  0  0  0
   27.3750   18.9265   60.6876 H   0  0  0  0  0  0
   25.7705   19.0254   61.4892 H   0  0  0  0  0  0
   25.3645   16.6258   61.0093 H   0  0  0  0  0  0
   26.9074   16.8311   61.9059 H   0  0  0  0  0  0
  1  2  1  0  0  0
  1 39  1  0  0  0
  1 40  1  0  0  0
  1 41  1  0  0  0
  2  3  1  0  0  0
  2 38  1  0  0  0
  2 42  1  0  0  0
  3  4  1  0  0  0
  3 43  1  0  0  0
  3 44  1  0  0  0
  4  5  1  0  0  0
  4 45  1  0  0  0
  4 46  1  0  0  0
  5  6  1  0  0  0
  5 37  1  0  0  0
  6  7  1  0  0  0
  6 47  1  0  0  0
  6 48  1  0  0  0
  7  8  1  0  0  0
  7 49  1  0  0  0
  7 50  1  0  0  0
  8  9  1  0  0  0
  9 10  2  0  0  0
  9 36  1  0  0  0
 10 11  1  0  0  0
 10 51  1  0  0  0
 11 12  1  0  0  0
 11 19  2  0  0  0
 12 13  1  0  0  0
 13 14  1  0  0  0
 13 18  1  0  0  0
 13 52  1  0  0  0
 14 15  1  0  0  0
 14 53  1  0  0  0
 14 54  1  0  0  0
 15 16  1  0  0  0
 15 55  1  0  0  0
 15 56  1  0  0  0
 16 17  1  0  0  0
 17 18  1  0  0  0
 17 57  1  0  0  0
 17 58  1  0  0  0
 18 59  1  0  0  0
 18 60  1  0  0  0
 19 20  1  0  0  0
 19 35  1  0  0  0
 20 21  1  0  0  0
 20 32  2  0  0  0
 21 22  1  0  0  0
 21 61  1  0  0  0
 22 23  2  0  0  0
 22 30  1  0  0  0
 23 24  1  0  0  0
 23 27  1  0  0  0
 24 25  1  0  0  0
 25 26  1  0  0  0
 25 62  1  0  0  0
 25 63  1  0  0  0
 26 27  1  0  0  0
 27 28  2  0  0  0
 28 29  1  0  0  0
 28 64  1  0  0  0
 29 30  2  0  0  0
 29 65  1  0  0  0
 30 31  1  0  0  0
 32 33  1  0  0  0
 33 34  2  0  0  0
 33 66  1  0  0  0
 34 35  1  0  0  0
 35 36  2  0  0  0
 36 67  1  0  0  0
 37 38  1  0  0  0
 37 68  1  0  0  0
 37 69  1  0  0  0
 38 70  1  0  0  0
 38 71  1  0  0  0
M  CHG  1   2   1
M  END
> <s_m_source_file>
../2h8h_ligand.sdf

> <i_m_source_file_index>
1

> <s_epik_input>
W0NIMl0xW0NIMl1PW0NIMl1bQ0gyXVtDSF0xT2MyW2NIXWMoT1tDSDJdW0NIMl1bTkBIK10oW0NIMl1bQ0gyXTMpW0NIMl1bQ0gyXVtOQEBIK10zW0NIM10pW2NIXWMoYzI0KW5bY0hdbmM0W05IXWM1YyhDbClbY0hdW2NIXWMoYzU2KU9bQ0gyXU82

> <s_epik_cmdline>
J2VwaWtfYXBwJywgJy1pbWFlJywgJ2xpZ2FuZF9wcm8ubWFlJywgJy1vbWFlJywgJ2xpZ2FuZF9wcmVwLm1hZScsICctbXMnLCAnMScsICctcGgnLCAnNycsICctcGh0JywgJzAuNScsICctbnQn

> <r_epik_Ionization_Penalty>
  0.0557

> <r_epik_Ionization_Penalty_Charging>
  0.0378

> <r_epik_Ionization_Penalty_Neutral>
  0.0179

> <r_epik_State_Penalty>
  0.1518

> <r_epik_Charging_Adjusted_Penalty>
0.189593245871417

> <i_epik_Tot_Q>
1

> <i_epik_Tot_abs_Q>
1

> <s_epik_Chemistry_Notes>
This compound contains an acetal/aminal-like group ( X-CH(R)-Y where X, Y are N, S, or O) that may be acid/base labile, releasing an aldehyde.

$$$$
