2h96_ligand
                    3D
 Schrodinger Suite 2020-3.
 44 45  0  0  1  0            999 V2000
   20.0930  109.2770   55.8360 C   0  0  0  0  0  0
   19.4820  107.9870   55.2500 C   0  0  0  0  0  0
   18.0470  108.1480   54.7120 C   0  0  0  0  0  0
   17.4070  109.3920   54.7830 C   0  0  0  0  0  0
   18.0260  110.5350   55.3340 C   0  0  0  0  0  0
   19.3510  110.4740   55.8530 C   0  0  0  0  0  0
   17.3070  107.0040   54.1090 C   0  0  0  0  0  0
   17.8210  106.6710   52.7820 N   0  0  0  0  0  0
   17.0080  106.5050   51.7150 C   0  0  0  0  0  0
   17.7150  106.1700   50.4610 C   0  0  0  0  0  0
   19.0790  106.0510   50.4560 N   0  0  0  0  0  0
   19.7280  105.7350   49.2910 C   0  0  0  0  0  0
   19.0120  105.5300   48.0950 C   0  0  0  0  0  0
   17.6070  105.6540   48.1010 C   0  0  0  0  0  0
   16.9420  105.9770   49.2940 C   0  0  0  0  0  0
   17.2690  111.7060   55.3400 O   0  0  0  0  0  0
   17.5380  112.6010   54.2620 C   0  0  0  0  0  0
   20.1270  106.7490   55.1850 O   0  0  0  0  0  0
   21.1780  106.6430   54.2530 C   0  0  0  0  0  0
   19.6810  105.1990   46.8790 C   0  0  0  0  0  0
   20.1900  104.9430   45.8750 N   0  0  0  0  0  0
   21.1280  105.6140   49.3010 O   0  0  0  0  0  0
   21.7770  105.9140   50.5270 C   0  0  0  0  0  0
   22.0220  104.6000   51.2780 C   0  0  0  0  0  0
   15.7810  106.6240   51.7950 O   0  0  0  0  0  0
   21.1055  109.2618   56.2394 H   0  0  0  0  0  0
   16.3913  109.4810   54.3977 H   0  0  0  0  0  0
   19.8008  111.3738   56.2727 H   0  0  0  0  0  0
   17.4112  106.1191   54.7540 H   0  0  0  0  0  0
   16.2427  107.2651   54.0138 H   0  0  0  0  0  0
   18.9029  106.5472   52.6264 H   0  0  0  0  0  0
   17.0401  105.4996   47.1829 H   0  0  0  0  0  0
   15.8568  106.0764   49.3197 H   0  0  0  0  0  0
   16.8955  113.4891   54.3538 H   0  0  0  0  0  0
   17.3319  112.0965   53.3065 H   0  0  0  0  0  0
   18.5940  112.9073   54.2946 H   0  0  0  0  0  0
   21.6041  105.6297   54.2945 H   0  0  0  0  0  0
   21.9586  107.3792   54.4953 H   0  0  0  0  0  0
   20.7920  106.8373   53.2414 H   0  0  0  0  0  0
   22.7347  106.4148   50.3219 H   0  0  0  0  0  0
   21.1375  106.5775   51.1277 H   0  0  0  0  0  0
   22.5253  104.8118   52.2329 H   0  0  0  0  0  0
   22.6569  103.9414   50.6671 H   0  0  0  0  0  0
   21.0596  104.1041   51.4728 H   0  0  0  0  0  0
  1  2  2  0  0  0
  1  6  1  0  0  0
  1 26  1  0  0  0
  2  3  1  0  0  0
  2 18  1  0  0  0
  3  4  2  0  0  0
  3  7  1  0  0  0
  4  5  1  0  0  0
  4 27  1  0  0  0
  5  6  2  0  0  0
  5 16  1  0  0  0
  6 28  1  0  0  0
  7  8  1  0  0  0
  7 29  1  0  0  0
  7 30  1  0  0  0
  8  9  1  0  0  0
  8 31  1  0  0  0
  9 10  1  0  0  0
  9 25  2  0  0  0
 10 11  2  0  0  0
 10 15  1  0  0  0
 11 12  1  0  0  0
 12 13  2  0  0  0
 12 22  1  0  0  0
 13 14  1  0  0  0
 13 20  1  0  0  0
 14 15  2  0  0  0
 14 32  1  0  0  0
 15 33  1  0  0  0
 16 17  1  0  0  0
 17 34  1  0  0  0
 17 35  1  0  0  0
 17 36  1  0  0  0
 18 19  1  0  0  0
 19 37  1  0  0  0
 19 38  1  0  0  0
 19 39  1  0  0  0
 20 21  3  0  0  0
 22 23  1  0  0  0
 23 24  1  0  0  0
 23 40  1  0  0  0
 23 41  1  0  0  0
 24 42  1  0  0  0
 24 43  1  0  0  0
 24 44  1  0  0  0
M  END
> <s_m_source_file>
../2h96_ligand.sdf

> <i_m_source_file_index>
1

> <s_epik_input>
W0NIM11PYzFbY0hdW2NIXWMoT1tDSDNdKVtjSF1jMVtDSDJdW05IXUMoPU8pYzJuYyhjKEMjTilbY0hdW2NIXTIpT1tDSDJdW0NIM10=

> <s_epik_cmdline>
J2VwaWtfYXBwJywgJy1pbWFlJywgJ2xpZ2FuZF9wcm8ubWFlJywgJy1vbWFlJywgJ2xpZ2FuZF9wcmVwLm1hZScsICctbXMnLCAnMScsICctcGgnLCAnNycsICctcGh0JywgJzAuNScsICctbnQn

> <r_lp_tautomer_probability>
1

> <r_epik_Ionization_Penalty>
  0.0000

> <r_epik_Ionization_Penalty_Charging>
  0.0000

> <r_epik_Ionization_Penalty_Neutral>
  0.0000

> <r_epik_State_Penalty>
 -0.0000

> <r_epik_Charging_Adjusted_Penalty>
0

> <i_epik_Tot_Q>
0

> <i_epik_Tot_abs_Q>
0

$$$$
