2h9m_ligand
                    3D
 Schrodinger Suite 2020-3.
 97 96  0  0  1  0            999 V2000
   -4.4370  -10.1860    9.9610 N   0  3  0  0  0  0
   -4.1930   -9.3120    8.7830 C   0  0  2  0  0  0
   -4.1600   -7.8300    9.1600 C   0  0  0  0  0  0
   -4.4280   -7.4560   10.3060 O   0  0  0  0  0  0
   -5.2360   -9.5810    7.6880 C   0  0  0  0  0  0
   -3.8030   -7.0040    8.1780 N   0  0  0  0  0  0
   -3.7030   -5.5540    8.3150 C   0  0  2  0  0  0
   -4.9560   -4.9380    8.9420 C   0  0  0  0  0  0
   -4.8790   -3.9100    9.6110 O   0  0  0  0  0  0
   -3.4520   -4.9550    6.9260 C   0  0  0  0  0  0
   -3.2680   -3.4520    6.8650 C   0  0  0  0  0  0
   -3.0840   -2.9990    5.4080 C   0  0  0  0  0  0
   -1.9270   -3.6300    4.7650 N   0  0  0  0  0  0
   -0.7050   -3.0980    4.7130 C   0  0  0  0  0  0
    0.2780   -3.7530    4.1000 N   0  0  0  0  0  0
   -0.4560   -1.9100    5.2560 N   0  3  0  0  0  0
   -6.0940   -5.5980    8.7370 N   0  0  0  0  0  0
   -7.4090   -5.1100    9.1830 C   0  0  2  0  0  0
   -7.6660   -5.2570   10.6950 C   0  0  0  0  0  0
   -8.6950   -4.7910   11.2070 O   0  0  0  0  0  0
   -8.5290   -5.8270    8.4130 C   0  0  2  0  0  0
   -8.3990   -7.2420    8.6020 O   0  0  0  0  0  0
   -8.4320   -5.5130    6.9290 C   0  0  0  0  0  0
   -6.7350   -5.9100   11.3920 N   0  0  0  0  0  0
   -6.8010   -6.0720   12.8480 C   0  0  2  0  0  0
   -5.5640   -5.4740   13.4920 C   0  0  0  0  0  0
   -4.4420   -5.6540   12.9960 O   0  0  0  0  0  0
   -6.8760   -7.5440   13.2380 C   0  0  0  0  0  0
   -8.1730   -8.2450   12.9180 C   0  0  0  0  0  0
   -8.1280   -9.6490   13.5050 C   0  0  0  0  0  0
   -9.0090  -10.6070   12.7450 C   0  0  0  0  0  0
   -8.8290  -12.0080   13.2110 N   0  3  0  0  0  0
   -5.7660   -4.7950   14.6160 N   0  0  0  0  0  0
   -4.6740   -4.1320   15.3200 C   0  0  2  0  0  0
   -3.6750   -5.1410   15.8850 C   0  0  0  0  0  0
   -4.0600   -6.2040   16.3770 O   0  0  0  0  0  0
   -5.2270   -3.2420   16.4260 C   0  0  0  0  0  0
   -4.2320   -2.2250   16.9510 C   0  0  0  0  0  0
   -4.6660   -1.6140   18.2630 C   0  0  0  0  0  0
   -3.8360   -1.3310   19.1270 O   0  0  0  0  0  0
   -5.9710   -1.4010   18.4210 N   0  0  0  0  0  0
   -2.3930   -4.8020   15.7860 N   0  0  0  0  0  0
   -1.3060   -5.6750   16.2310 C   0  0  0  0  0  0
   -0.0610   -4.8520   16.5570 C   0  0  0  0  0  0
    1.0670   -5.3400   16.4410 O   0  0  0  0  0  0
   -0.1939   -3.5950   16.9707 O   0  5  0  0  0  0
   -4.4519  -11.2381    9.6402 H   0  0  0  0  0  0
   -5.4049   -9.9274   10.4152 H   0  0  0  0  0  0
   -3.6347  -10.0390   10.6990 H   0  0  0  0  0  0
   -3.1920   -9.5826    8.4158 H   0  0  0  0  0  0
   -5.2372  -10.6522    7.4380 H   0  0  0  0  0  0
   -4.9854   -8.9954    6.7912 H   0  0  0  0  0  0
   -6.2323   -9.2880    8.0507 H   0  0  0  0  0  0
   -3.5759   -7.4823    7.2138 H   0  0  0  0  0  0
   -2.8621   -5.3747    9.0010 H   0  0  0  0  0  0
   -2.5355   -5.3890    6.4997 H   0  0  0  0  0  0
   -4.3049   -5.1817    6.2693 H   0  0  0  0  0  0
   -4.1549   -2.9566    7.2870 H   0  0  0  0  0  0
   -2.3781   -3.1676    7.4457 H   0  0  0  0  0  0
   -3.9797   -3.2623    4.8263 H   0  0  0  0  0  0
   -2.9349   -1.9095    5.3788 H   0  0  0  0  0  0
   -2.0346   -4.6116    4.2804 H   0  0  0  0  0  0
    0.0847   -4.7365    3.6469 H   0  0  0  0  0  0
    1.2838   -3.3109    4.0465 H   0  0  0  0  0  0
   -1.2601   -1.3587    5.7654 H   0  0  0  0  0  0
   -6.0152   -6.5564    8.2029 H   0  0  0  0  0  0
   -7.3598   -4.0365    8.9480 H   0  0  0  0  0  0
   -9.5196   -5.5446    8.7991 H   0  0  0  0  0  0
   -8.4433   -7.6679    9.6152 H   0  0  0  0  0  0
   -8.5310   -4.4281    6.7766 H   0  0  0  0  0  0
   -9.2374   -6.0340    6.3906 H   0  0  0  0  0  0
   -7.4574   -5.8497    6.5459 H   0  0  0  0  0  0
   -5.8917   -6.3362   10.8288 H   0  0  0  0  0  0
   -7.7132   -5.5431   13.1615 H   0  0  0  0  0  0
   -6.0878   -8.1031   12.7126 H   0  0  0  0  0  0
   -6.7340   -7.6432   14.3243 H   0  0  0  0  0  0
   -9.0111   -7.6837   13.3568 H   0  0  0  0  0  0
   -8.3003   -8.3006   11.8268 H   0  0  0  0  0  0
   -7.0962  -10.0287   13.4688 H   0  0  0  0  0  0
   -8.4719   -9.6210   14.5495 H   0  0  0  0  0  0
  -10.0633  -10.3275   12.8878 H   0  0  0  0  0  0
   -8.7599  -10.5636   11.6744 H   0  0  0  0  0  0
   -9.4871  -12.6739   12.6336 H   0  0  0  0  0  0
   -9.0851  -12.0750   14.2787 H   0  0  0  0  0  0
   -7.7817  -12.3111   13.0654 H   0  0  0  0  0  0
   -6.7901   -4.7406   15.0137 H   0  0  0  0  0  0
   -4.1669   -3.5182   14.5610 H   0  0  0  0  0  0
   -6.0951   -2.6827   16.0470 H   0  0  0  0  0  0
   -5.5360   -3.8652   17.2781 H   0  0  0  0  0  0
   -3.2589   -2.7125   17.1102 H   0  0  0  0  0  0
   -4.1191   -1.4112   16.2196 H   0  0  0  0  0  0
   -6.6735   -1.6713   17.6188 H   0  0  0  0  0  0
   -6.3465   -0.9548   19.3537 H   0  0  0  0  0  0
   -2.1648   -3.8192   15.3479 H   0  0  0  0  0  0
   -1.6202   -6.2214   17.1325 H   0  0  0  0  0  0
   -1.0622   -6.3926   15.4337 H   0  0  0  0  0  0
    0.5541   -1.4786    5.1958 H   0  0  0  0  0  0
  1  2  1  0  0  0
  1 47  1  0  0  0
  1 48  1  0  0  0
  1 49  1  0  0  0
  2  5  1  0  0  0
  2  3  1  0  0  0
  2 50  1  0  0  0
  3  4  2  0  0  0
  3  6  1  0  0  0
  5 51  1  0  0  0
  5 52  1  0  0  0
  5 53  1  0  0  0
  6  7  1  0  0  0
  6 54  1  0  0  0
  7 10  1  0  0  0
  7  8  1  0  0  0
  7 55  1  0  0  0
  8  9  2  0  0  0
  8 17  1  0  0  0
 10 11  1  0  0  0
 10 56  1  0  0  0
 10 57  1  0  0  0
 11 12  1  0  0  0
 11 58  1  0  0  0
 11 59  1  0  0  0
 12 13  1  0  0  0
 12 60  1  0  0  0
 12 61  1  0  0  0
 13 14  1  0  0  0
 13 62  1  0  0  0
 14 16  2  0  0  0
 14 15  1  0  0  0
 15 63  1  0  0  0
 15 64  1  0  0  0
 16 65  1  0  0  0
 16 97  1  0  0  0
 17 18  1  0  0  0
 17 66  1  0  0  0
 18 21  1  0  0  0
 18 19  1  0  0  0
 18 67  1  0  0  0
 19 20  2  0  0  0
 19 24  1  0  0  0
 21 23  1  0  0  0
 21 22  1  0  0  0
 21 68  1  0  0  0
 22 69  1  0  0  0
 23 70  1  0  0  0
 23 71  1  0  0  0
 23 72  1  0  0  0
 24 25  1  0  0  0
 24 73  1  0  0  0
 25 28  1  0  0  0
 25 26  1  0  0  0
 25 74  1  0  0  0
 26 27  2  0  0  0
 26 33  1  0  0  0
 28 29  1  0  0  0
 28 75  1  0  0  0
 28 76  1  0  0  0
 29 30  1  0  0  0
 29 77  1  0  0  0
 29 78  1  0  0  0
 30 31  1  0  0  0
 30 79  1  0  0  0
 30 80  1  0  0  0
 31 32  1  0  0  0
 31 81  1  0  0  0
 31 82  1  0  0  0
 32 83  1  0  0  0
 32 84  1  0  0  0
 32 85  1  0  0  0
 33 34  1  0  0  0
 33 86  1  0  0  0
 34 37  1  0  0  0
 34 35  1  0  0  0
 34 87  1  0  0  0
 35 36  2  0  0  0
 35 42  1  0  0  0
 37 38  1  0  0  0
 37 88  1  0  0  0
 37 89  1  0  0  0
 38 39  1  0  0  0
 38 90  1  0  0  0
 38 91  1  0  0  0
 39 41  1  0  0  0
 39 40  2  0  0  0
 41 92  1  0  0  0
 41 93  1  0  0  0
 42 43  1  0  0  0
 42 94  1  0  0  0
 43 44  1  0  0  0
 43 95  1  0  0  0
 43 96  1  0  0  0
 44 45  2  0  0  0
 44 46  1  0  0  0
M  CHG  4   1   1  16   1  32   1  46  -1
M  END
> <s_m_source_file>
../2h9m_ligand.sdf

> <i_m_source_file_index>
1

> <s_epik_input>
W0hdL049QyhbTkgyXSlcW05IXVtDSDJdW0NIMl1bQ0gyXVtDQEhdKFtOSF1DKD1PKVtDQEBIXShbTkgzK10pW0NIM10pQyg9TylbTkhdW0NAQEhdKFtDQEhdKFtPSF0pW0NIM10pQyg9TylbTkhdW0NAQEhdKFtDSDJdW0NIMl1bQ0gyXVtDSDJdW05IMytdKUMoPU8pW05IXVtDQEBIXShbQ0gyXVtDSDJdQyg9TylbTkgyXSlDKD1PKVtOSF1bQ0gyXUMoPU8pW09IXQ==

> <s_epik_cmdline>
J2VwaWtfYXBwJywgJy1pbWFlJywgJ2xpZ2FuZF9wcm8ubWFlJywgJy1vbWFlJywgJ2xpZ2FuZF9wcmVwLm1hZScsICctbXMnLCAnMScsICctcGgnLCAnNycsICctcGh0JywgJzAuNScsICctbnQn

> <r_epik_Ionization_Penalty>
  0.1257

> <r_epik_Ionization_Penalty_Charging>
  0.1257

> <r_epik_Ionization_Penalty_Neutral>
  0.0000

> <r_epik_State_Penalty>
  0.1145

> <r_epik_Charging_Adjusted_Penalty>
0.24022470944921

> <i_epik_Tot_Q>
2

> <i_epik_Tot_abs_Q>
4

> <s_epik_Chemistry_Notes>
This compound has an imine and may undergo hydrolysis.

$$$$
