2h9n_ligand
                    3D
 Schrodinger Suite 2020-3.
 81 80  0  0  1  0            999 V2000
    4.6750    8.9560    8.5310 N   0  3  0  0  0  0
    4.2180    8.3430    9.7870 C   0  0  2  0  0  0
    4.3670    6.8480    9.6850 C   0  0  0  0  0  0
    4.6750    6.2110   10.6790 O   0  0  0  0  0  0
    2.7290    8.7210   10.0910 C   0  0  0  0  0  0
    4.1510    6.2910    8.4860 N   0  0  0  0  0  0
    4.1060    4.8280    8.2890 C   0  0  2  0  0  0
    5.3610    4.1590    8.8070 C   0  0  0  0  0  0
    5.2960    3.0870    9.3970 O   0  0  0  0  0  0
    3.9000    4.4560    6.8030 C   0  0  0  0  0  0
    3.6480    2.9600    6.5740 C   0  0  0  0  0  0
    3.4550    2.5660    5.0950 C   0  0  0  0  0  0
    2.2580    3.1470    4.4810 N   0  0  0  0  0  0
    1.0440    2.6080    4.5460 C   0  0  0  0  0  0
    0.0160    3.1940    3.9560 N   0  3  0  0  0  0
    0.8590    1.4640    5.1830 N   0  0  0  0  0  0
    6.5000    4.8170    8.6000 N   0  0  0  0  0  0
    7.8100    4.2530    8.9510 C   0  0  2  0  0  0
    8.1540    4.3110   10.4410 C   0  0  0  0  0  0
    9.2620    3.9130   10.8460 O   0  0  0  0  0  0
    8.9230    4.9720    8.1880 C   0  0  2  0  0  0
    9.0870    6.2810    8.7320 O   0  0  0  0  0  0
    8.5940    5.0640    6.6920 C   0  0  0  0  0  0
    7.2100    4.8370   11.2350 N   0  0  0  0  0  0
    7.2900    4.8990   12.6940 C   0  0  1  0  0  0
    7.5380    6.3390   13.1310 C   0  0  0  0  0  0
    8.9680    6.7760   12.8300 C   0  0  0  0  0  0
    5.9920    4.3860   13.2680 C   0  0  0  0  0  0
    4.9330    4.5780   12.6570 O   0  0  0  0  0  0
    6.0560    3.7210   14.4280 N   0  0  0  0  0  0
    4.8690    3.1140   15.0700 C   0  0  2  0  0  0
    4.0730    4.0490   15.9930 C   0  0  0  0  0  0
    4.2950    5.2700   16.0340 O   0  0  0  0  0  0
    5.2440    1.8220   15.8210 C   0  0  0  0  0  0
    5.9870    2.0200   17.1340 C   0  0  0  0  0  0
    5.9370    0.7970   18.0530 C   0  0  0  0  0  0
    6.9780    0.3210   18.5100 O   0  0  0  0  0  0
    4.7270    0.2920   18.3380 N   0  0  0  0  0  0
    3.1212    3.5374   16.7684 O   0  5  0  0  0  0
    4.5696   10.0490    8.5968 H   0  0  0  0  0  0
    4.0664    8.5785    7.6961 H   0  0  0  0  0  0
    5.7309    8.6991    8.3606 H   0  0  0  0  0  0
    4.8813    8.7216   10.5787 H   0  0  0  0  0  0
    2.6357    9.8147   10.1626 H   0  0  0  0  0  0
    2.4216    8.2636   11.0430 H   0  0  0  0  0  0
    2.0839    8.3502    9.2809 H   0  0  0  0  0  0
    4.0042    6.9660    7.6300 H   0  0  0  0  0  0
    3.2485    4.4972    8.8933 H   0  0  0  0  0  0
    3.0304    5.0002    6.4059 H   0  0  0  0  0  0
    4.7973    4.7297    6.2287 H   0  0  0  0  0  0
    4.5046    2.3820    6.9511 H   0  0  0  0  0  0
    2.7363    2.6556    7.1089 H   0  0  0  0  0  0
    4.3213    2.9065    4.5088 H   0  0  0  0  0  0
    3.3654    1.4725    5.0155 H   0  0  0  0  0  0
    2.3301    4.0911    3.9212 H   0  0  0  0  0  0
    0.1571    4.1458    3.4230 H   0  0  0  0  0  0
    1.7063    0.9667    5.6778 H   0  0  0  0  0  0
   -0.1422    1.0097    5.2181 H   0  0  0  0  0  0
    6.4352    5.8180    8.1486 H   0  0  0  0  0  0
    7.6945    3.1997    8.6557 H   0  0  0  0  0  0
    9.8853    4.4585    8.3303 H   0  0  0  0  0  0
    9.3277    6.4075    9.7979 H   0  0  0  0  0  0
    8.4693    4.0513    6.2811 H   0  0  0  0  0  0
    9.4148    5.5744    6.1668 H   0  0  0  0  0  0
    7.6621    5.6323    6.5558 H   0  0  0  0  0  0
    6.3285    5.2401   10.7149 H   0  0  0  0  0  0
    8.1232    4.2612   13.0243 H   0  0  0  0  0  0
    6.8492    7.0086   12.5951 H   0  0  0  0  0  0
    7.3674    6.4281   14.2140 H   0  0  0  0  0  0
    9.1101    7.8164   13.1576 H   0  0  0  0  0  0
    9.1535    6.7036   11.7482 H   0  0  0  0  0  0
    9.6717    6.1231   13.3672 H   0  0  0  0  0  0
    7.0435    3.6354   14.9051 H   0  0  0  0  0  0
    4.2255    2.9040   14.2030 H   0  0  0  0  0  0
    4.3298    1.2603   16.0634 H   0  0  0  0  0  0
    5.8960    1.2046   15.1856 H   0  0  0  0  0  0
    7.0460    2.2340   16.9273 H   0  0  0  0  0  0
    5.5429    2.8634   17.6831 H   0  0  0  0  0  0
    3.8245    0.7499   17.9069 H   0  0  0  0  0  0
    4.6375   -0.5799   19.0027 H   0  0  0  0  0  0
   -0.9803    2.7297    3.9982 H   0  0  0  0  0  0
  1  2  1  0  0  0
  1 40  1  0  0  0
  1 41  1  0  0  0
  1 42  1  0  0  0
  2  5  1  0  0  0
  2  3  1  0  0  0
  2 43  1  0  0  0
  3  4  2  0  0  0
  3  6  1  0  0  0
  5 44  1  0  0  0
  5 45  1  0  0  0
  5 46  1  0  0  0
  6  7  1  0  0  0
  6 47  1  0  0  0
  7 10  1  0  0  0
  7  8  1  0  0  0
  7 48  1  0  0  0
  8  9  2  0  0  0
  8 17  1  0  0  0
 10 11  1  0  0  0
 10 49  1  0  0  0
 10 50  1  0  0  0
 11 12  1  0  0  0
 11 51  1  0  0  0
 11 52  1  0  0  0
 12 13  1  0  0  0
 12 53  1  0  0  0
 12 54  1  0  0  0
 13 14  1  0  0  0
 13 55  1  0  0  0
 14 16  1  0  0  0
 14 15  2  0  0  0
 15 56  1  0  0  0
 15 81  1  0  0  0
 16 57  1  0  0  0
 16 58  1  0  0  0
 17 18  1  0  0  0
 17 59  1  0  0  0
 18 21  1  0  0  0
 18 19  1  0  0  0
 18 60  1  0  0  0
 19 20  2  0  0  0
 19 24  1  0  0  0
 21 23  1  0  0  0
 21 22  1  0  0  0
 21 61  1  0  0  0
 22 62  1  0  0  0
 23 63  1  0  0  0
 23 64  1  0  0  0
 23 65  1  0  0  0
 24 25  1  0  0  0
 24 66  1  0  0  0
 25 26  1  0  0  0
 25 28  1  0  0  0
 25 67  1  0  0  0
 26 27  1  0  0  0
 26 68  1  0  0  0
 26 69  1  0  0  0
 27 70  1  0  0  0
 27 71  1  0  0  0
 27 72  1  0  0  0
 28 29  2  0  0  0
 28 30  1  0  0  0
 30 31  1  0  0  0
 30 73  1  0  0  0
 31 34  1  0  0  0
 31 32  1  0  0  0
 31 74  1  0  0  0
 32 33  2  0  0  0
 32 39  1  0  0  0
 34 35  1  0  0  0
 34 75  1  0  0  0
 34 76  1  0  0  0
 35 36  1  0  0  0
 35 77  1  0  0  0
 35 78  1  0  0  0
 36 38  1  0  0  0
 36 37  2  0  0  0
 38 79  1  0  0  0
 38 80  1  0  0  0
M  CHG  3   1   1  15   1  39  -1
M  END
> <s_m_source_file>
../2h9n_ligand.sdf

> <i_m_source_file_index>
1

> <s_epik_input>
W0hdL049QyhbTkgyXSlcW05IXVtDSDJdW0NIMl1bQ0gyXVtDQEhdKFtOSF1DKD1PKVtDQEBIXShbTkgzK10pW0NIM10pQyg9TylbTkhdW0NAQEhdKFtDQEhdKFtPSF0pW0NIM10pQyg9TylbTkhdW0NAQEhdKFtDSDJdW0NIM10pQyg9TylbTkhdW0NASF0oQyg9TylbT0hdKVtDSDJdW0NIMl1DKD1PKVtOSDJd

> <s_epik_cmdline>
J2VwaWtfYXBwJywgJy1pbWFlJywgJ2xpZ2FuZF9wcm8ubWFlJywgJy1vbWFlJywgJ2xpZ2FuZF9wcmVwLm1hZScsICctbXMnLCAnMScsICctcGgnLCAnNycsICctcGh0JywgJzAuNScsICctbnQn

> <r_epik_Ionization_Penalty>
  0.1252

> <r_epik_Ionization_Penalty_Charging>
  0.1252

> <r_epik_Ionization_Penalty_Neutral>
  0.0000

> <r_epik_State_Penalty>
  0.1145

> <r_epik_Charging_Adjusted_Penalty>
0.23972855378162

> <i_epik_Tot_Q>
1

> <i_epik_Tot_abs_Q>
3

> <s_epik_Chemistry_Notes>
This compound has an imine and may undergo hydrolysis.

$$$$
