2h9p_ligand
                    3D
 Schrodinger Suite 2020-3.
 61 60  0  0  1  0            999 V2000
  -28.0880   21.6430    8.6720 N   0  3  0  0  0  0
  -27.4940   20.6720    7.6830 C   0  0  2  0  0  0
  -26.0110   20.9460    7.4560 C   0  0  0  0  0  0
  -25.2100   19.9990    7.3840 O   0  0  0  0  0  0
  -28.2380   20.6970    6.3350 C   0  0  0  0  0  0
  -25.6540   22.2320    7.3380 N   0  0  0  0  0  0
  -24.2510   22.6780    7.2060 C   0  0  2  0  0  0
  -23.3270   21.9530    8.1870 C   0  0  0  0  0  0
  -22.1840   21.5890    7.8750 O   0  0  0  0  0  0
  -24.1560   24.1940    7.4520 C   0  0  0  0  0  0
  -22.8120   24.7880    7.1120 C   0  0  0  0  0  0
  -22.7810   26.2760    7.3220 C   0  0  0  0  0  0
  -23.6150   27.0360    6.3730 N   0  0  0  0  0  0
  -23.1740   27.5350    5.2230 C   0  0  0  0  0  0
  -23.9970   28.2350    4.4300 N   0  3  0  0  0  0
  -21.9020   27.3270    4.8540 N   0  0  0  0  0  0
  -23.8560   21.7390    9.3810 N   0  0  0  0  0  0
  -23.1180   21.1690   10.4940 C   0  0  2  0  0  0
  -22.9960   19.6360   10.4010 C   0  0  0  0  0  0
  -22.4570   18.9860   11.3190 O   0  0  0  0  0  0
  -23.7970   21.5750   11.8150 C   0  0  2  0  0  0
  -25.0750   20.9350   11.9060 O   0  0  0  0  0  0
  -23.9640   23.1200   11.8870 C   0  0  0  0  0  0
  -23.5030   19.0690    9.3030 N   0  0  0  0  0  0
  -23.3600   17.6250    9.0230 C   0  0  1  0  0  0
  -24.7110   16.9270    8.8570 C   0  0  0  0  0  0
  -22.5100   17.3950    7.7990 C   0  0  0  0  0  0
  -22.5800   18.1620    6.8220 O   0  0  0  0  0  0
  -21.6756   16.3599    7.7634 O   0  5  0  0  0  0
  -29.1555   21.4172    8.8116 H   0  0  0  0  0  0
  -27.9770   22.6688    8.2906 H   0  0  0  0  0  0
  -27.5648   21.5514    9.6352 H   0  0  0  0  0  0
  -27.6074   19.6785    8.1414 H   0  0  0  0  0  0
  -29.3070   20.4991    6.5025 H   0  0  0  0  0  0
  -27.8215   19.9244    5.6720 H   0  0  0  0  0  0
  -28.1169   21.6854    5.8677 H   0  0  0  0  0  0
  -26.4681   22.9717    7.3427 H   0  0  0  0  0  0
  -23.9604   22.4169    6.1777 H   0  0  0  0  0  0
  -24.9053   24.7130    6.8362 H   0  0  0  0  0  0
  -24.3447   24.4056    8.5148 H   0  0  0  0  0  0
  -22.0391   24.3360    7.7511 H   0  0  0  0  0  0
  -22.5786   24.5865    6.0561 H   0  0  0  0  0  0
  -23.1452   26.5113    8.3329 H   0  0  0  0  0  0
  -21.7493   26.6407    7.2099 H   0  0  0  0  0  0
  -24.6755   27.2211    6.5988 H   0  0  0  0  0  0
  -25.0405   28.4051    4.7336 H   0  0  0  0  0  0
  -21.2273   26.7523    5.5055 H   0  0  0  0  0  0
  -21.5331   27.7310    3.8997 H   0  0  0  0  0  0
  -24.9126   22.0177    9.5068 H   0  0  0  0  0  0
  -22.1109   21.6022   10.4046 H   0  0  0  0  0  0
  -23.2259   21.2030   12.6784 H   0  0  0  0  0  0
  -25.1443   19.8377   11.8717 H   0  0  0  0  0  0
  -22.9764   23.5992   11.8161 H   0  0  0  0  0  0
  -24.4367   23.3936   12.8419 H   0  0  0  0  0  0
  -24.5970   23.4596   11.0539 H   0  0  0  0  0  0
  -24.0420   19.7158    8.5951 H   0  0  0  0  0  0
  -22.8478   17.2146    9.9058 H   0  0  0  0  0  0
  -25.3252   17.0991    9.7532 H   0  0  0  0  0  0
  -24.5517   15.8468    8.7236 H   0  0  0  0  0  0
  -25.2276   17.3332    7.9749 H   0  0  0  0  0  0
  -23.6290   28.6394    3.4755 H   0  0  0  0  0  0
  1  2  1  0  0  0
  1 30  1  0  0  0
  1 31  1  0  0  0
  1 32  1  0  0  0
  2  5  1  0  0  0
  2  3  1  0  0  0
  2 33  1  0  0  0
  3  4  2  0  0  0
  3  6  1  0  0  0
  5 34  1  0  0  0
  5 35  1  0  0  0
  5 36  1  0  0  0
  6  7  1  0  0  0
  6 37  1  0  0  0
  7 10  1  0  0  0
  7  8  1  0  0  0
  7 38  1  0  0  0
  8  9  2  0  0  0
  8 17  1  0  0  0
 10 11  1  0  0  0
 10 39  1  0  0  0
 10 40  1  0  0  0
 11 12  1  0  0  0
 11 41  1  0  0  0
 11 42  1  0  0  0
 12 13  1  0  0  0
 12 43  1  0  0  0
 12 44  1  0  0  0
 13 14  1  0  0  0
 13 45  1  0  0  0
 14 16  1  0  0  0
 14 15  2  0  0  0
 15 46  1  0  0  0
 15 61  1  0  0  0
 16 47  1  0  0  0
 16 48  1  0  0  0
 17 18  1  0  0  0
 17 49  1  0  0  0
 18 21  1  0  0  0
 18 19  1  0  0  0
 18 50  1  0  0  0
 19 20  2  0  0  0
 19 24  1  0  0  0
 21 23  1  0  0  0
 21 22  1  0  0  0
 21 51  1  0  0  0
 22 52  1  0  0  0
 23 53  1  0  0  0
 23 54  1  0  0  0
 23 55  1  0  0  0
 24 25  1  0  0  0
 24 56  1  0  0  0
 25 26  1  0  0  0
 25 27  1  0  0  0
 25 57  1  0  0  0
 26 58  1  0  0  0
 26 59  1  0  0  0
 26 60  1  0  0  0
 27 28  2  0  0  0
 27 29  1  0  0  0
M  CHG  3   1   1  15   1  29  -1
M  END
> <s_m_source_file>
../2h9p_ligand.sdf

> <i_m_source_file_index>
1

> <s_epik_input>
W0hdL049QyhbTkgyXSlcW05IXVtDSDJdW0NIMl1bQ0gyXVtDQEhdKFtOSF1DKD1PKVtDQEBIXShbTkgzK10pW0NIM10pQyg9TylbTkhdW0NAQEhdKFtDQEhdKFtPSF0pW0NIM10pQyg9TylbTkhdW0NAQEhdKFtDSDNdKUMoPU8pW09IXQ==

> <s_epik_cmdline>
J2VwaWtfYXBwJywgJy1pbWFlJywgJ2xpZ2FuZF9wcm8ubWFlJywgJy1vbWFlJywgJ2xpZ2FuZF9wcmVwLm1hZScsICctbXMnLCAnMScsICctcGgnLCAnNycsICctcGh0JywgJzAuNScsICctbnQn

> <r_epik_Ionization_Penalty>
  0.1252

> <r_epik_Ionization_Penalty_Charging>
  0.1252

> <r_epik_Ionization_Penalty_Neutral>
  0.0000

> <r_epik_State_Penalty>
  0.1145

> <r_epik_Charging_Adjusted_Penalty>
0.239759366600596

> <i_epik_Tot_Q>
1

> <i_epik_Tot_abs_Q>
3

> <s_epik_Chemistry_Notes>
This compound has an imine and may undergo hydrolysis.

$$$$
