2ha0_ligand
                    3D
 Schrodinger Suite 2020-3.
 30 29  0  0  1  0            999 V2000
   26.8280   19.2820   14.8480 N   0  3  0  0  0  0
   27.5840   18.6770   13.7260 C   0  0  0  0  0  0
   27.6420   17.1440   13.6630 C   0  0  0  0  0  0
   28.8620   15.2690   12.3190 C   0  0  2  0  0  0
   29.5670   14.9070   13.4990 O   0  0  0  0  0  0
   29.7540   14.9890   11.1030 C   0  0  0  0  0  0
   26.9340   20.7490   14.6940 C   0  0  0  0  0  0
   27.4140   18.9470   16.1360 C   0  0  0  0  0  0
   25.4030   18.8860   14.8240 C   0  0  0  0  0  0
   28.3850   16.7400   12.3830 C   0  0  0  0  0  0
   27.1385   18.9929   12.7712 H   0  0  0  0  0  0
   28.6320   19.0084   13.7691 H   0  0  0  0  0  0
   28.1759   16.7607   14.5451 H   0  0  0  0  0  0
   26.6195   16.7386   13.6486 H   0  0  0  0  0  0
   27.9780   14.6147   12.2969 H   0  0  0  0  0  0
   29.9719   13.8900   13.6076 H   0  0  0  0  0  0
   30.0616   13.9329   11.1094 H   0  0  0  0  0  0
   30.6461   15.6311   11.1471 H   0  0  0  0  0  0
   29.1939   15.2022   10.1806 H   0  0  0  0  0  0
   27.9936   21.0439   14.7118 H   0  0  0  0  0  0
   26.4017   21.2438   15.5198 H   0  0  0  0  0  0
   26.4855   21.0504   13.7359 H   0  0  0  0  0  0
   28.4730   19.2445   16.1455 H   0  0  0  0  0  0
   27.3363   17.8626   16.3033 H   0  0  0  0  0  0
   26.8760   19.4805   16.9335 H   0  0  0  0  0  0
   24.9675   19.1427   13.8470 H   0  0  0  0  0  0
   24.8608   19.4194   15.6187 H   0  0  0  0  0  0
   25.3210   17.8015   14.9885 H   0  0  0  0  0  0
   27.7265   16.8883   11.5145 H   0  0  0  0  0  0
   29.2859   17.3611   12.2704 H   0  0  0  0  0  0
  1  2  1  0  0  0
  1  7  1  0  0  0
  1  8  1  0  0  0
  1  9  1  0  0  0
  2  3  1  0  0  0
  2 11  1  0  0  0
  2 12  1  0  0  0
  3 10  1  0  0  0
  3 13  1  0  0  0
  3 14  1  0  0  0
  4  5  1  0  0  0
  4  6  1  0  0  0
  4 10  1  0  0  0
  4 15  1  0  0  0
  5 16  1  0  0  0
  6 17  1  0  0  0
  6 18  1  0  0  0
  6 19  1  0  0  0
  7 20  1  0  0  0
  7 21  1  0  0  0
  7 22  1  0  0  0
  8 23  1  0  0  0
  8 24  1  0  0  0
  8 25  1  0  0  0
  9 26  1  0  0  0
  9 27  1  0  0  0
  9 28  1  0  0  0
 10 29  1  0  0  0
 10 30  1  0  0  0
M  CHG  1   1   1
M  END
> <s_m_source_file>
../2ha0_ligand.sdf

> <i_m_source_file_index>
1

> <s_epik_input>
W0NIM11bTitdKFtDSDNdKShbQ0gzXSlbQ0gyXVtDSDJdW0NIMl1bQ0BIXShbT0hdKVtDSDNd

> <s_epik_cmdline>
J2VwaWtfYXBwJywgJy1pbWFlJywgJ2xpZ2FuZF9wcm8ubWFlJywgJy1vbWFlJywgJ2xpZ2FuZF9wcmVwLm1hZScsICctbXMnLCAnMScsICctcGgnLCAnNycsICctcGh0JywgJzAuNScsICctbnQn

> <r_lp_tautomer_probability>
1

> <r_epik_Ionization_Penalty>
  0.0000

> <r_epik_Ionization_Penalty_Charging>
  0.0000

> <r_epik_Ionization_Penalty_Neutral>
  0.0000

> <r_epik_State_Penalty>
 -0.0000

> <r_epik_Charging_Adjusted_Penalty>
0

> <i_epik_Tot_Q>
1

> <i_epik_Tot_abs_Q>
1

$$$$
