2ha2_ligand
                    3D
 Schrodinger Suite 2020-3.
 50 49  0  0  1  0            999 V2000
   30.8670   23.0330   11.8530 O   0  0  0  0  0  0
   29.8630   22.3520   11.7430 C   0  0  0  0  0  0
   28.9800   22.2070   12.8820 O   0  0  0  0  0  0
   28.6210   20.9060   13.3250 C   0  0  0  0  0  0
   27.3260   20.9930   14.1140 C   0  0  0  0  0  0
   26.8500   19.6300   14.3600 N   0  3  0  0  0  0
   27.6200   19.0250   15.4500 C   0  0  0  0  0  0
   25.4310   19.6670   14.7190 C   0  0  0  0  0  0
   27.0310   18.8390   13.1410 C   0  0  0  0  0  0
   29.5360   21.6720   10.4400 C   0  0  0  0  0  0
   30.4120   22.2660    9.3520 C   0  0  0  0  0  0
   31.7770   21.6440    9.4390 C   0  0  0  0  0  0
   31.8980   20.4420    9.5730 O   0  0  0  0  0  0
   32.9620   22.4730    9.3660 O   0  0  0  0  0  0
   34.1550   21.9430    8.8010 C   0  0  0  0  0  0
   34.9900   23.0740    8.2180 C   0  0  0  0  0  0
   35.7940   23.6760    9.2800 N   0  3  0  0  0  0
   36.4640   22.6120   10.0320 C   0  0  0  0  0  0
   36.7930   24.5730    8.6970 C   0  0  0  0  0  0
   34.9250   24.4430   10.1730 C   0  0  0  0  0  0
   28.4820   20.2477   12.4547 H   0  0  0  0  0  0
   29.4196   20.5034   13.9654 H   0  0  0  0  0  0
   27.5120   21.5073   15.0684 H   0  0  0  0  0  0
   26.5801   21.5557   13.5336 H   0  0  0  0  0  0
   27.4855   19.6177   16.3669 H   0  0  0  0  0  0
   28.6859   19.0055   15.1791 H   0  0  0  0  0  0
   27.2666   17.9977   15.6223 H   0  0  0  0  0  0
   25.2999   20.2620   15.6349 H   0  0  0  0  0  0
   25.0698   18.6426   14.8924 H   0  0  0  0  0  0
   24.8573   20.1242   13.8994 H   0  0  0  0  0  0
   28.0981   18.8140   12.8752 H   0  0  0  0  0  0
   26.4591   19.2953   12.3196 H   0  0  0  0  0  0
   26.6717   17.8136   13.3126 H   0  0  0  0  0  0
   29.7304   20.5931   10.5306 H   0  0  0  0  0  0
   28.4754   21.8343   10.1977 H   0  0  0  0  0  0
   29.9677   22.0557    8.3679 H   0  0  0  0  0  0
   30.4875   23.3540    9.4952 H   0  0  0  0  0  0
   34.7328   21.4271    9.5820 H   0  0  0  0  0  0
   33.8979   21.2300    8.0038 H   0  0  0  0  0  0
   35.6520   22.6751    7.4353 H   0  0  0  0  0  0
   34.3247   23.8344    7.7830 H   0  0  0  0  0  0
   37.1155   22.0393    9.3556 H   0  0  0  0  0  0
   35.7097   21.9415   10.4696 H   0  0  0  0  0  0
   37.0698   23.0564   10.8354 H   0  0  0  0  0  0
   37.4500   24.0023    8.0242 H   0  0  0  0  0  0
   37.3938   25.0243    9.5003 H   0  0  0  0  0  0
   36.2859   25.3664    8.1284 H   0  0  0  0  0  0
   34.1715   23.7744   10.6147 H   0  0  0  0  0  0
   34.4212   25.2367    9.6018 H   0  0  0  0  0  0
   35.5291   24.8945   10.9738 H   0  0  0  0  0  0
  1  2  2  0  0  0
  2  3  1  0  0  0
  2 10  1  0  0  0
  3  4  1  0  0  0
  4  5  1  0  0  0
  4 21  1  0  0  0
  4 22  1  0  0  0
  5  6  1  0  0  0
  5 23  1  0  0  0
  5 24  1  0  0  0
  6  7  1  0  0  0
  6  8  1  0  0  0
  6  9  1  0  0  0
  7 25  1  0  0  0
  7 26  1  0  0  0
  7 27  1  0  0  0
  8 28  1  0  0  0
  8 29  1  0  0  0
  8 30  1  0  0  0
  9 31  1  0  0  0
  9 32  1  0  0  0
  9 33  1  0  0  0
 10 11  1  0  0  0
 10 34  1  0  0  0
 10 35  1  0  0  0
 11 12  1  0  0  0
 11 36  1  0  0  0
 11 37  1  0  0  0
 12 13  2  0  0  0
 12 14  1  0  0  0
 14 15  1  0  0  0
 15 16  1  0  0  0
 15 38  1  0  0  0
 15 39  1  0  0  0
 16 17  1  0  0  0
 16 40  1  0  0  0
 16 41  1  0  0  0
 17 18  1  0  0  0
 17 19  1  0  0  0
 17 20  1  0  0  0
 18 42  1  0  0  0
 18 43  1  0  0  0
 18 44  1  0  0  0
 19 45  1  0  0  0
 19 46  1  0  0  0
 19 47  1  0  0  0
 20 48  1  0  0  0
 20 49  1  0  0  0
 20 50  1  0  0  0
M  CHG  2   6   1  17   1
M  END
> <s_m_source_file>
../2ha2_ligand.sdf

> <i_m_source_file_index>
1

> <s_epik_input>
W0NIM11bTitdKFtDSDNdKShbQ0gzXSlbQ0gyXVtDSDJdT0MoPU8pW0NIMl1bQ0gyXUMoPU8pT1tDSDJdW0NIMl1bTitdKFtDSDNdKShbQ0gzXSlbQ0gzXQ==

> <s_epik_cmdline>
J2VwaWtfYXBwJywgJy1pbWFlJywgJ2xpZ2FuZF9wcm8ubWFlJywgJy1vbWFlJywgJ2xpZ2FuZF9wcmVwLm1hZScsICctbXMnLCAnMScsICctcGgnLCAnNycsICctcGh0JywgJzAuNScsICctbnQn

> <r_lp_tautomer_probability>
1

> <r_epik_Ionization_Penalty>
  0.0000

> <r_epik_Ionization_Penalty_Charging>
  0.0000

> <r_epik_Ionization_Penalty_Neutral>
  0.0000

> <r_epik_State_Penalty>
 -0.0000

> <r_epik_Charging_Adjusted_Penalty>
0

> <i_epik_Tot_Q>
2

> <i_epik_Tot_abs_Q>
2

> <s_epik_Chemistry_Notes>
This compound has an ester and may undergo hydrolysis at high or low pH.

$$$$
