2ha5_ligand
                    3D
 Schrodinger Suite 2020-3.
 26 25  0  0  1  0            999 V2000
   26.9090   18.5890   14.9250 N   0  3  0  0  0  0
   27.4900   19.9370   14.9680 C   0  0  0  0  0  0
   28.0000   20.5080   13.6480 C   0  0  0  0  0  0
   29.5450   19.0820   11.8600 C   0  0  0  0  0  0
   28.4790   19.0370   11.3080 O   0  0  0  0  0  0
   30.7480   18.3940   11.3190 C   0  0  0  0  0  0
   25.4720   18.6650   14.7640 C   0  0  0  0  0  0
   27.4390   17.7420   13.8710 C   0  0  0  0  0  0
   27.1920   17.9440   16.1990 C   0  0  0  0  0  0
   29.6340   19.9520   13.2590 S   0  0  0  0  0  0
   26.7346   20.6505   15.3291 H   0  0  0  0  0  0
   28.3542   19.9423   15.6485 H   0  0  0  0  0  0
   27.3320   20.1967   12.8314 H   0  0  0  0  0  0
   28.0200   21.6062   13.7069 H   0  0  0  0  0  0
   30.4841   17.8726   10.3871 H   0  0  0  0  0  0
   31.1156   17.6646   12.0558 H   0  0  0  0  0  0
   31.5337   19.1361   11.1141 H   0  0  0  0  0  0
   25.2356   19.1502   13.8055 H   0  0  0  0  0  0
   25.0413   19.2523   15.5883 H   0  0  0  0  0  0
   25.0476   17.6503   14.7759 H   0  0  0  0  0  0
   27.2395   18.2051   12.8934 H   0  0  0  0  0  0
   26.9546   16.7554   13.9151 H   0  0  0  0  0  0
   28.5243   17.6241   14.0063 H   0  0  0  0  0  0
   26.8010   18.5644   17.0189 H   0  0  0  0  0  0
   28.2792   17.8245   16.3159 H   0  0  0  0  0  0
   26.7096   16.9558   16.2248 H   0  0  0  0  0  0
  1  2  1  0  0  0
  1  7  1  0  0  0
  1  8  1  0  0  0
  1  9  1  0  0  0
  2  3  1  0  0  0
  2 11  1  0  0  0
  2 12  1  0  0  0
  3 10  1  0  0  0
  3 13  1  0  0  0
  3 14  1  0  0  0
  4  5  2  0  0  0
  4  6  1  0  0  0
  4 10  1  0  0  0
  6 15  1  0  0  0
  6 16  1  0  0  0
  6 17  1  0  0  0
  7 18  1  0  0  0
  7 19  1  0  0  0
  7 20  1  0  0  0
  8 21  1  0  0  0
  8 22  1  0  0  0
  8 23  1  0  0  0
  9 24  1  0  0  0
  9 25  1  0  0  0
  9 26  1  0  0  0
M  CHG  1   1   1
M  END
> <s_m_source_file>
../2ha5_ligand.sdf

> <i_m_source_file_index>
1

> <s_epik_input>
W0NIM11bTitdKFtDSDNdKShbQ0gzXSlbQ0gyXVtDSDJdU0MoPU8pW0NIM10=

> <s_epik_cmdline>
J2VwaWtfYXBwJywgJy1pbWFlJywgJ2xpZ2FuZF9wcm8ubWFlJywgJy1vbWFlJywgJ2xpZ2FuZF9wcmVwLm1hZScsICctbXMnLCAnMScsICctcGgnLCAnNycsICctcGh0JywgJzAuNScsICctbnQn

> <r_lp_tautomer_probability>
1

> <r_epik_Ionization_Penalty>
  0.0000

> <r_epik_Ionization_Penalty_Charging>
  0.0000

> <r_epik_Ionization_Penalty_Neutral>
  0.0000

> <r_epik_State_Penalty>
 -0.0000

> <r_epik_Charging_Adjusted_Penalty>
0

> <i_epik_Tot_Q>
1

> <i_epik_Tot_abs_Q>
1

$$$$
