2ha6_ligand
                    3D
 Schrodinger Suite 2020-3.
 50 49  0  0  1  0            999 V2000
   29.8800   22.7060   11.9510 O   0  0  0  0  0  0
   29.0470   21.7970   11.9270 C   0  0  0  0  0  0
   28.4480   21.3820   13.1960 O   0  0  0  0  0  0
   27.1210   20.8690   13.3510 C   0  0  0  0  0  0
   27.1330   19.3310   13.2960 C   0  0  0  0  0  0
   26.6560   18.7150   14.5420 N   0  3  0  0  0  0
   26.7300   17.2370   14.4320 C   0  0  0  0  0  0
   27.5340   19.1400   15.6510 C   0  0  0  0  0  0
   25.2510   19.1210   14.7480 C   0  0  0  0  0  0
   28.6840   21.1190   10.6200 C   0  0  0  0  0  0
   29.4930   21.6940    9.4390 C   0  0  0  0  0  0
   30.9080   21.1880    9.5120 C   0  0  0  0  0  0
   31.0890   20.0260    9.8600 O   0  0  0  0  0  0
   32.0310   22.0710    9.2110 O   0  0  0  0  0  0
   33.3940   21.6170    9.3760 C   0  0  0  0  0  0
   34.4310   22.4140    8.5670 C   0  0  0  0  0  0
   35.2390   23.3440    9.3830 N   0  3  0  0  0  0
   34.3670   24.4050    9.8950 C   0  0  0  0  0  0
   35.8800   22.6350   10.4990 C   0  0  0  0  0  0
   36.2890   23.9380    8.5470 C   0  0  0  0  0  0
   26.7147   21.1904   14.3214 H   0  0  0  0  0  0
   26.4828   21.2523   12.5412 H   0  0  0  0  0  0
   26.4804   18.9882   12.4795 H   0  0  0  0  0  0
   28.1596   18.9785   13.1175 H   0  0  0  0  0  0
   27.7759   16.9327   14.2785 H   0  0  0  0  0  0
   26.1216   16.9019   13.5790 H   0  0  0  0  0  0
   26.3473   16.7809   15.3570 H   0  0  0  0  0  0
   28.5648   18.8138   15.4482 H   0  0  0  0  0  0
   27.1840   18.6867   16.5901 H   0  0  0  0  0  0
   27.5071   20.2360   15.7405 H   0  0  0  0  0  0
   24.6426   18.7812   13.8969 H   0  0  0  0  0  0
   25.1936   20.2168   14.8255 H   0  0  0  0  0  0
   24.8704   18.6674   15.6751 H   0  0  0  0  0  0
   28.8956   20.0421   10.6945 H   0  0  0  0  0  0
   27.6139   21.2690   10.4139 H   0  0  0  0  0  0
   29.0360   21.3737    8.4911 H   0  0  0  0  0  0
   29.4916   22.7926    9.4940 H   0  0  0  0  0  0
   33.6818   21.6979   10.4346 H   0  0  0  0  0  0
   33.4727   20.5682    9.0537 H   0  0  0  0  0  0
   35.1290   21.7179    8.0789 H   0  0  0  0  0  0
   33.9167   23.0141    7.8019 H   0  0  0  0  0  0
   33.5793   23.9616   10.5219 H   0  0  0  0  0  0
   33.9065   24.9401    9.0514 H   0  0  0  0  0  0
   34.9608   25.1095   10.4959 H   0  0  0  0  0  0
   35.1074   22.1823   11.1379 H   0  0  0  0  0  0
   36.4754   23.3455   11.0911 H   0  0  0  0  0  0
   36.5370   21.8464   10.1034 H   0  0  0  0  0  0
   35.8275   24.4741    7.7046 H   0  0  0  0  0  0
   36.9440   23.1430    8.1611 H   0  0  0  0  0  0
   36.8824   24.6421    9.1488 H   0  0  0  0  0  0
  1  2  2  0  0  0
  2  3  1  0  0  0
  2 10  1  0  0  0
  3  4  1  0  0  0
  4  5  1  0  0  0
  4 21  1  0  0  0
  4 22  1  0  0  0
  5  6  1  0  0  0
  5 23  1  0  0  0
  5 24  1  0  0  0
  6  7  1  0  0  0
  6  8  1  0  0  0
  6  9  1  0  0  0
  7 25  1  0  0  0
  7 26  1  0  0  0
  7 27  1  0  0  0
  8 28  1  0  0  0
  8 29  1  0  0  0
  8 30  1  0  0  0
  9 31  1  0  0  0
  9 32  1  0  0  0
  9 33  1  0  0  0
 10 11  1  0  0  0
 10 34  1  0  0  0
 10 35  1  0  0  0
 11 12  1  0  0  0
 11 36  1  0  0  0
 11 37  1  0  0  0
 12 13  2  0  0  0
 12 14  1  0  0  0
 14 15  1  0  0  0
 15 16  1  0  0  0
 15 38  1  0  0  0
 15 39  1  0  0  0
 16 17  1  0  0  0
 16 40  1  0  0  0
 16 41  1  0  0  0
 17 18  1  0  0  0
 17 19  1  0  0  0
 17 20  1  0  0  0
 18 42  1  0  0  0
 18 43  1  0  0  0
 18 44  1  0  0  0
 19 45  1  0  0  0
 19 46  1  0  0  0
 19 47  1  0  0  0
 20 48  1  0  0  0
 20 49  1  0  0  0
 20 50  1  0  0  0
M  CHG  2   6   1  17   1
M  END
> <s_m_source_file>
../2ha6_ligand.sdf

> <i_m_source_file_index>
1

> <s_epik_input>
W0NIM11bTitdKFtDSDNdKShbQ0gzXSlbQ0gyXVtDSDJdT0MoPU8pW0NIMl1bQ0gyXUMoPU8pT1tDSDJdW0NIMl1bTitdKFtDSDNdKShbQ0gzXSlbQ0gzXQ==

> <s_epik_cmdline>
J2VwaWtfYXBwJywgJy1pbWFlJywgJ2xpZ2FuZF9wcm8ubWFlJywgJy1vbWFlJywgJ2xpZ2FuZF9wcmVwLm1hZScsICctbXMnLCAnMScsICctcGgnLCAnNycsICctcGh0JywgJzAuNScsICctbnQn

> <r_lp_tautomer_probability>
1

> <r_epik_Ionization_Penalty>
  0.0000

> <r_epik_Ionization_Penalty_Charging>
  0.0000

> <r_epik_Ionization_Penalty_Neutral>
  0.0000

> <r_epik_State_Penalty>
 -0.0000

> <r_epik_Charging_Adjusted_Penalty>
0

> <i_epik_Tot_Q>
2

> <i_epik_Tot_abs_Q>
2

> <s_epik_Chemistry_Notes>
This compound has an ester and may undergo hydrolysis at high or low pH.

$$$$
