2ha7_ligand
                    3D
 Schrodinger Suite 2020-3.
 32 31  0  0  1  0            999 V2000
   30.2480   22.1770   10.1840 C   0  0  0  0  0  0
   31.6850   22.0450    9.7340 C   0  0  0  0  0  0
   32.4640   23.3310    9.9890 C   0  0  0  0  0  0
   33.8420   23.3260    9.3580 C   0  0  0  0  0  0
   34.0920   22.6290    8.3860 O   0  0  0  0  0  0
   35.0340   24.3000   10.0000 S   0  0  0  0  0  0
   36.2660   24.5110    8.7490 C   0  0  0  0  0  0
   36.5530   26.0030    8.5430 C   0  0  0  0  0  0
   37.9290   26.3160    8.0860 N   0  3  0  0  0  0
   38.9220   26.0530    9.1420 C   0  0  0  0  0  0
   38.0050   27.7530    7.7600 C   0  0  0  0  0  0
   38.2700   25.5340    6.8800 C   0  0  0  0  0  0
   29.7142   21.2356    9.9871 H   0  0  0  0  0  0
   29.7642   22.9954    9.6307 H   0  0  0  0  0  0
   30.2199   22.3960   11.2616 H   0  0  0  0  0  0
   32.1688   21.2266   10.2873 H   0  0  0  0  0  0
   31.7131   21.8259    8.6564 H   0  0  0  0  0  0
   31.9094   24.1844    9.5717 H   0  0  0  0  0  0
   32.5939   23.4724   11.0721 H   0  0  0  0  0  0
   37.1919   24.0033    9.0569 H   0  0  0  0  0  0
   35.9070   24.0774    7.8039 H   0  0  0  0  0  0
   35.8677   26.4067    7.7831 H   0  0  0  0  0  0
   36.4051   26.5393    9.4920 H   0  0  0  0  0  0
   38.6664   26.6361   10.0390 H   0  0  0  0  0  0
   39.9211   26.3456    8.7868 H   0  0  0  0  0  0
   38.9198   24.9810    9.3885 H   0  0  0  0  0  0
   37.7527   28.3452    8.6520 H   0  0  0  0  0  0
   37.2938   27.9840    6.9532 H   0  0  0  0  0  0
   39.0252   28.0010    7.4317 H   0  0  0  0  0  0
   38.2164   24.4601    7.1121 H   0  0  0  0  0  0
   39.2894   25.7883    6.5542 H   0  0  0  0  0  0
   37.5581   25.7713    6.0757 H   0  0  0  0  0  0
  1  2  1  0  0  0
  1 13  1  0  0  0
  1 14  1  0  0  0
  1 15  1  0  0  0
  2  3  1  0  0  0
  2 16  1  0  0  0
  2 17  1  0  0  0
  3  4  1  0  0  0
  3 18  1  0  0  0
  3 19  1  0  0  0
  4  5  2  0  0  0
  4  6  1  0  0  0
  6  7  1  0  0  0
  7  8  1  0  0  0
  7 20  1  0  0  0
  7 21  1  0  0  0
  8  9  1  0  0  0
  8 22  1  0  0  0
  8 23  1  0  0  0
  9 10  1  0  0  0
  9 11  1  0  0  0
  9 12  1  0  0  0
 10 24  1  0  0  0
 10 25  1  0  0  0
 10 26  1  0  0  0
 11 27  1  0  0  0
 11 28  1  0  0  0
 11 29  1  0  0  0
 12 30  1  0  0  0
 12 31  1  0  0  0
 12 32  1  0  0  0
M  CHG  1   9   1
M  END
> <s_m_source_file>
../2ha7_ligand.sdf

> <i_m_source_file_index>
1

> <s_epik_input>
W0NIM11bQ0gyXVtDSDJdQyg9TylTW0NIMl1bQ0gyXVtOK10oW0NIM10pKFtDSDNdKVtDSDNd

> <s_epik_cmdline>
J2VwaWtfYXBwJywgJy1pbWFlJywgJ2xpZ2FuZF9wcm8ubWFlJywgJy1vbWFlJywgJ2xpZ2FuZF9wcmVwLm1hZScsICctbXMnLCAnMScsICctcGgnLCAnNycsICctcGh0JywgJzAuNScsICctbnQn

> <r_lp_tautomer_probability>
1

> <r_epik_Ionization_Penalty>
  0.0000

> <r_epik_Ionization_Penalty_Charging>
  0.0000

> <r_epik_Ionization_Penalty_Neutral>
  0.0000

> <r_epik_State_Penalty>
 -0.0000

> <r_epik_Charging_Adjusted_Penalty>
0

> <i_epik_Tot_Q>
1

> <i_epik_Tot_abs_Q>
1

$$$$
