2hai_ligand
                    3D
 Schrodinger Suite 2020-3.
 53 55  0  0  1  0            999 V2000
   39.1110   11.5860   60.6420 F   0  0  0  0  0  0
   40.2650   11.9050   60.0460 C   0  0  0  0  0  0
   41.4800   11.3840   60.5740 C   0  0  0  0  0  0
   41.4390   10.5910   61.6780 O   0  0  0  0  0  0
   42.0300   11.0530   62.8990 C   0  0  0  0  0  0
   41.2620   12.2940   63.4310 C   0  0  0  0  0  0
   42.0010    9.9160   63.9060 C   0  0  0  0  0  0
   42.7100   11.7240   59.9480 C   0  0  0  0  0  0
   42.7740   12.5580   58.8210 C   0  0  0  0  0  0
   41.5580   13.0580   58.2960 C   0  0  0  0  0  0
   40.3320   12.7240   58.9270 C   0  0  0  0  0  0
   41.5920   13.9510   57.0900 C   0  0  0  0  0  0
   41.1920   13.1240   55.8090 C   0  0  0  0  0  0
   40.9750   13.9630   54.5430 C   0  0  2  0  0  0
   42.1770   14.8980   54.1930 C   0  0  0  0  0  0
   39.7950   14.9540   54.6850 C   0  0  0  0  0  0
   38.4350   14.3430   55.1080 C   0  0  0  0  0  0
   39.4140   15.6830   53.3670 C   0  0  0  0  0  0
   38.1600   16.4720   53.8180 C   0  0  0  0  0  0
   37.4910   15.4880   54.7950 C   0  0  0  0  0  0
   40.6560   13.1010   53.3910 O   0  0  0  0  0  0
   41.6990   12.3680   52.8820 C   0  0  0  0  0  0
   41.5120   11.2790   52.3380 O   0  0  0  0  0  0
   43.0780   12.9270   53.0080 C   0  0  0  0  0  0
   43.3370   14.0930   53.7090 C   0  0  0  0  0  0
   44.6150   14.5000   53.9750 O   0  0  0  0  0  0
   43.0699   11.3212   62.6608 H   0  0  0  0  0  0
   41.3008   13.0982   62.6815 H   0  0  0  0  0  0
   41.7278   12.6407   64.3653 H   0  0  0  0  0  0
   40.2136   12.0219   63.6229 H   0  0  0  0  0  0
   42.5516    9.0539   63.5015 H   0  0  0  0  0  0
   40.9581    9.6260   64.1016 H   0  0  0  0  0  0
   42.4723   10.2448   64.8440 H   0  0  0  0  0  0
   43.6368   11.3226   60.3579 H   0  0  0  0  0  0
   43.7303   12.8128   58.3641 H   0  0  0  0  0  0
   39.4057   13.1265   58.5169 H   0  0  0  0  0  0
   40.8815   14.7795   57.2271 H   0  0  0  0  0  0
   42.6068   14.3557   56.9619 H   0  0  0  0  0  0
   41.9870   12.4000   55.5769 H   0  0  0  0  0  0
   40.2509   12.5869   55.9984 H   0  0  0  0  0  0
   41.8756   15.6030   53.4042 H   0  0  0  0  0  0
   42.4788   15.4586   55.0900 H   0  0  0  0  0  0
   40.2156   15.6086   55.4626 H   0  0  0  0  0  0
   38.2389   13.4382   54.5139 H   0  0  0  0  0  0
   38.4671   14.0807   56.1758 H   0  0  0  0  0  0
   40.2476   16.3270   53.0500 H   0  0  0  0  0  0
   39.2067   14.9394   52.5834 H   0  0  0  0  0  0
   38.4711   17.4107   54.2997 H   0  0  0  0  0  0
   37.5349   16.6991   52.9418 H   0  0  0  0  0  0
   36.5731   15.0915   54.3365 H   0  0  0  0  0  0
   37.2370   16.0184   55.7246 H   0  0  0  0  0  0
   43.7274   12.1922   53.5063 H   0  0  0  0  0  0
   43.4765   13.1492   52.0071 H   0  0  0  0  0  0
  1  2  1  0  0  0
  2  3  2  0  0  0
  2 11  1  0  0  0
  3  4  1  0  0  0
  3  8  1  0  0  0
  4  5  1  0  0  0
  5  6  1  0  0  0
  5  7  1  0  0  0
  5 27  1  0  0  0
  6 28  1  0  0  0
  6 29  1  0  0  0
  6 30  1  0  0  0
  7 31  1  0  0  0
  7 32  1  0  0  0
  7 33  1  0  0  0
  8  9  2  0  0  0
  8 34  1  0  0  0
  9 10  1  0  0  0
  9 35  1  0  0  0
 10 11  2  0  0  0
 10 12  1  0  0  0
 11 36  1  0  0  0
 12 13  1  0  0  0
 12 37  1  0  0  0
 12 38  1  0  0  0
 13 14  1  0  0  0
 13 39  1  0  0  0
 13 40  1  0  0  0
 14 15  1  0  0  0
 14 16  1  0  0  0
 14 21  1  0  0  0
 15 25  1  0  0  0
 15 41  1  0  0  0
 15 42  1  0  0  0
 16 17  1  0  0  0
 16 18  1  0  0  0
 16 43  1  0  0  0
 17 20  1  0  0  0
 17 44  1  0  0  0
 17 45  1  0  0  0
 18 19  1  0  0  0
 18 46  1  0  0  0
 18 47  1  0  0  0
 19 20  1  0  0  0
 19 48  1  0  0  0
 19 49  1  0  0  0
 20 50  1  0  0  0
 20 51  1  0  0  0
 21 22  1  0  0  0
 22 23  2  0  0  0
 22 24  1  0  0  0
 24 25  1  0  0  0
 24 52  1  0  0  0
 24 53  1  0  0  0
 25 26  2  0  0  0
M  END
> <s_m_source_file>
../2hai_ligand.sdf

> <i_m_source_file_index>
1

> <s_epik_input>
W0NIM11bQ0hdKFtDSDNdKU9jKGMxRilbY0hdW2NIXWMoW2NIXTEpW0NIMl1bQ0gyXVtDQF0yKFtDSDJdQyhbT0hdKT1bQ0hdQyhPMik9TylbQ0hdM1tDSDJdW0NIMl1bQ0gyXVtDSDJdMw==

> <s_epik_cmdline>
J2VwaWtfYXBwJywgJy1pbWFlJywgJ2xpZ2FuZF9wcm8ubWFlJywgJy1vbWFlJywgJ2xpZ2FuZF9wcmVwLm1hZScsICctbXMnLCAnMScsICctcGgnLCAnNycsICctcGh0JywgJzAuNScsICctbnQn

> <r_lp_tautomer_probability>
0.99999998

> <r_epik_Ionization_Penalty>
  0.0001

> <r_epik_Ionization_Penalty_Charging>
  0.0000

> <r_epik_Ionization_Penalty_Neutral>
  0.0001

> <r_epik_State_Penalty>
  0.0000

> <r_epik_Charging_Adjusted_Penalty>
1.04070437374533e-05

> <i_epik_Tot_Q>
0

> <i_epik_Tot_abs_Q>
0

> <s_epik_Chemistry_Notes>
This compound has an ester and may undergo hydrolysis at high or low pH.

$$$$
