2haw_ligand
                    3D
 Schrodinger Suite 2020-3.
 11 10  0  0  1  0            999 V2000
  -10.8010   -7.7140  125.3170 P   0  0  0  0  0  0
  -10.3070   -8.3430  124.0260 O   0  0  0  0  0  0
  -10.0050   -8.6030  126.4190 O   0  5  0  0  0  0
  -10.4990   -6.1790  125.4690 O   0  5  0  0  0  0
  -12.6090   -7.9040  125.5370 N   0  0  1  0  0  0
  -13.8650   -7.1380  125.6220 P   0  0  0  0  0  0
  -14.7670   -7.8830  124.5540 O   0  5  0  0  0  0
  -14.4230   -7.0990  126.9460 O   0  0  0  0  0  0
  -13.4520   -5.6580  125.2260 O   0  0  0  0  0  0
  -13.0142   -8.5236  124.7234 H   0  0  0  0  0  0
  -13.0000   -5.4574  124.2434 H   0  0  0  0  0  0
  1  2  2  0  0  0
  1  3  1  0  0  0
  1  4  1  0  0  0
  1  5  1  0  0  0
  5  6  1  0  0  0
  5 10  1  0  0  0
  6  7  1  0  0  0
  6  8  2  0  0  0
  6  9  1  0  0  0
  9 11  1  0  0  0
M  CHG  3   3  -1   4  -1   7  -1
M  END
> <s_m_source_file>
../2haw_ligand.sdf

> <i_m_source_file_index>
1

> <s_epik_input>
Tz1QKFtPSF0pKFtPSF0pW05IXVAoPU8pKFtPSF0pW09IXQ==

> <s_epik_cmdline>
J2VwaWtfYXBwJywgJy1pbWFlJywgJ2xpZ2FuZF9wcm8ubWFlJywgJy1vbWFlJywgJ2xpZ2FuZF9wcmVwLm1hZScsICctbXMnLCAnMScsICctcGgnLCAnNycsICctcGh0JywgJzAuNScsICctbnQn

> <r_epik_Ionization_Penalty>
  0.3438

> <r_epik_Ionization_Penalty_Charging>
  0.2194

> <r_epik_Ionization_Penalty_Neutral>
  0.1244

> <r_epik_State_Penalty>
  0.3027

> <r_epik_Charging_Adjusted_Penalty>
0.522081868939192

> <i_epik_Tot_Q>
-3

> <i_epik_Tot_abs_Q>
3

$$$$
