2hb3_ligand
                    3D
 Schrodinger Suite 2020-3.
 79 82  0  0  1  0            999 V2000
   15.2860   24.3430   19.2370 C   0  0  2  0  0  0
   15.3400   25.1730   17.9460 C   0  0  0  0  0  0
   18.2810   23.9840   18.6050 O   0  0  0  0  0  0
   18.0680   23.7320   17.2270 C   0  0  0  0  0  0
   16.7900   25.6890   17.7870 C   0  0  2  0  0  0
   16.5030   24.8130   20.0740 C   0  0  0  0  0  0
   17.6260   25.0770   16.6300 C   0  0  0  0  0  0
   17.5880   25.1980   19.0370 C   0  0  1  0  0  0
   15.5440   22.9430   18.9410 O   0  0  0  0  0  0
   14.5380   22.2580   18.3170 C   0  0  0  0  0  0
   14.0220   20.1580   17.1490 C   0  0  2  0  0  0
   14.8010   19.6400   15.8920 C   0  0  0  0  0  0
   15.1820   20.8310   15.0260 C   0  0  0  0  0  0
   14.1900   21.5440   14.3280 C   0  0  0  0  0  0
   14.5270   22.6620   13.5120 C   0  0  0  0  0  0
   15.8810   23.0860   13.3830 C   0  0  0  0  0  0
   16.8580   22.3660   14.0850 C   0  0  0  0  0  0
   16.5190   21.2560   14.8940 C   0  0  0  0  0  0
   13.4360   22.7150   18.1930 O   0  0  0  0  0  0
   14.9600   21.0490   17.8850 N   0  0  0  0  0  0
   13.6620   19.0240   18.1360 C   0  0  1  0  0  0
   12.5810   18.0670   17.5630 C   0  0  0  0  0  0
   10.3020   18.4610   18.6420 C   0  0  0  0  0  0
   10.6550   19.1300   20.0030 C   0  0  0  0  0  0
    9.6130   18.5880   21.0130 C   0  0  0  0  0  0
   10.5670   20.6690   19.8890 C   0  0  0  0  0  0
   14.8140   18.2040   18.4020 O   0  0  0  0  0  0
   11.7380   19.3090   15.1510 O   0  0  0  0  0  0
    9.6860   20.2520   16.3360 O   0  0  0  0  0  0
   11.2830   18.7200   17.5740 N   0  0  2  0  0  0
   10.6330   19.1580   16.1040 S   0  0  0  0  0  0
    9.6140   17.8010   15.5420 C   0  0  0  0  0  0
    8.2340   17.8890   15.7040 C   0  0  0  0  0  0
    7.4470   16.8220   15.2520 C   0  0  0  0  0  0
    8.0700   15.7080   14.6530 C   0  0  0  0  0  0
    9.4550   15.6570   14.5070 C   0  0  0  0  0  0
   10.2610   16.7160   14.9550 C   0  0  0  0  0  0
    7.1900   14.5760   14.1760 C   0  0  0  0  0  0
    7.1330   13.5880   15.1820 O   0  0  0  0  0  0
   14.3001   24.4075   19.7206 H   0  0  0  0  0  0
   15.0609   24.5397   17.0910 H   0  0  0  0  0  0
   14.6376   26.0161   18.0225 H   0  0  0  0  0  0
   19.0036   23.3768   16.7703 H   0  0  0  0  0  0
   17.2887   22.9644   17.1108 H   0  0  0  0  0  0
   16.6672   26.7691   17.6189 H   0  0  0  0  0  0
   16.2119   25.6750   20.6923 H   0  0  0  0  0  0
   16.8397   23.9923   20.7244 H   0  0  0  0  0  0
   18.5137   25.6756   16.3778 H   0  0  0  0  0  0
   17.0342   24.8976   15.7203 H   0  0  0  0  0  0
   18.3363   25.8948   19.4426 H   0  0  0  0  0  0
   13.1029   20.6734   16.8334 H   0  0  0  0  0  0
   15.7084   19.1094   16.2160 H   0  0  0  0  0  0
   14.1593   18.9535   15.3201 H   0  0  0  0  0  0
   13.1478   21.2362   14.4129 H   0  0  0  0  0  0
   13.7408   23.1986   12.9809 H   0  0  0  0  0  0
   16.1479   23.9400   12.7605 H   0  0  0  0  0  0
   17.9022   22.6683   14.0057 H   0  0  0  0  0  0
   17.3060   20.7200   15.4246 H   0  0  0  0  0  0
   15.9930   20.7227   18.0757 H   0  0  0  0  0  0
   13.3476   19.4931   19.0800 H   0  0  0  0  0  0
   12.8414   17.7968   16.5290 H   0  0  0  0  0  0
   12.5334   17.1568   18.1789 H   0  0  0  0  0  0
   10.2458   17.3703   18.7732 H   0  0  0  0  0  0
    9.3309   18.8383   18.2889 H   0  0  0  0  0  0
   11.6820   18.9029   20.3250 H   0  0  0  0  0  0
    9.6972   17.4930   21.0746 H   0  0  0  0  0  0
    8.6013   18.8597   20.6774 H   0  0  0  0  0  0
    9.8006   19.0265   22.0042 H   0  0  0  0  0  0
   11.3160   21.0266   19.1671 H   0  0  0  0  0  0
   10.7609   21.1212   20.8728 H   0  0  0  0  0  0
    9.5616   20.9543   19.5460 H   0  0  0  0  0  0
   15.7262   18.6557   18.8189 H   0  0  0  0  0  0
    7.7789   18.7633   16.1693 H   0  0  0  0  0  0
    6.3630   16.8527   15.3623 H   0  0  0  0  0  0
    9.9170   14.7868   14.0406 H   0  0  0  0  0  0
   11.3454   16.6902   14.8481 H   0  0  0  0  0  0
    6.1790   14.9585   13.9720 H   0  0  0  0  0  0
    7.6121   14.1463   13.2556 H   0  0  0  0  0  0
    6.5377   12.6765   15.0246 H   0  0  0  0  0  0
  1  2  1  0  0  0
  1  6  1  0  0  0
  1  9  1  0  0  0
  1 40  1  0  0  0
  2  5  1  0  0  0
  2 41  1  0  0  0
  2 42  1  0  0  0
  3  4  1  0  0  0
  3  8  1  0  0  0
  4  7  1  0  0  0
  4 43  1  0  0  0
  4 44  1  0  0  0
  5  7  1  0  0  0
  5  8  1  0  0  0
  5 45  1  0  0  0
  6  8  1  0  0  0
  6 46  1  0  0  0
  6 47  1  0  0  0
  7 48  1  0  0  0
  7 49  1  0  0  0
  8 50  1  0  0  0
  9 10  1  0  0  0
 10 19  2  0  0  0
 10 20  1  0  0  0
 11 12  1  0  0  0
 11 20  1  0  0  0
 11 21  1  0  0  0
 11 51  1  0  0  0
 12 13  1  0  0  0
 12 52  1  0  0  0
 12 53  1  0  0  0
 13 14  2  0  0  0
 13 18  1  0  0  0
 14 15  1  0  0  0
 14 54  1  0  0  0
 15 16  2  0  0  0
 15 55  1  0  0  0
 16 17  1  0  0  0
 16 56  1  0  0  0
 17 18  2  0  0  0
 17 57  1  0  0  0
 18 58  1  0  0  0
 20 59  1  0  0  0
 21 22  1  0  0  0
 21 27  1  0  0  0
 21 60  1  0  0  0
 22 30  1  0  0  0
 22 61  1  0  0  0
 22 62  1  0  0  0
 23 24  1  0  0  0
 23 30  1  0  0  0
 23 63  1  0  0  0
 23 64  1  0  0  0
 24 25  1  0  0  0
 24 26  1  0  0  0
 24 65  1  0  0  0
 25 66  1  0  0  0
 25 67  1  0  0  0
 25 68  1  0  0  0
 26 69  1  0  0  0
 26 70  1  0  0  0
 26 71  1  0  0  0
 27 72  1  0  0  0
 28 31  2  0  0  0
 29 31  2  0  0  0
 30 31  1  0  0  0
 31 32  1  0  0  0
 32 33  2  0  0  0
 32 37  1  0  0  0
 33 34  1  0  0  0
 33 73  1  0  0  0
 34 35  2  0  0  0
 34 74  1  0  0  0
 35 36  1  0  0  0
 35 38  1  0  0  0
 36 37  2  0  0  0
 36 75  1  0  0  0
 37 76  1  0  0  0
 38 39  1  0  0  0
 38 77  1  0  0  0
 38 78  1  0  0  0
 39 79  1  0  0  0
M  END
> <s_m_source_file>
../2hb3_ligand.sdf

> <i_m_source_file_index>
1

> <s_epik_input>
W0NIMl0xW0NIMl1PW0NAQEhdKFtDQEBIXTEyKVtDSDJdW0NAQEhdKFtDSDJdMilPQyg9TylbTkhdW0NAQEhdKFtDSDJdYzNbY0hdW2NIXVtjSF1bY0hdW2NIXTMpW0NASF0oW09IXSlbQ0gyXU4oW0NIMl1bQ0hdKFtDSDNdKVtDSDNdKVMoPU8pKD1PKWM0W2NIXVtjSF1jKFtjSF1bY0hdNClbQ0gyXVtPSF0=

> <s_epik_cmdline>
J2VwaWtfYXBwJywgJy1pbWFlJywgJ2xpZ2FuZF9wcm8ubWFlJywgJy1vbWFlJywgJ2xpZ2FuZF9wcmVwLm1hZScsICctbXMnLCAnMScsICctcGgnLCAnNycsICctcGh0JywgJzAuNScsICctbnQn

> <r_lp_tautomer_probability>
1

> <r_epik_Ionization_Penalty>
  0.0000

> <r_epik_Ionization_Penalty_Charging>
  0.0000

> <r_epik_Ionization_Penalty_Neutral>
  0.0000

> <r_epik_State_Penalty>
 -0.0000

> <r_epik_Charging_Adjusted_Penalty>
0

> <i_epik_Tot_Q>
0

> <i_epik_Tot_abs_Q>
0

> <s_epik_Chemistry_Notes>
This compound has an ester and may undergo hydrolysis at high or low pH.

$$$$
