2hb9_ligand
                    3D
 Schrodinger Suite 2020-3.
 23 24  0  0  1  0            999 V2000
   11.1150   28.9820   30.8130 N   0  0  0  0  0  0
   12.2480   29.6670   30.6620 N   0  0  0  0  0  0
   12.6460   30.7230   31.3580 C   0  0  0  0  0  0
   11.7670   31.5530   32.6420 S   0  5  0  0  0  0
   13.8390   31.1480   30.9240 N   0  0  0  0  0  0
   14.1670   30.2500   29.8740 N   0  0  0  0  0  0
   13.1580   29.3370   29.7590 C   0  0  0  0  0  0
   12.9880   28.2210   28.7970 C   0  0  0  0  0  0
   12.3790   28.5770   27.5860 C   0  0  0  0  0  0
   12.1300   27.6210   26.6050 C   0  0  0  0  0  0
   12.4880   26.2970   26.8700 C   0  0  0  0  0  0
   13.0770   25.9390   28.0880 C   0  0  0  0  0  0
   13.3250   26.9050   29.0710 C   0  0  0  0  0  0
   13.9620   26.5020   30.3820 C   0  0  0  0  0  0
   10.3841   29.2891   31.5756 H   0  0  0  0  0  0
   10.9106   28.1095   30.1751 H   0  0  0  0  0  0
   12.0968   29.6150   27.4100 H   0  0  0  0  0  0
   11.6688   27.8978   25.6570 H   0  0  0  0  0  0
   12.3058   25.5308   26.1164 H   0  0  0  0  0  0
   13.3451   24.8988   28.2732 H   0  0  0  0  0  0
   14.0767   27.3893   31.0220 H   0  0  0  0  0  0
   14.9502   26.0592   30.1887 H   0  0  0  0  0  0
   13.3225   25.7644   30.8889 H   0  0  0  0  0  0
  1  2  1  0  0  0
  1 15  1  0  0  0
  1 16  1  0  0  0
  2  3  1  0  0  0
  2  7  1  0  0  0
  3  4  1  0  0  0
  3  5  2  0  0  0
  5  6  1  0  0  0
  6  7  2  0  0  0
  7  8  1  0  0  0
  8  9  2  0  0  0
  8 13  1  0  0  0
  9 10  1  0  0  0
  9 17  1  0  0  0
 10 11  2  0  0  0
 10 18  1  0  0  0
 11 12  1  0  0  0
 11 19  1  0  0  0
 12 13  2  0  0  0
 12 20  1  0  0  0
 13 14  1  0  0  0
 14 21  1  0  0  0
 14 22  1  0  0  0
 14 23  1  0  0  0
M  CHG  1   4  -1
M  END
> <s_m_source_file>
../2hb9_ligand.sdf

> <i_m_source_file_index>
1

> <s_epik_input>
W05IMl1uMWMoW1NIXSlubmMxLWMyW2NIXVtjSF1bY0hdW2NIXWMyW0NIM10=

> <s_epik_cmdline>
J2VwaWtfYXBwJywgJy1pbWFlJywgJ2xpZ2FuZF9wcm8ubWFlJywgJy1vbWFlJywgJ2xpZ2FuZF9wcmVwLm1hZScsICctbXMnLCAnMScsICctcGgnLCAnNycsICctcGh0JywgJzAuNScsICctbnQn

> <r_lp_tautomer_probability>
1

> <r_epik_Ionization_Penalty>
  0.0015

> <r_epik_Ionization_Penalty_Charging>
  0.0000

> <r_epik_Ionization_Penalty_Neutral>
  0.0015

> <r_epik_State_Penalty>
 -0.0000

> <r_epik_Charging_Adjusted_Penalty>
6.66627934431767e-09

> <i_epik_Tot_Q>
-1

> <i_epik_Tot_abs_Q>
1

$$$$
