2hd1_ligand
                    3D
 Schrodinger Suite 2020-3.
 29 30  0  0  1  0            999 V2000
   75.2400   51.9130   40.7980 N   0  0  0  0  0  0
   74.3200   52.7130   41.4380 C   0  0  0  0  0  0
   74.5170   52.8150   42.7300 N   0  0  0  0  0  0
   75.6370   52.0260   42.9590 C   0  0  3  0  0  0
   76.0960   51.4650   41.7820 C   0  0  0  0  0  0
   77.1620   50.6430   41.6220 N   0  0  0  0  0  0
   77.8550   50.3790   42.7720 C   0  0  0  0  0  0
   77.4620   50.8930   44.0110 N   0  0  0  0  0  0
   76.3520   51.7100   44.1130 C   0  0  0  0  0  0
   75.9920   52.1470   45.2100 O   0  0  0  0  0  0
   78.8500   49.6620   42.7170 O   0  0  0  0  0  0
   78.2260   50.5590   45.2030 C   0  0  0  0  0  0
   77.5140   50.0460   40.3350 C   0  0  0  0  0  0
   78.5750   50.8980   39.6280 C   0  0  0  0  0  0
   78.4320   50.7430   38.1130 C   0  0  0  0  0  0
   79.9940   50.5280   40.0580 C   0  0  0  0  0  0
   73.4789   53.2423   40.9664 H   0  0  0  0  0  0
   79.0665   49.9047   44.9284 H   0  0  0  0  0  0
   77.5756   50.0385   45.9214 H   0  0  0  0  0  0
   78.6135   51.4812   45.6605 H   0  0  0  0  0  0
   77.9144   49.0344   40.4973 H   0  0  0  0  0  0
   76.6175   49.9880   39.7002 H   0  0  0  0  0  0
   78.4112   51.9469   39.9159 H   0  0  0  0  0  0
   77.4085   51.0111   37.8120 H   0  0  0  0  0  0
   78.6360   49.6997   37.8303 H   0  0  0  0  0  0
   79.1487   51.4068   37.6073 H   0  0  0  0  0  0
   80.0883   50.6421   41.1480 H   0  0  0  0  0  0
   80.7139   51.1913   39.5562 H   0  0  0  0  0  0
   80.2012   49.4843   39.7793 H   0  0  0  0  0  0
  1  5  2  0  0  0
  1  2  1  0  0  0
  2  3  2  0  0  0
  2 17  1  0  0  0
  3  4  1  0  0  0
  4  9  1  0  0  0
  4  5  1  0  0  0
  5  6  1  0  0  0
  6 13  1  0  0  0
  6  7  1  0  0  0
  7 11  2  0  0  0
  7  8  1  0  0  0
  8 12  1  0  0  0
  8  9  1  0  0  0
  9 10  2  0  0  0
 12 18  1  0  0  0
 12 19  1  0  0  0
 12 20  1  0  0  0
 13 14  1  0  0  0
 13 21  1  0  0  0
 13 22  1  0  0  0
 14 16  1  0  0  0
 14 15  1  0  0  0
 14 23  1  0  0  0
 15 24  1  0  0  0
 15 25  1  0  0  0
 15 26  1  0  0  0
 16 27  1  0  0  0
 16 28  1  0  0  0
 16 29  1  0  0  0
M  END
> <s_m_source_file>
../2hd1_ligand.sdf

> <i_m_source_file_index>
1

> <s_epik_input>
TjE9W0NIXU49QyhbQ0hdMTIpTihDKD1PKU4oQzI9TylbQ0gzXSlbQ0gyXVtDSF0oW0NIM10pW0NIM10=

> <s_epik_cmdline>
J2VwaWtfYXBwJywgJy1pbWFlJywgJ2xpZ2FuZF9wcm8ubWFlJywgJy1vbWFlJywgJ2xpZ2FuZF9wcmVwLm1hZScsICctbXMnLCAnMScsICctcGgnLCAnNycsICctcGh0JywgJzAuNScsICctbnQn

> <r_lp_tautomer_probability>
1

> <r_epik_Ionization_Penalty>
  0.0011

> <r_epik_Ionization_Penalty_Charging>
  0.0000

> <r_epik_Ionization_Penalty_Neutral>
  0.0011

> <r_epik_State_Penalty>
 -0.0000

> <r_epik_Charging_Adjusted_Penalty>
0

> <i_epik_Tot_Q>
0

> <i_epik_Tot_abs_Q>
0

> <s_epik_Chemistry_Notes>
This compound has an imine and may undergo hydrolysis.

$$$$
