2hd6_ligand
                    3D
 Schrodinger Suite 2020-3.
 31 32  0  0  1  0            999 V2000
   -5.3400   -0.5360   15.9860 N   0  0  0  0  0  0
   -5.9140    0.8420   16.6720 S   0  0  0  0  0  0
   -5.3600    0.8590   17.9970 O   0  0  0  0  0  0
   -7.3280    0.8260   16.5340 O   0  0  0  0  0  0
   -5.2400    2.1820   15.7720 C   0  0  0  0  0  0
   -3.8790    2.1650   15.4100 C   0  0  0  0  0  0
   -3.3290    3.2450   14.6960 C   0  0  0  0  0  0
   -4.1410    4.3630   14.3340 C   0  0  0  0  0  0
   -5.5120    4.3620   14.7060 C   0  0  0  0  0  0
   -6.0560    3.2780   15.4200 C   0  0  0  0  0  0
   -3.6230    5.4800   13.6190 N   0  0  0  0  0  0
   -2.3490    5.7700   13.1940 C   0  0  0  0  0  0
   -1.3650    5.0690   13.3650 O   0  0  0  0  0  0
   -2.2570    7.0880   12.4680 C   0  0  0  0  0  0
   -1.5670    8.1470   13.1110 C   0  0  0  0  0  0
   -1.4390    9.4050   12.5000 C   0  0  0  0  0  0
   -1.9990    9.6430   11.2200 C   0  0  0  0  0  0
   -2.6890    8.6060   10.5610 C   0  0  0  0  0  0
   -2.8330    7.3230   11.1610 C   0  0  0  0  0  0
   -3.7220    6.0140   10.2970 S   0  5  0  0  0  0
   -5.7409   -1.4078   16.5238 H   0  0  0  0  0  0
   -4.2415   -0.5437   16.0425 H   0  0  0  0  0  0
   -3.2525    1.3158   15.6828 H   0  0  0  0  0  0
   -2.2755    3.2286   14.4169 H   0  0  0  0  0  0
   -6.1467    5.2062   14.4367 H   0  0  0  0  0  0
   -7.1090    3.2851   15.7014 H   0  0  0  0  0  0
   -4.2932    6.2979   13.3159 H   0  0  0  0  0  0
   -1.1289    7.9819   14.0953 H   0  0  0  0  0  0
   -0.9050   10.2042   13.0140 H   0  0  0  0  0  0
   -1.8968   10.6206   10.7489 H   0  0  0  0  0  0
   -3.1192    8.7891    9.5764 H   0  0  0  0  0  0
  1  2  1  0  0  0
  1 21  1  0  0  0
  1 22  1  0  0  0
  2  3  2  0  0  0
  2  4  2  0  0  0
  2  5  1  0  0  0
  5  6  2  0  0  0
  5 10  1  0  0  0
  6  7  1  0  0  0
  6 23  1  0  0  0
  7  8  2  0  0  0
  7 24  1  0  0  0
  8  9  1  0  0  0
  8 11  1  0  0  0
  9 10  2  0  0  0
  9 25  1  0  0  0
 10 26  1  0  0  0
 11 12  1  0  0  0
 11 27  1  0  0  0
 12 13  2  0  0  0
 12 14  1  0  0  0
 14 15  2  0  0  0
 14 19  1  0  0  0
 15 16  1  0  0  0
 15 28  1  0  0  0
 16 17  2  0  0  0
 16 29  1  0  0  0
 17 18  1  0  0  0
 17 30  1  0  0  0
 18 19  2  0  0  0
 18 31  1  0  0  0
 19 20  1  0  0  0
M  CHG  1  20  -1
M  END
> <s_m_source_file>
../2hd6_ligand.sdf

> <i_m_source_file_index>
1

> <s_epik_input>
W05IMl1TKD1PKSg9TyljMVtjSF1bY0hdYyhbY0hdW2NIXTEpW05IXUMoPU8pYzJbY0hdW2NIXVtjSF1bY0hdYzJbU0hd

> <s_epik_cmdline>
J2VwaWtfYXBwJywgJy1pbWFlJywgJ2xpZ2FuZF9wcm8ubWFlJywgJy1vbWFlJywgJ2xpZ2FuZF9wcmVwLm1hZScsICctbXMnLCAnMScsICctcGgnLCAnNycsICctcGh0JywgJzAuNScsICctbnQn

> <r_lp_tautomer_probability>
1

> <r_epik_Ionization_Penalty>
  0.0044

> <r_epik_Ionization_Penalty_Charging>
  0.0038

> <r_epik_Ionization_Penalty_Neutral>
  0.0007

> <r_epik_State_Penalty>
 -0.0000

> <r_epik_Charging_Adjusted_Penalty>
0.00378025647758152

> <i_epik_Tot_Q>
-1

> <i_epik_Tot_abs_Q>
1

$$$$
