2hdu_ligand
                    3D
 Schrodinger Suite 2020-3.
 18 18  0  0  1  0            999 V2000
   21.9940    6.2380   16.6280 O   0  0  0  0  0  0
   20.7940    6.6220   16.6310 C   0  0  0  0  0  0
   20.1930    7.0820   17.6430 O   0  5  0  0  0  0
   20.0070    6.5430   15.3580 C   0  0  0  0  0  0
   18.6730    6.9590   15.2620 C   0  0  0  0  0  0
   18.0900    6.8180   14.0060 C   0  0  0  0  0  0
   19.2030    6.1690   12.8640 S   0  0  0  0  0  0
   20.4540    6.0510   14.0270 C   0  0  0  0  0  0
   21.6860    5.5730   13.7410 N   0  0  0  0  0  0
   22.0820    5.1270   12.5400 C   0  0  0  0  0  0
   21.3800    5.0920   11.5450 O   0  0  0  0  0  0
   23.4960    4.6360   12.4920 C   0  0  0  0  0  0
   18.1280    7.3659   16.1138 H   0  0  0  0  0  0
   17.0588    7.0848   13.7746 H   0  0  0  0  0  0
   22.4548    5.5288   14.5265 H   0  0  0  0  0  0
   23.9580    4.7512   13.4836 H   0  0  0  0  0  0
   24.0626    5.2217   11.7532 H   0  0  0  0  0  0
   23.5059    3.5744   12.2039 H   0  0  0  0  0  0
  1  2  2  0  0  0
  2  3  1  0  0  0
  2  4  1  0  0  0
  4  5  1  0  0  0
  4  8  2  0  0  0
  5  6  2  0  0  0
  5 13  1  0  0  0
  6  7  1  0  0  0
  6 14  1  0  0  0
  7  8  1  0  0  0
  8  9  1  0  0  0
  9 10  1  0  0  0
  9 15  1  0  0  0
 10 11  2  0  0  0
 10 12  1  0  0  0
 12 16  1  0  0  0
 12 17  1  0  0  0
 12 18  1  0  0  0
M  CHG  1   3  -1
M  END
> <s_m_source_file>
../2hdu_ligand.sdf

> <i_m_source_file_index>
1

> <s_epik_input>
Tz1DKFtPSF0pYzFbY0hdW2NIXXNjMVtOSF1DKD1PKVtDSDNd

> <s_epik_cmdline>
J2VwaWtfYXBwJywgJy1pbWFlJywgJ2xpZ2FuZF9wcm8ubWFlJywgJy1vbWFlJywgJ2xpZ2FuZF9wcmVwLm1hZScsICctbXMnLCAnMScsICctcGgnLCAnNycsICctcGh0JywgJzAuNScsICctbnQn

> <r_lp_tautomer_probability>
1

> <r_epik_Ionization_Penalty>
  0.0044

> <r_epik_Ionization_Penalty_Charging>
  0.0044

> <r_epik_Ionization_Penalty_Neutral>
  0.0000

> <r_epik_State_Penalty>
 -0.0000

> <r_epik_Charging_Adjusted_Penalty>
0.00435275274474899

> <i_epik_Tot_Q>
-1

> <i_epik_Tot_abs_Q>
1

$$$$
