2hf8_ligand
                    3D
 Schrodinger Suite 2020-3.
 45 47  0  0  1  0            999 V2000
   -7.3620   17.4420  -24.4690 P   0  0  1  0  0  0
   -6.5810   17.3940  -25.8740 O   0  0  0  0  0  0
   -6.2640   17.6690  -23.1780 S   0  0  0  0  0  0
   -8.3170   18.6550  -24.5170 O   0  5  0  0  0  0
   -8.1380   16.1350  -24.2400 O   0  0  0  0  0  0
   -5.9680   16.0760  -26.5760 P   0  0  1  0  0  0
   -4.6350   15.7700  -26.0220 O   0  0  0  0  0  0
   -6.8800   14.9110  -26.5080 O   0  5  0  0  0  0
   -6.7110   16.3800  -29.3240 P   0  0  1  0  0  0
   -6.7330   14.9740  -29.7920 O   0  0  0  0  0  0
   -8.0640   16.8820  -28.9800 O   0  5  0  0  0  0
   -5.7170   16.5840  -28.0770 O   0  0  0  0  0  0
   -5.9680   17.2770  -30.4220 O   0  0  0  0  0  0
   -5.7700   18.6640  -30.2230 C   0  0  0  0  0  0
   -5.6540   19.3590  -31.5760 C   0  0  1  0  0  0
   -4.4380   19.0100  -32.2080 O   0  0  0  0  0  0
   -6.7480   18.9710  -32.5610 C   0  0  1  0  0  0
   -7.0430   20.1570  -33.2650 O   0  0  0  0  0  0
   -6.0920   17.9600  -33.4800 C   0  0  1  0  0  0
   -6.6300   17.9660  -34.7760 O   0  0  0  0  0  0
   -4.6710   18.4740  -33.5060 C   0  0  2  0  0  0
   -3.6100   17.4830  -33.7310 N   0  0  0  0  0  0
   -3.3420   16.3610  -32.9840 C   0  0  0  0  0  0
   -2.2410   15.7730  -33.5050 N   0  0  0  0  0  0
   -1.8000   16.5120  -34.5520 C   0  0  0  0  0  0
   -0.7230   16.3750  -35.4240 C   0  0  0  0  0  0
    0.0420   15.4220  -35.3080 O   0  0  0  0  0  0
   -0.5180   17.3160  -36.4160 N   0  0  0  0  0  0
   -1.3790   18.3900  -36.5430 C   0  0  0  0  0  0
   -1.1850   19.2950  -37.4940 N   0  0  0  0  0  0
   -2.4450   18.5250  -35.6830 N   0  0  0  0  0  0
   -2.6490   17.6010  -34.6990 C   0  0  0  0  0  0
   -5.6123   18.5550  -23.1596 H   0  0  0  0  0  0
   -6.6238   19.0804  -29.6684 H   0  0  0  0  0  0
   -4.8461   18.8237  -29.6478 H   0  0  0  0  0  0
   -5.6585   20.4408  -31.3766 H   0  0  0  0  0  0
   -7.6975   18.6036  -32.1446 H   0  0  0  0  0  0
   -7.5238   20.9994  -32.7462 H   0  0  0  0  0  0
   -6.2481   16.9070  -33.2028 H   0  0  0  0  0  0
   -7.6610   17.6219  -34.9451 H   0  0  0  0  0  0
   -4.5760   19.1988  -34.3280 H   0  0  0  0  0  0
   -3.9140   16.0083  -32.1258 H   0  0  0  0  0  0
    0.3318   17.2110  -37.1065 H   0  0  0  0  0  0
   -0.3350   19.1934  -38.1848 H   0  0  0  0  0  0
   -1.8741   20.1468  -37.5915 H   0  0  0  0  0  0
  1  2  1  0  0  0
  1  3  1  0  0  0
  1  4  1  0  0  0
  1  5  2  0  0  0
  2  6  1  0  0  0
  3 33  1  0  0  0
  6  7  2  0  0  0
  6  8  1  0  0  0
  6 12  1  0  0  0
  9 10  2  0  0  0
  9 11  1  0  0  0
  9 12  1  0  0  0
  9 13  1  0  0  0
 13 14  1  0  0  0
 14 15  1  0  0  0
 14 34  1  0  0  0
 14 35  1  0  0  0
 15 16  1  0  0  0
 15 17  1  0  0  0
 15 36  1  0  0  0
 16 21  1  0  0  0
 17 18  1  0  0  0
 17 19  1  0  0  0
 17 37  1  0  0  0
 18 38  1  0  0  0
 19 20  1  0  0  0
 19 21  1  0  0  0
 19 39  1  0  0  0
 20 40  1  0  0  0
 21 22  1  0  0  0
 21 41  1  0  0  0
 22 23  1  0  0  0
 22 32  1  0  0  0
 23 24  2  0  0  0
 23 42  1  0  0  0
 24 25  1  0  0  0
 25 26  1  0  0  0
 25 32  2  0  0  0
 26 27  2  0  0  0
 26 28  1  0  0  0
 28 29  1  0  0  0
 28 43  1  0  0  0
 29 30  1  0  0  0
 29 31  2  0  0  0
 30 44  1  0  0  0
 30 45  1  0  0  0
 31 32  1  0  0  0
M  CHG  3   4  -1   8  -1  11  -1
M  END
> <s_m_source_file>
../2hf8_ligand.sdf

> <i_m_source_file_index>
1

> <s_epik_input>
W1NIXVtQQEBdKD1PKShbT0hdKU9bUEBAXSg9TykoW09IXSlPW1BAQF0oPU8pKFtPSF0pT1tDSDJdW0NASF0xT1tDQEhdKFtDQEhdKFtPSF0pW0NAQEhdMVtPSF0pbihbY0hdbjIpYyhjMjMpbmMoW05IMl0pW25IXWMzPU8=

> <s_epik_cmdline>
J2VwaWtfYXBwJywgJy1pbWFlJywgJ2xpZ2FuZF9wcm8ubWFlJywgJy1vbWFlJywgJ2xpZ2FuZF9wcmVwLm1hZScsICctbXMnLCAnMScsICctcGgnLCAnNycsICctcGh0JywgJzAuNScsICctbnQn

> <r_lp_tautomer_probability>
0.999940409345307

> <r_epik_Ionization_Penalty>
  0.0822

> <r_epik_Ionization_Penalty_Charging>
  0.0023

> <r_epik_Ionization_Penalty_Neutral>
  0.0798

> <r_epik_State_Penalty>
  0.0706

> <r_epik_Charging_Adjusted_Penalty>
0.0729308632590282

> <i_epik_Tot_Q>
-3

> <i_epik_Tot_abs_Q>
3

> <s_epik_Chemistry_Notes>
This compound contains an acetal/aminal-like group ( X-CH(R)-Y where X, Y are N, S, or O) that may be acid/base labile, releasing an aldehyde.

$$$$
