2hha_ligand
                    3D
 Schrodinger Suite 2020-3.
 44 46  0  0  1  0            999 V2000
   38.4020   51.0630   35.1160 C   0  0  2  0  0  0
   37.0120   51.0180   35.8440 C   0  0  0  0  0  0
   36.6180   51.9990   36.4760 O   0  0  0  0  0  0
   36.6780   48.6550   34.9980 C   0  0  0  0  0  0
   35.5290   47.6620   35.1590 C   0  0  0  0  0  0
   34.4530   48.3520   36.0060 C   0  0  0  0  0  0
   34.9680   49.7490   36.3440 C   0  0  0  0  0  0
   40.0500   50.3780   36.8840 C   0  0  0  0  0  0
   40.6580   49.0770   38.4290 C   0  0  0  0  0  0
   40.9620   48.5040   39.7470 C   0  0  0  0  0  0
   40.0550   48.7580   40.8130 C   0  0  0  0  0  0
   40.2580   48.1900   42.0740 C   0  0  0  0  0  0
   42.3150   47.1040   41.2420 C   0  0  0  0  0  0
   42.0990   47.6780   39.9640 C   0  0  0  0  0  0
   39.5680   51.5510   36.0190 C   0  0  1  0  0  0
   36.2740   49.8650   35.7310 N   0  0  0  0  0  0
   38.1850   51.9180   33.9660 N   0  0  0  0  0  0
   40.2190   50.3410   38.2170 N   0  0  0  0  0  0
   40.7570   48.3590   37.2740 N   0  0  0  0  0  0
   40.3510   49.2300   36.2410 O   0  0  0  0  0  0
   41.3770   47.3580   42.2880 C   0  0  0  0  0  0
   41.5720   46.6140   43.8760 S   0  0  0  0  0  0
   41.7080   45.2180   43.7070 O   0  0  0  0  0  0
   40.4330   47.0260   44.6760 O   0  0  0  0  0  0
   43.0480   47.3780   44.5050 C   0  0  0  0  0  0
   40.7430   52.1060   35.1530 C   0  0  0  0  0  0
   38.7359   50.0802   34.7518 H   0  0  0  0  0  0
   37.6080   48.4991   34.4513 H   0  0  0  0  0  0
   35.4825   46.6531   34.7491 H   0  0  0  0  0  0
   33.4977   47.9244   36.3103 H   0  0  0  0  0  0
   34.4534   50.5094   36.9314 H   0  0  0  0  0  0
   39.1923   49.4026   40.6447 H   0  0  0  0  0  0
   39.5575   48.3883   42.8852 H   0  0  0  0  0  0
   43.1871   46.4760   41.4240 H   0  0  0  0  0  0
   42.8007   47.4873   39.1520 H   0  0  0  0  0  0
   39.2104   52.3564   36.6773 H   0  0  0  0  0  0
   37.8496   52.9095   34.3043 H   0  0  0  0  0  0
   39.1245   52.0210   33.4032 H   0  0  0  0  0  0
   43.9102   47.0649   43.8979 H   0  0  0  0  0  0
   43.2038   47.0700   45.5494 H   0  0  0  0  0  0
   42.9436   48.4720   44.4570 H   0  0  0  0  0  0
   40.3821   52.9448   34.5397 H   0  0  0  0  0  0
   41.1232   51.3091   34.4970 H   0  0  0  0  0  0
   41.5514   52.4550   35.8123 H   0  0  0  0  0  0
  1  2  1  0  0  0
  1 15  1  0  0  0
  1 17  1  0  0  0
  1 27  1  0  0  0
  2  3  2  0  0  0
  2 16  1  0  0  0
  4  5  2  0  0  0
  4 16  1  0  0  0
  4 28  1  0  0  0
  5  6  1  0  0  0
  5 29  1  0  0  0
  6  7  2  0  0  0
  6 30  1  0  0  0
  7 16  1  0  0  0
  7 31  1  0  0  0
  8 15  1  0  0  0
  8 18  2  0  0  0
  8 20  1  0  0  0
  9 10  1  0  0  0
  9 18  1  0  0  0
  9 19  2  0  0  0
 10 11  2  0  0  0
 10 14  1  0  0  0
 11 12  1  0  0  0
 11 32  1  0  0  0
 12 21  2  0  0  0
 12 33  1  0  0  0
 13 14  2  0  0  0
 13 21  1  0  0  0
 13 34  1  0  0  0
 14 35  1  0  0  0
 15 26  1  0  0  0
 15 36  1  0  0  0
 17 37  1  0  0  0
 17 38  1  0  0  0
 19 20  1  0  0  0
 21 22  1  0  0  0
 22 23  2  0  0  0
 22 24  2  0  0  0
 22 25  1  0  0  0
 25 39  1  0  0  0
 25 40  1  0  0  0
 25 41  1  0  0  0
 26 42  1  0  0  0
 26 43  1  0  0  0
 26 44  1  0  0  0
M  END
> <s_m_source_file>
../2hha_ligand.sdf

> <i_m_source_file_index>
1

> <s_epik_input>
W2NIXTFbY0hdW2NIXVtjSF1uMUMoPU8pW0NAQEhdKFtOSDMrXSlbQ0BIXShbQ0gzXSljMm5jKG5vMiktYzNbY0hdW2NIXWMoW2NIXVtjSF0zKVMoPU8pKD1PKVtDSDNd

> <s_epik_cmdline>
J2VwaWtfYXBwJywgJy1pbWFlJywgJ2xpZ2FuZF9wcm8ubWFlJywgJy1vbWFlJywgJ2xpZ2FuZF9wcmVwLm1hZScsICctbXMnLCAnMScsICctcGgnLCAnNycsICctcGh0JywgJzAuNScsICctbnQn

> <r_lp_tautomer_probability>
1

> <r_epik_Ionization_Penalty>
  0.0052

> <r_epik_Ionization_Penalty_Charging>
  0.0000

> <r_epik_Ionization_Penalty_Neutral>
  0.0052

> <r_epik_State_Penalty>
 -0.0000

> <r_epik_Charging_Adjusted_Penalty>
0

> <i_epik_Tot_Q>
0

> <i_epik_Tot_abs_Q>
0

$$$$
