2hiw_ligand
                    3D
 Schrodinger Suite 2020-3.
 52 55  0  0  1  0            999 V2000
   -0.7650    8.9120   34.6580 O   0  0  0  0  0  0
   -1.6310    8.0410   34.8830 C   0  0  0  0  0  0
   -2.5920    8.1240   35.9480 N   0  0  0  0  0  0
   -2.5750    9.2780   36.8440 C   0  0  0  0  0  0
   -3.5800    7.0960   36.1450 C   0  0  0  0  0  0
   -4.5140    7.1230   37.1120 N   0  0  0  0  0  0
   -5.3970    6.1060   37.2150 C   0  0  0  0  0  0
   -6.3110    6.1660   38.2060 N   0  0  0  0  0  0
   -5.3860    5.0410   36.3630 N   0  0  0  0  0  0
   -4.4700    4.9620   35.3810 C   0  0  0  0  0  0
   -3.5640    6.0090   35.2800 C   0  0  0  0  0  0
   -2.6130    6.2280   34.4880 C   0  0  0  0  0  0
   -1.6620    6.9720   34.0960 N   0  0  0  0  0  0
   -0.7630    6.8270   33.0290 C   0  0  0  0  0  0
   -1.0840    7.3470   31.7760 C   0  0  0  0  0  0
   -2.4090    8.0310   31.5470 C   0  0  0  0  0  0
   -0.1760    7.2250   30.7230 C   0  0  0  0  0  0
    1.0460    6.5970   30.9390 C   0  0  0  0  0  0
    0.4590    6.2070   33.2470 C   0  0  0  0  0  0
    1.3660    6.0800   32.1970 C   0  0  0  0  0  0
    2.5670    5.4710   32.3770 N   0  0  0  0  0  0
    3.0230    4.9250   33.5120 C   0  0  0  0  0  0
    2.3800    4.9250   34.5490 O   0  0  0  0  0  0
    4.3950    4.2870   33.4570 C   0  0  0  0  0  0
    4.6880    3.1220   34.1780 C   0  0  0  0  0  0
    5.3770    4.8680   32.6520 C   0  0  0  0  0  0
    6.6440    4.3040   32.5710 C   0  0  0  0  0  0
    6.9270    3.1480   33.2970 C   0  0  0  0  0  0
    5.9630    2.5480   34.1070 C   0  0  0  0  0  0
    6.3000    1.2910   34.8840 C   0  0  0  0  0  0
    6.1140    1.5190   36.1700 F   0  0  0  0  0  0
    7.5780    0.9680   34.7170 F   0  0  0  0  0  0
    5.5250    0.2770   34.4930 F   0  0  0  0  0  0
   -1.7618    9.9581   36.5505 H   0  0  0  0  0  0
   -2.4132    8.9375   37.8774 H   0  0  0  0  0  0
   -3.5372    9.8071   36.7787 H   0  0  0  0  0  0
   -6.3209    7.0244   38.8938 H   0  0  0  0  0  0
   -7.0461    5.3565   38.3260 H   0  0  0  0  0  0
   -4.4405    4.1147   34.6960 H   0  0  0  0  0  0
   -1.8721    5.4193   34.5722 H   0  0  0  0  0  0
   -2.9959    6.2686   33.4576 H   0  0  0  0  0  0
   -2.9873    8.0327   32.4827 H   0  0  0  0  0  0
   -2.9705    7.4917   30.7699 H   0  0  0  0  0  0
   -2.2352    9.0672   31.2214 H   0  0  0  0  0  0
   -0.4231    7.6195   29.7374 H   0  0  0  0  0  0
    1.7599    6.5074   30.1202 H   0  0  0  0  0  0
    0.7083    5.8210   34.2354 H   0  0  0  0  0  0
    3.2743    5.3911   31.5384 H   0  0  0  0  0  0
    3.9193    2.6601   34.7975 H   0  0  0  0  0  0
    5.1480    5.7695   32.0837 H   0  0  0  0  0  0
    7.4103    4.7614   31.9452 H   0  0  0  0  0  0
    7.9205    2.7046   33.2304 H   0  0  0  0  0  0
  1  2  2  0  0  0
  2  3  1  0  0  0
  2 13  1  0  0  0
  3  4  1  0  0  0
  3  5  1  0  0  0
  4 34  1  0  0  0
  4 35  1  0  0  0
  4 36  1  0  0  0
  5  6  2  0  0  0
  5 11  1  0  0  0
  6  7  1  0  0  0
  7  8  1  0  0  0
  7  9  2  0  0  0
  8 37  1  0  0  0
  8 38  1  0  0  0
  9 10  1  0  0  0
 10 11  2  0  0  0
 10 39  1  0  0  0
 11 12  1  0  0  0
 12 13  1  0  0  0
 12 40  1  0  0  0
 12 41  1  0  0  0
 13 14  1  0  0  0
 14 15  2  0  0  0
 14 19  1  0  0  0
 15 16  1  0  0  0
 15 17  1  0  0  0
 16 42  1  0  0  0
 16 43  1  0  0  0
 16 44  1  0  0  0
 17 18  2  0  0  0
 17 45  1  0  0  0
 18 20  1  0  0  0
 18 46  1  0  0  0
 19 20  2  0  0  0
 19 47  1  0  0  0
 20 21  1  0  0  0
 21 22  1  0  0  0
 21 48  1  0  0  0
 22 23  2  0  0  0
 22 24  1  0  0  0
 24 25  2  0  0  0
 24 26  1  0  0  0
 25 29  1  0  0  0
 25 49  1  0  0  0
 26 27  2  0  0  0
 26 50  1  0  0  0
 27 28  1  0  0  0
 27 51  1  0  0  0
 28 29  2  0  0  0
 28 52  1  0  0  0
 29 30  1  0  0  0
 30 31  1  0  0  0
 30 32  1  0  0  0
 30 33  1  0  0  0
M  END
> <s_m_source_file>
../2hiw_ligand.sdf

> <i_m_source_file_index>
1

> <s_epik_input>
bjFjKFtOSDJdKW5bY0hdYyhjMTIpW0NIMl1OKEMoPU8pTjJbQ0gzXSljM2MoW0NIM10pW2NIXVtjSF1jKFtjSF0zKVtOSF1DKD1PKWM0W2NIXWMoQyhGKShGKUYpW2NIXVtjSF1bY0hdNA==

> <s_epik_cmdline>
J2VwaWtfYXBwJywgJy1pbWFlJywgJ2xpZ2FuZF9wcm8ubWFlJywgJy1vbWFlJywgJ2xpZ2FuZF9wcmVwLm1hZScsICctbXMnLCAnMScsICctcGgnLCAnNycsICctcGh0JywgJzAuNScsICctbnQn

> <r_lp_tautomer_probability>
0.999999987636

> <r_epik_Ionization_Penalty>
  0.0200

> <r_epik_Ionization_Penalty_Charging>
  0.0000

> <r_epik_Ionization_Penalty_Neutral>
  0.0200

> <r_epik_State_Penalty>
  0.0158

> <r_epik_Charging_Adjusted_Penalty>
0.0157621100370364

> <i_epik_Tot_Q>
0

> <i_epik_Tot_abs_Q>
0

$$$$
