2hiz_ligand
                    3D
 Schrodinger Suite 2020-3.
 97 99  0  0  1  0            999 V2000
  -28.9720   61.4700   68.9070 C   0  0  0  0  0  0
  -27.6370   60.8600   68.3590 C   0  0  0  0  0  0
  -26.9190   59.8190   69.3230 C   0  0  0  0  0  0
  -25.7110   58.8680   68.8600 C   0  0  0  0  0  0
  -25.0580   56.8600   64.9690 C   0  0  2  0  0  0
  -22.6760   56.8680   64.3170 N   0  0  0  0  0  0
  -21.4930   57.0370   63.4830 C   0  0  2  0  0  0
  -21.2070   59.3930   64.5900 C   0  0  0  0  0  0
  -21.4870   61.3910   66.1680 C   0  0  0  0  0  0
  -22.1690   60.0390   63.6610 C   0  0  0  0  0  0
  -20.8110   55.6870   63.2010 C   0  0  1  0  0  0
  -21.7130   54.7810   62.3930 C   0  0  0  0  0  0
  -21.8660   52.6050   61.2140 C   0  0  0  0  0  0
  -20.7150   53.9260   59.2390 C   0  0  0  0  0  0
  -22.0490   54.8190   57.2770 C   0  0  0  0  0  0
  -21.8530   59.5650   69.3610 C   0  0  0  0  0  0
  -23.1920   58.8050   69.4790 C   0  0  0  0  0  0
  -24.3340   59.5460   68.7380 C   0  0  0  0  0  0
  -26.0970   57.7740   67.4080 S   0  0  0  0  0  0
  -26.1500   56.4120   67.8580 O   0  0  0  0  0  0
  -27.3460   58.2550   66.8690 O   0  0  0  0  0  0
  -24.8120   57.8290   66.1200 C   0  0  0  0  0  0
  -23.9550   57.0510   63.9640 C   0  0  0  0  0  0
  -24.3390   57.3950   62.8220 O   0  0  0  0  0  0
  -20.5750   58.0180   64.2650 C   0  0  0  0  0  0
  -20.8750   60.0900   65.8510 C   0  0  0  0  0  0
  -22.4370   62.0070   65.2310 C   0  0  0  0  0  0
  -22.7710   61.3280   63.9860 C   0  0  0  0  0  0
  -19.6610   55.8900   62.4240 O   0  0  0  0  0  0
  -21.0450   53.4740   62.0710 N   0  3  0  0  0  0
  -21.9330   53.3520   59.8510 C   0  0  0  0  0  0
  -20.7340   54.6610   57.9640 C   0  0  0  0  0  0
  -19.5370   55.1800   57.4810 O   0  0  0  0  0  0
  -23.2700   54.2550   57.8690 C   0  0  0  0  0  0
  -23.2160   53.5290   59.1470 C   0  0  0  0  0  0
  -18.2640   54.4780   57.4980 C   0  0  0  0  0  0
  -26.3740   57.0980   64.5110 N   0  0  0  0  0  0
  -27.4630   56.2270   64.6180 C   0  0  0  0  0  0
  -27.3850   55.1220   65.1530 O   0  0  0  0  0  0
  -28.6140   56.7470   64.0870 O   0  0  0  0  0  0
  -29.8500   56.0100   64.1020 C   0  0  0  0  0  0
  -30.9340   56.8310   63.4650 C   0  0  0  0  0  0
  -31.0260   56.9230   62.0210 C   0  0  0  0  0  0
  -32.0630   57.7160   61.4060 C   0  0  0  0  0  0
  -33.0280   58.4310   62.2310 C   0  0  0  0  0  0
  -32.9470   58.3460   63.6750 C   0  0  0  0  0  0
  -31.9090   57.5520   64.2990 C   0  0  0  0  0  0
  -29.3844   62.1728   68.1681 H   0  0  0  0  0  0
  -28.7724   62.0029   69.8484 H   0  0  0  0  0  0
  -29.6964   60.6625   69.0892 H   0  0  0  0  0  0
  -27.8366   60.3271   67.4176 H   0  0  0  0  0  0
  -26.9125   61.6674   68.1767 H   0  0  0  0  0  0
  -26.4759   60.3542   70.1757 H   0  0  0  0  0  0
  -27.6567   59.0905   69.6906 H   0  0  0  0  0  0
  -25.5204   58.3980   69.8361 H   0  0  0  0  0  0
  -25.0833   55.7867   65.2085 H   0  0  0  0  0  0
  -22.5692   56.5555   65.3662 H   0  0  0  0  0  0
  -21.7993   57.4322   62.5032 H   0  0  0  0  0  0
  -21.2351   61.8982   67.0993 H   0  0  0  0  0  0
  -22.4285   59.5443   62.7250 H   0  0  0  0  0  0
  -20.4965   55.2182   64.1451 H   0  0  0  0  0  0
  -22.6283   54.5698   62.9653 H   0  0  0  0  0  0
  -21.9780   55.2762   61.4472 H   0  0  0  0  0  0
  -21.3828   51.6214   61.1192 H   0  0  0  0  0  0
  -22.8624   52.4822   61.6637 H   0  0  0  0  0  0
  -19.7628   53.7993   59.7541 H   0  0  0  0  0  0
  -22.1043   55.3561   56.3301 H   0  0  0  0  0  0
  -21.0685   59.0110   69.8973 H   0  0  0  0  0  0
  -21.9603   60.5673   69.8013 H   0  0  0  0  0  0
  -21.5764   59.6580   68.3004 H   0  0  0  0  0  0
  -23.0847   57.8027   69.0387 H   0  0  0  0  0  0
  -23.4686   58.7119   70.5396 H   0  0  0  0  0  0
  -24.0463   59.6035   67.6779 H   0  0  0  0  0  0
  -24.3863   60.5608   69.1593 H   0  0  0  0  0  0
  -23.8532   57.5889   66.6028 H   0  0  0  0  0  0
  -24.7799   58.8580   65.7325 H   0  0  0  0  0  0
  -20.2927   57.5673   65.2279 H   0  0  0  0  0  0
  -19.6688   58.2210   63.6755 H   0  0  0  0  0  0
  -20.1723   59.6375   66.5507 H   0  0  0  0  0  0
  -22.8906   62.9696   65.4670 H   0  0  0  0  0  0
  -23.4758   61.7862   63.2921 H   0  0  0  0  0  0
  -18.8459   56.5238   62.8032 H   0  0  0  0  0  0
  -20.0989   53.6659   61.5436 H   0  0  0  0  0  0
  -20.8407   52.9271   63.0033 H   0  0  0  0  0  0
  -24.2243   54.3758   57.3564 H   0  0  0  0  0  0
  -24.1303   53.1193   59.5762 H   0  0  0  0  0  0
  -17.4863   55.1182   57.0560 H   0  0  0  0  0  0
  -18.3496   53.5493   56.9148 H   0  0  0  0  0  0
  -17.9929   54.2354   58.5361 H   0  0  0  0  0  0
  -26.6199   58.0477   64.0135 H   0  0  0  0  0  0
  -29.7245   55.0721   63.5411 H   0  0  0  0  0  0
  -30.1279   55.7812   65.1414 H   0  0  0  0  0  0
  -30.3083   56.3906   61.3968 H   0  0  0  0  0  0
  -32.1247   57.7804   60.3197 H   0  0  0  0  0  0
  -33.8097   59.0289   61.7624 H   0  0  0  0  0  0
  -33.6686   58.8806   64.2928 H   0  0  0  0  0  0
  -31.8499   57.4884   65.3855 H   0  0  0  0  0  0
  1  2  1  0  0  0
  1 48  1  0  0  0
  1 49  1  0  0  0
  1 50  1  0  0  0
  2  3  1  0  0  0
  2 51  1  0  0  0
  2 52  1  0  0  0
  3  4  1  0  0  0
  3 53  1  0  0  0
  3 54  1  0  0  0
  4 18  1  0  0  0
  4 19  1  0  0  0
  4 55  1  0  0  0
  5 22  1  0  0  0
  5 23  1  0  0  0
  5 37  1  0  0  0
  5 56  1  0  0  0
  6  7  1  0  0  0
  6 23  1  0  0  0
  6 57  1  0  0  0
  7 11  1  0  0  0
  7 25  1  0  0  0
  7 58  1  0  0  0
  8 10  2  0  0  0
  8 25  1  0  0  0
  8 26  1  0  0  0
  9 26  2  0  0  0
  9 27  1  0  0  0
  9 59  1  0  0  0
 10 28  1  0  0  0
 10 60  1  0  0  0
 11 12  1  0  0  0
 11 29  1  0  0  0
 11 61  1  0  0  0
 12 30  1  0  0  0
 12 62  1  0  0  0
 12 63  1  0  0  0
 13 30  1  0  0  0
 13 31  1  0  0  0
 13 64  1  0  0  0
 13 65  1  0  0  0
 14 31  2  0  0  0
 14 32  1  0  0  0
 14 66  1  0  0  0
 15 32  2  0  0  0
 15 34  1  0  0  0
 15 67  1  0  0  0
 16 17  1  0  0  0
 16 68  1  0  0  0
 16 69  1  0  0  0
 16 70  1  0  0  0
 17 18  1  0  0  0
 17 71  1  0  0  0
 17 72  1  0  0  0
 18 73  1  0  0  0
 18 74  1  0  0  0
 19 20  2  0  0  0
 19 21  2  0  0  0
 19 22  1  0  0  0
 22 75  1  0  0  0
 22 76  1  0  0  0
 23 24  2  0  0  0
 25 77  1  0  0  0
 25 78  1  0  0  0
 26 79  1  0  0  0
 27 28  2  0  0  0
 27 80  1  0  0  0
 28 81  1  0  0  0
 29 82  1  0  0  0
 30 83  1  0  0  0
 30 84  1  0  0  0
 31 35  1  0  0  0
 32 33  1  0  0  0
 33 36  1  0  0  0
 34 35  2  0  0  0
 34 85  1  0  0  0
 35 86  1  0  0  0
 36 87  1  0  0  0
 36 88  1  0  0  0
 36 89  1  0  0  0
 37 38  1  0  0  0
 37 90  1  0  0  0
 38 39  2  0  0  0
 38 40  1  0  0  0
 40 41  1  0  0  0
 41 42  1  0  0  0
 41 91  1  0  0  0
 41 92  1  0  0  0
 42 43  2  0  0  0
 42 47  1  0  0  0
 43 44  1  0  0  0
 43 93  1  0  0  0
 44 45  2  0  0  0
 44 94  1  0  0  0
 45 46  1  0  0  0
 45 95  1  0  0  0
 46 47  2  0  0  0
 46 96  1  0  0  0
 47 97  1  0  0  0
M  CHG  1  30   1
M  END
> <s_m_source_file>
../2hiz_ligand.sdf

> <i_m_source_file_index>
1

> <s_epik_input>
W2NIXTFbY0hdW2NIXVtjSF1bY0hdYzFbQ0gyXU9DKD1PKVtOSF1bQ0BIXShbQ0gyXVMoPU8pKD1PKVtDSF0oW0NIMl1bQ0gyXVtDSDNdKVtDSDJdW0NIMl1bQ0gzXSlDKD1PKVtOSF1bQ0BASF0oW0NIMl1jMltjSF1bY0hdW2NIXVtjSF1bY0hdMilbQ0BIXShbT0hdKVtDSDJdW05IMitdW0NIMl1jM1tjSF1jKE9bQ0gzXSlbY0hdW2NIXVtjSF0z

> <s_epik_cmdline>
J2VwaWtfYXBwJywgJy1pbWFlJywgJ2xpZ2FuZF9wcm8ubWFlJywgJy1vbWFlJywgJ2xpZ2FuZF9wcmVwLm1hZScsICctbXMnLCAnMScsICctcGgnLCAnNycsICctcGh0JywgJzAuNScsICctbnQn

> <r_lp_tautomer_probability>
1

> <r_epik_Ionization_Penalty>
  0.0237

> <r_epik_Ionization_Penalty_Charging>
  0.0237

> <r_epik_Ionization_Penalty_Neutral>
  0.0000

> <r_epik_State_Penalty>
  0.0192

> <r_epik_Charging_Adjusted_Penalty>
0.0429363794479806

> <i_epik_Tot_Q>
1

> <i_epik_Tot_abs_Q>
1

> <s_epik_Chemistry_Notes>
This compound has an ester and may undergo hydrolysis at high or low pH.

$$$$
