2hjb_ligand
                    3D
 Schrodinger Suite 2020-3.
 22 22  0  0  1  0            999 V2000
   53.8730   22.3300   28.2520 N   0  3  0  0  0  0
   52.4950   21.8040   28.4060 C   0  0  0  0  0  0
   51.6170   22.3080   29.5140 C   0  0  0  0  0  0
   50.4170   22.9920   29.2560 C   0  0  0  0  0  0
   49.5770   23.4960   30.3030 C   0  0  0  0  0  0
   49.9260   23.3390   31.6580 C   0  0  0  0  0  0
   51.0920   22.6960   31.9910 C   0  0  0  0  0  0
   52.0260   22.1390   30.8160 C   0  0  0  0  0  0
   49.1370   23.8450   32.7260 O   0  0  0  0  0  0
   48.4520   25.0640   32.5330 C   0  0  0  0  0  0
   54.3567   21.8446   27.3915 H   0  0  0  0  0  0
   54.4501   22.1189   29.1643 H   0  0  0  0  0  0
   53.8342   23.4167   28.0859 H   0  0  0  0  0  0
   51.9179   22.0151   27.4937 H   0  0  0  0  0  0
   52.5337   20.7173   28.5721 H   0  0  0  0  0  0
   50.1131   23.1453   28.2205 H   0  0  0  0  0  0
   48.6511   24.0102   30.0452 H   0  0  0  0  0  0
   51.3766   22.5671   33.0353 H   0  0  0  0  0  0
   52.9662   21.6365   31.0432 H   0  0  0  0  0  0
   47.8911   25.3177   33.4446 H   0  0  0  0  0  0
   47.7537   24.9626   31.6891 H   0  0  0  0  0  0
   49.1774   25.8616   32.3149 H   0  0  0  0  0  0
  1  2  1  0  0  0
  1 11  1  0  0  0
  1 12  1  0  0  0
  1 13  1  0  0  0
  2  3  1  0  0  0
  2 14  1  0  0  0
  2 15  1  0  0  0
  3  4  2  0  0  0
  3  8  1  0  0  0
  4  5  1  0  0  0
  4 16  1  0  0  0
  5  6  2  0  0  0
  5 17  1  0  0  0
  6  7  1  0  0  0
  6  9  1  0  0  0
  7  8  2  0  0  0
  7 18  1  0  0  0
  8 19  1  0  0  0
  9 10  1  0  0  0
 10 20  1  0  0  0
 10 21  1  0  0  0
 10 22  1  0  0  0
M  CHG  1   1   1
M  END
> <s_m_source_file>
../2hjb_ligand.sdf

> <i_m_source_file_index>
1

> <s_epik_input>
W05IMytdW0NIMl1jMVtjSF1bY0hdYyhbY0hdW2NIXTEpT1tDSDNd

> <s_epik_cmdline>
J2VwaWtfYXBwJywgJy1pbWFlJywgJ2xpZ2FuZF9wcm8ubWFlJywgJy1vbWFlJywgJ2xpZ2FuZF9wcmVwLm1hZScsICctbXMnLCAnMScsICctcGgnLCAnNycsICctcGh0JywgJzAuNScsICctbnQn

> <r_lp_tautomer_probability>
1

> <r_epik_Ionization_Penalty>
  0.0244

> <r_epik_Ionization_Penalty_Charging>
  0.0244

> <r_epik_Ionization_Penalty_Neutral>
  0.0000

> <r_epik_State_Penalty>
  0.0198

> <r_epik_Charging_Adjusted_Penalty>
0.0441463709509022

> <i_epik_Tot_Q>
1

> <i_epik_Tot_abs_Q>
1

$$$$
