2hkf_ligand
                    3D
 Schrodinger Suite 2020-3.
113114  0  0  1  0            999 V2000
    4.3020   30.9080  -12.0530 N   0  3  0  0  0  0
    2.8850   31.1490  -12.4730 C   0  0  0  0  0  0
    1.9690   31.3410  -11.2730 C   0  0  0  0  0  0
    1.9880   32.4100  -10.6550 O   0  0  0  0  0  0
    1.1550   30.3130  -10.9290 N   0  0  0  0  0  0
    1.0210   29.0170  -11.6210 C   0  0  2  0  0  0
    0.3310   29.0110  -12.9990 C   0  0  0  0  0  0
    0.3710   27.9900  -13.6880 O   0  0  0  0  0  0
    0.2270   28.1690  -10.6230 C   0  0  0  0  0  0
   -0.5050   29.1030   -9.7980 C   0  0  0  0  0  0
    0.3110   30.3730   -9.7200 C   0  0  0  0  0  0
   -0.2960   30.1230  -13.3890 N   0  0  0  0  0  0
   -1.0570   30.2060  -14.6460 C   0  0  0  0  0  0
   -2.4780   29.6780  -14.5420 C   0  0  0  0  0  0
   -2.9080   29.1850  -13.4770 O   0  0  0  0  0  0
   -3.2030   29.7620  -15.6550 N   0  0  0  0  0  0
   -4.5790   29.2660  -15.7590 C   0  0  2  0  0  0
   -4.6670   27.7540  -15.5850 C   0  0  0  0  0  0
   -3.8460   27.0210  -16.1250 O   0  0  0  0  0  0
   -5.2080   29.6870  -17.0990 C   0  0  0  0  0  0
   -5.4880   31.1830  -17.1480 C   0  0  0  0  0  0
   -5.7990   31.7290  -18.5400 C   0  0  0  0  0  0
   -6.6890   31.1830  -19.2400 O   0  0  0  0  0  0
   -5.1590   32.7490  -18.9050 O   0  5  0  0  0  0
   -5.6630   27.3000  -14.8250 N   0  0  0  0  0  0
   -5.9300   25.8620  -14.6830 C   0  0  2  0  0  0
   -6.0760   25.1470  -16.0380 C   0  0  0  0  0  0
   -6.9810   25.4420  -16.8320 O   0  0  0  0  0  0
   -7.1660   25.6090  -13.8070 C   0  0  0  0  0  0
   -7.3930   24.1270  -13.4760 C   0  0  0  0  0  0
   -8.7670   23.8700  -12.8450 C   0  0  0  0  0  0
   -9.6430   24.7630  -12.9280 O   0  0  0  0  0  0
   -8.9580   22.7820  -12.2490 O   0  5  0  0  0  0
   -5.1830   24.2010  -16.2950 N   0  0  0  0  0  0
   -5.1810   23.5410  -17.5880 C   0  0  2  0  0  0
   -6.1240   22.3350  -17.5790 C   0  0  0  0  0  0
   -5.7090   21.1930  -17.7250 O   0  0  0  0  0  0
   -3.7560   23.1980  -18.0350 C   0  0  0  0  0  0
   -3.7170   22.5640  -19.4150 C   0  0  0  0  0  0
   -2.8400   21.6980  -19.6290 O   0  0  0  0  0  0
   -4.5740   22.9090  -20.2690 O   0  5  0  0  0  0
   -7.4030   22.6370  -17.4010 N   0  0  0  0  0  0
   -8.4720   21.6570  -17.4380 C   0  0  2  0  0  0
   -9.6800   22.3400  -18.0690 C   0  0  0  0  0  0
   -9.8420   23.5670  -17.9410 O   0  0  0  0  0  0
   -8.8090   21.1100  -16.0290 C   0  0  0  0  0  0
   -7.8940   20.0310  -15.4230 C   0  0  0  0  0  0
   -8.3720   19.6760  -14.0060 C   0  0  0  0  0  0
   -7.8590   18.7520  -16.2950 C   0  0  0  0  0  0
  -10.5310   21.5500  -18.7480 N   0  0  0  0  0  0
  -11.6600   22.0980  -19.4830 C   0  0  2  0  0  0
  -12.6940   22.8210  -18.6070 C   0  0  0  0  0  0
  -12.8140   22.5370  -17.4070 O   0  0  0  0  0  0
  -12.2810   20.8610  -20.1500 C   0  0  0  0  0  0
  -11.7920   19.7050  -19.3750 C   0  0  0  0  0  0
  -10.4610   20.0810  -18.8540 C   0  0  0  0  0  0
  -13.4260   23.7520  -19.2250 N   0  0  0  0  0  0
  -14.6130   24.3800  -18.6170 C   0  0  0  0  0  0
  -15.6090   23.3560  -18.0960 C   0  0  0  0  0  0
  -16.2140   23.5170  -17.0230 O   0  5  0  0  0  0
  -15.8270   22.3110  -18.7200 O   0  0  0  0  0  0
    4.9312   30.7744  -12.9453 H   0  0  0  0  0  0
    4.3510   30.0022  -11.4308 H   0  0  0  0  0  0
    4.6646   31.7704  -11.4743 H   0  0  0  0  0  0
    2.8360   32.0548  -13.0952 H   0  0  0  0  0  0
    2.5224   30.2867  -13.0517 H   0  0  0  0  0  0
    2.0421   28.6827  -11.8570 H   0  0  0  0  0  0
   -0.4562   27.5027  -11.1701 H   0  0  0  0  0  0
    0.9218   27.5664  -10.0195 H   0  0  0  0  0  0
   -1.4864   29.3030  -10.2529 H   0  0  0  0  0  0
   -0.6464   28.6738   -8.7951 H   0  0  0  0  0  0
    0.9520   30.4052   -8.8266 H   0  0  0  0  0  0
   -0.3154   31.2765   -9.7546 H   0  0  0  0  0  0
   -0.2275   31.0000  -12.7286 H   0  0  0  0  0  0
   -1.1228   31.2563  -14.9661 H   0  0  0  0  0  0
   -0.5472   29.6172  -15.4228 H   0  0  0  0  0  0
   -2.7205   30.2317  -16.5248 H   0  0  0  0  0  0
   -5.1027   29.7388  -14.9151 H   0  0  0  0  0  0
   -4.5209   29.4375  -17.9210 H   0  0  0  0  0  0
   -6.1592   29.1531  -17.2414 H   0  0  0  0  0  0
   -6.3570   31.4143  -16.5144 H   0  0  0  0  0  0
   -4.6092   31.7328  -16.7800 H   0  0  0  0  0  0
   -6.2927   28.0311  -14.2968 H   0  0  0  0  0  0
   -5.0282   25.4819  -14.1807 H   0  0  0  0  0  0
   -7.0551   26.1450  -12.8528 H   0  0  0  0  0  0
   -8.0649   25.9702  -14.3281 H   0  0  0  0  0  0
   -7.3271   23.5311  -14.3982 H   0  0  0  0  0  0
   -6.6251   23.7883  -12.7649 H   0  0  0  0  0  0
   -4.4448   23.9161  -15.5309 H   0  0  0  0  0  0
   -5.5799   24.2799  -18.2986 H   0  0  0  0  0  0
   -3.1506   24.1159  -18.0664 H   0  0  0  0  0  0
   -3.3092   22.4883  -17.3231 H   0  0  0  0  0  0
   -7.6343   23.6966  -17.2173 H   0  0  0  0  0  0
   -8.1138   20.8171  -18.0514 H   0  0  0  0  0  0
   -8.7910   21.9349  -15.3015 H   0  0  0  0  0  0
   -9.8102   20.6546  -16.0423 H   0  0  0  0  0  0
   -6.8766   20.4468  -15.3773 H   0  0  0  0  0  0
   -8.3961   20.5860  -13.3884 H   0  0  0  0  0  0
   -7.6810   18.9469  -13.5579 H   0  0  0  0  0  0
   -9.3811   19.2411  -14.0576 H   0  0  0  0  0  0
   -7.5167   19.0084  -17.3084 H   0  0  0  0  0  0
   -8.8678   18.3166  -16.3479 H   0  0  0  0  0  0
   -7.1677   18.0224  -15.8481 H   0  0  0  0  0  0
  -11.2781   22.8690  -20.1683 H   0  0  0  0  0  0
  -13.3778   20.9350  -20.1106 H   0  0  0  0  0  0
  -11.9546   20.8073  -21.1991 H   0  0  0  0  0  0
  -12.4906   19.4933  -18.5521 H   0  0  0  0  0  0
  -11.7226   18.8257  -20.0323 H   0  0  0  0  0  0
   -9.6493   19.8013  -19.5417 H   0  0  0  0  0  0
  -10.2647   19.6506  -17.8609 H   0  0  0  0  0  0
  -13.1052   24.0456  -20.2354 H   0  0  0  0  0  0
  -14.3015   25.0109  -17.7715 H   0  0  0  0  0  0
  -15.1250   24.9998  -19.3678 H   0  0  0  0  0  0
  1  2  1  0  0  0
  1 62  1  0  0  0
  1 63  1  0  0  0
  1 64  1  0  0  0
  2  3  1  0  0  0
  2 65  1  0  0  0
  2 66  1  0  0  0
  3  4  2  0  0  0
  3  5  1  0  0  0
  5  6  1  0  0  0
  5 11  1  0  0  0
  6  7  1  0  0  0
  6  9  1  0  0  0
  6 67  1  0  0  0
  7  8  2  0  0  0
  7 12  1  0  0  0
  9 10  1  0  0  0
  9 68  1  0  0  0
  9 69  1  0  0  0
 10 11  1  0  0  0
 10 70  1  0  0  0
 10 71  1  0  0  0
 11 72  1  0  0  0
 11 73  1  0  0  0
 12 13  1  0  0  0
 12 74  1  0  0  0
 13 14  1  0  0  0
 13 75  1  0  0  0
 13 76  1  0  0  0
 14 15  2  0  0  0
 14 16  1  0  0  0
 16 17  1  0  0  0
 16 77  1  0  0  0
 17 18  1  0  0  0
 17 20  1  0  0  0
 17 78  1  0  0  0
 18 19  2  0  0  0
 18 25  1  0  0  0
 20 21  1  0  0  0
 20 79  1  0  0  0
 20 80  1  0  0  0
 21 22  1  0  0  0
 21 81  1  0  0  0
 21 82  1  0  0  0
 22 23  2  0  0  0
 22 24  1  0  0  0
 25 26  1  0  0  0
 25 83  1  0  0  0
 26 27  1  0  0  0
 26 29  1  0  0  0
 26 84  1  0  0  0
 27 28  2  0  0  0
 27 34  1  0  0  0
 29 30  1  0  0  0
 29 85  1  0  0  0
 29 86  1  0  0  0
 30 31  1  0  0  0
 30 87  1  0  0  0
 30 88  1  0  0  0
 31 32  2  0  0  0
 31 33  1  0  0  0
 34 35  1  0  0  0
 34 89  1  0  0  0
 35 36  1  0  0  0
 35 38  1  0  0  0
 35 90  1  0  0  0
 36 37  2  0  0  0
 36 42  1  0  0  0
 38 39  1  0  0  0
 38 91  1  0  0  0
 38 92  1  0  0  0
 39 40  2  0  0  0
 39 41  1  0  0  0
 42 43  1  0  0  0
 42 93  1  0  0  0
 43 44  1  0  0  0
 43 46  1  0  0  0
 43 94  1  0  0  0
 44 45  2  0  0  0
 44 50  1  0  0  0
 46 47  1  0  0  0
 46 95  1  0  0  0
 46 96  1  0  0  0
 47 48  1  0  0  0
 47 49  1  0  0  0
 47 97  1  0  0  0
 48 98  1  0  0  0
 48 99  1  0  0  0
 48100  1  0  0  0
 49101  1  0  0  0
 49102  1  0  0  0
 49103  1  0  0  0
 50 51  1  0  0  0
 50 56  1  0  0  0
 51 52  1  0  0  0
 51 54  1  0  0  0
 51104  1  0  0  0
 52 53  2  0  0  0
 52 57  1  0  0  0
 54 55  1  0  0  0
 54105  1  0  0  0
 54106  1  0  0  0
 55 56  1  0  0  0
 55107  1  0  0  0
 55108  1  0  0  0
 56109  1  0  0  0
 56110  1  0  0  0
 57 58  1  0  0  0
 57111  1  0  0  0
 58 59  1  0  0  0
 58112  1  0  0  0
 58113  1  0  0  0
 59 60  1  0  0  0
 59 61  2  0  0  0
M  CHG  5   1   1  24  -1  33  -1  41  -1  60  -1
M  END
> <s_m_source_file>
../2hkf_ligand.sdf

> <i_m_source_file_index>
1

> <s_epik_input>
W05IMytdW0NIMl1DKD1PKU4xW0NAQEhdKFtDSDJdW0NIMl1bQ0gyXTEpQyg9TylbTkhdW0NIMl1DKD1PKVtOSF1bQ0BASF0oW0NIMl1bQ0gyXUMoPU8pW09IXSlDKD1PKVtOSF1bQ0BASF0oW0NIMl1bQ0gyXUMoPU8pW09IXSlDKD1PKVtOSF1bQ0BASF0oW0NIMl1DKD1PKVtPSF0pQyg9TylbTkhdW0NAQEhdKFtDSDJdW0NIXShbQ0gzXSlbQ0gzXSlDKD1PKU4yW0NAQEhdKFtDSDJdW0NIMl1bQ0gyXTIpQyg9TylbTkhdW0NIMl1DKD1PKVtPSF0=

> <s_epik_cmdline>
J2VwaWtfYXBwJywgJy1pbWFlJywgJ2xpZ2FuZF9wcm8ubWFlJywgJy1vbWFlJywgJ2xpZ2FuZF9wcmVwLm1hZScsICctbXMnLCAnMScsICctcGgnLCAnNycsICctcGh0JywgJzAuNScsICctbnQn

> <r_epik_Ionization_Penalty>
  0.1239

> <r_epik_Ionization_Penalty_Charging>
  0.1239

> <r_epik_Ionization_Penalty_Neutral>
  0.0000

> <r_epik_State_Penalty>
  0.1060

> <r_epik_Charging_Adjusted_Penalty>
0.229867150028941

> <i_epik_Tot_Q>
-3

> <i_epik_Tot_abs_Q>
5

$$$$
