2hl4_ligand
                    3D
 Schrodinger Suite 2020-3.
 40 41  0  0  1  0            999 V2000
   -5.9720    0.9500   16.6870 S   0  0  0  0  0  0
   -5.4260    1.0860   18.0080 O   0  0  0  0  0  0
   -7.3950    1.0440   16.5180 O   0  0  0  0  0  0
   -5.4870   -0.4620   16.1140 N   0  0  0  0  0  0
   -5.2420    2.2240   15.7260 C   0  0  0  0  0  0
   -6.0080    3.3220   15.2590 C   0  0  0  0  0  0
   -5.4050    4.3220   14.5030 C   0  0  0  0  0  0
   -4.0030    4.2580   14.1840 C   0  0  0  0  0  0
   -3.2600    3.1490   14.6640 C   0  0  0  0  0  0
   -3.8660    2.1560   15.4160 C   0  0  0  0  0  0
   -3.3500    5.2310   13.4360 N   0  0  0  0  0  0
   -3.8590    6.5120   13.1010 C   0  0  1  0  0  0
   -2.8340    7.3080   12.2910 C   0  0  1  0  0  0
   -3.4220    8.6770   11.9380 C   0  0  2  0  0  0
   -4.6740    8.4710   11.1120 C   0  0  1  0  0  0
   -5.6970    7.6530   11.9440 C   0  0  1  0  0  0
   -6.9700    7.3730   11.1970 C   0  0  0  0  0  0
   -5.1070    6.3680   12.3240 O   0  0  0  0  0  0
   -1.6550    7.4390   13.0930 O   0  0  0  0  0  0
   -2.4590    9.4140   11.1850 O   0  0  0  0  0  0
   -5.2430    9.7390   10.7680 O   0  0  0  0  0  0
   -6.7370    6.4480   10.1410 O   0  0  0  0  0  0
   -5.9367   -1.2722   16.7067 H   0  0  0  0  0  0
   -4.3907   -0.5263   16.1772 H   0  0  0  0  0  0
   -7.0709    3.3826   15.4927 H   0  0  0  0  0  0
   -6.0007    5.1631   14.1484 H   0  0  0  0  0  0
   -2.1962    3.0772   14.4377 H   0  0  0  0  0  0
   -3.2742    1.3129   15.7724 H   0  0  0  0  0  0
   -2.3480    4.9310   13.0954 H   0  0  0  0  0  0
   -4.0790    6.9958   14.0641 H   0  0  0  0  0  0
   -2.5171    6.7939   11.3716 H   0  0  0  0  0  0
   -3.6391    9.2855   12.8283 H   0  0  0  0  0  0
   -4.4259    7.9923   10.1532 H   0  0  0  0  0  0
   -5.9544    8.2185   12.8517 H   0  0  0  0  0  0
   -7.7137    6.9471   11.8866 H   0  0  0  0  0  0
   -7.3590    8.3097   10.7713 H   0  0  0  0  0  0
   -1.1155    6.5410   13.4286 H   0  0  0  0  0  0
   -1.4828    9.6578   11.6295 H   0  0  0  0  0  0
   -4.6614   10.4602   10.1750 H   0  0  0  0  0  0
   -7.5677    6.1333    9.4922 H   0  0  0  0  0  0
  1  2  2  0  0  0
  1  3  2  0  0  0
  1  4  1  0  0  0
  1  5  1  0  0  0
  4 23  1  0  0  0
  4 24  1  0  0  0
  5  6  2  0  0  0
  5 10  1  0  0  0
  6  7  1  0  0  0
  6 25  1  0  0  0
  7  8  2  0  0  0
  7 26  1  0  0  0
  8  9  1  0  0  0
  8 11  1  0  0  0
  9 10  2  0  0  0
  9 27  1  0  0  0
 10 28  1  0  0  0
 11 12  1  0  0  0
 11 29  1  0  0  0
 12 13  1  0  0  0
 12 18  1  0  0  0
 12 30  1  0  0  0
 13 14  1  0  0  0
 13 19  1  0  0  0
 13 31  1  0  0  0
 14 15  1  0  0  0
 14 20  1  0  0  0
 14 32  1  0  0  0
 15 16  1  0  0  0
 15 21  1  0  0  0
 15 33  1  0  0  0
 16 17  1  0  0  0
 16 18  1  0  0  0
 16 34  1  0  0  0
 17 22  1  0  0  0
 17 35  1  0  0  0
 17 36  1  0  0  0
 19 37  1  0  0  0
 20 38  1  0  0  0
 21 39  1  0  0  0
 22 40  1  0  0  0
M  END
> <s_m_source_file>
../2hl4_ligand.sdf

> <i_m_source_file_index>
1

> <s_epik_input>
Tz1TKD1PKShbTkgyXSljMVtjSF1bY0hdYyhbY0hdW2NIXTEpW05IXVtDQEhdMltDQEhdKFtPSF0pW0NAQEhdKFtPSF0pW0NASF0oW09IXSlbQ0BIXShPMilbQ0gyXVtPSF0=

> <s_epik_cmdline>
J2VwaWtfYXBwJywgJy1pbWFlJywgJ2xpZ2FuZF9wcm8ubWFlJywgJy1vbWFlJywgJ2xpZ2FuZF9wcmVwLm1hZScsICctbXMnLCAnMScsICctcGgnLCAnNycsICctcGh0JywgJzAuNScsICctbnQn

> <r_lp_tautomer_probability>
1

> <r_epik_Ionization_Penalty>
  0.0004

> <r_epik_Ionization_Penalty_Charging>
  0.0000

> <r_epik_Ionization_Penalty_Neutral>
  0.0004

> <r_epik_State_Penalty>
 -0.0000

> <r_epik_Charging_Adjusted_Penalty>
0

> <i_epik_Tot_Q>
0

> <i_epik_Tot_abs_Q>
0

> <s_epik_Chemistry_Notes>
This compound contains an acetal/aminal-like group ( X-CH(R)-Y where X, Y are N, S, or O) that may be acid/base labile, releasing an aldehyde.

$$$$
