2hmb_ligand
                    3D
 Schrodinger Suite 2020-3.
 49 48  0  0  1  0            999 V2000
   19.6970   33.9740   53.5800 C   0  0  0  0  0  0
   19.6530   34.9550   52.8820 O   0  0  0  0  0  0
   19.2260   32.8230   53.2130 O   0  5  0  0  0  0
   20.3350   33.9660   54.9600 C   0  0  0  0  0  0
   21.4940   34.9450   55.0220 C   0  0  0  0  0  0
   22.3710   34.8190   56.2570 C   0  0  0  0  0  0
   23.5050   35.8330   56.2400 C   0  0  0  0  0  0
   24.0490   36.2020   57.6130 C   0  0  0  0  0  0
   23.8200   35.1500   58.6860 C   0  0  0  0  0  0
   23.1690   35.7290   59.9310 C   0  0  0  0  0  0
   22.6830   34.6630   60.8930 C   0  0  0  0  0  0
   21.5650   35.1480   61.7950 C   0  0  0  0  0  0
   20.2070   34.6720   61.3310 C   0  0  0  0  0  0
   19.5470   35.7190   60.4620 C   0  0  0  0  0  0
   18.1690   35.3270   59.9830 C   0  0  0  0  0  0
   17.7080   36.2150   58.8510 C   0  0  0  0  0  0
   18.0490   35.6100   57.5020 C   0  0  0  0  0  0
   19.3970   36.0460   56.9540 C   0  0  0  0  0  0
   19.5858   34.2544   55.7120 H   0  0  0  0  0  0
   20.7102   32.9567   55.1847 H   0  0  0  0  0  0
   22.1493   34.7930   54.1516 H   0  0  0  0  0  0
   21.1056   35.9741   55.0133 H   0  0  0  0  0  0
   21.7631   34.9911   57.1575 H   0  0  0  0  0  0
   22.8066   33.8097   56.2960 H   0  0  0  0  0  0
   24.3491   35.4294   55.6616 H   0  0  0  0  0  0
   23.1552   36.7666   55.7753 H   0  0  0  0  0  0
   25.1356   36.3595   57.5466 H   0  0  0  0  0  0
   23.5653   37.1259   57.9629 H   0  0  0  0  0  0
   23.1614   34.3619   58.2922 H   0  0  0  0  0  0
   24.7843   34.7093   58.9792 H   0  0  0  0  0  0
   23.8961   36.3571   60.4666 H   0  0  0  0  0  0
   22.3009   36.3392   59.6409 H   0  0  0  0  0  0
   22.3045   33.8009   60.3242 H   0  0  0  0  0  0
   23.5161   34.3414   61.5353 H   0  0  0  0  0  0
   21.7278   34.7714   62.8156 H   0  0  0  0  0  0
   21.5548   36.2479   61.8073 H   0  0  0  0  0  0
   20.3223   33.7457   60.7490 H   0  0  0  0  0  0
   19.5678   34.4786   62.2051 H   0  0  0  0  0  0
   19.4429   36.6549   61.0306 H   0  0  0  0  0  0
   20.1656   35.8986   59.5704 H   0  0  0  0  0  0
   18.1870   34.2866   59.6264 H   0  0  0  0  0  0
   17.4527   35.4178   60.8129 H   0  0  0  0  0  0
   16.6176   36.3474   58.9096 H   0  0  0  0  0  0
   18.2011   37.1951   58.9297 H   0  0  0  0  0  0
   18.0718   34.5135   57.5871 H   0  0  0  0  0  0
   17.2876   35.9048   56.7649 H   0  0  0  0  0  0
   19.5688   35.5666   55.9790 H   0  0  0  0  0  0
   20.1912   35.7479   57.6542 H   0  0  0  0  0  0
   19.4070   37.1392   56.8320 H   0  0  0  0  0  0
  1  2  2  0  0  0
  1  3  1  0  0  0
  1  4  1  0  0  0
  4  5  1  0  0  0
  4 19  1  0  0  0
  4 20  1  0  0  0
  5  6  1  0  0  0
  5 21  1  0  0  0
  5 22  1  0  0  0
  6  7  1  0  0  0
  6 23  1  0  0  0
  6 24  1  0  0  0
  7  8  1  0  0  0
  7 25  1  0  0  0
  7 26  1  0  0  0
  8  9  1  0  0  0
  8 27  1  0  0  0
  8 28  1  0  0  0
  9 10  1  0  0  0
  9 29  1  0  0  0
  9 30  1  0  0  0
 10 11  1  0  0  0
 10 31  1  0  0  0
 10 32  1  0  0  0
 11 12  1  0  0  0
 11 33  1  0  0  0
 11 34  1  0  0  0
 12 13  1  0  0  0
 12 35  1  0  0  0
 12 36  1  0  0  0
 13 14  1  0  0  0
 13 37  1  0  0  0
 13 38  1  0  0  0
 14 15  1  0  0  0
 14 39  1  0  0  0
 14 40  1  0  0  0
 15 16  1  0  0  0
 15 41  1  0  0  0
 15 42  1  0  0  0
 16 17  1  0  0  0
 16 43  1  0  0  0
 16 44  1  0  0  0
 17 18  1  0  0  0
 17 45  1  0  0  0
 17 46  1  0  0  0
 18 47  1  0  0  0
 18 48  1  0  0  0
 18 49  1  0  0  0
M  CHG  1   3  -1
M  END
> <s_m_source_file>
../2hmb_ligand.sdf

> <i_m_source_file_index>
1

> <s_epik_input>
Tz1DKFtPSF0pW0NIMl1bQ0gyXVtDSDJdW0NIMl1bQ0gyXVtDSDJdW0NIMl1bQ0gyXVtDSDJdW0NIMl1bQ0gyXVtDSDJdW0NIMl1bQ0gyXVtDSDNd

> <s_epik_cmdline>
J2VwaWtfYXBwJywgJy1pbWFlJywgJ2xpZ2FuZF9wcm8ubWFlJywgJy1vbWFlJywgJ2xpZ2FuZF9wcmVwLm1hZScsICctbXMnLCAnMScsICctcGgnLCAnNycsICctcGh0JywgJzAuNScsICctbnQn

> <r_lp_tautomer_probability>
1

> <r_epik_Ionization_Penalty>
  0.0049

> <r_epik_Ionization_Penalty_Charging>
  0.0049

> <r_epik_Ionization_Penalty_Neutral>
  0.0000

> <r_epik_State_Penalty>
 -0.0000

> <r_epik_Charging_Adjusted_Penalty>
0.00486649495677768

> <i_epik_Tot_Q>
-1

> <i_epik_Tot_abs_Q>
1

$$$$
