2hmh_ligand
                    3D
 Schrodinger Suite 2020-3.
171172  0  0  1  0            999 V2000
   31.5070   13.2800   47.4740 N   0  3  0  0  0  0
   30.0830   13.1510   47.7840 C   0  0  2  0  0  0
   29.5720   11.7860   47.3380 C   0  0  0  0  0  0
   29.8100   11.3660   46.2010 O   0  0  0  0  0  0
   29.2620   14.2400   47.0800 C   0  0  0  0  0  0
   29.8070   15.5380   47.2450 O   0  0  0  0  0  0
   28.8810   11.0890   48.2380 N   0  0  0  0  0  0
   28.1960    9.8610   47.8740 C   0  0  2  0  0  0
   27.0000   10.2410   46.9980 C   0  0  0  0  0  0
   26.2020   11.1110   47.3660 O   0  0  0  0  0  0
   27.7870    9.0310   49.1230 C   0  0  2  0  0  0
   28.9180    8.2700   49.5670 O   0  0  0  0  0  0
   26.6530    8.0630   48.8140 C   0  0  0  0  0  0
   26.9240    9.6120   45.8280 N   0  0  0  0  0  0
   25.8810    9.8740   44.8380 C   0  0  2  0  0  0
   24.8590    8.7200   44.8260 C   0  0  0  0  0  0
   25.0930    7.6640   44.2370 O   0  0  0  0  0  0
   26.4960   10.1110   43.4230 C   0  0  0  0  0  0
   25.4170   10.4450   42.4110 C   0  0  0  0  0  0
   27.5270   11.2350   43.4700 C   0  0  0  0  0  0
   23.7260    8.9490   45.4750 N   0  0  0  0  0  0
   22.7140    7.9080   45.6760 C   0  0  2  0  0  0
   21.6200    7.9280   44.6110 C   0  0  0  0  0  0
   21.0290    8.9720   44.3370 O   0  0  0  0  0  0
   22.0890    8.0410   47.0680 C   0  0  0  0  0  0
   23.0550    7.6890   48.2030 C   0  0  0  0  0  0
   22.5030    8.0430   49.5730 C   0  0  0  0  0  0
   21.5280    7.3870   50.0020 O   0  0  0  0  0  0
   23.0450    8.9780   50.2120 O   0  0  0  0  0  0
   21.3530    6.7630   44.0300 N   0  0  0  0  0  0
   20.2900    6.6280   43.0340 C   0  0  2  0  0  0
   19.0090    6.0760   43.6360 C   0  0  0  0  0  0
   19.0400    5.3430   44.6280 O   0  0  0  0  0  0
   20.7510    5.9200   41.7560 C   0  0  0  0  0  0
   21.6560    6.8060   40.9260 C   0  0  0  0  0  0
   23.0120    6.9340   41.2380 C   0  0  0  0  0  0
   21.1540    7.5520   39.8600 C   0  0  0  0  0  0
   23.8450    7.7550   40.5030 C   0  0  0  0  0  0
   21.9820    8.3960   39.1260 C   0  0  0  0  0  0
   23.3320    8.4880   39.4450 C   0  0  0  0  0  0
   24.1050    9.2380   38.8200 O   0  0  0  0  0  0
   24.5750    8.9330   37.3260 P   0  0  0  0  0  0
   25.4320   10.0240   36.8320 O   0  0  0  0  0  0
   23.3490    8.7810   36.3970 O   0  0  0  0  0  0
   25.3810    7.6210   37.3350 O   0  0  0  0  0  0
   17.8800    6.4600   43.0400 N   0  0  0  0  0  0
   16.5760    6.0020   43.4710 C   0  0  2  0  0  0
   15.6880    5.8030   42.2490 C   0  0  0  0  0  0
   16.0090    6.2550   41.1500 O   0  0  0  0  0  0
   15.9370    7.0080   44.4400 C   0  0  0  0  0  0
   16.8050    7.3040   45.5190 O   0  0  0  0  0  0
   14.5850    5.0940   42.4440 N   0  0  0  0  0  0
   13.5680    4.9820   41.4190 C   0  0  2  0  0  0
   12.2580    5.4530   42.0380 C   0  0  0  0  0  0
   12.1350    5.5060   43.2770 O   0  0  0  0  0  0
   13.4520    3.5360   40.8340 C   0  0  2  0  0  0
   12.9150    2.6610   41.8170 O   0  0  0  0  0  0
   14.7920    2.9920   40.4150 C   0  0  0  0  0  0
   11.2970    5.8200   41.1860 N   0  0  0  0  0  0
   10.0290    6.3680   41.6360 C   0  0  2  0  0  0
    8.9780    5.2590   41.7350 C   0  0  0  0  0  0
    8.8390    4.4630   40.8210 O   0  0  0  0  0  0
    9.5040    7.4810   40.6600 C   0  0  0  0  0  0
    8.2850    8.1590   41.2300 C   0  0  0  0  0  0
   10.5750    8.5200   40.4000 C   0  0  0  0  0  0
    8.2460    5.2090   42.8480 N   0  0  0  0  0  0
    7.0580    4.3550   42.9220 C   0  0  2  0  0  0
    5.8760    5.1480   42.4210 C   0  0  0  0  0  0
    5.4700    6.1310   43.0370 O   0  0  0  0  0  0
    6.7780    3.7950   44.3480 C   0  0  0  0  0  0
    5.6560    2.7450   44.3010 C   0  0  0  0  0  0
    8.0300    3.2210   44.9550 C   0  0  0  0  0  0
    5.3550    4.7390   41.2680 N   0  0  0  0  0  0
    4.1550    5.3330   40.6960 C   0  0  2  0  0  0
    2.9340    4.5460   41.1670 C   0  0  0  0  0  0
    2.6180    3.4930   40.6240 O   0  0  0  0  0  0
    4.2390    5.3640   39.1600 C   0  0  0  0  0  0
    5.3600    6.2150   38.6290 C   0  0  0  0  0  0
    6.5830    5.6940   38.2610 N   0  0  0  0  0  0
    5.4330    7.5470   38.3900 C   0  0  0  0  0  0
    7.3590    6.6680   37.8100 C   0  0  0  0  0  0
    6.6910    7.8060   37.8930 N   0  0  0  0  0  0
    2.2750    5.0470   42.2080 N   0  0  0  0  0  0
    1.0780    4.4060   42.7510 C   0  0  2  0  0  0
    0.0770    5.4380   43.2650 C   0  0  0  0  0  0
    0.2990    6.6550   43.1430 O   0  0  0  0  0  0
    1.4550    3.4350   43.8740 C   0  0  0  0  0  0
    2.3580    2.4370   43.4210 O   0  0  0  0  0  0
   -0.9710    5.0790   43.8420 O   0  0  0  0  0  0
   32.0681   12.4879   47.9914 H   0  0  0  0  0  0
   31.8676   14.2637   47.8093 H   0  0  0  0  0  0
   31.6559   13.1854   46.3882 H   0  0  0  0  0  0
   30.0142   13.2610   48.8763 H   0  0  0  0  0  0
   29.2220   14.0291   46.0011 H   0  0  0  0  0  0
   28.2411   14.2518   47.4894 H   0  0  0  0  0  0
   29.3094   16.4057   46.7873 H   0  0  0  0  0  0
   28.8345   11.4587   49.2730 H   0  0  0  0  0  0
   28.9125    9.2551   47.3000 H   0  0  0  0  0  0
   27.4869    9.6956   49.9465 H   0  0  0  0  0  0
   29.8513    8.7823   49.8437 H   0  0  0  0  0  0
   25.7730    8.6267   48.4708 H   0  0  0  0  0  0
   26.3954    7.4982   49.7221 H   0  0  0  0  0  0
   26.9715    7.3648   48.0259 H   0  0  0  0  0  0
   27.7007    8.8606   45.6229 H   0  0  0  0  0  0
   25.3845   10.7944   45.1791 H   0  0  0  0  0  0
   26.9954    9.1914   43.0841 H   0  0  0  0  0  0
   24.6772    9.6314   42.3818 H   0  0  0  0  0  0
   25.8713   10.5634   41.4162 H   0  0  0  0  0  0
   24.9199   11.3824   42.7010 H   0  0  0  0  0  0
   28.3065   10.9870   44.2054 H   0  0  0  0  0  0
   27.0331   12.1736   43.7616 H   0  0  0  0  0  0
   27.9845   11.3546   42.4769 H   0  0  0  0  0  0
   23.5584    9.9623   45.8688 H   0  0  0  0  0  0
   23.2722    6.9654   45.5765 H   0  0  0  0  0  0
   21.7591    9.0787   47.2242 H   0  0  0  0  0  0
   21.2245    7.3655   47.1479 H   0  0  0  0  0  0
   23.2573    6.6078   48.1902 H   0  0  0  0  0  0
   23.9973    8.2399   48.0667 H   0  0  0  0  0  0
   22.6664    9.2563   51.2066 H   0  0  0  0  0  0
   21.9543    5.8870   44.3148 H   0  0  0  0  0  0
   20.0662    7.6639   42.7393 H   0  0  0  0  0  0
   21.3055    5.0079   42.0218 H   0  0  0  0  0  0
   19.8740    5.6520   41.1485 H   0  0  0  0  0  0
   23.4211    6.3742   42.0791 H   0  0  0  0  0  0
   20.0989    7.4729   39.5982 H   0  0  0  0  0  0
   24.9032    7.8260   40.7547 H   0  0  0  0  0  0
   21.5733    8.9831   38.3036 H   0  0  0  0  0  0
   22.6521    9.6216   36.2640 H   0  0  0  0  0  0
   26.2936    7.5403   37.9439 H   0  0  0  0  0  0
   17.9664    7.1523   42.1895 H   0  0  0  0  0  0
   16.7446    5.0458   43.9880 H   0  0  0  0  0  0
   15.7133    7.9421   43.9039 H   0  0  0  0  0  0
   15.0056    6.5859   44.8453 H   0  0  0  0  0  0
   16.4897    8.0110   46.3005 H   0  0  0  0  0  0
   14.4511    4.5844   43.4096 H   0  0  0  0  0  0
   13.8835    5.6477   40.6021 H   0  0  0  0  0  0
   12.7650    3.5158   39.9751 H   0  0  0  0  0  0
   11.9324    2.8726   42.2639 H   0  0  0  0  0  0
   15.2330    3.6508   39.6524 H   0  0  0  0  0  0
   14.6636    1.9824   39.9976 H   0  0  0  0  0  0
   15.4583    2.9454   41.2890 H   0  0  0  0  0  0
   11.4915    5.6952   40.1106 H   0  0  0  0  0  0
   10.2600    6.7759   42.6311 H   0  0  0  0  0  0
    9.2219    7.0290   39.6977 H   0  0  0  0  0  0
    7.5036    7.4086   41.4208 H   0  0  0  0  0  0
    7.9106    8.9039   40.5124 H   0  0  0  0  0  0
    8.5509    8.6594   42.1728 H   0  0  0  0  0  0
   11.4676    8.0302   39.9836 H   0  0  0  0  0  0
   10.8378    9.0199   41.3440 H   0  0  0  0  0  0
   10.1974    9.2644   39.6836 H   0  0  0  0  0  0
    8.5414    5.8168   43.7160 H   0  0  0  0  0  0
    7.2721    3.5054   42.2569 H   0  0  0  0  0  0
    6.4630    4.6124   45.0133 H   0  0  0  0  0  0
    4.7552    3.1907   43.8539 H   0  0  0  0  0  0
    5.4288    2.4053   45.3222 H   0  0  0  0  0  0
    5.9813    1.8878   43.6932 H   0  0  0  0  0  0
    8.8141    3.9922   44.9760 H   0  0  0  0  0  0
    8.3717    2.3669   44.3518 H   0  0  0  0  0  0
    7.8191    2.8844   45.9808 H   0  0  0  0  0  0
    5.8667    3.9189   40.7430 H   0  0  0  0  0  0
    4.1068    6.3653   41.0730 H   0  0  0  0  0  0
    4.3967    4.3435   38.7808 H   0  0  0  0  0  0
    3.3013    5.7669   38.7495 H   0  0  0  0  0  0
    4.7130    8.3685   38.5197 H   0  0  0  0  0  0
    8.3755    6.5512   37.4343 H   0  0  0  0  0  0
    2.6569    5.9733   42.6620 H   0  0  0  0  0  0
    0.6343    3.8624   41.9039 H   0  0  0  0  0  0
    1.9342    3.9906   44.6936 H   0  0  0  0  0  0
    0.5481    2.9382   44.2490 H   0  0  0  0  0  0
    2.7201    1.6660   44.1171 H   0  0  0  0  0  0
   -1.6836    5.8331   44.2074 H   0  0  0  0  0  0
  1  2  1  0  0  0
  1 90  1  0  0  0
  1 91  1  0  0  0
  1 92  1  0  0  0
  2  3  1  0  0  0
  2  5  1  0  0  0
  2 93  1  0  0  0
  3  4  2  0  0  0
  3  7  1  0  0  0
  5  6  1  0  0  0
  5 94  1  0  0  0
  5 95  1  0  0  0
  6 96  1  0  0  0
  7  8  1  0  0  0
  7 97  1  0  0  0
  8  9  1  0  0  0
  8 11  1  0  0  0
  8 98  1  0  0  0
  9 10  2  0  0  0
  9 14  1  0  0  0
 11 12  1  0  0  0
 11 13  1  0  0  0
 11 99  1  0  0  0
 12100  1  0  0  0
 13101  1  0  0  0
 13102  1  0  0  0
 13103  1  0  0  0
 14 15  1  0  0  0
 14104  1  0  0  0
 15 16  1  0  0  0
 15 18  1  0  0  0
 15105  1  0  0  0
 16 17  2  0  0  0
 16 21  1  0  0  0
 18 19  1  0  0  0
 18 20  1  0  0  0
 18106  1  0  0  0
 19107  1  0  0  0
 19108  1  0  0  0
 19109  1  0  0  0
 20110  1  0  0  0
 20111  1  0  0  0
 20112  1  0  0  0
 21 22  1  0  0  0
 21113  1  0  0  0
 22 23  1  0  0  0
 22 25  1  0  0  0
 22114  1  0  0  0
 23 24  2  0  0  0
 23 30  1  0  0  0
 25 26  1  0  0  0
 25115  1  0  0  0
 25116  1  0  0  0
 26 27  1  0  0  0
 26117  1  0  0  0
 26118  1  0  0  0
 27 28  2  0  0  0
 27 29  1  0  0  0
 29119  1  0  0  0
 30 31  1  0  0  0
 30120  1  0  0  0
 31 32  1  0  0  0
 31 34  1  0  0  0
 31121  1  0  0  0
 32 33  2  0  0  0
 32 46  1  0  0  0
 34 35  1  0  0  0
 34122  1  0  0  0
 34123  1  0  0  0
 35 36  2  0  0  0
 35 37  1  0  0  0
 36 38  1  0  0  0
 36124  1  0  0  0
 37 39  2  0  0  0
 37125  1  0  0  0
 38 40  2  0  0  0
 38126  1  0  0  0
 39 40  1  0  0  0
 39127  1  0  0  0
 40 41  1  0  0  0
 41 42  1  0  0  0
 42 43  2  0  0  0
 42 44  1  0  0  0
 42 45  1  0  0  0
 44128  1  0  0  0
 45129  1  0  0  0
 46 47  1  0  0  0
 46130  1  0  0  0
 47 48  1  0  0  0
 47 50  1  0  0  0
 47131  1  0  0  0
 48 49  2  0  0  0
 48 52  1  0  0  0
 50 51  1  0  0  0
 50132  1  0  0  0
 50133  1  0  0  0
 51134  1  0  0  0
 52 53  1  0  0  0
 52135  1  0  0  0
 53 54  1  0  0  0
 53 56  1  0  0  0
 53136  1  0  0  0
 54 55  2  0  0  0
 54 59  1  0  0  0
 56 57  1  0  0  0
 56 58  1  0  0  0
 56137  1  0  0  0
 57138  1  0  0  0
 58139  1  0  0  0
 58140  1  0  0  0
 58141  1  0  0  0
 59 60  1  0  0  0
 59142  1  0  0  0
 60 61  1  0  0  0
 60 63  1  0  0  0
 60143  1  0  0  0
 61 62  2  0  0  0
 61 66  1  0  0  0
 63 64  1  0  0  0
 63 65  1  0  0  0
 63144  1  0  0  0
 64145  1  0  0  0
 64146  1  0  0  0
 64147  1  0  0  0
 65148  1  0  0  0
 65149  1  0  0  0
 65150  1  0  0  0
 66 67  1  0  0  0
 66151  1  0  0  0
 67 68  1  0  0  0
 67 70  1  0  0  0
 67152  1  0  0  0
 68 69  2  0  0  0
 68 73  1  0  0  0
 70 71  1  0  0  0
 70 72  1  0  0  0
 70153  1  0  0  0
 71154  1  0  0  0
 71155  1  0  0  0
 71156  1  0  0  0
 72157  1  0  0  0
 72158  1  0  0  0
 72159  1  0  0  0
 73 74  1  0  0  0
 73160  1  0  0  0
 74 75  1  0  0  0
 74 77  1  0  0  0
 74161  1  0  0  0
 75 76  2  0  0  0
 75 83  1  0  0  0
 77 78  1  0  0  0
 77162  1  0  0  0
 77163  1  0  0  0
 78 79  2  0  0  0
 78 80  1  0  0  0
 79 81  1  0  0  0
 80 82  2  0  0  0
 80164  1  0  0  0
 81 82  1  0  0  0
 81165  1  0  0  0
 83 84  1  0  0  0
 83166  1  0  0  0
 84 85  1  0  0  0
 84 87  1  0  0  0
 84167  1  0  0  0
 85 86  2  0  0  0
 85 89  1  0  0  0
 87 88  1  0  0  0
 87168  1  0  0  0
 87169  1  0  0  0
 88170  1  0  0  0
 89171  1  0  0  0
M  CHG  1   1   1
M  END
> <s_m_source_file>
../2hmh_ligand.sdf

> <i_m_source_file_index>
1

> <s_epik_input>
W09IXVtDSDJdW0NASF0oW05IMytdKUMoPU8pW05IXVtDQEBIXShbQ0BIXShbT0hdKVtDSDNdKUMoPU8pW05IXVtDQEBIXShbQ0hdKFtDSDNdKVtDSDNdKUMoPU8pW05IXVtDQEBIXShbQ0gyXVtDSDJdQyg9TylbT0hdKUMoPU8pW05IXVtDQEBIXShbQ0gyXWMxW2NIXVtjSF1jKFtjSF1bY0hdMSlPUCg9TykoW09IXSlbT0hdKUMoPU8pW05IXVtDQEBIXShbQ0gyXVtPSF0pQyg9TylbTkhdW0NAQEhdKFtDQEhdKFtPSF0pW0NIM10pQyg9TylbTkhdW0NAQEhdKFtDSF0oW0NIM10pW0NIM10pQyg9TylbTkhdW0NAQEhdKFtDSF0oW0NIM10pW0NIM10pQyg9TylbTkhdW0NASF0oQyg9TylbTkhdW0NASF0oQyg9TylbT0hdKVtDSDJdW09IXSlbQ0gyXUMyPU5bQ0gyXU49W0NIXTI=

> <s_epik_cmdline>
J2VwaWtfYXBwJywgJy1pbWFlJywgJ2xpZ2FuZF9wcm8ubWFlJywgJy1vbWFlJywgJ2xpZ2FuZF9wcmVwLm1hZScsICctbXMnLCAnMScsICctcGgnLCAnNycsICctcGh0JywgJzAuNScsICctbnQn

> <s_epik_pKa_notes>
Molecule size exceeds maximum supported for generating protonation states

> <s_epik_Chemistry_Notes>
This compound has an imine and may undergo hydrolysis.

$$$$
