2hmv_ligand
                    3D
 Schrodinger Suite 2020-3.
 39 41  0  0  1  0            999 V2000
  113.2460   48.3660   16.9490 P   0  0  0  0  0  0
  114.2380   48.9890   17.8610 O   0  0  0  0  0  0
  112.3360   47.3160   17.7720 O   0  5  0  0  0  0
  114.0200   47.5760   15.7780 O   0  5  0  0  0  0
  111.4900   50.3560   17.3990 P   0  0  1  0  0  0
  111.1080   49.4900   18.5390 O   0  0  0  0  0  0
  112.4170   51.5670   17.9370 O   0  5  0  0  0  0
  112.3110   49.5150   16.2730 O   0  0  0  0  0  0
  109.0940   55.2360   13.3070 N   0  0  0  0  0  0
  109.6030   56.1370   14.2170 C   0  0  0  0  0  0
  109.0230   57.2920   14.0780 N   0  0  0  0  0  0
  108.1080   57.2170   13.0820 C   0  0  0  0  0  0
  107.1920   58.1260   12.4810 C   0  0  0  0  0  0
  107.1020   59.4350   12.9280 N   0  0  0  0  0  0
  106.4050   57.6840   11.4670 N   0  0  0  0  0  0
  106.4760   56.4190   11.0210 C   0  0  0  0  0  0
  107.3280   55.5330   11.5580 N   0  0  0  0  0  0
  108.1490   55.8880   12.5710 C   0  0  0  0  0  0
  110.1160   50.9120   16.7290 O   0  0  0  0  0  0
  110.3940   52.1110   16.0130 C   0  0  0  0  0  0
  109.9650   51.9800   14.5470 C   0  0  1  0  0  0
  108.9600   52.9990   14.2190 O   0  0  0  0  0  0
  111.1700   52.2060   13.5970 C   0  0  1  0  0  0
  111.1270   51.2820   12.5010 O   0  0  0  0  0  0
  110.9990   53.6640   13.1670 C   0  0  1  0  0  0
  111.6250   53.9430   11.9170 O   0  0  0  0  0  0
  109.4770   53.8250   13.1300 C   0  0  2  0  0  0
  110.3800   55.9134   14.9480 H   0  0  0  0  0  0
  107.7454   59.7808   13.7505 H   0  0  0  0  0  0
  106.3872   60.1280   12.4602 H   0  0  0  0  0  0
  105.8264   56.1052   10.2039 H   0  0  0  0  0  0
  109.8445   52.9470   16.4704 H   0  0  0  0  0  0
  111.4737   52.3181   16.0498 H   0  0  0  0  0  0
  109.5112   50.9872   14.4114 H   0  0  0  0  0  0
  112.1692   51.9891   14.0026 H   0  0  0  0  0  0
  111.2388   50.2035   12.6862 H   0  0  0  0  0  0
  111.5253   54.4030   13.7891 H   0  0  0  0  0  0
  112.7176   53.8615   11.8187 H   0  0  0  0  0  0
  109.0223   53.5151   12.1775 H   0  0  0  0  0  0
  1  2  2  0  0  0
  1  3  1  0  0  0
  1  4  1  0  0  0
  1  8  1  0  0  0
  5  6  2  0  0  0
  5  7  1  0  0  0
  5  8  1  0  0  0
  5 19  1  0  0  0
  9 10  1  0  0  0
  9 18  1  0  0  0
  9 27  1  0  0  0
 10 11  2  0  0  0
 10 28  1  0  0  0
 11 12  1  0  0  0
 12 13  2  0  0  0
 12 18  1  0  0  0
 13 14  1  0  0  0
 13 15  1  0  0  0
 14 29  1  0  0  0
 14 30  1  0  0  0
 15 16  2  0  0  0
 16 17  1  0  0  0
 16 31  1  0  0  0
 17 18  2  0  0  0
 19 20  1  0  0  0
 20 21  1  0  0  0
 20 32  1  0  0  0
 20 33  1  0  0  0
 21 22  1  0  0  0
 21 23  1  0  0  0
 21 34  1  0  0  0
 22 27  1  0  0  0
 23 24  1  0  0  0
 23 25  1  0  0  0
 23 35  1  0  0  0
 24 36  1  0  0  0
 25 26  1  0  0  0
 25 27  1  0  0  0
 25 37  1  0  0  0
 26 38  1  0  0  0
 27 39  1  0  0  0
M  CHG  3   3  -1   4  -1   7  -1
M  END
> <s_m_source_file>
../2hmv_ligand.sdf

> <i_m_source_file_index>
1

> <s_epik_input>
Tz1QKFtPSF0pKFtPSF0pT1tQQEBdKD1PKShbT0hdKU9bQ0gyXVtDQEhdMU9bQ0BIXShbQ0BIXShbT0hdKVtDQEBIXTFbT0hdKW4oW2NIXW4yKWMoYzIzKW5bY0hdbmMzW05IMl0=

> <s_epik_cmdline>
J2VwaWtfYXBwJywgJy1pbWFlJywgJ2xpZ2FuZF9wcm8ubWFlJywgJy1vbWFlJywgJ2xpZ2FuZF9wcmVwLm1hZScsICctbXMnLCAnMScsICctcGgnLCAnNycsICctcGh0JywgJzAuNScsICctbnQn

> <r_lp_tautomer_probability>
0.999997216410988

> <r_epik_Ionization_Penalty>
  0.1037

> <r_epik_Ionization_Penalty_Charging>
  0.1033

> <r_epik_Ionization_Penalty_Neutral>
  0.0004

> <r_epik_State_Penalty>
  0.0922

> <r_epik_Charging_Adjusted_Penalty>
0.19546844050481

> <i_epik_Tot_Q>
-3

> <i_epik_Tot_abs_Q>
3

> <s_epik_Chemistry_Notes>
This compound contains an acetal/aminal-like group ( X-CH(R)-Y where X, Y are N, S, or O) that may be acid/base labile, releasing an aldehyde.

$$$$
