2hmw_ligand
                    3D
 Schrodinger Suite 2020-3.
 43 45  0  0  1  0            999 V2000
   47.4740   48.5180   19.0160 P   0  0  0  0  0  0
   46.0210   48.5910   18.7480 O   0  0  0  0  0  0
   47.8480   46.9780   19.2650 O   0  5  0  0  0  0
   47.8510   49.3770   20.3280 O   0  5  0  0  0  0
   48.0380   50.6370   17.4700 P   0  0  1  0  0  0
   48.5000   51.4460   18.6260 O   0  0  0  0  0  0
   48.8640   51.0970   16.1690 O   0  5  0  0  0  0
   48.3100   49.0550   17.7270 O   0  0  0  0  0  0
   45.7650   51.8760   18.2370 P   0  0  2  0  0  0
   46.3990   53.2270   18.1740 O   0  0  0  0  0  0
   45.9290   51.2840   19.7300 O   0  5  0  0  0  0
   46.4580   50.8650   17.1660 O   0  0  0  0  0  0
   42.4670   54.7910   13.9310 N   0  0  0  0  0  0
   42.9280   55.8010   14.7360 C   0  0  0  0  0  0
   42.1230   56.8250   14.6770 N   0  0  0  0  0  0
   41.1020   56.5550   13.8270 C   0  0  0  0  0  0
   39.9300   57.2520   13.3770 C   0  0  0  0  0  0
   39.6620   58.5370   13.7870 N   0  0  0  0  0  0
   39.1040   56.6470   12.5100 N   0  0  0  0  0  0
   39.3360   55.4010   12.0850 C   0  0  0  0  0  0
   40.4130   54.7060   12.4810 N   0  0  0  0  0  0
   41.3000   55.2310   13.3560 C   0  0  0  0  0  0
   44.1820   51.9660   17.8830 O   0  0  0  0  0  0
   43.9880   52.8720   16.7920 C   0  0  0  0  0  0
   43.8230   52.1000   15.4760 C   0  0  1  0  0  0
   42.6450   52.5330   14.7400 O   0  0  0  0  0  0
   45.0210   52.3230   14.5470 C   0  0  1  0  0  0
   45.2410   51.1530   13.7530 O   0  0  0  0  0  0
   44.6160   53.5440   13.7210 C   0  0  1  0  0  0
   45.2020   53.5180   12.4100 O   0  0  0  0  0  0
   43.0680   53.4700   13.7080 C   0  0  2  0  0  0
   43.8356   55.7545   15.3378 H   0  0  0  0  0  0
   40.3349   59.0392   14.4976 H   0  0  0  0  0  0
   38.7747   59.0627   13.4043 H   0  0  0  0  0  0
   38.6298   54.9363   11.3969 H   0  0  0  0  0  0
   43.0836   53.4722   16.9702 H   0  0  0  0  0  0
   44.8595   53.5380   16.7090 H   0  0  0  0  0  0
   43.6857   51.0398   15.7351 H   0  0  0  0  0  0
   45.9990   52.4446   15.0356 H   0  0  0  0  0  0
   45.5374   50.2094   14.2344 H   0  0  0  0  0  0
   45.0197   54.5015   14.0820 H   0  0  0  0  0  0
   46.2950   53.5652   12.2951 H   0  0  0  0  0  0
   42.6695   53.1217   12.7437 H   0  0  0  0  0  0
  1  2  2  0  0  0
  1  3  1  0  0  0
  1  4  1  0  0  0
  1  8  1  0  0  0
  5  6  2  0  0  0
  5  7  1  0  0  0
  5  8  1  0  0  0
  5 12  1  0  0  0
  9 10  2  0  0  0
  9 11  1  0  0  0
  9 12  1  0  0  0
  9 23  1  0  0  0
 13 14  1  0  0  0
 13 22  1  0  0  0
 13 31  1  0  0  0
 14 15  2  0  0  0
 14 32  1  0  0  0
 15 16  1  0  0  0
 16 17  2  0  0  0
 16 22  1  0  0  0
 17 18  1  0  0  0
 17 19  1  0  0  0
 18 33  1  0  0  0
 18 34  1  0  0  0
 19 20  2  0  0  0
 20 21  1  0  0  0
 20 35  1  0  0  0
 21 22  2  0  0  0
 23 24  1  0  0  0
 24 25  1  0  0  0
 24 36  1  0  0  0
 24 37  1  0  0  0
 25 26  1  0  0  0
 25 27  1  0  0  0
 25 38  1  0  0  0
 26 31  1  0  0  0
 27 28  1  0  0  0
 27 29  1  0  0  0
 27 39  1  0  0  0
 28 40  1  0  0  0
 29 30  1  0  0  0
 29 31  1  0  0  0
 29 41  1  0  0  0
 30 42  1  0  0  0
 31 43  1  0  0  0
M  CHG  4   3  -1   4  -1   7  -1  11  -1
M  END
> <s_m_source_file>
../2hmw_ligand.sdf

> <i_m_source_file_index>
1

> <s_epik_input>
Tz1QKFtPSF0pKFtPSF0pT1tQQEBdKD1PKShbT0hdKU9bUEBdKD1PKShbT0hdKU9bQ0gyXVtDQEhdMU9bQ0BIXShbQ0BIXShbT0hdKVtDQEBIXTFbT0hdKW4oW2NIXW4yKWMoYzIzKW5bY0hdbmMzW05IMl0=

> <s_epik_cmdline>
J2VwaWtfYXBwJywgJy1pbWFlJywgJ2xpZ2FuZF9wcm8ubWFlJywgJy1vbWFlJywgJ2xpZ2FuZF9wcmVwLm1hZScsICctbXMnLCAnMScsICctcGgnLCAnNycsICctcGh0JywgJzAuNScsICctbnQn

> <r_lp_tautomer_probability>
0.999997216410988

> <r_epik_Ionization_Penalty>
  0.0818

> <r_epik_Ionization_Penalty_Charging>
  0.0813

> <r_epik_Ionization_Penalty_Neutral>
  0.0004

> <r_epik_State_Penalty>
  0.0708

> <r_epik_Charging_Adjusted_Penalty>
0.152157994418768

> <i_epik_Tot_Q>
-4

> <i_epik_Tot_abs_Q>
4

> <s_epik_Chemistry_Notes>
This compound contains an acetal/aminal-like group ( X-CH(R)-Y where X, Y are N, S, or O) that may be acid/base labile, releasing an aldehyde.

$$$$
