2hnc_ligand
                    3D
 Schrodinger Suite 2020-3.
 14 14  0  0  1  0            999 V2000
   -5.8090    0.9480   16.5740 S   0  0  0  0  0  0
   -7.2360    1.0700   16.4500 O   0  0  0  0  0  0
   -5.3720    1.1730   17.9280 O   0  0  0  0  0  0
   -5.3340   -0.4610   16.0850 N   0  0  0  0  0  0
   -3.8050    2.3790   15.3710 N   0  0  0  0  0  0
   -3.5520    3.4730   14.5830 N   0  0  0  0  0  0
   -6.0920    3.5030   14.9420 S   0  0  0  0  0  0
   -5.1120    2.1980   15.5310 C   0  0  0  0  0  0
   -4.6210    4.2310   14.4250 C   0  0  0  0  0  0
   -4.5850    5.3490   13.6810 N   0  0  0  0  0  0
   -5.7662   -1.2386   16.7320 H   0  0  0  0  0  0
   -4.2362   -0.5142   16.1310 H   0  0  0  0  0  0
   -3.6181    5.7756   13.3757 H   0  0  0  0  0  0
   -5.5224    5.8378   13.3771 H   0  0  0  0  0  0
  1  2  2  0  0  0
  1  3  2  0  0  0
  1  4  1  0  0  0
  1  8  1  0  0  0
  4 11  1  0  0  0
  4 12  1  0  0  0
  5  6  1  0  0  0
  5  8  2  0  0  0
  6  9  2  0  0  0
  7  8  1  0  0  0
  7  9  1  0  0  0
  9 10  1  0  0  0
 10 13  1  0  0  0
 10 14  1  0  0  0
M  END
> <s_m_source_file>
../2hnc_ligand.sdf

> <i_m_source_file_index>
1

> <s_epik_input>
Tz1TKD1PKShbTkgyXSljMW5bbkhdL2MoczEpPU4vW0hd

> <s_epik_cmdline>
J2VwaWtfYXBwJywgJy1pbWFlJywgJ2xpZ2FuZF9wcm8ubWFlJywgJy1vbWFlJywgJ2xpZ2FuZF9wcmVwLm1hZScsICctbXMnLCAnMScsICctcGgnLCAnNycsICctcGh0JywgJzAuNScsICctbnQn

> <r_epik_Ionization_Penalty>
  0.1423

> <r_epik_Ionization_Penalty_Charging>
  0.0000

> <r_epik_Ionization_Penalty_Neutral>
  0.1423

> <r_epik_State_Penalty>
  0.1316

> <r_epik_Charging_Adjusted_Penalty>
0.131582527017296

> <i_epik_Tot_Q>
0

> <i_epik_Tot_abs_Q>
0

$$$$
