2hnx_ligand
                    3D
 Schrodinger Suite 2020-3.
 49 48  0  0  1  0            999 V2000
   26.2330   48.3590   15.4780 C   0  0  0  0  0  0
   26.4050   49.5320   15.0820 O   0  0  0  0  0  0
   26.9170   47.4610   14.9330 O   0  5  0  0  0  0
   25.2380   48.0670   16.5860 C   0  0  0  0  0  0
   25.4140   46.6810   17.2120 C   0  0  0  0  0  0
   25.0650   46.7170   18.7000 C   0  0  0  0  0  0
   26.0510   45.9340   19.5640 C   0  0  0  0  0  0
   25.5740   45.9000   21.0160 C   0  0  0  0  0  0
   26.7110   45.7960   22.0350 C   0  0  0  0  0  0
   26.6710   47.0280   22.9370 C   0  0  0  0  0  0
   27.9860   47.3890   23.6280 C   0  0  0  0  0  0
   29.2110   47.5290   22.7240 C   0  0  0  0  0  0
   28.9680   48.4640   21.5430 C   0  0  0  0  0  0
   30.1730   48.4630   20.6190 C   0  0  0  0  0  0
   30.1480   49.6910   19.7130 C   0  0  0  0  0  0
   31.0070   49.4950   18.4690 C   0  0  0  0  0  0
   30.5450   48.3090   17.6230 C   0  0  0  0  0  0
   29.1260   48.5050   17.1040 C   0  0  0  0  0  0
   25.3554   48.8094   17.3892 H   0  0  0  0  0  0
   24.2155   48.1203   16.1840 H   0  0  0  0  0  0
   24.7506   45.9636   16.7068 H   0  0  0  0  0  0
   26.4590   46.3572   17.0980 H   0  0  0  0  0  0
   25.0672   47.7592   19.0520 H   0  0  0  0  0  0
   24.0671   46.2804   18.8532 H   0  0  0  0  0  0
   26.1299   44.9033   19.1879 H   0  0  0  0  0  0
   27.0388   46.4163   19.5219 H   0  0  0  0  0  0
   25.0165   46.8213   21.2405 H   0  0  0  0  0  0
   24.9189   45.0292   21.1665 H   0  0  0  0  0  0
   26.5804   44.8856   22.6384 H   0  0  0  0  0  0
   27.6744   45.7502   21.5061 H   0  0  0  0  0  0
   26.3840   47.9082   22.3429 H   0  0  0  0  0  0
   25.9349   46.8713   23.7393 H   0  0  0  0  0  0
   27.8772   48.3559   24.1412 H   0  0  0  0  0  0
   28.2400   46.6106   24.3626 H   0  0  0  0  0  0
   30.0520   47.9335   23.3062 H   0  0  0  0  0  0
   29.4845   46.5424   22.3217 H   0  0  0  0  0  0
   28.0839   48.1253   20.9830 H   0  0  0  0  0  0
   28.7982   49.4858   21.9132 H   0  0  0  0  0  0
   31.0950   48.4784   21.2188 H   0  0  0  0  0  0
   30.1563   47.5569   19.9956 H   0  0  0  0  0  0
   29.1148   49.8883   19.3913 H   0  0  0  0  0  0
   30.5329   50.5615   20.2645 H   0  0  0  0  0  0
   30.9576   50.3983   17.8432 H   0  0  0  0  0  0
   32.0497   49.3130   18.7683 H   0  0  0  0  0  0
   31.2160   48.1912   16.7594 H   0  0  0  0  0  0
   30.5672   47.3933   18.2321 H   0  0  0  0  0  0
   28.8320   47.6326   16.5019 H   0  0  0  0  0  0
   29.0852   49.4109   16.4813 H   0  0  0  0  0  0
   28.4363   48.6130   17.9541 H   0  0  0  0  0  0
  1  2  2  0  0  0
  1  3  1  0  0  0
  1  4  1  0  0  0
  4  5  1  0  0  0
  4 19  1  0  0  0
  4 20  1  0  0  0
  5  6  1  0  0  0
  5 21  1  0  0  0
  5 22  1  0  0  0
  6  7  1  0  0  0
  6 23  1  0  0  0
  6 24  1  0  0  0
  7  8  1  0  0  0
  7 25  1  0  0  0
  7 26  1  0  0  0
  8  9  1  0  0  0
  8 27  1  0  0  0
  8 28  1  0  0  0
  9 10  1  0  0  0
  9 29  1  0  0  0
  9 30  1  0  0  0
 10 11  1  0  0  0
 10 31  1  0  0  0
 10 32  1  0  0  0
 11 12  1  0  0  0
 11 33  1  0  0  0
 11 34  1  0  0  0
 12 13  1  0  0  0
 12 35  1  0  0  0
 12 36  1  0  0  0
 13 14  1  0  0  0
 13 37  1  0  0  0
 13 38  1  0  0  0
 14 15  1  0  0  0
 14 39  1  0  0  0
 14 40  1  0  0  0
 15 16  1  0  0  0
 15 41  1  0  0  0
 15 42  1  0  0  0
 16 17  1  0  0  0
 16 43  1  0  0  0
 16 44  1  0  0  0
 17 18  1  0  0  0
 17 45  1  0  0  0
 17 46  1  0  0  0
 18 47  1  0  0  0
 18 48  1  0  0  0
 18 49  1  0  0  0
M  CHG  1   3  -1
M  END
> <s_m_source_file>
../2hnx_ligand.sdf

> <i_m_source_file_index>
1

> <s_epik_input>
Tz1DKFtPSF0pW0NIMl1bQ0gyXVtDSDJdW0NIMl1bQ0gyXVtDSDJdW0NIMl1bQ0gyXVtDSDJdW0NIMl1bQ0gyXVtDSDJdW0NIMl1bQ0gyXVtDSDNd

> <s_epik_cmdline>
J2VwaWtfYXBwJywgJy1pbWFlJywgJ2xpZ2FuZF9wcm8ubWFlJywgJy1vbWFlJywgJ2xpZ2FuZF9wcmVwLm1hZScsICctbXMnLCAnMScsICctcGgnLCAnNycsICctcGh0JywgJzAuNScsICctbnQn

> <r_lp_tautomer_probability>
1

> <r_epik_Ionization_Penalty>
  0.0049

> <r_epik_Ionization_Penalty_Charging>
  0.0049

> <r_epik_Ionization_Penalty_Neutral>
  0.0000

> <r_epik_State_Penalty>
 -0.0000

> <r_epik_Charging_Adjusted_Penalty>
0.00486649495677768

> <i_epik_Tot_Q>
-1

> <i_epik_Tot_abs_Q>
1

$$$$
