2hob_ligand
                    3D
 Schrodinger Suite 2020-3.
101103  0  0  1  0            999 V2000
    0.6530   -9.6070  109.9890 N   0  0  1  0  0  0
    0.6670  -10.5700  109.2020 C   0  0  1  0  0  0
    0.2280   -9.7530  107.8000 C   0  0  0  0  0  0
   -0.0330   -8.4530  108.1650 C   0  0  0  0  0  0
    0.1880   -8.2880  109.4960 O   0  0  0  0  0  0
    1.9130  -11.5160  108.9050 C   0  0  0  0  0  0
    2.4720  -11.8300  107.8030 O   0  0  0  0  0  0
    1.9400  -12.3320  110.0110 N   0  0  0  0  0  0
    2.5870  -13.6670  110.0360 C   0  0  1  0  0  0
    2.4560  -14.3370  111.4210 C   0  0  0  0  0  0
    1.9520  -14.5840  108.9940 C   0  0  0  0  0  0
    0.7180  -14.6670  108.9110 O   0  0  0  0  0  0
    3.2200  -14.9890  108.1440 N   0  0  0  0  0  0
    2.9070  -15.9860  107.1330 C   0  0  1  0  0  0
    3.2340  -15.4410  105.7050 C   0  0  0  0  0  0
    2.9150  -16.4460  104.6250 C   0  0  0  0  0  0
    2.4350  -14.1560  105.4470 C   0  0  0  0  0  0
    3.6910  -17.2490  107.4470 C   0  0  0  0  0  0
    4.9210  -17.2150  107.5630 O   0  0  0  0  0  0
    2.9780  -18.3650  107.5800 N   0  0  0  0  0  0
    3.6140  -19.6400  107.8710 C   0  0  1  0  0  0
    2.5160  -20.6330  108.2780 C   0  0  0  0  0  0
    2.3550  -21.0870  109.7450 C   0  0  0  0  0  0
    2.7690  -20.0230  110.7630 C   0  0  0  0  0  0
    0.8840  -21.4830  109.9620 C   0  0  0  0  0  0
    6.4320  -20.8310  105.5770 C   0  0  2  0  0  0
    6.9230  -22.2750  105.6200 C   0  0  0  0  0  0
    5.6880  -22.8090  104.8740 C   0  0  0  0  0  0
    6.0400  -24.1120  104.1880 C   0  0  0  0  0  0
    7.0100  -24.8500  104.1000 O   0  0  0  0  0  0
    4.8260  -24.2830  103.6470 O   0  0  0  0  0  0
    4.3700  -25.4360  102.9740 C   0  0  0  0  0  0
    2.8510  -25.3490  102.8070 C   0  0  0  0  0  0
    7.8980  -20.1870  105.1080 C   0  0  0  0  0  0
    7.6540  -18.7310  104.6630 C   0  0  2  0  0  0
    7.1630  -18.5590  103.2070 C   0  0  0  0  0  0
    7.7740  -17.2400  102.6890 C   0  0  0  0  0  0
    8.8980  -17.0440  103.5950 N   0  0  0  0  0  0
    8.8630  -17.8360  104.6860 C   0  0  0  0  0  0
    9.6950  -17.7670  105.5900 O   0  0  0  0  0  0
    2.0890  -24.4520  103.6450 C   0  0  0  0  0  0
    0.6780  -24.3090  103.5350 C   0  0  0  0  0  0
   -0.0470  -25.0790  102.5690 C   0  0  0  0  0  0
    0.6620  -26.0070  101.6840 C   0  0  0  0  0  0
    2.1190  -26.1500  101.8020 C   0  0  0  0  0  0
   -0.4980   -7.3570  107.2390 C   0  0  0  0  0  0
    4.3500  -20.1020  106.6190 C   0  0  0  0  0  0
    3.7160  -20.1980  105.5520 O   0  0  0  0  0  0
    5.6690  -20.3740  106.7520 N   0  0  0  0  0  0
   -0.0147   -9.8683  110.7145 H   0  0  0  0  0  0
    0.0729  -11.1948  109.8852 H   0  0  0  0  0  0
    0.1269  -10.0599  106.7485 H   0  0  0  0  0  0
    1.4447  -11.9439  110.9132 H   0  0  0  0  0  0
    3.6443  -13.4784  109.7981 H   0  0  0  0  0  0
    2.9090  -13.6892  112.1860 H   0  0  0  0  0  0
    2.9734  -15.3076  111.4092 H   0  0  0  0  0  0
    1.3922  -14.4914  111.6545 H   0  0  0  0  0  0
    4.2478  -14.6096  108.2426 H   0  0  0  0  0  0
    1.8302  -16.1970  107.2109 H   0  0  0  0  0  0
    4.3139  -15.2430  105.6377 H   0  0  0  0  0  0
    3.4847  -17.3698  104.8040 H   0  0  0  0  0  0
    3.1896  -16.0300  103.6444 H   0  0  0  0  0  0
    1.8383  -16.6705  104.6396 H   0  0  0  0  0  0
    2.6630  -13.4189  106.2310 H   0  0  0  0  0  0
    1.3591  -14.3844  105.4601 H   0  0  0  0  0  0
    2.7104  -13.7439  104.4650 H   0  0  0  0  0  0
    1.8855  -18.3089  107.4651 H   0  0  0  0  0  0
    4.3349  -19.5100  108.6916 H   0  0  0  0  0  0
    1.5304  -20.2107  108.0326 H   0  0  0  0  0  0
    2.6560  -21.5781  107.7329 H   0  0  0  0  0  0
    3.0326  -21.9355  109.9205 H   0  0  0  0  0  0
    3.8213  -19.7479  110.5985 H   0  0  0  0  0  0
    2.6494  -20.4230  111.7807 H   0  0  0  0  0  0
    2.1341  -19.1330  110.6419 H   0  0  0  0  0  0
    0.5977  -22.2479  109.2251 H   0  0  0  0  0  0
    0.2438  -20.5971  109.8386 H   0  0  0  0  0  0
    0.7591  -21.8871  110.9774 H   0  0  0  0  0  0
    5.5266  -20.5709  105.0090 H   0  0  0  0  0  0
    7.8890  -22.3495  105.0991 H   0  0  0  0  0  0
    7.0458  -22.5895  106.6669 H   0  0  0  0  0  0
    4.8719  -22.9801  105.5914 H   0  0  0  0  0  0
    5.3670  -22.0729  104.1223 H   0  0  0  0  0  0
    4.8485  -25.4968  101.9854 H   0  0  0  0  0  0
    4.6276  -26.3295  103.5616 H   0  0  0  0  0  0
    8.5984  -20.2142  105.9557 H   0  0  0  0  0  0
    8.3078  -20.7767  104.2747 H   0  0  0  0  0  0
    6.9154  -18.4324  105.4215 H   0  0  0  0  0  0
    7.5026  -19.4128  102.6023 H   0  0  0  0  0  0
    6.0640  -18.5142  103.1935 H   0  0  0  0  0  0
    8.0843  -17.3662  101.6412 H   0  0  0  0  0  0
    7.0244  -16.4377  102.7553 H   0  0  0  0  0  0
    9.6740  -16.3018  103.3562 H   0  0  0  0  0  0
    2.6173  -23.8603  104.3926 H   0  0  0  0  0  0
    0.1484  -23.6133  104.1859 H   0  0  0  0  0  0
   -1.1292  -24.9743  102.4920 H   0  0  0  0  0  0
    0.1119  -26.5872  100.9432 H   0  0  0  0  0  0
    2.6570  -26.8415  101.1535 H   0  0  0  0  0  0
   -0.5972   -7.7564  106.2189 H   0  0  0  0  0  0
    0.2364   -6.5380  107.2423 H   0  0  0  0  0  0
   -1.4723   -6.9773  107.5805 H   0  0  0  0  0  0
    6.1722  -20.2574  107.7232 H   0  0  0  0  0  0
  1  2  1  0  0  0
  1  5  1  0  0  0
  1 50  1  0  0  0
  2  3  1  0  0  0
  2  6  1  0  0  0
  2 51  1  0  0  0
  3  4  2  0  0  0
  3 52  1  0  0  0
  4  5  1  0  0  0
  4 46  1  0  0  0
  6  7  2  0  0  0
  6  8  1  0  0  0
  8  9  1  0  0  0
  8 53  1  0  0  0
  9 10  1  0  0  0
  9 11  1  0  0  0
  9 54  1  0  0  0
 10 55  1  0  0  0
 10 56  1  0  0  0
 10 57  1  0  0  0
 11 12  2  0  0  0
 11 13  1  0  0  0
 13 14  1  0  0  0
 13 58  1  0  0  0
 14 15  1  0  0  0
 14 18  1  0  0  0
 14 59  1  0  0  0
 15 16  1  0  0  0
 15 17  1  0  0  0
 15 60  1  0  0  0
 16 61  1  0  0  0
 16 62  1  0  0  0
 16 63  1  0  0  0
 17 64  1  0  0  0
 17 65  1  0  0  0
 17 66  1  0  0  0
 18 19  2  0  0  0
 18 20  1  0  0  0
 20 21  1  0  0  0
 20 67  1  0  0  0
 21 22  1  0  0  0
 21 47  1  0  0  0
 21 68  1  0  0  0
 22 23  1  0  0  0
 22 69  1  0  0  0
 22 70  1  0  0  0
 23 24  1  0  0  0
 23 25  1  0  0  0
 23 71  1  0  0  0
 24 72  1  0  0  0
 24 73  1  0  0  0
 24 74  1  0  0  0
 25 75  1  0  0  0
 25 76  1  0  0  0
 25 77  1  0  0  0
 26 27  1  0  0  0
 26 34  1  0  0  0
 26 49  1  0  0  0
 26 78  1  0  0  0
 27 28  1  0  0  0
 27 79  1  0  0  0
 27 80  1  0  0  0
 28 29  1  0  0  0
 28 81  1  0  0  0
 28 82  1  0  0  0
 29 30  2  0  0  0
 29 31  1  0  0  0
 31 32  1  0  0  0
 32 33  1  0  0  0
 32 83  1  0  0  0
 32 84  1  0  0  0
 33 41  2  0  0  0
 33 45  1  0  0  0
 34 35  1  0  0  0
 34 85  1  0  0  0
 34 86  1  0  0  0
 35 36  1  0  0  0
 35 39  1  0  0  0
 35 87  1  0  0  0
 36 37  1  0  0  0
 36 88  1  0  0  0
 36 89  1  0  0  0
 37 38  1  0  0  0
 37 90  1  0  0  0
 37 91  1  0  0  0
 38 39  1  0  0  0
 38 92  1  0  0  0
 39 40  2  0  0  0
 41 42  1  0  0  0
 41 93  1  0  0  0
 42 43  2  0  0  0
 42 94  1  0  0  0
 43 44  1  0  0  0
 43 95  1  0  0  0
 44 45  2  0  0  0
 44 96  1  0  0  0
 45 97  1  0  0  0
 46 98  1  0  0  0
 46 99  1  0  0  0
 46100  1  0  0  0
 47 48  2  0  0  0
 47 49  1  0  0  0
 49101  1  0  0  0
M  END
> <s_m_source_file>
../2hob_ligand.sdf

> <i_m_source_file_index>
1

> <s_epik_input>
W0NIXTE9QyhbQ0gzXSlPW05IMitdW0NAQEhdMUMoPU8pW05IXVtDQEBIXShbQ0gzXSlDKD1PKVtOSF1bQ0BASF0oW0NIXShbQ0gzXSlbQ0gzXSlDKD1PKVtOSF1bQ0BASF0oW0NIMl1bQ0hdKFtDSDNdKVtDSDNdKUMoPU8pW05IXVtDQEBIXShbQ0gyXVtDQEBIXTJbQ0gyXVtDSDJdW05IXUMyPU8pW0NIMl1bQ0gyXUMoPU8pT1tDSDJdYzNbY0hdW2NIXVtjSF1bY0hdW2NIXTM=

> <s_epik_cmdline>
J2VwaWtfYXBwJywgJy1pbWFlJywgJ2xpZ2FuZF9wcm8ubWFlJywgJy1vbWFlJywgJ2xpZ2FuZF9wcmVwLm1hZScsICctbXMnLCAnMScsICctcGgnLCAnNycsICctcGh0JywgJzAuNScsICctbnQn

> <r_lp_tautomer_probability>
1

> <r_epik_Ionization_Penalty>
  0.0001

> <r_epik_Ionization_Penalty_Charging>
  0.0000

> <r_epik_Ionization_Penalty_Neutral>
  0.0001

> <r_epik_State_Penalty>
 -0.0000

> <r_epik_Charging_Adjusted_Penalty>
0

> <i_epik_Tot_Q>
0

> <i_epik_Tot_abs_Q>
0

> <s_epik_Chemistry_Notes>
This compound has an ester and may undergo hydrolysis at high or low pH. This compound has a N-S or N-O group and may undergo hydrolysis at high or low pH.

$$$$
