2hoc_ligand
                    3D
 Schrodinger Suite 2020-3.
 28 29  0  0  1  0            999 V2000
   -5.7200    0.8180   16.6140 S   0  0  0  0  0  0
   -7.1140    0.9350   16.5620 O   0  0  0  0  0  0
   -5.2540    1.0250   17.9420 O   0  0  0  0  0  0
   -5.2880   -0.6130   16.1320 N   0  0  0  0  0  0
   -3.7220    2.3480   15.4350 N   0  0  0  0  0  0
   -3.5280    3.4480   14.6020 N   0  0  0  0  0  0
   -5.9640    3.3760   15.0470 S   0  0  0  0  0  0
   -5.0080    2.0370   15.5080 C   0  0  0  0  0  0
   -4.6940    3.9880   14.2070 C   0  0  0  0  0  0
   -4.9220    5.2840   13.9070 N   0  5  0  0  0  0
   -4.4080    6.0460   12.8690 S   0  0  0  0  0  0
   -5.4360    6.7450   12.2210 O   0  0  0  0  0  0
   -3.7210    5.1780   11.9160 O   0  0  0  0  0  0
   -3.0410    7.3160   14.9540 C   0  0  0  0  0  0
   -2.3750    8.0070   12.6680 C   0  0  0  0  0  0
   -2.2490    8.3410   15.5060 C   0  0  0  0  0  0
   -1.4530    9.1750   14.6500 C   0  0  0  0  0  0
   -1.5770    9.0420   13.2100 C   0  0  0  0  0  0
   -3.1560    7.1570   13.5310 C   0  0  0  0  0  0
   -2.1650    8.4320   16.8040 F   0  0  0  0  0  0
   -0.7470    9.9220   12.2730 Cl  0  0  0  0  0  0
   -0.6150   10.1360   15.2440 N   0  0  0  0  0  0
   -5.7185   -1.3713   16.8026 H   0  0  0  0  0  0
   -4.1908   -0.6896   16.1482 H   0  0  0  0  0  0
   -3.5743    6.6336   15.6158 H   0  0  0  0  0  0
   -2.3993    7.8513   11.5895 H   0  0  0  0  0  0
   -0.5482   10.2055   16.3398 H   0  0  0  0  0  0
   -0.0265   10.8180   14.6127 H   0  0  0  0  0  0
  1  2  2  0  0  0
  1  3  2  0  0  0
  1  4  1  0  0  0
  1  8  1  0  0  0
  4 23  1  0  0  0
  4 24  1  0  0  0
  5  6  1  0  0  0
  5  8  2  0  0  0
  6  9  2  0  0  0
  7  8  1  0  0  0
  7  9  1  0  0  0
  9 10  1  0  0  0
 10 11  1  0  0  0
 11 12  2  0  0  0
 11 13  2  0  0  0
 11 19  1  0  0  0
 14 16  2  0  0  0
 14 19  1  0  0  0
 14 25  1  0  0  0
 15 18  1  0  0  0
 15 19  2  0  0  0
 15 26  1  0  0  0
 16 17  1  0  0  0
 16 20  1  0  0  0
 17 18  2  0  0  0
 17 22  1  0  0  0
 18 21  1  0  0  0
 22 27  1  0  0  0
 22 28  1  0  0  0
M  CHG  1  10  -1
M  END
> <s_m_source_file>
../2hoc_ligand.sdf

> <i_m_source_file_index>
1

> <s_epik_input>
Tz1TKD1PKShbTkgyXSljMW5uYyhzMSlbTkhdUyg9TykoPU8pYyhbY0hdYzJGKVtjSF1jKENsKWMyW05IMl0=

> <s_epik_cmdline>
J2VwaWtfYXBwJywgJy1pbWFlJywgJ2xpZ2FuZF9wcm8ubWFlJywgJy1vbWFlJywgJ2xpZ2FuZF9wcmVwLm1hZScsICctbXMnLCAnMScsICctcGgnLCAnNycsICctcGh0JywgJzAuNScsICctbnQn

> <r_epik_Ionization_Penalty>
  0.0732

> <r_epik_Ionization_Penalty_Charging>
  0.0019

> <r_epik_Ionization_Penalty_Neutral>
  0.0713

> <r_epik_State_Penalty>
  0.0626

> <r_epik_Charging_Adjusted_Penalty>
0.0644940896080758

> <i_epik_Tot_Q>
-1

> <i_epik_Tot_abs_Q>
1

$$$$
