2hog_ligand
                    3D
 Schrodinger Suite 2020-3.
 56 61  0  0  1  0            999 V2000
   14.1590   -2.6780   11.8960 C   0  0  0  0  0  0
   12.9890   -1.8780   11.7570 C   0  0  0  0  0  0
   13.0200   -0.7140   10.9040 C   0  0  0  0  0  0
   15.3630   -2.3500   11.2170 C   0  0  0  0  0  0
   15.4060   -1.1850   10.3740 C   0  0  0  0  0  0
   14.2370   -0.4080   10.2400 C   0  0  0  0  0  0
   14.5730    0.6110    9.3930 N   0  3  0  0  0  0
   15.8420    0.5770    8.9690 N   0  0  0  0  0  0
   16.3620   -0.5080    9.5570 C   0  0  0  0  0  0
   17.7760   -0.8610    9.3190 C   0  0  0  0  0  0
   18.6860   -0.0870    8.6610 N   0  0  0  0  0  0
   18.4150   -2.0180    9.7130 C   0  0  0  0  0  0
   19.7480   -1.9530    9.2840 C   0  0  0  0  0  0
   19.9020   -0.7210    8.6150 C   0  0  0  0  0  0
   21.1360   -0.3100    8.0400 C   0  0  0  0  0  0
   22.2370   -1.2020    8.1480 C   0  0  0  0  0  0
   22.1150   -2.4550    8.8120 C   0  0  0  0  0  0
   20.8650   -2.8340    9.3850 C   0  0  0  0  0  0
   23.2870   -3.3990    8.8850 C   0  0  0  0  0  0
   23.6250   -4.0830    7.5290 N   0  0  0  0  0  0
   24.6910   -5.1640    7.7260 C   0  0  0  0  0  0
   25.0370   -5.8460    6.3840 C   0  0  0  0  0  0
   23.7880   -6.4160    5.6990 C   0  0  0  0  0  0
   22.7200   -5.3410    5.5140 C   0  0  0  0  0  0
   22.3620   -4.6780    6.8490 C   0  0  0  0  0  0
   11.7680   -2.2430   12.4990 C   0  0  0  0  0  0
   10.6950   -1.4370   13.0310 C   0  0  0  0  0  0
    9.8060   -2.2310   13.6370 N   0  0  0  0  0  0
   10.3510   -3.4310   13.4570 N   0  3  0  0  0  0
   11.5060   -3.5230   12.7970 N   0  0  0  0  0  0
   10.4630    0.0350   13.0030 C   0  0  0  0  0  0
    9.8800    0.5140   14.2080 O   0  0  0  0  0  0
   14.1301   -3.5597   12.5362 H   0  0  0  0  0  0
   12.1364   -0.0893   10.7737 H   0  0  0  0  0  0
   16.2475   -2.9762   11.3338 H   0  0  0  0  0  0
   18.0571   -2.8999   10.2645 H   0  0  0  0  0  0
   21.2104    0.6651    7.5364 H   0  0  0  0  0  0
   23.1959   -0.9204    7.7128 H   0  0  0  0  0  0
   20.7669   -3.8006    9.9008 H   0  0  0  0  0  0
   24.1829   -2.8471    9.2055 H   0  0  0  0  0  0
   23.0698   -4.1978    9.6094 H   0  0  0  0  0  0
   25.6038   -4.7082    8.1372 H   0  0  0  0  0  0
   24.3153   -5.9265    8.4242 H   0  0  0  0  0  0
   25.4982   -5.1113    5.7075 H   0  0  0  0  0  0
   25.7411   -6.6719    6.5632 H   0  0  0  0  0  0
   24.0611   -6.8129    4.7101 H   0  0  0  0  0  0
   23.3685   -7.2247    6.3155 H   0  0  0  0  0  0
   23.0938   -4.5671    4.8275 H   0  0  0  0  0  0
   21.8109   -5.7958    5.0937 H   0  0  0  0  0  0
   21.9117   -5.4337    7.5094 H   0  0  0  0  0  0
   21.6341   -3.8750    6.6608 H   0  0  0  0  0  0
   11.4218    0.5546   12.8592 H   0  0  0  0  0  0
    9.7835    0.2834   12.1744 H   0  0  0  0  0  0
    9.6549    1.5846   14.3224 H   0  0  0  0  0  0
   13.9018    1.4146    9.0558 H   0  0  0  0  0  0
    9.8493   -4.3275   13.8501 H   0  0  0  0  0  0
  1  2  2  0  0  0
  1  4  1  0  0  0
  1 33  1  0  0  0
  2  3  1  0  0  0
  2 26  1  0  0  0
  3  6  2  0  0  0
  3 34  1  0  0  0
  4  5  2  0  0  0
  4 35  1  0  0  0
  5  6  1  0  0  0
  5  9  1  0  0  0
  6  7  1  0  0  0
  7  8  1  0  0  0
  7 55  1  0  0  0
  8  9  2  0  0  0
  9 10  1  0  0  0
 10 11  2  0  0  0
 10 12  1  0  0  0
 11 14  1  0  0  0
 12 13  2  0  0  0
 12 36  1  0  0  0
 13 14  1  0  0  0
 13 18  1  0  0  0
 14 15  2  0  0  0
 15 16  1  0  0  0
 15 37  1  0  0  0
 16 17  1  0  0  0
 16 38  1  0  0  0
 17 18  2  0  0  0
 17 19  1  0  0  0
 18 39  1  0  0  0
 19 20  1  0  0  0
 19 40  1  0  0  0
 19 41  1  0  0  0
 20 21  1  0  0  0
 20 25  1  0  0  0
 21 22  1  0  0  0
 21 42  1  0  0  0
 21 43  1  0  0  0
 22 23  1  0  0  0
 22 44  1  0  0  0
 22 45  1  0  0  0
 23 24  1  0  0  0
 23 46  1  0  0  0
 23 47  1  0  0  0
 24 25  1  0  0  0
 24 48  1  0  0  0
 24 49  1  0  0  0
 25 50  1  0  0  0
 25 51  1  0  0  0
 26 27  2  0  0  0
 26 30  1  0  0  0
 27 28  1  0  0  0
 27 31  1  0  0  0
 28 29  1  0  0  0
 29 30  2  0  0  0
 29 56  1  0  0  0
 31 32  1  0  0  0
 31 52  1  0  0  0
 31 53  1  0  0  0
 32 54  1  0  0  0
M  CHG  2   7   1  29   1
M  END
> <s_m_source_file>
../2hog_ligand.sdf

> <i_m_source_file_index>
1

> <s_epik_input>
bjFuW25IXWMoW0NIMl1bT0hdKWMxLWMoW2NIXVtjSF0yKVtjSF1jKGMyMylbbkhdbmMzQyhbQ0hdPTQpPU5DKEM0NSk9W0NIXVtDSDJdQyg9W0NIXTUpW0NIMl1bTkgrXTZbQ0gyXVtDSDJdW0NIMl1bQ0gyXVtDSDJdNg==

> <s_epik_cmdline>
J2VwaWtfYXBwJywgJy1pbWFlJywgJ2xpZ2FuZF9wcm8ubWFlJywgJy1vbWFlJywgJ2xpZ2FuZF9wcmVwLm1hZScsICctbXMnLCAnMScsICctcGgnLCAnNycsICctcGh0JywgJzAuNScsICctbnQn

> <r_epik_Ionization_Penalty>
  0.0023

> <r_epik_Ionization_Penalty_Charging>
  0.0000

> <r_epik_Ionization_Penalty_Neutral>
  0.0023

> <r_epik_State_Penalty>
  0.0871

> <r_epik_Charging_Adjusted_Penalty>
0.0871543914130136

> <i_epik_Tot_Q>
2

> <i_epik_Tot_abs_Q>
2

> <s_epik_Chemistry_Notes>
This compound has an imine and may undergo hydrolysis.

$$$$
