2hqu_ligand
                    3D
 Schrodinger Suite 2020-3.
 40 41  0  0  1  0            999 V2000
   25.0820    8.4480   -1.8590 O   0  0  0  0  0  0
   24.6340    8.1740   -2.9650 C   0  0  0  0  0  0
   23.9940    6.9690   -3.2000 C   0  0  0  0  0  0
   23.5280    6.7140   -4.4890 C   0  0  0  0  0  0
   24.8140    9.0780   -3.9920 N   0  0  0  0  0  0
   24.3450    8.8360   -5.2660 C   0  0  0  0  0  0
   24.5200    9.6870   -6.1580 O   0  0  0  0  0  0
   23.6810    7.6400   -5.4960 N   0  0  0  0  0  0
   23.1970    7.3480   -6.8620 C   0  0  1  0  0  0
   24.3520    6.6280   -7.5530 C   0  0  0  0  0  0
   23.8920    5.1830   -7.5510 C   0  0  2  0  0  0
   24.4460    4.4200   -8.5980 O   0  0  0  0  0  0
   22.0870    6.4560   -6.8460 O   0  0  0  0  0  0
   22.3780    5.3050   -7.6270 C   0  0  2  0  0  0
   21.6630    4.0960   -7.0570 C   0  0  0  0  0  0
   21.9810    3.9890   -5.6840 O   0  0  0  0  0  0
   21.3150    2.8950   -4.7010 P   0  0  1  0  0  0
   20.9760    1.6620   -5.4980 O   0  0  0  0  0  0
   22.2350    2.6820   -3.5220 O   0  5  0  0  0  0
   19.8720    3.5650   -4.2050 N   0  0  1  0  0  0
   18.3510    3.1740   -4.8050 P   0  0  1  0  0  0
   18.2120    1.6820   -4.8730 O   0  0  0  0  0  0
   17.3570    3.9120   -3.9550 O   0  5  0  0  0  0
   18.2950    3.7200   -6.3160 O   0  0  0  0  0  0
   18.0220    2.7590   -7.5690 P   0  0  0  0  0  0
   19.0570    1.6580   -7.7230 O   0  5  0  0  0  0
   16.6910    2.1380   -7.2990 O   0  0  0  0  0  0
   18.1020    3.5420   -8.8460 O   0  5  0  0  0  0
   23.8584    6.2408   -2.4004 H   0  0  0  0  0  0
   23.0345    5.7660   -4.7029 H   0  0  0  0  0  0
   25.3446   10.0234   -3.8059 H   0  0  0  0  0  0
   22.8290    8.2664   -7.3428 H   0  0  0  0  0  0
   24.4812    7.0320   -8.5679 H   0  0  0  0  0  0
   25.2766    6.7810   -6.9770 H   0  0  0  0  0  0
   24.2661    4.5815   -6.7094 H   0  0  0  0  0  0
   25.5335    4.2625   -8.6479 H   0  0  0  0  0  0
   22.0117    5.4348   -8.6561 H   0  0  0  0  0  0
   20.5771    4.2200   -7.1810 H   0  0  0  0  0  0
   21.9918    3.1910   -7.5889 H   0  0  0  0  0  0
   19.7274    3.3711   -3.1319 H   0  0  0  0  0  0
  1  2  2  0  0  0
  2  3  1  0  0  0
  2  5  1  0  0  0
  3  4  2  0  0  0
  3 29  1  0  0  0
  4  8  1  0  0  0
  4 30  1  0  0  0
  5  6  1  0  0  0
  5 31  1  0  0  0
  6  7  2  0  0  0
  6  8  1  0  0  0
  8  9  1  0  0  0
  9 10  1  0  0  0
  9 13  1  0  0  0
  9 32  1  0  0  0
 10 11  1  0  0  0
 10 33  1  0  0  0
 10 34  1  0  0  0
 11 12  1  0  0  0
 11 14  1  0  0  0
 11 35  1  0  0  0
 12 36  1  0  0  0
 13 14  1  0  0  0
 14 15  1  0  0  0
 14 37  1  0  0  0
 15 16  1  0  0  0
 15 38  1  0  0  0
 15 39  1  0  0  0
 16 17  1  0  0  0
 17 18  2  0  0  0
 17 19  1  0  0  0
 17 20  1  0  0  0
 20 21  1  0  0  0
 20 40  1  0  0  0
 21 22  2  0  0  0
 21 23  1  0  0  0
 21 24  1  0  0  0
 24 25  1  0  0  0
 25 26  1  0  0  0
 25 27  2  0  0  0
 25 28  1  0  0  0
M  CHG  4  19  -1  23  -1  26  -1  28  -1
M  END
> <s_m_source_file>
../2hqu_ligand.sdf

> <i_m_source_file_index>
1

> <s_epik_input>
Tz1jMVtjSF1bY0hdbihjKD1PKVtuSF0xKVtDQEhdMltDSDJdW0NASF0oW09IXSlbQ0BIXShPMilbQ0gyXU9bUEBAXSg9TykoW09IXSlbTkhdW1BAQF0oPU8pKFtPSF0pT1AoPU8pKFtPSF0pW09IXQ==

> <s_epik_cmdline>
J2VwaWtfYXBwJywgJy1pbWFlJywgJ2xpZ2FuZF9wcm8ubWFlJywgJy1vbWFlJywgJ2xpZ2FuZF9wcmVwLm1hZScsICctbXMnLCAnMScsICctcGgnLCAnNycsICctcGh0JywgJzAuNScsICctbnQn

> <r_lp_tautomer_probability>
0.999537046341301

> <r_epik_Ionization_Penalty>
  0.1180

> <r_epik_Ionization_Penalty_Charging>
  0.1161

> <r_epik_Ionization_Penalty_Neutral>
  0.0020

> <r_epik_State_Penalty>
  0.1037

> <r_epik_Charging_Adjusted_Penalty>
0.219792583007898

> <i_epik_Tot_Q>
-4

> <i_epik_Tot_abs_Q>
4

> <s_epik_Chemistry_Notes>
This compound contains an acetal/aminal-like group ( X-CH(R)-Y where X, Y are N, S, or O) that may be acid/base labile, releasing an aldehyde.

$$$$
