2hr6_ligand
                    3D
 Schrodinger Suite 2020-3.
 35 36  0  0  1  0            999 V2000
   -7.5800   31.4320    4.6140 N   0  0  0  0  0  0
   -6.5680   30.6590    4.1380 C   0  0  0  0  0  0
   -5.5670   31.2790    3.4090 N   0  0  0  0  0  0
   -5.5250   32.6300    3.1130 C   0  0  0  0  0  0
   -6.5490   33.4520    3.6180 C   0  0  0  0  0  0
   -7.5660   32.8260    4.3430 C   0  0  0  0  0  0
   -6.5240   29.4420    4.3270 O   0  0  0  0  0  0
   -4.5580   33.0550    2.4610 O   0  0  0  0  0  0
   -8.6640   30.8650    5.4150 C   0  0  1  0  0  0
   -8.5210   31.3080    6.8780 C   0  0  0  0  0  0
   -9.6060   32.3650    7.0550 C   0  0  1  0  0  0
  -10.6370   31.9570    6.0000 C   0  0  2  0  0  0
   -9.8770   31.3790    4.9170 O   0  0  0  0  0  0
  -10.0790   32.3560    8.3890 O   0  0  0  0  0  0
  -11.4910   33.1070    5.4880 C   0  0  0  0  0  0
  -10.6700   34.1550    4.9760 O   0  0  0  0  0  0
  -11.3590   35.5570    4.5440 P   0  0  1  0  0  0
  -12.3900   35.9570    5.5870 O   0  0  0  0  0  0
  -10.2420   36.5740    4.2780 O   0  5  0  0  0  0
  -12.0240   35.3080    3.1290 O   0  0  0  0  0  0
  -13.4800   35.4960    2.5250 P   0  0  0  0  0  0
  -14.4910   36.2720    3.3350 O   0  5  0  0  0  0
  -13.4400   35.6020    1.0390 O   0  0  0  0  0  0
  -13.9690   33.9680    2.6350 O   0  5  0  0  0  0
   -4.7249   30.6888    3.0185 H   0  0  0  0  0  0
   -6.5489   34.5291    3.4511 H   0  0  0  0  0  0
   -8.3874   33.4363    4.7183 H   0  0  0  0  0  0
   -8.6740   29.7714    5.2973 H   0  0  0  0  0  0
   -8.6749   30.4429    7.5398 H   0  0  0  0  0  0
   -7.5135   31.7188    7.0399 H   0  0  0  0  0  0
   -9.3059   33.4207    6.9819 H   0  0  0  0  0  0
  -11.3432   31.2184    6.4070 H   0  0  0  0  0  0
   -9.4061   32.6356    9.2130 H   0  0  0  0  0  0
  -12.1489   32.7455    4.6839 H   0  0  0  0  0  0
  -12.1027   33.5044    6.3114 H   0  0  0  0  0  0
  1  2  1  0  0  0
  1  6  1  0  0  0
  1  9  1  0  0  0
  2  3  1  0  0  0
  2  7  2  0  0  0
  3  4  1  0  0  0
  3 25  1  0  0  0
  4  5  1  0  0  0
  4  8  2  0  0  0
  5  6  2  0  0  0
  5 26  1  0  0  0
  6 27  1  0  0  0
  9 10  1  0  0  0
  9 13  1  0  0  0
  9 28  1  0  0  0
 10 11  1  0  0  0
 10 29  1  0  0  0
 10 30  1  0  0  0
 11 12  1  0  0  0
 11 14  1  0  0  0
 11 31  1  0  0  0
 12 13  1  0  0  0
 12 15  1  0  0  0
 12 32  1  0  0  0
 14 33  1  0  0  0
 15 16  1  0  0  0
 15 34  1  0  0  0
 15 35  1  0  0  0
 16 17  1  0  0  0
 17 18  2  0  0  0
 17 19  1  0  0  0
 17 20  1  0  0  0
 20 21  1  0  0  0
 21 22  1  0  0  0
 21 23  2  0  0  0
 21 24  1  0  0  0
M  CHG  3  19  -1  22  -1  24  -1
M  END
> <s_m_source_file>
../2hr6_ligand.sdf

> <i_m_source_file_index>
1

> <s_epik_input>
W2NIXTFbY0hdYyg9TylbbkhdYyg9TyluMVtDQEhdMltDSDJdW0NASF0oW09IXSlbQ0BIXShPMilbQ0gyXU9bUEBAXSg9TykoW09IXSlPUCg9TykoW09IXSlbT0hd

> <s_epik_cmdline>
J2VwaWtfYXBwJywgJy1pbWFlJywgJ2xpZ2FuZF9wcm8ubWFlJywgJy1vbWFlJywgJ2xpZ2FuZF9wcmVwLm1hZScsICctbXMnLCAnMScsICctcGgnLCAnNycsICctcGh0JywgJzAuNScsICctbnQn

> <r_lp_tautomer_probability>
0.999537046341301

> <r_epik_Ionization_Penalty>
  0.1059

> <r_epik_Ionization_Penalty_Charging>
  0.1059

> <r_epik_Ionization_Penalty_Neutral>
  0.0000

> <r_epik_State_Penalty>
  0.0927

> <r_epik_Charging_Adjusted_Penalty>
0.198601772383938

> <i_epik_Tot_Q>
-3

> <i_epik_Tot_abs_Q>
3

> <s_epik_Chemistry_Notes>
This compound contains an acetal/aminal-like group ( X-CH(R)-Y where X, Y are N, S, or O) that may be acid/base labile, releasing an aldehyde.

$$$$
