2hrp_ligand
                    3D
 Schrodinger Suite 2020-3.
164167  0  0  1  0            999 V2000
    8.4720   34.9810   67.1040 N   0  3  0  0  0  0
    7.4870   35.4990   66.1180 C   0  0  2  0  0  0
    7.5820   34.7500   64.7870 C   0  0  0  0  0  0
    8.3560   33.8010   64.6460 O   0  0  0  0  0  0
    7.6870   36.9980   65.9160 C   0  0  0  0  0  0
    6.3850   37.7530   65.9320 C   0  0  0  0  0  0
    6.5950   39.4770   66.3240 S   0  0  0  0  0  0
    7.1220   39.3230   68.0710 C   0  0  0  0  0  0
    6.7660   35.1520   63.8300 N   0  0  0  0  0  0
    6.7420   34.4980   62.5350 C   0  0  2  0  0  0
    7.9730   34.7760   61.6680 C   0  0  0  0  0  0
    8.3240   35.9220   61.4070 O   0  0  0  0  0  0
    5.4700   34.9040   61.7870 C   0  0  0  0  0  0
    5.1450   33.9760   60.7690 O   0  0  0  0  0  0
    8.6490   33.7120   61.2620 N   0  0  0  0  0  0
    9.8090   33.8150   60.3940 C   0  0  2  0  0  0
    9.3800   33.1050   59.1300 C   0  0  0  0  0  0
    9.4100   31.8730   59.0630 O   0  0  0  0  0  0
   11.0070   33.0780   60.9820 C   0  0  0  0  0  0
   11.6120   33.5290   62.3090 C   0  0  0  0  0  0
   12.8390   32.6570   62.6210 C   0  0  0  0  0  0
   12.0190   34.9970   62.2050 C   0  0  0  0  0  0
    8.9630   33.8610   58.1060 N   0  0  0  0  0  0
    8.5210   33.2760   56.8370 C   0  0  2  0  0  0
    9.3730   32.1080   56.3040 C   0  0  0  0  0  0
   10.5700   32.2630   56.0360 O   0  0  0  0  0  0
    8.5310   34.4800   55.8990 C   0  0  0  0  0  0
    8.1150   35.5800   56.8250 C   0  0  0  0  0  0
    8.9570   35.3330   58.0370 C   0  0  0  0  0  0
    8.7320   30.9450   56.1790 N   0  0  0  0  0  0
    9.3850   29.7490   55.6780 C   0  0  0  0  0  0
   10.2250   29.0270   56.7170 C   0  0  0  0  0  0
   10.8840   28.0240   56.4240 O   0  0  0  0  0  0
   10.1480   29.4780   57.9570 N   0  0  0  0  0  0
   10.9610   28.8720   59.0000 C   0  0  2  0  0  0
   10.2130   28.5590   60.2900 C   0  0  0  0  0  0
   10.3140   27.4410   60.8180 O   0  0  0  0  0  0
   12.1750   29.7790   59.2670 C   0  0  0  0  0  0
   13.0390   29.9830   58.0110 C   0  0  0  0  0  0
   13.8500   31.2600   58.0510 C   0  0  0  0  0  0
   13.0940   32.4150   57.5790 N   0  0  0  0  0  0
   13.3640   33.6790   57.9120 C   0  0  0  0  0  0
   14.3490   33.9560   58.7540 N   0  0  0  0  0  0
   12.6350   34.6750   57.4180 N   0  0  0  0  0  0
    9.4250   29.5230   60.7610 N   0  0  0  0  0  0
    8.6720   29.3810   62.0000 C   0  0  2  0  0  0
    7.3400   30.1480   61.9710 C   0  0  0  0  0  0
    7.3070   31.3630   61.8050 O   0  0  0  0  0  0
    9.5180   29.8660   63.1900 C   0  0  0  0  0  0
    8.8040   29.7450   64.4900 C   0  0  0  0  0  0
    8.3170   30.7670   65.2590 C   0  0  0  0  0  0
    8.3920   28.5280   65.1350 C   0  0  0  0  0  0
    7.6130   30.2630   66.3320 N   0  0  0  0  0  0
    7.6400   28.8950   66.2820 C   0  0  0  0  0  0
    8.5740   27.1590   64.8510 C   0  0  0  0  0  0
    7.0700   27.9420   67.1450 C   0  0  0  0  0  0
    8.0010   26.2080   65.7160 C   0  0  0  0  0  0
    7.2600   26.6100   66.8450 C   0  0  0  0  0  0
    6.2530   29.4480   62.2350 N   0  0  0  0  0  0
    4.9350   30.0650   62.2260 C   0  0  2  0  0  0
    4.2870   29.7360   63.5730 C   0  0  0  0  0  0
    3.8740   28.6060   63.8250 O   0  0  0  0  0  0
    4.1310   29.4820   61.0670 C   0  0  0  0  0  0
    3.0180   30.3400   60.5230 C   0  0  0  0  0  0
    1.8410   30.4130   61.4520 C   0  0  0  0  0  0
    0.5380   30.4520   60.6550 C   0  0  0  0  0  0
    0.2430   29.1510   59.9790 N   0  3  0  0  0  0
    4.2140   30.7250   64.4640 N   0  0  0  0  0  0
    3.6290   30.5580   65.7980 C   0  0  2  0  0  0
    2.1830   30.0910   65.7330 C   0  0  0  0  0  0
    1.5160   30.2990   64.7230 O   0  0  0  0  0  0
    3.7040   31.9670   66.3780 C   0  0  0  0  0  0
    4.8310   32.5990   65.6210 C   0  0  0  0  0  0
    4.5780   32.1260   64.2270 C   0  0  0  0  0  0
    1.7300   29.4210   66.7870 N   0  0  0  0  0  0
    0.3500   28.9520   66.8610 C   0  0  2  0  0  0
   -0.5370   30.0640   67.4400 C   0  0  0  0  0  0
   -0.1380   30.6460   68.4820 O   0  0  0  0  0  0
    0.2560   27.6820   67.7210 C   0  0  0  0  0  0
   -1.6030   30.3560   66.8390 O   0  0  0  0  0  0
    8.3191   33.9005   67.2420 H   0  0  0  0  0  0
    8.3339   35.4967   68.0658 H   0  0  0  0  0  0
    9.4917   35.1627   66.7336 H   0  0  0  0  0  0
    6.4893   35.3182   66.5444 H   0  0  0  0  0  0
    8.3219   37.3951   66.7218 H   0  0  0  0  0  0
    8.1728   37.1756   64.9452 H   0  0  0  0  0  0
    5.9113   37.6881   64.9413 H   0  0  0  0  0  0
    5.7163   37.3148   66.6875 H   0  0  0  0  0  0
    7.3023   40.3243   68.4892 H   0  0  0  0  0  0
    8.0478   38.7314   68.1239 H   0  0  0  0  0  0
    6.3324   38.8209   68.6493 H   0  0  0  0  0  0
    6.0955   36.0008   64.0300 H   0  0  0  0  0  0
    6.7556   33.4283   62.7908 H   0  0  0  0  0  0
    4.6286   34.9524   62.4939 H   0  0  0  0  0  0
    5.6164   35.8906   61.3232 H   0  0  0  0  0  0
    4.2537   34.1348   60.1441 H   0  0  0  0  0  0
    8.3044   32.7252   61.6048 H   0  0  0  0  0  0
   10.0761   34.8740   60.2628 H   0  0  0  0  0  0
   10.7395   32.0258   61.1589 H   0  0  0  0  0  0
   11.8504   33.1285   60.2776 H   0  0  0  0  0  0
   10.8708   33.4246   63.1150 H   0  0  0  0  0  0
   12.5313   31.6034   62.6930 H   0  0  0  0  0  0
   13.2820   32.9757   63.5761 H   0  0  0  0  0  0
   13.5817   32.7680   61.8172 H   0  0  0  0  0  0
   11.1322   35.6084   61.9817 H   0  0  0  0  0  0
   12.7588   35.1162   61.3997 H   0  0  0  0  0  0
   12.4591   35.3239   63.1586 H   0  0  0  0  0  0
    7.5374   32.8076   56.9894 H   0  0  0  0  0  0
    9.5420   34.6158   55.4874 H   0  0  0  0  0  0
    7.8202   34.3102   55.0768 H   0  0  0  0  0  0
    8.3233   36.5528   56.3557 H   0  0  0  0  0  0
    7.0381   35.4964   57.0332 H   0  0  0  0  0  0
    8.5178   35.7415   58.9591 H   0  0  0  0  0  0
    9.9886   35.6992   57.9287 H   0  0  0  0  0  0
    7.6720   30.9116   56.4710 H   0  0  0  0  0  0
    8.6249   29.0381   55.3220 H   0  0  0  0  0  0
   10.0540   30.0172   54.8470 H   0  0  0  0  0  0
    9.4709   30.3098   58.2010 H   0  0  0  0  0  0
   11.2436   27.8948   58.5814 H   0  0  0  0  0  0
   11.8276   30.7663   59.6054 H   0  0  0  0  0  0
   12.8070   29.3261   60.0452 H   0  0  0  0  0  0
   13.7429   29.1437   57.9099 H   0  0  0  0  0  0
   12.3909   30.0270   57.1233 H   0  0  0  0  0  0
   14.1664   31.4612   59.0851 H   0  0  0  0  0  0
   14.7377   31.1508   57.4106 H   0  0  0  0  0  0
   12.2382   32.2731   56.9026 H   0  0  0  0  0  0
   14.9610   33.1427   59.1712 H   0  0  0  0  0  0
   11.8139   34.4610   56.7180 H   0  0  0  0  0  0
   12.8529   35.7131   57.7093 H   0  0  0  0  0  0
    9.3540   30.4530   60.1778 H   0  0  0  0  0  0
    8.4654   28.3023   62.0604 H   0  0  0  0  0  0
   10.4381   29.2666   63.2542 H   0  0  0  0  0  0
    9.7794   30.9248   63.0467 H   0  0  0  0  0  0
    8.4645   31.8271   65.0528 H   0  0  0  0  0  0
    9.1470   26.8435   63.9791 H   0  0  0  0  0  0
    6.4975   28.2462   68.0212 H   0  0  0  0  0  0
    8.1323   25.1458   65.5096 H   0  0  0  0  0  0
    6.8271   25.8505   67.4960 H   0  0  0  0  0  0
    6.3576   28.3774   62.4651 H   0  0  0  0  0  0
    5.0303   31.1519   62.0860 H   0  0  0  0  0  0
    4.8018   29.2854   60.2177 H   0  0  0  0  0  0
    3.6576   28.5416   61.3856 H   0  0  0  0  0  0
    3.3881   31.3637   60.3647 H   0  0  0  0  0  0
    2.6687   29.9244   59.5663 H   0  0  0  0  0  0
    1.8352   29.5290   62.1066 H   0  0  0  0  0  0
    1.9140   31.3231   62.0655 H   0  0  0  0  0  0
   -0.2989   30.6803   61.3314 H   0  0  0  0  0  0
    0.6054   31.2295   59.8798 H   0  0  0  0  0  0
   -0.7017   29.2334   59.4216 H   0  0  0  0  0  0
    0.1547   28.3568   60.7349 H   0  0  0  0  0  0
    1.0591   28.9060   59.2833 H   0  0  0  0  0  0
    4.1738   29.7893   66.3657 H   0  0  0  0  0  0
    2.7471   32.4834   66.2116 H   0  0  0  0  0  0
    3.9063   31.9088   67.4577 H   0  0  0  0  0  0
    4.7719   33.6929   65.7210 H   0  0  0  0  0  0
    5.7898   32.2449   66.0275 H   0  0  0  0  0  0
    5.4678   32.1695   63.5817 H   0  0  0  0  0  0
    3.7420   32.6437   63.7341 H   0  0  0  0  0  0
    2.4238   29.2221   67.6171 H   0  0  0  0  0  0
    0.0485   28.7170   65.8296 H   0  0  0  0  0  0
   -0.7429   31.4483   68.9298 H   0  0  0  0  0  0
    0.8974   26.8991   67.2901 H   0  0  0  0  0  0
   -0.7862   27.3309   67.7437 H   0  0  0  0  0  0
    0.5895   27.9070   68.7448 H   0  0  0  0  0  0
  1  2  1  0  0  0
  1 81  1  0  0  0
  1 82  1  0  0  0
  1 83  1  0  0  0
  2  3  1  0  0  0
  2  5  1  0  0  0
  2 84  1  0  0  0
  3  4  2  0  0  0
  3  9  1  0  0  0
  5  6  1  0  0  0
  5 85  1  0  0  0
  5 86  1  0  0  0
  6  7  1  0  0  0
  6 87  1  0  0  0
  6 88  1  0  0  0
  7  8  1  0  0  0
  8 89  1  0  0  0
  8 90  1  0  0  0
  8 91  1  0  0  0
  9 10  1  0  0  0
  9 92  1  0  0  0
 10 11  1  0  0  0
 10 13  1  0  0  0
 10 93  1  0  0  0
 11 12  2  0  0  0
 11 15  1  0  0  0
 13 14  1  0  0  0
 13 94  1  0  0  0
 13 95  1  0  0  0
 14 96  1  0  0  0
 15 16  1  0  0  0
 15 97  1  0  0  0
 16 17  1  0  0  0
 16 19  1  0  0  0
 16 98  1  0  0  0
 17 18  2  0  0  0
 17 23  1  0  0  0
 19 20  1  0  0  0
 19 99  1  0  0  0
 19100  1  0  0  0
 20 21  1  0  0  0
 20 22  1  0  0  0
 20101  1  0  0  0
 21102  1  0  0  0
 21103  1  0  0  0
 21104  1  0  0  0
 22105  1  0  0  0
 22106  1  0  0  0
 22107  1  0  0  0
 23 24  1  0  0  0
 23 29  1  0  0  0
 24 25  1  0  0  0
 24 27  1  0  0  0
 24108  1  0  0  0
 25 26  2  0  0  0
 25 30  1  0  0  0
 27 28  1  0  0  0
 27109  1  0  0  0
 27110  1  0  0  0
 28 29  1  0  0  0
 28111  1  0  0  0
 28112  1  0  0  0
 29113  1  0  0  0
 29114  1  0  0  0
 30 31  1  0  0  0
 30115  1  0  0  0
 31 32  1  0  0  0
 31116  1  0  0  0
 31117  1  0  0  0
 32 33  2  0  0  0
 32 34  1  0  0  0
 34 35  1  0  0  0
 34118  1  0  0  0
 35 36  1  0  0  0
 35 38  1  0  0  0
 35119  1  0  0  0
 36 37  2  0  0  0
 36 45  1  0  0  0
 38 39  1  0  0  0
 38120  1  0  0  0
 38121  1  0  0  0
 39 40  1  0  0  0
 39122  1  0  0  0
 39123  1  0  0  0
 40 41  1  0  0  0
 40124  1  0  0  0
 40125  1  0  0  0
 41 42  1  0  0  0
 41126  1  0  0  0
 42 43  2  0  0  0
 42 44  1  0  0  0
 43127  1  0  0  0
 44128  1  0  0  0
 44129  1  0  0  0
 45 46  1  0  0  0
 45130  1  0  0  0
 46 47  1  0  0  0
 46 49  1  0  0  0
 46131  1  0  0  0
 47 48  2  0  0  0
 47 59  1  0  0  0
 49 50  1  0  0  0
 49132  1  0  0  0
 49133  1  0  0  0
 50 51  2  0  0  0
 50 52  1  0  0  0
 51 53  1  0  0  0
 51134  1  0  0  0
 52 54  2  0  0  0
 52 55  1  0  0  0
 53 54  1  0  0  0
 54 56  1  0  0  0
 55 57  2  0  0  0
 55135  1  0  0  0
 56 58  2  0  0  0
 56136  1  0  0  0
 57 58  1  0  0  0
 57137  1  0  0  0
 58138  1  0  0  0
 59 60  1  0  0  0
 59139  1  0  0  0
 60 61  1  0  0  0
 60 63  1  0  0  0
 60140  1  0  0  0
 61 62  2  0  0  0
 61 68  1  0  0  0
 63 64  1  0  0  0
 63141  1  0  0  0
 63142  1  0  0  0
 64 65  1  0  0  0
 64143  1  0  0  0
 64144  1  0  0  0
 65 66  1  0  0  0
 65145  1  0  0  0
 65146  1  0  0  0
 66 67  1  0  0  0
 66147  1  0  0  0
 66148  1  0  0  0
 67149  1  0  0  0
 67150  1  0  0  0
 67151  1  0  0  0
 68 69  1  0  0  0
 68 74  1  0  0  0
 69 70  1  0  0  0
 69 72  1  0  0  0
 69152  1  0  0  0
 70 71  2  0  0  0
 70 75  1  0  0  0
 72 73  1  0  0  0
 72153  1  0  0  0
 72154  1  0  0  0
 73 74  1  0  0  0
 73155  1  0  0  0
 73156  1  0  0  0
 74157  1  0  0  0
 74158  1  0  0  0
 75 76  1  0  0  0
 75159  1  0  0  0
 76 77  1  0  0  0
 76 79  1  0  0  0
 76160  1  0  0  0
 77 78  1  0  0  0
 77 80  2  0  0  0
 78161  1  0  0  0
 79162  1  0  0  0
 79163  1  0  0  0
 79164  1  0  0  0
M  CHG  2   1   1  67   1
M  END
> <s_m_source_file>
../2hrp_ligand.sdf

> <i_m_source_file_index>
1

> <s_epik_input>
W0NIM11TW0NIMl1bQ0gyXVtDQEhdKFtOSDMrXSlDKD1PKVtOSF1bQ0BASF0oW0NIMl1bT0hdKUMoPU8pW05IXVtDQEBIXShbQ0gyXVtDSF0oW0NIM10pW0NIM10pQyg9TylOMVtDQEBIXShbQ0gyXVtDSDJdW0NIMl0xKUMoPU8pW05IXVtDSDJdQyg9TylbTkhdW0NAQEhdKFtDSDJdW0NIMl1bQ0gyXVtOSF0vQyg9TlxbSF0pW05IMl0pQyg9TylbTkhdW0NAQEhdKFtDSDJdYzJbY0hdW25IXWMoYzIzKVtjSF1bY0hdW2NIXVtjSF0zKUMoPU8pW05IXVtDQEBIXShbQ0gyXVtDSDJdW0NIMl1bQ0gyXVtOSDMrXSlDKD1PKU40W0NAQEhdKFtDSDJdW0NIMl1bQ0gyXTQpQyg9TylbTkhdW0NAQEhdKFtDSDNdKUMoPU8pW09IXQ==

> <s_epik_cmdline>
J2VwaWtfYXBwJywgJy1pbWFlJywgJ2xpZ2FuZF9wcm8ubWFlJywgJy1vbWFlJywgJ2xpZ2FuZF9wcmVwLm1hZScsICctbXMnLCAnMScsICctcGgnLCAnNycsICctcGh0JywgJzAuNScsICctbnQn

> <s_epik_pKa_notes>
Molecule size exceeds maximum supported for generating protonation states

> <s_epik_Chemistry_Notes>
This compound has an imine and may undergo hydrolysis.

$$$$
