2hs1_ligand
                    3D
 Schrodinger Suite 2020-3.
 75 78  0  0  1  0            999 V2000
   -1.2940    8.2620   29.8300 N   0  0  0  0  0  0
   -0.8280    8.5490   31.1020 C   0  0  0  0  0  0
    0.4250    8.0880   31.4730 C   0  0  0  0  0  0
    0.9200    8.3460   32.7100 C   0  0  0  0  0  0
    0.1980    9.0660   33.6280 C   0  0  0  0  0  0
   -1.0480    9.5490   33.3140 C   0  0  0  0  0  0
   -1.5610    9.2870   32.0450 C   0  0  0  0  0  0
    0.7890    9.2590   35.2520 S   0  0  0  0  0  0
    2.2310    9.0680   35.1950 O   0  0  0  0  0  0
    0.2870   10.4610   35.7810 O   0  0  0  0  0  0
    0.1740    8.0660   36.2430 N   0  0  1  0  0  0
   -1.2910    8.0190   36.3910 C   0  0  0  0  0  0
   -1.7500    7.6730   37.7900 C   0  0  0  0  0  0
   -1.2450    8.6560   38.8220 C   0  0  0  0  0  0
   -3.2530    7.5460   37.8520 C   0  0  0  0  0  0
    0.8050    6.7340   36.2310 C   0  0  0  0  0  0
    1.4980    6.4280   37.5590 C   0  0  1  0  0  0
    1.8620    5.0460   37.5910 O   0  0  0  0  0  0
    2.7360    7.2970   37.8680 C   0  0  1  0  0  0
    3.1030    7.0790   39.2530 N   0  0  0  0  0  0
    2.9370    8.0290   40.2010 C   0  0  0  0  0  0
    2.5280    9.2000   40.0720 O   0  0  0  0  0  0
    3.3030    7.5090   41.3910 O   0  0  0  0  0  0
    3.4220    8.4640   42.5090 C   0  0  1  0  0  0
    2.9760    7.6430   43.7780 C   0  0  0  0  0  0
    4.0980    6.7860   44.0650 O   0  0  0  0  0  0
    5.2850    7.5520   43.7520 C   0  0  1  0  0  0
    6.1250    6.7300   43.0080 O   0  0  0  0  0  0
    6.2670    7.2060   41.6490 C   0  0  0  0  0  0
    5.8740    8.6700   41.7000 C   0  0  0  0  0  0
    4.8810    8.7320   42.8400 C   0  0  1  0  0  0
    3.9560    7.0470   36.9580 C   0  0  0  0  0  0
    6.2390    7.3670   37.9690 C   0  0  0  0  0  0
    7.3210    8.1750   38.3500 C   0  0  0  0  0  0
    7.2620    9.5160   38.1280 C   0  0  0  0  0  0
    6.1490   10.0800   37.5210 C   0  0  0  0  0  0
    5.0910    9.3160   37.1470 C   0  0  0  0  0  0
    5.1240    7.9490   37.3620 C   0  0  0  0  0  0
   -0.6722    7.6784   29.1351 H   0  0  0  0  0  0
   -2.2860    8.6176   29.5144 H   0  0  0  0  0  0
    1.0194    7.5120   30.7637 H   0  0  0  0  0  0
    1.9088    7.9746   32.9790 H   0  0  0  0  0  0
   -1.6226   10.1239   34.0402 H   0  0  0  0  0  0
   -2.5495    9.6619   31.7797 H   0  0  0  0  0  0
   -1.7165    9.0019   36.1405 H   0  0  0  0  0  0
   -1.7038    7.2573   35.7132 H   0  0  0  0  0  0
   -1.3115    6.6952   38.0381 H   0  0  0  0  0  0
   -0.1495    8.7284   38.7542 H   0  0  0  0  0  0
   -1.5281    8.3102   39.8271 H   0  0  0  0  0  0
   -1.6900    9.6445   38.6354 H   0  0  0  0  0  0
   -3.5918    6.8263   37.0922 H   0  0  0  0  0  0
   -3.7121    8.5267   37.6586 H   0  0  0  0  0  0
   -3.5502    7.1924   38.8503 H   0  0  0  0  0  0
    0.0373    5.9662   36.0548 H   0  0  0  0  0  0
    1.5567    6.6916   35.4291 H   0  0  0  0  0  0
    0.7615    6.5957   38.3587 H   0  0  0  0  0  0
    1.1047    4.2731   37.3933 H   0  0  0  0  0  0
    2.4602    8.3537   37.7368 H   0  0  0  0  0  0
    3.5325    6.1149   39.5630 H   0  0  0  0  0  0
    2.8811    9.3764   42.2174 H   0  0  0  0  0  0
    2.7653    8.3348   44.6069 H   0  0  0  0  0  0
    2.0692    7.0668   43.5419 H   0  0  0  0  0  0
    5.8039    7.8339   44.6800 H   0  0  0  0  0  0
    7.3096    7.0775   41.3226 H   0  0  0  0  0  0
    5.6022    6.6309   40.9877 H   0  0  0  0  0  0
    6.7673    9.2830   41.8901 H   0  0  0  0  0  0
    5.4259    8.9631   40.7391 H   0  0  0  0  0  0
    4.9233    9.7628   43.2216 H   0  0  0  0  0  0
    4.2702    5.9966   37.0464 H   0  0  0  0  0  0
    3.6848    7.2619   35.9138 H   0  0  0  0  0  0
    6.2685    6.2918   38.1457 H   0  0  0  0  0  0
    8.1999    7.7328   38.8191 H   0  0  0  0  0  0
    8.0947   10.1516   38.4290 H   0  0  0  0  0  0
    6.1237   11.1548   37.3414 H   0  0  0  0  0  0
    4.2204    9.7765   36.6800 H   0  0  0  0  0  0
  1  2  1  0  0  0
  1 39  1  0  0  0
  1 40  1  0  0  0
  2  3  2  0  0  0
  2  7  1  0  0  0
  3  4  1  0  0  0
  3 41  1  0  0  0
  4  5  2  0  0  0
  4 42  1  0  0  0
  5  6  1  0  0  0
  5  8  1  0  0  0
  6  7  2  0  0  0
  6 43  1  0  0  0
  7 44  1  0  0  0
  8  9  2  0  0  0
  8 10  2  0  0  0
  8 11  1  0  0  0
 11 12  1  0  0  0
 11 16  1  0  0  0
 12 13  1  0  0  0
 12 45  1  0  0  0
 12 46  1  0  0  0
 13 14  1  0  0  0
 13 15  1  0  0  0
 13 47  1  0  0  0
 14 48  1  0  0  0
 14 49  1  0  0  0
 14 50  1  0  0  0
 15 51  1  0  0  0
 15 52  1  0  0  0
 15 53  1  0  0  0
 16 17  1  0  0  0
 16 54  1  0  0  0
 16 55  1  0  0  0
 17 18  1  0  0  0
 17 19  1  0  0  0
 17 56  1  0  0  0
 18 57  1  0  0  0
 19 20  1  0  0  0
 19 32  1  0  0  0
 19 58  1  0  0  0
 20 21  1  0  0  0
 20 59  1  0  0  0
 21 22  2  0  0  0
 21 23  1  0  0  0
 23 24  1  0  0  0
 24 25  1  0  0  0
 24 31  1  0  0  0
 24 60  1  0  0  0
 25 26  1  0  0  0
 25 61  1  0  0  0
 25 62  1  0  0  0
 26 27  1  0  0  0
 27 28  1  0  0  0
 27 31  1  0  0  0
 27 63  1  0  0  0
 28 29  1  0  0  0
 29 30  1  0  0  0
 29 64  1  0  0  0
 29 65  1  0  0  0
 30 31  1  0  0  0
 30 66  1  0  0  0
 30 67  1  0  0  0
 31 68  1  0  0  0
 32 38  1  0  0  0
 32 69  1  0  0  0
 32 70  1  0  0  0
 33 34  2  0  0  0
 33 38  1  0  0  0
 33 71  1  0  0  0
 34 35  1  0  0  0
 34 72  1  0  0  0
 35 36  2  0  0  0
 35 73  1  0  0  0
 36 37  1  0  0  0
 36 74  1  0  0  0
 37 38  2  0  0  0
 37 75  1  0  0  0
M  END
> <s_m_source_file>
../2hs1_ligand.sdf

> <i_m_source_file_index>
1

> <s_epik_input>
W05IMl1jMVtjSF1bY0hdYyhbY0hdW2NIXTEpUyg9TykoPU8pTihbQ0gyXVtDSF0oW0NIM10pW0NIM10pW0NIMl1bQ0BASF0oW09IXSlbQ0BASF0oW05IXUMoPU8pT1tDQEBIXShbQ0gyXU8yKVtDQEBIXShbQ0BASF0yMylbQ0gyXVtDSDJdTzMpW0NIMl1jNFtjSF1bY0hdW2NIXVtjSF1bY0hdNA==

> <s_epik_cmdline>
J2VwaWtfYXBwJywgJy1pbWFlJywgJ2xpZ2FuZF9wcm8ubWFlJywgJy1vbWFlJywgJ2xpZ2FuZF9wcmVwLm1hZScsICctbXMnLCAnMScsICctcGgnLCAnNycsICctcGh0JywgJzAuNScsICctbnQn

> <r_lp_tautomer_probability>
1

> <r_epik_Ionization_Penalty>
  0.0000

> <r_epik_Ionization_Penalty_Charging>
  0.0000

> <r_epik_Ionization_Penalty_Neutral>
  0.0000

> <r_epik_State_Penalty>
 -0.0000

> <r_epik_Charging_Adjusted_Penalty>
0

> <i_epik_Tot_Q>
0

> <i_epik_Tot_abs_Q>
0

> <s_epik_Chemistry_Notes>
This compound has an ester and may undergo hydrolysis at high or low pH. This compound contains an acetal/aminal-like group ( X-CH(R)-Y where X, Y are N, S, or O) that may be acid/base labile, releasing an aldehyde.

$$$$
