2hs2_ligand
                    3D
 Schrodinger Suite 2020-3.
 75 78  0  0  1  0            999 V2000
   -1.1340    8.3150   29.9190 N   0  0  0  0  0  0
   -0.6920    8.5640   31.1990 C   0  0  0  0  0  0
    0.5620    8.1180   31.6170 C   0  0  0  0  0  0
    1.0190    8.3660   32.9120 C   0  0  0  0  0  0
    0.2090    9.0700   33.8020 C   0  0  0  0  0  0
   -1.0480    9.5190   33.3890 C   0  0  0  0  0  0
   -1.5170    9.2760   32.0910 C   0  0  0  0  0  0
    0.8330    9.2460   35.4870 S   0  0  0  0  0  0
    2.2730    9.0540   35.3980 O   0  0  0  0  0  0
    0.3180   10.5000   36.0330 O   0  0  0  0  0  0
    0.1790    7.9900   36.4100 N   0  0  1  0  0  0
   -1.2770    7.9740   36.6370 C   0  0  0  0  0  0
   -1.6860    7.6240   38.0700 C   0  0  0  0  0  0
   -1.3470    8.7190   39.0730 C   0  0  0  0  0  0
   -3.1710    7.2880   38.0850 C   0  0  0  0  0  0
    0.8050    6.6540   36.3730 C   0  0  0  0  0  0
    1.5520    6.3500   37.6780 C   0  0  1  0  0  0
    1.9230    4.9680   37.6790 O   0  0  0  0  0  0
    2.7400    7.2720   37.9880 C   0  0  1  0  0  0
    3.0860    7.0990   39.3960 N   0  0  0  0  0  0
    2.9650    7.9710   40.4010 C   0  0  0  0  0  0
    2.5800    9.1220   40.2330 O   0  0  0  0  0  0
    3.3200    7.4150   41.6010 O   0  0  0  0  0  0
    3.3320    8.3160   42.7500 C   0  0  1  0  0  0
    2.9340    7.4970   43.9950 C   0  0  0  0  0  0
    4.0870    6.6850   44.2790 O   0  0  0  0  0  0
    5.2350    7.4880   43.9720 C   0  0  1  0  0  0
    6.1130    6.7090   43.2210 O   0  0  0  0  0  0
    6.2500    7.2350   41.9090 C   0  0  0  0  0  0
    5.8000    8.6640   41.9280 C   0  0  0  0  0  0
    4.7770    8.6940   43.1060 C   0  0  1  0  0  0
    3.9670    6.9630   37.0980 C   0  0  0  0  0  0
    6.2560    7.2800   38.1610 C   0  0  0  0  0  0
    7.3030    8.1060   38.5460 C   0  0  0  0  0  0
    7.2450    9.4680   38.3150 C   0  0  0  0  0  0
    6.1250   10.0360   37.6900 C   0  0  0  0  0  0
    5.0670    9.2190   37.2970 C   0  0  0  0  0  0
    5.1290    7.8460   37.5300 C   0  0  0  0  0  0
   -0.4965    7.7597   29.2153 H   0  0  0  0  0  0
   -2.1246    8.6714   29.6001 H   0  0  0  0  0  0
    1.1948    7.5671   30.9211 H   0  0  0  0  0  0
    2.0013    8.0122   33.2252 H   0  0  0  0  0  0
   -1.6760   10.0689   34.0900 H   0  0  0  0  0  0
   -2.4992    9.6305   31.7785 H   0  0  0  0  0  0
   -1.6934    8.9680   36.4167 H   0  0  0  0  0  0
   -1.7428    7.2270   35.9774 H   0  0  0  0  0  0
   -1.1047    6.7494   38.3973 H   0  0  0  0  0  0
   -0.2687    8.9326   39.0321 H   0  0  0  0  0  0
   -1.6165    8.3848   40.0858 H   0  0  0  0  0  0
   -1.9110    9.6304   38.8254 H   0  0  0  0  0  0
   -3.3751    6.4957   37.3497 H   0  0  0  0  0  0
   -3.7526    8.1856   37.8279 H   0  0  0  0  0  0
   -3.4580    6.9400   39.0882 H   0  0  0  0  0  0
    0.0279    5.8889   36.2291 H   0  0  0  0  0  0
    1.5230    6.6084   35.5409 H   0  0  0  0  0  0
    0.8612    6.4827   38.5237 H   0  0  0  0  0  0
    1.1678    4.1956   37.4713 H   0  0  0  0  0  0
    2.4520    8.3222   37.8324 H   0  0  0  0  0  0
    3.5085    6.1454   39.7454 H   0  0  0  0  0  0
    2.6829    9.1576   42.4665 H   0  0  0  0  0  0
    2.7006    8.1808   44.8244 H   0  0  0  0  0  0
    2.0494    6.8853   43.7641 H   0  0  0  0  0  0
    5.7533    7.7557   44.9046 H   0  0  0  0  0  0
    7.3034    7.1745   41.5979 H   0  0  0  0  0  0
    5.6283    6.6522   41.2135 H   0  0  0  0  0  0
    6.6662    9.3189   42.1034 H   0  0  0  0  0  0
    5.3394    8.9163   40.9614 H   0  0  0  0  0  0
    4.7543    9.7102   43.5266 H   0  0  0  0  0  0
    4.2443    5.9045   37.2105 H   0  0  0  0  0  0
    3.7178    7.1670   36.0462 H   0  0  0  0  0  0
    6.3044    6.2066   38.3442 H   0  0  0  0  0  0
    8.1781    7.6774   39.0345 H   0  0  0  0  0  0
    8.0752   10.1047   38.6206 H   0  0  0  0  0  0
    6.0826   11.1107   37.5128 H   0  0  0  0  0  0
    4.1938    9.6520   36.8090 H   0  0  0  0  0  0
  1  2  1  0  0  0
  1 39  1  0  0  0
  1 40  1  0  0  0
  2  3  2  0  0  0
  2  7  1  0  0  0
  3  4  1  0  0  0
  3 41  1  0  0  0
  4  5  2  0  0  0
  4 42  1  0  0  0
  5  6  1  0  0  0
  5  8  1  0  0  0
  6  7  2  0  0  0
  6 43  1  0  0  0
  7 44  1  0  0  0
  8  9  2  0  0  0
  8 10  2  0  0  0
  8 11  1  0  0  0
 11 12  1  0  0  0
 11 16  1  0  0  0
 12 13  1  0  0  0
 12 45  1  0  0  0
 12 46  1  0  0  0
 13 14  1  0  0  0
 13 15  1  0  0  0
 13 47  1  0  0  0
 14 48  1  0  0  0
 14 49  1  0  0  0
 14 50  1  0  0  0
 15 51  1  0  0  0
 15 52  1  0  0  0
 15 53  1  0  0  0
 16 17  1  0  0  0
 16 54  1  0  0  0
 16 55  1  0  0  0
 17 18  1  0  0  0
 17 19  1  0  0  0
 17 56  1  0  0  0
 18 57  1  0  0  0
 19 20  1  0  0  0
 19 32  1  0  0  0
 19 58  1  0  0  0
 20 21  1  0  0  0
 20 59  1  0  0  0
 21 22  2  0  0  0
 21 23  1  0  0  0
 23 24  1  0  0  0
 24 25  1  0  0  0
 24 31  1  0  0  0
 24 60  1  0  0  0
 25 26  1  0  0  0
 25 61  1  0  0  0
 25 62  1  0  0  0
 26 27  1  0  0  0
 27 28  1  0  0  0
 27 31  1  0  0  0
 27 63  1  0  0  0
 28 29  1  0  0  0
 29 30  1  0  0  0
 29 64  1  0  0  0
 29 65  1  0  0  0
 30 31  1  0  0  0
 30 66  1  0  0  0
 30 67  1  0  0  0
 31 68  1  0  0  0
 32 38  1  0  0  0
 32 69  1  0  0  0
 32 70  1  0  0  0
 33 34  2  0  0  0
 33 38  1  0  0  0
 33 71  1  0  0  0
 34 35  1  0  0  0
 34 72  1  0  0  0
 35 36  2  0  0  0
 35 73  1  0  0  0
 36 37  1  0  0  0
 36 74  1  0  0  0
 37 38  2  0  0  0
 37 75  1  0  0  0
M  END
> <s_m_source_file>
../2hs2_ligand.sdf

> <i_m_source_file_index>
1

> <s_epik_input>
W05IMl1jMVtjSF1bY0hdYyhbY0hdW2NIXTEpUyg9TykoPU8pTihbQ0gyXVtDSF0oW0NIM10pW0NIM10pW0NIMl1bQ0BASF0oW09IXSlbQ0BASF0oW05IXUMoPU8pT1tDQEBIXShbQ0gyXU8yKVtDQEBIXShbQ0BASF0yMylbQ0gyXVtDSDJdTzMpW0NIMl1jNFtjSF1bY0hdW2NIXVtjSF1bY0hdNA==

> <s_epik_cmdline>
J2VwaWtfYXBwJywgJy1pbWFlJywgJ2xpZ2FuZF9wcm8ubWFlJywgJy1vbWFlJywgJ2xpZ2FuZF9wcmVwLm1hZScsICctbXMnLCAnMScsICctcGgnLCAnNycsICctcGh0JywgJzAuNScsICctbnQn

> <r_lp_tautomer_probability>
1

> <r_epik_Ionization_Penalty>
  0.0000

> <r_epik_Ionization_Penalty_Charging>
  0.0000

> <r_epik_Ionization_Penalty_Neutral>
  0.0000

> <r_epik_State_Penalty>
 -0.0000

> <r_epik_Charging_Adjusted_Penalty>
0

> <i_epik_Tot_Q>
0

> <i_epik_Tot_abs_Q>
0

> <s_epik_Chemistry_Notes>
This compound has an ester and may undergo hydrolysis at high or low pH. This compound contains an acetal/aminal-like group ( X-CH(R)-Y where X, Y are N, S, or O) that may be acid/base labile, releasing an aldehyde.

$$$$
