2hu6_ligand
                    3D
 Schrodinger Suite 2020-3.
 49 52  0  0  1  0            999 V2000
    0.5330   -5.8410    5.5950 O   0  0  0  0  0  0
    1.5110   -6.3100    5.0200 C   0  0  0  0  0  0
    1.3270   -7.1570    3.7870 C   0  0  2  0  0  0
    2.5770   -7.5640    3.2180 O   0  0  0  0  0  0
    0.6860   -6.4020    2.6370 C   0  0  2  0  0  0
    0.0110   -7.4110    1.7120 C   0  0  0  0  0  0
    1.0300   -8.3930    1.2810 N   0  0  0  0  0  0
    0.8530   -9.7200    1.2870 C   0  0  0  0  0  0
    1.3590  -10.4160    0.4140 O   0  0  0  0  0  0
    0.1180  -10.2950    2.2360 N   0  0  0  0  0  0
   -0.1440  -11.6660    2.1790 O   0  0  0  0  0  0
    2.3170   -7.8590    0.8330 C   0  0  0  0  0  0
    1.7960   -5.8640    1.9350 O   0  0  0  0  0  0
    2.7420   -6.9180    1.9470 C   0  0  1  0  0  0
    2.7700   -6.1330    5.4250 N   0  0  0  0  0  0
    3.1510   -5.3630    6.6000 C   0  0  0  0  0  0
    4.3560   -6.0030    7.2710 C   0  0  0  0  0  0
    4.3010   -6.4440    8.5970 C   0  0  0  0  0  0
    5.4250   -7.0210    9.1910 C   0  0  0  0  0  0
    6.6190   -7.1670    8.4750 C   0  0  0  0  0  0
    6.6680   -6.7290    7.1510 C   0  0  0  0  0  0
    5.5480   -6.1440    6.5620 C   0  0  0  0  0  0
    7.8190   -7.8030    9.1070 C   0  0  0  0  0  0
    9.1190   -7.4480    8.7320 C   0  0  0  0  0  0
   10.2200   -8.0620    9.3320 C   0  0  0  0  0  0
    7.6380   -8.7880   10.0810 C   0  0  0  0  0  0
    8.7380   -9.3990   10.6870 C   0  0  0  0  0  0
   10.0310   -9.0370   10.3120 C   0  0  0  0  0  0
    0.7510   -8.0251    4.1400 H   0  0  0  0  0  0
   -0.0104   -5.6085    2.9457 H   0  0  0  0  0  0
   -0.8001   -7.9196    2.2537 H   0  0  0  0  0  0
   -0.4038   -6.8871    0.8382 H   0  0  0  0  0  0
   -0.2830   -9.6924    3.0643 H   0  0  0  0  0  0
   -0.7513  -12.1429    2.9624 H   0  0  0  0  0  0
    3.0300   -8.6857    0.6980 H   0  0  0  0  0  0
    2.1824   -7.3312   -0.1227 H   0  0  0  0  0  0
    3.7771   -6.5588    1.8493 H   0  0  0  0  0  0
    3.5434   -6.6137    4.8079 H   0  0  0  0  0  0
    3.4067   -4.3365    6.2986 H   0  0  0  0  0  0
    2.3114   -5.3382    7.3102 H   0  0  0  0  0  0
    3.3787   -6.3370    9.1679 H   0  0  0  0  0  0
    5.3722   -7.3620   10.2249 H   0  0  0  0  0  0
    7.5860   -6.8448    6.5748 H   0  0  0  0  0  0
    5.6052   -5.7917    5.5321 H   0  0  0  0  0  0
    9.2734   -6.6874    7.9667 H   0  0  0  0  0  0
   11.2296   -7.7790    9.0341 H   0  0  0  0  0  0
    6.6292   -9.0823   10.3706 H   0  0  0  0  0  0
    8.5855  -10.1590   11.4533 H   0  0  0  0  0  0
   10.8909   -9.5138   10.7825 H   0  0  0  0  0  0
  1  2  2  0  0  0
  2  3  1  0  0  0
  2 15  1  0  0  0
  3  4  1  0  0  0
  3  5  1  0  0  0
  3 29  1  0  0  0
  4 14  1  0  0  0
  5  6  1  0  0  0
  5 13  1  0  0  0
  5 30  1  0  0  0
  6  7  1  0  0  0
  6 31  1  0  0  0
  6 32  1  0  0  0
  7  8  1  0  0  0
  7 12  1  0  0  0
  8  9  2  0  0  0
  8 10  1  0  0  0
 10 11  1  0  0  0
 10 33  1  0  0  0
 11 34  1  0  0  0
 12 14  1  0  0  0
 12 35  1  0  0  0
 12 36  1  0  0  0
 13 14  1  0  0  0
 14 37  1  0  0  0
 15 16  1  0  0  0
 15 38  1  0  0  0
 16 17  1  0  0  0
 16 39  1  0  0  0
 16 40  1  0  0  0
 17 18  2  0  0  0
 17 22  1  0  0  0
 18 19  1  0  0  0
 18 41  1  0  0  0
 19 20  2  0  0  0
 19 42  1  0  0  0
 20 21  1  0  0  0
 20 23  1  0  0  0
 21 22  2  0  0  0
 21 43  1  0  0  0
 22 44  1  0  0  0
 23 24  2  0  0  0
 23 26  1  0  0  0
 24 25  1  0  0  0
 24 45  1  0  0  0
 25 28  2  0  0  0
 25 46  1  0  0  0
 26 27  2  0  0  0
 26 47  1  0  0  0
 27 28  1  0  0  0
 27 48  1  0  0  0
 28 49  1  0  0  0
M  END
> <s_m_source_file>
../2hu6_ligand.sdf

> <i_m_source_file_index>
1

> <s_epik_input>
W09IXVtOSF1DKD1PKU4oW0NIMl0xKVtDSDJdW0NAQEhdKE8yKU9bQ0BIXShbQ0BIXTEyKUMoPU8pW05IXVtDSDJdYzNbY0hdW2NIXWMoW2NIXVtjSF0zKS1jNFtjSF1bY0hdW2NIXVtjSF1bY0hdNA==

> <s_epik_cmdline>
J2VwaWtfYXBwJywgJy1pbWFlJywgJ2xpZ2FuZF9wcm8ubWFlJywgJy1vbWFlJywgJ2xpZ2FuZF9wcmVwLm1hZScsICctbXMnLCAnMScsICctcGgnLCAnNycsICctcGh0JywgJzAuNScsICctbnQn

> <r_epik_Ionization_Penalty>
  0.0145

> <r_epik_Ionization_Penalty_Charging>
  0.0000

> <r_epik_Ionization_Penalty_Neutral>
  0.0145

> <r_epik_State_Penalty>
  0.0114

> <r_epik_Charging_Adjusted_Penalty>
0.011360709719554

> <i_epik_Tot_Q>
0

> <i_epik_Tot_abs_Q>
0

> <s_epik_Chemistry_Notes>
This compound contains an acetal/aminal-like group ( X-CH(R)-Y where X, Y are N, S, or O) that may be acid/base labile, releasing an aldehyde. This compound has a N-S or N-O group and may undergo hydrolysis at high or low pH.

$$$$
