2hug_ligand
                    3D
 Schrodinger Suite 2020-3.
220221  0  0  1  0            999 V2000
  -11.8660   -9.8370   -6.5940 N   0  3  0  0  0  0
  -11.7930  -10.9980   -5.6680 C   0  0  2  0  0  0
  -12.1900  -10.6050   -4.2400 C   0  0  0  0  0  0
  -13.2780  -10.9610   -3.7860 O   0  0  0  0  0  0
  -10.4040  -11.6220   -5.7040 C   0  0  0  0  0  0
  -11.3310   -9.8670   -3.5000 N   0  0  0  0  0  0
  -11.6450   -9.4560   -2.1270 C   0  0  2  0  0  0
  -12.6270   -8.2860   -2.0750 C   0  0  0  0  0  0
  -12.2800   -7.1600   -2.4350 O   0  0  0  0  0  0
  -10.2870   -9.0330   -1.5760 C   0  0  0  0  0  0
   -9.5470   -8.5320   -2.7650 C   0  0  0  0  0  0
   -9.9980   -9.3830   -3.9220 C   0  0  0  0  0  0
  -13.8710   -8.5340   -1.6260 N   0  0  0  0  0  0
  -14.8950   -7.4900   -1.5270 C   0  0  2  0  0  0
  -14.5910   -6.4870   -0.4180 C   0  0  0  0  0  0
  -14.7390   -6.7910    0.7650 O   0  0  0  0  0  0
  -16.1710   -8.2710   -1.2080 C   0  0  0  0  0  0
  -15.6970   -9.5190   -0.5480 C   0  0  0  0  0  0
  -14.3740   -9.8470   -1.1820 C   0  0  0  0  0  0
  -14.1650   -5.2910   -0.8130 N   0  0  0  0  0  0
  -13.8400   -4.2620    0.1570 C   0  0  0  0  0  0
  -12.5230   -3.5800   -0.1540 C   0  0  0  0  0  0
  -12.4850   -2.5970   -0.8930 O   0  0  0  0  0  0
  -11.4400   -4.1090    0.4070 N   0  0  0  0  0  0
  -10.1110   -3.5570    0.1830 C   0  0  2  0  0  0
   -9.4540   -4.1670   -1.0490 C   0  0  0  0  0  0
   -9.9440   -5.1490   -1.6080 O   0  0  0  0  0  0
   -9.1890   -3.7910    1.3910 C   0  0  2  0  0  0
   -7.8340   -3.5280    1.0160 O   0  0  0  0  0  0
   -9.3070   -5.2190    1.9030 C   0  0  0  0  0  0
   -8.3370   -3.5770   -1.4640 N   0  0  0  0  0  0
   -7.6020   -4.0520   -2.6290 C   0  0  2  0  0  0
   -6.1090   -4.1690   -2.3240 C   0  0  0  0  0  0
   -5.6570   -3.7900   -1.2440 O   0  0  0  0  0  0
   -7.8340   -3.1200   -3.8110 C   0  0  0  0  0  0
   -5.3510   -4.6970   -3.2810 N   0  0  0  0  0  0
   -3.9100   -4.8660   -3.1130 C   0  0  2  0  0  0
   -3.1460   -4.1710   -4.2410 C   0  0  0  0  0  0
   -3.4000   -4.4310   -5.4160 O   0  0  0  0  0  0
   -3.5560   -6.3550   -3.0860 C   0  0  0  0  0  0
   -3.9450   -7.0920   -4.3550 C   0  0  0  0  0  0
   -3.6380   -8.5750   -4.2520 C   0  0  0  0  0  0
   -3.9370   -9.2780   -5.4940 N   0  0  0  0  0  0
   -3.7830  -10.5860   -5.6550 C   0  0  0  0  0  0
   -3.3430  -11.3330   -4.6520 N   0  0  0  0  0  0
   -4.0720  -11.1490   -6.8200 N   0  0  0  0  0  0
   -2.2130   -3.2800   -3.8870 N   0  0  0  0  0  0
   -1.4290   -2.5570   -4.8890 C   0  0  2  0  0  0
   -0.9680   -3.4890   -6.0140 C   0  0  0  0  0  0
   -1.2810   -3.2710   -7.1850 O   0  0  0  0  0  0
   -0.2170   -1.8940   -4.2280 C   0  0  0  0  0  0
    0.5870   -1.0120   -5.1690 C   0  0  0  0  0  0
   -0.2930    0.0200   -5.8560 C   0  0  0  0  0  0
    0.4930    0.9680   -6.6410 N   0  0  0  0  0  0
   -0.0420    1.8870   -7.4370 C   0  0  0  0  0  0
   -1.3600    1.9790   -7.5550 N   0  0  0  0  0  0
    0.7400    2.7130   -8.1170 N   0  0  0  0  0  0
   -0.2330   -4.5300   -5.6380 N   0  0  0  0  0  0
    0.2770   -5.5120   -6.5920 C   0  0  2  0  0  0
    0.5110   -6.8380   -5.8750 C   0  0  0  0  0  0
   -0.0980   -7.0960   -4.8400 O   0  0  0  0  0  0
    1.5750   -5.0030   -7.2270 C   0  0  0  0  0  0
    1.4110   -3.6950   -7.9830 C   0  0  0  0  0  0
    2.7340   -3.2150   -8.5600 C   0  0  0  0  0  0
    2.5650   -1.9280   -9.3510 C   0  0  0  0  0  0
    2.0880   -0.8070   -8.4950 N   0  3  0  0  0  0
    1.3680   -7.6950   -6.4240 N   0  0  0  0  0  0
    1.6690   -8.9650   -5.7740 C   0  0  2  0  0  0
    2.0830   -8.7170   -4.3240 C   0  0  0  0  0  0
    1.9420   -9.5880   -3.4650 O   0  0  0  0  0  0
    2.7950   -9.6880   -6.5120 C   0  0  0  0  0  0
    4.1270   -8.9610   -6.4320 C   0  0  0  0  0  0
    5.2660   -9.8180   -6.9590 C   0  0  0  0  0  0
    5.4280  -11.0450   -6.1820 N   0  0  0  0  0  0
    6.5160  -11.8080   -6.2260 C   0  0  0  0  0  0
    7.5380  -11.4660   -6.9990 N   0  0  0  0  0  0
    6.5830  -12.9110   -5.4950 N   0  0  0  0  0  0
    2.5910   -7.5130   -4.0660 N   0  0  0  0  0  0
    3.0310   -7.1280   -2.7340 C   0  0  2  0  0  0
    4.0530   -8.1160   -2.1900 C   0  0  0  0  0  0
    3.6970   -9.1970   -1.7180 O   0  0  0  0  0  0
    1.8470   -7.0240   -1.7690 C   0  0  0  0  0  0
    0.8750   -5.9010   -2.0900 C   0  0  0  0  0  0
   -0.0370   -5.6080   -0.9080 C   0  0  0  0  0  0
   -1.0790   -4.5570   -1.2550 C   0  0  0  0  0  0
   -1.9360   -4.2160   -0.0870 N   0  3  0  0  0  0
    5.3230   -7.7390   -2.2620 N   0  0  0  0  0  0
    6.3950   -8.5880   -1.7690 C   0  0  2  0  0  0
    6.5450   -8.4400   -0.2600 C   0  0  0  0  0  0
    6.8500   -7.3600    0.2330 O   0  0  0  0  0  0
    7.7060   -8.2400   -2.4600 C   0  0  0  0  0  0
    6.3230   -9.5240    0.4720 N   0  0  0  0  0  0
    6.4440   -9.4910    1.9250 C   0  0  2  0  0  0
    7.3350  -10.6210    2.4220 C   0  0  0  0  0  0
    6.9360  -11.4140    3.2740 O   0  0  0  0  0  0
    5.0670   -9.5770    2.5830 C   0  0  0  0  0  0
    4.2930  -10.8040    2.1460 C   0  0  0  0  0  0
    3.9880  -10.9140    0.9400 O   0  0  0  0  0  0
    3.9950  -11.6570    3.0090 O   0  0  0  0  0  0
    8.5460  -10.6880    1.8800 N   0  0  0  0  0  0
    9.5000  -11.7180    2.2650 C   0  0  2  0  0  0
    8.9380  -13.1110    1.9980 C   0  0  0  0  0  0
    9.1940  -13.6510    0.9000 O   0  0  0  0  0  0
    9.8640  -11.5750    3.7440 C   0  0  0  0  0  0
   10.5300  -10.3500    3.9890 O   0  0  0  0  0  0
    8.2460  -13.6500    2.8870 O   0  0  0  0  0  0
  -12.8746   -9.3997   -6.5549 H   0  0  0  0  0  0
  -11.6510  -10.1719   -7.6195 H   0  0  0  0  0  0
  -11.1264   -9.0806   -6.2926 H   0  0  0  0  0  0
  -12.5213  -11.7350   -6.0373 H   0  0  0  0  0  0
  -10.1500  -11.8919   -6.7397 H   0  0  0  0  0  0
  -10.3914  -12.5251   -5.0761 H   0  0  0  0  0  0
   -9.6675  -10.8996   -5.3222 H   0  0  0  0  0  0
  -12.1283  -10.2839   -1.5876 H   0  0  0  0  0  0
  -10.4272   -8.2485   -0.8178 H   0  0  0  0  0  0
   -9.7906   -9.9012   -1.1179 H   0  0  0  0  0  0
   -9.7932   -7.4728   -2.9306 H   0  0  0  0  0  0
   -8.4653   -8.6345   -2.5937 H   0  0  0  0  0  0
   -9.3329  -10.2424   -4.0924 H   0  0  0  0  0  0
  -10.0956   -8.8047   -4.8526 H   0  0  0  0  0  0
  -14.9316   -6.9117   -2.4620 H   0  0  0  0  0  0
  -16.8093   -7.6735   -0.5405 H   0  0  0  0  0  0
  -16.7137   -8.4836   -2.1409 H   0  0  0  0  0  0
  -15.5871   -9.3434    0.5323 H   0  0  0  0  0  0
  -16.4283  -10.3233   -0.7162 H   0  0  0  0  0  0
  -14.4797  -10.5123   -2.0516 H   0  0  0  0  0  0
  -13.6647  -10.2886   -0.4666 H   0  0  0  0  0  0
  -14.0600   -5.0858   -1.8886 H   0  0  0  0  0  0
  -14.6300   -3.4965    0.1581 H   0  0  0  0  0  0
  -13.7643   -4.7122    1.1578 H   0  0  0  0  0  0
  -11.5683   -4.9880    1.0558 H   0  0  0  0  0  0
  -10.3030   -2.4848    0.0294 H   0  0  0  0  0  0
   -9.4274   -3.0865    2.2015 H   0  0  0  0  0  0
   -7.5546   -2.5404    0.6203 H   0  0  0  0  0  0
  -10.3494   -5.4202    2.1911 H   0  0  0  0  0  0
   -8.6530   -5.3501    2.7777 H   0  0  0  0  0  0
   -9.0040   -5.9189    1.1103 H   0  0  0  0  0  0
   -7.9709   -2.7063   -0.9002 H   0  0  0  0  0  0
   -8.0087   -5.0495   -2.8517 H   0  0  0  0  0  0
   -8.9125   -3.0484   -4.0153 H   0  0  0  0  0  0
   -7.3184   -3.5172   -4.6978 H   0  0  0  0  0  0
   -7.4387   -2.1213   -3.5736 H   0  0  0  0  0  0
   -5.8360   -5.0097   -4.2175 H   0  0  0  0  0  0
   -3.6651   -4.3922   -2.1510 H   0  0  0  0  0  0
   -2.4698   -6.4713   -2.9570 H   0  0  0  0  0  0
   -4.0788   -6.8411   -2.2491 H   0  0  0  0  0  0
   -5.0237   -6.9709   -4.5333 H   0  0  0  0  0  0
   -3.3840   -6.6782   -5.2060 H   0  0  0  0  0  0
   -2.5705   -8.7136   -4.0254 H   0  0  0  0  0  0
   -4.2440   -9.0200   -3.4491 H   0  0  0  0  0  0
   -4.3130   -8.7207   -6.3647 H   0  0  0  0  0  0
   -3.1025  -10.8683   -3.6844 H   0  0  0  0  0  0
   -4.4372  -10.5314   -7.6538 H   0  0  0  0  0  0
   -3.9465  -12.2337   -6.9528 H   0  0  0  0  0  0
   -2.0410   -3.0958   -2.8163 H   0  0  0  0  0  0
   -2.1097   -1.7974   -5.3009 H   0  0  0  0  0  0
   -0.5548   -1.2605   -3.3946 H   0  0  0  0  0  0
    0.4628   -2.6701   -3.8464 H   0  0  0  0  0  0
    1.3647   -0.4818   -4.5997 H   0  0  0  0  0  0
    1.0595   -1.6357   -5.9421 H   0  0  0  0  0  0
   -0.9954   -0.4891   -6.5324 H   0  0  0  0  0  0
   -0.8570    0.5837   -5.0983 H   0  0  0  0  0  0
    1.5917    0.9451   -6.5918 H   0  0  0  0  0  0
   -2.0117    1.2948   -6.9919 H   0  0  0  0  0  0
   -1.8013    2.7395   -8.2160 H   0  0  0  0  0  0
    1.8333    2.6392   -8.0212 H   0  0  0  0  0  0
   -0.0118   -4.6383   -4.5659 H   0  0  0  0  0  0
   -0.4906   -5.6359   -7.3701 H   0  0  0  0  0  0
    2.3266   -4.8359   -6.4414 H   0  0  0  0  0  0
    1.9512   -5.7500   -7.9414 H   0  0  0  0  0  0
    0.7010   -3.8367   -8.8111 H   0  0  0  0  0  0
    1.0283   -2.9223   -7.3001 H   0  0  0  0  0  0
    3.4449   -3.0288   -7.7415 H   0  0  0  0  0  0
    3.1418   -3.9846   -9.2319 H   0  0  0  0  0  0
    3.5309   -1.6382   -9.7904 H   0  0  0  0  0  0
    1.8294   -2.0848  -10.1536 H   0  0  0  0  0  0
    1.9802    0.1010   -9.1065 H   0  0  0  0  0  0
    2.8165   -0.6236   -7.6915 H   0  0  0  0  0  0
    1.1150   -1.0703   -8.0547 H   0  0  0  0  0  0
    1.8512   -7.4373   -7.3780 H   0  0  0  0  0  0
    0.7440   -9.5585   -5.8203 H   0  0  0  0  0  0
    2.9359  -10.6882   -6.0764 H   0  0  0  0  0  0
    2.5330   -9.7851   -7.5759 H   0  0  0  0  0  0
    4.0790   -8.0406   -7.0325 H   0  0  0  0  0  0
    4.3423   -8.7043   -5.3843 H   0  0  0  0  0  0
    5.0628  -10.0958   -8.0038 H   0  0  0  0  0  0
    6.2066   -9.2501   -6.9069 H   0  0  0  0  0  0
    4.6224  -11.3832   -5.5138 H   0  0  0  0  0  0
    7.4855  -10.5509   -7.6071 H   0  0  0  0  0  0
    8.4381  -12.0975   -7.0320 H   0  0  0  0  0  0
    5.7371  -13.1975   -4.8528 H   0  0  0  0  0  0
    2.6727   -6.8001   -4.8997 H   0  0  0  0  0  0
    3.4988   -6.1420   -2.8715 H   0  0  0  0  0  0
    1.2730   -7.9621   -1.7905 H   0  0  0  0  0  0
    2.2195   -6.8453   -0.7495 H   0  0  0  0  0  0
    1.4375   -4.9877   -2.3340 H   0  0  0  0  0  0
    0.2529   -6.1892   -2.9502 H   0  0  0  0  0  0
   -0.5582   -6.5296   -0.6098 H   0  0  0  0  0  0
    0.5637   -5.2372   -0.0644 H   0  0  0  0  0  0
   -0.5756   -3.6388   -1.5918 H   0  0  0  0  0  0
   -1.7278   -4.9353   -2.0587 H   0  0  0  0  0  0
   -2.6728   -3.4547   -0.3827 H   0  0  0  0  0  0
   -1.3081   -3.8224    0.7259 H   0  0  0  0  0  0
   -2.4604   -5.1189    0.2590 H   0  0  0  0  0  0
    5.5567   -6.7604   -2.7066 H   0  0  0  0  0  0
    6.0973   -9.6173   -2.0177 H   0  0  0  0  0  0
    7.5874   -8.3499   -3.5481 H   0  0  0  0  0  0
    8.4975   -8.9175   -2.1072 H   0  0  0  0  0  0
    7.9803   -7.2012   -2.2241 H   0  0  0  0  0  0
    6.0433  -10.4590   -0.0355 H   0  0  0  0  0  0
    6.9141   -8.5237    2.1558 H   0  0  0  0  0  0
    5.1850   -9.6215    3.6758 H   0  0  0  0  0  0
    4.4759   -8.6892    2.3139 H   0  0  0  0  0  0
    3.4334  -12.5579    2.7209 H   0  0  0  0  0  0
    8.8208   -9.9394    1.1223 H   0  0  0  0  0  0
   10.3830  -11.5494    1.6311 H   0  0  0  0  0  0
    8.8038  -14.6549    0.6765 H   0  0  0  0  0  0
    8.9476  -11.6048    4.3517 H   0  0  0  0  0  0
   10.5272  -12.4012    4.0400 H   0  0  0  0  0  0
   10.8587  -10.0968    5.0078 H   0  0  0  0  0  0
  1  2  1  0  0  0
  1107  1  0  0  0
  1108  1  0  0  0
  1109  1  0  0  0
  2  3  1  0  0  0
  2  5  1  0  0  0
  2110  1  0  0  0
  3  4  2  0  0  0
  3  6  1  0  0  0
  5111  1  0  0  0
  5112  1  0  0  0
  5113  1  0  0  0
  6  7  1  0  0  0
  6 12  1  0  0  0
  7  8  1  0  0  0
  7 10  1  0  0  0
  7114  1  0  0  0
  8  9  2  0  0  0
  8 13  1  0  0  0
 10 11  1  0  0  0
 10115  1  0  0  0
 10116  1  0  0  0
 11 12  1  0  0  0
 11117  1  0  0  0
 11118  1  0  0  0
 12119  1  0  0  0
 12120  1  0  0  0
 13 14  1  0  0  0
 13 19  1  0  0  0
 14 15  1  0  0  0
 14 17  1  0  0  0
 14121  1  0  0  0
 15 16  2  0  0  0
 15 20  1  0  0  0
 17 18  1  0  0  0
 17122  1  0  0  0
 17123  1  0  0  0
 18 19  1  0  0  0
 18124  1  0  0  0
 18125  1  0  0  0
 19126  1  0  0  0
 19127  1  0  0  0
 20 21  1  0  0  0
 20128  1  0  0  0
 21 22  1  0  0  0
 21129  1  0  0  0
 21130  1  0  0  0
 22 23  2  0  0  0
 22 24  1  0  0  0
 24 25  1  0  0  0
 24131  1  0  0  0
 25 26  1  0  0  0
 25 28  1  0  0  0
 25132  1  0  0  0
 26 27  2  0  0  0
 26 31  1  0  0  0
 28 29  1  0  0  0
 28 30  1  0  0  0
 28133  1  0  0  0
 29134  1  0  0  0
 30135  1  0  0  0
 30136  1  0  0  0
 30137  1  0  0  0
 31 32  1  0  0  0
 31138  1  0  0  0
 32 33  1  0  0  0
 32 35  1  0  0  0
 32139  1  0  0  0
 33 34  2  0  0  0
 33 36  1  0  0  0
 35140  1  0  0  0
 35141  1  0  0  0
 35142  1  0  0  0
 36 37  1  0  0  0
 36143  1  0  0  0
 37 38  1  0  0  0
 37 40  1  0  0  0
 37144  1  0  0  0
 38 39  2  0  0  0
 38 47  1  0  0  0
 40 41  1  0  0  0
 40145  1  0  0  0
 40146  1  0  0  0
 41 42  1  0  0  0
 41147  1  0  0  0
 41148  1  0  0  0
 42 43  1  0  0  0
 42149  1  0  0  0
 42150  1  0  0  0
 43 44  1  0  0  0
 43151  1  0  0  0
 44 45  2  0  0  0
 44 46  1  0  0  0
 45152  1  0  0  0
 46153  1  0  0  0
 46154  1  0  0  0
 47 48  1  0  0  0
 47155  1  0  0  0
 48 49  1  0  0  0
 48 51  1  0  0  0
 48156  1  0  0  0
 49 50  2  0  0  0
 49 58  1  0  0  0
 51 52  1  0  0  0
 51157  1  0  0  0
 51158  1  0  0  0
 52 53  1  0  0  0
 52159  1  0  0  0
 52160  1  0  0  0
 53 54  1  0  0  0
 53161  1  0  0  0
 53162  1  0  0  0
 54 55  1  0  0  0
 54163  1  0  0  0
 55 56  1  0  0  0
 55 57  2  0  0  0
 56164  1  0  0  0
 56165  1  0  0  0
 57166  1  0  0  0
 58 59  1  0  0  0
 58167  1  0  0  0
 59 60  1  0  0  0
 59 62  1  0  0  0
 59168  1  0  0  0
 60 61  2  0  0  0
 60 67  1  0  0  0
 62 63  1  0  0  0
 62169  1  0  0  0
 62170  1  0  0  0
 63 64  1  0  0  0
 63171  1  0  0  0
 63172  1  0  0  0
 64 65  1  0  0  0
 64173  1  0  0  0
 64174  1  0  0  0
 65 66  1  0  0  0
 65175  1  0  0  0
 65176  1  0  0  0
 66177  1  0  0  0
 66178  1  0  0  0
 66179  1  0  0  0
 67 68  1  0  0  0
 67180  1  0  0  0
 68 69  1  0  0  0
 68 71  1  0  0  0
 68181  1  0  0  0
 69 70  2  0  0  0
 69 78  1  0  0  0
 71 72  1  0  0  0
 71182  1  0  0  0
 71183  1  0  0  0
 72 73  1  0  0  0
 72184  1  0  0  0
 72185  1  0  0  0
 73 74  1  0  0  0
 73186  1  0  0  0
 73187  1  0  0  0
 74 75  1  0  0  0
 74188  1  0  0  0
 75 76  1  0  0  0
 75 77  2  0  0  0
 76189  1  0  0  0
 76190  1  0  0  0
 77191  1  0  0  0
 78 79  1  0  0  0
 78192  1  0  0  0
 79 80  1  0  0  0
 79 82  1  0  0  0
 79193  1  0  0  0
 80 81  2  0  0  0
 80 87  1  0  0  0
 82 83  1  0  0  0
 82194  1  0  0  0
 82195  1  0  0  0
 83 84  1  0  0  0
 83196  1  0  0  0
 83197  1  0  0  0
 84 85  1  0  0  0
 84198  1  0  0  0
 84199  1  0  0  0
 85 86  1  0  0  0
 85200  1  0  0  0
 85201  1  0  0  0
 86202  1  0  0  0
 86203  1  0  0  0
 86204  1  0  0  0
 87 88  1  0  0  0
 87205  1  0  0  0
 88 89  1  0  0  0
 88 91  1  0  0  0
 88206  1  0  0  0
 89 90  2  0  0  0
 89 92  1  0  0  0
 91207  1  0  0  0
 91208  1  0  0  0
 91209  1  0  0  0
 92 93  1  0  0  0
 92210  1  0  0  0
 93 94  1  0  0  0
 93 96  1  0  0  0
 93211  1  0  0  0
 94 95  2  0  0  0
 94100  1  0  0  0
 96 97  1  0  0  0
 96212  1  0  0  0
 96213  1  0  0  0
 97 98  2  0  0  0
 97 99  1  0  0  0
 99214  1  0  0  0
100101  1  0  0  0
100215  1  0  0  0
101102  1  0  0  0
101104  1  0  0  0
101216  1  0  0  0
102103  1  0  0  0
102106  2  0  0  0
103217  1  0  0  0
104105  1  0  0  0
104218  1  0  0  0
104219  1  0  0  0
105220  1  0  0  0
M  CHG  3   1   1  66   1  86   1
M  END
> <s_m_source_file>
../2hug_ligand.sdf

> <i_m_source_file_index>
1

> <s_epik_input>
W05IMytdW0NAQEhdKFtDSDNdKUMoPU8pTjFbQ0BASF0oW0NIMl1bQ0gyXVtDSDJdMSlDKD1PKU4yW0NAQEhdKFtDSDJdW0NIMl1bQ0gyXTIpQyg9TylbTkhdW0NIMl1DKD1PKVtOSF1bQ0BASF0oW0NASF0oW09IXSlbQ0gzXSlDKD1PKVtOSF1bQ0BASF0oW0NIM10pQyg9TylbTkhdW0NAQEhdKFtDSDJdW0NIMl1bQ0gyXVtOSF0vQyg9TlxbSF0pW05IMl0pQyg9TylbTkhdW0NAQEhdKFtDSDJdW0NIMl1bQ0gyXVtOSF0vQyhbTkgyXSk9TlxbSF0pQyg9TylbTkhdW0NAQEhdKFtDSDJdW0NIMl1bQ0gyXVtDSDJdW05IMytdKUMoPU8pW05IXVtDQEBIXShbQ0gyXVtDSDJdW0NIMl1bTkhdL0MoW05IMl0pPU5cW0hdKUMoPU8pW05IXVtDQEBIXShbQ0gyXVtDSDJdW0NIMl1bQ0gyXVtOSDMrXSlDKD1PKVtOSF1bQ0BASF0oW0NIM10pQyg9TylbTkhdW0NAQEhdKFtDSDJdQyg9TylbT0hdKUMoPU8pW05IXVtDQEhdKEMoPU8pW09IXSlbQ0gyXVtPSF0=

> <s_epik_cmdline>
J2VwaWtfYXBwJywgJy1pbWFlJywgJ2xpZ2FuZF9wcm8ubWFlJywgJy1vbWFlJywgJ2xpZ2FuZF9wcmVwLm1hZScsICctbXMnLCAnMScsICctcGgnLCAnNycsICctcGh0JywgJzAuNScsICctbnQn

> <s_epik_pKa_notes>
Molecule size exceeds maximum supported for generating protonation states

> <s_epik_Chemistry_Notes>
This compound has an imine and may undergo hydrolysis.

$$$$
