2hvx_ligand
                    3D
 Schrodinger Suite 2020-3.
 42 45  0  0  1  0            999 V2000
   62.4610   59.6600   -3.2970 C   0  0  0  0  0  0
   61.9720   58.6500   -2.3800 C   0  0  0  0  0  0
   61.4340   59.0510   -1.0920 C   0  0  0  0  0  0
   60.8300   57.8280    0.0330 Cl  0  0  0  0  0  0
   61.3790   60.4260   -0.7110 C   0  0  0  0  0  0
   61.8440   61.4720   -1.5770 C   0  0  0  0  0  0
   62.3770   61.1060   -2.8480 C   0  0  0  0  0  0
   63.0730   62.1670   -4.2380 S   0  0  0  0  0  0
   63.4690   60.7310   -5.3680 C   0  0  0  0  0  0
   63.0750   59.5020   -4.7000 C   0  0  0  0  0  0
   63.2410   58.1120   -5.3370 C   0  0  2  0  0  0
   64.9120   57.4350   -5.1230 P   0  0  0  0  0  0
   65.9820   58.5950   -5.5420 O   0  5  0  0  0  0
   65.1070   56.2140   -6.1420 O   0  0  0  0  0  0
   65.1380   56.9910   -3.7230 O   0  0  0  0  0  0
   62.9350   58.1210   -6.8730 C   0  0  0  0  0  0
   63.6250   58.7970   -7.6420 O   0  0  0  0  0  0
   61.8850   57.3310   -7.2210 N   0  0  0  0  0  0
   61.3820   57.0570   -8.4700 C   0  0  0  0  0  0
   60.2160   56.2120   -8.4750 C   0  0  0  0  0  0
   59.6100   55.8560   -9.7240 C   0  0  0  0  0  0
   58.4510   55.0250   -9.7460 C   0  0  0  0  0  0
   57.8520   54.6790  -11.0070 C   0  0  0  0  0  0
   58.4070   55.1660  -12.2340 C   0  0  0  0  0  0
   59.5710   56.0020  -12.2250 C   0  0  0  0  0  0
   60.1760   56.3530  -10.9700 C   0  0  0  0  0  0
   61.3330   57.1850  -10.9740 C   0  0  0  0  0  0
   61.9250   57.5360   -9.7180 C   0  0  0  0  0  0
   62.0078   57.5959   -2.6552 H   0  0  0  0  0  0
   60.9722   60.6889    0.2655 H   0  0  0  0  0  0
   61.7912   62.5170   -1.2716 H   0  0  0  0  0  0
   63.9185   60.8033   -6.3584 H   0  0  0  0  0  0
   62.3946   57.6023   -4.8534 H   0  0  0  0  0  0
   64.9754   56.3730   -7.2225 H   0  0  0  0  0  0
   61.3107   56.8055   -6.4438 H   0  0  0  0  0  0
   59.7980   55.8464   -7.5371 H   0  0  0  0  0  0
   58.0226   54.6551   -8.8145 H   0  0  0  0  0  0
   56.9685   54.0410  -11.0289 H   0  0  0  0  0  0
   57.9405   54.8988  -13.1822 H   0  0  0  0  0  0
   59.9931   56.3679  -13.1610 H   0  0  0  0  0  0
   61.7574   57.5457  -11.9109 H   0  0  0  0  0  0
   62.8050   58.1791   -9.7046 H   0  0  0  0  0  0
  1  2  2  0  0  0
  1  7  1  0  0  0
  1 10  1  0  0  0
  2  3  1  0  0  0
  2 29  1  0  0  0
  3  4  1  0  0  0
  3  5  2  0  0  0
  5  6  1  0  0  0
  5 30  1  0  0  0
  6  7  2  0  0  0
  6 31  1  0  0  0
  7  8  1  0  0  0
  8  9  1  0  0  0
  9 10  2  0  0  0
  9 32  1  0  0  0
 10 11  1  0  0  0
 11 12  1  0  0  0
 11 16  1  0  0  0
 11 33  1  0  0  0
 12 13  1  0  0  0
 12 14  1  0  0  0
 12 15  2  0  0  0
 14 34  1  0  0  0
 16 17  2  0  0  0
 16 18  1  0  0  0
 18 19  1  0  0  0
 18 35  1  0  0  0
 19 20  2  0  0  0
 19 28  1  0  0  0
 20 21  1  0  0  0
 20 36  1  0  0  0
 21 22  2  0  0  0
 21 26  1  0  0  0
 22 23  1  0  0  0
 22 37  1  0  0  0
 23 24  2  0  0  0
 23 38  1  0  0  0
 24 25  1  0  0  0
 24 39  1  0  0  0
 25 26  2  0  0  0
 25 40  1  0  0  0
 26 27  1  0  0  0
 27 28  2  0  0  0
 27 41  1  0  0  0
 28 42  1  0  0  0
M  CHG  1  13  -1
M  END
> <s_m_source_file>
../2hvx_ligand.sdf

> <i_m_source_file_index>
1

> <s_epik_input>
W2NIXTFjKENsKVtjSF1bY0hdYyhjMTIpc1tjSF1jMltDQEhdKFAoPU8pKFtPSF0pW09IXSlDKD1PKVtOSF1jKFtjSF0zKVtjSF1bY0hdYyhjMzQpW2NIXVtjSF1bY0hdW2NIXTQ=

> <s_epik_cmdline>
J2VwaWtfYXBwJywgJy1pbWFlJywgJ2xpZ2FuZF9wcm8ubWFlJywgJy1vbWFlJywgJ2xpZ2FuZF9wcmVwLm1hZScsICctbXMnLCAnMScsICctcGgnLCAnNycsICctcGh0JywgJzAuNScsICctbnQn

> <r_epik_Ionization_Penalty>
  0.3740

> <r_epik_Ionization_Penalty_Charging>
  0.0000

> <r_epik_Ionization_Penalty_Neutral>
  0.3740

> <r_epik_State_Penalty>
  0.3716

> <r_epik_Charging_Adjusted_Penalty>
0.371614679762815

> <i_epik_Tot_Q>
-1

> <i_epik_Tot_abs_Q>
1

$$$$
