2hw2_ligand
                    3D
 Schrodinger Suite 2020-3.
118122  0  0  1  0            999 V2000
  -12.1940    6.9340  -21.1300 C   0  0  0  0  0  0
  -12.8050    8.1620  -20.8790 C   0  0  0  0  0  0
  -12.2590    9.0140  -19.9250 C   0  0  0  0  0  0
  -11.0880    8.6600  -19.2330 C   0  0  0  0  0  0
   -9.3150    6.9290  -18.7860 C   0  0  0  0  0  0
   -8.8380    5.6690  -19.0140 C   0  0  0  0  0  0
   -9.3670    4.8420  -19.9820 C   0  0  0  0  0  0
  -10.4520    5.2850  -20.6760 C   0  0  0  0  0  0
  -11.0440    6.5450  -20.4220 C   0  0  0  0  0  0
  -10.4720    7.4000  -19.4610 C   0  0  0  0  0  0
   -8.4910    7.4830  -17.6630 C   0  0  0  0  0  0
   -7.6110    6.3680  -17.1450 C   0  0  2  0  0  0
   -6.1490    6.7430  -16.9490 C   0  0  0  0  0  0
   -8.7420    3.4960  -20.2600 C   0  0  0  0  0  0
  -14.3110    9.4600  -22.3070 C   0  0  0  0  0  0
  -15.6550    9.5430  -22.9080 C   0  0  0  0  0  0
  -16.8190    9.2210  -22.3160 C   0  0  0  0  0  0
  -17.0060    8.7910  -20.9050 C   0  0  0  0  0  0
  -18.2380    8.3880  -20.5380 C   0  0  0  0  0  0
  -18.7320    7.8740  -19.1590 C   0  0  1  0  0  0
  -17.5470    7.2460  -18.3740 C   0  0  1  0  0  0
  -17.9370    6.7560  -16.9610 C   0  0  2  0  0  0
  -16.7700    6.0870  -16.2320 C   0  0  2  0  0  0
  -15.4590    6.9540  -16.1950 C   0  0  2  0  0  0
  -14.3400    6.2000  -15.3880 C   0  0  1  0  0  0
  -12.9340    6.8190  -15.3980 C   0  0  1  0  0  0
  -11.9150    5.8640  -14.7040 C   0  0  2  0  0  0
  -10.4410    6.3590  -14.7020 C   0  0  0  0  0  0
   -9.5800    5.7490  -15.5680 C   0  0  0  0  0  0
  -15.7220   10.0130  -24.3360 C   0  0  0  0  0  0
  -19.3160    9.0730  -18.4000 C   0  0  0  0  0  0
  -19.1470    5.7750  -17.0110 C   0  0  0  0  0  0
  -15.7860    8.3230  -15.5620 C   0  0  0  0  0  0
  -12.5520    6.9920  -16.8660 C   0  0  0  0  0  0
  -15.0960    5.0240  -13.3270 C   0  0  0  0  0  0
  -15.5220    5.2060  -11.8920 C   0  0  0  0  0  0
  -11.7220    3.4930  -14.5420 C   0  0  0  0  0  0
  -10.2210   13.4480  -18.1840 C   0  0  0  0  0  0
  -11.8600   14.6910  -19.6840 C   0  0  0  0  0  0
  -12.7320   13.7460  -20.5030 C   0  0  0  0  0  0
  -13.6410   12.8200  -18.3450 C   0  0  0  0  0  0
  -12.6690   13.6910  -17.5340 C   0  0  0  0  0  0
  -12.9700   10.2750  -19.7100 C   0  0  0  0  0  0
  -13.9840    8.4070  -21.5590 N   0  0  0  0  0  0
  -12.2780   11.3570  -19.8200 N   0  0  0  0  0  0
  -12.8970   12.6200  -19.5880 N   0  0  3  0  0  0
  -11.5750   13.9460  -18.4580 N   0  3  0  0  0  0
  -12.8320    6.1350  -22.0730 O   0  0  0  0  0  0
  -10.9630    4.4690  -21.6260 O   0  0  0  0  0  0
   -7.7450    5.3560  -18.2420 O   0  0  0  0  0  0
   -8.6210    8.5800  -17.0980 O   0  0  0  0  0  0
   -8.1440    6.0860  -15.7630 O   0  0  0  0  0  0
  -12.0400    4.5930  -15.3720 O   0  0  0  0  0  0
  -14.7360    6.2190  -13.9850 O   0  0  0  0  0  0
  -14.9760    3.9590  -13.9580 O   0  0  0  0  0  0
  -16.4830    4.7980  -16.8590 O   0  0  0  0  0  0
  -16.9930    6.1430  -19.0830 O   0  0  0  0  0  0
  -13.4460   10.2650  -22.5220 O   0  0  0  0  0  0
  -10.5540    9.5300  -18.3270 O   0  0  0  0  0  0
   -5.6930    6.9637  -17.9254 H   0  0  0  0  0  0
   -5.6158    5.9051  -16.4762 H   0  0  0  0  0  0
   -6.0817    7.6313  -16.3037 H   0  0  0  0  0  0
   -7.8843    3.3442  -19.5882 H   0  0  0  0  0  0
   -8.4003    3.4592  -21.3049 H   0  0  0  0  0  0
   -9.4861    2.7040  -20.0895 H   0  0  0  0  0  0
  -17.7573    9.2632  -22.8885 H   0  0  0  0  0  0
  -16.1866    8.7929  -20.1711 H   0  0  0  0  0  0
  -19.0603    8.3981  -21.2685 H   0  0  0  0  0  0
  -19.5089    7.1042  -19.2761 H   0  0  0  0  0  0
  -16.7489    8.0003  -18.3107 H   0  0  0  0  0  0
  -18.2066    7.6572  -16.3908 H   0  0  0  0  0  0
  -17.1064    5.8942  -15.2026 H   0  0  0  0  0  0
  -15.0827    7.1367  -17.2123 H   0  0  0  0  0  0
  -14.2608    5.1888  -15.8137 H   0  0  0  0  0  0
  -12.9306    7.7847  -14.8714 H   0  0  0  0  0  0
  -12.1723    5.7244  -13.6437 H   0  0  0  0  0  0
  -10.0808    7.1627  -14.0430 H   0  0  0  0  0  0
   -9.9327    4.9242  -16.2046 H   0  0  0  0  0  0
  -14.7075   10.2412  -24.6949 H   0  0  0  0  0  0
  -16.3441   10.9182  -24.3952 H   0  0  0  0  0  0
  -16.1633    9.2232  -24.9616 H   0  0  0  0  0  0
  -20.1515    9.4992  -18.9748 H   0  0  0  0  0  0
  -18.5361    9.8369  -18.2654 H   0  0  0  0  0  0
  -19.6791    8.7423  -17.4157 H   0  0  0  0  0  0
  -19.9867    6.2550  -17.5350 H   0  0  0  0  0  0
  -19.4531    5.5178  -15.9862 H   0  0  0  0  0  0
  -18.8552    4.8599  -17.5471 H   0  0  0  0  0  0
  -16.5704    8.8212  -16.1507 H   0  0  0  0  0  0
  -14.8811    8.9484  -15.5533 H   0  0  0  0  0  0
  -16.1395    8.1751  -14.5309 H   0  0  0  0  0  0
  -13.2710    7.6657  -17.3550 H   0  0  0  0  0  0
  -12.5679    6.0128  -17.3668 H   0  0  0  0  0  0
  -11.5419    7.4222  -16.9338 H   0  0  0  0  0  0
  -15.5247    6.2775  -11.6434 H   0  0  0  0  0  0
  -14.8189    4.6780  -11.2310 H   0  0  0  0  0  0
  -16.5331    4.7952  -11.7548 H   0  0  0  0  0  0
  -11.8375    2.5588  -15.1111 H   0  0  0  0  0  0
  -12.3988    3.4802  -13.6749 H   0  0  0  0  0  0
  -10.6824    3.5844  -14.1944 H   0  0  0  0  0  0
   -9.5479   13.7474  -19.0009 H   0  0  0  0  0  0
  -10.2420   12.3507  -18.1097 H   0  0  0  0  0  0
   -9.8589   13.8728  -17.2361 H   0  0  0  0  0  0
  -10.9442   14.9251  -20.2466 H   0  0  0  0  0  0
  -12.4142   15.6197  -19.4829 H   0  0  0  0  0  0
  -13.6810   14.2444  -20.7501 H   0  0  0  0  0  0
  -12.2076   13.4750  -21.4312 H   0  0  0  0  0  0
  -13.8351   11.8836  -17.8014 H   0  0  0  0  0  0
  -14.5867   13.3629  -18.4893 H   0  0  0  0  0  0
  -13.1765   14.6168  -17.2254 H   0  0  0  0  0  0
  -12.3390   13.1388  -16.6417 H   0  0  0  0  0  0
  -14.0411   10.3296  -19.4654 H   0  0  0  0  0  0
  -14.8041    7.6749  -21.5195 H   0  0  0  0  0  0
  -11.3332   14.8871  -17.9423 H   0  0  0  0  0  0
  -13.7298    6.5046  -22.5900 H   0  0  0  0  0  0
  -10.4983    3.4908  -21.8188 H   0  0  0  0  0  0
  -17.2833    4.0523  -16.9746 H   0  0  0  0  0  0
  -16.6463    6.2732  -20.1188 H   0  0  0  0  0  0
  -11.0328   10.5048  -18.1523 H   0  0  0  0  0  0
  1  2  2  0  0  0
  1  9  1  0  0  0
  1 48  1  0  0  0
  2  3  1  0  0  0
  2 44  1  0  0  0
  3  4  2  0  0  0
  3 43  1  0  0  0
  4 10  1  0  0  0
  4 59  1  0  0  0
  5  6  1  0  0  0
  5 10  2  0  0  0
  5 11  1  0  0  0
  6  7  2  0  0  0
  6 50  1  0  0  0
  7  8  1  0  0  0
  7 14  1  0  0  0
  8  9  2  0  0  0
  8 49  1  0  0  0
  9 10  1  0  0  0
 11 12  1  0  0  0
 11 51  2  0  0  0
 12 13  1  0  0  0
 12 50  1  0  0  0
 12 52  1  0  0  0
 13 60  1  0  0  0
 13 61  1  0  0  0
 13 62  1  0  0  0
 14 63  1  0  0  0
 14 64  1  0  0  0
 14 65  1  0  0  0
 15 16  1  0  0  0
 15 44  1  0  0  0
 15 58  2  0  0  0
 16 17  2  0  0  0
 16 30  1  0  0  0
 17 18  1  0  0  0
 17 66  1  0  0  0
 18 19  2  0  0  0
 18 67  1  0  0  0
 19 20  1  0  0  0
 19 68  1  0  0  0
 20 21  1  0  0  0
 20 31  1  0  0  0
 20 69  1  0  0  0
 21 22  1  0  0  0
 21 57  1  0  0  0
 21 70  1  0  0  0
 22 23  1  0  0  0
 22 32  1  0  0  0
 22 71  1  0  0  0
 23 24  1  0  0  0
 23 56  1  0  0  0
 23 72  1  0  0  0
 24 25  1  0  0  0
 24 33  1  0  0  0
 24 73  1  0  0  0
 25 26  1  0  0  0
 25 54  1  0  0  0
 25 74  1  0  0  0
 26 27  1  0  0  0
 26 34  1  0  0  0
 26 75  1  0  0  0
 27 28  1  0  0  0
 27 53  1  0  0  0
 27 76  1  0  0  0
 28 29  2  0  0  0
 28 77  1  0  0  0
 29 52  1  0  0  0
 29 78  1  0  0  0
 30 79  1  0  0  0
 30 80  1  0  0  0
 30 81  1  0  0  0
 31 82  1  0  0  0
 31 83  1  0  0  0
 31 84  1  0  0  0
 32 85  1  0  0  0
 32 86  1  0  0  0
 32 87  1  0  0  0
 33 88  1  0  0  0
 33 89  1  0  0  0
 33 90  1  0  0  0
 34 91  1  0  0  0
 34 92  1  0  0  0
 34 93  1  0  0  0
 35 36  1  0  0  0
 35 54  1  0  0  0
 35 55  2  0  0  0
 36 94  1  0  0  0
 36 95  1  0  0  0
 36 96  1  0  0  0
 37 53  1  0  0  0
 37 97  1  0  0  0
 37 98  1  0  0  0
 37 99  1  0  0  0
 38 47  1  0  0  0
 38100  1  0  0  0
 38101  1  0  0  0
 38102  1  0  0  0
 39 40  1  0  0  0
 39 47  1  0  0  0
 39103  1  0  0  0
 39104  1  0  0  0
 40 46  1  0  0  0
 40105  1  0  0  0
 40106  1  0  0  0
 41 42  1  0  0  0
 41 46  1  0  0  0
 41107  1  0  0  0
 41108  1  0  0  0
 42 47  1  0  0  0
 42109  1  0  0  0
 42110  1  0  0  0
 43 45  2  0  0  0
 43111  1  0  0  0
 44112  1  0  0  0
 45 46  1  0  0  0
 47113  1  0  0  0
 48114  1  0  0  0
 49115  1  0  0  0
 56116  1  0  0  0
 57117  1  0  0  0
 59118  1  0  0  0
M  CHG  1  47   1
M  END
> <s_m_source_file>
../2hw2_ligand.sdf

> <i_m_source_file_index>
1

> <s_epik_input>
W0NIM11bQ0BAXTEyQyg9TyljM2MoTzEpYyhbQ0gzXSljKFtPSF0pYzRjM2MoW09IXSljKC9bQ0hdPU4vTjVbQ0gyXVtDSDJdW05IK10oW0NIM10pW0NIMl1bQ0gyXTUpYyhjNFtPSF0pW05IXUMoPU8pL0MoW0NIM10pPVtDSF1cW0NIXT1bQ0hdXFtDQEhdKFtDSDNdKVtDQEhdKFtPSF0pW0NAQEhdKFtDSDNdKVtDQEBIXShbT0hdKVtDQEBIXShbQ0gzXSlbQ0BIXShPQyg9TylbQ0gzXSlbQ0BIXShbQ0gzXSlbQ0BIXSgvW0NIXT1bQ0hdL08yKU9bQ0gzXQ==

> <s_epik_cmdline>
J2VwaWtfYXBwJywgJy1pbWFlJywgJ2xpZ2FuZF9wcm8ubWFlJywgJy1vbWFlJywgJ2xpZ2FuZF9wcmVwLm1hZScsICctbXMnLCAnMScsICctcGgnLCAnNycsICctcGh0JywgJzAuNScsICctbnQn

> <r_lp_tautomer_probability>
1

> <r_epik_Ionization_Penalty>
  0.4566

> <r_epik_Ionization_Penalty_Charging>
  0.0300

> <r_epik_Ionization_Penalty_Neutral>
  0.4266

> <r_epik_State_Penalty>
 -0.0000

> <r_epik_Charging_Adjusted_Penalty>
0.0300347232443486

> <i_epik_Tot_Q>
1

> <i_epik_Tot_abs_Q>
1

> <s_epik_Chemistry_Notes>
This compound has an ester and may undergo hydrolysis at high or low pH. This compound has an imine and may undergo hydrolysis.

$$$$
