2hwg_ligand
                    3D
 Schrodinger Suite 2020-3.
  6  5  0  0  1  0            999 V2000
   21.5630   -8.1150   19.2100 C   0  0  0  0  0  0
   20.1000   -8.2180   19.0210 C   0  0  0  0  0  0
   22.2150   -7.1730   18.6670 O   0  5  0  0  0  0
   19.5090   -7.4230   18.2520 O   0  0  0  0  0  0
   22.1230   -8.9780   19.9290 O   0  0  0  0  0  0
   19.4540   -9.0960   19.6480 O   0  5  0  0  0  0
  1  2  1  0  0  0
  1  3  1  0  0  0
  1  5  2  0  0  0
  2  4  2  0  0  0
  2  6  1  0  0  0
M  CHG  2   3  -1   6  -1
M  END
> <s_m_source_file>
../2hwg_ligand.sdf

> <i_m_source_file_index>
1

> <s_epik_input>
W09IXUMoPU8pQyg9TylbT0hd

> <s_epik_cmdline>
J2VwaWtfYXBwJywgJy1pbWFlJywgJ2xpZ2FuZF9wcm8ubWFlJywgJy1vbWFlJywgJ2xpZ2FuZF9wcmVwLm1hZScsICctbXMnLCAnMScsICctcGgnLCAnNycsICctcGh0JywgJzAuNScsICctbnQn

> <r_epik_Ionization_Penalty>
  0.0138

> <r_epik_Ionization_Penalty_Charging>
  0.0138

> <r_epik_Ionization_Penalty_Neutral>
  0.0000

> <r_epik_State_Penalty>
  0.0108

> <r_epik_Charging_Adjusted_Penalty>
0.0246500087683109

> <i_epik_Tot_Q>
-2

> <i_epik_Tot_abs_Q>
2

$$$$
