2hwh_ligand
                    3D
 Schrodinger Suite 2020-3.
 39 41  0  0  1  0            999 V2000
   10.2660   29.1620   73.4880 C   0  0  0  0  0  0
    9.0540   29.6500   73.0310 C   0  0  0  0  0  0
    9.3170   30.6330   72.0760 C   0  0  0  0  0  0
   10.6920   30.7380   71.9500 O   0  0  0  0  0  0
   11.2800   29.8380   72.8190 C   0  0  0  0  0  0
   12.7710   29.6500   72.9960 C   0  0  0  0  0  0
    7.3420   32.2730   72.1900 C   0  0  0  0  0  0
    7.8920   33.1020   73.6240 S   0  0  0  0  0  0
    6.2730   33.6410   73.8590 C   0  0  0  0  0  0
    5.9200   34.4610   74.9500 N   0  0  0  0  0  0
    7.0170   35.5440   75.6950 S   0  0  0  0  0  0
    7.7240   36.6040   74.5170 C   0  0  0  0  0  0
    9.0830   36.4520   74.1650 C   0  0  0  0  0  0
    9.6460   37.3330   73.1980 C   0  0  0  0  0  0
    8.8470   38.3550   72.5940 C   0  0  0  0  0  0
    7.4730   38.4870   72.9670 C   0  0  0  0  0  0
    6.9090   37.6090   73.9340 C   0  0  0  0  0  0
    9.4490   39.3100   71.5560 C   0  0  0  0  0  0
    8.1280   34.6370   76.3790 O   0  0  0  0  0  0
    6.2550   36.3670   76.8210 O   0  0  0  0  0  0
    5.9910   32.4520   71.9920 C   0  0  0  0  0  0
    5.3720   33.2280   72.9310 N   0  0  0  0  0  0
    5.2980   31.9020   70.9300 O   0  5  0  0  0  0
    8.3090   31.4590   71.3000 C   0  0  0  0  0  0
   10.4015   28.3846   74.2399 H   0  0  0  0  0  0
    8.0672   29.3237   73.3594 H   0  0  0  0  0  0
   12.9553   28.8704   73.7498 H   0  0  0  0  0  0
   13.2229   30.5961   73.3288 H   0  0  0  0  0  0
   13.2186   29.3469   72.0380 H   0  0  0  0  0  0
    9.6910   35.6734   74.6257 H   0  0  0  0  0  0
   10.6936   37.2280   72.9158 H   0  0  0  0  0  0
    6.8569   39.2613   72.5099 H   0  0  0  0  0  0
    5.8628   37.7071   74.2238 H   0  0  0  0  0  0
   10.5081   39.0588   71.3975 H   0  0  0  0  0  0
    9.3680   40.3450   71.9196 H   0  0  0  0  0  0
    8.9026   39.2111   70.6064 H   0  0  0  0  0  0
    8.8401   32.1770   70.6578 H   0  0  0  0  0  0
    7.6932   30.7946   70.6760 H   0  0  0  0  0  0
    4.3179   33.5310   73.0149 H   0  0  0  0  0  0
  1  2  1  0  0  0
  1  5  2  0  0  0
  1 25  1  0  0  0
  2  3  2  0  0  0
  2 26  1  0  0  0
  3  4  1  0  0  0
  3 24  1  0  0  0
  4  5  1  0  0  0
  5  6  1  0  0  0
  6 27  1  0  0  0
  6 28  1  0  0  0
  6 29  1  0  0  0
  7  8  1  0  0  0
  7 21  2  0  0  0
  7 24  1  0  0  0
  8  9  1  0  0  0
  9 10  2  0  0  0
  9 22  1  0  0  0
 10 11  1  0  0  0
 11 12  1  0  0  0
 11 19  2  0  0  0
 11 20  2  0  0  0
 12 13  2  0  0  0
 12 17  1  0  0  0
 13 14  1  0  0  0
 13 30  1  0  0  0
 14 15  2  0  0  0
 14 31  1  0  0  0
 15 16  1  0  0  0
 15 18  1  0  0  0
 16 17  2  0  0  0
 16 32  1  0  0  0
 17 33  1  0  0  0
 18 34  1  0  0  0
 18 35  1  0  0  0
 18 36  1  0  0  0
 21 22  1  0  0  0
 21 23  1  0  0  0
 22 39  1  0  0  0
 24 37  1  0  0  0
 24 38  1  0  0  0
M  CHG  1  23  -1
M  END
> <s_m_source_file>
../2hwh_ligand.sdf

> <i_m_source_file_index>
1

> <s_epik_input>
bzFjKFtDSDNdKVtjSF1bY0hdYzFbQ0gyXWMyc2MobmMyW09IXSlbTkhdUyg9TykoPU8pYzNbY0hdW2NIXWMoW0NIM10pW2NIXVtjSF0z

> <s_epik_cmdline>
J2VwaWtfYXBwJywgJy1pbWFlJywgJ2xpZ2FuZF9wcm8ubWFlJywgJy1vbWFlJywgJ2xpZ2FuZF9wcmVwLm1hZScsICctbXMnLCAnMScsICctcGgnLCAnNycsICctcGh0JywgJzAuNScsICctbnQn

> <r_lp_tautomer_probability>
1

> <r_epik_Ionization_Penalty>
  0.0002

> <r_epik_Ionization_Penalty_Charging>
  0.0002

> <r_epik_Ionization_Penalty_Neutral>
  0.0000

> <r_epik_State_Penalty>
 -0.0000

> <r_epik_Charging_Adjusted_Penalty>
0.000185181915836657

> <i_epik_Tot_Q>
-1

> <i_epik_Tot_abs_Q>
1

$$$$
