2hwi_ligand
                    3D
 Schrodinger Suite 2020-3.
 40 42  0  0  1  0            999 V2000
    9.5050   36.6530   76.2440 C   0  0  0  0  0  0
   10.3280   37.3950   75.3650 C   0  0  0  0  0  0
    9.7640   38.3840   74.5220 C   0  0  0  0  0  0
    8.3630   38.5840   74.5000 C   0  0  0  0  0  0
    7.5190   37.7950   75.3320 C   0  0  0  0  0  0
    8.0850   36.8340   76.2360 C   0  0  0  0  0  0
   10.5820   39.1600   73.7560 F   0  0  0  0  0  0
    7.1750   35.9860   77.1850 C   0  0  1  0  0  0
    6.5690   36.9180   78.2590 C   0  0  0  0  0  0
    5.3080   37.3670   77.9640 O   0  5  0  0  0  0
    7.1580   37.2340   79.2790 O   0  0  0  0  0  0
    6.1020   35.2110   76.4660 N   0  0  0  0  0  0
    6.3700   34.0990   75.6060 C   0  0  0  0  0  0
    7.9640   33.5430   75.2530 S   0  0  0  0  0  0
    7.3000   32.3270   74.2520 C   0  0  0  0  0  0
    5.8080   32.3890   74.2370 C   0  0  0  0  0  0
    5.3580   33.4400   75.0340 N   0  0  0  0  0  0
    5.0890   31.6280   73.6130 O   0  0  0  0  0  0
    8.1610   31.3270   73.4920 C   0  0  0  0  0  0
    9.6660   31.1930   73.4490 C   0  0  0  0  0  0
   10.6040   31.7100   74.3380 C   0  0  0  0  0  0
   11.8550   31.3140   73.9120 C   0  0  0  0  0  0
   11.6960   30.5450   72.7700 C   0  0  0  0  0  0
   10.3500   30.4890   72.4930 O   0  0  0  0  0  0
   12.7710   29.8600   71.9420 C   0  0  0  0  0  0
   13.1250   30.6360   70.6690 C   0  0  0  0  0  0
    9.9553   35.9381   76.9326 H   0  0  0  0  0  0
   11.4009   37.2050   75.3361 H   0  0  0  0  0  0
    7.9305   39.3416   73.8465 H   0  0  0  0  0  0
    6.4375   37.9212   75.2824 H   0  0  0  0  0  0
    7.7801   35.1952   77.6524 H   0  0  0  0  0  0
    5.0454   35.4911   76.5887 H   0  0  0  0  0  0
    7.6869   30.5605   72.8614 H   0  0  0  0  0  0
   10.3883   32.3198   75.2154 H   0  0  0  0  0  0
   12.8026   31.5624   74.3899 H   0  0  0  0  0  0
   13.6882   29.7615   72.5412 H   0  0  0  0  0  0
   12.4211   28.8617   71.6404 H   0  0  0  0  0  0
   13.9046   30.0937   70.1139 H   0  0  0  0  0  0
   13.4958   31.6355   70.9401 H   0  0  0  0  0  0
   12.2287   30.7358   70.0392 H   0  0  0  0  0  0
  1  2  2  0  0  0
  1  6  1  0  0  0
  1 27  1  0  0  0
  2  3  1  0  0  0
  2 28  1  0  0  0
  3  4  2  0  0  0
  3  7  1  0  0  0
  4  5  1  0  0  0
  4 29  1  0  0  0
  5  6  2  0  0  0
  5 30  1  0  0  0
  6  8  1  0  0  0
  8  9  1  0  0  0
  8 12  1  0  0  0
  8 31  1  0  0  0
  9 10  1  0  0  0
  9 11  2  0  0  0
 12 13  1  0  0  0
 12 32  1  0  0  0
 13 14  1  0  0  0
 13 17  2  0  0  0
 14 15  1  0  0  0
 15 16  1  0  0  0
 15 19  2  0  0  0
 16 17  1  0  0  0
 16 18  2  0  0  0
 19 20  1  0  0  0
 19 33  1  0  0  0
 20 21  2  0  0  0
 20 24  1  0  0  0
 21 22  1  0  0  0
 21 34  1  0  0  0
 22 23  2  0  0  0
 22 35  1  0  0  0
 23 24  1  0  0  0
 23 25  1  0  0  0
 25 26  1  0  0  0
 25 36  1  0  0  0
 25 37  1  0  0  0
 26 38  1  0  0  0
 26 39  1  0  0  0
 26 40  1  0  0  0
M  CHG  1  10  -1
M  END
> <s_m_source_file>
../2hwi_ligand.sdf

> <i_m_source_file_index>
1

> <s_epik_input>
RmMxW2NIXVtjSF1jKFtjSF1bY0hdMSlbQ0BASF0oQyg9TylbT0hdKVtOSF1DMj1OQyg9TylDKFxTMik9W0NIXVxjM1tjSF1bY0hdYyhvMylbQ0gyXVtDSDNd

> <s_epik_cmdline>
J2VwaWtfYXBwJywgJy1pbWFlJywgJ2xpZ2FuZF9wcm8ubWFlJywgJy1vbWFlJywgJ2xpZ2FuZF9wcmVwLm1hZScsICctbXMnLCAnMScsICctcGgnLCAnNycsICctcGh0JywgJzAuNScsICctbnQn

> <r_lp_tautomer_probability>
1

> <r_epik_Ionization_Penalty>
  0.0001

> <r_epik_Ionization_Penalty_Charging>
  0.0001

> <r_epik_Ionization_Penalty_Neutral>
  0.0000

> <r_epik_State_Penalty>
 -0.0000

> <r_epik_Charging_Adjusted_Penalty>
5.73872077902419e-05

> <i_epik_Tot_Q>
-1

> <i_epik_Tot_abs_Q>
1

> <s_epik_Chemistry_Notes>
This compound has an imine and may undergo hydrolysis.

$$$$
