2hxl_ligand
                    3D
 Schrodinger Suite 2020-3.
 54 58  0  0  1  0            999 V2000
   22.3830   -2.6350    8.8100 C   0  0  0  0  0  0
   21.1090   -3.0570    9.4290 C   0  0  0  0  0  0
   19.9420   -2.2050    9.2660 C   0  0  0  0  0  0
   20.0600   -0.9410    8.5040 C   0  0  0  0  0  0
   21.3280   -0.5220    7.8880 C   0  0  0  0  0  0
   22.5200   -1.3850    8.0400 C   0  0  0  0  0  0
   18.5830   -2.3730    9.7440 C   0  0  0  0  0  0
   17.9370   -1.1780    9.2580 C   0  0  0  0  0  0
   18.7690   -0.3610    8.5810 N   0  3  0  0  0  0
   16.4780   -0.7740    9.4700 C   0  0  0  0  0  0
   15.4320   -1.4030   10.2560 C   0  0  0  0  0  0
   14.2660   -0.5370   10.1570 C   0  0  0  0  0  0
   14.6020    0.4960    9.3680 N   0  0  0  0  0  0
   15.9110    0.4000    8.9840 N   0  0  0  0  0  0
   15.3090   -2.6190   11.1160 C   0  0  0  0  0  0
   14.0440   -2.9120   11.8440 C   0  0  0  0  0  0
   12.9160   -1.9550   11.7090 C   0  0  3  0  0  0
   12.9960   -0.7510   10.8540 C   0  0  0  0  0  0
   11.7150   -2.2030   12.4790 C   0  0  0  0  0  0
   23.6430   -3.4950    8.9560 C   0  0  0  0  0  0
   23.6910   -4.7480    8.1560 N   0  3  1  0  0  0
   22.7910   -4.8670    6.9890 C   0  0  0  0  0  0
   25.0750   -5.1650    7.7760 C   0  0  0  0  0  0
   25.0580   -6.6090    7.2790 C   0  0  0  0  0  0
   22.7700   -6.3180    6.5220 C   0  0  0  0  0  0
   24.1380   -6.8350    6.0790 C   0  0  2  0  0  0
   24.0680   -8.3270    5.7370 C   0  0  0  0  0  0
   23.1190   -8.4950    4.6220 N   0  3  0  0  0  0
   10.7350   -2.4220   13.0660 N   0  0  0  0  0  0
   21.0456   -3.9863    9.9951 H   0  0  0  0  0  0
   21.3887    0.4109    7.3275 H   0  0  0  0  0  0
   23.4744   -1.1042    7.5945 H   0  0  0  0  0  0
   18.0086   -3.1131   10.3204 H   0  0  0  0  0  0
   16.1670   -3.3012   11.2077 H   0  0  0  0  0  0
   13.9624   -3.8182   12.4621 H   0  0  0  0  0  0
   12.1704   -0.0356   10.7249 H   0  0  0  0  0  0
   24.5233   -2.9106    8.6500 H   0  0  0  0  0  0
   23.7556   -3.8053   10.0053 H   0  0  0  0  0  0
   23.2641   -5.4500    8.8874 H   0  0  0  0  0  0
   21.7757   -4.5556    7.2757 H   0  0  0  0  0  0
   23.1567   -4.2218    6.1766 H   0  0  0  0  0  0
   25.4494   -4.5083    6.9769 H   0  0  0  0  0  0
   25.7348   -5.0884    8.6528 H   0  0  0  0  0  0
   26.0729   -6.9036    6.9737 H   0  0  0  0  0  0
   24.7115   -7.2707    8.0865 H   0  0  0  0  0  0
   22.4244   -6.9626    7.3436 H   0  0  0  0  0  0
   22.0869   -6.4177    5.6656 H   0  0  0  0  0  0
   24.4968   -6.3162    5.1778 H   0  0  0  0  0  0
   25.0664   -8.6830    5.4428 H   0  0  0  0  0  0
   23.7230   -8.8892    6.6173 H   0  0  0  0  0  0
   23.0503   -9.5602    4.3564 H   0  0  0  0  0  0
   23.4709   -7.9220    3.7515 H   0  0  0  0  0  0
   22.1275   -8.1282    4.9260 H   0  0  0  0  0  0
   18.5783    0.6197    8.1208 H   0  0  0  0  0  0
  1  2  2  0  0  0
  1  6  1  0  0  0
  1 20  1  0  0  0
  2  3  1  0  0  0
  2 30  1  0  0  0
  3  4  2  0  0  0
  3  7  1  0  0  0
  4  5  1  0  0  0
  4  9  1  0  0  0
  5  6  2  0  0  0
  5 31  1  0  0  0
  6 32  1  0  0  0
  7  8  2  0  0  0
  7 33  1  0  0  0
  8  9  1  0  0  0
  8 10  1  0  0  0
  9 54  1  0  0  0
 10 11  2  0  0  0
 10 14  1  0  0  0
 11 12  1  0  0  0
 11 15  1  0  0  0
 12 13  1  0  0  0
 12 18  2  0  0  0
 13 14  2  0  0  0
 15 16  2  0  0  0
 15 34  1  0  0  0
 16 17  1  0  0  0
 16 35  1  0  0  0
 17 18  1  0  0  0
 17 19  1  0  0  0
 18 36  1  0  0  0
 19 29  3  0  0  0
 20 21  1  0  0  0
 20 37  1  0  0  0
 20 38  1  0  0  0
 21 22  1  0  0  0
 21 23  1  0  0  0
 21 39  1  0  0  0
 22 25  1  0  0  0
 22 40  1  0  0  0
 22 41  1  0  0  0
 23 24  1  0  0  0
 23 42  1  0  0  0
 23 43  1  0  0  0
 24 26  1  0  0  0
 24 44  1  0  0  0
 24 45  1  0  0  0
 25 26  1  0  0  0
 25 46  1  0  0  0
 25 47  1  0  0  0
 26 27  1  0  0  0
 26 48  1  0  0  0
 27 28  1  0  0  0
 27 49  1  0  0  0
 27 50  1  0  0  0
 28 51  1  0  0  0
 28 52  1  0  0  0
 28 53  1  0  0  0
M  CHG  3   9   1  21   1  28   1
M  END
> <s_m_source_file>
../2hxl_ligand.sdf

> <i_m_source_file_index>
1

> <s_epik_input>
W0NIMl0xW0NIMl1bQ0BASF0oW0NIMl1bTkgzK10pW0NIMl1bQ0gyXVtOQEBIK10xW0NIMl1jKFtjSF0yKVtjSF1bY0hdYyhjMjMpW25IXWMoW2NIXTMpQz00Tj1OQyhDNDUpPVtDSF1bQ0hdKEMjTilbQ0hdPVtDSF01

> <s_epik_cmdline>
J2VwaWtfYXBwJywgJy1pbWFlJywgJ2xpZ2FuZF9wcm8ubWFlJywgJy1vbWFlJywgJ2xpZ2FuZF9wcmVwLm1hZScsICctbXMnLCAnMScsICctcGgnLCAnNycsICctcGh0JywgJzAuNScsICctbnQn

> <r_lp_tautomer_probability>
1

> <r_epik_Ionization_Penalty>
  0.0118

> <r_epik_Ionization_Penalty_Charging>
  0.0106

> <r_epik_Ionization_Penalty_Neutral>
  0.0011

> <r_epik_State_Penalty>
 -0.0000

> <r_epik_Charging_Adjusted_Penalty>
0.0106267600304326

> <i_epik_Tot_Q>
3

> <i_epik_Tot_abs_Q>
3

$$$$
