2hxq_ligand
                    3D
 Schrodinger Suite 2020-3.
 55 59  0  0  1  0            999 V2000
   14.8080   -1.7500   10.8440 C   0  0  0  0  0  0
   14.1310   -2.5900   11.8120 C   0  0  0  0  0  0
   12.7720   -2.2190   12.1800 C   0  0  0  0  0  0
   12.1320   -1.0350   11.6150 C   0  0  0  0  0  0
   12.8000   -0.2210   10.6160 C   0  0  0  0  0  0
   14.1430   -0.6030   10.2540 C   0  0  0  0  0  0
   14.8540    0.1860    9.3960 N   0  0  0  0  0  0
   16.1490   -0.0560    9.0860 C   0  0  0  0  0  0
   16.8850   -1.2130    9.6950 C   0  0  0  0  0  0
   16.2010   -2.0400   10.5160 C   0  0  0  0  0  0
   18.3380   -1.4000    9.4110 C   0  0  0  0  0  0
   19.1620   -0.5230    8.6810 N   0  0  0  0  0  0
   20.4420   -1.0460    8.6260 C   0  0  0  0  0  0
   20.4480   -2.3040    9.3660 C   0  0  0  0  0  0
   19.1490   -2.4680    9.8660 C   0  0  0  0  0  0
   21.6220   -0.5150    7.9610 C   0  0  0  0  0  0
   22.8720   -1.2800    8.0410 C   0  0  0  0  0  0
   22.8620   -2.5500    8.7940 C   0  0  0  0  0  0
   21.6700   -3.0640    9.4570 C   0  0  0  0  0  0
   24.0750   -3.4470    8.8370 C   0  0  0  0  0  0
   24.0800   -4.2690    7.6040 N   0  0  1  0  0  0
   25.2940   -3.9330    6.8360 C   0  0  0  0  0  0
   25.1120   -4.5000    5.4370 C   0  0  0  0  0  0
   24.9640   -6.0130    5.4770 C   0  0  1  0  0  0
   23.7940   -6.3830    6.4100 C   0  0  0  0  0  0
   24.0100   -5.7470    7.7840 C   0  0  0  0  0  0
   24.7100   -6.5230    4.0340 C   0  0  0  0  0  0
   25.8240   -6.0950    3.1620 N   0  3  0  0  0  0
   16.7750    0.6520    8.3040 O   0  0  0  0  0  0
   14.6188   -3.4627   12.2462 H   0  0  0  0  0  0
   12.2225   -2.8367   12.8904 H   0  0  0  0  0  0
   11.1328   -0.7567   11.9499 H   0  0  0  0  0  0
   12.3095    0.6392   10.1604 H   0  0  0  0  0  0
   14.3757    1.0582    8.9265 H   0  0  0  0  0  0
   16.6880   -2.9217   10.9325 H   0  0  0  0  0  0
   18.9103   -3.3316   10.5042 H   0  0  0  0  0  0
   21.5635    0.4382    7.4151 H   0  0  0  0  0  0
   23.7812   -0.9211    7.5586 H   0  0  0  0  0  0
   21.7151   -4.0128   10.0117 H   0  0  0  0  0  0
   24.9850   -2.8310    8.8868 H   0  0  0  0  0  0
   24.0213   -4.0941    9.7249 H   0  0  0  0  0  0
   25.4132   -2.8401    6.7982 H   0  0  0  0  0  0
   26.1722   -4.3809    7.3239 H   0  0  0  0  0  0
   24.2082   -4.0692    4.9815 H   0  0  0  0  0  0
   25.9885   -4.2475    4.8221 H   0  0  0  0  0  0
   25.8833   -6.4690    5.8732 H   0  0  0  0  0  0
   22.8514   -6.0126    5.9807 H   0  0  0  0  0  0
   23.7429   -7.4765    6.5181 H   0  0  0  0  0  0
   24.9510   -6.1076    8.2249 H   0  0  0  0  0  0
   23.1728   -5.9957    8.4527 H   0  0  0  0  0  0
   24.6470   -7.6212    4.0390 H   0  0  0  0  0  0
   23.7654   -6.1033    3.6577 H   0  0  0  0  0  0
   25.6471   -6.4551    2.1378 H   0  0  0  0  0  0
   26.7678   -6.5147    3.5403 H   0  0  0  0  0  0
   25.8862   -4.9968    3.1590 H   0  0  0  0  0  0
  1  2  2  0  0  0
  1  6  1  0  0  0
  1 10  1  0  0  0
  2  3  1  0  0  0
  2 30  1  0  0  0
  3  4  2  0  0  0
  3 31  1  0  0  0
  4  5  1  0  0  0
  4 32  1  0  0  0
  5  6  2  0  0  0
  5 33  1  0  0  0
  6  7  1  0  0  0
  7  8  1  0  0  0
  7 34  1  0  0  0
  8  9  1  0  0  0
  8 29  2  0  0  0
  9 10  2  0  0  0
  9 11  1  0  0  0
 10 35  1  0  0  0
 11 12  2  0  0  0
 11 15  1  0  0  0
 12 13  1  0  0  0
 13 14  1  0  0  0
 13 16  2  0  0  0
 14 15  2  0  0  0
 14 19  1  0  0  0
 15 36  1  0  0  0
 16 17  1  0  0  0
 16 37  1  0  0  0
 17 18  1  0  0  0
 17 38  1  0  0  0
 18 19  2  0  0  0
 18 20  1  0  0  0
 19 39  1  0  0  0
 20 21  1  0  0  0
 20 40  1  0  0  0
 20 41  1  0  0  0
 21 22  1  0  0  0
 21 26  1  0  0  0
 22 23  1  0  0  0
 22 42  1  0  0  0
 22 43  1  0  0  0
 23 24  1  0  0  0
 23 44  1  0  0  0
 23 45  1  0  0  0
 24 25  1  0  0  0
 24 27  1  0  0  0
 24 46  1  0  0  0
 25 26  1  0  0  0
 25 47  1  0  0  0
 25 48  1  0  0  0
 26 49  1  0  0  0
 26 50  1  0  0  0
 27 28  1  0  0  0
 27 51  1  0  0  0
 27 52  1  0  0  0
 28 53  1  0  0  0
 28 54  1  0  0  0
 28 55  1  0  0  0
M  CHG  1  28   1
M  END
> <s_m_source_file>
../2hxq_ligand.sdf

> <i_m_source_file_index>
1

> <s_epik_input>
W2NIXTFbY0hdW2NIXVtjSF1jKGMxMilbbkhdYyg9TyljKFtjSF0yKUMoPU4zKVtDSF09QyhDMz00KVtDSF09QyhbQ0gyXVtDSF00KVtDSDJdW05ASCtdNVtDSDJdW0NIMl1bQ0BASF0oW0NIMl1bQ0gyXTUpW0NIMl1bTkgzK10=

> <s_epik_cmdline>
J2VwaWtfYXBwJywgJy1pbWFlJywgJ2xpZ2FuZF9wcm8ubWFlJywgJy1vbWFlJywgJ2xpZ2FuZF9wcmVwLm1hZScsICctbXMnLCAnMScsICctcGgnLCAnNycsICctcGh0JywgJzAuNScsICctbnQn

> <r_lp_tautomer_probability>
1

> <r_epik_Ionization_Penalty>
  0.0062

> <r_epik_Ionization_Penalty_Charging>
  0.0048

> <r_epik_Ionization_Penalty_Neutral>
  0.0014

> <r_epik_State_Penalty>
 -0.0000

> <r_epik_Charging_Adjusted_Penalty>
0.00483194771627103

> <i_epik_Tot_Q>
1

> <i_epik_Tot_abs_Q>
1

> <s_epik_Chemistry_Notes>
This compound has an imine and may undergo hydrolysis.

$$$$
