2hy0_ligand
                    3D
 Schrodinger Suite 2020-3.
 55 60  0  0  1  0            999 V2000
   12.4160   -4.4350   13.4230 C   0  0  0  0  0  0
   12.0700   -3.2150   12.7910 C   0  0  0  0  0  0
   10.6990   -3.0860   13.1050 C   0  0  0  0  0  0
   10.3040   -4.1050   13.9200 N   0  0  0  0  0  0
   11.3240   -5.0030   13.9820 N   0  0  0  0  0  0
   18.5660   -1.4240    9.2760 C   0  0  0  0  0  0
   19.3980   -2.4860    9.7310 C   0  0  0  0  0  0
   19.3170   -0.5600    8.5620 N   0  0  0  0  0  0
   20.6630   -2.2750    9.2000 C   0  0  0  0  0  0
   20.6140   -1.0180    8.4180 C   0  0  0  0  0  0
   21.7690   -0.5100    7.6920 C   0  0  0  0  0  0
   23.0170   -1.2700    7.7270 C   0  0  0  0  0  0
   23.0580   -2.5230    8.4970 C   0  0  3  0  0  0
   21.9020   -3.0180    9.2440 C   0  0  0  0  0  0
   24.3030   -3.3970    8.4600 C   0  0  0  0  0  0
   12.9270   -2.3540   11.8920 C   0  0  0  0  0  0
   12.3460   -1.1410   11.3200 C   0  0  0  0  0  0
   13.0440   -0.3150   10.3990 C   0  0  0  0  0  0
   14.2980   -2.7250   11.5700 C   0  0  0  0  0  0
   15.0320   -1.8760   10.6760 C   0  0  0  0  0  0
   14.3780   -0.7090   10.1090 C   0  0  0  0  0  0
   15.0920    0.1310    9.2870 N   0  0  0  0  0  0
   16.4000   -0.1010    8.9610 C   0  0  0  0  0  0
   17.1210   -1.2750    9.5780 C   0  0  0  0  0  0
   16.3780   -2.1410   10.4370 C   0  0  0  0  0  0
   16.9310    0.6710    8.1690 O   0  0  0  0  0  0
   24.4930   -4.1030    7.1640 N   0  0  0  0  0  0
   25.4530   -5.2230    7.2650 C   0  0  0  0  0  0
   25.6250   -5.9000    5.8940 C   0  0  0  0  0  0
   24.2870   -6.4300    5.3790 C   0  0  0  0  0  0
   23.3440   -5.2420    5.2690 C   0  0  0  0  0  0
   23.2000   -4.5960    6.6450 C   0  0  0  0  0  0
   13.4581   -4.7869   13.4062 H   0  0  0  0  0  0
   10.0501   -2.2867   12.7472 H   0  0  0  0  0  0
   18.9833   -3.2689   10.3831 H   0  0  0  0  0  0
   21.7132    0.4299    7.1233 H   0  0  0  0  0  0
   23.9004   -0.9021    7.1846 H   0  0  0  0  0  0
   21.9674   -3.9439    9.8343 H   0  0  0  0  0  0
   25.1935   -2.7740    8.6297 H   0  0  0  0  0  0
   24.2365   -4.1634    9.2463 H   0  0  0  0  0  0
   11.3347   -0.8584   11.6124 H   0  0  0  0  0  0
   12.5862    0.5636    9.9445 H   0  0  0  0  0  0
   14.7525   -3.6199   11.9950 H   0  0  0  0  0  0
   14.6125    1.0271    8.8661 H   0  0  0  0  0  0
   16.8601   -3.0014   10.9012 H   0  0  0  0  0  0
   26.4276   -4.8411    7.6030 H   0  0  0  0  0  0
   25.0785   -5.9629    7.9877 H   0  0  0  0  0  0
   26.0191   -5.1701    5.1715 H   0  0  0  0  0  0
   26.3279   -6.7411    5.9860 H   0  0  0  0  0  0
   24.4330   -6.9001    4.3953 H   0  0  0  0  0  0
   23.8908   -7.1740    6.0857 H   0  0  0  0  0  0
   23.7556   -4.5119    4.5566 H   0  0  0  0  0  0
   22.3609   -5.5857    4.9148 H   0  0  0  0  0  0
   22.7902   -5.3476    7.3358 H   0  0  0  0  0  0
   22.4956   -3.7557    6.5576 H   0  0  0  0  0  0
  1  2  2  0  0  0
  1  5  1  0  0  0
  1 33  1  0  0  0
  2  3  1  0  0  0
  2 16  1  0  0  0
  3  4  1  0  0  0
  3 34  1  0  0  0
  4  5  2  0  0  0
  6  7  2  0  0  0
  6  8  1  0  0  0
  6 24  1  0  0  0
  7  9  1  0  0  0
  7 35  1  0  0  0
  8 10  2  0  0  0
  9 10  1  0  0  0
  9 14  2  0  0  0
 10 11  1  0  0  0
 11 12  2  0  0  0
 11 36  1  0  0  0
 12 13  1  0  0  0
 12 37  1  0  0  0
 13 14  1  0  0  0
 13 15  1  0  0  0
 14 38  1  0  0  0
 15 27  1  0  0  0
 15 39  1  0  0  0
 15 40  1  0  0  0
 16 17  2  0  0  0
 16 19  1  0  0  0
 17 18  1  0  0  0
 17 41  1  0  0  0
 18 21  2  0  0  0
 18 42  1  0  0  0
 19 20  2  0  0  0
 19 43  1  0  0  0
 20 21  1  0  0  0
 20 25  1  0  0  0
 21 22  1  0  0  0
 22 23  1  0  0  0
 22 44  1  0  0  0
 23 24  1  0  0  0
 23 26  2  0  0  0
 24 25  2  0  0  0
 25 45  1  0  0  0
 27 28  1  0  0  0
 27 32  1  0  0  0
 28 29  1  0  0  0
 28 46  1  0  0  0
 28 47  1  0  0  0
 29 30  1  0  0  0
 29 48  1  0  0  0
 29 49  1  0  0  0
 30 31  1  0  0  0
 30 50  1  0  0  0
 30 51  1  0  0  0
 31 32  1  0  0  0
 31 52  1  0  0  0
 31 53  1  0  0  0
 32 54  1  0  0  0
 32 55  1  0  0  0
M  END
> <s_m_source_file>
../2hy0_ligand.sdf

> <i_m_source_file_index>
1

> <s_epik_input>
W0NIMl0xTj1OW0NIXT1DMWMoW2NIXTIpW2NIXVtjSF1jKGMyMylbbkhdYyg9TyljKFtjSF0zKUMoPVtDSF00KU49QyhDND01KVtDSF09W0NIXVtDSF0oW0NIXTUpW0NIMl1bTkgrXTZbQ0gyXVtDSDJdW0NIMl1bQ0gyXVtDSDJdNg==

> <s_epik_cmdline>
J2VwaWtfYXBwJywgJy1pbWFlJywgJ2xpZ2FuZF9wcm8ubWFlJywgJy1vbWFlJywgJ2xpZ2FuZF9wcmVwLm1hZScsICctbXMnLCAnMScsICctcGgnLCAnNycsICctcGh0JywgJzAuNScsICctbnQn

> <r_lp_tautomer_probability>
1

> <r_epik_Ionization_Penalty>
  0.0208

> <r_epik_Ionization_Penalty_Charging>
  0.0185

> <r_epik_Ionization_Penalty_Neutral>
  0.0023

> <r_epik_State_Penalty>
 -0.0000

> <r_epik_Charging_Adjusted_Penalty>
0.0185056546866821

> <i_epik_Tot_Q>
0

> <i_epik_Tot_abs_Q>
0

> <s_epik_Chemistry_Notes>
This compound has an imine and may undergo hydrolysis.

$$$$
