2hyy_ligand
                    3D
 Schrodinger Suite 2020-3.
 69 73  0  0  1  0            999 V2000
   22.8270   11.7250   13.7800 C   0  0  0  0  0  0
   22.0360   12.1770   14.8390 C   0  0  0  0  0  0
   20.6680   11.8090   14.9590 C   0  0  0  0  0  0
   20.1400   11.0010   13.9470 C   0  0  0  0  0  0
   20.8920   10.5700   12.9040 N   0  0  0  0  0  0
   22.1760   10.9310   12.8420 C   0  0  0  0  0  0
   19.7780   12.2610   16.1190 C   0  0  0  0  0  0
   20.2660   12.8280   17.2280 C   0  0  0  0  0  0
   19.3470   13.1770   18.2350 C   0  0  0  0  0  0
   18.0470   12.9440   18.0700 N   0  0  0  0  0  0
   17.5930   12.3830   16.9620 C   0  0  0  0  0  0
   18.4330   12.0210   15.9770 N   0  0  0  0  0  0
   16.2540   12.1250   16.6950 N   0  0  0  0  0  0
   15.3460   12.2710   17.7100 C   0  0  0  0  0  0
   15.2340   11.3050   18.7320 C   0  0  0  0  0  0
   14.2850   11.5390   19.7140 C   0  0  0  0  0  0
   13.4510   12.6990   19.6990 C   0  0  0  0  0  0
   13.5600   13.6330   18.6980 C   0  0  0  0  0  0
   14.5060   13.4010   17.6880 C   0  0  0  0  0  0
   12.6590   14.7350   18.8140 N   0  0  0  0  0  0
   12.5890   15.6820   17.8510 C   0  0  0  0  0  0
   11.4550   16.6420   17.9000 C   0  0  0  0  0  0
   11.0790   17.3300   16.7130 C   0  0  0  0  0  0
   10.0060   18.2850   16.6780 C   0  0  0  0  0  0
    9.2980   18.5360   17.8690 C   0  0  0  0  0  0
    9.6620   17.8540   19.0650 C   0  0  0  0  0  0
   10.7360   16.9080   19.1120 C   0  0  0  0  0  0
    8.1960   19.5290   17.8320 C   0  0  0  0  0  0
    8.1910   20.4060   18.9880 N   0  3  1  0  0  0
    9.4550   21.1520   19.1060 C   0  0  0  0  0  0
    9.4480   22.0490   20.4020 C   0  0  0  0  0  0
    8.1500   22.8120   20.4470 N   0  0  2  0  0  0
    8.1830   23.6190   21.6400 C   0  0  0  0  0  0
    6.9280   22.0290   20.3800 C   0  0  0  0  0  0
    6.9520   21.2300   19.0530 C   0  0  0  0  0  0
   13.3990   15.8030   16.9310 O   0  0  0  0  0  0
   16.0750   10.0530   18.8150 C   0  0  0  0  0  0
   23.8838   11.9778   13.6946 H   0  0  0  0  0  0
   22.4789   12.8284   15.5924 H   0  0  0  0  0  0
   19.0912   10.7085   13.9982 H   0  0  0  0  0  0
   22.7582   10.5764   11.9915 H   0  0  0  0  0  0
   21.3337   13.0125   17.3470 H   0  0  0  0  0  0
   19.7019   13.6408   19.1554 H   0  0  0  0  0  0
   15.9447   11.8115   15.6870 H   0  0  0  0  0  0
   14.1713   10.8165   20.5222 H   0  0  0  0  0  0
   12.7183   12.8447   20.4928 H   0  0  0  0  0  0
   14.5927   14.1124   16.8668 H   0  0  0  0  0  0
   12.0084   14.8229   19.6966 H   0  0  0  0  0  0
   11.6268   17.1245   15.7933 H   0  0  0  0  0  0
    9.7469   18.8016   15.7538 H   0  0  0  0  0  0
    9.1028   18.0595   19.9778 H   0  0  0  0  0  0
   10.9994   16.4046   20.0422 H   0  0  0  0  0  0
    8.2980   20.1566   16.9344 H   0  0  0  0  0  0
    7.2299   19.0038   17.8043 H   0  0  0  0  0  0
    8.1634   19.7681   19.8837 H   0  0  0  0  0  0
   10.2945   20.4437   19.1663 H   0  0  0  0  0  0
    9.5830   21.7982   18.2250 H   0  0  0  0  0  0
    9.5384   21.4085   21.2917 H   0  0  0  0  0  0
   10.2950   22.7500   20.3673 H   0  0  0  0  0  0
    9.1170   24.1996   21.6642 H   0  0  0  0  0  0
    8.1333   22.9675   22.5249 H   0  0  0  0  0  0
    7.3240   24.3061   21.6418 H   0  0  0  0  0  0
    6.8847   21.3429   21.2387 H   0  0  0  0  0  0
    6.0589   22.7028   20.4049 H   0  0  0  0  0  0
    6.9322   21.9299   18.2046 H   0  0  0  0  0  0
    6.0714   20.5724   19.0064 H   0  0  0  0  0  0
   16.7721   10.0225   17.9646 H   0  0  0  0  0  0
   15.4208    9.1692   18.7847 H   0  0  0  0  0  0
   16.6445   10.0556   19.7561 H   0  0  0  0  0  0
  1  2  2  0  0  0
  1  6  1  0  0  0
  1 38  1  0  0  0
  2  3  1  0  0  0
  2 39  1  0  0  0
  3  4  2  0  0  0
  3  7  1  0  0  0
  4  5  1  0  0  0
  4 40  1  0  0  0
  5  6  2  0  0  0
  6 41  1  0  0  0
  7  8  2  0  0  0
  7 12  1  0  0  0
  8  9  1  0  0  0
  8 42  1  0  0  0
  9 10  2  0  0  0
  9 43  1  0  0  0
 10 11  1  0  0  0
 11 12  2  0  0  0
 11 13  1  0  0  0
 13 14  1  0  0  0
 13 44  1  0  0  0
 14 15  2  0  0  0
 14 19  1  0  0  0
 15 16  1  0  0  0
 15 37  1  0  0  0
 16 17  2  0  0  0
 16 45  1  0  0  0
 17 18  1  0  0  0
 17 46  1  0  0  0
 18 19  2  0  0  0
 18 20  1  0  0  0
 19 47  1  0  0  0
 20 21  1  0  0  0
 20 48  1  0  0  0
 21 22  1  0  0  0
 21 36  2  0  0  0
 22 23  2  0  0  0
 22 27  1  0  0  0
 23 24  1  0  0  0
 23 49  1  0  0  0
 24 25  2  0  0  0
 24 50  1  0  0  0
 25 26  1  0  0  0
 25 28  1  0  0  0
 26 27  2  0  0  0
 26 51  1  0  0  0
 27 52  1  0  0  0
 28 29  1  0  0  0
 28 53  1  0  0  0
 28 54  1  0  0  0
 29 30  1  0  0  0
 29 35  1  0  0  0
 29 55  1  0  0  0
 30 31  1  0  0  0
 30 56  1  0  0  0
 30 57  1  0  0  0
 31 32  1  0  0  0
 31 58  1  0  0  0
 31 59  1  0  0  0
 32 33  1  0  0  0
 32 34  1  0  0  0
 33 60  1  0  0  0
 33 61  1  0  0  0
 33 62  1  0  0  0
 34 35  1  0  0  0
 34 63  1  0  0  0
 34 64  1  0  0  0
 35 65  1  0  0  0
 35 66  1  0  0  0
 37 67  1  0  0  0
 37 68  1  0  0  0
 37 69  1  0  0  0
M  CHG  1  29   1
M  END
> <s_m_source_file>
../2hyy_ligand.sdf

> <i_m_source_file_index>
1

> <s_epik_input>
W2NIXTFuW2NIXVtjSF1bY0hdYzEtYzJbY0hdW2NIXW5jKG4yKVtOSF1jM2MoW0NIM10pW2NIXVtjSF1jKFtjSF0zKVtOSF1DKD1PKWM0W2NIXVtjSF1jKFtjSF1bY0hdNClbQ0gyXVtOQEgrXTVbQ0gyXVtDSDJdW05ASCtdKFtDSDNdKVtDSDJdW0NIMl01

> <s_epik_cmdline>
J2VwaWtfYXBwJywgJy1pbWFlJywgJ2xpZ2FuZF9wcm8ubWFlJywgJy1vbWFlJywgJ2xpZ2FuZF9wcmVwLm1hZScsICctbXMnLCAnMScsICctcGgnLCAnNycsICctcGh0JywgJzAuNScsICctbnQn

> <r_lp_tautomer_probability>
1

> <r_epik_Ionization_Penalty>
  0.0173

> <r_epik_Ionization_Penalty_Charging>
  0.0155

> <r_epik_Ionization_Penalty_Neutral>
  0.0019

> <r_epik_State_Penalty>
 -0.0000

> <r_epik_Charging_Adjusted_Penalty>
0.0154526225118262

> <i_epik_Tot_Q>
1

> <i_epik_Tot_abs_Q>
1

$$$$
