2hz0_ligand
                    3D
 Schrodinger Suite 2020-3.
 53 55  0  0  1  0            999 V2000
   17.2420   46.0320   56.8250 C   0  0  0  0  0  0
   15.7470   47.8320   57.4430 C   0  0  0  0  0  0
   14.4090   50.3600   56.9830 C   0  0  0  0  0  0
   14.8590   49.9640   58.3070 C   0  0  0  0  0  0
   15.5090   48.7220   58.5360 C   0  0  0  0  0  0
   13.7030   51.7030   56.8420 C   0  0  0  0  0  0
   12.1600   51.6060   57.1500 C   0  0  0  0  0  0
   11.5280   53.0130   57.0430 C   0  0  0  0  0  0
   21.1330   44.7780   55.7300 C   0  0  0  0  0  0
   21.5200   43.7220   54.6540 C   0  0  0  0  0  0
   22.9030   43.5140   54.3430 C   0  0  0  0  0  0
   23.2970   42.6080   53.4130 C   0  0  0  0  0  0
   17.6950   44.6690   57.2480 C   0  0  0  0  0  0
   16.9120   43.9220   58.1500 C   0  0  0  0  0  0
   17.3140   42.6430   58.5800 C   0  0  0  0  0  0
   18.5090   42.0730   58.0980 C   0  0  0  0  0  0
   19.2990   42.8130   57.1600 C   0  0  0  0  0  0
   18.8950   44.0910   56.7410 C   0  0  0  0  0  0
   19.6700   44.8250   55.8060 N   0  0  0  0  0  0
   16.3500   46.5940   57.6570 N   0  0  0  0  0  0
   17.6800   46.5710   55.7840 O   0  0  0  0  0  0
   15.3110   48.2240   56.1630 C   0  0  0  0  0  0
   14.6630   49.4880   55.9000 C   0  0  0  0  0  0
   14.2360   49.8090   54.4500 C   0  0  0  0  0  0
   14.5140   48.8110   53.5930 F   0  0  0  0  0  0
   12.9660   50.0550   54.2750 F   0  0  0  0  0  0
   14.8620   50.8670   53.9810 F   0  0  0  0  0  0
   22.3460   41.8030   52.6680 C   0  0  0  0  0  0
   21.0100   42.0490   53.0140 N   0  0  0  0  0  0
   20.5990   42.9810   53.9710 C   0  0  0  0  0  0
   22.6730   40.9640   51.8600 O   0  0  0  0  0  0
   14.6932   50.6384   59.1471 H   0  0  0  0  0  0
   15.8255   48.4483   59.5425 H   0  0  0  0  0  0
   14.1448   52.4250   57.5445 H   0  0  0  0  0  0
   13.8213   52.0732   55.8129 H   0  0  0  0  0  0
   11.6828   50.9318   56.4236 H   0  0  0  0  0  0
   12.0130   51.2127   58.1667 H   0  0  0  0  0  0
   10.4510   52.9485   57.2575 H   0  0  0  0  0  0
   11.6765   53.4053   56.0261 H   0  0  0  0  0  0
   12.0068   53.6862   57.7693 H   0  0  0  0  0  0
   21.5563   44.4835   56.7016 H   0  0  0  0  0  0
   21.5318   45.7610   55.4391 H   0  0  0  0  0  0
   23.6774   44.0966   54.8635 H   0  0  0  0  0  0
   23.8595   43.1195   52.6180 H   0  0  0  0  0  0
   23.9388   41.8510   53.8874 H   0  0  0  0  0  0
   15.9775   44.3421   58.5219 H   0  0  0  0  0  0
   16.6976   42.0909   59.2895 H   0  0  0  0  0  0
   18.8268   41.0857   58.4332 H   0  0  0  0  0  0
   20.2201   42.3812   56.7687 H   0  0  0  0  0  0
   19.1031   45.4595   55.1088 H   0  0  0  0  0  0
   16.0517   46.0716   58.5779 H   0  0  0  0  0  0
   15.4702   47.5400   55.3294 H   0  0  0  0  0  0
   19.5277   43.1210   54.1778 H   0  0  0  0  0  0
  1 13  1  0  0  0
  1 20  1  0  0  0
  1 21  2  0  0  0
  2  5  2  0  0  0
  2 20  1  0  0  0
  2 22  1  0  0  0
  3  4  2  0  0  0
  3  6  1  0  0  0
  3 23  1  0  0  0
  4  5  1  0  0  0
  4 32  1  0  0  0
  5 33  1  0  0  0
  6  7  1  0  0  0
  6 34  1  0  0  0
  6 35  1  0  0  0
  7  8  1  0  0  0
  7 36  1  0  0  0
  7 37  1  0  0  0
  8 38  1  0  0  0
  8 39  1  0  0  0
  8 40  1  0  0  0
  9 10  1  0  0  0
  9 19  1  0  0  0
  9 41  1  0  0  0
  9 42  1  0  0  0
 10 11  2  0  0  0
 10 30  1  0  0  0
 11 12  1  0  0  0
 11 43  1  0  0  0
 12 28  1  0  0  0
 12 44  1  0  0  0
 12 45  1  0  0  0
 13 14  2  0  0  0
 13 18  1  0  0  0
 14 15  1  0  0  0
 14 46  1  0  0  0
 15 16  2  0  0  0
 15 47  1  0  0  0
 16 17  1  0  0  0
 16 48  1  0  0  0
 17 18  2  0  0  0
 17 49  1  0  0  0
 18 19  1  0  0  0
 19 50  1  0  0  0
 20 51  1  0  0  0
 22 23  2  0  0  0
 22 52  1  0  0  0
 23 24  1  0  0  0
 24 25  1  0  0  0
 24 26  1  0  0  0
 24 27  1  0  0  0
 28 29  1  0  0  0
 28 31  2  0  0  0
 29 30  2  0  0  0
 30 53  1  0  0  0
M  END
> <s_m_source_file>
../2hz0_ligand.sdf

> <i_m_source_file_index>
1

> <s_epik_input>
W0NIM11bQ0gyXVtDSDJdYyhjKFtjSF0xKUMoRikoRilGKVtjSF1bY0hdYzFbTkhdQyg9TyljMltjSF1bY0hdW2NIXVtjSF1jMltOSF1bQ0gyXUMzPVtDSF1bQ0gyXUMoPU8pTj1bQ0hdMw==

> <s_epik_cmdline>
J2VwaWtfYXBwJywgJy1pbWFlJywgJ2xpZ2FuZF9wcm8ubWFlJywgJy1vbWFlJywgJ2xpZ2FuZF9wcmVwLm1hZScsICctbXMnLCAnMScsICctcGgnLCAnNycsICctcGh0JywgJzAuNScsICctbnQn

> <r_lp_tautomer_probability>
1

> <r_epik_Ionization_Penalty>
  0.0000

> <r_epik_Ionization_Penalty_Charging>
  0.0000

> <r_epik_Ionization_Penalty_Neutral>
  0.0000

> <r_epik_State_Penalty>
 -0.0000

> <r_epik_Charging_Adjusted_Penalty>
0

> <i_epik_Tot_Q>
0

> <i_epik_Tot_abs_Q>
0

> <s_epik_Chemistry_Notes>
This compound has an imine and may undergo hydrolysis.

$$$$
