2hz4_ligand
                    3D
 Schrodinger Suite 2020-3.
 66 73  0  0  1  0            999 V2000
   24.5600    4.7580   25.4650 C   0  0  0  0  0  0
   25.0800    5.0520   26.7580 O   0  0  0  0  0  0
   25.0820    4.0320   27.7760 C   0  0  2  0  0  0
   25.0900    4.7730   29.1140 C   0  0  2  0  0  0
   23.8280    5.5410   29.2760 N   0  3  0  0  0  0
   23.2360    5.8860   30.5830 C   0  0  0  0  0  0
   26.3850    5.6050   29.1340 C   0  0  0  0  0  0
   27.5350    4.6870   28.6540 C   0  0  1  0  0  0
   27.2650    3.2740   28.4590 O   0  0  0  0  0  0
   26.1590    2.8890   27.6240 C   0  0  1  0  0  0
   25.7670    1.5880   28.3540 C   0  0  0  0  0  0
   26.6590    2.6650   26.2470 N   0  0  0  0  0  0
   26.2510    1.7600   25.2350 C   0  0  0  0  0  0
   25.2550    0.7280   25.1860 C   0  0  0  0  0  0
   25.0630   -0.0780   24.0140 C   0  0  0  0  0  0
   25.8630    0.1510   22.8660 C   0  0  0  0  0  0
   26.8550    1.1730   22.9270 C   0  0  0  0  0  0
   27.0110    1.9350   24.1220 C   0  0  0  0  0  0
   27.9270    3.0020   24.3920 C   0  0  0  0  0  0
   27.6990    3.4580   25.7410 C   0  0  0  0  0  0
   28.4310    4.4750   26.2900 C   0  0  0  0  0  0
   28.3700    5.0960   27.5330 N   0  0  0  0  0  0
   29.3260    6.0820   27.6120 C   0  0  0  0  0  0
   29.6050    6.9680   28.8130 C   0  0  0  0  0  0
   30.2140    8.3110   28.3770 C   0  0  0  0  0  0
   31.4130    8.1240   27.4240 C   0  0  0  0  0  0
   31.1210    7.1740   26.2280 C   0  0  0  0  0  0
   30.0170    6.1670   26.4560 C   0  0  0  0  0  0
   29.4730    5.1610   25.5620 C   0  0  0  0  0  0
   29.6800    4.6970   24.2280 C   0  0  0  0  0  0
   28.9460    3.6500   23.6580 C   0  0  0  0  0  0
   29.3630    3.3680   22.2350 C   0  0  0  0  0  0
   30.4180    4.3800   22.1310 N   0  0  0  0  0  0
   30.6190    5.1420   23.2230 C   0  0  0  0  0  0
   31.4300    6.0540   23.3670 O   0  0  0  0  0  0
   24.6406    5.6497   24.8260 H   0  0  0  0  0  0
   23.5036    4.4640   25.5528 H   0  0  0  0  0  0
   25.1342    3.9332   25.0177 H   0  0  0  0  0  0
   24.1352    3.4917   27.6291 H   0  0  0  0  0  0
   25.0709    4.1170   29.9968 H   0  0  0  0  0  0
   23.9390    6.5312   28.8100 H   0  0  0  0  0  0
   23.0034    4.9980   28.7910 H   0  0  0  0  0  0
   22.3074    6.4545   30.4263 H   0  0  0  0  0  0
   23.9474    6.4970   31.1579 H   0  0  0  0  0  0
   23.0119    4.9637   31.1389 H   0  0  0  0  0  0
   26.2763    6.4687   28.4615 H   0  0  0  0  0  0
   26.5775    5.9592   30.1575 H   0  0  0  0  0  0
   28.1634    4.7794   29.5521 H   0  0  0  0  0  0
   25.4068    1.8291   29.3650 H   0  0  0  0  0  0
   26.6447    0.9287   28.4250 H   0  0  0  0  0  0
   24.9700    1.0784   27.7926 H   0  0  0  0  0  0
   24.6287    0.5519   26.0606 H   0  0  0  0  0  0
   24.3060   -0.8622   24.0065 H   0  0  0  0  0  0
   25.7231   -0.4391   21.9603 H   0  0  0  0  0  0
   27.4911    1.3709   22.0643 H   0  0  0  0  0  0
   28.6652    7.1644   29.3499 H   0  0  0  0  0  0
   30.3127    6.4615   29.4858 H   0  0  0  0  0  0
   29.4513    8.9070   27.8543 H   0  0  0  0  0  0
   30.5641    8.8599   29.2636 H   0  0  0  0  0  0
   31.7030    9.0984   27.0040 H   0  0  0  0  0  0
   32.2607    7.6977   27.9805 H   0  0  0  0  0  0
   30.8243    7.7686   25.3514 H   0  0  0  0  0  0
   32.0259    6.5958   25.9896 H   0  0  0  0  0  0
   29.7095    2.3272   22.1539 H   0  0  0  0  0  0
   28.5050    3.5222   21.5641 H   0  0  0  0  0  0
   30.9921    4.4822   21.1983 H   0  0  0  0  0  0
  1  2  1  0  0  0
  1 36  1  0  0  0
  1 37  1  0  0  0
  1 38  1  0  0  0
  2  3  1  0  0  0
  3  4  1  0  0  0
  3 10  1  0  0  0
  3 39  1  0  0  0
  4  5  1  0  0  0
  4  7  1  0  0  0
  4 40  1  0  0  0
  5  6  1  0  0  0
  5 41  1  0  0  0
  5 42  1  0  0  0
  6 43  1  0  0  0
  6 44  1  0  0  0
  6 45  1  0  0  0
  7  8  1  0  0  0
  7 46  1  0  0  0
  7 47  1  0  0  0
  8  9  1  0  0  0
  8 22  1  0  0  0
  8 48  1  0  0  0
  9 10  1  0  0  0
 10 11  1  0  0  0
 10 12  1  0  0  0
 11 49  1  0  0  0
 11 50  1  0  0  0
 11 51  1  0  0  0
 12 13  1  0  0  0
 12 20  1  0  0  0
 13 14  1  0  0  0
 13 18  2  0  0  0
 14 15  2  0  0  0
 14 52  1  0  0  0
 15 16  1  0  0  0
 15 53  1  0  0  0
 16 17  2  0  0  0
 16 54  1  0  0  0
 17 18  1  0  0  0
 17 55  1  0  0  0
 18 19  1  0  0  0
 19 20  2  0  0  0
 19 31  1  0  0  0
 20 21  1  0  0  0
 21 22  1  0  0  0
 21 29  2  0  0  0
 22 23  1  0  0  0
 23 24  1  0  0  0
 23 28  2  0  0  0
 24 25  1  0  0  0
 24 56  1  0  0  0
 24 57  1  0  0  0
 25 26  1  0  0  0
 25 58  1  0  0  0
 25 59  1  0  0  0
 26 27  1  0  0  0
 26 60  1  0  0  0
 26 61  1  0  0  0
 27 28  1  0  0  0
 27 62  1  0  0  0
 27 63  1  0  0  0
 28 29  1  0  0  0
 29 30  1  0  0  0
 30 31  2  0  0  0
 30 34  1  0  0  0
 31 32  1  0  0  0
 32 33  1  0  0  0
 32 64  1  0  0  0
 32 65  1  0  0  0
 33 34  1  0  0  0
 33 66  1  0  0  0
 34 35  2  0  0  0
M  CHG  1   5   1
M  END
> <s_m_source_file>
../2hz4_ligand.sdf

> <i_m_source_file_index>
1

> <s_epik_input>
W0NIM11bQ0BAXTEybjNjNGMoW2NIXVtjSF1bY0hdW2NIXTQpYzVjM2M2bihbQ0BIXShPMilbQ0gyXVtDQEBIXShbTkgyK11bQ0gzXSlbQ0BIXTFPW0NIM10pYzdjKFtDSDJdW0NIMl1bQ0gyXVtDSDJdNyljNmM4YzVbQ0gyXVtOSF1DOD1P

> <s_epik_cmdline>
J2VwaWtfYXBwJywgJy1pbWFlJywgJ2xpZ2FuZF9wcm8ubWFlJywgJy1vbWFlJywgJ2xpZ2FuZF9wcmVwLm1hZScsICctbXMnLCAnMScsICctcGgnLCAnNycsICctcGh0JywgJzAuNScsICctbnQn

> <r_epik_Ionization_Penalty>
  0.0560

> <r_epik_Ionization_Penalty_Charging>
  0.0560

> <r_epik_Ionization_Penalty_Neutral>
  0.0000

> <r_epik_State_Penalty>
  0.0482

> <r_epik_Charging_Adjusted_Penalty>
0.104192696511962

> <i_epik_Tot_Q>
1

> <i_epik_Tot_abs_Q>
1

> <s_epik_Chemistry_Notes>
This compound contains an acetal/aminal-like group ( X-CH(R)-Y where X, Y are N, S, or O) that may be acid/base labile, releasing an aldehyde.

$$$$
