2hzl_ligand
                    3D
 Schrodinger Suite 2020-3.
  9  8  0  0  1  0            999 V2000
   63.0350   76.2620   27.3310 C   0  0  0  0  0  0
   63.8110   75.2510   27.5920 O   0  0  0  0  0  0
   63.5600   77.4570   27.2800 O   0  5  0  0  0  0
   61.6580   76.1090   27.1100 C   0  0  0  0  0  0
   60.9730   77.1310   26.6870 O   0  0  0  0  0  0
   60.9450   74.8150   27.3390 C   0  0  0  0  0  0
   61.6616   74.0591   27.6926 H   0  0  0  0  0  0
   60.4892   74.4759   26.3971 H   0  0  0  0  0  0
   60.1596   74.9581   28.0958 H   0  0  0  0  0  0
  1  2  2  0  0  0
  1  3  1  0  0  0
  1  4  1  0  0  0
  4  5  2  0  0  0
  4  6  1  0  0  0
  6  7  1  0  0  0
  6  8  1  0  0  0
  6  9  1  0  0  0
M  CHG  1   3  -1
M  END
> <s_m_source_file>
../2hzl_ligand.sdf

> <i_m_source_file_index>
1

> <s_epik_input>
Tz1DKFtPSF0pQyg9TylbQ0gzXQ==

> <s_epik_cmdline>
J2VwaWtfYXBwJywgJy1pbWFlJywgJ2xpZ2FuZF9wcm8ubWFlJywgJy1vbWFlJywgJ2xpZ2FuZF9wcmVwLm1hZScsICctbXMnLCAnMScsICctcGgnLCAnNycsICctcGh0JywgJzAuNScsICctbnQn

> <r_lp_tautomer_probability>
1

> <r_epik_Ionization_Penalty>
  0.0001

> <r_epik_Ionization_Penalty_Charging>
  0.0001

> <r_epik_Ionization_Penalty_Neutral>
  0.0000

> <r_epik_State_Penalty>
 -0.0000

> <r_epik_Charging_Adjusted_Penalty>
0.000107804877567525

> <i_epik_Tot_Q>
-1

> <i_epik_Tot_abs_Q>
1

$$$$
