2hzn_ligand
                    3D
 Schrodinger Suite 2020-3.
 41 43  0  0  1  0            999 V2000
   47.5410   30.8440   43.6370 C   0  0  0  0  0  0
   47.7180   31.0870   42.2710 C   0  0  0  0  0  0
   48.0740   23.6850   43.3000 C   0  0  0  0  0  0
   49.2950   23.6190   42.5980 C   0  0  0  0  0  0
   49.8230   22.3920   42.1510 C   0  0  0  0  0  0
   47.9230   21.2530   43.1130 C   0  0  0  0  0  0
   49.4060   19.5470   40.7520 C   0  0  0  0  0  0
   48.3030   19.9870   40.0070 C   0  0  0  0  0  0
   48.1360   19.5210   38.7130 C   0  0  0  0  0  0
   47.9040   31.5700   39.5280 F   0  0  0  0  0  0
   47.9650   30.2390   39.8940 C   0  0  0  0  0  0
   49.2240   29.7680   39.6020 F   0  0  0  0  0  0
   47.0530   29.5380   39.1390 F   0  0  0  0  0  0
   47.7360   30.0130   41.3680 C   0  0  0  0  0  0
   47.5650   28.6970   41.8480 C   0  0  0  0  0  0
   47.3800   28.4350   43.2180 C   0  0  0  0  0  0
   47.3910   29.5280   44.1070 C   0  0  0  0  0  0
   47.2070   27.1220   43.7380 N   0  0  0  0  0  0
   47.7310   26.0460   43.1030 C   0  0  0  0  0  0
   48.3390   26.1070   41.9950 O   0  0  0  0  0  0
   47.5430   24.9000   43.7870 N   0  0  0  0  0  0
   49.1480   21.1950   42.4230 C   0  0  0  0  0  0
   47.3940   22.4850   43.5540 C   0  0  0  0  0  0
   49.6280   19.9910   42.0130 O   0  0  0  0  0  0
   48.9790   18.6650   38.1290 N   0  0  0  0  0  0
   50.0280   18.2370   38.8410 C   0  0  0  0  0  0
   50.2880   18.6480   40.1430 C   0  0  0  0  0  0
   47.5193   31.6776   44.3390 H   0  0  0  0  0  0
   47.8416   32.1076   41.9089 H   0  0  0  0  0  0
   49.8433   24.5392   42.3964 H   0  0  0  0  0  0
   50.7587   22.3739   41.5923 H   0  0  0  0  0  0
   47.3741   20.3321   43.3100 H   0  0  0  0  0  0
   47.5870   20.6858   40.4396 H   0  0  0  0  0  0
   47.2745   19.8699   38.1436 H   0  0  0  0  0  0
   47.5765   27.8661   41.1426 H   0  0  0  0  0  0
   47.2814   29.3500   45.1768 H   0  0  0  0  0  0
   46.6409   26.9692   44.6687 H   0  0  0  0  0  0
   46.9735   24.9134   44.7280 H   0  0  0  0  0  0
   46.4489   22.5040   44.0966 H   0  0  0  0  0  0
   50.7142   17.5293   38.3758 H   0  0  0  0  0  0
   51.1617   18.2772   40.6789 H   0  0  0  0  0  0
  1  2  2  0  0  0
  1 17  1  0  0  0
  1 28  1  0  0  0
  2 14  1  0  0  0
  2 29  1  0  0  0
  3  4  2  0  0  0
  3 21  1  0  0  0
  3 23  1  0  0  0
  4  5  1  0  0  0
  4 30  1  0  0  0
  5 22  2  0  0  0
  5 31  1  0  0  0
  6 22  1  0  0  0
  6 23  2  0  0  0
  6 32  1  0  0  0
  7  8  2  0  0  0
  7 24  1  0  0  0
  7 27  1  0  0  0
  8  9  1  0  0  0
  8 33  1  0  0  0
  9 25  2  0  0  0
  9 34  1  0  0  0
 10 11  1  0  0  0
 11 12  1  0  0  0
 11 13  1  0  0  0
 11 14  1  0  0  0
 14 15  2  0  0  0
 15 16  1  0  0  0
 15 35  1  0  0  0
 16 17  2  0  0  0
 16 18  1  0  0  0
 17 36  1  0  0  0
 18 19  1  0  0  0
 18 37  1  0  0  0
 19 20  2  0  0  0
 19 21  1  0  0  0
 21 38  1  0  0  0
 22 24  1  0  0  0
 23 39  1  0  0  0
 25 26  1  0  0  0
 26 27  2  0  0  0
 26 40  1  0  0  0
 27 41  1  0  0  0
M  END
> <s_m_source_file>
../2hzn_ligand.sdf

> <i_m_source_file_index>
1

> <s_epik_input>
RkMoRikoRiljMVtjSF1bY0hdW2NIXWMoW2NIXTEpW05IXUMoPU8pW05IXWMyW2NIXVtjSF1jKFtjSF1bY0hdMilPYzNbY0hdW2NIXW5bY0hdW2NIXTM=

> <s_epik_cmdline>
J2VwaWtfYXBwJywgJy1pbWFlJywgJ2xpZ2FuZF9wcm8ubWFlJywgJy1vbWFlJywgJ2xpZ2FuZF9wcmVwLm1hZScsICctbXMnLCAnMScsICctcGgnLCAnNycsICctcGh0JywgJzAuNScsICctbnQn

> <r_lp_tautomer_probability>
1

> <r_epik_Ionization_Penalty>
  0.1963

> <r_epik_Ionization_Penalty_Charging>
  0.0000

> <r_epik_Ionization_Penalty_Neutral>
  0.1963

> <r_epik_State_Penalty>
  0.1860

> <r_epik_Charging_Adjusted_Penalty>
0.185992306796835

> <i_epik_Tot_Q>
0

> <i_epik_Tot_abs_Q>
0

$$$$
