2i03_ligand
                    3D
 Schrodinger Suite 2020-3.
 55 57  0  0  1  0            999 V2000
   32.4490    4.6210   64.0770 N   0  3  0  0  0  0
   33.5320    4.8000   63.0720 C   0  0  0  0  0  0
   34.3470    3.4980   63.0160 C   0  0  0  0  0  0
   35.4710    3.6080   61.9700 C   0  0  0  0  0  0
   34.9240    4.0110   60.6130 N   0  0  0  0  0  0
   34.0500    5.2270   60.5730 C   0  0  0  0  0  0
   32.9600    5.0840   61.6340 C   0  0  0  0  0  0
   29.7170    8.1340   64.0000 C   0  0  2  0  0  0
   29.4490    6.8000   63.3880 N   0  0  0  0  0  0
   28.1710    6.7890   62.6680 C   0  0  1  0  0  0
   27.4070    7.8680   63.4440 C   0  0  0  0  0  0
   28.4640    8.9470   63.6380 C   0  0  0  0  0  0
   28.2720    7.1940   61.1650 C   0  0  0  0  0  0
   29.4500    7.4330   60.5690 N   0  0  0  0  0  0
   30.2280    5.6600   63.4780 C   0  0  0  0  0  0
   29.9490    4.6090   62.9280 O   0  0  0  0  0  0
   31.5070    5.7030   64.3530 C   0  0  0  0  0  0
   35.2170    3.2840   59.4470 C   0  0  0  0  0  0
   36.0460    2.1430   59.4930 C   0  0  0  0  0  0
   36.3320    1.4210   58.3230 C   0  0  0  0  0  0
   35.7800    1.8530   57.0770 C   0  0  0  0  0  0
   34.9570    3.0090   57.0790 C   0  0  0  0  0  0
   34.6870    3.7090   58.2340 N   0  0  0  0  0  0
   30.8610    8.8250   63.3480 C   0  0  0  0  0  0
   31.7610    9.3350   62.7360 C   0  0  0  0  0  0
   34.4650    5.9740   63.5350 C   0  0  0  0  0  0
   37.2100    0.2410   58.4290 C   0  0  0  0  0  0
   37.6770   -0.0690   59.5540 O   0  5  0  0  0  0
   37.4720   -0.4190   57.4090 O   0  0  0  0  0  0
   31.8028    3.7838   63.7745 H   0  0  0  0  0  0
   32.8930    4.4049   65.0600 H   0  0  0  0  0  0
   34.7949    3.3031   64.0016 H   0  0  0  0  0  0
   33.6855    2.6628   62.7422 H   0  0  0  0  0  0
   36.1994    4.3664   62.2929 H   0  0  0  0  0  0
   35.9747    2.6353   61.8693 H   0  0  0  0  0  0
   34.6564    6.1213   60.7793 H   0  0  0  0  0  0
   33.5917    5.3166   59.5771 H   0  0  0  0  0  0
   32.3053    4.2542   61.3294 H   0  0  0  0  0  0
   32.3830    6.0204   61.6472 H   0  0  0  0  0  0
   29.9642    8.0225   65.0661 H   0  0  0  0  0  0
   27.7525    5.7717   62.6728 H   0  0  0  0  0  0
   26.5505    8.2126   62.8459 H   0  0  0  0  0  0
   27.0455    7.4492   64.3948 H   0  0  0  0  0  0
   28.2225    9.6348   64.4618 H   0  0  0  0  0  0
   28.6540    9.5250   62.7216 H   0  0  0  0  0  0
   27.3376    7.2816   60.5913 H   0  0  0  0  0  0
   30.3844    7.3454   61.1427 H   0  0  0  0  0  0
   31.1850    5.6497   65.4035 H   0  0  0  0  0  0
   31.9958    6.6709   64.1680 H   0  0  0  0  0  0
   36.4678    1.8194   60.4445 H   0  0  0  0  0  0
   35.9850    1.3110   56.1538 H   0  0  0  0  0  0
   34.5259    3.3531   56.1389 H   0  0  0  0  0  0
   34.8547    5.7578   64.5407 H   0  0  0  0  0  0
   33.8904    6.9117   63.5581 H   0  0  0  0  0  0
   35.3039    6.0753   62.8307 H   0  0  0  0  0  0
  1  2  1  0  0  0
  1 17  1  0  0  0
  1 30  1  0  0  0
  1 31  1  0  0  0
  2  3  1  0  0  0
  2  7  1  0  0  0
  2 26  1  0  0  0
  3  4  1  0  0  0
  3 32  1  0  0  0
  3 33  1  0  0  0
  4  5  1  0  0  0
  4 34  1  0  0  0
  4 35  1  0  0  0
  5  6  1  0  0  0
  5 18  1  0  0  0
  6  7  1  0  0  0
  6 36  1  0  0  0
  6 37  1  0  0  0
  7 38  1  0  0  0
  7 39  1  0  0  0
  8  9  1  0  0  0
  8 12  1  0  0  0
  8 24  1  0  0  0
  8 40  1  0  0  0
  9 10  1  0  0  0
  9 15  1  0  0  0
 10 11  1  0  0  0
 10 13  1  0  0  0
 10 41  1  0  0  0
 11 12  1  0  0  0
 11 42  1  0  0  0
 11 43  1  0  0  0
 12 44  1  0  0  0
 12 45  1  0  0  0
 13 14  2  0  0  0
 13 46  1  0  0  0
 14 47  1  0  0  0
 15 16  2  0  0  0
 15 17  1  0  0  0
 17 48  1  0  0  0
 17 49  1  0  0  0
 18 19  2  0  0  0
 18 23  1  0  0  0
 19 20  1  0  0  0
 19 50  1  0  0  0
 20 21  2  0  0  0
 20 27  1  0  0  0
 21 22  1  0  0  0
 21 51  1  0  0  0
 22 23  2  0  0  0
 22 52  1  0  0  0
 24 25  3  0  0  0
 26 53  1  0  0  0
 26 54  1  0  0  0
 26 55  1  0  0  0
 27 28  1  0  0  0
 27 29  2  0  0  0
M  CHG  2   1   1  28  -1
M  END
> <s_m_source_file>
../2i03_ligand.sdf

> <i_m_source_file_index>
1

> <s_epik_input>
W0hdL049W0NIXVxbQ0BIXShbQ0gyXVtDSDJdMSlOKFtDQEhdMUMjW0NIXSlDKD1PKVtDSDJdW05IMitdQzIoW0NIM10pW0NIMl1bQ0gyXU4oW0NIMl1bQ0gyXTIpYzNbY0hdYyhbY0hdW2NIXW4zKUMoPU8pW09IXQ==

> <s_epik_cmdline>
J2VwaWtfYXBwJywgJy1pbWFlJywgJ2xpZ2FuZF9wcm8ubWFlJywgJy1vbWFlJywgJ2xpZ2FuZF9wcmVwLm1hZScsICctbXMnLCAnMScsICctcGgnLCAnNycsICctcGh0JywgJzAuNScsICctbnQn

> <r_lp_tautomer_probability>
1

> <r_epik_Ionization_Penalty>
  0.2500

> <r_epik_Ionization_Penalty_Charging>
  0.0598

> <r_epik_Ionization_Penalty_Neutral>
  0.1902

> <r_epik_State_Penalty>
 -0.0000

> <r_epik_Charging_Adjusted_Penalty>
0.0597567759013518

> <i_epik_Tot_Q>
0

> <i_epik_Tot_abs_Q>
2

> <s_epik_Chemistry_Notes>
This compound has an imine and may undergo hydrolysis.

$$$$
