2i0g_ligand
                    3D
 Schrodinger Suite 2020-3.
 39 42  0  0  1  0            999 V2000
   77.0370   39.8630   67.5790 C   0  0  1  0  0  0
   77.8800   40.8900   68.3520 C   0  0  0  0  0  0
   78.7870   41.7320   67.6420 C   0  0  0  0  0  0
   79.5730   42.6830   68.3470 C   0  0  0  0  0  0
   79.4570   42.7880   69.7490 C   0  0  0  0  0  0
   75.6740   38.5710   72.3300 C   0  0  0  0  0  0
   74.1550   36.3510   71.4500 C   0  0  0  0  0  0
   74.9640   37.0520   70.5380 C   0  0  0  0  0  0
   74.7270   40.6460   67.1340 C   0  0  0  0  0  0
   74.7290   39.8970   68.4920 C   0  0  0  0  0  0
   76.0490   39.0640   68.5110 C   0  0  2  0  0  0
   80.4400   43.4980   67.6880 O   0  0  0  0  0  0
   78.5650   41.9630   70.4420 C   0  0  0  0  0  0
   77.7740   41.0120   69.7530 C   0  0  0  0  0  0
   76.9200   40.2500   70.5140 O   0  0  0  0  0  0
   76.6420   38.9490   69.9620 C   0  0  1  0  0  0
   75.7340   38.1700   70.9620 C   0  0  0  0  0  0
   74.8620   37.8620   73.2410 C   0  0  0  0  0  0
   74.1020   36.7480   72.7960 C   0  0  0  0  0  0
   73.3320   36.0650   73.6600 O   0  0  0  0  0  0
   76.1430   40.5400   66.5290 C   0  0  0  0  0  0
   77.7861   39.2105   67.1067 H   0  0  0  0  0  0
   78.8770   41.6458   66.5591 H   0  0  0  0  0  0
   80.0630   43.5127   70.2927 H   0  0  0  0  0  0
   76.2564   39.4265   72.6721 H   0  0  0  0  0  0
   73.5677   35.4975   71.1114 H   0  0  0  0  0  0
   75.0013   36.7353   69.4957 H   0  0  0  0  0  0
   73.9906   40.1828   66.4609 H   0  0  0  0  0  0
   74.4617   41.7009   67.2975 H   0  0  0  0  0  0
   74.7046   40.6278   69.3138 H   0  0  0  0  0  0
   73.8440   39.2466   68.5534 H   0  0  0  0  0  0
   75.8716   38.0330   68.1712 H   0  0  0  0  0  0
   80.5397   43.4260   66.5949 H   0  0  0  0  0  0
   78.4778   42.0532   71.5248 H   0  0  0  0  0  0
   77.6150   38.4422   69.8816 H   0  0  0  0  0  0
   74.8183   38.1694   74.2858 H   0  0  0  0  0  0
   72.7450   35.2027   73.3107 H   0  0  0  0  0  0
   76.5407   41.5393   66.2983 H   0  0  0  0  0  0
   76.1275   39.9311   65.6130 H   0  0  0  0  0  0
  1  2  1  0  0  0
  1 11  1  0  0  0
  1 21  1  0  0  0
  1 22  1  0  0  0
  2  3  2  0  0  0
  2 14  1  0  0  0
  3  4  1  0  0  0
  3 23  1  0  0  0
  4  5  2  0  0  0
  4 12  1  0  0  0
  5 13  1  0  0  0
  5 24  1  0  0  0
  6 17  2  0  0  0
  6 18  1  0  0  0
  6 25  1  0  0  0
  7  8  2  0  0  0
  7 19  1  0  0  0
  7 26  1  0  0  0
  8 17  1  0  0  0
  8 27  1  0  0  0
  9 10  1  0  0  0
  9 21  1  0  0  0
  9 28  1  0  0  0
  9 29  1  0  0  0
 10 11  1  0  0  0
 10 30  1  0  0  0
 10 31  1  0  0  0
 11 16  1  0  0  0
 11 32  1  0  0  0
 12 33  1  0  0  0
 13 14  2  0  0  0
 13 34  1  0  0  0
 14 15  1  0  0  0
 15 16  1  0  0  0
 16 17  1  0  0  0
 16 35  1  0  0  0
 18 19  2  0  0  0
 18 36  1  0  0  0
 19 20  1  0  0  0
 20 37  1  0  0  0
 21 38  1  0  0  0
 21 39  1  0  0  0
M  END
> <s_m_source_file>
../2i0g_ligand.sdf

> <i_m_source_file_index>
1

> <s_epik_input>
W2NIXTFjKFtPSF0pW2NIXVtjSF1jKGMxW0NAQEhdMjMpT1tDQEhdKFtDQEhdMltDSDJdW0NIMl1bQ0gyXTMpYzRbY0hdW2NIXWMoW09IXSlbY0hdW2NIXTQ=

> <s_epik_cmdline>
J2VwaWtfYXBwJywgJy1pbWFlJywgJ2xpZ2FuZF9wcm8ubWFlJywgJy1vbWFlJywgJ2xpZ2FuZF9wcmVwLm1hZScsICctbXMnLCAnMScsICctcGgnLCAnNycsICctcGh0JywgJzAuNScsICctbnQn

> <r_lp_tautomer_probability>
1

> <r_epik_Ionization_Penalty>
  0.0010

> <r_epik_Ionization_Penalty_Charging>
  0.0000

> <r_epik_Ionization_Penalty_Neutral>
  0.0010

> <r_epik_State_Penalty>
 -0.0000

> <r_epik_Charging_Adjusted_Penalty>
0

> <i_epik_Tot_Q>
0

> <i_epik_Tot_abs_Q>
0

$$$$
