2i0j_ligand
                    3D
 Schrodinger Suite 2020-3.
 39 42  0  0  1  0            999 V2000
   33.7770   -5.1350   12.6810 C   0  0  1  0  0  0
   32.8290   -6.2530   12.2810 C   0  0  0  0  0  0
   32.0240   -6.8730   13.2730 C   0  0  0  0  0  0
   31.1230   -7.9440   12.9310 C   0  0  0  0  0  0
   31.0470   -8.3620   11.5760 C   0  0  0  0  0  0
   36.8180   -4.8700    9.3300 C   0  0  0  0  0  0
   35.9450   -4.7910    6.9730 C   0  0  0  0  0  0
   35.1710   -5.1810    8.0570 C   0  0  0  0  0  0
   32.9110   -2.9270   12.0410 C   0  0  0  0  0  0
   33.7130   -3.5030   10.8610 C   0  0  0  0  0  0
   34.6020   -4.5890   11.4670 C   0  0  2  0  0  0
   30.3190   -8.5760   13.9080 O   0  0  0  0  0  0
   31.8460   -7.7280   10.6190 C   0  0  0  0  0  0
   32.7370   -6.6670   10.9660 C   0  0  0  0  0  0
   33.4910   -6.0940    9.9580 O   0  0  0  0  0  0
   34.7880   -5.6820   10.4280 C   0  0  1  0  0  0
   35.6130   -5.2260    9.2300 C   0  0  0  0  0  0
   37.5960   -4.4780    8.2570 C   0  0  0  0  0  0
   37.1650   -4.4310    7.0760 C   0  0  0  0  0  0
   37.9480   -4.0350    6.0050 O   0  0  0  0  0  0
   32.9600   -3.9630   13.1940 C   0  0  0  0  0  0
   34.4368   -5.5562   13.4538 H   0  0  0  0  0  0
   32.0886   -6.5341   14.3070 H   0  0  0  0  0  0
   30.3734   -9.1680   11.2850 H   0  0  0  0  0  0
   37.2730   -4.8714   10.3205 H   0  0  0  0  0  0
   35.4877   -4.7923    5.9836 H   0  0  0  0  0  0
   34.1323   -5.4608    7.8811 H   0  0  0  0  0  0
   33.3619   -1.9762   12.3614 H   0  0  0  0  0  0
   31.8713   -2.7524   11.7272 H   0  0  0  0  0  0
   33.0200   -3.9195   10.1152 H   0  0  0  0  0  0
   34.3114   -2.7037   10.3994 H   0  0  0  0  0  0
   35.6018   -4.2272   11.7490 H   0  0  0  0  0  0
   30.3754   -8.2547   14.9585 H   0  0  0  0  0  0
   31.7871   -8.0524    9.5801 H   0  0  0  0  0  0
   35.2849   -6.5407   10.9030 H   0  0  0  0  0  0
   38.6324   -4.1961    8.4429 H   0  0  0  0  0  0
   37.5219   -4.0115    4.9911 H   0  0  0  0  0  0
   31.9493   -4.3080   13.4574 H   0  0  0  0  0  0
   33.4464   -3.5389   14.0848 H   0  0  0  0  0  0
  1  2  1  0  0  0
  1 11  1  0  0  0
  1 21  1  0  0  0
  1 22  1  0  0  0
  2  3  2  0  0  0
  2 14  1  0  0  0
  3  4  1  0  0  0
  3 23  1  0  0  0
  4  5  2  0  0  0
  4 12  1  0  0  0
  5 13  1  0  0  0
  5 24  1  0  0  0
  6 17  2  0  0  0
  6 18  1  0  0  0
  6 25  1  0  0  0
  7  8  2  0  0  0
  7 19  1  0  0  0
  7 26  1  0  0  0
  8 17  1  0  0  0
  8 27  1  0  0  0
  9 10  1  0  0  0
  9 21  1  0  0  0
  9 28  1  0  0  0
  9 29  1  0  0  0
 10 11  1  0  0  0
 10 30  1  0  0  0
 10 31  1  0  0  0
 11 16  1  0  0  0
 11 32  1  0  0  0
 12 33  1  0  0  0
 13 14  2  0  0  0
 13 34  1  0  0  0
 14 15  1  0  0  0
 15 16  1  0  0  0
 16 17  1  0  0  0
 16 35  1  0  0  0
 18 19  2  0  0  0
 18 36  1  0  0  0
 19 20  1  0  0  0
 20 37  1  0  0  0
 21 38  1  0  0  0
 21 39  1  0  0  0
M  END
> <s_m_source_file>
../2i0j_ligand.sdf

> <i_m_source_file_index>
1

> <s_epik_input>
W2NIXTFjKFtPSF0pW2NIXVtjSF1jKGMxW0NAQEhdMjMpT1tDQEhdKFtDQEhdMltDSDJdW0NIMl1bQ0gyXTMpYzRbY0hdW2NIXWMoW09IXSlbY0hdW2NIXTQ=

> <s_epik_cmdline>
J2VwaWtfYXBwJywgJy1pbWFlJywgJ2xpZ2FuZF9wcm8ubWFlJywgJy1vbWFlJywgJ2xpZ2FuZF9wcmVwLm1hZScsICctbXMnLCAnMScsICctcGgnLCAnNycsICctcGh0JywgJzAuNScsICctbnQn

> <r_lp_tautomer_probability>
1

> <r_epik_Ionization_Penalty>
  0.0010

> <r_epik_Ionization_Penalty_Charging>
  0.0000

> <r_epik_Ionization_Penalty_Neutral>
  0.0010

> <r_epik_State_Penalty>
 -0.0000

> <r_epik_Charging_Adjusted_Penalty>
0

> <i_epik_Tot_Q>
0

> <i_epik_Tot_abs_Q>
0

$$$$
