2i0y_ligand
                    3D
 Schrodinger Suite 2020-3.
 46 48  0  0  1  0            999 V2000
    4.8210   29.4920    6.6940 C   0  0  0  0  0  0
    4.0660   30.6670    7.0190 C   0  0  0  0  0  0
    4.0100   31.1710    8.3450 C   0  0  0  0  0  0
    6.3080   28.5200    3.3060 C   0  0  0  0  0  0
    6.2000   29.3000    4.6260 C   0  0  0  0  0  0
    3.6200   28.7700    4.6020 C   0  0  0  0  0  0
    3.8570   28.0410    3.2600 C   0  0  0  0  0  0
    5.0380   28.6280    2.4680 C   0  0  0  0  0  0
    5.2240   27.8740    1.1540 C   0  0  0  0  0  0
    4.6580   31.0470   10.8010 C   0  0  0  0  0  0
    7.0690   26.7940    8.1310 C   0  0  0  0  0  0
    7.4480   25.6140    7.3570 C   0  0  0  0  0  0
    8.2850   24.5520    7.6490 C   0  0  0  0  0  0
    7.0100   23.9000    4.3000 C   0  0  0  0  0  0
    4.7120   30.5160    9.3960 C   0  0  0  0  0  0
    5.4680   29.3420    9.0980 C   0  0  0  0  0  0
    5.5300   28.8160    7.7630 C   0  0  0  0  0  0
    4.8900   29.1020    5.3310 N   0  0  0  0  0  0
    3.3930   30.6960   11.3640 O   0  0  0  0  0  0
    6.1970   27.6130    7.4300 N   0  0  0  0  0  0
    7.4780   26.9850    9.2800 O   0  0  0  0  0  0
    8.2660   23.6880    6.5170 C   0  0  0  0  0  0
    7.4180   24.2790    5.6030 C   0  0  0  0  0  0
    6.9180   25.4400    6.0940 O   0  0  0  0  0  0
    6.6830   23.6010    3.2280 N   0  0  0  0  0  0
    3.5222   31.1854    6.2293 H   0  0  0  0  0  0
    3.4255   32.0656    8.5598 H   0  0  0  0  0  0
    7.1442   28.9180    2.7123 H   0  0  0  0  0  0
    6.4855   27.4562    3.5222 H   0  0  0  0  0  0
    6.9961   28.9732    5.3112 H   0  0  0  0  0  0
    6.3075   30.3763    4.4258 H   0  0  0  0  0  0
    3.0880   29.7149    4.4170 H   0  0  0  0  0  0
    3.0156   28.1324    5.2639 H   0  0  0  0  0  0
    4.0738   26.9799    3.4525 H   0  0  0  0  0  0
    2.9564   28.1235    2.6338 H   0  0  0  0  0  0
    4.8374   29.6847    2.2375 H   0  0  0  0  0  0
    6.0711   28.3054    0.6005 H   0  0  0  0  0  0
    4.3091   27.9597    0.5494 H   0  0  0  0  0  0
    5.4259   26.8135    1.3652 H   0  0  0  0  0  0
    5.4712   30.6016   11.3928 H   0  0  0  0  0  0
    4.7733   32.1408   10.7843 H   0  0  0  0  0  0
    8.8506   24.4047    8.5691 H   0  0  0  0  0  0
    6.0079   28.8358    9.8982 H   0  0  0  0  0  0
    3.1484   30.9925   12.3946 H   0  0  0  0  0  0
    5.9082   27.3553    6.4004 H   0  0  0  0  0  0
    8.8102   22.7512    6.3971 H   0  0  0  0  0  0
  1  2  2  0  0  0
  1 17  1  0  0  0
  1 18  1  0  0  0
  2  3  1  0  0  0
  2 26  1  0  0  0
  3 15  2  0  0  0
  3 27  1  0  0  0
  4  5  1  0  0  0
  4  8  1  0  0  0
  4 28  1  0  0  0
  4 29  1  0  0  0
  5 18  1  0  0  0
  5 30  1  0  0  0
  5 31  1  0  0  0
  6  7  1  0  0  0
  6 18  1  0  0  0
  6 32  1  0  0  0
  6 33  1  0  0  0
  7  8  1  0  0  0
  7 34  1  0  0  0
  7 35  1  0  0  0
  8  9  1  0  0  0
  8 36  1  0  0  0
  9 37  1  0  0  0
  9 38  1  0  0  0
  9 39  1  0  0  0
 10 15  1  0  0  0
 10 19  1  0  0  0
 10 40  1  0  0  0
 10 41  1  0  0  0
 11 12  1  0  0  0
 11 20  1  0  0  0
 11 21  2  0  0  0
 12 13  2  0  0  0
 12 24  1  0  0  0
 13 22  1  0  0  0
 13 42  1  0  0  0
 14 23  1  0  0  0
 14 25  3  0  0  0
 15 16  1  0  0  0
 16 17  2  0  0  0
 16 43  1  0  0  0
 17 20  1  0  0  0
 19 44  1  0  0  0
 20 45  1  0  0  0
 22 23  2  0  0  0
 22 46  1  0  0  0
 23 24  1  0  0  0
M  END
> <s_m_source_file>
../2i0y_ligand.sdf

> <i_m_source_file_index>
1

> <s_epik_input>
W0NIM11bQ0hdMVtDSDJdW0NIMl1OKFtDSDJdW0NIMl0xKWMyW2NIXVtjSF1jKFtDSDJdW09IXSlbY0hdYzJbTkhdQyg9TyljM1tjSF1bY0hdYyhvMylDI04=

> <s_epik_cmdline>
J2VwaWtfYXBwJywgJy1pbWFlJywgJ2xpZ2FuZF9wcm8ubWFlJywgJy1vbWFlJywgJ2xpZ2FuZF9wcmVwLm1hZScsICctbXMnLCAnMScsICctcGgnLCAnNycsICctcGh0JywgJzAuNScsICctbnQn

> <r_epik_Ionization_Penalty>
  0.0524

> <r_epik_Ionization_Penalty_Charging>
  0.0000

> <r_epik_Ionization_Penalty_Neutral>
  0.0524

> <r_epik_State_Penalty>
  0.0449

> <r_epik_Charging_Adjusted_Penalty>
0.0449087358819994

> <i_epik_Tot_Q>
0

> <i_epik_Tot_abs_Q>
0

$$$$
