2i19_ligand
                    3D
 Schrodinger Suite 2020-3.
 27 27  0  0  1  0            999 V2000
   14.8860   41.0290   45.4800 C   0  0  0  0  0  0
   15.2430   42.1030   46.4130 C   0  0  0  0  0  0
   14.1020   41.3210   44.4440 C   0  0  0  0  0  0
   13.6100   42.6960   44.2740 C   0  0  0  0  0  0
   13.8980   43.6020   45.1240 N   0  3  0  0  0  0
   14.7620   43.3470   46.2640 C   0  0  0  0  0  0
   15.1100   44.2570   47.1470 N   0  0  0  0  0  0
   15.9890   43.9320   48.2730 C   0  0  0  0  0  0
   16.8540   45.1500   48.6600 C   0  0  1  0  0  0
   17.4050   45.0530   50.3980 P   0  0  0  0  0  0
   16.2630   44.5600   51.2210 O   0  5  0  0  0  0
   18.5520   44.1090   50.5110 O   0  5  0  0  0  0
   17.8140   46.4040   50.8660 O   0  0  0  0  0  0
   18.2930   45.4380   47.5670 P   0  0  0  0  0  0
   19.1630   44.2360   47.4770 O   0  0  0  0  0  0
   17.8000   45.7980   46.1990 O   0  5  0  0  0  0
   19.0930   46.5720   48.1380 O   0  0  0  0  0  0
   15.2543   40.0143   45.6313 H   0  0  0  0  0  0
   15.9131   41.8862   47.2449 H   0  0  0  0  0  0
   13.8272   40.5467   43.7277 H   0  0  0  0  0  0
   12.9918   42.9439   43.4112 H   0  0  0  0  0  0
   14.7262   45.2808   47.0266 H   0  0  0  0  0  0
   15.3800   43.6388   49.1408 H   0  0  0  0  0  0
   16.6520   43.1003   47.9925 H   0  0  0  0  0  0
   16.0530   45.8812   48.4763 H   0  0  0  0  0  0
   19.5353   46.4827   49.1412 H   0  0  0  0  0  0
   13.4883   44.6161   45.0070 H   0  0  0  0  0  0
  1  2  2  0  0  0
  1  3  1  0  0  0
  1 18  1  0  0  0
  2  6  1  0  0  0
  2 19  1  0  0  0
  3  4  2  0  0  0
  3 20  1  0  0  0
  4  5  1  0  0  0
  4 21  1  0  0  0
  5  6  2  0  0  0
  5 27  1  0  0  0
  6  7  1  0  0  0
  7  8  1  0  0  0
  7 22  1  0  0  0
  8  9  1  0  0  0
  8 23  1  0  0  0
  8 24  1  0  0  0
  9 10  1  0  0  0
  9 14  1  0  0  0
  9 25  1  0  0  0
 10 11  1  0  0  0
 10 12  1  0  0  0
 10 13  2  0  0  0
 14 15  2  0  0  0
 14 16  1  0  0  0
 14 17  1  0  0  0
 17 26  1  0  0  0
M  CHG  4   5   1  11  -1  12  -1  16  -1
M  END
> <s_m_source_file>
../2i19_ligand.sdf

> <i_m_source_file_index>
1

> <s_epik_input>
bjFbY0hdW2NIXVtjSF1bY0hdYzFbTkhdW0NIMl1bQ0hdKFAoPU8pKFtPSF0pW09IXSlQKD1PKShbT0hdKVtPSF0=

> <s_epik_cmdline>
J2VwaWtfYXBwJywgJy1pbWFlJywgJ2xpZ2FuZF9wcm8ubWFlJywgJy1vbWFlJywgJ2xpZ2FuZF9wcmVwLm1hZScsICctbXMnLCAnMScsICctcGgnLCAnNycsICctcGh0JywgJzAuNScsICctbnQn

> <r_lp_tautomer_probability>
0.999993852037798

> <r_epik_Ionization_Penalty>
  0.7095

> <r_epik_Ionization_Penalty_Charging>
  0.7095

> <r_epik_Ionization_Penalty_Neutral>
  0.0000

> <r_epik_State_Penalty>
  0.5718

> <r_epik_Charging_Adjusted_Penalty>
1.28125898364331

> <i_epik_Tot_Q>
-2

> <i_epik_Tot_abs_Q>
4

$$$$
