2i1m_ligand
                    3D
 Schrodinger Suite 2020-3.
 46 48  0  0  1  0            999 V2000
   45.8260   40.2990   -8.5340 C   0  0  0  0  0  0
   45.1700   39.0860   -8.9520 C   0  0  0  0  0  0
   45.2710   38.6140  -10.2860 C   0  0  0  0  0  0
   46.9450   41.0230   -4.9490 C   0  0  0  0  0  0
   46.9540   40.3270   -6.3230 C   0  0  0  0  0  0
   44.4490   41.0530   -6.5970 C   0  0  0  0  0  0
   44.5530   41.6870   -5.1960 C   0  0  0  0  0  0
   45.5650   40.9710   -4.2940 C   0  0  0  0  0  0
   45.6150   41.6490   -2.9250 C   0  0  0  0  0  0
   46.1680   38.8240  -12.6600 C   0  0  0  0  0  0
   48.0360   43.1760   -9.6270 C   0  0  0  0  0  0
   48.3300   44.3040   -8.7350 C   0  0  0  0  0  0
   49.1940   45.3780   -8.8740 C   0  0  0  0  0  0
   47.6100   45.8870   -5.6420 C   0  0  0  0  0  0
   46.0300   39.3390  -11.2500 C   0  0  0  0  0  0
   46.6830   40.5540  -10.8530 C   0  0  0  0  0  0
   46.5860   41.0460   -9.5050 C   0  0  0  0  0  0
   45.7650   40.6540   -7.1720 N   0  0  0  0  0  0
   45.1340   39.3890  -13.4610 O   0  0  0  0  0  0
   47.1640   42.2710   -9.0500 N   0  0  0  0  0  0
   48.5300   43.0820  -10.7590 O   0  0  0  0  0  0
   49.0710   46.1710   -7.7010 C   0  0  0  0  0  0
   48.1370   45.5480   -6.9180 C   0  0  0  0  0  0
   47.6730   44.4120   -7.5270 O   0  0  0  0  0  0
   47.1900   46.1750   -4.5950 N   0  0  0  0  0  0
   44.5841   38.5194   -8.2283 H   0  0  0  0  0  0
   44.7657   37.6925  -10.5750 H   0  0  0  0  0  0
   47.6628   40.5247   -4.2809 H   0  0  0  0  0  0
   47.2293   42.0786   -5.0708 H   0  0  0  0  0  0
   47.8499   40.6329   -6.8831 H   0  0  0  0  0  0
   46.9648   39.2362   -6.1814 H   0  0  0  0  0  0
   43.8261   40.1479   -6.5445 H   0  0  0  0  0  0
   43.9921   41.7727   -7.2922 H   0  0  0  0  0  0
   44.8705   42.7359   -5.2909 H   0  0  0  0  0  0
   43.5719   41.6443   -4.7004 H   0  0  0  0  0  0
   45.2619   39.9224   -4.1577 H   0  0  0  0  0  0
   46.3430   41.1292   -2.2848 H   0  0  0  0  0  0
   44.6199   41.6063   -2.4581 H   0  0  0  0  0  0
   45.9181   42.6994   -3.0469 H   0  0  0  0  0  0
   47.1501   39.1140  -13.0618 H   0  0  0  0  0  0
   46.0812   37.7274  -12.6600 H   0  0  0  0  0  0
   49.8463   45.5776   -9.7242 H   0  0  0  0  0  0
   47.2630   41.1140  -11.5865 H   0  0  0  0  0  0
   45.0637   39.1338  -14.5287 H   0  0  0  0  0  0
   46.7828   42.4462   -8.0331 H   0  0  0  0  0  0
   49.6112   47.0895   -7.4714 H   0  0  0  0  0  0
  1  2  2  0  0  0
  1 17  1  0  0  0
  1 18  1  0  0  0
  2  3  1  0  0  0
  2 26  1  0  0  0
  3 15  2  0  0  0
  3 27  1  0  0  0
  4  5  1  0  0  0
  4  8  1  0  0  0
  4 28  1  0  0  0
  4 29  1  0  0  0
  5 18  1  0  0  0
  5 30  1  0  0  0
  5 31  1  0  0  0
  6  7  1  0  0  0
  6 18  1  0  0  0
  6 32  1  0  0  0
  6 33  1  0  0  0
  7  8  1  0  0  0
  7 34  1  0  0  0
  7 35  1  0  0  0
  8  9  1  0  0  0
  8 36  1  0  0  0
  9 37  1  0  0  0
  9 38  1  0  0  0
  9 39  1  0  0  0
 10 15  1  0  0  0
 10 19  1  0  0  0
 10 40  1  0  0  0
 10 41  1  0  0  0
 11 12  1  0  0  0
 11 20  1  0  0  0
 11 21  2  0  0  0
 12 13  2  0  0  0
 12 24  1  0  0  0
 13 22  1  0  0  0
 13 42  1  0  0  0
 14 23  1  0  0  0
 14 25  3  0  0  0
 15 16  1  0  0  0
 16 17  2  0  0  0
 16 43  1  0  0  0
 17 20  1  0  0  0
 19 44  1  0  0  0
 20 45  1  0  0  0
 22 23  2  0  0  0
 22 46  1  0  0  0
 23 24  1  0  0  0
M  END
> <s_m_source_file>
../2i1m_ligand.sdf

> <i_m_source_file_index>
1

> <s_epik_input>
W0NIM11bQ0hdMVtDSDJdW0NIMl1OKFtDSDJdW0NIMl0xKWMyW2NIXVtjSF1jKFtDSDJdW09IXSlbY0hdYzJbTkhdQyg9TyljM1tjSF1bY0hdYyhvMylDI04=

> <s_epik_cmdline>
J2VwaWtfYXBwJywgJy1pbWFlJywgJ2xpZ2FuZF9wcm8ubWFlJywgJy1vbWFlJywgJ2xpZ2FuZF9wcmVwLm1hZScsICctbXMnLCAnMScsICctcGgnLCAnNycsICctcGh0JywgJzAuNScsICctbnQn

> <r_epik_Ionization_Penalty>
  0.0524

> <r_epik_Ionization_Penalty_Charging>
  0.0000

> <r_epik_Ionization_Penalty_Neutral>
  0.0524

> <r_epik_State_Penalty>
  0.0449

> <r_epik_Charging_Adjusted_Penalty>
0.0449087358820005

> <i_epik_Tot_Q>
0

> <i_epik_Tot_abs_Q>
0

$$$$
