2i3h_ligand
                    3D
 Schrodinger Suite 2020-3.
 67 69  0  0  1  0            999 V2000
   86.3520   60.5130   15.1240 N   0  3  0  0  0  0
   84.9340   60.6570   15.5620 C   0  0  2  0  0  0
   84.0950   61.2160   14.4240 C   0  0  0  0  0  0
   84.6320   61.6650   13.4160 O   0  0  0  0  0  0
   84.8430   61.5650   16.7920 C   0  0  0  0  0  0
   82.7760   61.1720   14.5860 N   0  0  0  0  0  0
   81.8450   61.6900   13.5840 C   0  0  2  0  0  0
   80.6830   62.4300   14.2470 C   0  0  0  0  0  0
   80.3250   62.1210   15.3800 O   0  0  0  0  0  0
   81.2600   60.5600   12.6980 C   0  0  0  0  0  0
   82.3490   59.9240   11.8400 C   0  0  0  0  0  0
   80.5400   59.5050   13.5440 C   0  0  0  0  0  0
   80.0790   63.3950   13.5540 N   0  0  0  0  0  0
   78.9390   64.1300   14.1230 C   0  0  2  0  0  0
   77.6760   63.2760   14.3100 C   0  0  0  0  0  0
   77.5380   62.2410   13.6600 O   0  0  0  0  0  0
   78.6820   65.2460   13.0940 C   0  0  0  0  0  0
   79.8810   65.2710   12.2150 C   0  0  0  0  0  0
   80.4220   63.8770   12.2040 C   0  0  0  0  0  0
   76.7750   63.7120   15.1910 N   0  0  0  0  0  0
   75.4590   63.0670   15.3420 C   0  0  2  0  0  0
   74.3170   64.0580   15.5870 C   0  0  0  0  0  0
   73.1950   63.9230   15.0910 O   0  5  0  0  0  0
   75.4960   62.0450   16.4760 C   0  0  0  0  0  0
   75.8580   62.6310   17.7910 C   0  0  0  0  0  0
   77.1080   62.9410   18.2330 C   0  0  0  0  0  0
   74.9610   62.9820   18.8460 C   0  0  0  0  0  0
   77.0480   63.4640   19.5030 N   0  3  0  0  0  0
   75.7390   63.5030   19.9020 C   0  0  0  0  0  0
   73.5730   62.9070   19.0100 C   0  0  0  0  0  0
   75.1800   63.9450   21.0960 C   0  0  0  0  0  0
   73.0180   63.3470   20.2000 C   0  0  0  0  0  0
   73.8230   63.8550   21.2270 C   0  0  0  0  0  0
   74.4410   65.0450   16.3060 O   0  0  0  0  0  0
   86.3983   59.8587   14.2410 H   0  0  0  0  0  0
   86.9444   60.0716   15.9390 H   0  0  0  0  0  0
   86.7592   61.5025   14.8690 H   0  0  0  0  0  0
   84.5643   59.6547   15.8241 H   0  0  0  0  0  0
   85.4553   61.1452   17.6037 H   0  0  0  0  0  0
   83.7955   61.6333   17.1206 H   0  0  0  0  0  0
   85.2129   62.5686   16.5350 H   0  0  0  0  0  0
   82.3918   60.7255   15.5150 H   0  0  0  0  0  0
   82.4648   62.3797   12.9923 H   0  0  0  0  0  0
   80.5159   60.9976   12.0163 H   0  0  0  0  0  0
   82.8482   60.7026   11.2446 H   0  0  0  0  0  0
   81.8977   59.1804   11.1667 H   0  0  0  0  0  0
   83.0864   59.4304   12.4900 H   0  0  0  0  0  0
   79.7618   59.9906   14.1512 H   0  0  0  0  0  0
   81.2649   59.0085   14.2058 H   0  0  0  0  0  0
   80.0763   58.7585   12.8824 H   0  0  0  0  0  0
   79.2112   64.4688   15.1335 H   0  0  0  0  0  0
   77.7721   65.0140   12.5211 H   0  0  0  0  0  0
   78.5512   66.2045   13.6176 H   0  0  0  0  0  0
   79.5876   65.5888   11.2036 H   0  0  0  0  0  0
   80.6192   65.9779   12.6217 H   0  0  0  0  0  0
   81.5131   63.8423   12.0685 H   0  0  0  0  0  0
   79.9386   63.2361   11.4520 H   0  0  0  0  0  0
   77.0374   64.5790   15.8151 H   0  0  0  0  0  0
   75.2919   62.5808   14.3695 H   0  0  0  0  0  0
   74.5043   61.5815   16.5843 H   0  0  0  0  0  0
   76.2405   61.2686   16.2458 H   0  0  0  0  0  0
   77.9802   62.7600   17.5876 H   0  0  0  0  0  0
   72.9408   62.5097   18.2159 H   0  0  0  0  0  0
   75.8005   64.3477   21.8966 H   0  0  0  0  0  0
   71.9381   63.2971   20.3394 H   0  0  0  0  0  0
   73.3554   64.1869   22.1540 H   0  0  0  0  0  0
   77.9719   63.7677   20.0169 H   0  0  0  0  0  0
  1  2  1  0  0  0
  1 35  1  0  0  0
  1 36  1  0  0  0
  1 37  1  0  0  0
  2  3  1  0  0  0
  2  5  1  0  0  0
  2 38  1  0  0  0
  3  4  2  0  0  0
  3  6  1  0  0  0
  5 39  1  0  0  0
  5 40  1  0  0  0
  5 41  1  0  0  0
  6  7  1  0  0  0
  6 42  1  0  0  0
  7  8  1  0  0  0
  7 10  1  0  0  0
  7 43  1  0  0  0
  8  9  2  0  0  0
  8 13  1  0  0  0
 10 11  1  0  0  0
 10 12  1  0  0  0
 10 44  1  0  0  0
 11 45  1  0  0  0
 11 46  1  0  0  0
 11 47  1  0  0  0
 12 48  1  0  0  0
 12 49  1  0  0  0
 12 50  1  0  0  0
 13 14  1  0  0  0
 13 19  1  0  0  0
 14 15  1  0  0  0
 14 17  1  0  0  0
 14 51  1  0  0  0
 15 16  2  0  0  0
 15 20  1  0  0  0
 17 18  1  0  0  0
 17 52  1  0  0  0
 17 53  1  0  0  0
 18 19  1  0  0  0
 18 54  1  0  0  0
 18 55  1  0  0  0
 19 56  1  0  0  0
 19 57  1  0  0  0
 20 21  1  0  0  0
 20 58  1  0  0  0
 21 22  1  0  0  0
 21 24  1  0  0  0
 21 59  1  0  0  0
 22 23  1  0  0  0
 22 34  2  0  0  0
 24 25  1  0  0  0
 24 60  1  0  0  0
 24 61  1  0  0  0
 25 26  2  0  0  0
 25 27  1  0  0  0
 26 28  1  0  0  0
 26 62  1  0  0  0
 27 29  2  0  0  0
 27 30  1  0  0  0
 28 29  1  0  0  0
 28 67  1  0  0  0
 29 31  1  0  0  0
 30 32  2  0  0  0
 30 63  1  0  0  0
 31 33  2  0  0  0
 31 64  1  0  0  0
 32 33  1  0  0  0
 32 65  1  0  0  0
 33 66  1  0  0  0
M  CHG  3   1   1  23  -1  28   1
M  END
> <s_m_source_file>
../2i3h_ligand.sdf

> <i_m_source_file_index>
1

> <s_epik_input>
W05IMytdW0NAQEhdKFtDSDNdKUMoPU8pW05IXVtDQEBIXShbQ0hdKFtDSDNdKVtDSDNdKUMoPU8pTjFbQ0BASF0oW0NIMl1bQ0gyXVtDSDJdMSlDKD1PKVtOSF1bQ0BIXShDKD1PKVtPSF0pW0NIMl1jMltjSF1bbkhdYyhjMjMpW2NIXVtjSF1bY0hdW2NIXTM=

> <s_epik_cmdline>
J2VwaWtfYXBwJywgJy1pbWFlJywgJ2xpZ2FuZF9wcm8ubWFlJywgJy1vbWFlJywgJ2xpZ2FuZF9wcmVwLm1hZScsICctbXMnLCAnMScsICctcGgnLCAnNycsICctcGh0JywgJzAuNScsICctbnQn

> <r_epik_Ionization_Penalty>
  0.1186

> <r_epik_Ionization_Penalty_Charging>
  0.1186

> <r_epik_Ionization_Penalty_Neutral>
  0.0000

> <r_epik_State_Penalty>
  0.1080

> <r_epik_Charging_Adjusted_Penalty>
0.22659522073141

> <i_epik_Tot_Q>
1

> <i_epik_Tot_abs_Q>
3

$$$$
