2i3z_ligand
                    3D
 Schrodinger Suite 2020-3.
 48 51  0  0  1  0            999 V2000
   18.9310   39.7530  -78.2190 C   0  0  0  0  0  0
   15.3950   38.7980  -78.6020 C   0  0  0  0  0  0
   14.0610   38.3140  -78.4140 N   0  0  0  0  0  0
   13.9640   36.9110  -78.8170 C   0  0  0  0  0  0
   12.0480   36.5670  -77.2410 C   0  0  0  0  0  0
   13.5320   38.5860  -77.0460 C   0  0  0  0  0  0
   15.4000   39.2300  -82.2610 C   0  0  0  0  0  0
   15.2980   40.2200  -83.2540 C   0  0  0  0  0  0
   15.7600   39.9780  -84.5590 C   0  0  0  0  0  0
   16.4870   37.7420  -83.9140 C   0  0  0  0  0  0
   16.1880   36.9090  -81.6670 C   0  0  0  0  0  0
   18.2790   40.4220  -80.2700 C   0  0  0  0  0  0
   17.1550   39.7620  -79.6010 C   0  0  0  0  0  0
   17.5290   39.3780  -78.4130 C   0  0  0  0  0  0
   19.3060   40.3510  -79.3790 N   0  0  0  0  0  0
   15.7570   39.3800  -79.7600 N   0  0  0  0  0  0
   16.4080   38.7340  -77.7100 N   0  0  0  0  0  0
   18.2930   40.8990  -81.3970 O   0  0  0  0  0  0
   19.6100   39.5400  -77.2350 O   0  0  0  0  0  0
   20.6410   40.8950  -79.6240 C   0  0  0  0  0  0
   12.5580   36.3700  -78.6800 C   0  0  2  0  0  0
   12.0760   38.0710  -76.9130 C   0  0  0  0  0  0
   12.6090   34.9780  -79.1230 N   0  3  0  0  0  0
   14.8600   39.5620  -80.8990 C   0  0  0  0  0  0
   16.3660   38.7460  -84.8810 C   0  0  0  0  0  0
   16.0270   37.9790  -82.6080 C   0  0  0  0  0  0
   16.4010   36.1210  -80.8380 N   0  0  0  0  0  0
   14.2666   36.8102  -79.8697 H   0  0  0  0  0  0
   14.6265   36.3013  -78.1851 H   0  0  0  0  0  0
   11.0196   36.1848  -77.1609 H   0  0  0  0  0  0
   12.6982   36.0189  -76.5433 H   0  0  0  0  0  0
   14.1605   38.0752  -76.3016 H   0  0  0  0  0  0
   13.5459   39.6694  -76.8562 H   0  0  0  0  0  0
   14.8558   41.1857  -83.0091 H   0  0  0  0  0  0
   15.6495   40.7454  -85.3251 H   0  0  0  0  0  0
   16.9351   36.7825  -84.1723 H   0  0  0  0  0  0
   21.2803   40.7056  -78.7491 H   0  0  0  0  0  0
   20.5691   41.9788  -79.7978 H   0  0  0  0  0  0
   21.0778   40.4098  -80.5093 H   0  0  0  0  0  0
   11.8326   36.8709  -79.3380 H   0  0  0  0  0  0
   11.4244   38.6116  -77.6153 H   0  0  0  0  0  0
   11.7179   38.2288  -75.8850 H   0  0  0  0  0  0
   12.9832   34.9356  -80.1565 H   0  0  0  0  0  0
   11.5998   34.5424  -79.0802 H   0  0  0  0  0  0
   13.2824   34.4085  -78.4656 H   0  0  0  0  0  0
   14.5621   40.6205  -80.8707 H   0  0  0  0  0  0
   13.9856   38.9292  -80.6870 H   0  0  0  0  0  0
   16.7425   38.5748  -85.8895 H   0  0  0  0  0  0
  1 14  1  0  0  0
  1 15  1  0  0  0
  1 19  2  0  0  0
  2  3  1  0  0  0
  2 16  1  0  0  0
  2 17  2  0  0  0
  3  4  1  0  0  0
  3  6  1  0  0  0
  4 21  1  0  0  0
  4 28  1  0  0  0
  4 29  1  0  0  0
  5 21  1  0  0  0
  5 22  1  0  0  0
  5 30  1  0  0  0
  5 31  1  0  0  0
  6 22  1  0  0  0
  6 32  1  0  0  0
  6 33  1  0  0  0
  7  8  2  0  0  0
  7 24  1  0  0  0
  7 26  1  0  0  0
  8  9  1  0  0  0
  8 34  1  0  0  0
  9 25  2  0  0  0
  9 35  1  0  0  0
 10 25  1  0  0  0
 10 26  2  0  0  0
 10 36  1  0  0  0
 11 26  1  0  0  0
 11 27  3  0  0  0
 12 13  1  0  0  0
 12 15  1  0  0  0
 12 18  2  0  0  0
 13 14  2  0  0  0
 13 16  1  0  0  0
 14 17  1  0  0  0
 15 20  1  0  0  0
 16 24  1  0  0  0
 20 37  1  0  0  0
 20 38  1  0  0  0
 20 39  1  0  0  0
 21 23  1  0  0  0
 21 40  1  0  0  0
 22 41  1  0  0  0
 22 42  1  0  0  0
 23 43  1  0  0  0
 23 44  1  0  0  0
 23 45  1  0  0  0
 24 46  1  0  0  0
 24 47  1  0  0  0
 25 48  1  0  0  0
M  CHG  1  23   1
M  END
> <s_m_source_file>
../2i3z_ligand.sdf

> <i_m_source_file_index>
1

> <s_epik_input>
W0NIMl0xW0NIMl1bQ0gyXVtDQEhdKFtOSDMrXSlbQ0gyXU4xYyhuYyhjMjMpQyg9TylOKEMyPU8pW0NIM10pbjNbQ0gyXWM0W2NIXVtjSF1bY0hdW2NIXWM0QyNO

> <s_epik_cmdline>
J2VwaWtfYXBwJywgJy1pbWFlJywgJ2xpZ2FuZF9wcm8ubWFlJywgJy1vbWFlJywgJ2xpZ2FuZF9wcmVwLm1hZScsICctbXMnLCAnMScsICctcGgnLCAnNycsICctcGh0JywgJzAuNScsICctbnQn

> <r_lp_tautomer_probability>
1

> <r_epik_Ionization_Penalty>
  0.0024

> <r_epik_Ionization_Penalty_Charging>
  0.0024

> <r_epik_Ionization_Penalty_Neutral>
  0.0000

> <r_epik_State_Penalty>
 -0.0000

> <r_epik_Charging_Adjusted_Penalty>
0.00239677123369497

> <i_epik_Tot_Q>
1

> <i_epik_Tot_abs_Q>
1

$$$$
