2i4d_ligand
                    3D
 Schrodinger Suite 2020-3.
 84 87  0  0  1  0            999 V2000
   11.8880   18.1870   18.3200 C   0  0  1  0  0  0
   10.7650   18.5040   20.4450 O   0  0  0  0  0  0
   12.7890   19.0500   19.2100 C   0  0  1  0  0  0
   12.7450   20.4310   18.8200 O   0  0  0  0  0  0
   13.8170   20.9230   18.1820 C   0  0  0  0  0  0
   13.5720   22.2150   17.8840 N   0  0  0  0  0  0
   14.5400   23.0230   17.1870 C   0  0  2  0  0  0
   14.8430   24.2050   18.1340 C   0  0  1  0  0  0
   16.0080   25.0840   17.6070 C   0  0  0  0  0  0
   17.2520   24.2810   17.5830 N   0  0  2  0  0  0
   18.2170   24.9380   18.4890 C   0  0  0  0  0  0
   18.2920   24.2540   19.8790 C   0  0  0  0  0  0
   17.3970   23.0000   19.9170 C   0  0  0  0  0  0
   19.7320   23.7940   20.1280 C   0  0  0  0  0  0
   17.8980   24.1240   16.0130 S   0  0  0  0  0  0
   18.7970   25.5560   15.5710 C   0  0  0  0  0  0
   18.1530   26.6210   14.9190 C   0  0  0  0  0  0
   18.8750   27.7800   14.5790 C   0  0  0  0  0  0
   20.2390   27.8860   14.8860 C   0  0  0  0  0  0
   20.9390   29.0520   14.5460 O   0  0  0  0  0  0
   22.3110   29.1180   14.9730 C   0  0  0  0  0  0
   20.8840   26.8120   15.5340 C   0  0  0  0  0  0
   20.1640   25.6510   15.8760 C   0  0  0  0  0  0
   16.7850   23.9020   15.0420 O   0  0  0  0  0  0
   18.8160   22.9420   15.9990 O   0  0  0  0  0  0
   13.6600   24.9760   18.2350 O   0  0  0  0  0  0
   13.9410   23.5430   15.8580 C   0  0  0  0  0  0
   13.3360   22.4110   15.0340 C   0  0  0  0  0  0
   14.1720   21.5410   14.3040 C   0  0  0  0  0  0
   13.6060   20.4980   13.5440 C   0  0  0  0  0  0
   12.2020   20.3270   13.5130 C   0  0  0  0  0  0
   11.6400   19.2980   12.7640 O   0  0  0  0  0  0
   11.9150   18.0090   13.2920 C   0  0  0  0  0  0
   11.0470   16.7420   12.3170 P   0  0  0  0  0  0
    9.4740   17.0070   12.3670 O   0  5  0  0  0  0
   11.3580   15.4140   12.8920 O   0  0  0  0  0  0
   11.5320   16.8010   10.7980 O   0  5  0  0  0  0
   11.3700   21.1990   14.2470 C   0  0  0  0  0  0
   11.9370   22.2400   15.0050 C   0  0  0  0  0  0
   14.8380   20.3070   17.9020 O   0  0  0  0  0  0
   12.1230   18.9920   20.6050 C   0  0  0  0  0  0
   10.5480   18.2190   19.0560 C   0  0  1  0  0  0
    9.7560   19.2330   18.4350 O   0  0  0  0  0  0
   10.0700   19.2190   17.0400 C   0  0  0  0  0  0
   11.5620   18.8440   16.9610 C   0  0  0  0  0  0
   12.3686   17.2119   18.1522 H   0  0  0  0  0  0
   13.8442   18.7487   19.1347 H   0  0  0  0  0  0
   12.6076   22.6497   18.1854 H   0  0  0  0  0  0
   15.4200   22.4006   16.9677 H   0  0  0  0  0  0
   15.0807   23.8585   19.1506 H   0  0  0  0  0  0
   15.7737   25.4320   16.5901 H   0  0  0  0  0  0
   16.1416   25.9517   18.2698 H   0  0  0  0  0  0
   19.2214   24.9043   18.0417 H   0  0  0  0  0  0
   17.9197   25.9856   18.6441 H   0  0  0  0  0  0
   17.9649   24.9708   20.6466 H   0  0  0  0  0  0
   16.3508   23.2908   19.7415 H   0  0  0  0  0  0
   17.4833   22.5177   20.9018 H   0  0  0  0  0  0
   17.7182   22.2965   19.1348 H   0  0  0  0  0  0
   20.4037   24.6649   20.1083 H   0  0  0  0  0  0
   20.0305   23.0828   19.3437 H   0  0  0  0  0  0
   19.7956   23.3040   21.1108 H   0  0  0  0  0  0
   17.0928   26.5494   14.6762 H   0  0  0  0  0  0
   18.3696   28.6024   14.0727 H   0  0  0  0  0  0
   22.7501   30.0732   14.6495 H   0  0  0  0  0  0
   22.8744   28.2855   14.5264 H   0  0  0  0  0  0
   22.3576   29.0458   16.0696 H   0  0  0  0  0  0
   21.9456   26.8810   15.7714 H   0  0  0  0  0  0
   20.6686   24.8254   16.3780 H   0  0  0  0  0  0
   12.7297   24.5115   18.5939 H   0  0  0  0  0  0
   13.1500   24.2761   16.0744 H   0  0  0  0  0  0
   14.7318   24.0220   15.2620 H   0  0  0  0  0  0
   15.2535   21.6750   14.3276 H   0  0  0  0  0  0
   14.2499   19.8231   12.9801 H   0  0  0  0  0  0
   12.9978   17.8194   13.2511 H   0  0  0  0  0  0
   11.5734   17.9600   14.3365 H   0  0  0  0  0  0
   10.2883   21.0661   14.2267 H   0  0  0  0  0  0
   11.2940   22.9147   15.5702 H   0  0  0  0  0  0
   12.1013   19.9962   21.0535 H   0  0  0  0  0  0
   12.6830   18.3094   21.2611 H   0  0  0  0  0  0
    9.9796   17.2776   19.0322 H   0  0  0  0  0  0
    9.4402   18.4753   16.5299 H   0  0  0  0  0  0
    9.8817   20.2145   16.6117 H   0  0  0  0  0  0
   12.1951   19.7328   16.8222 H   0  0  0  0  0  0
   11.7556   18.1258   16.1507 H   0  0  0  0  0  0
  1  3  1  0  0  0
  1 42  1  0  0  0
  1 45  1  0  0  0
  1 46  1  0  0  0
  2 41  1  0  0  0
  2 42  1  0  0  0
  3  4  1  0  0  0
  3 41  1  0  0  0
  3 47  1  0  0  0
  4  5  1  0  0  0
  5  6  1  0  0  0
  5 40  2  0  0  0
  6  7  1  0  0  0
  6 48  1  0  0  0
  7  8  1  0  0  0
  7 27  1  0  0  0
  7 49  1  0  0  0
  8  9  1  0  0  0
  8 26  1  0  0  0
  8 50  1  0  0  0
  9 10  1  0  0  0
  9 51  1  0  0  0
  9 52  1  0  0  0
 10 11  1  0  0  0
 10 15  1  0  0  0
 11 12  1  0  0  0
 11 53  1  0  0  0
 11 54  1  0  0  0
 12 13  1  0  0  0
 12 14  1  0  0  0
 12 55  1  0  0  0
 13 56  1  0  0  0
 13 57  1  0  0  0
 13 58  1  0  0  0
 14 59  1  0  0  0
 14 60  1  0  0  0
 14 61  1  0  0  0
 15 16  1  0  0  0
 15 24  2  0  0  0
 15 25  2  0  0  0
 16 17  2  0  0  0
 16 23  1  0  0  0
 17 18  1  0  0  0
 17 62  1  0  0  0
 18 19  2  0  0  0
 18 63  1  0  0  0
 19 20  1  0  0  0
 19 22  1  0  0  0
 20 21  1  0  0  0
 21 64  1  0  0  0
 21 65  1  0  0  0
 21 66  1  0  0  0
 22 23  2  0  0  0
 22 67  1  0  0  0
 23 68  1  0  0  0
 26 69  1  0  0  0
 27 28  1  0  0  0
 27 70  1  0  0  0
 27 71  1  0  0  0
 28 29  2  0  0  0
 28 39  1  0  0  0
 29 30  1  0  0  0
 29 72  1  0  0  0
 30 31  2  0  0  0
 30 73  1  0  0  0
 31 32  1  0  0  0
 31 38  1  0  0  0
 32 33  1  0  0  0
 33 34  1  0  0  0
 33 74  1  0  0  0
 33 75  1  0  0  0
 34 35  1  0  0  0
 34 36  2  0  0  0
 34 37  1  0  0  0
 38 39  2  0  0  0
 38 76  1  0  0  0
 39 77  1  0  0  0
 41 78  1  0  0  0
 41 79  1  0  0  0
 42 43  1  0  0  0
 42 80  1  0  0  0
 43 44  1  0  0  0
 44 45  1  0  0  0
 44 81  1  0  0  0
 44 82  1  0  0  0
 45 83  1  0  0  0
 45 84  1  0  0  0
M  CHG  2  35  -1  37  -1
M  END
> <s_m_source_file>
../2i4d_ligand.sdf

> <i_m_source_file_index>
1

> <s_epik_input>
W0NIMl0xW0NIMl1PW0NAQEhdKFtDQEBIXTEyKU9bQ0gyXVtDQEBIXTJPQyg9TylbTkhdW0NAQEhdKFtDSDJdYzNbY0hdW2NIXWMoW2NIXVtjSF0zKU9bQ0gyXVAoPU8pKFtPSF0pW09IXSlbQ0BIXShbT0hdKVtDSDJdTihbQ0gyXVtDSF0oW0NIM10pW0NIM10pUyg9TykoPU8pYzRbY0hdW2NIXWMoT1tDSDNdKVtjSF1bY0hdNA==

> <s_epik_cmdline>
J2VwaWtfYXBwJywgJy1pbWFlJywgJ2xpZ2FuZF9wcm8ubWFlJywgJy1vbWFlJywgJ2xpZ2FuZF9wcmVwLm1hZScsICctbXMnLCAnMScsICctcGgnLCAnNycsICctcGh0JywgJzAuNScsICctbnQn

> <r_lp_tautomer_probability>
1

> <r_epik_Ionization_Penalty>
  0.3194

> <r_epik_Ionization_Penalty_Charging>
  0.3194

> <r_epik_Ionization_Penalty_Neutral>
  0.0000

> <r_epik_State_Penalty>
  0.3138

> <r_epik_Charging_Adjusted_Penalty>
0.633192864105832

> <i_epik_Tot_Q>
-2

> <i_epik_Tot_abs_Q>
2

> <s_epik_Chemistry_Notes>
This compound has an ester and may undergo hydrolysis at high or low pH. This compound contains an acetal/aminal-like group ( X-CH(R)-Y where X, Y are N, S, or O) that may be acid/base labile, releasing an aldehyde.

$$$$
