2i4j_ligand
                    3D
 Schrodinger Suite 2020-3.
 68 70  0  0  1  0            999 V2000
   20.8460   20.1950   21.2420 C   0  0  0  0  0  0
   21.1950   19.3430   20.0180 C   0  0  0  0  0  0
   19.9780   18.6660   19.3810 C   0  0  1  0  0  0
   19.3140   17.7690   20.4310 C   0  0  0  0  0  0
   20.0500   16.9290   20.9940 O   0  5  0  0  0  0
   18.0950   17.9350   20.6490 O   0  0  0  0  0  0
   18.9850   19.7150   18.8690 C   0  0  0  0  0  0
   20.4570   17.8710   18.2870 O   0  0  0  0  0  0
   19.5840   17.2500   17.4440 C   0  0  0  0  0  0
   18.3590   16.7520   17.8890 C   0  0  0  0  0  0
   17.4790   16.1500   16.9980 C   0  0  0  0  0  0
   19.9300   17.1230   16.1030 C   0  0  0  0  0  0
   19.0500   16.5210   15.2060 C   0  0  0  0  0  0
   17.8220   16.0450   15.6510 C   0  0  0  0  0  0
   16.8100   15.5160   14.6370 C   0  0  0  0  0  0
   15.8270   16.6310   14.2680 C   0  0  0  0  0  0
   15.2460   16.3560   12.9500 N   0  0  0  0  0  0
   13.9130   15.7340   12.8380 C   0  0  0  0  0  0
   13.5730   14.9680   14.1190 C   0  0  0  0  0  0
   12.1800   14.3320   14.0800 C   0  0  0  0  0  0
   11.8140   13.8120   15.4750 C   0  0  0  0  0  0
   10.3230   13.4700   15.5750 C   0  0  0  0  0  0
    9.9320   13.2980   17.0470 C   0  0  0  0  0  0
    8.5590   12.6350   17.1800 C   0  0  0  0  0  0
   15.9860   16.6510   11.8880 C   0  0  0  0  0  0
   17.2570   17.1370   11.9940 O   0  0  0  0  0  0
   17.7260   17.2810   10.7210 C   0  0  0  0  0  0
   18.9350   17.7280   10.2130 C   0  0  0  0  0  0
   19.1360   17.7740    8.8310 C   0  0  0  0  0  0
   18.1210   17.3710    7.9770 C   0  0  0  0  0  0
   16.9030   16.9200    8.4950 C   0  0  0  0  0  0
   16.7020   16.8730    9.8640 C   0  0  0  0  0  0
   15.6620   16.4970   10.6100 N   0  0  0  0  0  0
   21.7628   20.6488   21.6463 H   0  0  0  0  0  0
   20.3816   19.5597   22.0106 H   0  0  0  0  0  0
   20.1430   20.9883   20.9481 H   0  0  0  0  0  0
   21.6594   19.9783   19.2494 H   0  0  0  0  0  0
   21.8981   18.5497   20.3118 H   0  0  0  0  0  0
   18.6228   20.3199   19.7134 H   0  0  0  0  0  0
   18.1342   19.2104   18.3878 H   0  0  0  0  0  0
   19.4853   20.3676   18.1384 H   0  0  0  0  0  0
   18.0906   16.8357   18.9421 H   0  0  0  0  0  0
   16.5239   15.7612   17.3511 H   0  0  0  0  0  0
   20.8926   17.4955   15.7526 H   0  0  0  0  0  0
   19.3244   16.4233   14.1556 H   0  0  0  0  0  0
   17.3386   15.1790   13.7331 H   0  0  0  0  0  0
   16.2587   14.6713   15.0757 H   0  0  0  0  0  0
   15.0250   16.6762   15.0195 H   0  0  0  0  0  0
   16.3582   17.5938   14.2403 H   0  0  0  0  0  0
   13.1561   16.5156   12.6761 H   0  0  0  0  0  0
   13.9049   15.0344   11.9892 H   0  0  0  0  0  0
   14.3058   14.1616   14.2694 H   0  0  0  0  0  0
   13.6037   15.6560   14.9767 H   0  0  0  0  0  0
   11.4421   15.0844   13.7648 H   0  0  0  0  0  0
   12.1787   13.4955   13.3657 H   0  0  0  0  0  0
   12.3945   12.9030   15.6914 H   0  0  0  0  0  0
   12.0452   14.5821   16.2257 H   0  0  0  0  0  0
    9.7297   14.2835   15.1321 H   0  0  0  0  0  0
   10.1243   12.5340   15.0325 H   0  0  0  0  0  0
   10.6774   12.6668   17.5530 H   0  0  0  0  0  0
    9.8948   14.2836   17.5341 H   0  0  0  0  0  0
    8.3065   12.5252   18.2450 H   0  0  0  0  0  0
    8.5832   11.6432   16.7048 H   0  0  0  0  0  0
    7.8006   13.2600   16.6858 H   0  0  0  0  0  0
   19.7284   18.0434   10.8906 H   0  0  0  0  0  0
   20.0855   18.1248    8.4267 H   0  0  0  0  0  0
   18.2729   17.4058    6.8982 H   0  0  0  0  0  0
   16.1088   16.6043    7.8185 H   0  0  0  0  0  0
  1  2  1  0  0  0
  1 34  1  0  0  0
  1 35  1  0  0  0
  1 36  1  0  0  0
  2  3  1  0  0  0
  2 37  1  0  0  0
  2 38  1  0  0  0
  3  4  1  0  0  0
  3  7  1  0  0  0
  3  8  1  0  0  0
  4  5  1  0  0  0
  4  6  2  0  0  0
  7 39  1  0  0  0
  7 40  1  0  0  0
  7 41  1  0  0  0
  8  9  1  0  0  0
  9 10  2  0  0  0
  9 12  1  0  0  0
 10 11  1  0  0  0
 10 42  1  0  0  0
 11 14  2  0  0  0
 11 43  1  0  0  0
 12 13  2  0  0  0
 12 44  1  0  0  0
 13 14  1  0  0  0
 13 45  1  0  0  0
 14 15  1  0  0  0
 15 16  1  0  0  0
 15 46  1  0  0  0
 15 47  1  0  0  0
 16 17  1  0  0  0
 16 48  1  0  0  0
 16 49  1  0  0  0
 17 18  1  0  0  0
 17 25  1  0  0  0
 18 19  1  0  0  0
 18 50  1  0  0  0
 18 51  1  0  0  0
 19 20  1  0  0  0
 19 52  1  0  0  0
 19 53  1  0  0  0
 20 21  1  0  0  0
 20 54  1  0  0  0
 20 55  1  0  0  0
 21 22  1  0  0  0
 21 56  1  0  0  0
 21 57  1  0  0  0
 22 23  1  0  0  0
 22 58  1  0  0  0
 22 59  1  0  0  0
 23 24  1  0  0  0
 23 60  1  0  0  0
 23 61  1  0  0  0
 24 62  1  0  0  0
 24 63  1  0  0  0
 24 64  1  0  0  0
 25 26  1  0  0  0
 25 33  2  0  0  0
 26 27  1  0  0  0
 27 28  1  0  0  0
 27 32  2  0  0  0
 28 29  2  0  0  0
 28 65  1  0  0  0
 29 30  1  0  0  0
 29 66  1  0  0  0
 30 31  2  0  0  0
 30 67  1  0  0  0
 31 32  1  0  0  0
 31 68  1  0  0  0
 32 33  1  0  0  0
M  CHG  1   5  -1
M  END
> <s_m_source_file>
../2i4j_ligand.sdf

> <i_m_source_file_index>
1

> <s_epik_input>
W0NIM11bQ0gyXVtDQF0oW0NIM10pKEMoPU8pW09IXSlPYzFbY0hdW2NIXWMoW2NIXVtjSF0xKVtDSDJdW0NIMl1OKFtDSDJdW0NIMl1bQ0gyXVtDSDJdW0NIMl1bQ0gyXVtDSDNdKWMobzIpbmMoYzIzKVtjSF1bY0hdW2NIXVtjSF0z

> <s_epik_cmdline>
J2VwaWtfYXBwJywgJy1pbWFlJywgJ2xpZ2FuZF9wcm8ubWFlJywgJy1vbWFlJywgJ2xpZ2FuZF9wcmVwLm1hZScsICctbXMnLCAnMScsICctcGgnLCAnNycsICctcGh0JywgJzAuNScsICctbnQn

> <r_lp_tautomer_probability>
1

> <r_epik_Ionization_Penalty>
  0.0019

> <r_epik_Ionization_Penalty_Charging>
  0.0001

> <r_epik_Ionization_Penalty_Neutral>
  0.0018

> <r_epik_State_Penalty>
 -0.0000

> <r_epik_Charging_Adjusted_Penalty>
0.000112598334883234

> <i_epik_Tot_Q>
-1

> <i_epik_Tot_abs_Q>
1

$$$$
