2i4p_ligand
                    3D
 Schrodinger Suite 2020-3.
 68 70  0  0  1  0            999 V2000
   19.9570   20.9670   17.2010 C   0  0  0  0  0  0
   19.0550   19.9690   17.9360 C   0  0  0  0  0  0
   19.8090   18.7160   18.3920 C   0  0  2  0  0  0
   18.9360   17.9330   19.3800 C   0  0  0  0  0  0
   19.4040   17.6920   20.5030 O   0  0  0  0  0  0
   17.7790   17.6120   18.9950 O   0  5  0  0  0  0
   21.0940   19.1130   19.1230 C   0  0  0  0  0  0
   20.2170   17.9380   17.2560 O   0  0  0  0  0  0
   19.3900   17.1840   16.4650 C   0  0  0  0  0  0
   18.3430   16.4410   16.9850 C   0  0  0  0  0  0
   17.5640   15.6260   16.1510 C   0  0  0  0  0  0
   19.6490   17.1360   15.1040 C   0  0  0  0  0  0
   18.8730   16.3230   14.2660 C   0  0  0  0  0  0
   17.8350   15.5780   14.7930 C   0  0  0  0  0  0
   17.0370   14.6420   13.8650 C   0  0  0  0  0  0
   15.5210   14.7040   14.0440 C   0  0  0  0  0  0
   14.8500   15.8340   13.3700 N   0  0  0  0  0  0
   13.3900   15.7750   13.2080 C   0  0  0  0  0  0
   12.7020   15.1560   14.4280 C   0  0  0  0  0  0
   11.2420   14.8350   14.1190 C   0  0  0  0  0  0
   10.5970   14.3020   15.4000 C   0  0  0  0  0  0
    9.1610   13.8240   15.1880 C   0  0  0  0  0  0
    8.5480   13.4210   16.5270 C   0  0  0  0  0  0
    9.4180   12.3890   17.2580 C   0  0  0  0  0  0
   15.4700   16.7130   12.5870 C   0  0  0  0  0  0
   16.7540   16.6140   12.1140 O   0  0  0  0  0  0
   16.8900   17.6190   11.1970 C   0  0  0  0  0  0
   17.9280   17.9980   10.3620 C   0  0  0  0  0  0
   17.7640   19.0650    9.4830 C   0  0  0  0  0  0
   16.5510   19.7590    9.4430 C   0  0  0  0  0  0
   15.5130   19.3780   10.2800 C   0  0  0  0  0  0
   15.6760   18.3100   11.1550 C   0  0  0  0  0  0
   14.8440   17.7310   12.0150 N   0  0  0  0  0  0
   19.3644   21.8429   16.8984 H   0  0  0  0  0  0
   20.3838   20.4868   16.3081 H   0  0  0  0  0  0
   20.7700   21.2873   17.8691 H   0  0  0  0  0  0
   18.6282   20.4492   18.8289 H   0  0  0  0  0  0
   18.2419   19.6486   17.2680 H   0  0  0  0  0  0
   20.8412   19.7149   20.0083 H   0  0  0  0  0  0
   21.7322   19.7028   18.4486 H   0  0  0  0  0  0
   21.6320   18.2065   19.4374 H   0  0  0  0  0  0
   18.1227   16.4902   18.0514 H   0  0  0  0  0  0
   16.7499   15.0336   16.5687 H   0  0  0  0  0  0
   20.4588   17.7325   14.6839 H   0  0  0  0  0  0
   19.0884   16.2784   13.1984 H   0  0  0  0  0  0
   17.2437   14.9019   12.8163 H   0  0  0  0  0  0
   17.3361   13.5998   14.0502 H   0  0  0  0  0  0
   15.0665   13.7868   13.6414 H   0  0  0  0  0  0
   15.2814   14.7928   15.1139 H   0  0  0  0  0  0
   12.9950   16.7923   13.0703 H   0  0  0  0  0  0
   13.1432   15.1636   12.3275 H   0  0  0  0  0  0
   13.2189   14.2262   14.7079 H   0  0  0  0  0  0
   12.7400   15.8641   15.2689 H   0  0  0  0  0  0
   10.7283   15.7488   13.7855 H   0  0  0  0  0  0
   11.1937   14.0763   13.3240 H   0  0  0  0  0  0
   11.1815   13.4501   15.7778 H   0  0  0  0  0  0
   10.5766   15.0980   16.1589 H   0  0  0  0  0  0
    8.5659   14.6361   14.7449 H   0  0  0  0  0  0
    9.1593   12.9569   14.5112 H   0  0  0  0  0  0
    8.4505   14.3097   17.1679 H   0  0  0  0  0  0
    7.5545   12.9803   16.3576 H   0  0  0  0  0  0
    8.9458   12.1237   18.2154 H   0  0  0  0  0  0
   10.4138   12.8166   17.4464 H   0  0  0  0  0  0
    9.5178   11.4872   16.6360 H   0  0  0  0  0  0
   18.8753   17.4597   10.3932 H   0  0  0  0  0  0
   18.5819   19.3596    8.8255 H   0  0  0  0  0  0
   16.4217   20.5960    8.7568 H   0  0  0  0  0  0
   14.5663   19.9176   10.2518 H   0  0  0  0  0  0
  1  2  1  0  0  0
  1 34  1  0  0  0
  1 35  1  0  0  0
  1 36  1  0  0  0
  2  3  1  0  0  0
  2 37  1  0  0  0
  2 38  1  0  0  0
  3  4  1  0  0  0
  3  7  1  0  0  0
  3  8  1  0  0  0
  4  5  2  0  0  0
  4  6  1  0  0  0
  7 39  1  0  0  0
  7 40  1  0  0  0
  7 41  1  0  0  0
  8  9  1  0  0  0
  9 10  2  0  0  0
  9 12  1  0  0  0
 10 11  1  0  0  0
 10 42  1  0  0  0
 11 14  2  0  0  0
 11 43  1  0  0  0
 12 13  2  0  0  0
 12 44  1  0  0  0
 13 14  1  0  0  0
 13 45  1  0  0  0
 14 15  1  0  0  0
 15 16  1  0  0  0
 15 46  1  0  0  0
 15 47  1  0  0  0
 16 17  1  0  0  0
 16 48  1  0  0  0
 16 49  1  0  0  0
 17 18  1  0  0  0
 17 25  1  0  0  0
 18 19  1  0  0  0
 18 50  1  0  0  0
 18 51  1  0  0  0
 19 20  1  0  0  0
 19 52  1  0  0  0
 19 53  1  0  0  0
 20 21  1  0  0  0
 20 54  1  0  0  0
 20 55  1  0  0  0
 21 22  1  0  0  0
 21 56  1  0  0  0
 21 57  1  0  0  0
 22 23  1  0  0  0
 22 58  1  0  0  0
 22 59  1  0  0  0
 23 24  1  0  0  0
 23 60  1  0  0  0
 23 61  1  0  0  0
 24 62  1  0  0  0
 24 63  1  0  0  0
 24 64  1  0  0  0
 25 26  1  0  0  0
 25 33  2  0  0  0
 26 27  1  0  0  0
 27 28  1  0  0  0
 27 32  2  0  0  0
 28 29  2  0  0  0
 28 65  1  0  0  0
 29 30  1  0  0  0
 29 66  1  0  0  0
 30 31  2  0  0  0
 30 67  1  0  0  0
 31 32  1  0  0  0
 31 68  1  0  0  0
 32 33  1  0  0  0
M  CHG  1   6  -1
M  END
> <s_m_source_file>
../2i4p_ligand.sdf

> <i_m_source_file_index>
1

> <s_epik_input>
W0NIM11bQ0gyXVtDQEBdKFtDSDNdKShDKD1PKVtPSF0pT2MxW2NIXVtjSF1jKFtjSF1bY0hdMSlbQ0gyXVtDSDJdTihbQ0gyXVtDSDJdW0NIMl1bQ0gyXVtDSDJdW0NIMl1bQ0gzXSljKG8yKW5jKGMyMylbY0hdW2NIXVtjSF1bY0hdMw==

> <s_epik_cmdline>
J2VwaWtfYXBwJywgJy1pbWFlJywgJ2xpZ2FuZF9wcm8ubWFlJywgJy1vbWFlJywgJ2xpZ2FuZF9wcmVwLm1hZScsICctbXMnLCAnMScsICctcGgnLCAnNycsICctcGh0JywgJzAuNScsICctbnQn

> <r_lp_tautomer_probability>
1

> <r_epik_Ionization_Penalty>
  0.0019

> <r_epik_Ionization_Penalty_Charging>
  0.0001

> <r_epik_Ionization_Penalty_Neutral>
  0.0018

> <r_epik_State_Penalty>
 -0.0000

> <r_epik_Charging_Adjusted_Penalty>
0.000112598334883234

> <i_epik_Tot_Q>
-1

> <i_epik_Tot_abs_Q>
1

$$$$
