2i4t_ligand
                    3D
 Schrodinger Suite 2020-3.
 34 36  0  0  1  0            999 V2000
  -87.0970   15.7050   15.9950 C   0  0  0  0  0  0
  -86.8710   16.8870   17.9840 C   0  0  0  0  0  0
  -88.2600   16.8790   18.1480 C   0  0  0  0  0  0
  -89.0450   16.2330   17.1330 C   0  0  0  0  0  0
  -86.3150   17.5720   19.0790 C   0  0  0  0  0  0
  -86.2890   16.3060   16.9020 N   0  0  0  0  0  0
  -88.4390   15.6370   16.0890 N   0  0  0  0  0  0
  -87.3340   17.9950   19.9190 C   0  0  0  0  0  0
  -88.5000   17.5650   19.3340 N   0  3  0  0  0  0
  -90.3910   16.1660   17.1270 N   0  0  0  0  0  0
  -86.2040   20.2500   17.3380 O   0  0  0  0  0  0
  -84.8880   20.7080   17.2840 C   0  0  0  0  0  0
  -84.0560   20.0220   18.3450 C   0  0  1  0  0  0
  -84.8150   19.3540   19.4160 N   0  0  1  0  0  0
  -83.2180   18.9540   17.7100 C   0  0  1  0  0  0
  -81.9030   19.3070   18.1680 O   0  0  0  0  0  0
  -83.7520   17.6420   18.3250 C   0  0  1  0  0  0
  -82.6480   17.0980   19.0560 O   0  0  0  0  0  0
  -84.8680   17.9050   19.3730 C   0  0  2  0  0  0
  -86.6269   15.2433   15.1267 H   0  0  0  0  0  0
  -87.0948   18.5541   20.8356 H   0  0  0  0  0  0
  -90.9682   16.6265   17.9423 H   0  0  0  0  0  0
  -90.9124   15.6508   16.3068 H   0  0  0  0  0  0
  -86.9526   20.6435   16.6346 H   0  0  0  0  0  0
  -84.4635   20.4877   16.2934 H   0  0  0  0  0  0
  -84.8703   21.7941   17.4572 H   0  0  0  0  0  0
  -83.4789   20.8267   18.8240 H   0  0  0  0  0  0
  -83.1814   18.8840   16.6128 H   0  0  0  0  0  0
  -81.4191   20.2229   17.7978 H   0  0  0  0  0  0
  -84.1021   16.9506   17.5444 H   0  0  0  0  0  0
  -81.7214   16.8244   18.5301 H   0  0  0  0  0  0
  -84.6743   17.3106   20.2781 H   0  0  0  0  0  0
  -89.5314   17.7028   19.6906 H   0  0  0  0  0  0
  -84.3733   19.6071   20.3911 H   0  0  0  0  0  0
  1  6  2  0  0  0
  1  7  1  0  0  0
  1 20  1  0  0  0
  2  3  2  0  0  0
  2  5  1  0  0  0
  2  6  1  0  0  0
  3  4  1  0  0  0
  3  9  1  0  0  0
  4  7  2  0  0  0
  4 10  1  0  0  0
  5  8  2  0  0  0
  5 19  1  0  0  0
  8  9  1  0  0  0
  8 21  1  0  0  0
  9 33  1  0  0  0
 10 22  1  0  0  0
 10 23  1  0  0  0
 11 12  1  0  0  0
 11 24  1  0  0  0
 12 13  1  0  0  0
 12 25  1  0  0  0
 12 26  1  0  0  0
 13 14  1  0  0  0
 13 15  1  0  0  0
 13 27  1  0  0  0
 14 19  1  0  0  0
 14 34  1  0  0  0
 15 16  1  0  0  0
 15 17  1  0  0  0
 15 28  1  0  0  0
 16 29  1  0  0  0
 17 18  1  0  0  0
 17 19  1  0  0  0
 17 30  1  0  0  0
 18 31  1  0  0  0
 19 32  1  0  0  0
M  CHG  1   9   1
M  END
> <s_m_source_file>
../2i4t_ligand.sdf

> <i_m_source_file_index>
1

> <s_epik_input>
bjFbY0hdbmMoW05IMl0pYyhjMTIpW25IXVtjSF1jMltDQEBIXShbQ0BIXShbT0hdKVtDQEBIXTNbT0hdKVtOSDIrXVtDQEBIXTNbQ0gyXVtPSF0=

> <s_epik_cmdline>
J2VwaWtfYXBwJywgJy1pbWFlJywgJ2xpZ2FuZF9wcm8ubWFlJywgJy1vbWFlJywgJ2xpZ2FuZF9wcmVwLm1hZScsICctbXMnLCAnMScsICctcGgnLCAnNycsICctcGh0JywgJzAuNScsICctbnQn

> <r_epik_Ionization_Penalty>
  1.5830

> <r_epik_Ionization_Penalty_Charging>
  0.0000

> <r_epik_Ionization_Penalty_Neutral>
  1.5830

> <r_epik_State_Penalty>
  0.0298

> <r_epik_Charging_Adjusted_Penalty>
0.0297631751291433

> <i_epik_Tot_Q>
1

> <i_epik_Tot_abs_Q>
1

$$$$
