2i4v_ligand
                    3D
 Schrodinger Suite 2020-3.
 77 80  0  0  1  0            999 V2000
   11.6980   18.2150   18.3740 C   0  0  1  0  0  0
   10.8280   18.7930   20.4120 O   0  0  0  0  0  0
   10.4160   18.2310   19.1570 C   0  0  1  0  0  0
    9.6540   19.1130   18.3340 O   0  0  0  0  0  0
    9.9510   18.7710   16.9880 C   0  0  0  0  0  0
   11.4620   18.5440   16.9100 C   0  0  0  0  0  0
   12.2640   18.8000   20.4370 C   0  0  0  0  0  0
   12.8020   18.9740   19.0180 C   0  0  2  0  0  0
   12.6580   20.3310   18.6270 O   0  0  0  0  0  0
   13.7060   20.8650   18.0010 C   0  0  0  0  0  0
   14.7650   20.2900   17.7550 O   0  0  0  0  0  0
   13.4110   22.1310   17.6710 N   0  0  0  0  0  0
   14.3780   22.9360   16.9740 C   0  0  1  0  0  0
   13.7730   23.4800   15.6540 C   0  0  0  0  0  0
   13.2820   22.3100   14.8050 C   0  0  0  0  0  0
   14.1770   21.6480   13.9460 C   0  0  0  0  0  0
   13.7270   20.5610   13.1720 C   0  0  0  0  0  0
   12.3820   20.1390   13.2570 C   0  0  0  0  0  0
   11.4850   20.8040   14.1130 C   0  0  0  0  0  0
   11.9340   21.8890   14.8910 C   0  0  0  0  0  0
   14.8040   24.0680   17.9200 C   0  0  2  0  0  0
   13.6470   24.7650   18.3620 O   0  0  0  0  0  0
   15.7030   25.0420   17.1980 C   0  0  0  0  0  0
   17.1240   24.6670   17.2320 N   0  0  3  0  0  0
   17.8410   24.3110   15.7560 S   0  0  0  0  0  0
   18.5350   22.9740   15.8120 O   0  0  0  0  0  0
   16.7250   24.1020   14.7600 O   0  0  0  0  0  0
   18.7820   25.7020   15.2950 C   0  0  0  0  0  0
   20.1500   25.7970   15.5720 C   0  0  0  0  0  0
   20.8560   26.9620   15.2050 C   0  0  0  0  0  0
   20.1880   28.0360   14.5650 C   0  0  0  0  0  0
   20.8700   29.2130   14.2040 O   0  0  0  0  0  0
   22.2700   29.2720   14.5230 C   0  0  0  0  0  0
   18.8190   27.9220   14.2950 C   0  0  0  0  0  0
   18.1210   26.7660   14.6560 C   0  0  0  0  0  0
   18.0040   24.9860   18.3820 C   0  0  0  0  0  0
   17.7070   24.1090   19.6260 C   0  0  0  0  0  0
   18.7510   24.4240   20.7130 C   0  0  0  0  0  0
   17.7900   22.6080   19.2820 C   0  0  0  0  0  0
   12.0840   17.1855   18.4085 H   0  0  0  0  0  0
    9.8271   17.3287   19.3788 H   0  0  0  0  0  0
    9.4049   17.8566   16.7130 H   0  0  0  0  0  0
    9.6458   19.5938   16.3247 H   0  0  0  0  0  0
   12.0506   19.4314   16.6341 H   0  0  0  0  0  0
   11.7713   17.6911   16.2880 H   0  0  0  0  0  0
   12.6157   19.6317   21.0652 H   0  0  0  0  0  0
   12.6282   17.8483   20.8512 H   0  0  0  0  0  0
   13.8496   18.7253   18.7928 H   0  0  0  0  0  0
   12.4299   22.5538   17.9332 H   0  0  0  0  0  0
   15.2325   22.2865   16.7332 H   0  0  0  0  0  0
   12.9295   24.1473   15.8849 H   0  0  0  0  0  0
   14.5422   24.0392   15.1012 H   0  0  0  0  0  0
   15.2147   21.9748   13.8795 H   0  0  0  0  0  0
   14.4181   20.0444   12.5060 H   0  0  0  0  0  0
   12.0379   19.2959   12.6579 H   0  0  0  0  0  0
   10.4459   20.4806   14.1739 H   0  0  0  0  0  0
   11.2434   22.4039   15.5588 H   0  0  0  0  0  0
   15.3043   23.6737   18.8168 H   0  0  0  0  0  0
   12.8603   24.2303   18.9145 H   0  0  0  0  0  0
   15.4043   25.1024   16.1410 H   0  0  0  0  0  0
   15.6142   26.0357   17.6614 H   0  0  0  0  0  0
   20.6672   24.9759   16.0684 H   0  0  0  0  0  0
   21.9229   27.0368   15.4151 H   0  0  0  0  0  0
   22.6814   30.2366   14.1908 H   0  0  0  0  0  0
   22.7973   28.4529   14.0121 H   0  0  0  0  0  0
   22.4028   29.1717   15.6103 H   0  0  0  0  0  0
   18.2944   28.7395   13.8004 H   0  0  0  0  0  0
   17.0553   26.6887   14.4404 H   0  0  0  0  0  0
   19.0537   24.8213   18.0972 H   0  0  0  0  0  0
   17.8632   26.0380   18.6707 H   0  0  0  0  0  0
   16.6904   24.3296   19.9837 H   0  0  0  0  0  0
   18.7031   25.4928   20.9686 H   0  0  0  0  0  0
   19.7560   24.1815   20.3373 H   0  0  0  0  0  0
   18.5397   23.8227   21.6095 H   0  0  0  0  0  0
   17.0486   22.3683   18.5056 H   0  0  0  0  0  0
   17.5821   22.0132   20.1836 H   0  0  0  0  0  0
   18.7985   22.3720   18.9114 H   0  0  0  0  0  0
  1  3  1  0  0  0
  1  6  1  0  0  0
  1  8  1  0  0  0
  1 40  1  0  0  0
  2  3  1  0  0  0
  2  7  1  0  0  0
  3  4  1  0  0  0
  3 41  1  0  0  0
  4  5  1  0  0  0
  5  6  1  0  0  0
  5 42  1  0  0  0
  5 43  1  0  0  0
  6 44  1  0  0  0
  6 45  1  0  0  0
  7  8  1  0  0  0
  7 46  1  0  0  0
  7 47  1  0  0  0
  8  9  1  0  0  0
  8 48  1  0  0  0
  9 10  1  0  0  0
 10 11  2  0  0  0
 10 12  1  0  0  0
 12 13  1  0  0  0
 12 49  1  0  0  0
 13 14  1  0  0  0
 13 21  1  0  0  0
 13 50  1  0  0  0
 14 15  1  0  0  0
 14 51  1  0  0  0
 14 52  1  0  0  0
 15 16  2  0  0  0
 15 20  1  0  0  0
 16 17  1  0  0  0
 16 53  1  0  0  0
 17 18  2  0  0  0
 17 54  1  0  0  0
 18 19  1  0  0  0
 18 55  1  0  0  0
 19 20  2  0  0  0
 19 56  1  0  0  0
 20 57  1  0  0  0
 21 22  1  0  0  0
 21 23  1  0  0  0
 21 58  1  0  0  0
 22 59  1  0  0  0
 23 24  1  0  0  0
 23 60  1  0  0  0
 23 61  1  0  0  0
 24 25  1  0  0  0
 24 36  1  0  0  0
 25 26  2  0  0  0
 25 27  2  0  0  0
 25 28  1  0  0  0
 28 29  2  0  0  0
 28 35  1  0  0  0
 29 30  1  0  0  0
 29 62  1  0  0  0
 30 31  2  0  0  0
 30 63  1  0  0  0
 31 32  1  0  0  0
 31 34  1  0  0  0
 32 33  1  0  0  0
 33 64  1  0  0  0
 33 65  1  0  0  0
 33 66  1  0  0  0
 34 35  2  0  0  0
 34 67  1  0  0  0
 35 68  1  0  0  0
 36 37  1  0  0  0
 36 69  1  0  0  0
 36 70  1  0  0  0
 37 38  1  0  0  0
 37 39  1  0  0  0
 37 71  1  0  0  0
 38 72  1  0  0  0
 38 73  1  0  0  0
 38 74  1  0  0  0
 39 75  1  0  0  0
 39 76  1  0  0  0
 39 77  1  0  0  0
M  END
> <s_m_source_file>
../2i4v_ligand.sdf

> <i_m_source_file_index>
1

> <s_epik_input>
W0NIMl0xW0NIMl1PW0NAQEhdKFtDQEBIXTEyKU9bQ0gyXVtDQEBIXTJPQyg9TylbTkhdW0NAQEhdKFtDSDJdYzNbY0hdW2NIXVtjSF1bY0hdW2NIXTMpW0NASF0oW09IXSlbQ0gyXU4oW0NIMl1bQ0hdKFtDSDNdKVtDSDNdKVMoPU8pKD1PKWM0W2NIXVtjSF1jKE9bQ0gzXSlbY0hdW2NIXTQ=

> <s_epik_cmdline>
J2VwaWtfYXBwJywgJy1pbWFlJywgJ2xpZ2FuZF9wcm8ubWFlJywgJy1vbWFlJywgJ2xpZ2FuZF9wcmVwLm1hZScsICctbXMnLCAnMScsICctcGgnLCAnNycsICctcGh0JywgJzAuNScsICctbnQn

> <r_lp_tautomer_probability>
1

> <r_epik_Ionization_Penalty>
  0.0000

> <r_epik_Ionization_Penalty_Charging>
  0.0000

> <r_epik_Ionization_Penalty_Neutral>
  0.0000

> <r_epik_State_Penalty>
 -0.0000

> <r_epik_Charging_Adjusted_Penalty>
0

> <i_epik_Tot_Q>
0

> <i_epik_Tot_abs_Q>
0

> <s_epik_Chemistry_Notes>
This compound has an ester and may undergo hydrolysis at high or low pH. This compound contains an acetal/aminal-like group ( X-CH(R)-Y where X, Y are N, S, or O) that may be acid/base labile, releasing an aldehyde.

$$$$
