2i4x_ligand
                    3D
 Schrodinger Suite 2020-3.
 98101  0  0  1  0            999 V2000
   13.4730   22.1090   17.8170 N   0  0  0  0  0  0
   11.7410   17.9830   18.3630 C   0  0  1  0  0  0
   12.3050   18.9340   12.4460 O   0  0  0  0  0  0
   14.4130   22.9560   17.1040 C   0  0  1  0  0  0
   13.7300   23.4230   15.7780 C   0  0  0  0  0  0
   13.3440   22.2380   14.8870 C   0  0  0  0  0  0
   14.3060   21.6160   14.0710 C   0  0  0  0  0  0
   13.9610   20.5220   13.2620 C   0  0  0  0  0  0
   12.6410   20.0320   13.2540 C   0  0  0  0  0  0
   11.4110   17.9640   13.0050 C   0  0  0  0  0  0
   11.4860   16.4440   11.9980 P   0  0  0  0  0  0
   12.9740   15.8600   11.9930 O   0  0  0  0  0  0
   13.5850   15.1940   10.8740 C   0  0  0  0  0  0
   15.0260   14.7800   11.2600 C   0  0  0  0  0  0
   10.5540   15.4320   12.5810 O   0  0  0  0  0  0
   11.0670   16.7420   10.4880 O   0  0  0  0  0  0
    9.8080   17.2670   10.0700 C   0  0  0  0  0  0
    9.8220   17.3870    8.5290 C   0  0  0  0  0  0
   11.6670   20.6530   14.0660 C   0  0  0  0  0  0
   12.0190   21.7510   14.8760 C   0  0  0  0  0  0
   14.7880   24.1500   18.0260 C   0  0  2  0  0  0
   13.6400   24.9830   18.1640 O   0  0  0  0  0  0
   15.9240   25.0660   17.4750 C   0  0  0  0  0  0
   17.2230   24.3480   17.3230 N   0  0  2  0  0  0
   18.2800   24.6180   18.3460 C   0  0  0  0  0  0
   18.1980   23.7680   19.6570 C   0  0  0  0  0  0
   19.5130   22.9770   19.8340 C   0  0  0  0  0  0
   17.0320   22.7470   19.6110 C   0  0  0  0  0  0
   17.8120   24.1050   15.7620 S   0  0  0  0  0  0
   18.7750   23.0300   15.8190 O   0  0  0  0  0  0
   16.7170   23.9160   14.8380 O   0  0  0  0  0  0
   18.6990   25.6000   15.3270 C   0  0  0  0  0  0
   20.0820   25.7000   15.5790 C   0  0  0  0  0  0
   20.7880   26.8630   15.2490 C   0  0  0  0  0  0
   20.1240   27.9520   14.6530 C   0  0  0  0  0  0
   20.8210   29.1170   14.3210 O   0  0  0  0  0  0
   22.1840   29.3210   14.7220 C   0  0  0  0  0  0
   18.7440   27.8520   14.3990 C   0  0  0  0  0  0
   18.0360   26.6850   14.7300 C   0  0  0  0  0  0
   13.7280   20.8210   18.1030 C   0  0  0  0  0  0
   14.7640   20.2300   17.8020 O   0  0  0  0  0  0
   12.6760   20.2780   18.7520 O   0  0  0  0  0  0
   12.7420   18.8820   19.1220 C   0  0  1  0  0  0
   12.2090   18.7940   20.5650 C   0  0  0  0  0  0
   10.8060   18.9500   20.3330 O   0  0  0  0  0  0
   10.4620   18.0910   19.2430 C   0  0  1  0  0  0
    9.4410   18.6750   18.4080 O   0  0  0  0  0  0
   10.0750   19.4490   17.3840 C   0  0  0  0  0  0
   11.2380   18.5220   16.9960 C   0  0  0  0  0  0
   12.5059   22.5166   18.1465 H   0  0  0  0  0  0
   12.2310   17.0131   18.1924 H   0  0  0  0  0  0
   15.3151   22.3676   16.8806 H   0  0  0  0  0  0
   12.8164   23.9878   16.0153 H   0  0  0  0  0  0
   14.4228   24.0660   15.2154 H   0  0  0  0  0  0
   15.3307   21.9876   14.0668 H   0  0  0  0  0  0
   14.7187   20.0495   12.6369 H   0  0  0  0  0  0
   11.7123   17.7408   14.0391 H   0  0  0  0  0  0
   10.3863   18.3639   12.9998 H   0  0  0  0  0  0
   12.9989   14.3000   10.6147 H   0  0  0  0  0  0
   13.6133   15.8766   10.0119 H   0  0  0  0  0  0
   15.5011   14.2695   10.4093 H   0  0  0  0  0  0
   14.9931   14.0999   12.1239 H   0  0  0  0  0  0
   15.6075   15.6765   11.5210 H   0  0  0  0  0  0
    9.0035   16.5880   10.3889 H   0  0  0  0  0  0
    9.6542   18.2567   10.5247 H   0  0  0  0  0  0
    8.8587   17.7907    8.1839 H   0  0  0  0  0  0
    9.9832   16.3934    8.0853 H   0  0  0  0  0  0
   10.6340   18.0622    8.2212 H   0  0  0  0  0  0
   10.6418   20.2827   14.0663 H   0  0  0  0  0  0
   11.2623   22.2280   15.4989 H   0  0  0  0  0  0
   15.0724   23.7421   19.0072 H   0  0  0  0  0  0
   12.6965   24.5613   18.5409 H   0  0  0  0  0  0
   15.6361   25.4526   16.4862 H   0  0  0  0  0  0
   16.0839   25.9074   18.1653 H   0  0  0  0  0  0
   19.2704   24.4157   17.9121 H   0  0  0  0  0  0
   18.2256   25.6707   18.6605 H   0  0  0  0  0  0
   18.0330   24.4552   20.4999 H   0  0  0  0  0  0
   20.3603   23.6776   19.8701 H   0  0  0  0  0  0
   19.6431   22.2876   18.9868 H   0  0  0  0  0  0
   19.4720   22.4026   20.7712 H   0  0  0  0  0  0
   16.0798   23.2833   19.4852 H   0  0  0  0  0  0
   17.0090   22.1742   20.5498 H   0  0  0  0  0  0
   17.1800   22.0593   18.7654 H   0  0  0  0  0  0
   20.6081   24.8620   16.0362 H   0  0  0  0  0  0
   21.8566   26.9256   15.4544 H   0  0  0  0  0  0
   22.5316   30.2983   14.3558 H   0  0  0  0  0  0
   22.8140   28.5253   14.2979 H   0  0  0  0  0  0
   22.2509   29.2958   15.8197 H   0  0  0  0  0  0
   18.2183   28.6895   13.9402 H   0  0  0  0  0  0
   16.9678   26.6210   14.5228 H   0  0  0  0  0  0
   13.7890   18.6144   18.9165 H   0  0  0  0  0  0
   12.4814   17.8201   20.9977 H   0  0  0  0  0  0
   12.6510   19.6001   21.1690 H   0  0  0  0  0  0
   10.0461   17.1687   19.6748 H   0  0  0  0  0  0
    9.3627   19.6271   16.5649 H   0  0  0  0  0  0
   10.4015   20.4127   17.8019 H   0  0  0  0  0  0
   12.0536   19.0611   16.4919 H   0  0  0  0  0  0
   10.9115   17.6803   16.3676 H   0  0  0  0  0  0
  1  4  1  0  0  0
  1 40  1  0  0  0
  1 50  1  0  0  0
  2 43  1  0  0  0
  2 46  1  0  0  0
  2 49  1  0  0  0
  2 51  1  0  0  0
  3  9  1  0  0  0
  3 10  1  0  0  0
  4  5  1  0  0  0
  4 21  1  0  0  0
  4 52  1  0  0  0
  5  6  1  0  0  0
  5 53  1  0  0  0
  5 54  1  0  0  0
  6  7  2  0  0  0
  6 20  1  0  0  0
  7  8  1  0  0  0
  7 55  1  0  0  0
  8  9  2  0  0  0
  8 56  1  0  0  0
  9 19  1  0  0  0
 10 11  1  0  0  0
 10 57  1  0  0  0
 10 58  1  0  0  0
 11 12  1  0  0  0
 11 15  2  0  0  0
 11 16  1  0  0  0
 12 13  1  0  0  0
 13 14  1  0  0  0
 13 59  1  0  0  0
 13 60  1  0  0  0
 14 61  1  0  0  0
 14 62  1  0  0  0
 14 63  1  0  0  0
 16 17  1  0  0  0
 17 18  1  0  0  0
 17 64  1  0  0  0
 17 65  1  0  0  0
 18 66  1  0  0  0
 18 67  1  0  0  0
 18 68  1  0  0  0
 19 20  2  0  0  0
 19 69  1  0  0  0
 20 70  1  0  0  0
 21 22  1  0  0  0
 21 23  1  0  0  0
 21 71  1  0  0  0
 22 72  1  0  0  0
 23 24  1  0  0  0
 23 73  1  0  0  0
 23 74  1  0  0  0
 24 25  1  0  0  0
 24 29  1  0  0  0
 25 26  1  0  0  0
 25 75  1  0  0  0
 25 76  1  0  0  0
 26 27  1  0  0  0
 26 28  1  0  0  0
 26 77  1  0  0  0
 27 78  1  0  0  0
 27 79  1  0  0  0
 27 80  1  0  0  0
 28 81  1  0  0  0
 28 82  1  0  0  0
 28 83  1  0  0  0
 29 30  2  0  0  0
 29 31  2  0  0  0
 29 32  1  0  0  0
 32 33  2  0  0  0
 32 39  1  0  0  0
 33 34  1  0  0  0
 33 84  1  0  0  0
 34 35  2  0  0  0
 34 85  1  0  0  0
 35 36  1  0  0  0
 35 38  1  0  0  0
 36 37  1  0  0  0
 37 86  1  0  0  0
 37 87  1  0  0  0
 37 88  1  0  0  0
 38 39  2  0  0  0
 38 89  1  0  0  0
 39 90  1  0  0  0
 40 41  2  0  0  0
 40 42  1  0  0  0
 42 43  1  0  0  0
 43 44  1  0  0  0
 43 91  1  0  0  0
 44 45  1  0  0  0
 44 92  1  0  0  0
 44 93  1  0  0  0
 45 46  1  0  0  0
 46 47  1  0  0  0
 46 94  1  0  0  0
 47 48  1  0  0  0
 48 49  1  0  0  0
 48 95  1  0  0  0
 48 96  1  0  0  0
 49 97  1  0  0  0
 49 98  1  0  0  0
M  END
> <s_m_source_file>
../2i4x_ligand.sdf

> <i_m_source_file_index>
1

> <s_epik_input>
W0NIM11PYyhbY0hdW2NIXTEpW2NIXVtjSF1jMVMoPU8pKD1PKU4oW0NIMl1bQ0hdKFtDSDNdKVtDSDNdKVtDSDJdW0NAQEhdKFtPSF0pW0NAQEhdKFtOSF1DKD1PKU9bQ0BIXTJbQ0gyXU9bQ0BIXShbQ0BIXTIzKU9bQ0gyXVtDSDJdMylbQ0gyXWM0W2NIXVtjSF1jKFtjSF1bY0hdNClPW0NIMl1QKD1PKShPW0NIMl1bQ0gzXSlPW0NIMl1bQ0gzXQ==

> <s_epik_cmdline>
J2VwaWtfYXBwJywgJy1pbWFlJywgJ2xpZ2FuZF9wcm8ubWFlJywgJy1vbWFlJywgJ2xpZ2FuZF9wcmVwLm1hZScsICctbXMnLCAnMScsICctcGgnLCAnNycsICctcGh0JywgJzAuNScsICctbnQn

> <r_lp_tautomer_probability>
1

> <r_epik_Ionization_Penalty>
  0.0000

> <r_epik_Ionization_Penalty_Charging>
  0.0000

> <r_epik_Ionization_Penalty_Neutral>
  0.0000

> <r_epik_State_Penalty>
 -0.0000

> <r_epik_Charging_Adjusted_Penalty>
0

> <i_epik_Tot_Q>
0

> <i_epik_Tot_abs_Q>
0

> <s_epik_Chemistry_Notes>
This compound has an ester and may undergo hydrolysis at high or low pH. This compound contains an acetal/aminal-like group ( X-CH(R)-Y where X, Y are N, S, or O) that may be acid/base labile, releasing an aldehyde.

$$$$
