2i4z_ligand
                    3D
 Schrodinger Suite 2020-3.
 68 70  0  0  1  0            999 V2000
   20.3000   20.6650   17.3190 C   0  0  0  0  0  0
   19.4260   19.9370   18.3420 C   0  0  0  0  0  0
   20.2080   18.8450   19.0780 C   0  0  2  0  0  0
   19.3130   18.1370   20.1000 C   0  0  0  0  0  0
   19.8810   17.5570   21.0510 O   0  5  0  0  0  0
   18.0780   18.1780   19.9110 O   0  0  0  0  0  0
   21.3870   19.4650   19.8330 C   0  0  0  0  0  0
   20.7490   17.9110   18.1350 O   0  0  0  0  0  0
   19.9920   17.1370   17.3030 C   0  0  0  0  0  0
   18.7520   16.6200   17.6720 C   0  0  0  0  0  0
   18.0570   15.7740   16.8100 C   0  0  0  0  0  0
   20.5230   16.8090   16.0590 C   0  0  0  0  0  0
   19.8300   15.9640   15.1970 C   0  0  0  0  0  0
   18.5960   15.4410   15.5700 C   0  0  0  0  0  0
   17.8990   14.4570   14.6240 C   0  0  0  0  0  0
   16.3690   14.5010   14.6760 C   0  0  0  0  0  0
   15.7340   15.2790   13.5980 N   0  0  0  0  0  0
   14.2710   15.2320   13.4370 C   0  0  0  0  0  0
   13.5840   14.5440   14.6180 C   0  0  0  0  0  0
   12.0750   14.4180   14.4020 C   0  0  0  0  0  0
   11.4290   13.8830   15.6810 C   0  0  0  0  0  0
    9.9140   13.7210   15.5420 C   0  0  0  0  0  0
    9.2820   13.3410   16.8830 C   0  0  0  0  0  0
    9.8490   12.0280   17.4290 C   0  0  0  0  0  0
   16.4220   15.8790   12.6270 C   0  0  0  0  0  0
   17.7700   15.7870   12.4210 O   0  0  0  0  0  0
   18.0220   16.4680   11.2650 C   0  0  0  0  0  0
   19.1880   16.6990   10.5420 C   0  0  0  0  0  0
   19.1370   17.4280    9.3570 C   0  0  0  0  0  0
   17.9210   17.9260    8.8990 C   0  0  0  0  0  0
   16.7540   17.6960    9.6210 C   0  0  0  0  0  0
   16.8070   16.9640   10.8030 C   0  0  0  0  0  0
   15.8580   16.5890   11.6550 N   0  0  0  0  0  0
   19.7046   21.4391   16.8129 H   0  0  0  0  0  0
   20.6722   19.9444   16.5759 H   0  0  0  0  0  0
   21.1517   21.1349   17.8327 H   0  0  0  0  0  0
   19.0538   20.6576   19.0851 H   0  0  0  0  0  0
   18.5743   19.4671   17.8283 H   0  0  0  0  0  0
   21.0103   20.1904   20.5691 H   0  0  0  0  0  0
   22.0505   19.9767   19.1203 H   0  0  0  0  0  0
   21.9472   18.6733   20.3520 H   0  0  0  0  0  0
   18.3232   16.8787   18.6402 H   0  0  0  0  0  0
   17.0885   15.3717   17.1073 H   0  0  0  0  0  0
   21.4880   17.2166   15.7578 H   0  0  0  0  0  0
   20.2558   15.7111   14.2260 H   0  0  0  0  0  0
   18.1901   14.6773   13.5863 H   0  0  0  0  0  0
   18.1981   13.4295   14.8784 H   0  0  0  0  0  0
   15.9702   13.4783   14.6048 H   0  0  0  0  0  0
   16.0473   14.9548   15.6250 H   0  0  0  0  0  0
   13.8774   16.2564   13.3611 H   0  0  0  0  0  0
   14.0205   14.6742   12.5226 H   0  0  0  0  0  0
   14.0001   13.5339   14.7465 H   0  0  0  0  0  0
   13.7542   15.1299   15.5333 H   0  0  0  0  0  0
   11.6554   15.4058   14.1609 H   0  0  0  0  0  0
   11.8802   13.7241   13.5710 H   0  0  0  0  0  0
   11.8561   12.8987   15.9235 H   0  0  0  0  0  0
   11.6225   14.5807   16.5091 H   0  0  0  0  0  0
    9.4739   14.6689   15.1989 H   0  0  0  0  0  0
    9.6955   12.9292   14.8103 H   0  0  0  0  0  0
    9.4793   14.1342   17.6192 H   0  0  0  0  0  0
    8.1960   13.2209   16.7556 H   0  0  0  0  0  0
    9.3691   11.7931   18.3905 H   0  0  0  0  0  0
   10.9343   12.1304   17.5762 H   0  0  0  0  0  0
    9.6510   11.2171   16.7126 H   0  0  0  0  0  0
   20.1401   16.3098   10.9028 H   0  0  0  0  0  0
   20.0491   17.6086    8.7882 H   0  0  0  0  0  0
   17.8826   18.4980    7.9719 H   0  0  0  0  0  0
   15.8022   18.0877    9.2621 H   0  0  0  0  0  0
  1  2  1  0  0  0
  1 34  1  0  0  0
  1 35  1  0  0  0
  1 36  1  0  0  0
  2  3  1  0  0  0
  2 37  1  0  0  0
  2 38  1  0  0  0
  3  4  1  0  0  0
  3  7  1  0  0  0
  3  8  1  0  0  0
  4  5  1  0  0  0
  4  6  2  0  0  0
  7 39  1  0  0  0
  7 40  1  0  0  0
  7 41  1  0  0  0
  8  9  1  0  0  0
  9 10  2  0  0  0
  9 12  1  0  0  0
 10 11  1  0  0  0
 10 42  1  0  0  0
 11 14  2  0  0  0
 11 43  1  0  0  0
 12 13  2  0  0  0
 12 44  1  0  0  0
 13 14  1  0  0  0
 13 45  1  0  0  0
 14 15  1  0  0  0
 15 16  1  0  0  0
 15 46  1  0  0  0
 15 47  1  0  0  0
 16 17  1  0  0  0
 16 48  1  0  0  0
 16 49  1  0  0  0
 17 18  1  0  0  0
 17 25  1  0  0  0
 18 19  1  0  0  0
 18 50  1  0  0  0
 18 51  1  0  0  0
 19 20  1  0  0  0
 19 52  1  0  0  0
 19 53  1  0  0  0
 20 21  1  0  0  0
 20 54  1  0  0  0
 20 55  1  0  0  0
 21 22  1  0  0  0
 21 56  1  0  0  0
 21 57  1  0  0  0
 22 23  1  0  0  0
 22 58  1  0  0  0
 22 59  1  0  0  0
 23 24  1  0  0  0
 23 60  1  0  0  0
 23 61  1  0  0  0
 24 62  1  0  0  0
 24 63  1  0  0  0
 24 64  1  0  0  0
 25 26  1  0  0  0
 25 33  2  0  0  0
 26 27  1  0  0  0
 27 28  1  0  0  0
 27 32  2  0  0  0
 28 29  2  0  0  0
 28 65  1  0  0  0
 29 30  1  0  0  0
 29 66  1  0  0  0
 30 31  2  0  0  0
 30 67  1  0  0  0
 31 32  1  0  0  0
 31 68  1  0  0  0
 32 33  1  0  0  0
M  CHG  1   5  -1
M  END
> <s_m_source_file>
../2i4z_ligand.sdf

> <i_m_source_file_index>
1

> <s_epik_input>
W0NIM11bQ0gyXVtDQEBdKFtDSDNdKShDKD1PKVtPSF0pT2MxW2NIXVtjSF1jKFtjSF1bY0hdMSlbQ0gyXVtDSDJdTihbQ0gyXVtDSDJdW0NIMl1bQ0gyXVtDSDJdW0NIMl1bQ0gzXSljKG8yKW5jKGMyMylbY0hdW2NIXVtjSF1bY0hdMw==

> <s_epik_cmdline>
J2VwaWtfYXBwJywgJy1pbWFlJywgJ2xpZ2FuZF9wcm8ubWFlJywgJy1vbWFlJywgJ2xpZ2FuZF9wcmVwLm1hZScsICctbXMnLCAnMScsICctcGgnLCAnNycsICctcGh0JywgJzAuNScsICctbnQn

> <r_lp_tautomer_probability>
1

> <r_epik_Ionization_Penalty>
  0.0019

> <r_epik_Ionization_Penalty_Charging>
  0.0001

> <r_epik_Ionization_Penalty_Neutral>
  0.0018

> <r_epik_State_Penalty>
 -0.0000

> <r_epik_Charging_Adjusted_Penalty>
0.000112598334883234

> <i_epik_Tot_Q>
-1

> <i_epik_Tot_abs_Q>
1

$$$$
