2i5f_ligand
                    3D
 Schrodinger Suite 2020-3.
 43 43  0  0  1  0            999 V2000
    8.2380  -12.1180   -1.1220 O   0  5  0  0  0  0
    6.7460  -11.9940   -1.5930 P   0  0  0  0  0  0
    6.0610  -11.9810   -0.2150 O   0  0  0  0  0  0
    6.5320  -10.8890   -2.7230 O   0  0  0  0  0  0
    6.4800  -13.3750   -2.4520 O   0  0  0  0  0  0
    5.5470  -13.1170   -3.5690 C   0  0  1  0  0  0
    6.3110  -13.4070   -4.8190 C   0  0  1  0  0  0
    7.6520  -13.6940   -4.3980 O   0  0  0  0  0  0
    9.1930  -13.6790   -4.9380 P   0  0  0  0  0  0
    9.1830  -14.8520   -5.9030 O   0  0  0  0  0  0
    9.5240  -12.3360   -5.5690 O   0  5  0  0  0  0
    9.8530  -13.8860   -3.5820 O   0  0  0  0  0  0
    4.3270  -13.9740   -3.4360 C   0  0  1  0  0  0
    3.5100  -13.6330   -2.4900 O   0  0  0  0  0  0
    3.1210  -14.3000   -1.0760 P   0  0  0  0  0  0
    2.5210  -15.6970   -1.0350 O   0  5  0  0  0  0
    2.3250  -13.0160   -0.9970 O   0  0  0  0  0  0
    4.7410  -14.1120   -0.1150 O   0  5  0  0  0  0
    3.4240  -14.5710   -4.6550 C   0  0  2  0  0  0
    2.5270  -15.6900   -4.2220 O   0  0  0  0  0  0
    4.3190  -15.2390   -5.6470 C   0  0  1  0  0  0
    3.4120  -15.3670   -6.7740 O   0  0  0  0  0  0
    3.7230  -16.3320   -8.0050 P   0  0  0  0  0  0
    3.6860  -15.5280   -9.2890 O   0  0  0  0  0  0
    5.0450  -17.0370   -7.6940 O   0  5  0  0  0  0
    2.4670  -17.1930   -7.8360 O   0  0  0  0  0  0
    5.5910  -14.3390   -5.8600 C   0  0  1  0  0  0
    5.1660  -13.1550   -6.4360 O   0  0  0  0  0  0
    5.7630  -12.8790   -7.8900 P   0  0  0  0  0  0
    7.1810  -12.3030   -7.9580 O   0  0  0  0  0  0
    5.8820  -14.2270   -8.6340 O   0  5  0  0  0  0
    4.6830  -11.9190   -8.4710 O   0  0  0  0  0  0
    6.6395   -9.8224   -2.4766 H   0  0  0  0  0  0
    5.1934  -12.0754   -3.5690 H   0  0  0  0  0  0
    6.4500  -12.5039   -5.4314 H   0  0  0  0  0  0
    9.6878  -14.8212   -3.0269 H   0  0  0  0  0  0
    4.9513  -14.7245   -2.9290 H   0  0  0  0  0  0
    2.8167  -13.7689   -5.0998 H   0  0  0  0  0  0
    1.7396  -15.5065   -3.4761 H   0  0  0  0  0  0
    4.6895  -16.2457   -5.4037 H   0  0  0  0  0  0
    1.4747  -16.7640   -8.0390 H   0  0  0  0  0  0
    6.2229  -15.1254   -6.2985 H   0  0  0  0  0  0
    4.5195  -10.9328   -8.0120 H   0  0  0  0  0  0
  1  2  1  0  0  0
  2  3  2  0  0  0
  2  4  1  0  0  0
  2  5  1  0  0  0
  4 33  1  0  0  0
  5  6  1  0  0  0
  6  7  1  0  0  0
  6 13  1  0  0  0
  6 34  1  0  0  0
  7  8  1  0  0  0
  7 27  1  0  0  0
  7 35  1  0  0  0
  8  9  1  0  0  0
  9 10  2  0  0  0
  9 11  1  0  0  0
  9 12  1  0  0  0
 12 36  1  0  0  0
 13 14  1  0  0  0
 13 19  1  0  0  0
 13 37  1  0  0  0
 14 15  1  0  0  0
 15 16  1  0  0  0
 15 17  2  0  0  0
 15 18  1  0  0  0
 19 20  1  0  0  0
 19 21  1  0  0  0
 19 38  1  0  0  0
 20 39  1  0  0  0
 21 22  1  0  0  0
 21 27  1  0  0  0
 21 40  1  0  0  0
 22 23  1  0  0  0
 23 24  2  0  0  0
 23 25  1  0  0  0
 23 26  1  0  0  0
 26 41  1  0  0  0
 27 28  1  0  0  0
 27 42  1  0  0  0
 28 29  1  0  0  0
 29 30  2  0  0  0
 29 31  1  0  0  0
 29 32  1  0  0  0
 32 43  1  0  0  0
M  CHG  6   1  -1  11  -1  16  -1  18  -1  25  -1  31  -1
M  END
> <s_m_source_file>
../2i5f_ligand.sdf

> <i_m_source_file_index>
1

> <s_epik_input>
W09IXVAoPU8pKFtPSF0pT1tDQEhdMVtDQEBIXShPUCg9TykoW09IXSlbT0hdKVtDQEhdKE9QKD1PKShbT0hdKVtPSF0pW0NASF0oT1AoPU8pKFtPSF0pW09IXSlbQ0BASF0oW09IXSlbQ0BASF0xT1AoPU8pKFtPSF0pW09IXQ==

> <s_epik_cmdline>
J2VwaWtfYXBwJywgJy1pbWFlJywgJ2xpZ2FuZF9wcm8ubWFlJywgJy1vbWFlJywgJ2xpZ2FuZF9wcmVwLm1hZScsICctbXMnLCAnMScsICctcGgnLCAnNycsICctcGh0JywgJzAuNScsICctbnQn

> <r_epik_Ionization_Penalty>
  4.1075

> <r_epik_Ionization_Penalty_Charging>
  0.0501

> <r_epik_Ionization_Penalty_Neutral>
  4.0574

> <r_epik_State_Penalty>
  0.5355

> <r_epik_Charging_Adjusted_Penalty>
0.585601778186019

> <i_epik_Tot_Q>
-6

> <i_epik_Tot_abs_Q>
6

$$$$
