2i6a_ligand
                    3D
 Schrodinger Suite 2020-3.
 32 34  0  0  1  0            999 V2000
    9.2040  -23.2940   19.1150 N   0  0  0  0  0  0
    8.7190  -23.4210   20.3710 C   0  0  0  0  0  0
    8.5670  -22.3240   21.2160 C   0  0  0  0  0  0
    8.9590  -21.0670   20.6700 C   0  0  0  0  0  0
    9.4360  -20.9480   19.4080 N   0  0  0  0  0  0
    9.5560  -22.0680   18.6690 C   0  0  0  0  0  0
    8.1130  -22.0690   22.5680 C   0  0  0  0  0  0
    8.2590  -20.6790   22.7740 C   0  0  0  0  0  0
    8.7520  -20.0790   21.6460 N   0  0  0  0  0  0
    7.4000  -23.3900   23.9530 I   0  0  0  0  0  0
    8.4410  -24.6810   20.7050 N   0  0  0  0  0  0
    8.0150  -16.4550   21.7470 C   0  0  1  0  0  0
    7.6100  -17.9290   21.5380 C   0  0  2  0  0  0
    8.9670  -18.6270   21.4660 C   0  0  1  0  0  0
    9.6500  -17.9920   22.5080 O   0  0  0  0  0  0
    9.4020  -16.6020   22.4110 C   0  0  2  0  0  0
    8.1030  -15.8420   20.4740 O   0  0  0  0  0  0
    6.7620  -18.0930   20.3650 O   0  0  0  0  0  0
    9.4530  -15.9540   23.7960 C   0  0  0  0  0  0
    9.9577  -21.9807   17.6595 H   0  0  0  0  0  0
    8.0140  -20.1580   23.6995 H   0  0  0  0  0  0
    8.5905  -25.4895   19.9742 H   0  0  0  0  0  0
    8.0621  -24.9124   21.7114 H   0  0  0  0  0  0
    7.3154  -15.7959   22.2819 H   0  0  0  0  0  0
    6.9446  -18.3745   22.2922 H   0  0  0  0  0  0
    9.5881  -18.5439   20.5619 H   0  0  0  0  0  0
   10.2076  -16.1614   21.8053 H   0  0  0  0  0  0
    7.1920  -15.6715   19.8815 H   0  0  0  0  0  0
    5.7681  -17.6227   20.3348 H   0  0  0  0  0  0
    9.2585  -14.8753   23.7035 H   0  0  0  0  0  0
   10.4482  -16.1106   24.2377 H   0  0  0  0  0  0
    8.6889  -16.4102   24.4426 H   0  0  0  0  0  0
  1  2  1  0  0  0
  1  6  2  0  0  0
  2  3  2  0  0  0
  2 11  1  0  0  0
  3  4  1  0  0  0
  3  7  1  0  0  0
  4  5  2  0  0  0
  4  9  1  0  0  0
  5  6  1  0  0  0
  6 20  1  0  0  0
  7  8  2  0  0  0
  7 10  1  0  0  0
  8  9  1  0  0  0
  8 21  1  0  0  0
  9 14  1  0  0  0
 11 22  1  0  0  0
 11 23  1  0  0  0
 12 13  1  0  0  0
 12 16  1  0  0  0
 12 17  1  0  0  0
 12 24  1  0  0  0
 13 14  1  0  0  0
 13 18  1  0  0  0
 13 25  1  0  0  0
 14 15  1  0  0  0
 14 26  1  0  0  0
 15 16  1  0  0  0
 16 19  1  0  0  0
 16 27  1  0  0  0
 17 28  1  0  0  0
 18 29  1  0  0  0
 19 30  1  0  0  0
 19 31  1  0  0  0
 19 32  1  0  0  0
M  END
> <s_m_source_file>
../2i6a_ligand.sdf

> <i_m_source_file_index>
1

> <s_epik_input>
W05IMl1jMW5bY0hdbmMoYzEyKW4oW2NIXWMySSlbQ0BASF0oW0NASF0oW09IXSlbQ0BASF0zW09IXSlPW0NAQEhdM1tDSDNd

> <s_epik_cmdline>
J2VwaWtfYXBwJywgJy1pbWFlJywgJ2xpZ2FuZF9wcm8ubWFlJywgJy1vbWFlJywgJ2xpZ2FuZF9wcmVwLm1hZScsICctbXMnLCAnMScsICctcGgnLCAnNycsICctcGh0JywgJzAuNScsICctbnQn

> <r_lp_tautomer_probability>
1

> <r_epik_Ionization_Penalty>
  0.0004

> <r_epik_Ionization_Penalty_Charging>
  0.0000

> <r_epik_Ionization_Penalty_Neutral>
  0.0004

> <r_epik_State_Penalty>
 -0.0000

> <r_epik_Charging_Adjusted_Penalty>
0

> <i_epik_Tot_Q>
0

> <i_epik_Tot_abs_Q>
0

> <s_epik_Chemistry_Notes>
This compound contains an acetal/aminal-like group ( X-CH(R)-Y where X, Y are N, S, or O) that may be acid/base labile, releasing an aldehyde.

$$$$
