2i6b_ligand
                    3D
 Schrodinger Suite 2020-3.
 54 57  0  0  1  0            999 V2000
    5.4310   -2.7960   30.0430 C   0  0  0  0  0  0
    4.4190   -3.0710   29.2520 N   0  0  0  0  0  0
    4.7550   -3.0830   27.9580 C   0  0  0  0  0  0
    5.9930   -2.8350   27.4290 C   0  0  0  0  0  0
    6.9530   -2.5590   28.3860 C   0  0  0  0  0  0
    6.6810   -2.5210   29.6860 N   0  0  0  0  0  0
    6.2730   -2.9550   26.0070 C   0  0  0  0  0  0
    6.2180   -4.2190   25.5030 C   0  0  0  0  0  0
    6.4990   -4.4980   24.1820 C   0  0  0  0  0  0
    6.8320   -3.5190   23.2900 C   0  0  0  0  0  0
    6.8550   -2.2340   23.7990 C   0  0  0  0  0  0
    6.5930   -1.9570   25.1290 C   0  0  0  0  0  0
    0.7700   -3.2230   25.0930 C   0  0  0  0  0  0
   -0.0470   -3.0390   24.0520 N   0  0  0  0  0  0
    0.5830   -2.9290   22.8590 C   0  0  0  0  0  0
    1.9640   -2.9820   22.7140 C   0  0  0  0  0  0
    2.7630   -3.1410   23.8310 C   0  0  0  0  0  0
    2.1300   -3.2900   25.0350 C   0  0  0  0  0  0
    0.6130   -2.5050   20.4470 C   0  0  0  0  0  0
   -0.2360   -2.9250   19.2490 C   0  0  0  0  0  0
   -1.5580   -2.4180   19.4650 O   0  0  0  0  0  0
   -2.1700   -3.0110   20.5860 C   0  0  0  0  0  0
   -1.5180   -2.4170   21.8120 C   0  0  0  0  0  0
   -0.1540   -2.7770   21.6690 N   0  0  0  0  0  0
    3.7200   -3.3910   27.0540 C   0  0  0  0  0  0
    2.8540   -3.4130   26.1980 C   0  0  0  0  0  0
    7.1100   -3.9290   21.9500 N   0  0  0  0  0  0
    7.6530   -2.9050   21.0350 C   0  0  0  0  0  0
    8.0330   -5.0450   22.1150 C   0  0  0  0  0  0
    8.2440   -2.2920   27.9870 N   0  0  0  0  0  0
    5.2218   -2.7931   31.1127 H   0  0  0  0  0  0
    5.9423   -5.0385   26.1667 H   0  0  0  0  0  0
    6.4539   -5.5317   23.8393 H   0  0  0  0  0  0
    7.0883   -1.4079   23.1273 H   0  0  0  0  0  0
    6.6425   -0.9270   25.4823 H   0  0  0  0  0  0
    0.3084   -3.3288   26.0747 H   0  0  0  0  0  0
    2.4148   -2.8987   21.7251 H   0  0  0  0  0  0
    3.8504   -3.1474   23.7558 H   0  0  0  0  0  0
    1.5501   -3.0810   20.4522 H   0  0  0  0  0  0
    0.8427   -1.4317   20.3753 H   0  0  0  0  0  0
    0.1939   -2.5025   18.3288 H   0  0  0  0  0  0
   -0.2505   -4.0225   19.1766 H   0  0  0  0  0  0
   -3.2478   -2.7914   20.5743 H   0  0  0  0  0  0
   -2.0173   -4.0999   20.5539 H   0  0  0  0  0  0
   -1.6652   -1.3269   21.8138 H   0  0  0  0  0  0
   -1.9727   -2.8499   22.7153 H   0  0  0  0  0  0
    6.9304   -2.0815   20.9361 H   0  0  0  0  0  0
    7.8340   -3.3546   20.0475 H   0  0  0  0  0  0
    8.5990   -2.5161   21.4399 H   0  0  0  0  0  0
    7.5949   -5.7847   22.8012 H   0  0  0  0  0  0
    8.9828   -4.6770   22.5303 H   0  0  0  0  0  0
    8.2178   -5.5154   21.1380 H   0  0  0  0  0  0
    8.5053   -2.3145   26.9187 H   0  0  0  0  0  0
    9.0137   -2.0563   28.7366 H   0  0  0  0  0  0
  1  2  2  0  0  0
  1  6  1  0  0  0
  1 31  1  0  0  0
  2  3  1  0  0  0
  3  4  2  0  0  0
  3 25  1  0  0  0
  4  5  1  0  0  0
  4  7  1  0  0  0
  5  6  2  0  0  0
  5 30  1  0  0  0
  7  8  2  0  0  0
  7 12  1  0  0  0
  8  9  1  0  0  0
  8 32  1  0  0  0
  9 10  2  0  0  0
  9 33  1  0  0  0
 10 11  1  0  0  0
 10 27  1  0  0  0
 11 12  2  0  0  0
 11 34  1  0  0  0
 12 35  1  0  0  0
 13 14  2  0  0  0
 13 18  1  0  0  0
 13 36  1  0  0  0
 14 15  1  0  0  0
 15 16  2  0  0  0
 15 24  1  0  0  0
 16 17  1  0  0  0
 16 37  1  0  0  0
 17 18  2  0  0  0
 17 38  1  0  0  0
 18 26  1  0  0  0
 19 20  1  0  0  0
 19 24  1  0  0  0
 19 39  1  0  0  0
 19 40  1  0  0  0
 20 21  1  0  0  0
 20 41  1  0  0  0
 20 42  1  0  0  0
 21 22  1  0  0  0
 22 23  1  0  0  0
 22 43  1  0  0  0
 22 44  1  0  0  0
 23 24  1  0  0  0
 23 45  1  0  0  0
 23 46  1  0  0  0
 25 26  3  0  0  0
 27 28  1  0  0  0
 27 29  1  0  0  0
 28 47  1  0  0  0
 28 48  1  0  0  0
 28 49  1  0  0  0
 29 50  1  0  0  0
 29 51  1  0  0  0
 29 52  1  0  0  0
 30 53  1  0  0  0
 30 54  1  0  0  0
M  END
> <s_m_source_file>
../2i6b_ligand.sdf

> <i_m_source_file_index>
1

> <s_epik_input>
W2NIXTFbY0hdYyhOKFtDSDNdKVtDSDNdKVtjSF1bY0hdYzEtYzJjKFtOSDJdKW5bY0hdbmMyQyNDYyhbY0hdW2NIXTMpW2NIXW5jM040W0NIMl1bQ0gyXU9bQ0gyXVtDSDJdNA==

> <s_epik_cmdline>
J2VwaWtfYXBwJywgJy1pbWFlJywgJ2xpZ2FuZF9wcm8ubWFlJywgJy1vbWFlJywgJ2xpZ2FuZF9wcmVwLm1hZScsICctbXMnLCAnMScsICctcGgnLCAnNycsICctcGh0JywgJzAuNScsICctbnQn

> <r_lp_tautomer_probability>
1

> <r_epik_Ionization_Penalty>
  0.0017

> <r_epik_Ionization_Penalty_Charging>
  0.0000

> <r_epik_Ionization_Penalty_Neutral>
  0.0017

> <r_epik_State_Penalty>
 -0.0000

> <r_epik_Charging_Adjusted_Penalty>
0

> <i_epik_Tot_Q>
0

> <i_epik_Tot_abs_Q>
0

$$$$
