2i72_ligand
                    3D
 Schrodinger Suite 2020-3.
 28 29  0  0  1  0            999 V2000
   -5.7190    9.8390   51.3750 O   0  0  0  0  0  0
   -6.8250    9.2880   51.4780 C   0  0  0  0  0  0
   -6.9880    8.1230   51.9970 N   0  0  0  0  0  0
   -8.1510    7.6340   52.2240 C   0  0  0  0  0  0
   -9.1950    8.2680   52.0380 O   0  0  0  0  0  0
   -5.8300    7.2950   52.3390 C   0  0  0  0  0  0
   -5.3530    7.3740   53.7820 C   0  0  0  0  0  0
   -4.8830    6.1980   54.3670 C   0  0  0  0  0  0
   -4.4050    6.1840   55.6770 C   0  0  0  0  0  0
   -3.8900    5.0230   56.3860 C   0  0  0  0  0  0
   -5.3300    8.5790   54.5190 C   0  0  0  0  0  0
   -4.8750    8.5870   55.8490 C   0  0  0  0  0  0
   -4.4140    7.3730   56.3860 C   0  0  0  0  0  0
   -3.7840    7.1590   57.9320 S   0  0  0  0  0  0
   -3.5090    5.4740   57.6460 C   0  0  0  0  0  0
   -2.9810    4.5280   58.7420 B   0  0  0  0  0  0
   -3.8110    3.2510   58.8410 O   0  0  0  0  0  0
   -2.7030    5.0980   60.1320 O   0  0  0  0  0  0
   -7.7296    9.7983   51.1155 H   0  0  0  0  0  0
   -8.1943    6.6015   52.6009 H   0  0  0  0  0  0
   -6.0685    6.2371   52.1548 H   0  0  0  0  0  0
   -4.9715    7.5908   51.7181 H   0  0  0  0  0  0
   -4.8895    5.2734   53.7898 H   0  0  0  0  0  0
   -3.8171    4.0039   56.0063 H   0  0  0  0  0  0
   -5.6663    9.5060   54.0546 H   0  0  0  0  0  0
   -4.8796    9.5015   56.4421 H   0  0  0  0  0  0
   -4.1004    2.7109   57.9275 H   0  0  0  0  0  0
   -2.1146    6.0211   60.2403 H   0  0  0  0  0  0
  1  2  2  0  0  0
  2  3  1  0  0  0
  2 19  1  0  0  0
  3  4  1  0  0  0
  3  6  1  0  0  0
  4  5  2  0  0  0
  4 20  1  0  0  0
  6  7  1  0  0  0
  6 21  1  0  0  0
  6 22  1  0  0  0
  7  8  1  0  0  0
  7 11  2  0  0  0
  8  9  2  0  0  0
  8 23  1  0  0  0
  9 10  1  0  0  0
  9 13  1  0  0  0
 10 15  2  0  0  0
 10 24  1  0  0  0
 11 12  1  0  0  0
 11 25  1  0  0  0
 12 13  2  0  0  0
 12 26  1  0  0  0
 13 14  1  0  0  0
 14 15  1  0  0  0
 15 16  1  0  0  0
 16 17  1  0  0  0
 16 18  1  0  0  0
 17 27  1  0  0  0
 18 28  1  0  0  0
M  END
> <s_m_source_file>
../2i72_ligand.sdf

> <i_m_source_file_index>
1

> <s_epik_input>
Tz1bQ0hdTihbQ0hdPU8pW0NIMl1jKFtjSF0xKVtjSF1bY0hdYyhjMTIpc2MoW2NIXTIpQihbT0hdKVtPSF0=

> <s_epik_cmdline>
J2VwaWtfYXBwJywgJy1pbWFlJywgJ2xpZ2FuZF9wcm8ubWFlJywgJy1vbWFlJywgJ2xpZ2FuZF9wcmVwLm1hZScsICctbXMnLCAnMScsICctcGgnLCAnNycsICctcGh0JywgJzAuNScsICctbnQn

> <r_lp_tautomer_probability>
1

> <r_epik_Ionization_Penalty>
  0.0000

> <r_epik_Ionization_Penalty_Charging>
  0.0000

> <r_epik_Ionization_Penalty_Neutral>
  0.0000

> <r_epik_State_Penalty>
 -0.0000

> <r_epik_Charging_Adjusted_Penalty>
0

> <i_epik_Tot_Q>
0

> <i_epik_Tot_abs_Q>
0

> <s_epik_Chemistry_Notes>
This compound contains a Lewis acid (boronic acid) which adds nucleophiles to form tetrahedral complexes, lowering the experimental pKa

$$$$
