2i7c_ligand
                    3D
 Schrodinger Suite 2020-3.
 60 62  0  0  1  0            999 V2000
   12.9340  113.1580   32.2670 N   0  3  0  0  0  0
   12.2760  114.1620   31.4080 C   0  0  0  0  0  0
   13.3360  114.6800   30.6750 C   0  0  0  0  0  0
   13.6450  114.6990   29.3220 C   0  0  0  0  0  0
   15.1650  115.4200   28.7920 S   0  0  0  0  0  0
   16.3750  115.0470   30.1310 C   0  0  0  0  0  0
   17.8070  115.6890   29.9140 C   0  0  1  0  0  0
   18.5280  115.4350   28.6660 O   0  0  0  0  0  0
   17.8270  117.2380   30.0410 C   0  0  1  0  0  0
   18.1270  117.5520   31.3990 O   0  0  0  0  0  0
   18.9330  117.6690   29.0690 C   0  0  1  0  0  0
   19.8660  118.6580   29.5850 O   0  0  0  0  0  0
   19.6660  116.3420   28.8060 C   0  0  2  0  0  0
   20.5290  116.3540   27.5840 N   0  0  0  0  0  0
   20.2660  116.9640   26.4260 C   0  0  0  0  0  0
   21.2580  116.7570   25.5680 N   0  0  0  0  0  0
   22.1680  115.9900   26.1770 C   0  0  0  0  0  0
   23.3920  115.4500   25.7820 C   0  0  0  0  0  0
   23.8770  115.6710   24.5530 N   0  0  0  0  0  0
   24.0840  114.7090   26.6740 N   0  0  0  0  0  0
   23.6040  114.4860   27.8940 C   0  0  0  0  0  0
   22.4370  114.9870   28.2990 N   0  0  0  0  0  0
   21.7010  115.7430   27.4560 C   0  0  0  0  0  0
   12.6710  114.2370   28.2430 C   0  0  0  0  0  0
   12.0470  115.5070   27.6060 C   0  0  0  0  0  0
   11.3600  115.2180   26.2590 C   0  0  0  0  0  0
   10.7960  116.4950   25.5860 C   0  0  0  0  0  0
    9.6920  116.1550   24.5620 C   0  0  0  0  0  0
    9.3640  117.3490   23.7650 N   0  3  0  0  0  0
   12.1814  112.6716   32.9050 H   0  0  0  0  0  0
   13.6861  113.6527   32.8991 H   0  0  0  0  0  0
   13.4248  112.4015   31.6370 H   0  0  0  0  0  0
   11.5239  113.6673   30.7759 H   0  0  0  0  0  0
   11.7852  114.9185   32.0380 H   0  0  0  0  0  0
   14.0154  115.1505   31.4010 H   0  0  0  0  0  0
   15.9924  115.4307   31.0883 H   0  0  0  0  0  0
   16.5182  113.9587   30.2031 H   0  0  0  0  0  0
   18.3864  115.1415   30.6720 H   0  0  0  0  0  0
   16.8877  117.7829   29.8655 H   0  0  0  0  0  0
   17.4121  117.2937   32.1941 H   0  0  0  0  0  0
   18.5358  118.2144   28.2002 H   0  0  0  0  0  0
   19.5139  119.6708   29.8306 H   0  0  0  0  0  0
   20.3802  116.0359   29.5846 H   0  0  0  0  0  0
   19.3689  117.5463   26.2158 H   0  0  0  0  0  0
   23.3032  116.2764   23.8359 H   0  0  0  0  0  0
   24.8491  115.2470   24.2609 H   0  0  0  0  0  0
   24.1835  113.8738   28.5850 H   0  0  0  0  0  0
   13.2136  113.6529   27.4851 H   0  0  0  0  0  0
   11.8895  113.6109   28.6982 H   0  0  0  0  0  0
   11.2914  115.9254   28.2872 H   0  0  0  0  0  0
   12.8352  116.2537   27.4294 H   0  0  0  0  0  0
   12.0857  114.7661   25.5668 H   0  0  0  0  0  0
   10.5218  114.5232   26.4165 H   0  0  0  0  0  0
   10.3667  117.1552   26.3541 H   0  0  0  0  0  0
   11.6068  117.0217   25.0614 H   0  0  0  0  0  0
   10.0461  115.3574   23.8923 H   0  0  0  0  0  0
    8.7912  115.8145   25.0935 H   0  0  0  0  0  0
    8.5772  117.0997   23.0379 H   0  0  0  0  0  0
   10.2624  117.6911   23.2303 H   0  0  0  0  0  0
    9.0074  118.1481   24.4315 H   0  0  0  0  0  0
  1  2  1  0  0  0
  1 30  1  0  0  0
  1 31  1  0  0  0
  1 32  1  0  0  0
  2  3  1  0  0  0
  2 33  1  0  0  0
  2 34  1  0  0  0
  3  4  2  0  0  0
  3 35  1  0  0  0
  4  5  1  0  0  0
  4 24  1  0  0  0
  5  6  1  0  0  0
  6  7  1  0  0  0
  6 36  1  0  0  0
  6 37  1  0  0  0
  7  8  1  0  0  0
  7  9  1  0  0  0
  7 38  1  0  0  0
  8 13  1  0  0  0
  9 10  1  0  0  0
  9 11  1  0  0  0
  9 39  1  0  0  0
 10 40  1  0  0  0
 11 12  1  0  0  0
 11 13  1  0  0  0
 11 41  1  0  0  0
 12 42  1  0  0  0
 13 14  1  0  0  0
 13 43  1  0  0  0
 14 15  1  0  0  0
 14 23  1  0  0  0
 15 16  2  0  0  0
 15 44  1  0  0  0
 16 17  1  0  0  0
 17 18  2  0  0  0
 17 23  1  0  0  0
 18 19  1  0  0  0
 18 20  1  0  0  0
 19 45  1  0  0  0
 19 46  1  0  0  0
 20 21  2  0  0  0
 21 22  1  0  0  0
 21 47  1  0  0  0
 22 23  2  0  0  0
 24 25  1  0  0  0
 24 48  1  0  0  0
 24 49  1  0  0  0
 25 26  1  0  0  0
 25 50  1  0  0  0
 25 51  1  0  0  0
 26 27  1  0  0  0
 26 52  1  0  0  0
 26 53  1  0  0  0
 27 28  1  0  0  0
 27 54  1  0  0  0
 27 55  1  0  0  0
 28 29  1  0  0  0
 28 56  1  0  0  0
 28 57  1  0  0  0
 29 58  1  0  0  0
 29 59  1  0  0  0
 29 60  1  0  0  0
M  CHG  2   1   1  29   1
M  END
> <s_m_source_file>
../2i7c_ligand.sdf

> <i_m_source_file_index>
1

> <s_epik_input>
W05IMytdW0NIMl1bQ0gyXVtDSDJdW0NIMl1bQ0gyXUMoPVtDSF1cW0NIMl1bTkgzK10pL1NbQ0gyXVtDQEhdMU9bQ0BIXShbQ0BIXShbT0hdKVtDQEBIXTFbT0hdKW4oW2NIXW4yKWMoYzIzKW5bY0hdbmMzW05IMl0=

> <s_epik_cmdline>
J2VwaWtfYXBwJywgJy1pbWFlJywgJ2xpZ2FuZF9wcm8ubWFlJywgJy1vbWFlJywgJ2xpZ2FuZF9wcmVwLm1hZScsICctbXMnLCAnMScsICctcGgnLCAnNycsICctcGh0JywgJzAuNScsICctbnQn

> <r_lp_tautomer_probability>
0.999997216410988

> <r_epik_Ionization_Penalty>
  0.0139

> <r_epik_Ionization_Penalty_Charging>
  0.0135

> <r_epik_Ionization_Penalty_Neutral>
  0.0004

> <r_epik_State_Penalty>
  0.0102

> <r_epik_Charging_Adjusted_Penalty>
0.0237097028206032

> <i_epik_Tot_Q>
2

> <i_epik_Tot_abs_Q>
2

> <s_epik_Chemistry_Notes>
This compound contains an acetal/aminal-like group ( X-CH(R)-Y where X, Y are N, S, or O) that may be acid/base labile, releasing an aldehyde.

$$$$
