2ica_ligand
                    3D
 Schrodinger Suite 2020-3.
 56 60  0  0  1  0            999 V2000
   -5.9170   -0.3460   28.3750 C   0  0  0  0  0  0
   -5.3870   -0.1250   29.6500 C   0  0  0  0  0  0
   -7.8190    1.1030   28.8260 C   0  0  0  0  0  0
   -7.1200    0.2360   27.9440 C   0  0  0  0  0  0
  -10.1350    1.7020   29.1900 C   0  0  0  0  0  0
  -10.7030    2.5370   27.0990 C   0  0  2  0  0  0
  -10.9490    3.9460   26.5410 C   0  0  0  0  0  0
  -11.7360    3.7710   25.2940 N   0  0  2  0  0  0
  -11.4780    2.4260   24.8100 C   0  0  0  0  0  0
  -11.3600    1.6130   26.0770 C   0  0  1  0  0  0
  -10.8010    0.2210   25.9750 C   0  0  0  0  0  0
  -10.8020   -2.0610   26.8730 C   0  0  0  0  0  0
   -9.1710   -1.4240   25.1750 C   0  0  0  0  0  0
   -9.7220   -0.1330   25.1160 C   0  0  0  0  0  0
   -9.1980   -3.7090   26.0550 C   0  0  0  0  0  0
   -5.0550   -1.4000   27.3100 Cl  0  0  0  0  0  0
   -6.1080    0.7090   30.5060 C   0  0  0  0  0  0
   -7.2970    1.3340   30.1120 C   0  0  0  0  0  0
   -8.9920    1.6820   28.4480 N   0  0  0  0  0  0
  -11.1120    2.2600   28.4660 N   0  0  0  0  0  0
  -11.3580   -0.7730   26.8130 C   0  0  0  0  0  0
   -9.7150   -2.3790   26.0470 C   0  0  0  0  0  0
   -8.8040   -4.7980   26.0330 N   0  0  0  0  0  0
  -11.4910    4.6370   24.1370 C   0  0  0  0  0  0
  -12.1830    5.9530   24.2900 C   0  0  0  0  0  0
  -11.3500    7.2220   25.1550 S   0  0  0  0  0  0
  -12.7530    8.2560   25.0140 C   0  0  0  0  0  0
  -13.6670    7.7260   24.1900 C   0  0  0  0  0  0
  -13.3550    6.3550   23.7660 C   0  0  0  0  0  0
  -14.8570    8.4870   23.7440 C   0  0  0  0  0  0
  -15.6030    7.9730   22.8830 O   0  0  0  0  0  0
  -15.0660    9.6200   24.2290 O   0  5  0  0  0  0
   -9.2020    2.2330   27.2230 C   0  0  0  0  0  0
   -8.3850    2.4670   26.3330 O   0  0  0  0  0  0
  -12.4870    2.4400   28.9310 C   0  0  0  0  0  0
  -10.2820    1.2740   30.3330 O   0  0  0  0  0  0
   -5.5300    0.9450   32.1050 Cl  0  0  0  0  0  0
   -4.4495   -0.5850   29.9625 H   0  0  0  0  0  0
   -7.5113    0.0259   26.9486 H   0  0  0  0  0  0
  -11.5073    4.5404   27.2792 H   0  0  0  0  0  0
   -9.9842    4.4317   26.3332 H   0  0  0  0  0  0
  -12.3157    2.0969   24.1776 H   0  0  0  0  0  0
  -10.5493    2.4203   24.2205 H   0  0  0  0  0  0
  -12.3647    1.2973   26.3945 H   0  0  0  0  0  0
  -11.2115   -2.8061   27.5550 H   0  0  0  0  0  0
   -8.3213   -1.6835   24.5436 H   0  0  0  0  0  0
   -9.3234    0.5979   24.4124 H   0  0  0  0  0  0
   -7.8179    1.9990   30.8008 H   0  0  0  0  0  0
  -12.2312   -0.5358   27.4208 H   0  0  0  0  0  0
  -10.4107    4.8184   24.0370 H   0  0  0  0  0  0
  -11.8663    4.1472   23.2264 H   0  0  0  0  0  0
  -12.8691    9.2091   25.5300 H   0  0  0  0  0  0
  -13.9855    5.7475   23.1168 H   0  0  0  0  0  0
  -12.5528    2.1684   29.9949 H   0  0  0  0  0  0
  -13.1593    1.7954   28.3457 H   0  0  0  0  0  0
  -12.7830    3.4916   28.8020 H   0  0  0  0  0  0
  1  2  2  0  0  0
  1  4  1  0  0  0
  1 16  1  0  0  0
  2 17  1  0  0  0
  2 38  1  0  0  0
  3  4  2  0  0  0
  3 18  1  0  0  0
  3 19  1  0  0  0
  4 39  1  0  0  0
  5 19  1  0  0  0
  5 20  1  0  0  0
  5 36  2  0  0  0
  6  7  1  0  0  0
  6 10  1  0  0  0
  6 20  1  0  0  0
  6 33  1  0  0  0
  7  8  1  0  0  0
  7 40  1  0  0  0
  7 41  1  0  0  0
  8  9  1  0  0  0
  8 24  1  0  0  0
  9 10  1  0  0  0
  9 42  1  0  0  0
  9 43  1  0  0  0
 10 11  1  0  0  0
 10 44  1  0  0  0
 11 14  2  0  0  0
 11 21  1  0  0  0
 12 21  2  0  0  0
 12 22  1  0  0  0
 12 45  1  0  0  0
 13 14  1  0  0  0
 13 22  2  0  0  0
 13 46  1  0  0  0
 14 47  1  0  0  0
 15 22  1  0  0  0
 15 23  3  0  0  0
 17 18  2  0  0  0
 17 37  1  0  0  0
 18 48  1  0  0  0
 19 33  1  0  0  0
 20 35  1  0  0  0
 21 49  1  0  0  0
 24 25  1  0  0  0
 24 50  1  0  0  0
 24 51  1  0  0  0
 25 26  1  0  0  0
 25 29  2  0  0  0
 26 27  1  0  0  0
 27 28  2  0  0  0
 27 52  1  0  0  0
 28 29  1  0  0  0
 28 30  1  0  0  0
 29 53  1  0  0  0
 30 31  2  0  0  0
 30 32  1  0  0  0
 33 34  2  0  0  0
 35 54  1  0  0  0
 35 55  1  0  0  0
 35 56  1  0  0  0
M  CHG  1  32  -1
M  END
> <s_m_source_file>
../2ica_ligand.sdf

> <i_m_source_file_index>
1

> <s_epik_input>
Q2xjMVtjSF1jKENsKVtjSF1jKFtjSF0xKU4oQzI9TylDKD1PKU4oW0NIM10pW0NAQF0yM1tDSDJdW05AQEgrXShbQ0gyXWM0c1tjSF1jKFtjSF00KUMoPU8pW09IXSlbQ0gyXVtDQEhdM2M1W2NIXVtjSF1jKEMjTilbY0hdW2NIXTU=

> <s_epik_cmdline>
J2VwaWtfYXBwJywgJy1pbWFlJywgJ2xpZ2FuZF9wcm8ubWFlJywgJy1vbWFlJywgJ2xpZ2FuZF9wcmVwLm1hZScsICctbXMnLCAnMScsICctcGgnLCAnNycsICctcGh0JywgJzAuNScsICctbnQn

> <r_lp_tautomer_probability>
1

> <r_epik_Ionization_Penalty>
  0.1664

> <r_epik_Ionization_Penalty_Charging>
  0.0047

> <r_epik_Ionization_Penalty_Neutral>
  0.1617

> <r_epik_State_Penalty>
  0.1511

> <r_epik_Charging_Adjusted_Penalty>
0.155708169501289

> <i_epik_Tot_Q>
-1

> <i_epik_Tot_abs_Q>
1

$$$$
