2idk_ligand
                    3D
 Schrodinger Suite 2020-3.
 56 58  0  0  1  0            999 V2000
    7.4540  -23.7380   20.3090 N   0  3  0  0  0  0
    6.9230  -23.2360   21.4200 C   0  0  0  0  0  0
    5.8930  -23.8970   22.0460 N   0  0  0  0  0  0
    7.3960  -22.0560   21.9510 N   0  0  0  0  0  0
    8.4280  -21.3590   21.3520 C   0  0  0  0  0  0
    8.8160  -20.3200   21.8520 O   0  0  0  0  0  0
    9.0170  -21.8790   20.1520 C   0  0  0  0  0  0
   10.1320  -21.2220   19.4180 N   0  0  0  0  0  0
   10.6950  -21.8850   18.1480 C   0  0  2  0  0  0
   10.4380  -23.4020   18.2870 C   0  0  0  0  0  0
    9.0180  -23.6340   18.5220 N   0  0  0  0  0  0
    8.4800  -23.1010   19.6630 C   0  0  0  0  0  0
   12.2310  -21.7180   18.0210 C   0  0  0  0  0  0
   12.6740  -20.3160   17.8170 N   0  0  0  0  0  0
   10.7030  -19.9330   19.8930 C   0  0  0  0  0  0
   16.8000  -19.3870   17.5890 C   0  0  0  0  0  0
   15.8330  -18.3540   17.4460 C   0  0  0  0  0  0
   14.4630  -18.6630   17.5220 C   0  0  0  0  0  0
   14.0440  -20.0060   17.7320 C   0  0  0  0  0  0
   15.0160  -21.0350   17.8650 C   0  0  0  0  0  0
   16.3630  -20.7310   17.7950 C   0  0  0  0  0  0
   18.2680  -19.1330   17.5330 C   0  0  0  0  0  0
   18.7180  -18.0150   17.3590 O   0  0  0  0  0  0
   19.0400  -20.2470   17.6960 N   0  0  0  0  0  0
   20.5190  -20.5440   17.7220 C   0  0  1  0  0  0
   21.5010  -19.5280   18.3930 C   0  0  0  0  0  0
   21.6340  -18.1520   17.7290 C   0  0  0  0  0  0
   22.6260  -17.2860   18.5120 C   0  0  0  0  0  0
   23.1770  -17.7050   19.5110 O   0  0  0  0  0  0
   22.8950  -16.0360   18.0920 O   0  5  0  0  0  0
   20.5780  -21.8520   18.4630 C   0  0  0  0  0  0
   21.6070  -22.5140   18.4790 O   0  0  0  0  0  0
   19.4680  -22.2930   19.1110 O   0  5  0  0  0  0
    7.0697  -24.6811   19.8931 H   0  0  0  0  0  0
    5.5099  -24.8397   21.6281 H   0  0  0  0  0  0
   10.2092  -21.4189   17.2781 H   0  0  0  0  0  0
   10.7450  -23.9121   17.3621 H   0  0  0  0  0  0
   11.0193  -23.7963   19.1335 H   0  0  0  0  0  0
    8.4285  -24.2154   17.7978 H   0  0  0  0  0  0
   12.7164  -22.0802   18.9393 H   0  0  0  0  0  0
   12.5933  -22.3001   17.1608 H   0  0  0  0  0  0
   11.9294  -19.5109   17.7312 H   0  0  0  0  0  0
   10.1793  -19.6144   20.8064 H   0  0  0  0  0  0
   10.5787  -19.1674   19.1130 H   0  0  0  0  0  0
   11.7732  -20.0642   20.1108 H   0  0  0  0  0  0
   16.1527  -17.3256   17.2780 H   0  0  0  0  0  0
   13.7206  -17.8715   17.4197 H   0  0  0  0  0  0
   14.6986  -22.0658   18.0225 H   0  0  0  0  0  0
   17.1005  -21.5269   17.8983 H   0  0  0  0  0  0
   18.3130  -21.0611   17.8328 H   0  0  0  0  0  0
   20.8505  -20.5478   16.6731 H   0  0  0  0  0  0
   21.1750  -19.3298   19.4247 H   0  0  0  0  0  0
   22.5160  -19.9519   18.4042 H   0  0  0  0  0  0
   21.9971  -18.2759   16.6981 H   0  0  0  0  0  0
   20.6526  -17.6553   17.7149 H   0  0  0  0  0  0
    5.4519  -23.4833   22.9648 H   0  0  0  0  0  0
  1  2  2  0  0  0
  1 12  1  0  0  0
  1 34  1  0  0  0
  2  3  1  0  0  0
  2  4  1  0  0  0
  3 35  1  0  0  0
  3 56  1  0  0  0
  4  5  1  0  0  0
  5  6  2  0  0  0
  5  7  1  0  0  0
  7  8  1  0  0  0
  7 12  2  0  0  0
  8  9  1  0  0  0
  8 15  1  0  0  0
  9 10  1  0  0  0
  9 13  1  0  0  0
  9 36  1  0  0  0
 10 11  1  0  0  0
 10 37  1  0  0  0
 10 38  1  0  0  0
 11 12  1  0  0  0
 11 39  1  0  0  0
 13 14  1  0  0  0
 13 40  1  0  0  0
 13 41  1  0  0  0
 14 19  1  0  0  0
 14 42  1  0  0  0
 15 43  1  0  0  0
 15 44  1  0  0  0
 15 45  1  0  0  0
 16 17  2  0  0  0
 16 21  1  0  0  0
 16 22  1  0  0  0
 17 18  1  0  0  0
 17 46  1  0  0  0
 18 19  2  0  0  0
 18 47  1  0  0  0
 19 20  1  0  0  0
 20 21  2  0  0  0
 20 48  1  0  0  0
 21 49  1  0  0  0
 22 23  2  0  0  0
 22 24  1  0  0  0
 24 25  1  0  0  0
 24 50  1  0  0  0
 25 26  1  0  0  0
 25 31  1  0  0  0
 25 51  1  0  0  0
 26 27  1  0  0  0
 26 52  1  0  0  0
 26 53  1  0  0  0
 27 28  1  0  0  0
 27 54  1  0  0  0
 27 55  1  0  0  0
 28 29  2  0  0  0
 28 30  1  0  0  0
 31 32  2  0  0  0
 31 33  1  0  0  0
M  CHG  3   1   1  30  -1  33  -1
M  END
> <s_m_source_file>
../2idk_ligand.sdf

> <i_m_source_file_index>
1

> <s_epik_input>
Tz1jMVtuSF1jKD1OL1tIXSlcW25IXWMoYzEyKVtOSF1bQ0gyXVtDQEBIXShOMltDSDNdKVtDSDJdW05IXWMoW2NIXVtjSF0zKVtjSF1bY0hdYzNDKD1PKVtOSF1bQ0BIXShDKD1PKVtPSF0pW0NIMl1bQ0gyXUMoPU8pW09IXQ==

> <s_epik_cmdline>
J2VwaWtfYXBwJywgJy1pbWFlJywgJ2xpZ2FuZF9wcm8ubWFlJywgJy1vbWFlJywgJ2xpZ2FuZF9wcmVwLm1hZScsICctbXMnLCAnMScsICctcGgnLCAnNycsICctcGh0JywgJzAuNScsICctbnQn

> <r_epik_Ionization_Penalty>
  0.0065

> <r_epik_Ionization_Penalty_Charging>
  0.0053

> <r_epik_Ionization_Penalty_Neutral>
  0.0012

> <r_epik_State_Penalty>
  0.1016

> <r_epik_Charging_Adjusted_Penalty>
0.106894527349106

> <i_epik_Tot_Q>
-1

> <i_epik_Tot_abs_Q>
3

> <s_epik_Chemistry_Notes>
This compound has an imine and may undergo hydrolysis.

$$$$
