2ie4_ligand
                    3D
 Schrodinger Suite 2020-3.
124130  0  0  1  0            999 V2000
   35.6590  -44.6880  -39.3530 C   0  0  0  0  0  0
   34.7600  -43.5790  -38.7960 C   0  0  2  0  0  0
   33.3300  -44.1080  -38.6610 C   0  0  0  0  0  0
   33.2740  -45.3800  -37.8080 C   0  0  2  0  0  0
   31.7970  -45.7530  -37.6660 C   0  0  0  0  0  0
   31.6540  -46.9740  -36.7580 C   0  0  0  0  0  0
   32.2990  -46.6690  -35.4070 C   0  0  2  0  0  0
   33.7500  -46.2140  -35.5820 C   0  0  2  0  0  0
   34.1700  -45.7170  -34.3540 C   0  0  0  0  0  0
   35.3960  -46.0520  -33.7910 C   0  0  0  0  0  0
   36.3390  -47.0050  -34.5240 C   0  0  0  0  0  0
   35.9230  -47.1490  -35.9890 C   0  0  1  0  0  0
   36.6630  -48.3700  -36.5450 C   0  0  1  0  0  0
   36.3180  -48.6250  -38.0140 C   0  0  0  0  0  0
   34.9990  -48.8870  -38.3730 C   0  0  0  0  0  0
   34.5970  -49.1210  -39.6810 C   0  0  1  0  0  0
   35.1400  -50.4110  -40.3070 C   0  0  0  0  0  0
   33.9320  -50.9990  -41.0450 C   0  0  0  0  0  0
   32.9210  -49.8550  -40.9590 C   0  0  1  0  0  0
   31.4580  -50.2950  -41.0300 C   0  0  0  0  0  0
   30.5930  -49.0660  -40.7410 C   0  0  0  0  0  0
   30.9390  -47.9160  -41.6920 C   0  0  2  0  0  0
   32.4420  -47.6730  -41.7140 C   0  0  2  0  0  0
   32.7180  -46.6560  -42.8230 C   0  0  1  0  0  0
   31.9320  -45.4000  -42.4520 C   0  0  0  0  0  0
   30.4600  -45.5740  -42.0770 C   0  0  1  0  0  0
   29.6650  -45.7410  -43.3720 C   0  0  2  0  0  0
   29.7310  -44.4570  -44.2040 C   0  0  0  0  0  0
   28.9490  -44.5750  -45.5150 C   0  0  1  0  0  0
   29.1910  -43.3520  -46.4050 C   0  0  2  0  0  0
   28.9110  -42.0650  -45.6270 C   0  0  1  0  0  0
   29.1370  -40.8560  -46.5360 C   0  0  0  0  0  0
   28.2670  -41.0010  -47.7850 C   0  0  0  0  0  0
   28.5760  -42.3310  -48.4740 C   0  0  2  0  0  0
   27.6600  -42.4950  -49.6900 C   0  0  0  0  0  0
   27.9720  -43.8070  -50.4120 C   0  0  0  0  0  0
   29.4570  -43.8290  -50.7780 C   0  0  0  0  0  0
   30.2990  -43.5740  -49.5250 C   0  0  0  0  0  0
   27.4820  -42.0760  -45.0790 C   0  0  0  0  0  0
   29.3330  -45.8520  -46.2680 C   0  0  0  0  0  0
   32.5400  -44.1490  -42.4520 C   0  0  0  0  0  0
   38.1760  -48.1920  -36.4040 C   0  0  0  0  0  0
   35.7890  -45.4570  -32.4380 C   0  0  0  0  0  0
   34.7750  -42.3800  -39.7470 C   0  0  0  0  0  0
   36.5290  -45.1530  -38.5870 O   0  0  0  0  0  0
   35.4560  -45.0500  -40.5320 O   0  5  0  0  0  0
   35.2570  -43.1860  -37.5130 O   0  0  0  0  0  0
   33.8540  -45.1330  -36.5180 O   0  0  0  0  0  0
   32.3160  -47.8700  -34.6310 O   0  0  0  0  0  0
   34.5030  -47.3540  -36.0150 O   0  0  0  0  0  0
   33.1760  -49.3290  -39.6580 O   0  0  0  0  0  0
   33.2070  -48.8650  -41.9500 O   0  0  0  0  0  0
   30.2630  -46.7290  -41.2400 O   0  0  0  0  0  0
   34.1150  -46.3640  -42.8980 O   0  0  0  0  0  0
   28.3160  -46.0780  -43.0400 O   0  0  0  0  0  0
   28.3460  -43.4140  -47.5640 O   0  0  0  0  0  0
   29.9410  -42.3260  -48.9090 O   0  0  0  0  0  0
   32.6997  -43.3432  -38.1837 H   0  0  0  0  0  0
   32.9300  -44.3424  -39.6585 H   0  0  0  0  0  0
   33.8767  -46.2013  -38.2230 H   0  0  0  0  0  0
   31.2460  -44.9080  -37.2273 H   0  0  0  0  0  0
   31.3810  -45.9871  -38.6570 H   0  0  0  0  0  0
   30.5874  -47.2025  -36.6162 H   0  0  0  0  0  0
   32.1553  -47.8364  -37.2216 H   0  0  0  0  0  0
   31.7077  -45.9139  -34.8682 H   0  0  0  0  0  0
   33.4899  -45.0336  -33.8244 H   0  0  0  0  0  0
   37.3650  -46.6107  -34.4811 H   0  0  0  0  0  0
   36.3061  -47.9944  -34.0444 H   0  0  0  0  0  0
   36.1069  -46.2558  -36.6042 H   0  0  0  0  0  0
   36.3372  -49.2409  -35.9573 H   0  0  0  0  0  0
   37.1034  -48.6024  -38.7838 H   0  0  0  0  0  0
   34.2147  -48.9162  -37.6023 H   0  0  0  0  0  0
   34.9407  -48.2084  -40.1900 H   0  0  0  0  0  0
   35.9662  -50.1671  -40.9911 H   0  0  0  0  0  0
   35.5064  -51.0780  -39.5128 H   0  0  0  0  0  0
   34.2179  -51.2453  -42.0782 H   0  0  0  0  0  0
   33.5962  -51.9112  -40.5301 H   0  0  0  0  0  0
   31.2420  -50.6894  -42.0339 H   0  0  0  0  0  0
   31.2741  -51.0791  -40.2807 H   0  0  0  0  0  0
   29.5321  -49.3253  -40.8721 H   0  0  0  0  0  0
   30.7638  -48.7323  -39.7068 H   0  0  0  0  0  0
   30.5836  -48.1229  -42.7123 H   0  0  0  0  0  0
   32.7895  -47.3586  -40.7188 H   0  0  0  0  0  0
   32.4785  -47.0356  -43.8273 H   0  0  0  0  0  0
   30.1074  -44.7307  -41.4651 H   0  0  0  0  0  0
   30.0344  -46.5844  -43.9739 H   0  0  0  0  0  0
   29.3048  -43.6235  -43.6264 H   0  0  0  0  0  0
   30.7794  -44.2336  -44.4510 H   0  0  0  0  0  0
   27.8794  -44.6236  -45.2628 H   0  0  0  0  0  0
   30.2219  -43.3535  -46.7888 H   0  0  0  0  0  0
   29.6023  -41.9983  -44.7740 H   0  0  0  0  0  0
   28.8627  -39.9365  -45.9981 H   0  0  0  0  0  0
   30.1969  -40.8085  -46.8263 H   0  0  0  0  0  0
   27.2056  -40.9763  -47.4974 H   0  0  0  0  0  0
   28.4786  -40.1729  -48.4774 H   0  0  0  0  0  0
   26.6108  -42.5060  -49.3598 H   0  0  0  0  0  0
   27.8174  -41.6558  -50.3835 H   0  0  0  0  0  0
   27.7393  -44.6541  -49.7500 H   0  0  0  0  0  0
   27.3626  -43.8770  -51.3251 H   0  0  0  0  0  0
   29.7164  -44.8117  -51.1988 H   0  0  0  0  0  0
   29.6629  -43.0456  -51.5222 H   0  0  0  0  0  0
   30.1334  -44.3851  -48.8007 H   0  0  0  0  0  0
   31.3636  -43.5392  -49.7995 H   0  0  0  0  0  0
   27.3451  -42.9533  -44.4297 H   0  0  0  0  0  0
   26.7690  -42.1239  -45.9153 H   0  0  0  0  0  0
   27.3050  -41.1587  -44.4983 H   0  0  0  0  0  0
   29.1565  -46.7252  -45.6228 H   0  0  0  0  0  0
   30.3970  -45.8090  -46.5440 H   0  0  0  0  0  0
   28.7213  -45.9390  -47.1781 H   0  0  0  0  0  0
   33.6010  -44.0531  -42.7262 H   0  0  0  0  0  0
   31.9599  -43.2555  -42.1778 H   0  0  0  0  0  0
   38.4268  -48.0085  -35.3488 H   0  0  0  0  0  0
   38.5028  -47.3361  -37.0128 H   0  0  0  0  0  0
   38.6861  -49.1034  -36.7490 H   0  0  0  0  0  0
   34.9826  -44.8014  -32.0776 H   0  0  0  0  0  0
   36.7144  -44.8728  -32.5493 H   0  0  0  0  0  0
   35.9527  -46.2689  -31.7141 H   0  0  0  0  0  0
   34.3921  -42.6878  -40.7312 H   0  0  0  0  0  0
   35.8052  -42.0096  -39.8538 H   0  0  0  0  0  0
   34.1384  -41.5808  -39.3395 H   0  0  0  0  0  0
   35.3190  -43.9223  -36.6981 H   0  0  0  0  0  0
   31.3722  -48.3768  -34.3812 H   0  0  0  0  0  0
   34.8301  -47.1593  -43.1551 H   0  0  0  0  0  0
   28.1048  -46.9775  -42.4431 H   0  0  0  0  0  0
  1  2  1  0  0  0
  1 45  2  0  0  0
  1 46  1  0  0  0
  2  3  1  0  0  0
  2 44  1  0  0  0
  2 47  1  0  0  0
  3  4  1  0  0  0
  3 58  1  0  0  0
  3 59  1  0  0  0
  4  5  1  0  0  0
  4 48  1  0  0  0
  4 60  1  0  0  0
  5  6  1  0  0  0
  5 61  1  0  0  0
  5 62  1  0  0  0
  6  7  1  0  0  0
  6 63  1  0  0  0
  6 64  1  0  0  0
  7  8  1  0  0  0
  7 49  1  0  0  0
  7 65  1  0  0  0
  8  9  1  0  0  0
  8 48  1  0  0  0
  8 50  1  0  0  0
  9 10  2  0  0  0
  9 66  1  0  0  0
 10 11  1  0  0  0
 10 43  1  0  0  0
 11 12  1  0  0  0
 11 67  1  0  0  0
 11 68  1  0  0  0
 12 13  1  0  0  0
 12 50  1  0  0  0
 12 69  1  0  0  0
 13 14  1  0  0  0
 13 42  1  0  0  0
 13 70  1  0  0  0
 14 15  2  0  0  0
 14 71  1  0  0  0
 15 16  1  0  0  0
 15 72  1  0  0  0
 16 17  1  0  0  0
 16 51  1  0  0  0
 16 73  1  0  0  0
 17 18  1  0  0  0
 17 74  1  0  0  0
 17 75  1  0  0  0
 18 19  1  0  0  0
 18 76  1  0  0  0
 18 77  1  0  0  0
 19 20  1  0  0  0
 19 51  1  0  0  0
 19 52  1  0  0  0
 20 21  1  0  0  0
 20 78  1  0  0  0
 20 79  1  0  0  0
 21 22  1  0  0  0
 21 80  1  0  0  0
 21 81  1  0  0  0
 22 23  1  0  0  0
 22 53  1  0  0  0
 22 82  1  0  0  0
 23 24  1  0  0  0
 23 52  1  0  0  0
 23 83  1  0  0  0
 24 25  1  0  0  0
 24 54  1  0  0  0
 24 84  1  0  0  0
 25 26  1  0  0  0
 25 41  2  0  0  0
 26 27  1  0  0  0
 26 53  1  0  0  0
 26 85  1  0  0  0
 27 28  1  0  0  0
 27 55  1  0  0  0
 27 86  1  0  0  0
 28 29  1  0  0  0
 28 87  1  0  0  0
 28 88  1  0  0  0
 29 30  1  0  0  0
 29 40  1  0  0  0
 29 89  1  0  0  0
 30 31  1  0  0  0
 30 56  1  0  0  0
 30 90  1  0  0  0
 31 32  1  0  0  0
 31 39  1  0  0  0
 31 91  1  0  0  0
 32 33  1  0  0  0
 32 92  1  0  0  0
 32 93  1  0  0  0
 33 34  1  0  0  0
 33 94  1  0  0  0
 33 95  1  0  0  0
 34 35  1  0  0  0
 34 56  1  0  0  0
 34 57  1  0  0  0
 35 36  1  0  0  0
 35 96  1  0  0  0
 35 97  1  0  0  0
 36 37  1  0  0  0
 36 98  1  0  0  0
 36 99  1  0  0  0
 37 38  1  0  0  0
 37100  1  0  0  0
 37101  1  0  0  0
 38 57  1  0  0  0
 38102  1  0  0  0
 38103  1  0  0  0
 39104  1  0  0  0
 39105  1  0  0  0
 39106  1  0  0  0
 40107  1  0  0  0
 40108  1  0  0  0
 40109  1  0  0  0
 41110  1  0  0  0
 41111  1  0  0  0
 42112  1  0  0  0
 42113  1  0  0  0
 42114  1  0  0  0
 43115  1  0  0  0
 43116  1  0  0  0
 43117  1  0  0  0
 44118  1  0  0  0
 44119  1  0  0  0
 44120  1  0  0  0
 47121  1  0  0  0
 49122  1  0  0  0
 54123  1  0  0  0
 55124  1  0  0  0
M  CHG  1  46  -1
M  END
> <s_m_source_file>
../2ie4_ligand.sdf

> <i_m_source_file_index>
1

> <s_epik_input>
Tz1DKFtPSF0pW0NAXShbQ0gzXSkoW09IXSlbQ0gyXVtDQEBIXShPMSlbQ0gyXVtDSDJdW0NAQEhdKFtPSF0pW0NAXTEyW0NIXT1DKFtDSDNdKVtDSDJdW0NASF0oTzIpW0NASF0oW0NIM10pL1tDSF09W0NIXS9bQ0BIXShPMylbQ0gyXVtDSDJdW0NAQF0zNFtDSDJdW0NIMl1bQ0BASF01W0NAQEhdKE80KVtDQEhdKFtPSF0pQyg9W0NIMl0pW0NASF0oTzUpW0NAQEhdKFtPSF0pW0NIMl1bQ0BIXShbQ0gzXSlbQ0BASF0oTzYpW0NASF0oW0NIM10pW0NIMl1bQ0gyXVtDQF02N1tDSDJdW0NIMl1bQ0gyXVtDSDJdTzc=

> <s_epik_cmdline>
J2VwaWtfYXBwJywgJy1pbWFlJywgJ2xpZ2FuZF9wcm8ubWFlJywgJy1vbWFlJywgJ2xpZ2FuZF9wcmVwLm1hZScsICctbXMnLCAnMScsICctcGgnLCAnNycsICctcGh0JywgJzAuNScsICctbnQn

> <r_lp_tautomer_probability>
1

> <r_epik_Ionization_Penalty>
  0.0004

> <r_epik_Ionization_Penalty_Charging>
  0.0004

> <r_epik_Ionization_Penalty_Neutral>
  0.0000

> <r_epik_State_Penalty>
 -0.0000

> <r_epik_Charging_Adjusted_Penalty>
0.000417223533904883

> <i_epik_Tot_Q>
-1

> <i_epik_Tot_abs_Q>
1

$$$$
