2ieh_ligand
                    3D
 Schrodinger Suite 2020-3.
 42 44  0  0  1  0            999 V2000
   14.6600   14.6660  109.5560 S   0  0  0  0  0  0
   21.2020   13.7110  109.2170 O   0  0  0  0  0  0
   16.6150   12.0640  114.3700 O   0  0  0  0  0  0
   17.0780   13.5100  109.5230 N   0  0  0  0  0  0
   17.0260   15.8300  109.9770 N   0  0  0  0  0  0
   16.3040   14.7030  109.6980 C   0  0  0  0  0  0
   18.3760   16.0070  109.4770 C   0  0  0  0  0  0
   19.1320   14.8240  109.3080 C   0  0  0  0  0  0
   18.5210   13.5690  110.0080 C   0  0  1  0  0  0
   16.3840   16.9090  110.7740 C   0  0  0  0  0  0
   18.7650   17.4390  109.1780 C   0  0  0  0  0  0
   20.5210   14.6170  108.7450 C   0  0  0  0  0  0
   21.0490   15.4470  107.5960 C   0  0  0  0  0  0
   22.4350   15.7570  107.5530 C   0  0  0  0  0  0
   22.9460   16.5510  106.4750 C   0  0  0  0  0  0
   22.0600   17.0210  105.4450 C   0  0  0  0  0  0
   20.7170   16.7080  105.5030 C   0  0  0  0  0  0
   20.1940   15.9260  106.5540 C   0  0  0  0  0  0
   18.5630   13.6270  111.5970 C   0  0  0  0  0  0
   17.5950   12.8310  112.2970 C   0  0  0  0  0  0
   17.5560   12.8310  113.7220 C   0  0  0  0  0  0
   18.4720   13.6180  114.4650 C   0  0  0  0  0  0
   19.4210   14.3940  113.7940 C   0  0  0  0  0  0
   19.4770   14.4090  112.3710 C   0  0  0  0  0  0
   15.9067   11.4552  113.7889 H   0  0  0  0  0  0
   16.6875   12.5871  109.0695 H   0  0  0  0  0  0
   19.0867   12.6711  109.7187 H   0  0  0  0  0  0
   15.3697   16.5969  111.0636 H   0  0  0  0  0  0
   16.3269   17.8265  110.1700 H   0  0  0  0  0  0
   16.9805   17.1016  111.6779 H   0  0  0  0  0  0
   17.9285   18.1068  109.4316 H   0  0  0  0  0  0
   19.0026   17.5387  108.1086 H   0  0  0  0  0  0
   19.6466   17.7120  109.7765 H   0  0  0  0  0  0
   23.1039   15.3940  108.3333 H   0  0  0  0  0  0
   24.0068   16.7987  106.4360 H   0  0  0  0  0  0
   22.4471   17.6218  104.6220 H   0  0  0  0  0  0
   20.0485   17.0716  104.7226 H   0  0  0  0  0  0
   19.1311   15.6851  106.5723 H   0  0  0  0  0  0
   16.8856   12.2230  111.7356 H   0  0  0  0  0  0
   18.4361   13.6177  115.5544 H   0  0  0  0  0  0
   20.1271   14.9952  114.3668 H   0  0  0  0  0  0
   20.2237   15.0224  111.8668 H   0  0  0  0  0  0
  1  6  2  0  0  0
  2 12  2  0  0  0
  3 21  1  0  0  0
  3 25  1  0  0  0
  4  6  1  0  0  0
  4  9  1  0  0  0
  4 26  1  0  0  0
  5  6  1  0  0  0
  5  7  1  0  0  0
  5 10  1  0  0  0
  7  8  2  0  0  0
  7 11  1  0  0  0
  8  9  1  0  0  0
  8 12  1  0  0  0
  9 19  1  0  0  0
  9 27  1  0  0  0
 10 28  1  0  0  0
 10 29  1  0  0  0
 10 30  1  0  0  0
 11 31  1  0  0  0
 11 32  1  0  0  0
 11 33  1  0  0  0
 12 13  1  0  0  0
 13 14  2  0  0  0
 13 18  1  0  0  0
 14 15  1  0  0  0
 14 34  1  0  0  0
 15 16  2  0  0  0
 15 35  1  0  0  0
 16 17  1  0  0  0
 16 36  1  0  0  0
 17 18  2  0  0  0
 17 37  1  0  0  0
 18 38  1  0  0  0
 19 20  2  0  0  0
 19 24  1  0  0  0
 20 21  1  0  0  0
 20 39  1  0  0  0
 21 22  2  0  0  0
 22 23  1  0  0  0
 22 40  1  0  0  0
 23 24  2  0  0  0
 23 41  1  0  0  0
 24 42  1  0  0  0
M  END
> <s_m_source_file>
../2ieh_ligand.sdf

> <i_m_source_file_index>
1

> <s_epik_input>
W2NIXTFbY0hdW2NIXWMoW09IXSlbY0hdYzFbQ0BASF0oW05IXUMoPVMpTjJbQ0gzXSlDKD1DMltDSDNdKUMoPU8pYzNbY0hdW2NIXVtjSF1bY0hdW2NIXTM=

> <s_epik_cmdline>
J2VwaWtfYXBwJywgJy1pbWFlJywgJ2xpZ2FuZF9wcm8ubWFlJywgJy1vbWFlJywgJ2xpZ2FuZF9wcmVwLm1hZScsICctbXMnLCAnMScsICctcGgnLCAnNycsICctcGh0JywgJzAuNScsICctbnQn

> <r_lp_tautomer_probability>
1

> <r_epik_Ionization_Penalty>
  0.0021

> <r_epik_Ionization_Penalty_Charging>
  0.0000

> <r_epik_Ionization_Penalty_Neutral>
  0.0021

> <r_epik_State_Penalty>
 -0.0000

> <r_epik_Charging_Adjusted_Penalty>
0

> <i_epik_Tot_Q>
0

> <i_epik_Tot_abs_Q>
0

$$$$
