2ien_ligand
                    3D
 Schrodinger Suite 2020-3.
 75 78  0  0  1  0            999 V2000
   21.0910   28.7350   14.0670 N   0  0  0  0  0  0
   20.5400   27.5660   14.5190 C   0  0  0  0  0  0
   19.1880   27.3330   14.2100 C   0  0  0  0  0  0
   18.6260   26.1600   14.6750 C   0  0  0  0  0  0
   19.3840   25.2160   15.3450 C   0  0  0  0  0  0
   20.7110   25.4230   15.7210 C   0  0  0  0  0  0
   21.2630   26.6460   15.2920 C   0  0  0  0  0  0
   18.4500   23.7990   15.9930 S   0  0  0  0  0  0
   17.2570   23.4660   15.0690 O   0  0  0  0  0  0
   19.4810   22.6380   16.2400 O   0  0  0  0  0  0
   17.7940   24.1570   17.5840 N   0  0  1  0  0  0
   18.7830   24.4260   18.6320 C   0  0  0  0  0  0
   18.4000   23.8560   20.0060 C   0  0  0  0  0  0
   18.3680   22.3520   19.8930 C   0  0  0  0  0  0
   19.5030   24.3350   20.9200 C   0  0  0  0  0  0
   16.5050   24.8940   17.5640 C   0  0  0  0  0  0
   15.3940   23.9640   18.1580 C   0  0  1  0  0  0
   14.2320   24.7640   18.4090 O   0  0  0  0  0  0
   15.0130   22.8280   17.1770 C   0  0  1  0  0  0
   14.1320   21.9410   17.8870 N   0  0  0  0  0  0
   14.4880   20.6750   18.2230 C   0  0  0  0  0  0
   15.5870   20.0860   17.9550 O   0  0  0  0  0  0
   13.4210   20.0660   18.9520 O   0  0  0  0  0  0
   13.5050   18.6020   19.1020 C   0  0  1  0  0  0
   12.8390   18.3510   20.4850 C   0  0  0  0  0  0
   11.4120   18.4700   20.2840 O   0  0  0  0  0  0
   11.2200   17.9780   18.9680 C   0  0  1  0  0  0
   10.2970   18.8060   18.2910 O   0  0  0  0  0  0
   11.0420   19.4440   17.2410 C   0  0  0  0  0  0
   12.1310   18.4320   16.8180 C   0  0  0  0  0  0
   12.4700   17.8870   18.2130 C   0  0  1  0  0  0
   14.2940   23.2850   15.8960 C   0  0  0  0  0  0
   12.5490   21.7500   14.8810 C   0  0  0  0  0  0
   12.1480   20.6610   14.0690 C   0  0  0  0  0  0
   13.1190   19.9330   13.3910 C   0  0  0  0  0  0
   14.4710   20.2400   13.5170 C   0  0  0  0  0  0
   14.8600   21.3260   14.3140 C   0  0  0  0  0  0
   13.9020   22.1140   14.9680 C   0  0  0  0  0  0
   20.4886   29.4295   13.4630 H   0  0  0  0  0  0
   22.1361   28.9797   14.3078 H   0  0  0  0  0  0
   18.6075   28.0485   13.6276 H   0  0  0  0  0  0
   17.5645   25.9744   14.5109 H   0  0  0  0  0  0
   21.2772   24.6948   16.3018 H   0  0  0  0  0  0
   22.2890   26.8859   15.5709 H   0  0  0  0  0  0
   19.7473   23.9782   18.3498 H   0  0  0  0  0  0
   18.9044   25.5127   18.7514 H   0  0  0  0  0  0
   17.4174   24.1635   20.3932 H   0  0  0  0  0  0
   17.5515   22.0522   19.2196 H   0  0  0  0  0  0
   18.2026   21.9130   20.8880 H   0  0  0  0  0  0
   19.3265   21.9942   19.4891 H   0  0  0  0  0  0
   19.4862   25.4337   20.9703 H   0  0  0  0  0  0
   20.4750   24.0006   20.5282 H   0  0  0  0  0  0
   19.3510   23.9195   21.9271 H   0  0  0  0  0  0
   16.5952   25.8070   18.1708 H   0  0  0  0  0  0
   16.2539   25.1656   16.5280 H   0  0  0  0  0  0
   15.7079   23.5325   19.1199 H   0  0  0  0  0  0
   14.2953   25.6287   19.0860 H   0  0  0  0  0  0
   15.9270   22.2987   16.8696 H   0  0  0  0  0  0
   13.1272   22.2808   18.1785 H   0  0  0  0  0  0
   14.5467   18.3114   18.9012 H   0  0  0  0  0  0
   13.1023   17.3442   20.8414 H   0  0  0  0  0  0
   13.1974   19.1005   21.2060 H   0  0  0  0  0  0
   10.7937   16.9685   19.0633 H   0  0  0  0  0  0
   10.3685   19.6773   16.4031 H   0  0  0  0  0  0
   11.4893   20.3740   17.6217 H   0  0  0  0  0  0
   11.6975   17.6947   16.1263 H   0  0  0  0  0  0
   12.9527   18.9653   16.3177 H   0  0  0  0  0  0
   12.8814   16.8837   18.0281 H   0  0  0  0  0  0
   13.3709   23.8196   16.1645 H   0  0  0  0  0  0
   14.9531   23.9554   15.3249 H   0  0  0  0  0  0
   11.8012   22.3098   15.4427 H   0  0  0  0  0  0
   11.0943   20.3978   13.9771 H   0  0  0  0  0  0
   12.8160   19.1062   12.7486 H   0  0  0  0  0  0
   15.2210   19.6411   13.0003 H   0  0  0  0  0  0
   15.9186   21.5603   14.4265 H   0  0  0  0  0  0
  1  2  1  0  0  0
  1 39  1  0  0  0
  1 40  1  0  0  0
  2  3  2  0  0  0
  2  7  1  0  0  0
  3  4  1  0  0  0
  3 41  1  0  0  0
  4  5  2  0  0  0
  4 42  1  0  0  0
  5  6  1  0  0  0
  5  8  1  0  0  0
  6  7  2  0  0  0
  6 43  1  0  0  0
  7 44  1  0  0  0
  8  9  2  0  0  0
  8 10  2  0  0  0
  8 11  1  0  0  0
 11 12  1  0  0  0
 11 16  1  0  0  0
 12 13  1  0  0  0
 12 45  1  0  0  0
 12 46  1  0  0  0
 13 14  1  0  0  0
 13 15  1  0  0  0
 13 47  1  0  0  0
 14 48  1  0  0  0
 14 49  1  0  0  0
 14 50  1  0  0  0
 15 51  1  0  0  0
 15 52  1  0  0  0
 15 53  1  0  0  0
 16 17  1  0  0  0
 16 54  1  0  0  0
 16 55  1  0  0  0
 17 18  1  0  0  0
 17 19  1  0  0  0
 17 56  1  0  0  0
 18 57  1  0  0  0
 19 20  1  0  0  0
 19 32  1  0  0  0
 19 58  1  0  0  0
 20 21  1  0  0  0
 20 59  1  0  0  0
 21 22  2  0  0  0
 21 23  1  0  0  0
 23 24  1  0  0  0
 24 25  1  0  0  0
 24 31  1  0  0  0
 24 60  1  0  0  0
 25 26  1  0  0  0
 25 61  1  0  0  0
 25 62  1  0  0  0
 26 27  1  0  0  0
 27 28  1  0  0  0
 27 31  1  0  0  0
 27 63  1  0  0  0
 28 29  1  0  0  0
 29 30  1  0  0  0
 29 64  1  0  0  0
 29 65  1  0  0  0
 30 31  1  0  0  0
 30 66  1  0  0  0
 30 67  1  0  0  0
 31 68  1  0  0  0
 32 38  1  0  0  0
 32 69  1  0  0  0
 32 70  1  0  0  0
 33 34  2  0  0  0
 33 38  1  0  0  0
 33 71  1  0  0  0
 34 35  1  0  0  0
 34 72  1  0  0  0
 35 36  2  0  0  0
 35 73  1  0  0  0
 36 37  1  0  0  0
 36 74  1  0  0  0
 37 38  2  0  0  0
 37 75  1  0  0  0
M  END
> <s_m_source_file>
../2ien_ligand.sdf

> <i_m_source_file_index>
1

> <s_epik_input>
W05IMl1jMVtjSF1bY0hdYyhbY0hdW2NIXTEpUyg9TykoPU8pTihbQ0gyXVtDSF0oW0NIM10pW0NIM10pW0NIMl1bQ0BASF0oW09IXSlbQ0BASF0oW05IXUMoPU8pT1tDQEBIXShbQ0gyXU8yKVtDQEBIXShbQ0BASF0yMylbQ0gyXVtDSDJdTzMpW0NIMl1jNFtjSF1bY0hdW2NIXVtjSF1bY0hdNA==

> <s_epik_cmdline>
J2VwaWtfYXBwJywgJy1pbWFlJywgJ2xpZ2FuZF9wcm8ubWFlJywgJy1vbWFlJywgJ2xpZ2FuZF9wcmVwLm1hZScsICctbXMnLCAnMScsICctcGgnLCAnNycsICctcGh0JywgJzAuNScsICctbnQn

> <r_lp_tautomer_probability>
1

> <r_epik_Ionization_Penalty>
  0.0000

> <r_epik_Ionization_Penalty_Charging>
  0.0000

> <r_epik_Ionization_Penalty_Neutral>
  0.0000

> <r_epik_State_Penalty>
 -0.0000

> <r_epik_Charging_Adjusted_Penalty>
0

> <i_epik_Tot_Q>
0

> <i_epik_Tot_abs_Q>
0

> <s_epik_Chemistry_Notes>
This compound has an ester and may undergo hydrolysis at high or low pH. This compound contains an acetal/aminal-like group ( X-CH(R)-Y where X, Y are N, S, or O) that may be acid/base labile, releasing an aldehyde.

$$$$
