2ieo_ligand
                    3D
 Schrodinger Suite 2020-3.
 75 78  0  0  1  0            999 V2000
   20.9120   28.9400   13.8770 N   0  0  0  0  0  0
   20.3960   27.7490   14.3180 C   0  0  0  0  0  0
   19.0550   27.4970   14.0710 C   0  0  0  0  0  0
   18.4460   26.3080   14.4870 C   0  0  0  0  0  0
   19.2490   25.3190   15.0740 C   0  0  0  0  0  0
   20.5700   25.5650   15.4250 C   0  0  0  0  0  0
   21.1450   26.7850   15.0130 C   0  0  0  0  0  0
   18.3090   23.8960   15.7390 S   0  0  0  0  0  0
   17.1170   23.6220   14.7590 O   0  0  0  0  0  0
   19.2840   22.6650   15.8560 O   0  0  0  0  0  0
   17.6690   24.2910   17.3490 N   0  0  1  0  0  0
   18.6620   24.5460   18.4100 C   0  0  0  0  0  0
   18.3760   23.8900   19.7820 C   0  0  0  0  0  0
   18.3260   22.3820   19.6680 C   0  0  0  0  0  0
   19.5090   24.2820   20.7170 C   0  0  0  0  0  0
   16.3770   25.0620   17.3560 C   0  0  0  0  0  0
   15.1840   24.1760   17.8640 C   0  0  1  0  0  0
   14.0630   24.9920   18.1820 O   0  0  0  0  0  0
   14.8280   23.0050   16.8980 C   0  0  1  0  0  0
   13.9380   22.0840   17.5730 N   0  0  0  0  0  0
   14.2540   20.8040   17.9010 C   0  0  0  0  0  0
   15.3620   20.2300   17.6100 O   0  0  0  0  0  0
   13.1980   20.1860   18.6370 O   0  0  0  0  0  0
   13.3750   18.7510   18.8950 C   0  0  1  0  0  0
   12.7750   18.5040   20.2960 C   0  0  0  0  0  0
   11.3490   18.5800   20.1260 O   0  0  0  0  0  0
   11.0940   18.1750   18.7860 C   0  0  1  0  0  0
   10.1320   18.9830   18.0780 O   0  0  0  0  0  0
   10.8780   19.5250   16.9990 C   0  0  0  0  0  0
   12.0020   18.5370   16.6520 C   0  0  0  0  0  0
   12.3440   18.0180   18.0210 C   0  0  1  0  0  0
   14.1590   23.4190   15.5500 C   0  0  0  0  0  0
   12.4110   21.7690   14.6130 C   0  0  0  0  0  0
   12.0720   20.6320   13.8480 C   0  0  0  0  0  0
   13.0470   19.8970   13.1850 C   0  0  0  0  0  0
   14.3900   20.2920   13.3030 C   0  0  0  0  0  0
   14.7120   21.4400   14.0580 C   0  0  0  0  0  0
   13.7280   22.2030   14.7050 C   0  0  0  0  0  0
   20.2695   29.6518   13.3379 H   0  0  0  0  0  0
   21.9685   29.1839   14.0622 H   0  0  0  0  0  0
   18.4619   28.2421   13.5407 H   0  0  0  0  0  0
   17.3746   26.1541   14.3582 H   0  0  0  0  0  0
   21.1439   24.8385   16.0004 H   0  0  0  0  0  0
   22.1926   26.9841   15.2386 H   0  0  0  0  0  0
   19.6446   24.1683   18.0910 H   0  0  0  0  0  0
   18.7284   25.6278   18.5978 H   0  0  0  0  0  0
   17.4018   24.2173   20.1741 H   0  0  0  0  0  0
   17.5077   22.0923   18.9924 H   0  0  0  0  0  0
   18.1528   21.9447   20.6624 H   0  0  0  0  0  0
   19.2812   22.0128   19.2664 H   0  0  0  0  0  0
   19.5502   25.3778   20.8038 H   0  0  0  0  0  0
   20.4624   23.9100   20.3138 H   0  0  0  0  0  0
   19.3340   23.8418   21.7098 H   0  0  0  0  0  0
   16.4732   25.9327   18.0213 H   0  0  0  0  0  0
   16.1483   25.4037   16.3357 H   0  0  0  0  0  0
   15.4237   23.7279   18.8396 H   0  0  0  0  0  0
   14.1831   25.8532   18.8557 H   0  0  0  0  0  0
   15.7699   22.4851   16.6686 H   0  0  0  0  0  0
   12.9253   22.4062   17.8570 H   0  0  0  0  0  0
   14.4308   18.4853   18.7379 H   0  0  0  0  0  0
   13.0830   17.5116   20.6570 H   0  0  0  0  0  0
   13.1371   19.2757   20.9912 H   0  0  0  0  0  0
   10.5941   17.2028   18.9084 H   0  0  0  0  0  0
   10.2171   19.6672   16.1312 H   0  0  0  0  0  0
   11.3041   20.4940   17.2980 H   0  0  0  0  0  0
   11.6146   17.7657   15.9701 H   0  0  0  0  0  0
   12.8270   19.0768   16.1642 H   0  0  0  0  0  0
   12.7446   17.0118   17.8282 H   0  0  0  0  0  0
   13.2627   24.0226   15.7557 H   0  0  0  0  0  0
   14.8701   24.0099   14.9540 H   0  0  0  0  0  0
   11.6280   22.3147   15.1394 H   0  0  0  0  0  0
   11.0284   20.3257   13.7763 H   0  0  0  0  0  0
   12.7747   19.0294   12.5840 H   0  0  0  0  0  0
   15.1769   19.7165   12.8154 H   0  0  0  0  0  0
   15.7558   21.7429   14.1410 H   0  0  0  0  0  0
  1  2  1  0  0  0
  1 39  1  0  0  0
  1 40  1  0  0  0
  2  3  2  0  0  0
  2  7  1  0  0  0
  3  4  1  0  0  0
  3 41  1  0  0  0
  4  5  2  0  0  0
  4 42  1  0  0  0
  5  6  1  0  0  0
  5  8  1  0  0  0
  6  7  2  0  0  0
  6 43  1  0  0  0
  7 44  1  0  0  0
  8  9  2  0  0  0
  8 10  2  0  0  0
  8 11  1  0  0  0
 11 12  1  0  0  0
 11 16  1  0  0  0
 12 13  1  0  0  0
 12 45  1  0  0  0
 12 46  1  0  0  0
 13 14  1  0  0  0
 13 15  1  0  0  0
 13 47  1  0  0  0
 14 48  1  0  0  0
 14 49  1  0  0  0
 14 50  1  0  0  0
 15 51  1  0  0  0
 15 52  1  0  0  0
 15 53  1  0  0  0
 16 17  1  0  0  0
 16 54  1  0  0  0
 16 55  1  0  0  0
 17 18  1  0  0  0
 17 19  1  0  0  0
 17 56  1  0  0  0
 18 57  1  0  0  0
 19 20  1  0  0  0
 19 32  1  0  0  0
 19 58  1  0  0  0
 20 21  1  0  0  0
 20 59  1  0  0  0
 21 22  2  0  0  0
 21 23  1  0  0  0
 23 24  1  0  0  0
 24 25  1  0  0  0
 24 31  1  0  0  0
 24 60  1  0  0  0
 25 26  1  0  0  0
 25 61  1  0  0  0
 25 62  1  0  0  0
 26 27  1  0  0  0
 27 28  1  0  0  0
 27 31  1  0  0  0
 27 63  1  0  0  0
 28 29  1  0  0  0
 29 30  1  0  0  0
 29 64  1  0  0  0
 29 65  1  0  0  0
 30 31  1  0  0  0
 30 66  1  0  0  0
 30 67  1  0  0  0
 31 68  1  0  0  0
 32 38  1  0  0  0
 32 69  1  0  0  0
 32 70  1  0  0  0
 33 34  2  0  0  0
 33 38  1  0  0  0
 33 71  1  0  0  0
 34 35  1  0  0  0
 34 72  1  0  0  0
 35 36  2  0  0  0
 35 73  1  0  0  0
 36 37  1  0  0  0
 36 74  1  0  0  0
 37 38  2  0  0  0
 37 75  1  0  0  0
M  END
> <s_m_source_file>
../2ieo_ligand.sdf

> <i_m_source_file_index>
1

> <s_epik_input>
W05IMl1jMVtjSF1bY0hdYyhbY0hdW2NIXTEpUyg9TykoPU8pTihbQ0gyXVtDSF0oW0NIM10pW0NIM10pW0NIMl1bQ0BASF0oW09IXSlbQ0BASF0oW05IXUMoPU8pT1tDQEBIXShbQ0gyXU8yKVtDQEBIXShbQ0BASF0yMylbQ0gyXVtDSDJdTzMpW0NIMl1jNFtjSF1bY0hdW2NIXVtjSF1bY0hdNA==

> <s_epik_cmdline>
J2VwaWtfYXBwJywgJy1pbWFlJywgJ2xpZ2FuZF9wcm8ubWFlJywgJy1vbWFlJywgJ2xpZ2FuZF9wcmVwLm1hZScsICctbXMnLCAnMScsICctcGgnLCAnNycsICctcGh0JywgJzAuNScsICctbnQn

> <r_lp_tautomer_probability>
1

> <r_epik_Ionization_Penalty>
  0.0000

> <r_epik_Ionization_Penalty_Charging>
  0.0000

> <r_epik_Ionization_Penalty_Neutral>
  0.0000

> <r_epik_State_Penalty>
 -0.0000

> <r_epik_Charging_Adjusted_Penalty>
0

> <i_epik_Tot_Q>
0

> <i_epik_Tot_abs_Q>
0

> <s_epik_Chemistry_Notes>
This compound has an ester and may undergo hydrolysis at high or low pH. This compound contains an acetal/aminal-like group ( X-CH(R)-Y where X, Y are N, S, or O) that may be acid/base labile, releasing an aldehyde.

$$$$
