2ig0_ligand
                    3D
 Schrodinger Suite 2020-3.
 56 55  0  0  1  0            999 V2000
   -4.9300    4.1320    5.9880 N   0  3  0  0  0  0
   -6.0990    3.4530    5.3870 C   0  0  2  0  0  0
   -7.2950    3.5310    6.3620 C   0  0  0  0  0  0
   -8.4690    3.4320    5.9510 O   0  0  0  0  0  0
   -5.7490    1.9960    5.0130 C   0  0  0  0  0  0
   -5.5250    1.7310    3.5050 C   0  0  0  0  0  0
   -4.0690    1.3890    3.0440 C   0  0  0  0  0  0
   -3.4000    2.5110    2.4050 N   0  0  0  0  0  0
   -2.6450    3.3960    3.0430 C   0  0  0  0  0  0
   -2.4380    3.2890    4.3420 N   0  0  0  0  0  0
   -2.0910    4.3890    2.3770 N   0  3  0  0  0  0
   -6.9720    3.7130    7.6470 N   0  0  0  0  0  0
   -7.9450    4.0070    8.7020 C   0  0  1  0  0  0
   -7.5630    3.4330   10.0900 C   0  0  0  0  0  0
   -6.1900    2.7670   10.3190 C   0  0  0  0  0  0
   -6.3480    1.2670   10.5850 C   0  0  0  0  0  0
   -5.8520    0.6090   11.8910 C   0  0  0  0  0  0
   -4.3720    0.3200   11.9920 N   0  3  0  0  0  0
   -4.0880   -1.0080   12.5690 C   0  0  0  0  0  0
   -3.6150    0.4990   10.7400 C   0  0  0  0  0  0
   -8.1640    5.5010    8.8060 C   0  0  0  0  0  0
   -5.1999    5.1665    6.2467 H   0  0  0  0  0  0
   -4.0994    4.1391    5.2669 H   0  0  0  0  0  0
   -4.6216    3.5952    6.8972 H   0  0  0  0  0  0
   -6.3478    3.9922    4.4611 H   0  0  0  0  0  0
   -4.8195    1.7001    5.5214 H   0  0  0  0  0  0
   -6.5665    1.3303    5.3269 H   0  0  0  0  0  0
   -6.1405    0.8764    3.1875 H   0  0  0  0  0  0
   -5.8119    2.6233    2.9293 H   0  0  0  0  0  0
   -3.4681    1.0932    3.9166 H   0  0  0  0  0  0
   -4.0984    0.5604    2.3211 H   0  0  0  0  0  0
   -3.5039    2.6686    1.3213 H   0  0  0  0  0  0
   -2.8965    2.4633    4.9058 H   0  0  0  0  0  0
   -1.8069    4.0256    4.8609 H   0  0  0  0  0  0
   -2.2582    4.4859    1.2941 H   0  0  0  0  0  0
   -5.9029    3.6301    7.8923 H   0  0  0  0  0  0
   -8.8580    3.5039    8.3508 H   0  0  0  0  0  0
   -7.5869    4.2383   10.8390 H   0  0  0  0  0  0
   -8.2803    2.6483   10.3723 H   0  0  0  0  0  0
   -5.5627    2.9036    9.4258 H   0  0  0  0  0  0
   -5.6980    3.2302   11.1870 H   0  0  0  0  0  0
   -7.4155    1.0020   10.5676 H   0  0  0  0  0  0
   -5.8164    0.6987    9.8075 H   0  0  0  0  0  0
   -6.0850    1.2644   12.7432 H   0  0  0  0  0  0
   -6.3534   -0.3607   12.0264 H   0  0  0  0  0  0
   -3.9822    1.0837   12.6811 H   0  0  0  0  0  0
   -4.6572   -1.1317   13.5021 H   0  0  0  0  0  0
   -3.0121   -1.0929   12.7817 H   0  0  0  0  0  0
   -4.3830   -1.7894   11.8532 H   0  0  0  0  0  0
   -3.8334    1.4911   10.3181 H   0  0  0  0  0  0
   -3.9088   -0.2786   10.0195 H   0  0  0  0  0  0
   -2.5379    0.4180   10.9480 H   0  0  0  0  0  0
   -8.4346    5.9016    7.8179 H   0  0  0  0  0  0
   -7.2398    5.9835    9.1567 H   0  0  0  0  0  0
   -8.9768    5.7037    9.5190 H   0  0  0  0  0  0
   -1.4614    5.1210    2.9040 H   0  0  0  0  0  0
  1  2  1  0  0  0
  1 22  1  0  0  0
  1 23  1  0  0  0
  1 24  1  0  0  0
  2  3  1  0  0  0
  2  5  1  0  0  0
  2 25  1  0  0  0
  3  4  2  0  0  0
  3 12  1  0  0  0
  5  6  1  0  0  0
  5 26  1  0  0  0
  5 27  1  0  0  0
  6  7  1  0  0  0
  6 28  1  0  0  0
  6 29  1  0  0  0
  7  8  1  0  0  0
  7 30  1  0  0  0
  7 31  1  0  0  0
  8  9  1  0  0  0
  8 32  1  0  0  0
  9 10  1  0  0  0
  9 11  2  0  0  0
 10 33  1  0  0  0
 10 34  1  0  0  0
 11 35  1  0  0  0
 11 56  1  0  0  0
 12 13  1  0  0  0
 12 36  1  0  0  0
 13 14  1  0  0  0
 13 21  1  0  0  0
 13 37  1  0  0  0
 14 15  1  0  0  0
 14 38  1  0  0  0
 14 39  1  0  0  0
 15 16  1  0  0  0
 15 40  1  0  0  0
 15 41  1  0  0  0
 16 17  1  0  0  0
 16 42  1  0  0  0
 16 43  1  0  0  0
 17 18  1  0  0  0
 17 44  1  0  0  0
 17 45  1  0  0  0
 18 19  1  0  0  0
 18 20  1  0  0  0
 18 46  1  0  0  0
 19 47  1  0  0  0
 19 48  1  0  0  0
 19 49  1  0  0  0
 20 50  1  0  0  0
 20 51  1  0  0  0
 20 52  1  0  0  0
 21 53  1  0  0  0
 21 54  1  0  0  0
 21 55  1  0  0  0
M  CHG  3   1   1  11   1  18   1
M  END
> <s_m_source_file>
../2ig0_ligand.sdf

> <i_m_source_file_index>
1

> <s_epik_input>
W0hdL049QyhbTkgyXSlcW05IXVtDSDJdW0NIMl1bQ0gyXVtDQEhdKFtOSDMrXSlDKD1PKVtOSF1bQ0BIXShbQ0gzXSlbQ0gyXVtDSDJdW0NIMl1bQ0gyXVtOSCtdKFtDSDNdKVtDSDNd

> <s_epik_cmdline>
J2VwaWtfYXBwJywgJy1pbWFlJywgJ2xpZ2FuZF9wcm8ubWFlJywgJy1vbWFlJywgJ2xpZ2FuZF9wcmVwLm1hZScsICctbXMnLCAnMScsICctcGgnLCAnNycsICctcGh0JywgJzAuNScsICctbnQn

> <r_epik_Ionization_Penalty>
  0.1115

> <r_epik_Ionization_Penalty_Charging>
  0.1115

> <r_epik_Ionization_Penalty_Neutral>
  0.0000

> <r_epik_State_Penalty>
  0.0998

> <r_epik_Charging_Adjusted_Penalty>
0.211257016562512

> <i_epik_Tot_Q>
3

> <i_epik_Tot_abs_Q>
3

> <s_epik_Chemistry_Notes>
This compound has an imine and may undergo hydrolysis.

$$$$
