2igw_ligand
                    3D
 Schrodinger Suite 2020-3.
 24 24  0  0  1  0            999 V2000
   45.9500   17.5750   12.1590 N   0  3  0  0  0  0
   47.0840   16.7730   12.7260 C   0  0  0  0  0  0
   48.2790   17.6670   13.0540 C   0  0  0  0  0  0
   48.5410   18.6430   12.3260 O   0  0  0  0  0  0
   48.9960   17.3660   14.1420 N   0  0  0  0  0  0
   48.7050   16.2280   15.0270 C   0  0  2  0  0  0
   47.6640   16.5480   16.1520 C   0  0  0  0  0  0
   47.0480   17.6380   16.3450 O   0  5  0  0  0  0
   50.0780   15.9420   15.6400 C   0  0  0  0  0  0
   50.7360   17.3310   15.7500 C   0  0  0  0  0  0
   50.1430   18.1590   14.6220 C   0  0  0  0  0  0
   47.4060   15.6710   16.9800 O   0  0  0  0  0  0
   45.1057   16.9072   11.9329 H   0  0  0  0  0  0
   46.2797   18.0746   11.2361 H   0  0  0  0  0  0
   45.6332   18.3312   12.8923 H   0  0  0  0  0  0
   46.7543   16.2734   13.6489 H   0  0  0  0  0  0
   47.4009   16.0167   11.9928 H   0  0  0  0  0  0
   48.2707   15.4109   14.4323 H   0  0  0  0  0  0
   49.9486   15.4664   16.6234 H   0  0  0  0  0  0
   50.6419   15.2682   14.9782 H   0  0  0  0  0  0
   50.5046   17.7696   16.7319 H   0  0  0  0  0  0
   51.8259   17.2301   15.6412 H   0  0  0  0  0  0
   50.8592   18.3028   13.7995 H   0  0  0  0  0  0
   49.7892   19.1387   14.9756 H   0  0  0  0  0  0
  1  2  1  0  0  0
  1 13  1  0  0  0
  1 14  1  0  0  0
  1 15  1  0  0  0
  2  3  1  0  0  0
  2 16  1  0  0  0
  2 17  1  0  0  0
  3  4  2  0  0  0
  3  5  1  0  0  0
  5  6  1  0  0  0
  5 11  1  0  0  0
  6  7  1  0  0  0
  6  9  1  0  0  0
  6 18  1  0  0  0
  7  8  1  0  0  0
  7 12  2  0  0  0
  9 10  1  0  0  0
  9 19  1  0  0  0
  9 20  1  0  0  0
 10 11  1  0  0  0
 10 21  1  0  0  0
 10 22  1  0  0  0
 11 23  1  0  0  0
 11 24  1  0  0  0
M  CHG  2   1   1   8  -1
M  END
> <s_m_source_file>
../2igw_ligand.sdf

> <i_m_source_file_index>
1

> <s_epik_input>
W05IMytdW0NIMl1DKD1PKU4xW0NASF0oQyg9TylbT0hdKVtDSDJdW0NIMl1bQ0gyXTE=

> <s_epik_cmdline>
J2VwaWtfYXBwJywgJy1pbWFlJywgJ2xpZ2FuZF9wcm8ubWFlJywgJy1vbWFlJywgJ2xpZ2FuZF9wcmVwLm1hZScsICctbXMnLCAnMScsICctcGgnLCAnNycsICctcGh0JywgJzAuNScsICctbnQn

> <r_epik_Ionization_Penalty>
  0.0972

> <r_epik_Ionization_Penalty_Charging>
  0.0972

> <r_epik_Ionization_Penalty_Neutral>
  0.0000

> <r_epik_State_Penalty>
  0.0870

> <r_epik_Charging_Adjusted_Penalty>
0.184183302526563

> <i_epik_Tot_Q>
0

> <i_epik_Tot_abs_Q>
2

$$$$
