2igx_ligand
                    3D
 Schrodinger Suite 2020-3.
 97102  0  0  1  0            999 V2000
   56.8700   60.2970   13.1870 O   0  0  0  0  0  0
   56.9890   60.0360   11.9960 C   0  0  0  0  0  0
   55.7060   59.9230   11.2280 C   0  0  0  0  0  0
   55.0440   61.0990   10.8850 C   0  0  0  0  0  0
   53.8350   61.0220   10.1970 C   0  0  0  0  0  0
   53.3200   59.7580    9.8930 C   0  0  0  0  0  0
   52.0070   59.6580    9.1430 C   0  0  0  0  0  0
   52.2580   59.6210    7.6400 C   0  0  0  0  0  0
   50.9330   59.4290    6.9130 C   0  0  0  0  0  0
   51.1620   59.3880    5.4110 C   0  0  0  0  0  0
   49.8370   59.4690    4.6680 C   0  0  0  0  0  0
   54.0100   58.6050   10.2670 C   0  0  0  0  0  0
   55.1760   58.7060   10.9360 N   0  0  0  0  0  0
   58.1960   59.8610   11.4570 N   0  0  0  0  0  0
   59.3360   60.0230   12.3800 C   0  0  2  0  0  0
   60.4290   60.9290   11.8100 C   0  0  0  0  0  0
   61.5300   61.0750   12.8710 C   0  0  0  0  0  0
   62.0310   59.7210   13.1010 N   0  0  1  0  0  0
   63.3790   59.7170   13.6820 C   0  0  0  0  0  0
   63.4400   59.5760   15.1870 C   0  0  0  0  0  0
   64.1620   58.5240   15.7460 C   0  0  0  0  0  0
   64.2280   58.3980   17.1280 C   0  0  0  0  0  0
   63.5600   59.3310   17.9200 C   0  0  0  0  0  0
   62.8540   60.3780   17.3190 C   0  0  0  0  0  0
   62.8160   60.4830   15.9780 N   0  0  0  0  0  0
   61.0720   58.7950   13.7060 C   0  0  0  0  0  0
   59.9160   58.6410   12.7110 C   0  0  0  0  0  0
   58.5200   59.4620   10.0830 C   0  0  0  0  0  0
   58.8650   60.5590    9.1030 C   0  0  0  0  0  0
   58.4600   61.9010    9.2250 C   0  0  0  0  0  0
   58.8340   62.8420    8.2580 C   0  0  0  0  0  0
   59.6340   60.1690    8.0060 C   0  0  0  0  0  0
   59.9920   61.1010    7.0380 C   0  0  0  0  0  0
   59.6100   62.4400    7.1600 C   0  0  0  0  0  0
   60.0310   63.3330    6.0430 C   0  0  0  0  0  0
   59.0440   64.0300    5.3530 C   0  0  0  0  0  0
   59.3620   64.8420    4.2660 C   0  0  0  0  0  0
   61.3620   63.4100    5.6110 C   0  0  0  0  0  0
   61.6870   64.2310    4.5230 C   0  0  0  0  0  0
   60.6870   64.9520    3.8500 C   0  0  0  0  0  0
   61.0430   65.8210    2.6670 C   0  0  0  0  0  0
   61.5570   65.2670    1.7080 O   0  0  0  0  0  0
   60.8160   67.1420    2.6240 N   0  0  0  0  0  0
   60.1990   67.9130    3.7090 C   0  0  0  0  0  0
   58.8460   68.3520    3.1450 C   0  0  0  0  0  0
   59.0660   69.2430    1.9100 C   0  0  0  0  0  0
   59.8910   68.5040    0.8570 C   0  0  0  0  0  0
   61.1900   67.9310    1.4430 C   0  0  0  0  0  0
   55.4665   62.0678   11.1515 H   0  0  0  0  0  0
   53.3027   61.9264    9.9024 H   0  0  0  0  0  0
   51.4829   58.7384    9.4423 H   0  0  0  0  0  0
   51.3812   60.5307    9.3812 H   0  0  0  0  0  0
   52.7189   60.5678    7.3218 H   0  0  0  0  0  0
   52.9333   58.7861    7.4015 H   0  0  0  0  0  0
   50.4725   58.4829    7.2337 H   0  0  0  0  0  0
   50.2589   60.2646    7.1525 H   0  0  0  0  0  0
   51.7917   60.2392    5.1127 H   0  0  0  0  0  0
   51.6655   58.4476    5.1424 H   0  0  0  0  0  0
   50.0220   59.4380    3.5841 H   0  0  0  0  0  0
   49.3286   60.4096    4.9265 H   0  0  0  0  0  0
   49.2024   58.6180    4.9562 H   0  0  0  0  0  0
   53.6068   57.6232   10.0186 H   0  0  0  0  0  0
   58.9256   60.5142   13.2746 H   0  0  0  0  0  0
   60.8412   60.4760   10.8963 H   0  0  0  0  0  0
   60.0011   61.9136   11.5702 H   0  0  0  0  0  0
   62.3212   61.7372   12.4896 H   0  0  0  0  0  0
   61.1011   61.5063   13.7876 H   0  0  0  0  0  0
   63.9540   58.8754   13.2684 H   0  0  0  0  0  0
   63.8860   60.6623   13.4385 H   0  0  0  0  0  0
   64.6713   57.8052   15.1041 H   0  0  0  0  0  0
   64.7917   57.5846   17.5848 H   0  0  0  0  0  0
   63.5880   59.2445   19.0062 H   0  0  0  0  0  0
   62.3340   61.1097   17.9374 H   0  0  0  0  0  0
   61.5618   57.8271   13.8881 H   0  0  0  0  0  0
   60.7135   59.2097   14.6597 H   0  0  0  0  0  0
   59.1316   58.0111   13.1559 H   0  0  0  0  0  0
   60.2868   58.1686   11.7894 H   0  0  0  0  0  0
   59.3935   58.7935   10.0916 H   0  0  0  0  0  0
   57.6605   58.9364    9.6414 H   0  0  0  0  0  0
   57.8525   62.2093   10.0759 H   0  0  0  0  0  0
   58.5238   63.8822    8.3576 H   0  0  0  0  0  0
   59.9547   59.1319    7.9076 H   0  0  0  0  0  0
   60.5769   60.7839    6.1746 H   0  0  0  0  0  0
   58.0045   63.9394    5.6680 H   0  0  0  0  0  0
   58.5772   65.3888    3.7434 H   0  0  0  0  0  0
   62.1381   62.8359    6.1172 H   0  0  0  0  0  0
   62.7239   64.3107    4.1964 H   0  0  0  0  0  0
   60.0855   67.2720    4.5957 H   0  0  0  0  0  0
   60.8385   68.7728    3.9575 H   0  0  0  0  0  0
   58.2637   67.4645    2.8563 H   0  0  0  0  0  0
   58.2958   68.9183    3.9109 H   0  0  0  0  0  0
   58.0925   69.5143    1.4755 H   0  0  0  0  0  0
   59.6020   70.1563    2.2076 H   0  0  0  0  0  0
   59.3013   67.6703    0.4480 H   0  0  0  0  0  0
   60.1566   69.1979    0.0459 H   0  0  0  0  0  0
   61.8714   68.7405    1.7436 H   0  0  0  0  0  0
   61.6930   67.2809    0.7120 H   0  0  0  0  0  0
  1  2  2  0  0  0
  2  3  1  0  0  0
  2 14  1  0  0  0
  3  4  2  0  0  0
  3 13  1  0  0  0
  4  5  1  0  0  0
  4 49  1  0  0  0
  5  6  2  0  0  0
  5 50  1  0  0  0
  6  7  1  0  0  0
  6 12  1  0  0  0
  7  8  1  0  0  0
  7 51  1  0  0  0
  7 52  1  0  0  0
  8  9  1  0  0  0
  8 53  1  0  0  0
  8 54  1  0  0  0
  9 10  1  0  0  0
  9 55  1  0  0  0
  9 56  1  0  0  0
 10 11  1  0  0  0
 10 57  1  0  0  0
 10 58  1  0  0  0
 11 59  1  0  0  0
 11 60  1  0  0  0
 11 61  1  0  0  0
 12 13  2  0  0  0
 12 62  1  0  0  0
 14 15  1  0  0  0
 14 28  1  0  0  0
 15 16  1  0  0  0
 15 27  1  0  0  0
 15 63  1  0  0  0
 16 17  1  0  0  0
 16 64  1  0  0  0
 16 65  1  0  0  0
 17 18  1  0  0  0
 17 66  1  0  0  0
 17 67  1  0  0  0
 18 19  1  0  0  0
 18 26  1  0  0  0
 19 20  1  0  0  0
 19 68  1  0  0  0
 19 69  1  0  0  0
 20 21  2  0  0  0
 20 25  1  0  0  0
 21 22  1  0  0  0
 21 70  1  0  0  0
 22 23  2  0  0  0
 22 71  1  0  0  0
 23 24  1  0  0  0
 23 72  1  0  0  0
 24 25  2  0  0  0
 24 73  1  0  0  0
 26 27  1  0  0  0
 26 74  1  0  0  0
 26 75  1  0  0  0
 27 76  1  0  0  0
 27 77  1  0  0  0
 28 29  1  0  0  0
 28 78  1  0  0  0
 28 79  1  0  0  0
 29 30  2  0  0  0
 29 32  1  0  0  0
 30 31  1  0  0  0
 30 80  1  0  0  0
 31 34  2  0  0  0
 31 81  1  0  0  0
 32 33  2  0  0  0
 32 82  1  0  0  0
 33 34  1  0  0  0
 33 83  1  0  0  0
 34 35  1  0  0  0
 35 36  2  0  0  0
 35 38  1  0  0  0
 36 37  1  0  0  0
 36 84  1  0  0  0
 37 40  2  0  0  0
 37 85  1  0  0  0
 38 39  2  0  0  0
 38 86  1  0  0  0
 39 40  1  0  0  0
 39 87  1  0  0  0
 40 41  1  0  0  0
 41 42  2  0  0  0
 41 43  1  0  0  0
 43 44  1  0  0  0
 43 48  1  0  0  0
 44 45  1  0  0  0
 44 88  1  0  0  0
 44 89  1  0  0  0
 45 46  1  0  0  0
 45 90  1  0  0  0
 45 91  1  0  0  0
 46 47  1  0  0  0
 46 92  1  0  0  0
 46 93  1  0  0  0
 47 48  1  0  0  0
 47 94  1  0  0  0
 47 95  1  0  0  0
 48 96  1  0  0  0
 48 97  1  0  0  0
M  END
> <s_m_source_file>
../2igx_ligand.sdf

> <i_m_source_file_index>
1

> <s_epik_input>
bjFbY0hdW2NIXVtjSF1bY0hdYzFbQ0gyXVtOQEBIK10oW0NIMl1bQ0gyXTIpW0NIMl1bQ0gyXVtDQEhdMk4oQyg9TyljM1tjSF1bY0hdYyhbY0hdbjMpW0NIMl1bQ0gyXVtDSDJdW0NIMl1bQ0gzXSlbQ0gyXWM0W2NIXVtjSF1jKFtjSF1bY0hdNCktYzVbY0hdW2NIXWMoW2NIXVtjSF01KUMoPU8pTjZbQ0gyXVtDSDJdW0NIMl1bQ0gyXVtDSDJdNg==

> <s_epik_cmdline>
J2VwaWtfYXBwJywgJy1pbWFlJywgJ2xpZ2FuZF9wcm8ubWFlJywgJy1vbWFlJywgJ2xpZ2FuZF9wcmVwLm1hZScsICctbXMnLCAnMScsICctcGgnLCAnNycsICctcGh0JywgJzAuNScsICctbnQn

> <r_epik_Ionization_Penalty>
  0.3039

> <r_epik_Ionization_Penalty_Charging>
  0.0000

> <r_epik_Ionization_Penalty_Neutral>
  0.3039

> <r_epik_State_Penalty>
  0.2975

> <r_epik_Charging_Adjusted_Penalty>
0.297515512891868

> <i_epik_Tot_Q>
0

> <i_epik_Tot_abs_Q>
0

$$$$
