2igy_ligand
                    3D
 Schrodinger Suite 2020-3.
 89 92  0  0  1  0            999 V2000
   44.9170    0.3540  -13.7810 O   0  0  0  0  0  0
   43.8650   -0.1590  -13.4680 C   0  0  0  0  0  0
   42.6070    0.3990  -14.0770 C   0  0  0  0  0  0
   42.0040    1.5120  -13.4870 C   0  0  0  0  0  0
   40.8260    2.0310  -14.0310 C   0  0  0  0  0  0
   40.2560    1.4490  -15.1690 C   0  0  0  0  0  0
   38.9960    2.0340  -15.7600 C   0  0  0  0  0  0
   37.7670    1.4710  -15.0560 C   0  0  0  0  0  0
   36.5750    2.2980  -15.5030 C   0  0  0  0  0  0
   35.3970    1.4150  -15.8580 C   0  0  0  0  0  0
   34.1080    2.0610  -15.3990 C   0  0  0  0  0  0
   40.8610    0.3460  -15.7680 C   0  0  0  0  0  0
   42.0440   -0.1720  -15.2230 C   0  0  0  0  0  0
   43.8560   -1.1640  -12.5770 N   0  0  0  0  0  0
   45.1790   -1.6730  -12.1730 C   0  0  2  0  0  0
   45.3060   -3.1720  -12.4490 C   0  0  0  0  0  0
   46.7500   -3.5370  -12.1680 C   0  0  0  0  0  0
   46.9840   -3.2640  -10.7530 N   0  3  1  0  0  0
   48.2910   -3.8430  -10.4850 C   0  0  0  0  0  0
   48.7720   -3.3500   -9.1310 C   0  0  0  0  0  0
   49.9660   -4.1780   -8.6890 C   0  0  0  0  0  0
   49.8940   -4.4460   -7.1850 C   0  0  0  0  0  0
   51.2680   -3.4950   -9.1090 C   0  0  0  0  0  0
   46.9180   -1.8250  -10.4340 C   0  0  0  0  0  0
   45.4750   -1.3890  -10.6900 C   0  0  0  0  0  0
   42.6950   -1.7780  -11.9320 C   0  0  0  0  0  0
   42.2120   -3.0410  -12.6180 C   0  0  0  0  0  0
   41.5790   -4.0350  -11.8590 C   0  0  0  0  0  0
   41.1270   -5.2050  -12.4780 C   0  0  0  0  0  0
   42.3930   -3.2380  -13.9900 C   0  0  0  0  0  0
   41.9470   -4.4000  -14.6040 C   0  0  0  0  0  0
   41.3090   -5.3850  -13.8560 C   0  0  0  0  0  0
   40.8620   -6.5580  -14.4950 N   0  0  0  0  0  0
   39.5130   -6.3590  -15.0160 C   0  0  0  0  0  0
   41.2790   -7.9000  -14.4240 C   0  0  0  0  0  0
   40.8910   -8.8270  -15.4020 C   0  0  0  0  0  0
   42.0950   -8.3280  -13.3680 C   0  0  0  0  0  0
   42.5050   -9.6630  -13.2980 C   0  0  0  0  0  0
   42.1090  -10.5350  -14.2490 N   0  0  0  0  0  0
   41.3230  -10.1510  -15.2840 C   0  0  0  0  0  0
   42.4502    1.9738  -12.6062 H   0  0  0  0  0  0
   40.3485    2.8938  -13.5665 H   0  0  0  0  0  0
   39.0079    3.1273  -15.6398 H   0  0  0  0  0  0
   38.9420    1.7833  -16.8297 H   0  0  0  0  0  0
   37.6338    0.4162  -15.3383 H   0  0  0  0  0  0
   37.9024    1.5447  -13.9669 H   0  0  0  0  0  0
   36.2732    2.9752  -14.6904 H   0  0  0  0  0  0
   36.8501    2.8886  -16.3893 H   0  0  0  0  0  0
   35.3615    1.2718  -16.9481 H   0  0  0  0  0  0
   35.5083    0.4388  -15.3634 H   0  0  0  0  0  0
   33.2592    1.4124  -15.6613 H   0  0  0  0  0  0
   33.9905    3.0366  -15.8934 H   0  0  0  0  0  0
   34.1373    2.2036  -14.3087 H   0  0  0  0  0  0
   40.4180   -0.1103  -16.6532 H   0  0  0  0  0  0
   42.5288   -1.0261  -15.6958 H   0  0  0  0  0  0
   45.8874   -1.1173  -12.8050 H   0  0  0  0  0  0
   44.6235   -3.7257  -11.7875 H   0  0  0  0  0  0
   45.0450   -3.3751  -13.4981 H   0  0  0  0  0  0
   46.9094   -4.6020  -12.3927 H   0  0  0  0  0  0
   47.4121   -2.9261  -12.7991 H   0  0  0  0  0  0
   46.2093   -3.7156  -10.1160 H   0  0  0  0  0  0
   48.2114   -4.9401  -10.4771 H   0  0  0  0  0  0
   48.9974   -3.5323  -11.2689 H   0  0  0  0  0  0
   49.0662   -2.2929   -9.2090 H   0  0  0  0  0  0
   47.9612   -3.4516   -8.3946 H   0  0  0  0  0  0
   49.9377   -5.1550   -9.1936 H   0  0  0  0  0  0
   48.9390   -4.9364   -6.9453 H   0  0  0  0  0  0
   49.9644   -3.4936   -6.6391 H   0  0  0  0  0  0
   50.7269   -5.1008   -6.8890 H   0  0  0  0  0  0
   51.2609   -3.3293  -10.1964 H   0  0  0  0  0  0
   52.1211   -4.1358   -8.8413 H   0  0  0  0  0  0
   51.3586   -2.5286   -8.5914 H   0  0  0  0  0  0
   47.1944   -1.6699   -9.3807 H   0  0  0  0  0  0
   47.6159   -1.2735  -11.0812 H   0  0  0  0  0  0
   45.3513   -0.3143  -10.4907 H   0  0  0  0  0  0
   44.7774   -1.9612  -10.0607 H   0  0  0  0  0  0
   42.9501   -2.0458  -10.8960 H   0  0  0  0  0  0
   41.8568   -1.0657  -11.9308 H   0  0  0  0  0  0
   41.4391   -3.8963  -10.7870 H   0  0  0  0  0  0
   40.6329   -5.9772  -11.8884 H   0  0  0  0  0  0
   42.8897   -2.4708  -14.5840 H   0  0  0  0  0  0
   42.0967   -4.5414  -15.6744 H   0  0  0  0  0  0
   39.2812   -5.2838  -15.0323 H   0  0  0  0  0  0
   38.7903   -6.8802  -14.3710 H   0  0  0  0  0  0
   39.4511   -6.7630  -16.0372 H   0  0  0  0  0  0
   40.2638   -8.5206  -16.2391 H   0  0  0  0  0  0
   42.4100   -7.6202  -12.6013 H   0  0  0  0  0  0
   43.1416   -9.9979  -12.4790 H   0  0  0  0  0  0
   41.0240  -10.8836  -16.0336 H   0  0  0  0  0  0
  1  2  2  0  0  0
  2  3  1  0  0  0
  2 14  1  0  0  0
  3  4  2  0  0  0
  3 13  1  0  0  0
  4  5  1  0  0  0
  4 41  1  0  0  0
  5  6  2  0  0  0
  5 42  1  0  0  0
  6  7  1  0  0  0
  6 12  1  0  0  0
  7  8  1  0  0  0
  7 43  1  0  0  0
  7 44  1  0  0  0
  8  9  1  0  0  0
  8 45  1  0  0  0
  8 46  1  0  0  0
  9 10  1  0  0  0
  9 47  1  0  0  0
  9 48  1  0  0  0
 10 11  1  0  0  0
 10 49  1  0  0  0
 10 50  1  0  0  0
 11 51  1  0  0  0
 11 52  1  0  0  0
 11 53  1  0  0  0
 12 13  2  0  0  0
 12 54  1  0  0  0
 13 55  1  0  0  0
 14 15  1  0  0  0
 14 26  1  0  0  0
 15 16  1  0  0  0
 15 25  1  0  0  0
 15 56  1  0  0  0
 16 17  1  0  0  0
 16 57  1  0  0  0
 16 58  1  0  0  0
 17 18  1  0  0  0
 17 59  1  0  0  0
 17 60  1  0  0  0
 18 19  1  0  0  0
 18 24  1  0  0  0
 18 61  1  0  0  0
 19 20  1  0  0  0
 19 62  1  0  0  0
 19 63  1  0  0  0
 20 21  1  0  0  0
 20 64  1  0  0  0
 20 65  1  0  0  0
 21 22  1  0  0  0
 21 23  1  0  0  0
 21 66  1  0  0  0
 22 67  1  0  0  0
 22 68  1  0  0  0
 22 69  1  0  0  0
 23 70  1  0  0  0
 23 71  1  0  0  0
 23 72  1  0  0  0
 24 25  1  0  0  0
 24 73  1  0  0  0
 24 74  1  0  0  0
 25 75  1  0  0  0
 25 76  1  0  0  0
 26 27  1  0  0  0
 26 77  1  0  0  0
 26 78  1  0  0  0
 27 28  2  0  0  0
 27 30  1  0  0  0
 28 29  1  0  0  0
 28 79  1  0  0  0
 29 32  2  0  0  0
 29 80  1  0  0  0
 30 31  2  0  0  0
 30 81  1  0  0  0
 31 32  1  0  0  0
 31 82  1  0  0  0
 32 33  1  0  0  0
 33 34  1  0  0  0
 33 35  1  0  0  0
 34 83  1  0  0  0
 34 84  1  0  0  0
 34 85  1  0  0  0
 35 36  2  0  0  0
 35 37  1  0  0  0
 36 40  1  0  0  0
 36 86  1  0  0  0
 37 38  2  0  0  0
 37 87  1  0  0  0
 38 39  1  0  0  0
 38 88  1  0  0  0
 39 40  2  0  0  0
 40 89  1  0  0  0
M  CHG  1  18   1
M  END
> <s_m_source_file>
../2igy_ligand.sdf

> <i_m_source_file_index>
1

> <s_epik_input>
W0NIM11bQ0gyXVtDSDJdW0NIMl1bQ0gyXWMoW2NIXVtjSF0xKVtjSF1bY0hdYzFDKD1PKU4oW0NAQEhdMltDSDJdW0NIMl1bTkBIK10oW0NIMl1bQ0gyXTIpW0NIMl1bQ0gyXVtDSF0oW0NIM10pW0NIM10pW0NIMl1jM1tjSF1bY0hdYyhbY0hdW2NIXTMpTihbQ0gzXSljNFtjSF1bY0hdbltjSF1bY0hdNA==

> <s_epik_cmdline>
J2VwaWtfYXBwJywgJy1pbWFlJywgJ2xpZ2FuZF9wcm8ubWFlJywgJy1vbWFlJywgJ2xpZ2FuZF9wcmVwLm1hZScsICctbXMnLCAnMScsICctcGgnLCAnNycsICctcGh0JywgJzAuNScsICctbnQn

> <r_lp_tautomer_probability>
1

> <r_epik_Ionization_Penalty>
  0.3535

> <r_epik_Ionization_Penalty_Charging>
  0.0031

> <r_epik_Ionization_Penalty_Neutral>
  0.3504

> <r_epik_State_Penalty>
  0.3466

> <r_epik_Charging_Adjusted_Penalty>
0.349673017150159

> <i_epik_Tot_Q>
1

> <i_epik_Tot_abs_Q>
1

$$$$
