2ihj_ligand
                    3D
 Schrodinger Suite 2020-3.
 70 72  0  0  1  0            999 V2000
   10.7400    4.2170    1.3480 C   0  0  2  0  0  0
   11.5540    3.5610    2.4760 C   0  0  2  0  0  0
   10.1960    1.5070    2.3380 C   0  0  1  0  0  0
    9.5050    2.1150    1.2340 O   0  0  0  0  0  0
   10.2320    3.0770    0.4460 C   0  0  1  0  0  0
   10.6380    2.6260    3.2800 C   0  0  2  0  0  0
   12.2400    4.4780    3.3420 O   0  0  0  0  0  0
   11.6580    5.0140    0.5380 N   0  0  0  0  0  0
    9.3440    3.4930   -0.7350 C   0  0  1  0  0  0
    8.8510    2.2690   -1.5300 C   0  0  1  0  0  0
    7.8930    2.6110   -2.6750 C   0  0  0  0  0  0
    8.5920    3.3230   -3.7050 O   0  0  0  0  0  0
    9.9650    1.5410   -2.0680 O   0  0  0  0  0  0
    8.2280    4.2380   -0.2390 O   0  0  0  0  0  0
    9.2320    0.5710    3.0500 C   0  0  0  0  0  0
    9.5930   -0.0380    4.0720 O   0  0  0  0  0  0
    8.0730    0.4270    2.6050 O   0  5  0  0  0  0
   11.4190    0.8330    1.9460 O   0  0  0  0  0  0
   12.8220    0.4600   -0.1220 O   0  5  0  0  0  0
   11.7120   -5.4310    1.2650 N   0  0  0  0  0  0
   11.7390   -6.7970    0.8930 C   0  0  0  0  0  0
   11.5090   -7.1500   -0.4000 N   0  0  0  0  0  0
   11.2430   -6.2150   -1.3520 C   0  0  0  0  0  0
   11.2170   -4.8640   -1.0010 C   0  0  0  0  0  0
   11.4470   -4.5020    0.3230 C   0  0  0  0  0  0
   11.6790   -0.1430    0.6630 P   0  0  2  0  0  0
   11.0220   -6.5810   -2.6410 N   0  0  0  0  0  0
   11.9760   -7.6670    1.7700 O   0  0  0  0  0  0
   10.3510   -0.4210    0.0390 O   0  0  0  0  0  0
   11.3780    6.2280    0.0410 C   0  0  0  0  0  0
   10.3130    6.8050    0.2190 O   0  0  0  0  0  0
   12.4740    6.8520   -0.7750 C   0  0  0  0  0  0
    9.5330    3.2840    3.7900 F   0  0  0  0  0  0
   13.7930   -3.5750    2.8440 C   0  0  1  0  0  0
   13.4320   -5.0350    3.0230 C   0  0  2  0  0  0
   11.9500   -5.0590    2.6820 C   0  0  1  0  0  0
   11.4630   -3.7410    2.9930 O   0  0  0  0  0  0
   12.5460   -2.8870    3.3790 C   0  0  2  0  0  0
   12.2660   -1.4490    1.4100 O   0  0  0  0  0  0
   12.3600   -1.4680    2.8400 C   0  0  0  0  0  0
   14.9810   -3.2050    3.5510 O   0  0  0  0  0  0
   13.5800   -5.4130    4.3970 O   0  0  0  0  0  0
    9.9407    4.8694    1.7294 H   0  0  0  0  0  0
   12.4122    3.0366    2.0305 H   0  0  0  0  0  0
   11.1303    2.5950    0.0329 H   0  0  0  0  0  0
   11.1113    2.2705    4.2071 H   0  0  0  0  0  0
   12.9367    5.2170    2.9195 H   0  0  0  0  0  0
   12.6585    4.6252    0.2973 H   0  0  0  0  0  0
    9.8914    4.1726   -1.4047 H   0  0  0  0  0  0
    8.3347    1.6024   -0.8236 H   0  0  0  0  0  0
    7.4777    1.6831   -3.0951 H   0  0  0  0  0  0
    7.0746    3.2390   -2.2932 H   0  0  0  0  0  0
    8.0562    3.6499   -4.6084 H   0  0  0  0  0  0
   10.7720    1.2000   -1.4029 H   0  0  0  0  0  0
    8.3949    5.1490    0.3544 H   0  0  0  0  0  0
   11.0190   -4.1020   -1.7548 H   0  0  0  0  0  0
   11.4125   -3.4494    0.6040 H   0  0  0  0  0  0
   11.0416   -7.6444   -2.9219 H   0  0  0  0  0  0
   10.8234   -5.8141   -3.4042 H   0  0  0  0  0  0
   13.3380    6.1721   -0.8094 H   0  0  0  0  0  0
   12.7755    7.8052   -0.3161 H   0  0  0  0  0  0
   12.1110    7.0356   -1.7970 H   0  0  0  0  0  0
   14.0939   -3.2870    1.8259 H   0  0  0  0  0  0
   14.0722   -5.7311    2.4611 H   0  0  0  0  0  0
   11.3753   -5.7954    3.2628 H   0  0  0  0  0  0
   12.5625   -2.7947    4.4750 H   0  0  0  0  0  0
   11.4355   -1.0375    3.2522 H   0  0  0  0  0  0
   13.2180   -0.8473    3.1376 H   0  0  0  0  0  0
   15.9507   -3.6348    3.2598 H   0  0  0  0  0  0
   14.5814   -5.4599    4.8497 H   0  0  0  0  0  0
  1  2  1  0  0  0
  1  5  1  0  0  0
  1  8  1  0  0  0
  1 43  1  0  0  0
  2  6  1  0  0  0
  2  7  1  0  0  0
  2 44  1  0  0  0
  3  4  1  0  0  0
  3  6  1  0  0  0
  3 15  1  0  0  0
  3 18  1  0  0  0
  4  5  1  0  0  0
  5  9  1  0  0  0
  5 45  1  0  0  0
  6 33  1  0  0  0
  6 46  1  0  0  0
  7 47  1  0  0  0
  8 30  1  0  0  0
  8 48  1  0  0  0
  9 10  1  0  0  0
  9 14  1  0  0  0
  9 49  1  0  0  0
 10 11  1  0  0  0
 10 13  1  0  0  0
 10 50  1  0  0  0
 11 12  1  0  0  0
 11 51  1  0  0  0
 11 52  1  0  0  0
 12 53  1  0  0  0
 13 54  1  0  0  0
 14 55  1  0  0  0
 15 16  2  0  0  0
 15 17  1  0  0  0
 18 26  1  0  0  0
 19 26  1  0  0  0
 20 21  1  0  0  0
 20 25  1  0  0  0
 20 36  1  0  0  0
 21 22  1  0  0  0
 21 28  2  0  0  0
 22 23  2  0  0  0
 23 24  1  0  0  0
 23 27  1  0  0  0
 24 25  2  0  0  0
 24 56  1  0  0  0
 25 57  1  0  0  0
 26 29  2  0  0  0
 26 39  1  0  0  0
 27 58  1  0  0  0
 27 59  1  0  0  0
 30 31  2  0  0  0
 30 32  1  0  0  0
 32 60  1  0  0  0
 32 61  1  0  0  0
 32 62  1  0  0  0
 34 35  1  0  0  0
 34 38  1  0  0  0
 34 41  1  0  0  0
 34 63  1  0  0  0
 35 36  1  0  0  0
 35 42  1  0  0  0
 35 64  1  0  0  0
 36 37  1  0  0  0
 36 65  1  0  0  0
 37 38  1  0  0  0
 38 40  1  0  0  0
 38 66  1  0  0  0
 39 40  1  0  0  0
 40 67  1  0  0  0
 40 68  1  0  0  0
 41 69  1  0  0  0
 42 70  1  0  0  0
M  CHG  2  17  -1  19  -1
M  END
> <s_m_source_file>
../2ihj_ligand.sdf

> <i_m_source_file_index>
1

> <s_epik_input>
W09IXVtDSDJdW0NAQEhdKFtPSF0pW0NAQEhdKFtPSF0pW0NAQEhdKFtDQEBIXShbQ0BIXShbQ0BIXTFGKVtPSF0pW05IXUMoPU8pW0NIM10pT1tDQEBdMShDKD1PKVtPSF0pT1tQQEBdKD1PKShbT0hdKU9bQ0gyXVtDQEhdMk9bQ0BIXShbQ0BIXShbT0hdKVtDQEBIXTJbT0hdKW4zYyg9TyluYyhbTkgyXSlbY0hdW2NIXTM=

> <s_epik_cmdline>
J2VwaWtfYXBwJywgJy1pbWFlJywgJ2xpZ2FuZF9wcm8ubWFlJywgJy1vbWFlJywgJ2xpZ2FuZF9wcmVwLm1hZScsICctbXMnLCAnMScsICctcGgnLCAnNycsICctcGh0JywgJzAuNScsICctbnQn

> <r_lp_tautomer_probability>
1

> <r_epik_Ionization_Penalty>
  0.0012

> <r_epik_Ionization_Penalty_Charging>
  0.0001

> <r_epik_Ionization_Penalty_Neutral>
  0.0011

> <r_epik_State_Penalty>
 -0.0000

> <r_epik_Charging_Adjusted_Penalty>
0.000141413379672251

> <i_epik_Tot_Q>
-2

> <i_epik_Tot_abs_Q>
2

> <s_epik_Chemistry_Notes>
This compound contains an acetal/aminal-like group ( X-CH(R)-Y where X, Y are N, S, or O) that may be acid/base labile, releasing an aldehyde.

$$$$
