2iit_ligand
                    3D
 Schrodinger Suite 2020-3.
 48 49  0  0  1  0            999 V2000
   34.5060   50.2940   36.6290 C   0  0  0  0  0  0
   35.8380   50.8090   36.6640 C   0  0  0  0  0  0
   37.0040   49.9930   36.3950 C   0  0  0  0  0  0
   36.8100   48.6200   36.0840 C   0  0  0  0  0  0
   35.4910   48.0950   36.0480 C   0  0  0  0  0  0
   34.3490   48.9130   36.3110 C   0  0  0  0  0  0
   35.3270   46.8250   35.7560 F   0  0  0  0  0  0
   36.0070   52.0830   36.9620 F   0  0  0  0  0  0
   38.3900   50.5640   36.4280 C   0  0  0  0  0  0
   39.0600   50.8350   34.9990 C   0  0  2  0  0  0
   40.3430   51.6390   35.2880 C   0  0  0  0  0  0
   41.5090   50.8440   36.0310 C   0  0  0  0  0  0
   42.6970   51.5460   36.3720 N   0  0  0  0  0  0
   38.2160   51.5680   34.3990 N   0  3  0  0  0  0
   41.3470   49.6470   36.3160 O   0  0  0  0  0  0
   43.2020   52.6530   35.4770 C   0  0  0  0  0  0
   44.1280   52.1160   34.3920 C   0  0  0  0  0  0
   45.3350   51.3840   34.9880 C   0  0  0  0  0  0
   45.0380   50.6120   36.1920 N   0  0  0  0  0  0
   44.8420   50.5180   37.4650 C   0  0  0  0  0  0
   43.3710   51.0860   37.6760 C   0  0  1  0  0  0
   42.9910   51.0400   39.2170 C   0  0  0  0  0  0
   45.5080   50.1230   38.3960 O   0  0  0  0  0  0
   33.1400   48.3780   36.2630 F   0  0  0  0  0  0
   41.7010   50.3040   39.6050 C   0  0  0  0  0  0
   41.5430   50.3580   40.9130 F   0  0  0  0  0  0
   41.7610   49.0300   39.2640 F   0  0  0  0  0  0
   40.6390   50.8310   39.0300 F   0  0  0  0  0  0
   33.6456   50.9302   36.8367 H   0  0  0  0  0  0
   37.6647   47.9766   35.8753 H   0  0  0  0  0  0
   38.3757   51.5313   36.9516 H   0  0  0  0  0  0
   39.0598   49.8704   36.9574 H   0  0  0  0  0  0
   39.2091   50.0181   34.2776 H   0  0  0  0  0  0
   40.7717   51.9982   34.3408 H   0  0  0  0  0  0
   40.1003   52.4986   35.9300 H   0  0  0  0  0  0
   37.3041   50.9870   34.1967 H   0  0  0  0  0  0
   38.6453   51.9193   33.4491 H   0  0  0  0  0  0
   37.9669   52.4332   35.0310 H   0  0  0  0  0  0
   42.3491   53.1501   34.9918 H   0  0  0  0  0  0
   43.7595   53.3857   36.0790 H   0  0  0  0  0  0
   43.5753   51.4101   33.7546 H   0  0  0  0  0  0
   44.4978   52.9512   33.7791 H   0  0  0  0  0  0
   45.7392   50.6792   34.2465 H   0  0  0  0  0  0
   46.1104   52.1157   35.2591 H   0  0  0  0  0  0
   44.8706   49.5270   36.1223 H   0  0  0  0  0  0
   42.9603   50.0758   37.5319 H   0  0  0  0  0  0
   43.7931   50.5377   39.7776 H   0  0  0  0  0  0
   42.8664   52.0656   39.5947 H   0  0  0  0  0  0
  1  2  2  0  0  0
  1  6  1  0  0  0
  1 29  1  0  0  0
  2  3  1  0  0  0
  2  8  1  0  0  0
  3  4  2  0  0  0
  3  9  1  0  0  0
  4  5  1  0  0  0
  4 30  1  0  0  0
  5  6  2  0  0  0
  5  7  1  0  0  0
  6 24  1  0  0  0
  9 10  1  0  0  0
  9 31  1  0  0  0
  9 32  1  0  0  0
 10 11  1  0  0  0
 10 14  1  0  0  0
 10 33  1  0  0  0
 11 12  1  0  0  0
 11 34  1  0  0  0
 11 35  1  0  0  0
 12 13  1  0  0  0
 12 15  2  0  0  0
 13 16  1  0  0  0
 13 21  1  0  0  0
 14 36  1  0  0  0
 14 37  1  0  0  0
 14 38  1  0  0  0
 16 17  1  0  0  0
 16 39  1  0  0  0
 16 40  1  0  0  0
 17 18  1  0  0  0
 17 41  1  0  0  0
 17 42  1  0  0  0
 18 19  1  0  0  0
 18 43  1  0  0  0
 18 44  1  0  0  0
 19 20  1  0  0  0
 19 45  1  0  0  0
 20 21  1  0  0  0
 20 23  2  0  0  0
 21 22  1  0  0  0
 21 46  1  0  0  0
 22 25  1  0  0  0
 22 47  1  0  0  0
 22 48  1  0  0  0
 25 26  1  0  0  0
 25 27  1  0  0  0
 25 28  1  0  0  0
M  CHG  1  14   1
M  END
> <s_m_source_file>
../2iit_ligand.sdf

> <i_m_source_file_index>
1

> <s_epik_input>
RmMxW2NIXWMoRiljKEYpW2NIXWMxW0NIMl1bQ0BASF0oW05IMytdKVtDSDJdQyg9TylOMltDSDJdW0NIMl1bQ0gyXVtOSF1DKD1PKVtDSF0yW0NIMl1DKEYpKEYpRg==

> <s_epik_cmdline>
J2VwaWtfYXBwJywgJy1pbWFlJywgJ2xpZ2FuZF9wcm8ubWFlJywgJy1vbWFlJywgJ2xpZ2FuZF9wcmVwLm1hZScsICctbXMnLCAnMScsICctcGgnLCAnNycsICctcGh0JywgJzAuNScsICctbnQn

> <r_lp_tautomer_probability>
1

> <r_epik_Ionization_Penalty>
  0.0035

> <r_epik_Ionization_Penalty_Charging>
  0.0035

> <r_epik_Ionization_Penalty_Neutral>
  0.0000

> <r_epik_State_Penalty>
 -0.0000

> <r_epik_Charging_Adjusted_Penalty>
0.0035458617815752

> <i_epik_Tot_Q>
1

> <i_epik_Tot_abs_Q>
1

$$$$
