2iiv_ligand
                    3D
 Schrodinger Suite 2020-3.
 45 46  0  0  1  0            999 V2000
   34.7000   50.5500   36.5840 C   0  0  0  0  0  0
   36.0540   51.0710   36.7240 C   0  0  0  0  0  0
   37.2430   50.2260   36.5190 C   0  0  0  0  0  0
   37.0720   48.7950   36.1500 C   0  0  0  0  0  0
   35.7340   48.2770   36.0150 C   0  0  0  0  0  0
   34.5550   49.1490   36.2190 C   0  0  0  0  0  0
   35.5850   47.0200   35.6890 F   0  0  0  0  0  0
   36.2030   52.3330   37.0530 F   0  0  0  0  0  0
   38.5740   50.8570   36.6630 C   0  0  0  0  0  0
   39.1390   51.0660   35.1800 C   0  0  2  0  0  0
   40.3530   51.6800   35.4530 C   0  0  0  0  0  0
   41.5560   50.7780   36.0350 C   0  0  0  0  0  0
   42.7820   51.3560   36.2440 N   0  0  0  0  0  0
   38.1960   51.9020   34.3830 N   0  3  0  0  0  0
   41.3270   49.6030   36.2840 O   0  0  0  0  0  0
   43.1670   52.8320   35.9440 C   0  0  0  0  0  0
   43.4840   52.7220   34.5340 C   0  0  0  0  0  0
   44.7480   51.9710   34.1250 C   0  0  0  0  0  0
   45.5590   51.4650   35.3340 N   0  0  0  0  0  0
   45.2520   50.7720   36.5430 C   0  0  0  0  0  0
   43.7280   50.3240   36.8810 C   0  0  1  0  0  0
   43.8140   50.2170   38.4110 C   0  0  0  0  0  0
   46.1800   50.5780   37.2490 O   0  0  0  0  0  0
   33.3870   48.6660   36.0840 F   0  0  0  0  0  0
   33.8295   51.1855   36.7465 H   0  0  0  0  0  0
   37.9379   48.1537   35.9857 H   0  0  0  0  0  0
   38.4687   51.8203   37.1835 H   0  0  0  0  0  0
   39.2323   50.1956   37.2454 H   0  0  0  0  0  0
   39.3417   50.2105   34.5189 H   0  0  0  0  0  0
   40.7551   52.1238   34.5303 H   0  0  0  0  0  0
   40.2040   52.4691   36.2047 H   0  0  0  0  0  0
   37.2643   51.3426   34.2127 H   0  0  0  0  0  0
   38.6557   52.1520   33.4154 H   0  0  0  0  0  0
   37.9725   52.8281   34.9329 H   0  0  0  0  0  0
   42.3097   53.4860   36.1615 H   0  0  0  0  0  0
   44.0200   53.1238   36.5743 H   0  0  0  0  0  0
   42.6677   52.1989   34.0144 H   0  0  0  0  0  0
   43.6058   53.7280   34.1060 H   0  0  0  0  0  0
   44.4743   51.0978   33.5146 H   0  0  0  0  0  0
   45.3978   52.6383   33.5398 H   0  0  0  0  0  0
   46.6464   51.6261   35.3731 H   0  0  0  0  0  0
   43.2780   49.3934   36.5048 H   0  0  0  0  0  0
   42.8360   49.9137   38.8129 H   0  0  0  0  0  0
   44.0964   51.1934   38.8315 H   0  0  0  0  0  0
   44.5712   49.4673   38.6841 H   0  0  0  0  0  0
  1  2  2  0  0  0
  1  6  1  0  0  0
  1 25  1  0  0  0
  2  3  1  0  0  0
  2  8  1  0  0  0
  3  4  2  0  0  0
  3  9  1  0  0  0
  4  5  1  0  0  0
  4 26  1  0  0  0
  5  6  2  0  0  0
  5  7  1  0  0  0
  6 24  1  0  0  0
  9 10  1  0  0  0
  9 27  1  0  0  0
  9 28  1  0  0  0
 10 11  1  0  0  0
 10 14  1  0  0  0
 10 29  1  0  0  0
 11 12  1  0  0  0
 11 30  1  0  0  0
 11 31  1  0  0  0
 12 13  1  0  0  0
 12 15  2  0  0  0
 13 16  1  0  0  0
 13 21  1  0  0  0
 14 32  1  0  0  0
 14 33  1  0  0  0
 14 34  1  0  0  0
 16 17  1  0  0  0
 16 35  1  0  0  0
 16 36  1  0  0  0
 17 18  1  0  0  0
 17 37  1  0  0  0
 17 38  1  0  0  0
 18 19  1  0  0  0
 18 39  1  0  0  0
 18 40  1  0  0  0
 19 20  1  0  0  0
 19 41  1  0  0  0
 20 21  1  0  0  0
 20 23  2  0  0  0
 21 22  1  0  0  0
 21 42  1  0  0  0
 22 43  1  0  0  0
 22 44  1  0  0  0
 22 45  1  0  0  0
M  CHG  1  14   1
M  END
> <s_m_source_file>
../2iiv_ligand.sdf

> <i_m_source_file_index>
1

> <s_epik_input>
RmMxW2NIXWMoRiljKEYpW2NIXWMxW0NIMl1bQ0BASF0oW05IMytdKVtDSDJdQyg9TylOMltDSDJdW0NIMl1bQ0gyXVtOSF1DKD1PKVtDQEhdMltDSDNd

> <s_epik_cmdline>
J2VwaWtfYXBwJywgJy1pbWFlJywgJ2xpZ2FuZF9wcm8ubWFlJywgJy1vbWFlJywgJ2xpZ2FuZF9wcmVwLm1hZScsICctbXMnLCAnMScsICctcGgnLCAnNycsICctcGh0JywgJzAuNScsICctbnQn

> <r_lp_tautomer_probability>
1

> <r_epik_Ionization_Penalty>
  0.0032

> <r_epik_Ionization_Penalty_Charging>
  0.0032

> <r_epik_Ionization_Penalty_Neutral>
  0.0000

> <r_epik_State_Penalty>
 -0.0000

> <r_epik_Charging_Adjusted_Penalty>
0.00318134254025253

> <i_epik_Tot_Q>
1

> <i_epik_Tot_abs_Q>
1

$$$$
