2iko_ligand
                    3D
 Schrodinger Suite 2020-3.
 46 48  0  0  1  0            999 V2000
  -10.6750   27.5920  -34.9490 C   0  0  0  0  0  0
   -9.6280   28.0920  -34.2470 N   0  0  0  0  0  0
   -9.4740   27.8010  -32.9260 C   0  0  0  0  0  0
  -10.3490   27.0210  -32.2540 N   0  3  0  0  0  0
  -11.4310   26.4480  -32.8330 C   0  0  0  0  0  0
  -11.6750   26.7170  -34.2630 C   0  0  0  0  0  0
  -10.8030   27.8930  -36.2590 N   0  0  0  0  0  0
   -8.4280   28.3300  -32.2490 N   0  0  0  0  0  0
  -12.3320   25.5720  -31.9970 C   0  0  0  0  0  0
  -11.7550   24.1820  -31.8960 C   0  0  0  0  0  0
  -13.3060   24.2540  -36.5100 C   0  0  0  0  0  0
  -12.4060   24.9870  -35.7530 C   0  0  0  0  0  0
  -12.8070   26.0850  -35.0030 C   0  0  0  0  0  0
  -14.1460   26.4810  -35.0040 C   0  0  0  0  0  0
  -15.0620   25.7490  -35.7700 C   0  0  0  0  0  0
  -14.6460   24.6320  -36.5210 C   0  0  0  0  0  0
  -15.5390   23.9210  -37.2610 N   0  0  0  0  0  0
  -14.3550   22.3330  -41.6920 C   0  0  0  0  0  0
  -14.7750   22.0920  -40.3950 C   0  0  0  0  0  0
  -14.6630   23.0830  -39.4340 C   0  0  0  0  0  0
  -14.1300   24.3400  -39.7850 C   0  0  0  0  0  0
  -13.7210   24.5900  -41.0940 C   0  0  0  0  0  0
  -13.8320   23.5790  -42.0440 C   0  0  0  0  0  0
  -14.4690   21.3530  -42.6100 F   0  0  0  0  0  0
  -15.1600   22.7420  -38.0430 C   0  0  0  0  0  0
  -13.2040   25.7960  -41.4360 F   0  0  0  0  0  0
  -10.0596   28.5380  -36.7503 H   0  0  0  0  0  0
  -11.6507   27.4933  -36.8349 H   0  0  0  0  0  0
   -7.7008   28.9686  -32.7719 H   0  0  0  0  0  0
   -8.3052   28.1213  -31.1760 H   0  0  0  0  0  0
  -12.4244   25.9988  -30.9874 H   0  0  0  0  0  0
  -13.3263   25.5171  -32.4642 H   0  0  0  0  0  0
  -12.4191   23.5528  -31.2852 H   0  0  0  0  0  0
  -10.7616   24.2306  -31.4262 H   0  0  0  0  0  0
  -11.6635   23.7489  -32.9030 H   0  0  0  0  0  0
  -12.9696   23.3937  -37.0886 H   0  0  0  0  0  0
  -11.3561   24.6942  -35.7460 H   0  0  0  0  0  0
  -14.4717   27.3422  -34.4206 H   0  0  0  0  0  0
  -16.1102   26.0474  -35.7853 H   0  0  0  0  0  0
  -16.5837   24.2652  -37.2562 H   0  0  0  0  0  0
  -15.1942   21.1214  -40.1299 H   0  0  0  0  0  0
  -14.0373   25.1201  -39.0293 H   0  0  0  0  0  0
  -13.5088   23.7609  -43.0690 H   0  0  0  0  0  0
  -14.3536   22.2022  -37.5250 H   0  0  0  0  0  0
  -16.0316   22.0802  -38.1544 H   0  0  0  0  0  0
  -10.1998   26.8245  -31.1820 H   0  0  0  0  0  0
  1  2  2  0  0  0
  1  6  1  0  0  0
  1  7  1  0  0  0
  2  3  1  0  0  0
  3  4  2  0  0  0
  3  8  1  0  0  0
  4  5  1  0  0  0
  4 46  1  0  0  0
  5  6  2  0  0  0
  5  9  1  0  0  0
  6 13  1  0  0  0
  7 27  1  0  0  0
  7 28  1  0  0  0
  8 29  1  0  0  0
  8 30  1  0  0  0
  9 10  1  0  0  0
  9 31  1  0  0  0
  9 32  1  0  0  0
 10 33  1  0  0  0
 10 34  1  0  0  0
 10 35  1  0  0  0
 11 12  2  0  0  0
 11 16  1  0  0  0
 11 36  1  0  0  0
 12 13  1  0  0  0
 12 37  1  0  0  0
 13 14  2  0  0  0
 14 15  1  0  0  0
 14 38  1  0  0  0
 15 16  2  0  0  0
 15 39  1  0  0  0
 16 17  1  0  0  0
 17 25  1  0  0  0
 17 40  1  0  0  0
 18 19  2  0  0  0
 18 23  1  0  0  0
 18 24  1  0  0  0
 19 20  1  0  0  0
 19 41  1  0  0  0
 20 21  2  0  0  0
 20 25  1  0  0  0
 21 22  1  0  0  0
 21 42  1  0  0  0
 22 23  2  0  0  0
 22 26  1  0  0  0
 23 43  1  0  0  0
 25 44  1  0  0  0
 25 45  1  0  0  0
M  CHG  1   4   1
M  END
> <s_m_source_file>
../2iko_ligand.sdf

> <i_m_source_file_index>
1

> <s_epik_input>
W05IMl1jMW5jKFtOSDJdKW5jKFtDSDJdW0NIM10pYzEtYzJbY0hdW2NIXWMoW2NIXVtjSF0yKVtOSF1bQ0gyXWMoW2NIXWMzRilbY0hdYyhGKVtjSF0z

> <s_epik_cmdline>
J2VwaWtfYXBwJywgJy1pbWFlJywgJ2xpZ2FuZF9wcm8ubWFlJywgJy1vbWFlJywgJ2xpZ2FuZF9wcmVwLm1hZScsICctbXMnLCAnMScsICctcGgnLCAnNycsICctcGh0JywgJzAuNScsICctbnQn

> <r_lp_tautomer_probability>
0.575010577011949

> <r_epik_Ionization_Penalty>
  0.2197

> <r_epik_Ionization_Penalty_Charging>
  0.2197

> <r_epik_Ionization_Penalty_Neutral>
  0.0000

> <r_epik_State_Penalty>
  0.4424

> <r_epik_Charging_Adjusted_Penalty>
0.662121842845184

> <i_epik_Tot_Q>
1

> <i_epik_Tot_abs_Q>
1

$$$$
