2iku_ligand
                    3D
 Schrodinger Suite 2020-3.
 63 66  0  0  1  0            999 V2000
   -9.6520   28.0120  -34.2670 N   0  0  0  0  0  0
  -10.7850   27.7760  -36.2880 N   0  0  0  0  0  0
  -11.6130   26.6000  -34.2870 C   0  0  0  0  0  0
  -12.2430   25.4260  -32.0240 C   0  0  0  0  0  0
  -14.0190   26.2270  -35.0350 C   0  0  0  0  0  0
  -14.8920   25.4520  -35.8030 C   0  0  0  0  0  0
  -13.0110   24.0520  -36.5590 C   0  0  0  0  0  0
  -15.3710   23.5660  -37.3940 C   0  0  0  0  0  0
  -13.3670   22.2390  -38.2960 C   0  0  2  0  0  0
  -10.7670   21.8740  -35.9850 C   0  0  0  0  0  0
  -11.8670   23.9880  -32.3150 C   0  0  0  0  0  0
  -13.3990   22.8230  -39.6630 C   0  0  0  0  0  0
  -13.8150   21.9950  -40.7150 C   0  0  0  0  0  0
  -13.5150   23.7930  -42.2840 C   0  0  0  0  0  0
  -13.0480   24.1490  -39.9340 C   0  0  0  0  0  0
  -10.6620   27.4800  -34.9800 C   0  0  0  0  0  0
  -11.3680   26.3380  -32.8500 C   0  0  0  0  0  0
  -10.3320   26.9490  -32.2640 N   0  3  0  0  0  0
   -9.4850   27.7440  -32.9570 C   0  0  0  0  0  0
   -8.4480   28.3300  -32.3210 N   0  0  0  0  0  0
  -12.6800   25.9250  -35.0460 C   0  0  0  0  0  0
  -12.1890   24.8560  -35.7890 C   0  0  0  0  0  0
  -14.4350   24.3790  -36.5550 C   0  0  0  0  0  0
  -14.7830   22.2060  -37.7370 C   0  0  0  0  0  0
  -13.8690   22.4750  -42.0160 C   0  0  0  0  0  0
  -13.1030   24.6250  -41.2500 C   0  0  0  0  0  0
  -12.5300   22.9780  -37.3430 N   0  0  0  0  0  0
  -11.1230   22.5140  -37.3320 C   0  0  0  0  0  0
   -9.2570   21.6930  -35.8620 C   0  0  0  0  0  0
   -8.8570   20.9230  -34.7170 O   0  0  0  0  0  0
   -7.4240   20.8230  -34.5950 C   0  0  0  0  0  0
  -10.0534   28.4389  -36.7731 H   0  0  0  0  0  0
  -11.6171   27.3549  -36.8713 H   0  0  0  0  0  0
  -13.2993   25.5886  -32.2843 H   0  0  0  0  0  0
  -12.0925   25.6351  -30.9546 H   0  0  0  0  0  0
  -14.3949   27.0574  -34.4373 H   0  0  0  0  0  0
  -15.9544   25.6954  -35.8116 H   0  0  0  0  0  0
  -16.3115   23.4079  -36.8458 H   0  0  0  0  0  0
  -15.5792   24.0996  -38.3331 H   0  0  0  0  0  0
  -12.8985   21.2500  -38.4072 H   0  0  0  0  0  0
  -11.1171   22.5215  -35.1675 H   0  0  0  0  0  0
  -11.2524   20.8900  -35.9069 H   0  0  0  0  0  0
  -12.4997   23.3154  -31.7172 H   0  0  0  0  0  0
  -10.8107   23.8254  -32.0547 H   0  0  0  0  0  0
  -12.0175   23.7789  -33.3844 H   0  0  0  0  0  0
  -14.0991   20.9631  -40.5089 H   0  0  0  0  0  0
  -13.5607   24.1732  -43.3045 H   0  0  0  0  0  0
  -12.7333   24.8087  -39.1254 H   0  0  0  0  0  0
   -7.7556   28.9776  -32.8789 H   0  0  0  0  0  0
   -8.2956   28.1598  -31.2450 H   0  0  0  0  0  0
  -11.1200   24.6445  -35.7637 H   0  0  0  0  0  0
  -14.7496   21.5821  -36.8317 H   0  0  0  0  0  0
  -15.4100   21.7164  -38.4967 H   0  0  0  0  0  0
  -14.1884   21.8200  -42.8266 H   0  0  0  0  0  0
  -12.8206   25.6556  -41.4648 H   0  0  0  0  0  0
  -10.4653   23.3769  -37.5132 H   0  0  0  0  0  0
  -10.9886   21.7753  -38.1359 H   0  0  0  0  0  0
   -8.8761   21.1739  -36.7539 H   0  0  0  0  0  0
   -8.7753   22.6783  -35.7775 H   0  0  0  0  0  0
   -7.1725   20.2259  -33.7060 H   0  0  0  0  0  0
   -6.9934   21.8302  -34.4941 H   0  0  0  0  0  0
   -7.0127   20.3366  -35.4918 H   0  0  0  0  0  0
  -10.1493   26.8116  -31.1880 H   0  0  0  0  0  0
  1 16  2  0  0  0
  1 19  1  0  0  0
  2 16  1  0  0  0
  2 32  1  0  0  0
  2 33  1  0  0  0
  3 16  1  0  0  0
  3 17  2  0  0  0
  3 21  1  0  0  0
  4 11  1  0  0  0
  4 17  1  0  0  0
  4 34  1  0  0  0
  4 35  1  0  0  0
  5  6  2  0  0  0
  5 21  1  0  0  0
  5 36  1  0  0  0
  6 23  1  0  0  0
  6 37  1  0  0  0
  7 22  1  0  0  0
  7 23  2  0  0  0
  7 27  1  0  0  0
  8 23  1  0  0  0
  8 24  1  0  0  0
  8 38  1  0  0  0
  8 39  1  0  0  0
  9 12  1  0  0  0
  9 24  1  0  0  0
  9 27  1  0  0  0
  9 40  1  0  0  0
 10 28  1  0  0  0
 10 29  1  0  0  0
 10 41  1  0  0  0
 10 42  1  0  0  0
 11 43  1  0  0  0
 11 44  1  0  0  0
 11 45  1  0  0  0
 12 13  2  0  0  0
 12 15  1  0  0  0
 13 25  1  0  0  0
 13 46  1  0  0  0
 14 25  2  0  0  0
 14 26  1  0  0  0
 14 47  1  0  0  0
 15 26  2  0  0  0
 15 48  1  0  0  0
 17 18  1  0  0  0
 18 19  2  0  0  0
 18 63  1  0  0  0
 19 20  1  0  0  0
 20 49  1  0  0  0
 20 50  1  0  0  0
 21 22  2  0  0  0
 22 51  1  0  0  0
 24 52  1  0  0  0
 24 53  1  0  0  0
 25 54  1  0  0  0
 26 55  1  0  0  0
 27 28  1  0  0  0
 28 56  1  0  0  0
 28 57  1  0  0  0
 29 30  1  0  0  0
 29 58  1  0  0  0
 29 59  1  0  0  0
 30 31  1  0  0  0
 31 60  1  0  0  0
 31 61  1  0  0  0
 31 62  1  0  0  0
M  CHG  1  18   1
M  END
> <s_m_source_file>
../2iku_ligand.sdf

> <i_m_source_file_index>
1

> <s_epik_input>
W0NIM11bQ0gyXWMxbmMoW05IMl0pbmMoW05IMl0pYzEtYyhbY0hdMilbY0hdW2NIXWMoYzIzKVtDSDJdW0NIMl1bQ0BASF0oYzRbY0hdW2NIXVtjSF1bY0hdW2NIXTQpTjNbQ0gyXVtDSDJdW0NIMl1PW0NIM10=

> <s_epik_cmdline>
J2VwaWtfYXBwJywgJy1pbWFlJywgJ2xpZ2FuZF9wcm8ubWFlJywgJy1vbWFlJywgJ2xpZ2FuZF9wcmVwLm1hZScsICctbXMnLCAnMScsICctcGgnLCAnNycsICctcGh0JywgJzAuNScsICctbnQn

> <r_lp_tautomer_probability>
0.575010577011949

> <r_epik_Ionization_Penalty>
  0.1086

> <r_epik_Ionization_Penalty_Charging>
  0.1084

> <r_epik_Ionization_Penalty_Neutral>
  0.0001

> <r_epik_State_Penalty>
  0.3393

> <r_epik_Charging_Adjusted_Penalty>
0.447673917330396

> <i_epik_Tot_Q>
1

> <i_epik_Tot_abs_Q>
1

$$$$
