2il2_ligand
                    3D
 Schrodinger Suite 2020-3.
 82 86  0  0  1  0            999 V2000
  -56.9420  -18.1290  -35.1670 N   0  0  0  0  0  0
  -55.9500  -20.1930  -34.7420 N   0  0  0  0  0  0
  -56.4020  -18.6700  -32.8460 C   0  0  0  0  0  0
  -56.9640  -16.8510  -31.0380 C   0  0  0  0  0  0
  -55.8280  -15.8800  -30.8180 C   0  0  0  0  0  0
  -56.5010  -20.3830  -30.9480 C   0  0  0  0  0  0
  -55.7560  -21.1320  -30.0410 C   0  0  0  0  0  0
  -53.6610  -20.2180  -30.8950 C   0  0  0  0  0  0
  -51.4960  -22.5700  -28.2630 C   0  0  0  0  0  0
  -51.5760  -21.0500  -30.1630 C   0  0  0  0  0  0
  -51.4790  -17.7810  -31.0540 C   0  0  0  0  0  0
  -56.0640  -20.5130  -36.1470 C   0  0  0  0  0  0
  -54.9800  -21.4490  -36.6400 C   0  0  0  0  0  0
  -52.4610  -23.3440  -30.4760 C   0  0  0  0  0  0
  -50.9720  -25.8590  -35.9970 C   0  0  0  0  0  0
  -52.0240  -25.4720  -38.2060 C   0  0  0  0  0  0
  -51.3260  -27.7000  -37.5830 C   0  0  0  0  0  0
  -51.9700  -20.7280  -35.9970 O   0  0  0  0  0  0
  -52.4220  -21.1570  -37.3030 S   0  0  0  0  0  0
  -51.6920  -20.5020  -38.3550 O   0  0  0  0  0  0
  -52.2580  -22.7310  -37.5480 C   0  0  0  0  0  0
  -51.6700  -23.5920  -36.6010 C   0  0  0  0  0  0
  -51.5450  -24.9560  -36.8900 C   0  0  0  0  0  0
  -52.6990  -23.2230  -38.7820 C   0  0  0  0  0  0
  -52.5860  -24.5740  -39.1090 C   0  0  0  0  0  0
  -51.9000  -26.8330  -38.5150 C   0  0  0  0  0  0
  -50.8680  -27.2180  -36.3450 C   0  0  0  0  0  0
  -53.9650  -20.7380  -37.3890 N   0  0  3  0  0  0
  -56.4250  -19.0180  -34.2910 C   0  0  0  0  0  0
  -56.9430  -17.3500  -32.4630 C   0  0  0  0  0  0
  -57.4290  -16.5700  -33.4550 N   0  0  0  0  0  0
  -57.4150  -16.9350  -34.7530 C   0  0  0  0  0  0
  -57.9190  -16.0710  -35.6560 N   0  0  0  0  0  0
  -55.8070  -19.5530  -31.8250 C   0  0  0  0  0  0
  -54.4180  -19.4760  -31.7980 C   0  0  0  0  0  0
  -52.2380  -20.1460  -30.8900 N   0  0  0  0  0  0
  -51.4910  -19.1560  -31.7090 C   0  0  0  0  0  0
  -50.8590  -16.7870  -32.0420 C   0  0  0  0  0  0
  -50.7030  -15.5080  -31.4540 O   0  0  0  0  0  0
  -50.1970  -14.5020  -32.3370 C   0  0  0  0  0  0
  -50.3690  -21.0000  -30.0680 O   0  0  0  0  0  0
  -52.3160  -22.1850  -29.4840 C   0  0  0  0  0  0
  -53.6390  -21.8010  -29.0990 O   0  0  0  0  0  0
  -54.3530  -21.0550  -30.0090 C   0  0  0  0  0  0
  -55.4780  -20.9076  -34.0517 H   0  0  0  0  0  0
  -56.8548  -17.7044  -30.3526 H   0  0  0  0  0  0
  -57.9214  -16.3452  -30.8442 H   0  0  0  0  0  0
  -55.8490  -15.5205  -29.7786 H   0  0  0  0  0  0
  -55.9372  -15.0266  -31.5034 H   0  0  0  0  0  0
  -54.8706  -16.3858  -31.0118 H   0  0  0  0  0  0
  -57.5890  -20.4441  -30.9709 H   0  0  0  0  0  0
  -56.2710  -21.7910  -29.3420 H   0  0  0  0  0  0
  -50.4834  -22.8618  -28.5785 H   0  0  0  0  0  0
  -51.9778  -23.4150  -27.7493 H   0  0  0  0  0  0
  -51.4335  -21.7117  -27.5778 H   0  0  0  0  0  0
  -52.5093  -17.4813  -30.8118 H   0  0  0  0  0  0
  -50.8818  -17.8197  -30.1310 H   0  0  0  0  0  0
  -57.0321  -21.0004  -36.3346 H   0  0  0  0  0  0
  -55.9977  -19.5890  -36.7401 H   0  0  0  0  0  0
  -54.4992  -21.9384  -35.7802 H   0  0  0  0  0  0
  -55.4249  -22.2127  -37.2949 H   0  0  0  0  0  0
  -51.4638  -23.6747  -30.8017 H   0  0  0  0  0  0
  -53.0396  -23.0088  -31.3494 H   0  0  0  0  0  0
  -52.9837  -24.1803  -29.9889 H   0  0  0  0  0  0
  -50.6050  -25.5131  -35.0307 H   0  0  0  0  0  0
  -51.2323  -28.7603  -37.8179 H   0  0  0  0  0  0
  -51.3144  -23.1986  -35.6487 H   0  0  0  0  0  0
  -53.1404  -22.5351  -39.5032 H   0  0  0  0  0  0
  -52.9397  -24.9287  -40.0771 H   0  0  0  0  0  0
  -52.2489  -27.2121  -39.4755 H   0  0  0  0  0  0
  -50.4207  -27.9150  -35.6363 H   0  0  0  0  0  0
  -54.2589  -20.0046  -38.1544 H   0  0  0  0  0  0
  -57.9250  -16.3332  -36.7243 H   0  0  0  0  0  0
  -58.3244  -15.1035  -35.3248 H   0  0  0  0  0  0
  -53.9091  -18.8177  -32.5021 H   0  0  0  0  0  0
  -51.9725  -19.0879  -32.6957 H   0  0  0  0  0  0
  -50.4578  -19.5140  -31.8291 H   0  0  0  0  0  0
  -49.8697  -17.1511  -32.3562 H   0  0  0  0  0  0
  -51.5109  -16.6905  -32.9227 H   0  0  0  0  0  0
  -50.1102  -13.5486  -31.7952 H   0  0  0  0  0  0
  -50.8852  -14.3798  -33.1863 H   0  0  0  0  0  0
  -49.2066  -14.8044  -32.7081 H   0  0  0  0  0  0
  1 29  2  0  0  0
  1 32  1  0  0  0
  2 12  1  0  0  0
  2 29  1  0  0  0
  2 45  1  0  0  0
  3 29  1  0  0  0
  3 30  2  0  0  0
  3 34  1  0  0  0
  4  5  1  0  0  0
  4 30  1  0  0  0
  4 46  1  0  0  0
  4 47  1  0  0  0
  5 48  1  0  0  0
  5 49  1  0  0  0
  5 50  1  0  0  0
  6  7  2  0  0  0
  6 34  1  0  0  0
  6 51  1  0  0  0
  7 44  1  0  0  0
  7 52  1  0  0  0
  8 35  1  0  0  0
  8 36  1  0  0  0
  8 44  2  0  0  0
  9 42  1  0  0  0
  9 53  1  0  0  0
  9 54  1  0  0  0
  9 55  1  0  0  0
 10 36  1  0  0  0
 10 41  2  0  0  0
 10 42  1  0  0  0
 11 37  1  0  0  0
 11 38  1  0  0  0
 11 56  1  0  0  0
 11 57  1  0  0  0
 12 13  1  0  0  0
 12 58  1  0  0  0
 12 59  1  0  0  0
 13 28  1  0  0  0
 13 60  1  0  0  0
 13 61  1  0  0  0
 14 42  1  0  0  0
 14 62  1  0  0  0
 14 63  1  0  0  0
 14 64  1  0  0  0
 15 23  2  0  0  0
 15 27  1  0  0  0
 15 65  1  0  0  0
 16 23  1  0  0  0
 16 25  1  0  0  0
 16 26  2  0  0  0
 17 26  1  0  0  0
 17 27  2  0  0  0
 17 66  1  0  0  0
 18 19  2  0  0  0
 19 20  2  0  0  0
 19 21  1  0  0  0
 19 28  1  0  0  0
 21 22  2  0  0  0
 21 24  1  0  0  0
 22 23  1  0  0  0
 22 67  1  0  0  0
 24 25  2  0  0  0
 24 68  1  0  0  0
 25 69  1  0  0  0
 26 70  1  0  0  0
 27 71  1  0  0  0
 28 72  1  0  0  0
 30 31  1  0  0  0
 31 32  2  0  0  0
 32 33  1  0  0  0
 33 73  1  0  0  0
 33 74  1  0  0  0
 34 35  2  0  0  0
 35 75  1  0  0  0
 36 37  1  0  0  0
 37 76  1  0  0  0
 37 77  1  0  0  0
 38 39  1  0  0  0
 38 78  1  0  0  0
 38 79  1  0  0  0
 39 40  1  0  0  0
 40 80  1  0  0  0
 40 81  1  0  0  0
 40 82  1  0  0  0
 42 43  1  0  0  0
 43 44  1  0  0  0
M  END
> <s_m_source_file>
../2il2_ligand.sdf

> <i_m_source_file_index>
1

> <s_epik_input>
W2NIXTFbY0hdW2NIXVtjSF1jKGMxMilbY0hdYyhbY0hdW2NIXTIpUyg9TykoPU8pW05IXVtDSDJdW0NIMl1bTkhdYyhuYyhbTkgyXSluYzNbQ0gyXVtDSDNdKWMzLWMoW2NIXTQpW2NIXVtjSF1jKGM0NSlPQyhbQ0gzXSkoW0NIM10pQyg9TylONVtDSDJdW0NIMl1bQ0gyXU9bQ0gzXQ==

> <s_epik_cmdline>
J2VwaWtfYXBwJywgJy1pbWFlJywgJ2xpZ2FuZF9wcm8ubWFlJywgJy1vbWFlJywgJ2xpZ2FuZF9wcmVwLm1hZScsICctbXMnLCAnMScsICctcGgnLCAnNycsICctcGh0JywgJzAuNScsICctbnQn

> <r_lp_tautomer_probability>
0.999999624730965

> <r_epik_Ionization_Penalty>
  0.5549

> <r_epik_Ionization_Penalty_Charging>
  0.0000

> <r_epik_Ionization_Penalty_Neutral>
  0.5549

> <r_epik_State_Penalty>
  0.4538

> <r_epik_Charging_Adjusted_Penalty>
0.45377188934385

> <i_epik_Tot_Q>
0

> <i_epik_Tot_abs_Q>
0

$$$$
