2ima_ligand
                    3D
 Schrodinger Suite 2020-3.
 21 21  0  0  1  0            999 V2000
   -5.0600   -6.0420   21.5510 O   0  0  0  0  0  0
   -4.4400   -6.6520   22.3990 C   0  0  0  0  0  0
   -3.9430   -5.9910   23.4490 N   0  0  0  0  0  0
   -4.0630   -4.6040   23.5210 O   0  0  0  0  0  0
   -4.1600   -8.0950   22.2090 C   0  0  0  0  0  0
   -4.4460   -8.6720   21.0240 C   0  0  0  0  0  0
   -4.1450  -10.1000   20.6790 C   0  0  0  0  0  0
   -4.3540  -10.5370   19.3750 C   0  0  0  0  0  0
   -5.0020   -9.4700   18.1250 Cl  0  0  0  0  0  0
   -4.0760  -11.8160   18.9550 C   0  0  0  0  0  0
   -3.6130  -11.0170   21.5920 C   0  0  0  0  0  0
   -3.3240  -12.3260   21.1810 C   0  0  0  0  0  0
   -3.5660  -12.7170   19.8650 C   0  0  0  0  0  0
   -3.2190  -14.3620   19.2950 Cl  0  0  0  0  0  0
   -3.4390   -6.5421   24.2566 H   0  0  0  0  0  0
   -3.7238   -8.6945   23.0216 H   0  0  0  0  0  0
   -4.9338   -8.0866   20.2307 H   0  0  0  0  0  0
   -4.2555  -12.1122   17.9215 H   0  0  0  0  0  0
   -3.4234  -10.7141   22.6218 H   0  0  0  0  0  0
   -2.9089  -13.0399   21.8925 H   0  0  0  0  0  0
   -3.6537   -4.0607   24.3855 H   0  0  0  0  0  0
  1  2  2  0  0  0
  2  3  1  0  0  0
  2  5  1  0  0  0
  3  4  1  0  0  0
  3 15  1  0  0  0
  4 21  1  0  0  0
  5  6  2  0  0  0
  5 16  1  0  0  0
  6  7  1  0  0  0
  6 17  1  0  0  0
  7  8  2  0  0  0
  7 11  1  0  0  0
  8  9  1  0  0  0
  8 10  1  0  0  0
 10 13  2  0  0  0
 10 18  1  0  0  0
 11 12  2  0  0  0
 11 19  1  0  0  0
 12 13  1  0  0  0
 12 20  1  0  0  0
 13 14  1  0  0  0
M  END
> <s_m_source_file>
../2ima_ligand.sdf

> <i_m_source_file_index>
1

> <s_epik_input>
W09IXVtOSF1DKD1PKS9bQ0hdPVtDSF0vYzFjKENsKVtjSF1jKENsKVtjSF1bY0hdMQ==

> <s_epik_cmdline>
J2VwaWtfYXBwJywgJy1pbWFlJywgJ2xpZ2FuZF9wcm8ubWFlJywgJy1vbWFlJywgJ2xpZ2FuZF9wcmVwLm1hZScsICctbXMnLCAnMScsICctcGgnLCAnNycsICctcGh0JywgJzAuNScsICctbnQn

> <r_epik_Ionization_Penalty>
  0.0111

> <r_epik_Ionization_Penalty_Charging>
  0.0000

> <r_epik_Ionization_Penalty_Neutral>
  0.0111

> <r_epik_State_Penalty>
  0.0654

> <r_epik_Charging_Adjusted_Penalty>
0.0654166784216007

> <i_epik_Tot_Q>
0

> <i_epik_Tot_abs_Q>
0

> <s_epik_Chemistry_Notes>
This compound has a N-S or N-O group and may undergo hydrolysis at high or low pH.

$$$$
