2imd_ligand
                    3D
 Schrodinger Suite 2020-3.
 32 31  0  0  1  0            999 V2000
   33.4030   38.1000   36.9290 N   0  3  0  0  0  0
   32.1120   38.7410   36.7510 C   0  0  2  0  0  0
   31.1180   38.7640   37.8130 C   0  0  0  0  0  0
   30.0580   39.4960   37.7650 O   0  5  0  0  0  0
   31.3100   37.8490   38.6120 O   0  0  0  0  0  0
   31.6660   38.7140   35.2840 C   0  0  0  0  0  0
   30.5690   39.6370   34.7740 C   0  0  0  0  0  0
   30.2630   39.4020   33.3110 C   0  0  0  0  0  0
   30.8080   38.3950   32.6740 O   0  0  0  0  0  0
   29.4230   40.2410   32.6720 N   0  0  0  0  0  0
   29.0850   40.1590   31.2680 C   0  0  0  0  0  0
   29.7980   41.2540   30.5330 C   0  0  0  0  0  0
   29.7590   42.5490   31.0260 O   0  0  0  0  0  0
   30.4670   40.9510   29.4190 N   0  0  0  0  0  0
   31.2280   42.0350   28.8560 C   0  0  0  0  0  0
   32.7040   41.6720   28.8630 C   0  0  0  0  0  0
   33.5060   42.5800   28.5020 O   0  0  0  0  0  0
   33.1190   40.5140   29.1740 O   0  5  0  0  0  0
   33.6884   38.1390   37.9906 H   0  0  0  0  0  0
   34.1591   38.6247   36.3265 H   0  0  0  0  0  0
   33.3392   37.0508   36.6047 H   0  0  0  0  0  0
   32.3462   39.7548   37.1078 H   0  0  0  0  0  0
   32.5214   38.9563   34.6362 H   0  0  0  0  0  0
   31.2890   37.7114   35.0337 H   0  0  0  0  0  0
   29.6474   39.4639   35.3491 H   0  0  0  0  0  0
   30.8851   40.6837   34.8943 H   0  0  0  0  0  0
   28.9835   41.0314   33.2983 H   0  0  0  0  0  0
   29.3966   39.1810   30.8724 H   0  0  0  0  0  0
   27.9980   40.2748   31.1451 H   0  0  0  0  0  0
   30.4691   39.9655   28.9303 H   0  0  0  0  0  0
   30.8989   42.2158   27.8221 H   0  0  0  0  0  0
   31.0702   42.9438   29.4553 H   0  0  0  0  0  0
  1  2  1  0  0  0
  1 19  1  0  0  0
  1 20  1  0  0  0
  1 21  1  0  0  0
  2  3  1  0  0  0
  2  6  1  0  0  0
  2 22  1  0  0  0
  3  4  1  0  0  0
  3  5  2  0  0  0
  6  7  1  0  0  0
  6 23  1  0  0  0
  6 24  1  0  0  0
  7  8  1  0  0  0
  7 25  1  0  0  0
  7 26  1  0  0  0
  8  9  2  0  0  0
  8 10  1  0  0  0
 10 11  1  0  0  0
 10 27  1  0  0  0
 11 12  1  0  0  0
 11 28  1  0  0  0
 11 29  1  0  0  0
 12 13  2  0  0  0
 12 14  1  0  0  0
 14 15  1  0  0  0
 14 30  1  0  0  0
 15 16  1  0  0  0
 15 31  1  0  0  0
 15 32  1  0  0  0
 16 17  2  0  0  0
 16 18  1  0  0  0
M  CHG  3   1   1   4  -1  18  -1
M  END
> <s_m_source_file>
../2imd_ligand.sdf

> <i_m_source_file_index>
1

> <s_epik_input>
W09IXUMoPU8pW0NAQEhdKFtOSDMrXSlbQ0gyXVtDSDJdQyg9TylbTkhdW0NIMl1DKD1PKVtOSF1bQ0gyXUMoPU8pW09IXQ==

> <s_epik_cmdline>
J2VwaWtfYXBwJywgJy1pbWFlJywgJ2xpZ2FuZF9wcm8ubWFlJywgJy1vbWFlJywgJ2xpZ2FuZF9wcmVwLm1hZScsICctbXMnLCAnMScsICctcGgnLCAnNycsICctcGh0JywgJzAuNScsICctbnQn

> <r_lp_tautomer_probability>
1

> <r_epik_Ionization_Penalty>
  0.0025

> <r_epik_Ionization_Penalty_Charging>
  0.0025

> <r_epik_Ionization_Penalty_Neutral>
  0.0000

> <r_epik_State_Penalty>
 -0.0000

> <r_epik_Charging_Adjusted_Penalty>
0.00248629033591879

> <i_epik_Tot_Q>
-1

> <i_epik_Tot_abs_Q>
3

$$$$
