2io6_ligand
                    3D
 Schrodinger Suite 2020-3.
 51 55  0  0  1  0            999 V2000
    2.6500   53.7760   26.3830 C   0  0  0  0  0  0
    2.9060   53.9230   27.7520 C   0  0  0  0  0  0
    4.2690   54.3680   28.1040 C   0  0  0  0  0  0
    5.2070   54.6730   27.0030 C   0  0  0  0  0  0
    6.4590   55.0650   27.6680 C   0  0  0  0  0  0
    5.1110   54.6380   29.3050 C   0  0  0  0  0  0
    1.9000   53.6100   28.8390 C   0  0  0  0  0  0
    1.6590   54.6460   29.7260 C   0  0  0  0  0  0
    0.7620   54.4720   30.8030 C   0  0  0  0  0  0
    0.1270   53.2190   31.0070 C   0  0  0  0  0  0
    0.3460   52.1860   30.0870 C   0  0  0  0  0  0
    1.2680   52.3690   29.0040 C   0  0  0  0  0  0
    4.8530   54.4670   25.5650 C   0  0  0  0  0  0
    3.5690   54.0380   25.3460 C   0  0  0  0  0  0
    5.4700   54.6900   24.3380 C   0  0  0  0  0  0
    4.4750   54.3050   23.3370 C   0  0  0  0  0  0
    6.7470   55.0880   24.0130 C   0  0  0  0  0  0
    4.8100   54.3940   21.9200 C   0  0  0  0  0  0
    7.0660   55.1770   22.6690 C   0  0  0  0  0  0
    6.1700   54.8380   21.6350 C   0  0  0  0  0  0
    2.0290   53.4650   23.5340 C   0  0  0  0  0  0
    2.3720   52.1040   22.9040 C   0  0  0  0  0  0
    1.6960   50.9510   23.6620 C   0  0  0  0  0  0
    7.4910   55.4920   27.0660 O   0  0  0  0  0  0
    6.3660   55.0900   29.0360 N   0  0  0  0  0  0
    4.6410   54.5020   30.4780 O   0  0  0  0  0  0
    8.2990   55.5860   22.3680 O   0  0  0  0  0  0
    2.2800   55.8760   29.5870 O   0  0  0  0  0  0
    1.9280   56.9160   30.5740 C   0  0  0  0  0  0
    3.3090   53.9610   24.0350 N   0  0  0  0  0  0
    2.0470   49.6530   23.0690 O   0  0  0  0  0  0
    1.6573   53.4301   26.0949 H   0  0  0  0  0  0
    0.5569   55.3019   31.4792 H   0  0  0  0  0  0
   -0.5225   53.0628   31.8683 H   0  0  0  0  0  0
   -0.1857   51.2406   30.1944 H   0  0  0  0  0  0
    1.4758   51.5505   28.3149 H   0  0  0  0  0  0
    7.4794   55.3242   24.7849 H   0  0  0  0  0  0
    4.0974   54.1472   21.1330 H   0  0  0  0  0  0
    6.5009   54.9092   20.5989 H   0  0  0  0  0  0
    1.6017   54.1270   22.7665 H   0  0  0  0  0  0
    1.2972   53.3208   24.3425 H   0  0  0  0  0  0
    2.0267   52.0859   21.8597 H   0  0  0  0  0  0
    3.4609   51.9506   22.9329 H   0  0  0  0  0  0
    2.0249   50.9596   24.7116 H   0  0  0  0  0  0
    0.6038   51.0744   23.6190 H   0  0  0  0  0  0
    7.2201   55.4317   29.6392 H   0  0  0  0  0  0
    9.0018   55.8517   23.1714 H   0  0  0  0  0  0
    2.4870   57.8369   30.3515 H   0  0  0  0  0  0
    2.1863   56.5653   31.5841 H   0  0  0  0  0  0
    0.8485   57.1207   30.5218 H   0  0  0  0  0  0
    1.6420   48.7247   23.4982 H   0  0  0  0  0  0
  1  2  2  0  0  0
  1 14  1  0  0  0
  1 32  1  0  0  0
  2  3  1  0  0  0
  2  7  1  0  0  0
  3  4  2  0  0  0
  3  6  1  0  0  0
  4  5  1  0  0  0
  4 13  1  0  0  0
  5 24  2  0  0  0
  5 25  1  0  0  0
  6 25  1  0  0  0
  6 26  2  0  0  0
  7  8  2  0  0  0
  7 12  1  0  0  0
  8  9  1  0  0  0
  8 28  1  0  0  0
  9 10  2  0  0  0
  9 33  1  0  0  0
 10 11  1  0  0  0
 10 34  1  0  0  0
 11 12  2  0  0  0
 11 35  1  0  0  0
 12 36  1  0  0  0
 13 14  2  0  0  0
 13 15  1  0  0  0
 14 30  1  0  0  0
 15 16  2  0  0  0
 15 17  1  0  0  0
 16 18  1  0  0  0
 16 30  1  0  0  0
 17 19  2  0  0  0
 17 37  1  0  0  0
 18 20  2  0  0  0
 18 38  1  0  0  0
 19 20  1  0  0  0
 19 27  1  0  0  0
 20 39  1  0  0  0
 21 22  1  0  0  0
 21 30  1  0  0  0
 21 40  1  0  0  0
 21 41  1  0  0  0
 22 23  1  0  0  0
 22 42  1  0  0  0
 22 43  1  0  0  0
 23 31  1  0  0  0
 23 44  1  0  0  0
 23 45  1  0  0  0
 25 46  1  0  0  0
 27 47  1  0  0  0
 28 29  1  0  0  0
 29 48  1  0  0  0
 29 49  1  0  0  0
 29 50  1  0  0  0
 31 51  1  0  0  0
M  END
> <s_m_source_file>
../2io6_ligand.sdf

> <i_m_source_file_index>
1

> <s_epik_input>
W2NIXTFbY0hdW2NIXVtjSF1jKE9bQ0gzXSljMS1jMltjSF1jKGMzYyhjMjQpQyg9TylbTkhdQzQ9TyluKFtDSDJdW0NIMl1bQ0gyXVtPSF0pYzVjM1tjSF1jKFtPSF0pW2NIXVtjSF01

> <s_epik_cmdline>
J2VwaWtfYXBwJywgJy1pbWFlJywgJ2xpZ2FuZF9wcm8ubWFlJywgJy1vbWFlJywgJ2xpZ2FuZF9wcmVwLm1hZScsICctbXMnLCAnMScsICctcGgnLCAnNycsICctcGh0JywgJzAuNScsICctbnQn

> <r_lp_tautomer_probability>
1

> <r_epik_Ionization_Penalty>
  0.0226

> <r_epik_Ionization_Penalty_Charging>
  0.0000

> <r_epik_Ionization_Penalty_Neutral>
  0.0226

> <r_epik_State_Penalty>
  0.0134

> <r_epik_Charging_Adjusted_Penalty>
0.0133967204823993

> <i_epik_Tot_Q>
0

> <i_epik_Tot_abs_Q>
0

$$$$
