2ioa_ligand
                    3D
 Schrodinger Suite 2020-3.
 70 69  0  0  1  0            999 V2000
  -13.2340   18.5070    2.2750 C   0  0  0  0  0  0
  -14.4560   18.5630    2.8960 O   0  0  0  0  0  0
  -11.9960   18.6010    3.0020 O   0  5  0  0  0  0
  -13.0030   18.3860    0.7740 C   0  0  2  0  0  0
  -14.2650   18.1000    0.0770 N   0  3  0  0  0  0
  -12.0030   17.2740    0.5610 C   0  0  0  0  0  0
  -11.7760   17.0510   -0.9150 C   0  0  0  0  0  0
  -10.8140   15.9370   -1.0900 C   0  0  0  0  0  0
  -10.3120   15.3720   -0.1090 O   0  0  0  0  0  0
  -10.5370   15.5460   -2.3900 N   0  0  0  0  0  0
   -9.6820   14.4650   -2.7930 C   0  0  2  0  0  0
   -9.8320   13.1070   -2.0650 C   0  0  0  0  0  0
   -8.2140   14.8940   -2.8610 C   0  0  0  0  0  0
   -8.0590   16.1100   -3.0360 O   0  0  0  0  0  0
   -7.2000   13.9690   -2.7930 N   0  0  0  0  0  0
   -5.8320   14.2990   -2.9270 C   0  0  0  0  0  0
   -5.2710   13.1500   -3.9640 P   0  0  2  0  0  0
   -6.3090   12.9240   -5.2150 C   0  0  0  0  0  0
   -6.4300   14.1840   -6.0680 C   0  0  0  0  0  0
   -7.4490   13.9860   -7.1870 C   0  0  0  0  0  0
   -6.8800   14.1730   -8.5900 C   0  0  0  0  0  0
   -8.0260   14.0040   -9.4960 N   0  3  0  0  0  0
   -7.6250   14.2030  -10.8820 C   0  0  0  0  0  0
   -8.8670   14.0990  -11.7840 C   0  0  0  0  0  0
   -8.4560   14.3770  -13.2370 C   0  0  0  0  0  0
   -9.6990   14.3180  -14.1330 C   0  0  0  0  0  0
   -9.3250   14.5990  -15.5230 N   0  3  0  0  0  0
   -5.3130   11.9430   -3.4010 O   0  0  0  0  0  0
   -3.8650   13.4120   -4.6070 O   0  0  0  0  0  0
   -3.0030   14.6890   -4.3490 P   0  0  0  0  0  0
   -3.7070   15.9420   -4.7850 O   0  5  0  0  0  0
   -2.7690   14.8790   -3.0360 O   0  0  0  0  0  0
   -1.7180   14.5330   -5.1210 O   0  5  0  0  0  0
  -12.6393   19.3281    0.3380 H   0  0  0  0  0  0
  -14.9734   18.9238    0.2485 H   0  0  0  0  0  0
  -14.6924   17.1626    0.4624 H   0  0  0  0  0  0
  -14.0736   17.9995   -1.0015 H   0  0  0  0  0  0
  -11.0478   17.5441    1.0350 H   0  0  0  0  0  0
  -12.3856   16.3457    1.0103 H   0  0  0  0  0  0
  -12.7308   16.7971   -1.3986 H   0  0  0  0  0  0
  -11.3690   17.9680   -1.3661 H   0  0  0  0  0  0
  -11.0473   16.1563   -3.1498 H   0  0  0  0  0  0
  -10.1175   14.3220   -3.7929 H   0  0  0  0  0  0
  -10.8946   12.8245   -2.0312 H   0  0  0  0  0  0
   -9.4433   13.1957   -1.0398 H   0  0  0  0  0  0
   -9.2647   12.3359   -2.6068 H   0  0  0  0  0  0
   -7.4998   12.9241   -2.6245 H   0  0  0  0  0  0
   -5.7385   15.3166   -3.3340 H   0  0  0  0  0  0
   -5.3452   14.2520   -1.9417 H   0  0  0  0  0  0
   -5.9438   12.1041   -5.8509 H   0  0  0  0  0  0
   -7.3049   12.6688   -4.8237 H   0  0  0  0  0  0
   -6.7555   15.0241   -5.4369 H   0  0  0  0  0  0
   -5.4531   14.4188   -6.5158 H   0  0  0  0  0  0
   -7.8552   12.9650   -7.1366 H   0  0  0  0  0  0
   -8.2670   14.7122   -7.0707 H   0  0  0  0  0  0
   -6.4407   15.1778   -8.6766 H   0  0  0  0  0  0
   -6.1034   13.4162   -8.7746 H   0  0  0  0  0  0
   -8.4324   12.9876   -9.3875 H   0  0  0  0  0  0
   -8.8045   14.7390   -9.2436 H   0  0  0  0  0  0
   -7.1691   15.1980  -10.9925 H   0  0  0  0  0  0
   -6.8946   13.4314  -11.1668 H   0  0  0  0  0  0
   -9.2928   13.0877  -11.7065 H   0  0  0  0  0  0
   -9.6161   14.8378  -11.4631 H   0  0  0  0  0  0
   -7.9996   15.3756  -13.3043 H   0  0  0  0  0  0
   -7.7291   13.6189  -13.5639 H   0  0  0  0  0  0
  -10.1469   13.3151  -14.0731 H   0  0  0  0  0  0
  -10.4304   15.0670  -13.7952 H   0  0  0  0  0  0
  -10.2209   14.5551  -16.1598 H   0  0  0  0  0  0
   -8.5951   13.8504  -15.8648 H   0  0  0  0  0  0
   -8.8786   15.6023  -15.5869 H   0  0  0  0  0  0
  1  2  2  0  0  0
  1  3  1  0  0  0
  1  4  1  0  0  0
  4  5  1  0  0  0
  4  6  1  0  0  0
  4 34  1  0  0  0
  5 35  1  0  0  0
  5 36  1  0  0  0
  5 37  1  0  0  0
  6  7  1  0  0  0
  6 38  1  0  0  0
  6 39  1  0  0  0
  7  8  1  0  0  0
  7 40  1  0  0  0
  7 41  1  0  0  0
  8  9  2  0  0  0
  8 10  1  0  0  0
 10 11  1  0  0  0
 10 42  1  0  0  0
 11 12  1  0  0  0
 11 13  1  0  0  0
 11 43  1  0  0  0
 12 44  1  0  0  0
 12 45  1  0  0  0
 12 46  1  0  0  0
 13 14  2  0  0  0
 13 15  1  0  0  0
 15 16  1  0  0  0
 15 47  1  0  0  0
 16 17  1  0  0  0
 16 48  1  0  0  0
 16 49  1  0  0  0
 17 18  1  0  0  0
 17 28  2  0  0  0
 17 29  1  0  0  0
 18 19  1  0  0  0
 18 50  1  0  0  0
 18 51  1  0  0  0
 19 20  1  0  0  0
 19 52  1  0  0  0
 19 53  1  0  0  0
 20 21  1  0  0  0
 20 54  1  0  0  0
 20 55  1  0  0  0
 21 22  1  0  0  0
 21 56  1  0  0  0
 21 57  1  0  0  0
 22 23  1  0  0  0
 22 58  1  0  0  0
 22 59  1  0  0  0
 23 24  1  0  0  0
 23 60  1  0  0  0
 23 61  1  0  0  0
 24 25  1  0  0  0
 24 62  1  0  0  0
 24 63  1  0  0  0
 25 26  1  0  0  0
 25 64  1  0  0  0
 25 65  1  0  0  0
 26 27  1  0  0  0
 26 66  1  0  0  0
 26 67  1  0  0  0
 27 68  1  0  0  0
 27 69  1  0  0  0
 27 70  1  0  0  0
 29 30  1  0  0  0
 30 31  1  0  0  0
 30 32  2  0  0  0
 30 33  1  0  0  0
M  CHG  6   3  -1   5   1  22   1  27   1  31  -1  33  -1
M  END
> <s_m_source_file>
../2ioa_ligand.sdf

> <i_m_source_file_index>
1

> <s_epik_input>
Tz1DKFtPSF0pW0NASF0oW05IMytdKVtDSDJdW0NIMl1DKD1PKVtOSF1bQ0BIXShbQ0gzXSlDKD1PKVtOSF1bQ0gyXVtQQF0oPU8pKE9QKD1PKShbT0hdKVtPSF0pW0NIMl1bQ0gyXVtDSDJdW0NIMl1bTkgyK11bQ0gyXVtDSDJdW0NIMl1bQ0gyXVtOSDMrXQ==

> <s_epik_cmdline>
J2VwaWtfYXBwJywgJy1pbWFlJywgJ2xpZ2FuZF9wcm8ubWFlJywgJy1vbWFlJywgJ2xpZ2FuZF9wcmVwLm1hZScsICctbXMnLCAnMScsICctcGgnLCAnNycsICctcGh0JywgJzAuNScsICctbnQn

> <r_lp_tautomer_probability>
1

> <r_epik_Ionization_Penalty>
  0.0123

> <r_epik_Ionization_Penalty_Charging>
  0.0123

> <r_epik_Ionization_Penalty_Neutral>
  0.0000

> <r_epik_State_Penalty>
 -0.0000

> <r_epik_Charging_Adjusted_Penalty>
0.0122578932790317

> <i_epik_Tot_Q>
0

> <i_epik_Tot_abs_Q>
6

$$$$
