2iog_ligand
                    3D
 Schrodinger Suite 2020-3.
 79 83  0  0  1  0            999 V2000
   28.8630    0.0960   27.3330 C   0  0  0  0  0  0
   27.7630    0.8960   27.6590 C   0  0  0  0  0  0
   26.4620    0.4010   27.5120 C   0  0  0  0  0  0
   26.2930   -0.9200   27.0730 C   0  0  0  0  0  0
   25.0170   -1.3320   26.8820 O   0  0  0  0  0  0
   27.3770   -1.7070   26.7010 C   0  0  0  0  0  0
   28.6870   -1.2010   26.8480 C   0  0  0  0  0  0
   30.2260    0.7180   27.5270 C   0  0  0  0  0  0
   30.6040    0.6810   29.0300 C   0  0  0  0  0  0
   31.8910    1.5150   29.2500 C   0  0  1  0  0  0
   32.3170    1.3690   30.7160 C   0  0  0  0  0  0
   32.9100    1.0600   28.2660 N   0  0  0  0  0  0
   33.4390    1.9920   27.4540 C   0  0  0  0  0  0
   33.1100    3.1980   27.5470 O   0  0  0  0  0  0
   34.4260    1.5960   26.4310 C   0  0  0  0  0  0
   34.7220    0.1520   26.4200 C   0  0  0  0  0  0
   35.6620   -0.7660   27.1210 C   0  0  0  0  0  0
   35.4250   -2.1180   26.5900 N   0  3  0  0  0  0
   34.4100   -2.0670   25.7000 C   0  0  0  0  0  0
   33.8670   -3.1370   24.9630 C   0  0  0  0  0  0
   32.9250   -2.8240   23.9530 C   0  0  0  0  0  0
   32.3640   -1.5490   23.8960 C   0  0  0  0  0  0
   32.8250   -0.5170   24.7440 C   0  0  0  0  0  0
   33.9090   -0.7860   25.6050 C   0  0  0  0  0  0
   36.7320   -0.3820   28.1050 C   0  0  0  0  0  0
   36.5890    0.7280   28.9540 C   0  0  0  0  0  0
   37.6190    1.0380   29.8810 C   0  0  0  0  0  0
   38.7990    0.2900   29.9170 C   0  0  0  0  0  0
   38.9350   -0.7980   29.0800 C   0  0  0  0  0  0
   37.8940   -1.1550   28.1710 C   0  0  0  0  0  0
   32.3420   -3.8020   23.2300 O   0  0  0  0  0  0
   33.0450   -4.6620   22.3200 C   0  0  0  0  0  0
   33.5890   -3.9920   21.0560 C   0  0  0  0  0  0
   32.6150   -4.1210   19.9290 N   0  3  0  0  0  0
   33.2600   -3.3100   18.8600 C   0  0  0  0  0  0
   32.2890   -3.0900   17.6880 C   0  0  0  0  0  0
   31.0240   -2.3810   18.1820 C   0  0  0  0  0  0
   30.3630   -3.3220   19.2000 C   0  0  0  0  0  0
   31.3470   -3.5140   20.3610 C   0  0  0  0  0  0
   27.9195    1.9092   28.0291 H   0  0  0  0  0  0
   25.5990    1.0287   27.7340 H   0  0  0  0  0  0
   24.1794   -0.6873   27.1866 H   0  0  0  0  0  0
   27.2168   -2.7073   26.2988 H   0  0  0  0  0  0
   29.5490   -1.8147   26.5864 H   0  0  0  0  0  0
   30.9721    0.1540   26.9480 H   0  0  0  0  0  0
   30.2054    1.7618   27.1804 H   0  0  0  0  0  0
   29.7820    1.1052   29.6253 H   0  0  0  0  0  0
   30.7806   -0.3601   29.3382 H   0  0  0  0  0  0
   31.7725    2.5908   29.0536 H   0  0  0  0  0  0
   31.5084    1.7271   31.3702 H   0  0  0  0  0  0
   33.2244    1.9644   30.8952 H   0  0  0  0  0  0
   32.5237    0.3108   30.9341 H   0  0  0  0  0  0
   33.2005   -0.0002   28.2254 H   0  0  0  0  0  0
   34.0456    1.8596   25.4331 H   0  0  0  0  0  0
   35.3742    2.1230   26.6129 H   0  0  0  0  0  0
   34.1607   -4.1676   25.1624 H   0  0  0  0  0  0
   31.5600   -1.3457   23.1887 H   0  0  0  0  0  0
   32.3531    0.4655   24.7329 H   0  0  0  0  0  0
   35.6934    1.3471   28.9015 H   0  0  0  0  0  0
   37.4877    1.8697   30.5732 H   0  0  0  0  0  0
   39.6036    0.5635   30.5995 H   0  0  0  0  0  0
   39.8482   -1.3921   29.1132 H   0  0  0  0  0  0
   38.0054   -2.0291   27.5295 H   0  0  0  0  0  0
   33.9127   -5.1052   22.8306 H   0  0  0  0  0  0
   32.3724   -5.4625   21.9783 H   0  0  0  0  0  0
   33.7648   -2.9243   21.2537 H   0  0  0  0  0  0
   34.5352   -4.4716   20.7650 H   0  0  0  0  0  0
   32.3824   -5.1460   19.6044 H   0  0  0  0  0  0
   33.5532   -2.3317   19.2685 H   0  0  0  0  0  0
   34.1528   -3.8351   18.4896 H   0  0  0  0  0  0
   32.7752   -2.4699   16.9205 H   0  0  0  0  0  0
   32.0128   -4.0620   17.2532 H   0  0  0  0  0  0
   31.2992   -1.4254   18.6522 H   0  0  0  0  0  0
   30.3539   -2.1911   17.3306 H   0  0  0  0  0  0
   29.4267   -2.8717   19.5614 H   0  0  0  0  0  0
   30.1442   -4.2869   18.7192 H   0  0  0  0  0  0
   30.8665   -4.1618   21.1090 H   0  0  0  0  0  0
   31.5452   -2.5269   20.8041 H   0  0  0  0  0  0
   36.0405   -2.9610   26.9372 H   0  0  0  0  0  0
  1  2  2  0  0  0
  1  7  1  0  0  0
  1  8  1  0  0  0
  2  3  1  0  0  0
  2 40  1  0  0  0
  3  4  2  0  0  0
  3 41  1  0  0  0
  4  5  1  0  0  0
  4  6  1  0  0  0
  5 42  1  0  0  0
  6  7  2  0  0  0
  6 43  1  0  0  0
  7 44  1  0  0  0
  8  9  1  0  0  0
  8 45  1  0  0  0
  8 46  1  0  0  0
  9 10  1  0  0  0
  9 47  1  0  0  0
  9 48  1  0  0  0
 10 11  1  0  0  0
 10 12  1  0  0  0
 10 49  1  0  0  0
 11 50  1  0  0  0
 11 51  1  0  0  0
 11 52  1  0  0  0
 12 13  1  0  0  0
 12 53  1  0  0  0
 13 14  2  0  0  0
 13 15  1  0  0  0
 15 16  1  0  0  0
 15 54  1  0  0  0
 15 55  1  0  0  0
 16 17  2  0  0  0
 16 24  1  0  0  0
 17 18  1  0  0  0
 17 25  1  0  0  0
 18 19  1  0  0  0
 18 79  1  0  0  0
 19 20  1  0  0  0
 19 24  2  0  0  0
 20 21  2  0  0  0
 20 56  1  0  0  0
 21 22  1  0  0  0
 21 31  1  0  0  0
 22 23  2  0  0  0
 22 57  1  0  0  0
 23 24  1  0  0  0
 23 58  1  0  0  0
 25 26  2  0  0  0
 25 30  1  0  0  0
 26 27  1  0  0  0
 26 59  1  0  0  0
 27 28  2  0  0  0
 27 60  1  0  0  0
 28 29  1  0  0  0
 28 61  1  0  0  0
 29 30  2  0  0  0
 29 62  1  0  0  0
 30 63  1  0  0  0
 31 32  1  0  0  0
 32 33  1  0  0  0
 32 64  1  0  0  0
 32 65  1  0  0  0
 33 34  1  0  0  0
 33 66  1  0  0  0
 33 67  1  0  0  0
 34 35  1  0  0  0
 34 39  1  0  0  0
 34 68  1  0  0  0
 35 36  1  0  0  0
 35 69  1  0  0  0
 35 70  1  0  0  0
 36 37  1  0  0  0
 36 71  1  0  0  0
 36 72  1  0  0  0
 37 38  1  0  0  0
 37 73  1  0  0  0
 37 74  1  0  0  0
 38 39  1  0  0  0
 38 75  1  0  0  0
 38 76  1  0  0  0
 39 77  1  0  0  0
 39 78  1  0  0  0
M  CHG  2  18   1  34   1
M  END
> <s_m_source_file>
../2iog_ligand.sdf

> <i_m_source_file_index>
1

> <s_epik_input>
W2NIXTFbY0hdYyhbT0hdKVtjSF1bY0hdYzFbQ0gyXVtDSDJdW0NAQEhdKFtDSDNdKVtOSF1DKD1PKVtDSDJdYyhjKFtuSF0yKS1jM1tjSF1bY0hdW2NIXVtjSF1bY0hdMyljKGMyNClbY0hdW2NIXWMoW2NIXTQpT1tDSDJdW0NIMl1bTkgrXTVbQ0gyXVtDSDJdW0NIMl1bQ0gyXVtDSDJdNQ==

> <s_epik_cmdline>
J2VwaWtfYXBwJywgJy1pbWFlJywgJ2xpZ2FuZF9wcm8ubWFlJywgJy1vbWFlJywgJ2xpZ2FuZF9wcmVwLm1hZScsICctbXMnLCAnMScsICctcGgnLCAnNycsICctcGh0JywgJzAuNScsICctbnQn

> <r_lp_tautomer_probability>
0.999999999997365

> <r_epik_Ionization_Penalty>
  0.0126

> <r_epik_Ionization_Penalty_Charging>
  0.0122

> <r_epik_Ionization_Penalty_Neutral>
  0.0004

> <r_epik_State_Penalty>
  0.0095

> <r_epik_Charging_Adjusted_Penalty>
0.0216736986220823

> <i_epik_Tot_Q>
2

> <i_epik_Tot_abs_Q>
2

$$$$
