2ipo_ligand
                    3D
 Schrodinger Suite 2020-3.
 25 24  0  0  1  0            999 V2000
   46.3370   27.8020   15.8210 O   0  5  0  0  0  0
   45.2020   28.9150   16.0730 P   0  0  0  0  0  0
   45.5620   30.1270   15.0730 O   0  0  0  0  0  0
   45.1510   29.3620   17.4870 O   0  0  0  0  0  0
   43.6480   28.1940   15.4930 C   0  0  0  0  0  0
   42.4670   29.1140   15.8100 C   0  0  0  0  0  0
   42.2250   30.1020   15.1150 O   0  0  0  0  0  0
   41.7630   28.7530   16.8780 N   0  0  0  0  0  0
   40.5790   29.4950   17.3350 C   0  0  2  0  0  0
   40.9650   30.8580   17.9110 C   0  0  0  0  0  0
   40.0440   31.5490   18.3970 O   0  0  0  0  0  0
   42.1720   31.1850   17.8490 O   0  5  0  0  0  0
   39.8350   28.6660   18.3840 C   0  0  0  0  0  0
   40.7070   28.3230   19.5960 C   0  0  0  0  0  0
   40.3060   27.5270   20.4420 O   0  0  0  0  0  0
   41.8830   28.9400   19.6600 N   0  0  0  0  0  0
   46.4757   30.7184   15.2322 H   0  0  0  0  0  0
   43.6971   28.0442   14.4044 H   0  0  0  0  0  0
   43.4851   27.2260   15.9893 H   0  0  0  0  0  0
   42.0981   27.8603   17.4264 H   0  0  0  0  0  0
   39.9505   29.6533   16.4462 H   0  0  0  0  0  0
   38.9628   29.2301   18.7461 H   0  0  0  0  0  0
   39.4988   27.7206   17.9333 H   0  0  0  0  0  0
   42.1797   29.6419   18.8667 H   0  0  0  0  0  0
   42.5592   28.7486   20.5062 H   0  0  0  0  0  0
  1  2  1  0  0  0
  2  3  1  0  0  0
  2  4  2  0  0  0
  2  5  1  0  0  0
  3 17  1  0  0  0
  5  6  1  0  0  0
  5 18  1  0  0  0
  5 19  1  0  0  0
  6  7  2  0  0  0
  6  8  1  0  0  0
  8  9  1  0  0  0
  8 20  1  0  0  0
  9 10  1  0  0  0
  9 13  1  0  0  0
  9 21  1  0  0  0
 10 11  2  0  0  0
 10 12  1  0  0  0
 13 14  1  0  0  0
 13 22  1  0  0  0
 13 23  1  0  0  0
 14 15  2  0  0  0
 14 16  1  0  0  0
 16 24  1  0  0  0
 16 25  1  0  0  0
M  CHG  2   1  -1  12  -1
M  END
> <s_m_source_file>
../2ipo_ligand.sdf

> <i_m_source_file_index>
1

> <s_epik_input>
W09IXVAoPU8pKFtPSF0pW0NIMl1DKD1PKVtOSF1bQ0BIXShDKD1PKVtPSF0pW0NIMl1DKD1PKVtOSDJd

> <s_epik_cmdline>
J2VwaWtfYXBwJywgJy1pbWFlJywgJ2xpZ2FuZF9wcm8ubWFlJywgJy1vbWFlJywgJ2xpZ2FuZF9wcmVwLm1hZScsICctbXMnLCAnMScsICctcGgnLCAnNycsICctcGh0JywgJzAuNScsICctbnQn

> <r_epik_Ionization_Penalty>
  0.1897

> <r_epik_Ionization_Penalty_Charging>
  0.0002

> <r_epik_Ionization_Penalty_Neutral>
  0.1895

> <r_epik_State_Penalty>
  0.1792

> <r_epik_Charging_Adjusted_Penalty>
0.17934958179893

> <i_epik_Tot_Q>
-2

> <i_epik_Tot_abs_Q>
2

$$$$
