2iqg_ligand
                    3D
 Schrodinger Suite 2020-3.
 80 82  0  0  1  0            999 V2000
   14.1920   -4.5720   17.0800 N   0  0  0  0  0  0
   13.3380   -3.0420   18.8190 C   0  0  0  0  0  0
   12.2580   -2.6510   17.9760 C   0  0  0  0  0  0
   10.3290   -1.0910   17.4110 C   0  0  0  0  0  0
   13.1660   -0.3560   21.5730 C   0  0  0  0  0  0
   14.1320   -4.2580   18.4430 C   0  0  0  0  0  0
    8.8970   -3.1020   17.9970 C   0  0  0  0  0  0
    7.6310   -2.8360   18.8410 C   0  0  0  0  0  0
   14.8670   -5.7600   16.4890 C   0  0  1  0  0  0
   13.8420   -6.3180   15.4750 C   0  0  0  0  0  0
   19.7260   -5.7770   18.2620 C   0  0  0  0  0  0
   19.7350   -5.8040   19.6830 C   0  0  0  0  0  0
   19.9230   -7.0310   20.3770 C   0  0  0  0  0  0
   20.0970   -8.2480   18.2390 C   0  0  0  0  0  0
   11.2670   -7.6380   18.0700 C   0  0  0  0  0  0
   12.5240   -6.6330   16.1800 C   0  0  0  0  0  0
   11.4760   -1.5170   18.3050 C   0  0  0  0  0  0
   11.7750   -0.7700   19.4800 C   0  0  0  0  0  0
   12.8530   -1.1540   20.3280 C   0  0  0  0  0  0
   13.6320   -2.2950   19.9910 C   0  0  0  0  0  0
   10.3730    0.0410   16.9580 O   0  0  0  0  0  0
    9.2200   -1.9640   17.1090 N   0  0  0  0  0  0
    8.3690   -1.6810   15.9200 C   0  0  0  0  0  0
    9.1310   -1.7450   14.5810 C   0  0  0  0  0  0
    9.3600   -3.1860   14.1140 C   0  0  0  0  0  0
    7.8550   -1.7460   19.9000 C   0  0  0  0  0  0
   14.6650   -4.9590   19.2940 O   0  0  0  0  0  0
   16.2420   -5.4200   15.8810 C   0  0  1  0  0  0
   17.2040   -4.9860   16.9780 C   0  0  0  0  0  0
   18.5270   -4.7260   16.4310 N   0  3  0  0  0  0
   19.5010   -4.4610   17.4840 C   0  0  0  0  0  0
   20.1030   -8.2490   19.6600 C   0  0  0  0  0  0
   19.9100   -7.0170   17.5460 C   0  0  0  0  0  0
   20.3510  -10.0460   17.1770 I   0  0  0  0  0  0
   12.4960   -7.3630   17.4160 C   0  0  0  0  0  0
   11.3020   -6.1940   15.6250 C   0  0  0  0  0  0
   10.0700   -6.4710   16.2770 C   0  0  0  0  0  0
   10.0490   -7.1910   17.4990 C   0  0  0  0  0  0
   11.2630   -8.3060   19.2050 F   0  0  0  0  0  0
    8.9520   -6.0520   15.7440 F   0  0  0  0  0  0
   16.7880   -6.5770   15.3220 O   0  0  0  0  0  0
   13.6815   -3.8483   16.4276 H   0  0  0  0  0  0
   12.0334   -3.2251   17.0771 H   0  0  0  0  0  0
   12.4578    0.4812   21.6596 H   0  0  0  0  0  0
   14.1916    0.0364   21.5088 H   0  0  0  0  0  0
   13.0764   -1.0050   22.4566 H   0  0  0  0  0  0
    9.7544   -3.2704   18.6652 H   0  0  0  0  0  0
    8.7398   -3.9925   17.3707 H   0  0  0  0  0  0
    6.8134   -2.5081   18.1822 H   0  0  0  0  0  0
    7.3356   -3.7597   19.3601 H   0  0  0  0  0  0
   15.1131   -6.4946   17.2698 H   0  0  0  0  0  0
   13.6608   -5.5711   14.6881 H   0  0  0  0  0  0
   14.2382   -7.2389   15.0222 H   0  0  0  0  0  0
   19.5971   -4.8795   20.2437 H   0  0  0  0  0  0
   19.9294   -7.0397   21.4669 H   0  0  0  0  0  0
   11.1736    0.1033   19.7326 H   0  0  0  0  0  0
   14.4580   -2.5976   20.6346 H   0  0  0  0  0  0
    7.5546   -2.4186   15.8681 H   0  0  0  0  0  0
    7.9434   -0.6703   16.0059 H   0  0  0  0  0  0
    8.5530   -1.2220   13.8048 H   0  0  0  0  0  0
   10.1130   -1.2624   14.6945 H   0  0  0  0  0  0
    9.9051   -3.1795   13.1586 H   0  0  0  0  0  0
    8.3897   -3.6863   13.9792 H   0  0  0  0  0  0
    9.9497   -3.7267   14.8689 H   0  0  0  0  0  0
    6.9278   -1.5945   20.4721 H   0  0  0  0  0  0
    8.1377   -0.8057   19.4042 H   0  0  0  0  0  0
    8.6599   -2.0573   20.5820 H   0  0  0  0  0  0
   16.1487   -4.6746   15.0774 H   0  0  0  0  0  0
   16.8291   -4.0668   17.4519 H   0  0  0  0  0  0
   17.2824   -5.7821   17.7330 H   0  0  0  0  0  0
   18.8653   -5.6017   15.8576 H   0  0  0  0  0  0
   18.4841   -3.8486   15.7690 H   0  0  0  0  0  0
   19.1208   -3.6899   18.1701 H   0  0  0  0  0  0
   20.4533   -4.1258   17.0473 H   0  0  0  0  0  0
   20.2456   -9.1835   20.2026 H   0  0  0  0  0  0
   19.9058   -7.0115   16.4560 H   0  0  0  0  0  0
   13.4302   -7.7102   17.8574 H   0  0  0  0  0  0
   11.3037   -5.6375   14.6878 H   0  0  0  0  0  0
    9.1016   -7.3994   17.9961 H   0  0  0  0  0  0
   16.2687   -7.0873   14.4974 H   0  0  0  0  0  0
  1  6  1  0  0  0
  1  9  1  0  0  0
  1 42  1  0  0  0
  2  3  2  0  0  0
  2  6  1  0  0  0
  2 20  1  0  0  0
  3 17  1  0  0  0
  3 43  1  0  0  0
  4 17  1  0  0  0
  4 21  2  0  0  0
  4 22  1  0  0  0
  5 19  1  0  0  0
  5 44  1  0  0  0
  5 45  1  0  0  0
  5 46  1  0  0  0
  6 27  2  0  0  0
  7  8  1  0  0  0
  7 22  1  0  0  0
  7 47  1  0  0  0
  7 48  1  0  0  0
  8 26  1  0  0  0
  8 49  1  0  0  0
  8 50  1  0  0  0
  9 10  1  0  0  0
  9 28  1  0  0  0
  9 51  1  0  0  0
 10 16  1  0  0  0
 10 52  1  0  0  0
 10 53  1  0  0  0
 11 12  2  0  0  0
 11 31  1  0  0  0
 11 33  1  0  0  0
 12 13  1  0  0  0
 12 54  1  0  0  0
 13 32  2  0  0  0
 13 55  1  0  0  0
 14 32  1  0  0  0
 14 33  2  0  0  0
 14 34  1  0  0  0
 15 35  2  0  0  0
 15 38  1  0  0  0
 15 39  1  0  0  0
 16 35  1  0  0  0
 16 36  2  0  0  0
 17 18  2  0  0  0
 18 19  1  0  0  0
 18 56  1  0  0  0
 19 20  2  0  0  0
 20 57  1  0  0  0
 22 23  1  0  0  0
 23 24  1  0  0  0
 23 58  1  0  0  0
 23 59  1  0  0  0
 24 25  1  0  0  0
 24 60  1  0  0  0
 24 61  1  0  0  0
 25 62  1  0  0  0
 25 63  1  0  0  0
 25 64  1  0  0  0
 26 65  1  0  0  0
 26 66  1  0  0  0
 26 67  1  0  0  0
 28 29  1  0  0  0
 28 41  1  0  0  0
 28 68  1  0  0  0
 29 30  1  0  0  0
 29 69  1  0  0  0
 29 70  1  0  0  0
 30 31  1  0  0  0
 30 71  1  0  0  0
 30 72  1  0  0  0
 31 73  1  0  0  0
 31 74  1  0  0  0
 32 75  1  0  0  0
 33 76  1  0  0  0
 35 77  1  0  0  0
 36 37  1  0  0  0
 36 78  1  0  0  0
 37 38  2  0  0  0
 37 40  1  0  0  0
 38 79  1  0  0  0
 41 80  1  0  0  0
M  CHG  1  30   1
M  END
> <s_m_source_file>
../2iqg_ligand.sdf

> <i_m_source_file_index>
1

> <s_epik_input>
W0NIM11bQ0gyXVtDSDJdTihbQ0gyXVtDSDJdW0NIM10pQyg9TyljKFtjSF1jKFtDSDNdKVtjSF0xKVtjSF1jMUMoPU8pW05IXVtDQEBIXShbQ0gyXWMoW2NIXWMyRilbY0hdYyhGKVtjSF0yKVtDQEhdKFtPSF0pW0NIMl1bTkgyK11bQ0gyXWMzW2NIXVtjSF1bY0hdYyhJKVtjSF0z

> <s_epik_cmdline>
J2VwaWtfYXBwJywgJy1pbWFlJywgJ2xpZ2FuZF9wcm8ubWFlJywgJy1vbWFlJywgJ2xpZ2FuZF9wcmVwLm1hZScsICctbXMnLCAnMScsICctcGgnLCAnNycsICctcGh0JywgJzAuNScsICctbnQn

> <r_epik_Ionization_Penalty>
  0.0231

> <r_epik_Ionization_Penalty_Charging>
  0.0231

> <r_epik_Ionization_Penalty_Neutral>
  0.0000

> <r_epik_State_Penalty>
  0.0187

> <r_epik_Charging_Adjusted_Penalty>
0.0418147291250104

> <i_epik_Tot_Q>
1

> <i_epik_Tot_abs_Q>
1

$$$$
