2irz_ligand
                    3D
 Schrodinger Suite 2020-3.
 70 73  0  0  1  0            999 V2000
   32.2250   44.6480    6.2300 C   0  0  0  0  0  0
   32.4960   45.6210    5.1500 C   0  0  0  0  0  0
   32.3750   47.0640    5.2950 C   0  0  0  0  0  0
   32.0100   47.5830    6.5810 C   0  0  0  0  0  0
   31.7670   46.6240    7.6340 C   0  0  0  0  0  0
   31.8460   45.1800    7.5050 C   0  0  0  0  0  0
   32.9070   45.2060    3.7920 C   0  0  2  0  0  0
   31.8570   44.4580    3.1170 N   0  0  0  0  0  0
   31.1640   44.9150    2.0360 C   0  0  0  0  0  0
   30.1390   43.9950    1.5190 C   0  0  0  0  0  0
   30.3300   42.5780    1.5080 C   0  0  0  0  0  0
   29.3090   41.6960    1.0440 C   0  0  0  0  0  0
   28.0700   42.2110    0.5890 C   0  0  0  0  0  0
   27.8380   43.6310    0.5820 C   0  0  0  0  0  0
   28.8950   44.5180    1.0300 C   0  0  0  0  0  0
   26.5780   44.0580    0.2130 N   0  0  0  0  0  0
   25.7940   45.1940    1.0460 S   0  0  0  0  0  0
   26.1490   46.8010    0.3190 C   0  0  0  0  0  0
   25.9560   43.5940   -1.0430 C   0  0  0  0  0  0
   31.3600   46.0200    1.5280 O   0  0  0  0  0  0
   26.3340   45.2180    2.3670 O   0  0  0  0  0  0
   24.4010   44.8890    0.8770 O   0  0  0  0  0  0
   34.1930   44.3400    3.8480 C   0  0  0  0  0  0
   31.4540   47.1260    8.8350 F   0  0  0  0  0  0
   31.4460   37.7650    2.7430 C   0  0  2  0  0  0
   31.4040   38.5060    4.0150 N   0  3  0  0  0  0
   30.9600   36.3270    2.9700 C   0  0  0  0  0  0
   32.8420   37.7650    2.1020 C   0  0  0  0  0  0
   34.4060   41.6550    0.8990 C   0  0  0  0  0  0
   33.6140   40.8970   -0.0570 C   0  0  0  0  0  0
   33.1030   39.6010    0.3350 C   0  0  0  0  0  0
   33.4030   39.1090    1.6870 C   0  0  0  0  0  0
   34.2080   39.8700    2.6390 C   0  0  0  0  0  0
   34.7130   41.1720    2.2390 C   0  0  0  0  0  0
   29.6650   38.1620    0.8410 N   0  0  0  0  0  0
   29.1190   39.2390    0.4160 N   0  0  0  0  0  0
   29.5970   40.2920    1.1370 C   0  0  0  0  0  0
   30.4020   39.7890    2.0290 O   0  0  0  0  0  0
   30.4790   38.4870    1.8630 C   0  0  0  0  0  0
   32.3098   43.5741    6.0635 H   0  0  0  0  0  0
   32.5563   47.7302    4.4516 H   0  0  0  0  0  0
   31.9198   48.6550    6.7566 H   0  0  0  0  0  0
   31.6250   44.5246    8.3475 H   0  0  0  0  0  0
   33.0426   46.1353    3.2192 H   0  0  0  0  0  0
   31.5784   43.4559    3.4751 H   0  0  0  0  0  0
   31.2742   42.1634    1.8611 H   0  0  0  0  0  0
   27.2915   41.5306    0.2438 H   0  0  0  0  0  0
   28.7423   45.5967    0.9948 H   0  0  0  0  0  0
   27.2161   47.0344    0.4486 H   0  0  0  0  0  0
   25.5420   47.5711    0.8175 H   0  0  0  0  0  0
   25.9059   46.7800   -0.7536 H   0  0  0  0  0  0
   26.5922   42.8246   -1.5048 H   0  0  0  0  0  0
   25.8473   44.4431   -1.7338 H   0  0  0  0  0  0
   24.9651   43.1686   -0.8261 H   0  0  0  0  0  0
   34.9906   44.9006    4.3575 H   0  0  0  0  0  0
   34.5139   44.0935    2.8251 H   0  0  0  0  0  0
   33.9863   43.4119    4.4011 H   0  0  0  0  0  0
   32.0941   38.0400    4.7338 H   0  0  0  0  0  0
   30.3815   38.4818    4.4198 H   0  0  0  0  0  0
   31.7051   39.5497    3.8415 H   0  0  0  0  0  0
   31.6733   35.7969    3.6182 H   0  0  0  0  0  0
   30.8873   35.8076    2.0031 H   0  0  0  0  0  0
   29.9711   36.3459    3.4514 H   0  0  0  0  0  0
   33.5708   37.3444    2.8105 H   0  0  0  0  0  0
   32.8255   37.1543    1.1873 H   0  0  0  0  0  0
   34.7880   42.6307    0.5987 H   0  0  0  0  0  0
   33.4093   41.2975   -1.0499 H   0  0  0  0  0  0
   32.5092   39.0034   -0.3567 H   0  0  0  0  0  0
   34.4253   39.4692    3.6291 H   0  0  0  0  0  0
   35.3081   41.7740    2.9257 H   0  0  0  0  0  0
  1  2  2  0  0  0
  1  6  1  0  0  0
  1 40  1  0  0  0
  2  3  1  0  0  0
  2  7  1  0  0  0
  3  4  2  0  0  0
  3 41  1  0  0  0
  4  5  1  0  0  0
  4 42  1  0  0  0
  5  6  2  0  0  0
  5 24  1  0  0  0
  6 43  1  0  0  0
  7  8  1  0  0  0
  7 23  1  0  0  0
  7 44  1  0  0  0
  8  9  1  0  0  0
  8 45  1  0  0  0
  9 10  1  0  0  0
  9 20  2  0  0  0
 10 11  2  0  0  0
 10 15  1  0  0  0
 11 12  1  0  0  0
 11 46  1  0  0  0
 12 13  2  0  0  0
 12 37  1  0  0  0
 13 14  1  0  0  0
 13 47  1  0  0  0
 14 15  2  0  0  0
 14 16  1  0  0  0
 15 48  1  0  0  0
 16 17  1  0  0  0
 16 19  1  0  0  0
 17 18  1  0  0  0
 17 21  2  0  0  0
 17 22  2  0  0  0
 18 49  1  0  0  0
 18 50  1  0  0  0
 18 51  1  0  0  0
 19 52  1  0  0  0
 19 53  1  0  0  0
 19 54  1  0  0  0
 23 55  1  0  0  0
 23 56  1  0  0  0
 23 57  1  0  0  0
 25 26  1  0  0  0
 25 27  1  0  0  0
 25 28  1  0  0  0
 25 39  1  0  0  0
 26 58  1  0  0  0
 26 59  1  0  0  0
 26 60  1  0  0  0
 27 61  1  0  0  0
 27 62  1  0  0  0
 27 63  1  0  0  0
 28 32  1  0  0  0
 28 64  1  0  0  0
 28 65  1  0  0  0
 29 30  2  0  0  0
 29 34  1  0  0  0
 29 66  1  0  0  0
 30 31  1  0  0  0
 30 67  1  0  0  0
 31 32  2  0  0  0
 31 68  1  0  0  0
 32 33  1  0  0  0
 33 34  2  0  0  0
 33 69  1  0  0  0
 34 70  1  0  0  0
 35 36  1  0  0  0
 35 39  2  0  0  0
 36 37  2  0  0  0
 37 38  1  0  0  0
 38 39  1  0  0  0
M  CHG  1  26   1
M  END
> <s_m_source_file>
../2irz_ligand.sdf

> <i_m_source_file_index>
1

> <s_epik_input>
W2NIXTFbY0hdYyhGKVtjSF1bY0hdYzFbQ0BASF0oW0NIM10pW05IXUMoPU8pYzJbY0hdYyhbY0hdYyhbY0hdMilOKFtDSDNdKVMoPU8pKD1PKVtDSDNdKS1jM25uYyhvMylbQ0BAXShbTkgzK10pKFtDSDNdKVtDSDJdYzRbY0hdW2NIXVtjSF1bY0hdW2NIXTQ=

> <s_epik_cmdline>
J2VwaWtfYXBwJywgJy1pbWFlJywgJ2xpZ2FuZF9wcm8ubWFlJywgJy1vbWFlJywgJ2xpZ2FuZF9wcmVwLm1hZScsICctbXMnLCAnMScsICctcGgnLCAnNycsICctcGh0JywgJzAuNScsICctbnQn

> <r_lp_tautomer_probability>
1

> <r_epik_Ionization_Penalty>
  0.0108

> <r_epik_Ionization_Penalty_Charging>
  0.0108

> <r_epik_Ionization_Penalty_Neutral>
  0.0000

> <r_epik_State_Penalty>
  0.0082

> <r_epik_Charging_Adjusted_Penalty>
0.0190072904339597

> <i_epik_Tot_Q>
1

> <i_epik_Tot_abs_Q>
1

$$$$
