2is0_ligand
                    3D
 Schrodinger Suite 2020-3.
 72 74  0  0  1  0            999 V2000
   32.2120   44.6970    6.2880 C   0  0  0  0  0  0
   32.5680   45.5980    5.1870 C   0  0  0  0  0  0
   32.5130   47.0440    5.2780 C   0  0  0  0  0  0
   32.1020   47.6220    6.5340 C   0  0  0  0  0  0
   31.8440   46.7160    7.6250 C   0  0  0  0  0  0
   31.8920   45.2720    7.5480 C   0  0  0  0  0  0
   33.0420   45.0360    3.8750 C   0  0  2  0  0  0
   32.0340   44.2360    3.1800 N   0  0  0  0  0  0
   31.2980   44.6760    2.1100 C   0  0  0  0  0  0
   30.2940   43.7250    1.5460 C   0  0  0  0  0  0
   30.4610   42.2830    1.4070 C   0  0  0  0  0  0
   29.3610   41.4750    0.9070 C   0  0  0  0  0  0
   28.1300   42.0850    0.5790 C   0  0  0  0  0  0
   27.9380   43.4900    0.6760 C   0  0  0  0  0  0
   29.0370   44.2950    1.1570 C   0  0  0  0  0  0
   26.7020   43.9860    0.2950 N   0  0  0  0  0  0
   25.9190   45.1560    1.1060 S   0  0  0  0  0  0
   26.2010   46.7160    0.2850 C   0  0  0  0  0  0
   26.0660   43.6160   -0.9820 C   0  0  0  0  0  0
   31.4640   45.8050    1.6560 O   0  0  0  0  0  0
   26.4930   45.2170    2.4100 O   0  0  0  0  0  0
   24.5350   44.8250    0.9440 O   0  0  0  0  0  0
   34.3150   44.1500    4.0690 C   0  0  0  0  0  0
   31.5540   47.2300    8.8200 F   0  0  0  0  0  0
   29.4230   40.0400    0.6400 C   0  0  0  0  0  0
   30.2830   39.4230    1.4720 O   0  0  0  0  0  0
   28.7810   39.4840   -0.1960 O   0  0  0  0  0  0
   30.4240   37.9460    1.5350 C   0  0  0  0  0  0
   31.5390   37.6370    2.4940 C   0  0  1  0  0  0
   31.3970   38.4940    3.6730 N   0  3  0  0  0  0
   31.2340   36.2150    2.8920 C   0  0  0  0  0  0
   32.9490   37.8260    1.9000 C   0  0  0  0  0  0
   34.5490   41.7140    0.7390 C   0  0  0  0  0  0
   33.6730   41.0130   -0.1910 C   0  0  0  0  0  0
   33.0920   39.7490    0.2100 C   0  0  0  0  0  0
   33.4200   39.2130    1.5340 C   0  0  0  0  0  0
   34.2500   39.9410    2.4860 C   0  0  0  0  0  0
   34.8360   41.2100    2.0780 C   0  0  0  0  0  0
   32.0390   35.8570    3.8430 O   0  0  0  0  0  0
   32.1933   43.6167    6.1442 H   0  0  0  0  0  0
   32.7733   47.6727    4.4265 H   0  0  0  0  0  0
   31.9911   48.6998    6.6532 H   0  0  0  0  0  0
   31.6910   44.6504    8.4205 H   0  0  0  0  0  0
   33.2060   45.9181    3.2386 H   0  0  0  0  0  0
   31.8249   43.2076    3.5096 H   0  0  0  0  0  0
   31.4067   41.8130    1.6769 H   0  0  0  0  0  0
   27.3031   41.4600    0.2416 H   0  0  0  0  0  0
   28.9059   45.3748    1.2267 H   0  0  0  0  0  0
   27.2584   47.0002    0.3909 H   0  0  0  0  0  0
   25.5659   47.4901    0.7404 H   0  0  0  0  0  0
   25.9525   46.6189   -0.7821 H   0  0  0  0  0  0
   26.6529   42.8224   -1.4675 H   0  0  0  0  0  0
   26.0251   44.4966   -1.6399 H   0  0  0  0  0  0
   25.0453   43.2528   -0.7916 H   0  0  0  0  0  0
   35.0898   44.7307    4.5909 H   0  0  0  0  0  0
   34.6941   43.8327    3.0863 H   0  0  0  0  0  0
   34.0569   43.2631    4.6663 H   0  0  0  0  0  0
   29.4811   37.5024    1.8873 H   0  0  0  0  0  0
   30.6606   37.5572    0.5336 H   0  0  0  0  0  0
   30.3925   38.3639    4.1020 H   0  0  0  0  0  0
   31.5378   39.5452    3.3813 H   0  0  0  0  0  0
   32.1540   38.2166    4.4213 H   0  0  0  0  0  0
   30.1939   36.1477    3.2436 H   0  0  0  0  0  0
   31.3710   35.5538    2.0237 H   0  0  0  0  0  0
   33.7005   37.4646    2.6173 H   0  0  0  0  0  0
   33.0319   37.2552    0.9634 H   0  0  0  0  0  0
   35.0075   42.6508    0.4222 H   0  0  0  0  0  0
   33.4585   41.4338   -1.1733 H   0  0  0  0  0  0
   32.4240   39.2069   -0.4594 H   0  0  0  0  0  0
   34.4286   39.5427    3.4848 H   0  0  0  0  0  0
   35.4757   41.7718    2.7586 H   0  0  0  0  0  0
   31.9708   34.8454    4.2697 H   0  0  0  0  0  0
  1  2  2  0  0  0
  1  6  1  0  0  0
  1 40  1  0  0  0
  2  3  1  0  0  0
  2  7  1  0  0  0
  3  4  2  0  0  0
  3 41  1  0  0  0
  4  5  1  0  0  0
  4 42  1  0  0  0
  5  6  2  0  0  0
  5 24  1  0  0  0
  6 43  1  0  0  0
  7  8  1  0  0  0
  7 23  1  0  0  0
  7 44  1  0  0  0
  8  9  1  0  0  0
  8 45  1  0  0  0
  9 10  1  0  0  0
  9 20  2  0  0  0
 10 11  2  0  0  0
 10 15  1  0  0  0
 11 12  1  0  0  0
 11 46  1  0  0  0
 12 13  2  0  0  0
 12 25  1  0  0  0
 13 14  1  0  0  0
 13 47  1  0  0  0
 14 15  2  0  0  0
 14 16  1  0  0  0
 15 48  1  0  0  0
 16 17  1  0  0  0
 16 19  1  0  0  0
 17 18  1  0  0  0
 17 21  2  0  0  0
 17 22  2  0  0  0
 18 49  1  0  0  0
 18 50  1  0  0  0
 18 51  1  0  0  0
 19 52  1  0  0  0
 19 53  1  0  0  0
 19 54  1  0  0  0
 23 55  1  0  0  0
 23 56  1  0  0  0
 23 57  1  0  0  0
 25 26  1  0  0  0
 25 27  2  0  0  0
 26 28  1  0  0  0
 28 29  1  0  0  0
 28 58  1  0  0  0
 28 59  1  0  0  0
 29 30  1  0  0  0
 29 31  1  0  0  0
 29 32  1  0  0  0
 30 60  1  0  0  0
 30 61  1  0  0  0
 30 62  1  0  0  0
 31 39  1  0  0  0
 31 63  1  0  0  0
 31 64  1  0  0  0
 32 36  1  0  0  0
 32 65  1  0  0  0
 32 66  1  0  0  0
 33 34  2  0  0  0
 33 38  1  0  0  0
 33 67  1  0  0  0
 34 35  1  0  0  0
 34 68  1  0  0  0
 35 36  2  0  0  0
 35 69  1  0  0  0
 36 37  1  0  0  0
 37 38  2  0  0  0
 37 70  1  0  0  0
 38 71  1  0  0  0
 39 72  1  0  0  0
M  CHG  1  30   1
M  END
> <s_m_source_file>
../2is0_ligand.sdf

> <i_m_source_file_index>
1

> <s_epik_input>
W2NIXTFbY0hdYyhGKVtjSF1bY0hdYzFbQ0BASF0oW0NIM10pW05IXUMoPU8pYzJbY0hdYyhbY0hdYyhbY0hdMilOKFtDSDNdKVMoPU8pKD1PKVtDSDNdKUMoPU8pT1tDSDJdW0NAQF0oW05IMytdKShbQ0gyXVtPSF0pW0NIMl1jM1tjSF1bY0hdW2NIXVtjSF1bY0hdMw==

> <s_epik_cmdline>
J2VwaWtfYXBwJywgJy1pbWFlJywgJ2xpZ2FuZF9wcm8ubWFlJywgJy1vbWFlJywgJ2xpZ2FuZF9wcmVwLm1hZScsICctbXMnLCAnMScsICctcGgnLCAnNycsICctcGh0JywgJzAuNScsICctbnQn

> <r_epik_Ionization_Penalty>
  0.1566

> <r_epik_Ionization_Penalty_Charging>
  0.1566

> <r_epik_Ionization_Penalty_Neutral>
  0.0000

> <r_epik_State_Penalty>
  0.1459

> <r_epik_Charging_Adjusted_Penalty>
0.302530009754149

> <i_epik_Tot_Q>
1

> <i_epik_Tot_abs_Q>
1

> <s_epik_Chemistry_Notes>
This compound has an ester and may undergo hydrolysis at high or low pH.

$$$$
