2isc_ligand
                    3D
 Schrodinger Suite 2020-3.
 36 38  0  0  1  0            999 V2000
   -1.8890   -5.9930  -15.9810 N   0  0  0  0  0  0
   -2.6440   -6.9540  -16.7860 C   0  0  0  0  0  0
   -1.5620   -8.6990  -15.4340 C   0  0  0  0  0  0
   -0.8480   -7.7820  -14.6840 C   0  0  0  0  0  0
   -1.0410   -6.3410  -14.9830 C   0  0  0  0  0  0
   -0.3290   -9.8080  -13.9510 C   0  0  0  0  0  0
   -0.4060   -5.4800  -14.3170 N   0  0  0  0  0  0
   -2.4170   -8.3610  -16.4290 N   0  0  0  0  0  0
   -1.2400   -9.9700  -14.9930 C   0  0  0  0  0  0
   -0.0950   -8.4760  -13.7860 N   0  3  0  0  0  0
   -1.7780  -11.2760  -15.4840 C   0  0  0  0  0  0
   -1.3050  -11.7780  -16.7800 N   0  0  2  0  0  0
    0.1370  -11.6410  -17.0770 C   0  0  0  0  0  0
    0.1860  -11.4920  -18.6000 C   0  0  2  0  0  0
    0.6900  -10.1150  -18.9800 C   0  0  0  0  0  0
    1.7960   -9.8300  -18.1320 O   0  0  0  0  0  0
   -1.2310  -11.6540  -19.0960 C   0  0  1  0  0  0
   -1.4850  -13.0350  -19.3900 O   0  0  0  0  0  0
   -2.0640  -11.2060  -17.9040 C   0  0  0  0  0  0
   -3.3199   -6.6506  -17.5855 H   0  0  0  0  0  0
    0.0659  -10.6889  -13.4237 H   0  0  0  0  0  0
   -0.5419   -4.4095  -14.5307 H   0  0  0  0  0  0
    0.2841   -5.7989  -13.5220 H   0  0  0  0  0  0
   -1.5282  -12.0693  -14.7641 H   0  0  0  0  0  0
   -2.8708  -11.2064  -15.5884 H   0  0  0  0  0  0
    0.5353  -10.7555  -16.5600 H   0  0  0  0  0  0
    0.6697  -12.5387  -16.7301 H   0  0  0  0  0  0
    0.8579  -12.2365  -19.0519 H   0  0  0  0  0  0
    0.9990  -10.1161  -20.0357 H   0  0  0  0  0  0
   -0.1129   -9.3774  -18.8338 H   0  0  0  0  0  0
    2.3294   -8.8727  -18.2268 H   0  0  0  0  0  0
   -1.4541  -11.1327  -20.0386 H   0  0  0  0  0  0
   -0.9639  -13.5242  -20.2262 H   0  0  0  0  0  0
   -3.0832  -11.6199  -17.9066 H   0  0  0  0  0  0
   -2.1126  -10.1125  -17.7949 H   0  0  0  0  0  0
    0.5620   -7.9379  -13.0868 H   0  0  0  0  0  0
  1  2  2  0  0  0
  1  5  1  0  0  0
  2  8  1  0  0  0
  2 20  1  0  0  0
  3  4  1  0  0  0
  3  8  2  0  0  0
  3  9  1  0  0  0
  4  5  2  0  0  0
  4 10  1  0  0  0
  5  7  1  0  0  0
  6  9  2  0  0  0
  6 10  1  0  0  0
  6 21  1  0  0  0
  7 22  1  0  0  0
  7 23  1  0  0  0
  9 11  1  0  0  0
 10 36  1  0  0  0
 11 12  1  0  0  0
 11 24  1  0  0  0
 11 25  1  0  0  0
 12 13  1  0  0  0
 12 19  1  0  0  0
 13 14  1  0  0  0
 13 26  1  0  0  0
 13 27  1  0  0  0
 14 15  1  0  0  0
 14 17  1  0  0  0
 14 28  1  0  0  0
 15 16  1  0  0  0
 15 29  1  0  0  0
 15 30  1  0  0  0
 16 31  1  0  0  0
 17 18  1  0  0  0
 17 19  1  0  0  0
 17 32  1  0  0  0
 18 33  1  0  0  0
 19 34  1  0  0  0
 19 35  1  0  0  0
M  CHG  1  10   1
M  END
> <s_m_source_file>
../2isc_ligand.sdf

> <i_m_source_file_index>
1

> <s_epik_input>
bjFbY0hdbmMoW05IMl0pYyhjMTIpW25IXVtjSF1jMltDSDJdW05AQEgrXTNbQ0gyXVtDQEhdKFtDSDJdW09IXSlbQ0BASF0oW09IXSlbQ0gyXTM=

> <s_epik_cmdline>
J2VwaWtfYXBwJywgJy1pbWFlJywgJ2xpZ2FuZF9wcm8ubWFlJywgJy1vbWFlJywgJ2xpZ2FuZF9wcmVwLm1hZScsICctbXMnLCAnMScsICctcGgnLCAnNycsICctcGh0JywgJzAuNScsICctbnQn

> <r_epik_Ionization_Penalty>
  0.8977

> <r_epik_Ionization_Penalty_Charging>
  0.0000

> <r_epik_Ionization_Penalty_Neutral>
  0.8977

> <r_epik_State_Penalty>
  0.1491

> <r_epik_Charging_Adjusted_Penalty>
0.149087815689186

> <i_epik_Tot_Q>
1

> <i_epik_Tot_abs_Q>
1

$$$$
