2isv_ligand
                    3D
 Schrodinger Suite 2020-3.
 14 13  0  0  1  0            999 V2000
  -40.5440  -10.1780  -22.1320 C   0  0  0  0  0  0
  -41.6040  -11.0830  -23.1130 C   0  0  0  0  0  0
  -40.0640  -11.0780  -21.2760 N   0  0  0  0  0  0
  -39.1200  -10.4910  -20.3370 O   0  0  0  0  0  0
  -40.3550   -8.9740  -22.2910 O   0  0  0  0  0  0
  -42.9370  -10.6160  -22.5740 O   0  0  0  0  0  0
  -45.2430  -10.9390  -22.1370 O   0  0  0  0  0  0
  -44.0530  -12.6960  -23.2750 O   0  5  0  0  0  0
  -44.4950  -10.6200  -24.5270 O   0  5  0  0  0  0
  -44.2480  -11.2270  -23.1600 P   0  0  0  0  0  0
  -41.4365  -10.8249  -24.1691 H   0  0  0  0  0  0
  -41.4155  -12.1564  -22.9635 H   0  0  0  0  0  0
  -40.3010  -12.1507  -21.2195 H   0  0  0  0  0  0
  -38.6434  -11.1199  -19.5707 H   0  0  0  0  0  0
  1  2  1  0  0  0
  1  3  1  0  0  0
  1  5  2  0  0  0
  2  6  1  0  0  0
  2 11  1  0  0  0
  2 12  1  0  0  0
  3  4  1  0  0  0
  3 13  1  0  0  0
  4 14  1  0  0  0
  6 10  1  0  0  0
  7 10  2  0  0  0
  8 10  1  0  0  0
  9 10  1  0  0  0
M  CHG  2   8  -1   9  -1
M  END
> <s_m_source_file>
../2isv_ligand.sdf

> <i_m_source_file_index>
1

> <s_epik_input>
W09IXVtOSF1DKD1PKVtDSDJdT1AoPU8pKFtPSF0pW09IXQ==

> <s_epik_cmdline>
J2VwaWtfYXBwJywgJy1pbWFlJywgJ2xpZ2FuZF9wcm8ubWFlJywgJy1vbWFlJywgJ2xpZ2FuZF9wcmVwLm1hZScsICctbXMnLCAnMScsICctcGgnLCAnNycsICctcGh0JywgJzAuNScsICctbnQn

> <r_lp_tautomer_probability>
1

> <r_epik_Ionization_Penalty>
  0.1051

> <r_epik_Ionization_Penalty_Charging>
  0.0952

> <r_epik_Ionization_Penalty_Neutral>
  0.0099

> <r_epik_State_Penalty>
 -0.0000

> <r_epik_Charging_Adjusted_Penalty>
0.0952146890399759

> <i_epik_Tot_Q>
-2

> <i_epik_Tot_abs_Q>
2

> <s_epik_Chemistry_Notes>
This compound has a N-S or N-O group and may undergo hydrolysis at high or low pH.

$$$$
