2isw_ligand
                    3D
 Schrodinger Suite 2020-3.
 14 13  0  0  1  0            999 V2000
  -24.8050   15.2140   57.1340 C   0  0  0  0  0  0
  -26.3380   14.9260   56.4970 C   0  0  0  0  0  0
  -24.3690   14.0710   57.5790 N   0  0  0  0  0  0
  -23.0360   14.2630   58.1280 O   0  0  0  0  0  0
  -24.3110   16.3160   57.1080 O   0  0  0  0  0  0
  -27.2340   15.6100   57.5300 O   0  0  0  0  0  0
  -29.4690   15.8600   58.5260 O   0  0  0  0  0  0
  -29.1090   14.1040   56.9150 O   0  5  0  0  0  0
  -29.1150   16.5000   56.0800 O   0  5  0  0  0  0
  -28.8030   15.5220   57.2660 P   0  0  0  0  0  0
  -26.4091   15.3751   55.4954 H   0  0  0  0  0  0
  -26.5075   13.8415   56.4255 H   0  0  0  0  0  0
  -24.8313   13.0730   57.5936 H   0  0  0  0  0  0
  -22.4901   13.4102   58.5579 H   0  0  0  0  0  0
  1  2  1  0  0  0
  1  3  1  0  0  0
  1  5  2  0  0  0
  2  6  1  0  0  0
  2 11  1  0  0  0
  2 12  1  0  0  0
  3  4  1  0  0  0
  3 13  1  0  0  0
  4 14  1  0  0  0
  6 10  1  0  0  0
  7 10  2  0  0  0
  8 10  1  0  0  0
  9 10  1  0  0  0
M  CHG  2   8  -1   9  -1
M  END
> <s_m_source_file>
../2isw_ligand.sdf

> <i_m_source_file_index>
1

> <s_epik_input>
W09IXVtOSF1DKD1PKVtDSDJdT1AoPU8pKFtPSF0pW09IXQ==

> <s_epik_cmdline>
J2VwaWtfYXBwJywgJy1pbWFlJywgJ2xpZ2FuZF9wcm8ubWFlJywgJy1vbWFlJywgJ2xpZ2FuZF9wcmVwLm1hZScsICctbXMnLCAnMScsICctcGgnLCAnNycsICctcGh0JywgJzAuNScsICctbnQn

> <r_lp_tautomer_probability>
1

> <r_epik_Ionization_Penalty>
  0.1051

> <r_epik_Ionization_Penalty_Charging>
  0.0952

> <r_epik_Ionization_Penalty_Neutral>
  0.0099

> <r_epik_State_Penalty>
 -0.0000

> <r_epik_Charging_Adjusted_Penalty>
0.0952146890399759

> <i_epik_Tot_Q>
-2

> <i_epik_Tot_abs_Q>
2

> <s_epik_Chemistry_Notes>
This compound has a N-S or N-O group and may undergo hydrolysis at high or low pH.

$$$$
