2itk_ligand
                    3D
 Schrodinger Suite 2020-3.
 92 94  0  0  1  0            999 V2000
   35.4070   32.0600   24.2830 N   0  3  0  0  0  0
   34.5740   31.3450   23.3130 C   0  0  2  0  0  0
   34.7720   29.8460   23.6530 C   0  0  0  0  0  0
   35.9280   29.1490   23.5020 O   0  0  0  0  0  0
   34.9440   31.6710   21.8630 C   0  0  0  0  0  0
   33.6700   29.2940   24.1150 N   0  0  0  0  0  0
   33.3440   27.9220   24.5770 C   0  0  2  0  0  0
   32.0100   27.5790   25.1320 C   0  0  2  0  0  0
   31.7050   26.1080   25.4170 C   0  0  0  0  0  0
   31.0260   27.9220   24.2050 O   0  0  0  0  0  0
   30.0650   29.1950   24.2400 P   0  0  0  0  0  0
   30.9470   30.5570   24.0170 O   0  5  0  0  0  0
   29.3570   29.3030   25.6960 O   0  0  0  0  0  0
   29.1560   28.8350   22.9450 O   0  5  0  0  0  0
   34.4510   27.4590   25.5280 C   0  0  0  0  0  0
   34.4610   28.3130   26.6050 O   0  0  0  0  0  0
   35.3120   26.4910   25.3980 N   0  0  0  0  0  0
   35.5890   25.6340   24.2010 C   0  0  0  0  0  0
   35.7020   24.1640   24.1950 C   0  0  0  0  0  0
   36.6990   24.0090   25.3860 C   0  0  0  0  0  0
   36.6090   24.6930   26.7880 C   0  0  0  0  0  0
   36.2670   26.1920   26.4850 C   0  0  1  0  0  0
   37.6910   26.7620   26.5280 C   0  0  0  0  0  0
   38.8560   26.4170   27.0700 O   0  0  0  0  0  0
   40.8380   28.4860   22.4850 C   0  0  0  0  0  0
   39.5120   28.7360   22.9470 C   0  0  0  0  0  0
   38.4440   28.0600   22.2650 C   0  0  0  0  0  0
   38.6450   27.1660   21.1580 C   0  0  0  0  0  0
   39.9850   26.9410   20.7100 C   0  0  0  0  0  0
   40.3080   26.0770   19.6120 C   0  0  0  0  0  0
   41.6470   25.8600   19.1770 C   0  0  0  0  0  0
   42.7120   26.5290   19.8490 C   0  0  0  0  0  0
   42.4830   27.4140   20.9560 C   0  0  0  0  0  0
   41.1110   27.6130   21.3740 C   0  0  0  0  0  0
   39.0990   29.6370   24.1170 C   0  0  0  0  0  0
   39.0370   28.7490   25.4170 C   0  0  1  0  0  0
   39.3080   29.6310   26.6390 C   0  0  0  0  0  0
   37.8170   27.8570   25.7210 N   0  0  0  0  0  0
   38.1290   30.0950   27.1730 O   0  0  0  0  0  0
   40.4670   29.8500   27.2680 N   0  0  0  0  0  0
   40.7720   30.5930   28.5110 C   0  0  2  0  0  0
   40.2630   32.0510   28.5900 C   0  0  0  0  0  0
   39.6330   32.4170   29.7470 O   0  0  0  0  0  0
   42.2960   30.6010   28.7910 C   0  0  0  0  0  0
   43.0810   30.6490   30.1310 C   0  0  0  0  0  0
   44.6170   30.8290   29.9950 C   0  0  0  0  0  0
   45.4740   29.9410   30.5390 O   0  0  0  0  0  0
   45.0780   31.9090   29.3130 N   0  0  0  0  0  0
   40.4830   32.7980   27.4860 N   0  0  0  0  0  0
   35.0975   31.7881   25.3029 H   0  0  0  0  0  0
   35.2875   33.1441   24.1402 H   0  0  0  0  0  0
   36.4615   31.7846   24.1342 H   0  0  0  0  0  0
   33.5331   31.6853   23.4170 H   0  0  0  0  0  0
   34.7854   32.7434   21.6764 H   0  0  0  0  0  0
   34.3113   31.0828   21.1820 H   0  0  0  0  0  0
   36.0010   31.4210   21.6892 H   0  0  0  0  0  0
   32.8964   30.0759   24.1246 H   0  0  0  0  0  0
   33.2526   27.3995   23.6133 H   0  0  0  0  0  0
   31.9754   28.1819   26.0514 H   0  0  0  0  0  0
   32.4285   25.7186   26.1484 H   0  0  0  0  0  0
   31.7800   25.5305   24.4838 H   0  0  0  0  0  0
   30.6871   26.0168   25.8238 H   0  0  0  0  0  0
   34.7954   25.7806   23.4535 H   0  0  0  0  0  0
   36.5593   25.9149   23.7655 H   0  0  0  0  0  0
   34.7103   23.7193   24.3645 H   0  0  0  0  0  0
   36.0921   23.8302   23.2222 H   0  0  0  0  0  0
   36.7449   22.9530   25.6906 H   0  0  0  0  0  0
   37.6989   24.3442   25.0732 H   0  0  0  0  0  0
   35.8205   24.2083   27.3825 H   0  0  0  0  0  0
   37.5735   24.5931   27.3073 H   0  0  0  0  0  0
   35.5625   26.7392   27.1286 H   0  0  0  0  0  0
   41.6724   28.9724   22.9903 H   0  0  0  0  0  0
   37.4237   28.2349   22.6062 H   0  0  0  0  0  0
   37.8015   26.6738   20.6739 H   0  0  0  0  0  0
   39.4981   25.5669   19.0904 H   0  0  0  0  0  0
   41.8547   25.1914   18.3416 H   0  0  0  0  0  0
   43.7348   26.3628   19.5107 H   0  0  0  0  0  0
   43.3083   27.9157   21.4612 H   0  0  0  0  0  0
   39.8403   30.4402   24.2406 H   0  0  0  0  0  0
   38.1124   30.0773   23.9103 H   0  0  0  0  0  0
   39.8063   27.9875   25.2210 H   0  0  0  0  0  0
   36.8473   28.0717   25.2483 H   0  0  0  0  0  0
   41.2775   29.3648   26.7043 H   0  0  0  0  0  0
   40.1912   30.0016   29.2341 H   0  0  0  0  0  0
   42.7490   29.6865   28.3805 H   0  0  0  0  0  0
   42.7517   31.4816   28.3147 H   0  0  0  0  0  0
   42.7206   31.4933   30.7370 H   0  0  0  0  0  0
   42.9247   29.7095   30.6814 H   0  0  0  0  0  0
   44.3687   32.6261   28.8740 H   0  0  0  0  0  0
   46.1607   32.0668   29.1996 H   0  0  0  0  0  0
   41.0091   32.3630   26.6234 H   0  0  0  0  0  0
   40.1361   33.8412   27.4497 H   0  0  0  0  0  0
  1  2  1  0  0  0
  1 50  1  0  0  0
  1 51  1  0  0  0
  1 52  1  0  0  0
  2  3  1  0  0  0
  2  5  1  0  0  0
  2 53  1  0  0  0
  3  4  2  0  0  0
  3  6  1  0  0  0
  5 54  1  0  0  0
  5 55  1  0  0  0
  5 56  1  0  0  0
  6  7  1  0  0  0
  6 57  1  0  0  0
  7  8  1  0  0  0
  7 15  1  0  0  0
  7 58  1  0  0  0
  8  9  1  0  0  0
  8 10  1  0  0  0
  8 59  1  0  0  0
  9 60  1  0  0  0
  9 61  1  0  0  0
  9 62  1  0  0  0
 10 11  1  0  0  0
 11 12  1  0  0  0
 11 13  2  0  0  0
 11 14  1  0  0  0
 15 16  2  0  0  0
 15 17  1  0  0  0
 17 18  1  0  0  0
 17 22  1  0  0  0
 18 19  1  0  0  0
 18 63  1  0  0  0
 18 64  1  0  0  0
 19 20  1  0  0  0
 19 65  1  0  0  0
 19 66  1  0  0  0
 20 21  1  0  0  0
 20 67  1  0  0  0
 20 68  1  0  0  0
 21 22  1  0  0  0
 21 69  1  0  0  0
 21 70  1  0  0  0
 22 23  1  0  0  0
 22 71  1  0  0  0
 23 24  2  0  0  0
 23 38  1  0  0  0
 25 26  2  0  0  0
 25 34  1  0  0  0
 25 72  1  0  0  0
 26 27  1  0  0  0
 26 35  1  0  0  0
 27 28  2  0  0  0
 27 73  1  0  0  0
 28 29  1  0  0  0
 28 74  1  0  0  0
 29 30  1  0  0  0
 29 34  2  0  0  0
 30 31  2  0  0  0
 30 75  1  0  0  0
 31 32  1  0  0  0
 31 76  1  0  0  0
 32 33  2  0  0  0
 32 77  1  0  0  0
 33 34  1  0  0  0
 33 78  1  0  0  0
 35 36  1  0  0  0
 35 79  1  0  0  0
 35 80  1  0  0  0
 36 37  1  0  0  0
 36 38  1  0  0  0
 36 81  1  0  0  0
 37 39  2  0  0  0
 37 40  1  0  0  0
 38 82  1  0  0  0
 40 41  1  0  0  0
 40 83  1  0  0  0
 41 42  1  0  0  0
 41 44  1  0  0  0
 41 84  1  0  0  0
 42 43  2  0  0  0
 42 49  1  0  0  0
 44 45  1  0  0  0
 44 85  1  0  0  0
 44 86  1  0  0  0
 45 46  1  0  0  0
 45 87  1  0  0  0
 45 88  1  0  0  0
 46 47  2  0  0  0
 46 48  1  0  0  0
 48 89  1  0  0  0
 48 90  1  0  0  0
 49 91  1  0  0  0
 49 92  1  0  0  0
M  CHG  3   1   1  12  -1  14  -1
M  END
> <s_m_source_file>
../2itk_ligand.sdf

> <i_m_source_file_index>
1

> <s_epik_input>
W05IMytdW0NAQEhdKFtDSDNdKUMoPU8pW05IXVtDQEhdKFtDQEhdKFtDSDNdKU9QKD1PKShbT0hdKVtPSF0pQyg9TylOMVtDSDJdW0NIMl1bQ0gyXVtDSDJdW0NASF0xQyg9TylbTkhdW0NASF0oQyg9TylbTkhdW0NASF0oQyg9TylbTkgyXSlbQ0gyXVtDSDJdQyg9TylbTkgyXSlbQ0gyXWMoW2NIXVtjSF0yKVtjSF1jKGMyMylbY0hdW2NIXVtjSF1bY0hdMw==

> <s_epik_cmdline>
J2VwaWtfYXBwJywgJy1pbWFlJywgJ2xpZ2FuZF9wcm8ubWFlJywgJy1vbWFlJywgJ2xpZ2FuZF9wcmVwLm1hZScsICctbXMnLCAnMScsICctcGgnLCAnNycsICctcGh0JywgJzAuNScsICctbnQn

> <r_lp_tautomer_probability>
1

> <r_epik_Ionization_Penalty>
  0.2140

> <r_epik_Ionization_Penalty_Charging>
  0.2140

> <r_epik_Ionization_Penalty_Neutral>
  0.0000

> <r_epik_State_Penalty>
 -0.0000

> <r_epik_Charging_Adjusted_Penalty>
0.213986533215236

> <i_epik_Tot_Q>
-1

> <i_epik_Tot_abs_Q>
3

$$$$
