2itp_ligand
                    3D
 Schrodinger Suite 2020-3.
 65 69  0  0  1  0            999 V2000
  -50.6230   -0.5830  -12.5610 C   0  0  0  0  0  0
  -49.5610   -0.7780  -11.4520 C   0  0  0  0  0  0
  -49.3020   -2.2240  -11.1470 N   0  0  1  0  0  0
  -50.3550   -2.7930  -10.2580 C   0  0  0  0  0  0
  -50.5150   -1.9410   -8.9750 C   0  0  0  0  0  0
  -49.0080   -3.0800  -12.3420 C   0  0  0  0  0  0
  -49.7880   -2.7090  -13.6360 C   0  0  0  0  0  0
  -50.1890   -1.2670  -13.8070 N   0  3  2  0  0  0
  -49.1930   -0.4480  -14.5800 C   0  0  0  0  0  0
  -49.9080   -0.1170  -15.8880 C   0  0  0  0  0  0
  -50.9130    0.8550  -15.9060 C   0  0  0  0  0  0
  -51.5930    1.1200  -17.0980 C   0  0  0  0  0  0
  -49.5910   -0.8370  -17.0350 C   0  0  0  0  0  0
  -50.2700   -0.5710  -18.2180 C   0  0  0  0  0  0
  -51.2600    0.4100  -18.2610 C   0  0  0  0  0  0
  -51.9420    0.6390  -19.4570 C   0  0  0  0  0  0
  -53.0900    1.3230  -19.5730 N   0  0  0  0  0  0
  -51.5900    0.1700  -20.6560 C   0  0  0  0  0  0
  -52.4940    0.5780  -21.5400 C   0  0  0  0  0  0
  -53.4470    1.3140  -20.8530 C   0  0  0  0  0  0
  -54.4940    1.8370  -21.5270 N   0  0  0  0  0  0
  -54.6330    1.6530  -22.8450 C   0  0  0  0  0  0
  -53.7350    0.9560  -23.5300 N   0  0  0  0  0  0
  -52.6520    0.4060  -22.9160 C   0  0  0  0  0  0
  -51.7500   -0.3020  -23.6120 N   0  0  0  0  0  0
  -52.1210   -0.8630  -24.9160 C   0  0  2  0  0  0
  -51.2500   -2.0690  -25.3010 C   0  0  0  0  0  0
  -52.0290    0.2630  -25.9540 C   0  0  0  0  0  0
  -51.4470    1.5000  -25.5840 C   0  0  0  0  0  0
  -51.3600    2.5610  -26.4940 C   0  0  0  0  0  0
  -51.8640    2.3520  -27.7840 C   0  0  0  0  0  0
  -52.4400    1.1210  -28.1590 C   0  0  0  0  0  0
  -52.5420    0.0670  -27.2480 C   0  0  0  0  0  0
  -51.5816   -1.0089  -12.2297 H   0  0  0  0  0  0
  -50.7492    0.4909  -12.7631 H   0  0  0  0  0  0
  -48.6106   -0.3252  -11.7708 H   0  0  0  0  0  0
  -49.9050   -0.2945  -10.5258 H   0  0  0  0  0  0
  -51.3161   -2.8106  -10.7928 H   0  0  0  0  0  0
  -50.0771   -3.8175   -9.9696 H   0  0  0  0  0  0
  -51.2961   -2.3811   -8.3376 H   0  0  0  0  0  0
  -50.8008   -0.9149   -9.2496 H   0  0  0  0  0  0
  -49.5618   -1.9218   -8.4264 H   0  0  0  0  0  0
  -47.9390   -3.0072  -12.5911 H   0  0  0  0  0  0
  -49.2612   -4.1261  -12.1149 H   0  0  0  0  0  0
  -49.1738   -2.9499  -14.5161 H   0  0  0  0  0  0
  -50.7262   -3.2820  -13.6756 H   0  0  0  0  0  0
  -51.1021   -1.3248  -14.4176 H   0  0  0  0  0  0
  -48.9407    0.4575  -14.0087 H   0  0  0  0  0  0
  -48.2820   -1.0412  -14.7480 H   0  0  0  0  0  0
  -51.1642    1.4019  -14.9972 H   0  0  0  0  0  0
  -52.3787    1.8751  -17.1238 H   0  0  0  0  0  0
  -48.8165   -1.6034  -17.0063 H   0  0  0  0  0  0
  -50.0268   -1.1336  -19.1193 H   0  0  0  0  0  0
  -50.7399   -0.4465  -20.9833 H   0  0  0  0  0  0
  -55.4927    2.0800  -23.3615 H   0  0  0  0  0  0
  -50.7382   -0.4633  -23.2116 H   0  0  0  0  0  0
  -53.1522   -1.2348  -24.8240 H   0  0  0  0  0  0
  -51.3451   -2.8502  -24.5325 H   0  0  0  0  0  0
  -50.1988   -1.7534  -25.3749 H   0  0  0  0  0  0
  -51.5826   -2.4666  -26.2712 H   0  0  0  0  0  0
  -51.0600    1.6285  -24.5732 H   0  0  0  0  0  0
  -50.9162    3.5148  -26.2087 H   0  0  0  0  0  0
  -51.8097    3.1592  -28.5144 H   0  0  0  0  0  0
  -52.8114    0.9897  -29.1753 H   0  0  0  0  0  0
  -53.0050   -0.8781  -27.5317 H   0  0  0  0  0  0
  1  2  1  0  0  0
  1  8  1  0  0  0
  1 34  1  0  0  0
  1 35  1  0  0  0
  2  3  1  0  0  0
  2 36  1  0  0  0
  2 37  1  0  0  0
  3  4  1  0  0  0
  3  6  1  0  0  0
  4  5  1  0  0  0
  4 38  1  0  0  0
  4 39  1  0  0  0
  5 40  1  0  0  0
  5 41  1  0  0  0
  5 42  1  0  0  0
  6  7  1  0  0  0
  6 43  1  0  0  0
  6 44  1  0  0  0
  7  8  1  0  0  0
  7 45  1  0  0  0
  7 46  1  0  0  0
  8  9  1  0  0  0
  8 47  1  0  0  0
  9 10  1  0  0  0
  9 48  1  0  0  0
  9 49  1  0  0  0
 10 11  2  0  0  0
 10 13  1  0  0  0
 11 12  1  0  0  0
 11 50  1  0  0  0
 12 15  2  0  0  0
 12 51  1  0  0  0
 13 14  2  0  0  0
 13 52  1  0  0  0
 14 15  1  0  0  0
 14 53  1  0  0  0
 15 16  1  0  0  0
 16 17  2  0  0  0
 16 18  1  0  0  0
 17 20  1  0  0  0
 18 19  2  0  0  0
 18 54  1  0  0  0
 19 20  1  0  0  0
 19 24  1  0  0  0
 20 21  2  0  0  0
 21 22  1  0  0  0
 22 23  1  0  0  0
 22 55  1  0  0  0
 23 24  2  0  0  0
 24 25  1  0  0  0
 25 26  1  0  0  0
 25 56  1  0  0  0
 26 27  1  0  0  0
 26 28  1  0  0  0
 26 57  1  0  0  0
 27 58  1  0  0  0
 27 59  1  0  0  0
 27 60  1  0  0  0
 28 29  2  0  0  0
 28 33  1  0  0  0
 29 30  1  0  0  0
 29 61  1  0  0  0
 30 31  2  0  0  0
 30 62  1  0  0  0
 31 32  1  0  0  0
 31 63  1  0  0  0
 32 33  2  0  0  0
 32 64  1  0  0  0
 33 65  1  0  0  0
M  CHG  1   8   1
M  END
> <s_m_source_file>
../2itp_ligand.sdf

> <i_m_source_file_index>
1

> <s_epik_input>
W0NIM11bQ0gyXVtOQEBIK10xW0NIMl1bQ0gyXVtOQEgrXShbQ0gyXVtDSDJdMSlbQ0gyXWMyW2NIXVtjSF1jKFtjSF1bY0hdMilDKFtDSF09Myk9TkMoQzM0KT1OW0NIMl1OPUM0W05IXVtDQEhdKFtDSDNdKWM1W2NIXVtjSF1bY0hdW2NIXVtjSF01

> <s_epik_cmdline>
J2VwaWtfYXBwJywgJy1pbWFlJywgJ2xpZ2FuZF9wcm8ubWFlJywgJy1vbWFlJywgJ2xpZ2FuZF9wcmVwLm1hZScsICctbXMnLCAnMScsICctcGgnLCAnNycsICctcGh0JywgJzAuNScsICctbnQn

> <r_lp_tautomer_probability>
1

> <r_epik_Ionization_Penalty>
  0.0148

> <r_epik_Ionization_Penalty_Charging>
  0.0136

> <r_epik_Ionization_Penalty_Neutral>
  0.0011

> <r_epik_State_Penalty>
 -0.0000

> <r_epik_Charging_Adjusted_Penalty>
0.0136354947705809

> <i_epik_Tot_Q>
1

> <i_epik_Tot_abs_Q>
1

> <s_epik_Chemistry_Notes>
This compound has an imine and may undergo hydrolysis.

$$$$
