2itt_ligand
                    3D
 Schrodinger Suite 2020-3.
 65 69  0  0  1  0            999 V2000
  -50.7210   -0.7810  -12.2970 C   0  0  0  0  0  0
  -49.5810   -1.4720  -11.4860 C   0  0  0  0  0  0
  -49.4390   -2.9180  -11.8180 N   0  0  1  0  0  0
  -50.5420   -3.7350  -11.2330 C   0  0  0  0  0  0
  -50.0450   -4.4560   -9.9620 C   0  0  0  0  0  0
  -49.3030   -3.1600  -13.2780 C   0  0  0  0  0  0
  -50.5030   -2.5640  -14.0510 C   0  0  0  0  0  0
  -50.7030   -1.1070  -13.7630 N   0  3  2  0  0  0
  -49.7860   -0.2560  -14.5780 C   0  0  0  0  0  0
  -50.4280   -0.0680  -15.9830 C   0  0  0  0  0  0
  -51.5020    0.8200  -16.1410 C   0  0  0  0  0  0
  -52.0860    0.9790  -17.4070 C   0  0  0  0  0  0
  -49.9620   -0.7930  -17.1020 C   0  0  0  0  0  0
  -50.5530   -0.6360  -18.3700 C   0  0  0  0  0  0
  -51.6170    0.2770  -18.5500 C   0  0  0  0  0  0
  -52.2660    0.4580  -19.7990 C   0  0  0  0  0  0
  -53.4050    1.1720  -19.9560 N   0  0  0  0  0  0
  -51.9340   -0.0420  -21.0060 C   0  0  0  0  0  0
  -52.8520    0.3590  -21.9170 C   0  0  0  0  0  0
  -53.7830    1.1400  -21.2240 C   0  0  0  0  0  0
  -54.8340    1.6600  -21.8510 N   0  0  0  0  0  0
  -55.0140    1.4680  -23.1650 C   0  0  0  0  0  0
  -54.1620    0.7450  -23.8950 N   0  0  0  0  0  0
  -53.0560    0.1510  -23.3160 C   0  0  0  0  0  0
  -52.1840   -0.5970  -24.0670 N   0  0  0  0  0  0
  -52.5000   -1.0620  -25.4430 C   0  0  2  0  0  0
  -51.5830   -2.2000  -25.9180 C   0  0  0  0  0  0
  -52.4430    0.1080  -26.4510 C   0  0  0  0  0  0
  -51.9650    1.3760  -26.0540 C   0  0  0  0  0  0
  -51.9230    2.4620  -26.9480 C   0  0  0  0  0  0
  -52.3620    2.2610  -28.2710 C   0  0  0  0  0  0
  -52.8350    0.9930  -28.6750 C   0  0  0  0  0  0
  -52.8820   -0.0840  -27.7730 C   0  0  0  0  0  0
  -51.6970   -1.1005  -11.9028 H   0  0  0  0  0  0
  -50.6275    0.3110  -12.2035 H   0  0  0  0  0  0
  -48.6230   -0.9785  -11.7068 H   0  0  0  0  0  0
  -49.7956   -1.3914  -10.4102 H   0  0  0  0  0  0
  -51.3853   -3.0789  -10.9715 H   0  0  0  0  0  0
  -50.8738   -4.4831  -11.9680 H   0  0  0  0  0  0
  -50.8633   -5.0558   -9.5370 H   0  0  0  0  0  0
  -49.7145   -3.7109   -9.2233 H   0  0  0  0  0  0
  -49.2030   -5.1151  -10.2199 H   0  0  0  0  0  0
  -48.3784   -2.6891  -13.6431 H   0  0  0  0  0  0
  -49.2628   -4.2427  -13.4681 H   0  0  0  0  0  0
  -50.3347   -2.6760  -15.1323 H   0  0  0  0  0  0
  -51.4231   -3.0954  -13.7662 H   0  0  0  0  0  0
  -51.7182   -0.8483  -14.0983 H   0  0  0  0  0  0
  -49.6563    0.7191  -14.0856 H   0  0  0  0  0  0
  -48.8091   -0.7532  -14.6698 H   0  0  0  0  0  0
  -51.8801    1.3822  -15.2871 H   0  0  0  0  0  0
  -52.9271    1.6635  -17.5173 H   0  0  0  0  0  0
  -49.1298   -1.4866  -16.9816 H   0  0  0  0  0  0
  -50.1891   -1.2201  -19.2153 H   0  0  0  0  0  0
  -51.0906   -0.6758  -21.3174 H   0  0  0  0  0  0
  -55.8809    1.9150  -23.6515 H   0  0  0  0  0  0
  -51.2163   -0.8505  -23.6094 H   0  0  0  0  0  0
  -53.5234   -1.4563  -25.3581 H   0  0  0  0  0  0
  -51.6264   -3.0306  -25.1981 H   0  0  0  0  0  0
  -50.5491   -1.8316  -25.9909 H   0  0  0  0  0  0
  -51.9172   -2.5524  -26.9050 H   0  0  0  0  0  0
  -51.6200    1.5171  -25.0297 H   0  0  0  0  0  0
  -51.5589    3.4369  -26.6238 H   0  0  0  0  0  0
  -52.3367    3.0850  -28.9840 H   0  0  0  0  0  0
  -53.1688    0.8473  -29.7023 H   0  0  0  0  0  0
  -53.2544   -1.0566  -28.0945 H   0  0  0  0  0  0
  1  2  1  0  0  0
  1  8  1  0  0  0
  1 34  1  0  0  0
  1 35  1  0  0  0
  2  3  1  0  0  0
  2 36  1  0  0  0
  2 37  1  0  0  0
  3  4  1  0  0  0
  3  6  1  0  0  0
  4  5  1  0  0  0
  4 38  1  0  0  0
  4 39  1  0  0  0
  5 40  1  0  0  0
  5 41  1  0  0  0
  5 42  1  0  0  0
  6  7  1  0  0  0
  6 43  1  0  0  0
  6 44  1  0  0  0
  7  8  1  0  0  0
  7 45  1  0  0  0
  7 46  1  0  0  0
  8  9  1  0  0  0
  8 47  1  0  0  0
  9 10  1  0  0  0
  9 48  1  0  0  0
  9 49  1  0  0  0
 10 11  2  0  0  0
 10 13  1  0  0  0
 11 12  1  0  0  0
 11 50  1  0  0  0
 12 15  2  0  0  0
 12 51  1  0  0  0
 13 14  2  0  0  0
 13 52  1  0  0  0
 14 15  1  0  0  0
 14 53  1  0  0  0
 15 16  1  0  0  0
 16 17  2  0  0  0
 16 18  1  0  0  0
 17 20  1  0  0  0
 18 19  2  0  0  0
 18 54  1  0  0  0
 19 20  1  0  0  0
 19 24  1  0  0  0
 20 21  2  0  0  0
 21 22  1  0  0  0
 22 23  1  0  0  0
 22 55  1  0  0  0
 23 24  2  0  0  0
 24 25  1  0  0  0
 25 26  1  0  0  0
 25 56  1  0  0  0
 26 27  1  0  0  0
 26 28  1  0  0  0
 26 57  1  0  0  0
 27 58  1  0  0  0
 27 59  1  0  0  0
 27 60  1  0  0  0
 28 29  2  0  0  0
 28 33  1  0  0  0
 29 30  1  0  0  0
 29 61  1  0  0  0
 30 31  2  0  0  0
 30 62  1  0  0  0
 31 32  1  0  0  0
 31 63  1  0  0  0
 32 33  2  0  0  0
 32 64  1  0  0  0
 33 65  1  0  0  0
M  CHG  1   8   1
M  END
> <s_m_source_file>
../2itt_ligand.sdf

> <i_m_source_file_index>
1

> <s_epik_input>
W0NIM11bQ0gyXVtOQEBIK10xW0NIMl1bQ0gyXVtOQEgrXShbQ0gyXVtDSDJdMSlbQ0gyXWMyW2NIXVtjSF1jKFtjSF1bY0hdMilDKFtDSF09Myk9TkMoQzM0KT1OW0NIMl1OPUM0W05IXVtDQEhdKFtDSDNdKWM1W2NIXVtjSF1bY0hdW2NIXVtjSF01

> <s_epik_cmdline>
J2VwaWtfYXBwJywgJy1pbWFlJywgJ2xpZ2FuZF9wcm8ubWFlJywgJy1vbWFlJywgJ2xpZ2FuZF9wcmVwLm1hZScsICctbXMnLCAnMScsICctcGgnLCAnNycsICctcGh0JywgJzAuNScsICctbnQn

> <r_lp_tautomer_probability>
1

> <r_epik_Ionization_Penalty>
  0.0148

> <r_epik_Ionization_Penalty_Charging>
  0.0136

> <r_epik_Ionization_Penalty_Neutral>
  0.0011

> <r_epik_State_Penalty>
 -0.0000

> <r_epik_Charging_Adjusted_Penalty>
0.0136354947705809

> <i_epik_Tot_Q>
1

> <i_epik_Tot_abs_Q>
1

> <s_epik_Chemistry_Notes>
This compound has an imine and may undergo hydrolysis.

$$$$
