2ity_ligand
                    3D
 Schrodinger Suite 2020-3.
 55 58  0  0  1  0            999 V2000
  -45.3040   -2.9970  -16.8970 C   0  0  0  0  0  0
  -43.8270   -3.4930  -16.9960 C   0  0  0  0  0  0
  -43.2200   -3.2470  -18.3060 O   0  0  0  0  0  0
  -43.9940   -3.9060  -19.3500 C   0  0  0  0  0  0
  -45.4960   -3.4890  -19.3580 C   0  0  0  0  0  0
  -46.1610   -3.4980  -18.0110 N   0  0  0  0  0  0
  -47.4070   -2.6730  -18.0340 C   0  0  0  0  0  0
  -48.6050   -3.3750  -18.8720 C   0  0  0  0  0  0
  -49.3370   -2.1730  -19.9370 C   0  0  0  0  0  0
  -50.0110   -1.1150  -19.0520 O   0  0  0  0  0  0
  -51.0590   -0.4110  -19.6070 C   0  0  0  0  0  0
  -51.8510    0.3220  -18.7380 C   0  0  0  0  0  0
  -52.9420    1.0520  -19.2100 C   0  0  0  0  0  0
  -51.5280    0.2890  -17.4160 O   0  0  0  0  0  0
  -51.8800    1.5010  -16.6950 C   0  0  0  0  0  0
  -51.3720   -0.4090  -20.9680 C   0  0  0  0  0  0
  -52.4640    0.3240  -21.4520 C   0  0  0  0  0  0
  -53.2450    1.0570  -20.5630 C   0  0  0  0  0  0
  -54.2870    1.7660  -21.0240 N   0  0  0  0  0  0
  -54.5850    1.7670  -22.3190 C   0  0  0  0  0  0
  -53.8690    1.0820  -23.2060 N   0  0  0  0  0  0
  -52.8030    0.3520  -22.8180 C   0  0  0  0  0  0
  -52.0740   -0.3550  -23.7040 N   0  0  0  0  0  0
  -52.1840   -0.3870  -25.0470 C   0  0  0  0  0  0
  -52.1700    0.7900  -25.8000 C   0  0  0  0  0  0
  -52.2600    0.7300  -27.1910 C   0  0  0  0  0  0
  -52.2640    2.1910  -28.1230 Cl  0  0  0  0  0  0
  -52.3590   -0.4990  -27.8370 C   0  0  0  0  0  0
  -52.4480   -0.5200  -29.1770 F   0  0  0  0  0  0
  -52.3660   -1.6850  -27.0980 C   0  0  0  0  0  0
  -52.2700   -1.6270  -25.7050 C   0  0  0  0  0  0
  -45.7454   -3.3461  -15.9519 H   0  0  0  0  0  0
  -45.3244   -1.8976  -16.9272 H   0  0  0  0  0  0
  -43.2146   -2.9735  -16.2443 H   0  0  0  0  0  0
  -43.7911   -4.5770  -16.8126 H   0  0  0  0  0  0
  -43.5737   -3.6514  -20.3341 H   0  0  0  0  0  0
  -43.9529   -4.9956  -19.2045 H   0  0  0  0  0  0
  -45.5904   -2.4658  -19.7506 H   0  0  0  0  0  0
  -46.0652   -4.1806  -19.9965 H   0  0  0  0  0  0
  -47.7620   -2.5162  -17.0047 H   0  0  0  0  0  0
  -47.1939   -1.6999  -18.5006 H   0  0  0  0  0  0
  -48.1975   -4.2033  -19.4702 H   0  0  0  0  0  0
  -49.3614   -3.7640  -18.1745 H   0  0  0  0  0  0
  -48.5566   -1.7107  -20.5593 H   0  0  0  0  0  0
  -50.0808   -2.6609  -20.5841 H   0  0  0  0  0  0
  -53.5581    1.6202  -18.5131 H   0  0  0  0  0  0
  -51.5888    1.3973  -15.6393 H   0  0  0  0  0  0
  -52.9657    1.6650  -16.7615 H   0  0  0  0  0  0
  -51.3519    2.3579  -17.1385 H   0  0  0  0  0  0
  -50.7596   -0.9845  -21.6622 H   0  0  0  0  0  0
  -55.4414    2.3462  -22.6644 H   0  0  0  0  0  0
  -51.2663   -1.0130  -23.3510 H   0  0  0  0  0  0
  -52.0887    1.7554  -25.3005 H   0  0  0  0  0  0
  -52.4457   -2.6472  -27.6038 H   0  0  0  0  0  0
  -52.2617   -2.5494  -25.1243 H   0  0  0  0  0  0
  1  2  1  0  0  0
  1  6  1  0  0  0
  1 32  1  0  0  0
  1 33  1  0  0  0
  2  3  1  0  0  0
  2 34  1  0  0  0
  2 35  1  0  0  0
  3  4  1  0  0  0
  4  5  1  0  0  0
  4 36  1  0  0  0
  4 37  1  0  0  0
  5  6  1  0  0  0
  5 38  1  0  0  0
  5 39  1  0  0  0
  6  7  1  0  0  0
  7  8  1  0  0  0
  7 40  1  0  0  0
  7 41  1  0  0  0
  8  9  1  0  0  0
  8 42  1  0  0  0
  8 43  1  0  0  0
  9 10  1  0  0  0
  9 44  1  0  0  0
  9 45  1  0  0  0
 10 11  1  0  0  0
 11 12  2  0  0  0
 11 16  1  0  0  0
 12 13  1  0  0  0
 12 14  1  0  0  0
 13 18  2  0  0  0
 13 46  1  0  0  0
 14 15  1  0  0  0
 15 47  1  0  0  0
 15 48  1  0  0  0
 15 49  1  0  0  0
 16 17  2  0  0  0
 16 50  1  0  0  0
 17 18  1  0  0  0
 17 22  1  0  0  0
 18 19  1  0  0  0
 19 20  2  0  0  0
 20 21  1  0  0  0
 20 51  1  0  0  0
 21 22  2  0  0  0
 22 23  1  0  0  0
 23 24  1  0  0  0
 23 52  1  0  0  0
 24 25  2  0  0  0
 24 31  1  0  0  0
 25 26  1  0  0  0
 25 53  1  0  0  0
 26 27  1  0  0  0
 26 28  2  0  0  0
 28 29  1  0  0  0
 28 30  1  0  0  0
 30 31  2  0  0  0
 30 54  1  0  0  0
 31 55  1  0  0  0
M  END
> <s_m_source_file>
../2ity_ligand.sdf

> <i_m_source_file_index>
1

> <s_epik_input>
W0NIMl0xW0NIMl1PW0NIMl1bQ0gyXVtOSCtdMVtDSDJdW0NIMl1bQ0gyXU9jKFtjSF0yKWMoT1tDSDNdKVtjSF1jKGMyMyluW2NIXW5jM1tOSF1jNFtjSF1jKENsKWMoRilbY0hdW2NIXTQ=

> <s_epik_cmdline>
J2VwaWtfYXBwJywgJy1pbWFlJywgJ2xpZ2FuZF9wcm8ubWFlJywgJy1vbWFlJywgJ2xpZ2FuZF9wcmVwLm1hZScsICctbXMnLCAnMScsICctcGgnLCAnNycsICctcGh0JywgJzAuNScsICctbnQn

> <r_lp_tautomer_probability>
0.999978000241998

> <r_epik_Ionization_Penalty>
  0.4080

> <r_epik_Ionization_Penalty_Charging>
  0.0000

> <r_epik_Ionization_Penalty_Neutral>
  0.4080

> <r_epik_State_Penalty>
  0.4064

> <r_epik_Charging_Adjusted_Penalty>
0.406387605570154

> <i_epik_Tot_Q>
0

> <i_epik_Tot_abs_Q>
0

$$$$
