2itz_ligand
                    3D
 Schrodinger Suite 2020-3.
 55 58  0  0  1  0            999 V2000
  -47.1980   -4.1360  -17.5700 C   0  0  0  0  0  0
  -46.7890   -5.5260  -17.0320 C   0  0  0  0  0  0
  -47.0140   -6.6360  -18.0000 O   0  0  0  0  0  0
  -48.3210   -6.6560  -18.6930 C   0  0  0  0  0  0
  -48.6940   -5.2500  -19.1760 C   0  0  0  0  0  0
  -48.5890   -4.2690  -18.0560 N   0  0  0  0  0  0
  -49.0970   -2.9790  -18.5090 C   0  0  0  0  0  0
  -49.9770   -3.2790  -19.7290 C   0  0  0  0  0  0
  -50.1290   -2.0010  -20.5060 C   0  0  0  0  0  0
  -50.7680   -1.1820  -19.5140 O   0  0  0  0  0  0
  -51.7890   -0.5000  -20.0660 C   0  0  0  0  0  0
  -52.5420    0.3110  -19.2520 C   0  0  0  0  0  0
  -53.6120    1.0440  -19.8070 C   0  0  0  0  0  0
  -52.1660    0.3310  -17.9350 O   0  0  0  0  0  0
  -52.6820    1.4130  -17.0980 C   0  0  0  0  0  0
  -52.0670   -0.6040  -21.4190 C   0  0  0  0  0  0
  -53.1160    0.1170  -21.9750 C   0  0  0  0  0  0
  -53.8940    0.9450  -21.1770 C   0  0  0  0  0  0
  -54.8960    1.6160  -21.7510 N   0  0  0  0  0  0
  -55.1550    1.4940  -23.0500 C   0  0  0  0  0  0
  -54.4370    0.7190  -23.8420 N   0  0  0  0  0  0
  -53.3960    0.0080  -23.3370 C   0  0  0  0  0  0
  -52.6120   -0.8090  -24.0850 N   0  0  0  0  0  0
  -52.6790   -0.8110  -25.4190 C   0  0  0  0  0  0
  -52.7020    0.4180  -26.0960 C   0  0  0  0  0  0
  -52.7880    0.4480  -27.4880 C   0  0  0  0  0  0
  -52.8460    1.9560  -28.3460 Cl  0  0  0  0  0  0
  -52.8460   -0.7480  -28.1910 C   0  0  0  0  0  0
  -52.9230   -0.6730  -29.5270 F   0  0  0  0  0  0
  -52.8180   -1.9870  -27.5250 C   0  0  0  0  0  0
  -52.7350   -2.0260  -26.1310 C   0  0  0  0  0  0
  -47.1331   -3.3954  -16.7593 H   0  0  0  0  0  0
  -46.5213   -3.8454  -18.3871 H   0  0  0  0  0  0
  -45.7175   -5.5221  -16.7833 H   0  0  0  0  0  0
  -47.3740   -5.7565  -16.1295 H   0  0  0  0  0  0
  -48.2653   -7.3290  -19.5613 H   0  0  0  0  0  0
  -49.0976   -7.0138  -18.0009 H   0  0  0  0  0  0
  -48.0109   -4.9463  -19.9829 H   0  0  0  0  0  0
  -49.7275   -5.2538  -19.5526 H   0  0  0  0  0  0
  -49.6805   -2.5110  -17.7024 H   0  0  0  0  0  0
  -48.2532   -2.3263  -18.7773 H   0  0  0  0  0  0
  -49.4944   -4.0491  -20.3487 H   0  0  0  0  0  0
  -50.9593   -3.6418  -19.3923 H   0  0  0  0  0  0
  -49.1370   -1.6389  -20.8138 H   0  0  0  0  0  0
  -50.7451   -2.1855  -21.3984 H   0  0  0  0  0  0
  -54.2196    1.6874  -19.1707 H   0  0  0  0  0  0
  -52.2980    1.2990  -16.0735 H   0  0  0  0  0  0
  -53.7812    1.3735  -17.0842 H   0  0  0  0  0  0
  -52.3550    2.3805  -17.5066 H   0  0  0  0  0  0
  -51.4604   -1.2540  -22.0496 H   0  0  0  0  0  0
  -55.9886    2.0530  -23.4752 H   0  0  0  0  0  0
  -51.9010   -1.4898  -23.5941 H   0  0  0  0  0  0
  -52.6526    1.3503  -25.5335 H   0  0  0  0  0  0
  -52.8610   -2.9147  -28.0956 H   0  0  0  0  0  0
  -52.7139   -2.9795  -25.6032 H   0  0  0  0  0  0
  1  2  1  0  0  0
  1  6  1  0  0  0
  1 32  1  0  0  0
  1 33  1  0  0  0
  2  3  1  0  0  0
  2 34  1  0  0  0
  2 35  1  0  0  0
  3  4  1  0  0  0
  4  5  1  0  0  0
  4 36  1  0  0  0
  4 37  1  0  0  0
  5  6  1  0  0  0
  5 38  1  0  0  0
  5 39  1  0  0  0
  6  7  1  0  0  0
  7  8  1  0  0  0
  7 40  1  0  0  0
  7 41  1  0  0  0
  8  9  1  0  0  0
  8 42  1  0  0  0
  8 43  1  0  0  0
  9 10  1  0  0  0
  9 44  1  0  0  0
  9 45  1  0  0  0
 10 11  1  0  0  0
 11 12  2  0  0  0
 11 16  1  0  0  0
 12 13  1  0  0  0
 12 14  1  0  0  0
 13 18  2  0  0  0
 13 46  1  0  0  0
 14 15  1  0  0  0
 15 47  1  0  0  0
 15 48  1  0  0  0
 15 49  1  0  0  0
 16 17  2  0  0  0
 16 50  1  0  0  0
 17 18  1  0  0  0
 17 22  1  0  0  0
 18 19  1  0  0  0
 19 20  2  0  0  0
 20 21  1  0  0  0
 20 51  1  0  0  0
 21 22  2  0  0  0
 22 23  1  0  0  0
 23 24  1  0  0  0
 23 52  1  0  0  0
 24 25  2  0  0  0
 24 31  1  0  0  0
 25 26  1  0  0  0
 25 53  1  0  0  0
 26 27  1  0  0  0
 26 28  2  0  0  0
 28 29  1  0  0  0
 28 30  1  0  0  0
 30 31  2  0  0  0
 30 54  1  0  0  0
 31 55  1  0  0  0
M  END
> <s_m_source_file>
../2itz_ligand.sdf

> <i_m_source_file_index>
1

> <s_epik_input>
W0NIMl0xW0NIMl1PW0NIMl1bQ0gyXVtOSCtdMVtDSDJdW0NIMl1bQ0gyXU9jKFtjSF0yKWMoT1tDSDNdKVtjSF1jKGMyMyluW2NIXW5jM1tOSF1jNFtjSF1jKENsKWMoRilbY0hdW2NIXTQ=

> <s_epik_cmdline>
J2VwaWtfYXBwJywgJy1pbWFlJywgJ2xpZ2FuZF9wcm8ubWFlJywgJy1vbWFlJywgJ2xpZ2FuZF9wcmVwLm1hZScsICctbXMnLCAnMScsICctcGgnLCAnNycsICctcGh0JywgJzAuNScsICctbnQn

> <r_lp_tautomer_probability>
0.999978000241998

> <r_epik_Ionization_Penalty>
  0.4080

> <r_epik_Ionization_Penalty_Charging>
  0.0000

> <r_epik_Ionization_Penalty_Neutral>
  0.4080

> <r_epik_State_Penalty>
  0.4064

> <r_epik_Charging_Adjusted_Penalty>
0.406387605570154

> <i_epik_Tot_Q>
0

> <i_epik_Tot_abs_Q>
0

$$$$
