2iv9_ligand
                    3D
 Schrodinger Suite 2020-3.
122124  0  0  1  0            999 V2000
  -21.2660    1.6620    0.8460 N   0  3  0  0  0  0
  -19.8780    2.0000    1.2750 C   0  0  2  0  0  0
  -18.9060    2.0620    0.0840 C   0  0  0  0  0  0
  -19.1850    1.5090   -0.9970 O   0  0  0  0  0  0
  -19.3880    0.9740    2.3130 C   0  0  0  0  0  0
  -19.2700   -0.3240    1.7500 O   0  0  0  0  0  0
  -17.7720    2.7310    0.2880 N   0  0  0  0  0  0
  -16.6650    2.6940   -0.6740 C   0  0  2  0  0  0
  -15.3020    2.5420    0.0070 C   0  0  0  0  0  0
  -14.8890    3.3970    0.7970 O   0  0  0  0  0  0
  -16.6500    3.9200   -1.5940 C   0  0  0  0  0  0
  -15.6930    3.7640   -2.7510 C   0  0  0  0  0  0
  -16.1420    3.2650   -3.9840 C   0  0  0  0  0  0
  -14.3340    4.0680   -2.5920 C   0  0  0  0  0  0
  -15.2450    3.0860   -5.0590 C   0  0  0  0  0  0
  -13.4180    3.8900   -3.6630 C   0  0  0  0  0  0
  -13.8740    3.4060   -4.8870 C   0  0  0  0  0  0
  -14.6150    1.4480   -0.3230 N   0  0  0  0  0  0
  -13.3740    1.0630    0.3220 C   0  0  0  0  0  0
  -13.4490   -0.0790    1.3270 C   0  0  0  0  0  0
  -12.4460   -0.4020    1.9580 O   0  0  0  0  0  0
  -14.6330   -0.6840    1.4850 N   0  0  0  0  0  0
  -14.8630   -1.7300    2.5030 C   0  0  2  0  0  0
  -14.9290   -3.1180    1.8480 C   0  0  0  0  0  0
  -15.5670   -4.0560    2.3580 O   0  0  0  0  0  0
  -16.1530   -1.4190    3.3000 C   0  0  0  0  0  0
  -16.1390   -1.9660    4.7350 C   0  0  0  0  0  0
  -15.0590   -2.2830    5.2770 O   0  0  0  0  0  0
  -17.2440   -2.0730    5.3320 O   0  5  0  0  0  0
  -14.2590   -3.2500    0.7120 N   0  0  0  0  0  0
  -14.0310   -4.5570    0.0890 C   0  0  0  0  0  0
  -15.3190   -5.1860   -0.4140 C   0  0  0  0  0  0
  -16.1510   -4.5110   -1.0510 O   0  0  0  0  0  0
  -15.4800   -6.4750   -0.1140 N   0  0  0  0  0  0
  -16.6880   -7.2300   -0.4520 C   0  0  2  0  0  0
  -17.9710   -6.5610    0.0500 C   0  0  0  0  0  0
  -19.0220   -6.7270   -0.5340 O   0  0  0  0  0  0
  -16.5940   -8.6700    0.0880 C   0  0  0  0  0  0
  -15.5400   -9.5370   -0.6010 C   0  0  0  0  0  0
  -14.5080  -10.1020    0.1300 C   0  0  0  0  0  0
  -15.6060   -9.8080   -1.9700 C   0  0  0  0  0  0
  -13.5440  -10.9070   -0.4860 C   0  0  0  0  0  0
  -14.6530  -10.6100   -2.5980 C   0  0  0  0  0  0
  -13.6190  -11.1630   -1.8550 C   0  0  0  0  0  0
  -17.8840   -5.7960    1.1290 N   0  0  0  0  0  0
  -19.0490   -5.1250    1.6960 C   0  0  2  0  0  0
  -19.5350   -3.9310    0.8490 C   0  0  0  0  0  0
  -20.6450   -3.4300    1.0490 O   0  0  0  0  0  0
  -18.7680   -4.7100    3.1280 C   0  0  0  0  0  0
  -18.7100   -3.4860   -0.1020 N   0  0  0  0  0  0
  -19.1100   -2.4630   -1.0700 C   0  0  2  0  0  0
  -20.1780   -2.9590   -2.0520 C   0  0  0  0  0  0
  -20.8670   -2.1530   -2.6730 O   0  0  0  0  0  0
  -17.9020   -2.0140   -1.9130 C   0  0  0  0  0  0
  -16.9210   -1.1310   -1.1470 C   0  0  0  0  0  0
  -17.1020   -0.8960    0.0650 O   0  0  0  0  0  0
  -15.9440   -0.6640   -1.7770 O   0  5  0  0  0  0
  -20.2780   -4.2730   -2.2210 N   0  0  0  0  0  0
  -21.0880   -4.8770   -3.2900 C   0  0  2  0  0  0
  -22.2430   -5.7490   -2.7760 C   0  0  0  0  0  0
  -22.0660   -6.5300   -1.8370 O   0  0  0  0  0  0
  -20.1990   -5.7070   -4.2230 C   0  0  0  0  0  0
  -19.2740   -4.8830   -5.0710 C   0  0  0  0  0  0
  -18.0080   -4.5310   -4.5960 C   0  0  0  0  0  0
  -19.6750   -4.4420   -6.3320 C   0  0  0  0  0  0
  -17.1370   -3.7440   -5.3900 C   0  0  0  0  0  0
  -18.8360   -3.6590   -7.1230 C   0  0  0  0  0  0
  -17.5620   -3.3020   -6.6440 C   0  0  0  0  0  0
  -23.4413   -5.6619   -3.3463 O   0  5  0  0  0  0
  -21.9241    1.6287    1.7268 H   0  0  0  0  0  0
  -21.2676    0.6803    0.3498 H   0  0  0  0  0  0
  -21.6298    2.4277    0.1451 H   0  0  0  0  0  0
  -19.9350    3.0029    1.7233 H   0  0  0  0  0  0
  -18.4015    1.2787    2.6923 H   0  0  0  0  0  0
  -20.1030    0.9266    3.1475 H   0  0  0  0  0  0
  -18.9295   -1.1646    2.3724 H   0  0  0  0  0  0
  -17.6797    3.3236    1.2101 H   0  0  0  0  0  0
  -16.8853    1.7907   -1.2618 H   0  0  0  0  0  0
  -17.6567    4.0808   -2.0071 H   0  0  0  0  0  0
  -16.3438    4.8063   -1.0189 H   0  0  0  0  0  0
  -17.1947    3.0131   -4.1126 H   0  0  0  0  0  0
  -13.9755    4.4458   -1.6345 H   0  0  0  0  0  0
  -15.6036    2.7044   -6.0150 H   0  0  0  0  0  0
  -12.3636    4.1309   -3.5277 H   0  0  0  0  0  0
  -13.1762    3.2730   -5.7137 H   0  0  0  0  0  0
  -15.0331    0.8250   -1.1274 H   0  0  0  0  0  0
  -12.6489    0.7419   -0.4403 H   0  0  0  0  0  0
  -12.9672    1.9215    0.8764 H   0  0  0  0  0  0
  -15.4525   -0.3743    0.8198 H   0  0  0  0  0  0
  -13.9950   -1.7061    3.1783 H   0  0  0  0  0  0
  -16.2894   -0.3295    3.3662 H   0  0  0  0  0  0
  -17.0175   -1.8663    2.7875 H   0  0  0  0  0  0
  -13.8690   -2.3383    0.2359 H   0  0  0  0  0  0
  -13.3504   -4.4412   -0.7674 H   0  0  0  0  0  0
  -13.5818   -5.2405    0.8246 H   0  0  0  0  0  0
  -14.6509   -6.9706    0.4123 H   0  0  0  0  0  0
  -16.7031   -7.2172   -1.5518 H   0  0  0  0  0  0
  -16.3383   -8.6445    1.1576 H   0  0  0  0  0  0
  -17.5617   -9.1756   -0.0457 H   0  0  0  0  0  0
  -14.4461   -9.9164    1.2023 H   0  0  0  0  0  0
  -16.4189   -9.3840   -2.5595 H   0  0  0  0  0  0
  -12.7336  -11.3345    0.1044 H   0  0  0  0  0  0
  -14.7200  -10.8019   -3.6689 H   0  0  0  0  0  0
  -12.8714  -11.7925   -2.3378 H   0  0  0  0  0  0
  -16.8966   -5.6742    1.5983 H   0  0  0  0  0  0
  -19.8357   -5.8937    1.6812 H   0  0  0  0  0  0
  -18.4244   -5.5831    3.7021 H   0  0  0  0  0  0
  -19.6876   -4.3118    3.5815 H   0  0  0  0  0  0
  -17.9882   -3.9342    3.1386 H   0  0  0  0  0  0
  -17.6983   -3.9160   -0.1426 H   0  0  0  0  0  0
  -19.5131   -1.6642   -0.4302 H   0  0  0  0  0  0
  -17.3478   -2.8986   -2.2598 H   0  0  0  0  0  0
  -18.2546   -1.4385   -2.7816 H   0  0  0  0  0  0
  -19.7238   -4.9156   -1.5211 H   0  0  0  0  0  0
  -21.5194   -4.0063   -3.8055 H   0  0  0  0  0  0
  -19.5745   -6.3872   -3.6252 H   0  0  0  0  0  0
  -20.8311   -6.2941   -4.9054 H   0  0  0  0  0  0
  -17.6883   -4.8638   -3.6085 H   0  0  0  0  0  0
  -20.6621   -4.7145   -6.7055 H   0  0  0  0  0  0
  -16.1431   -3.4859   -5.0244 H   0  0  0  0  0  0
  -19.1649   -3.3251   -8.1071 H   0  0  0  0  0  0
  -16.9062   -2.6796   -7.2528 H   0  0  0  0  0  0
  1  2  1  0  0  0
  1 70  1  0  0  0
  1 71  1  0  0  0
  1 72  1  0  0  0
  2  5  1  0  0  0
  2  3  1  0  0  0
  2 73  1  0  0  0
  3  4  2  0  0  0
  3  7  1  0  0  0
  5  6  1  0  0  0
  5 74  1  0  0  0
  5 75  1  0  0  0
  6 76  1  0  0  0
  7  8  1  0  0  0
  7 77  1  0  0  0
  8 11  1  0  0  0
  8  9  1  0  0  0
  8 78  1  0  0  0
  9 10  2  0  0  0
  9 18  1  0  0  0
 11 12  1  0  0  0
 11 79  1  0  0  0
 11 80  1  0  0  0
 12 13  2  0  0  0
 12 14  1  0  0  0
 13 15  1  0  0  0
 13 81  1  0  0  0
 14 16  2  0  0  0
 14 82  1  0  0  0
 15 17  2  0  0  0
 15 83  1  0  0  0
 16 17  1  0  0  0
 16 84  1  0  0  0
 17 85  1  0  0  0
 18 19  1  0  0  0
 18 86  1  0  0  0
 19 20  1  0  0  0
 19 87  1  0  0  0
 19 88  1  0  0  0
 20 21  2  0  0  0
 20 22  1  0  0  0
 22 23  1  0  0  0
 22 89  1  0  0  0
 23 26  1  0  0  0
 23 24  1  0  0  0
 23 90  1  0  0  0
 24 25  2  0  0  0
 24 30  1  0  0  0
 26 27  1  0  0  0
 26 91  1  0  0  0
 26 92  1  0  0  0
 27 28  2  0  0  0
 27 29  1  0  0  0
 30 31  1  0  0  0
 30 93  1  0  0  0
 31 32  1  0  0  0
 31 94  1  0  0  0
 31 95  1  0  0  0
 32 33  2  0  0  0
 32 34  1  0  0  0
 34 35  1  0  0  0
 34 96  1  0  0  0
 35 38  1  0  0  0
 35 36  1  0  0  0
 35 97  1  0  0  0
 36 37  2  0  0  0
 36 45  1  0  0  0
 38 39  1  0  0  0
 38 98  1  0  0  0
 38 99  1  0  0  0
 39 40  2  0  0  0
 39 41  1  0  0  0
 40 42  1  0  0  0
 40100  1  0  0  0
 41 43  2  0  0  0
 41101  1  0  0  0
 42 44  2  0  0  0
 42102  1  0  0  0
 43 44  1  0  0  0
 43103  1  0  0  0
 44104  1  0  0  0
 45 46  1  0  0  0
 45105  1  0  0  0
 46 49  1  0  0  0
 46 47  1  0  0  0
 46106  1  0  0  0
 47 48  2  0  0  0
 47 50  1  0  0  0
 49107  1  0  0  0
 49108  1  0  0  0
 49109  1  0  0  0
 50 51  1  0  0  0
 50110  1  0  0  0
 51 54  1  0  0  0
 51 52  1  0  0  0
 51111  1  0  0  0
 52 53  2  0  0  0
 52 58  1  0  0  0
 54 55  1  0  0  0
 54112  1  0  0  0
 54113  1  0  0  0
 55 56  2  0  0  0
 55 57  1  0  0  0
 58 59  1  0  0  0
 58114  1  0  0  0
 59 62  1  0  0  0
 59 60  1  0  0  0
 59115  1  0  0  0
 60 61  2  0  0  0
 60 69  1  0  0  0
 62 63  1  0  0  0
 62116  1  0  0  0
 62117  1  0  0  0
 63 64  2  0  0  0
 63 65  1  0  0  0
 64 66  1  0  0  0
 64118  1  0  0  0
 65 67  2  0  0  0
 65119  1  0  0  0
 66 68  2  0  0  0
 66120  1  0  0  0
 67 68  1  0  0  0
 67121  1  0  0  0
 68122  1  0  0  0
M  CHG  4   1   1  29  -1  57  -1  69  -1
M  END
> <s_m_source_file>
../2iv9_ligand.sdf

> <i_m_source_file_index>
1

> <s_epik_input>
W2NIXTFbY0hdW2NIXVtjSF1bY0hdYzFbQ0gyXVtDQEhdKFtOSF1DKD1PKVtDQEBIXShbTkgzK10pW0NIMl1bT0hdKUMoPU8pW05IXVtDSDJdQyg9TylbTkhdW0NAQEhdKFtDSDJdQyg9TylbT0hdKUMoPU8pW05IXVtDSDJdQyg9TylbTkhdW0NAQEhdKFtDSDJdYzJbY0hdW2NIXVtjSF1bY0hdW2NIXTIpQyg9TylbTkhdW0NAQEhdKFtDSDNdKUMoPU8pW05IXVtDQEBIXShbQ0gyXUMoPU8pW09IXSlDKD1PKVtOSF1bQ0BIXShDKD1PKVtPSF0pW0NIMl1jM1tjSF1bY0hdW2NIXVtjSF1bY0hdMw==

> <s_epik_cmdline>
J2VwaWtfYXBwJywgJy1pbWFlJywgJ2xpZ2FuZF9wcm8ubWFlJywgJy1vbWFlJywgJ2xpZ2FuZF9wcmVwLm1hZScsICctbXMnLCAnMScsICctcGgnLCAnNycsICctcGh0JywgJzAuNScsICctbnQn

> <r_epik_Ionization_Penalty>
  0.1604

> <r_epik_Ionization_Penalty_Charging>
  0.1604

> <r_epik_Ionization_Penalty_Neutral>
  0.0000

> <r_epik_State_Penalty>
  0.1466

> <r_epik_Charging_Adjusted_Penalty>
0.306962491705692

> <i_epik_Tot_Q>
-2

> <i_epik_Tot_abs_Q>
4

$$$$
