2ivu_ligand
                    3D
 Schrodinger Suite 2020-3.
 55 58  0  0  1  0            999 V2000
  -24.6920   15.9600  -13.5540 C   0  0  0  0  0  0
  -25.6660   17.1090  -13.8300 C   0  0  0  0  0  0
  -26.2060   17.7350  -12.5960 N   0  3  1  0  0  0
  -27.4810   18.3480  -13.0230 C   0  0  0  0  0  0
  -26.5500   16.8150  -11.4660 C   0  0  0  0  0  0
  -25.5480   15.6720  -11.2810 C   0  0  0  0  0  0
  -25.3120   14.9490  -12.6080 C   0  0  2  0  0  0
  -24.3880   13.7520  -12.4290 C   0  0  0  0  0  0
  -25.2470   12.7670  -11.8870 O   0  0  0  0  0  0
  -24.7220   11.5280  -11.6550 C   0  0  0  0  0  0
  -23.5000   11.1130  -12.1550 C   0  0  0  0  0  0
  -25.4840   10.6690  -10.8840 C   0  0  0  0  0  0
  -26.6940   11.1710  -10.4290 O   0  0  0  0  0  0
  -27.4580   10.4010   -9.4730 C   0  0  0  0  0  0
  -25.0120    9.3770  -10.6250 C   0  0  0  0  0  0
  -23.7800    8.9600  -11.1360 C   0  0  0  0  0  0
  -23.0230    9.8400  -11.8940 C   0  0  0  0  0  0
  -21.8330    9.4340  -12.4010 N   0  0  0  0  0  0
  -21.3730    8.2090  -12.1660 C   0  0  0  0  0  0
  -22.0550    7.3510  -11.4160 N   0  0  0  0  0  0
  -23.2520    7.6690  -10.8930 C   0  0  0  0  0  0
  -23.9680    6.7080  -10.1040 N   0  0  0  0  0  0
  -23.3730    5.4880   -9.7110 C   0  0  0  0  0  0
  -23.9320    4.2780  -10.0880 C   0  0  0  0  0  0
  -23.3430    3.0920   -9.6630 C   0  0  0  0  0  0
  -22.1950    3.1520   -8.8700 C   0  0  0  0  0  0
  -21.2330    1.6390   -8.2120 Br  0  0  0  0  0  0
  -21.6590    4.3550   -8.5000 C   0  0  0  0  0  0
  -22.2380    5.5040   -8.9150 C   0  0  0  0  0  0
  -21.6440    6.6220   -8.4900 F   0  0  0  0  0  0
  -24.4419   15.4563  -14.4994 H   0  0  0  0  0  0
  -23.7743   16.3589  -13.0972 H   0  0  0  0  0  0
  -25.1521   17.8960  -14.4015 H   0  0  0  0  0  0
  -26.5213   16.7332  -14.4108 H   0  0  0  0  0  0
  -25.4262   18.4093  -12.2122 H   0  0  0  0  0  0
  -27.2938   19.0399  -13.8574 H   0  0  0  0  0  0
  -27.9225   18.9005  -12.1805 H   0  0  0  0  0  0
  -28.1757   17.5599  -13.3490 H   0  0  0  0  0  0
  -26.5771   17.3841  -10.5251 H   0  0  0  0  0  0
  -27.5356   16.3620  -11.6490 H   0  0  0  0  0  0
  -24.5917   16.0777  -10.9194 H   0  0  0  0  0  0
  -25.9425   14.9537  -10.5472 H   0  0  0  0  0  0
  -26.2581   14.5606  -13.0130 H   0  0  0  0  0  0
  -23.9723   13.4606  -13.4048 H   0  0  0  0  0  0
  -23.5681   14.0205  -11.7466 H   0  0  0  0  0  0
  -22.9061   11.7967  -12.7615 H   0  0  0  0  0  0
  -28.3825   10.9416   -9.2219 H   0  0  0  0  0  0
  -26.8610   10.2523   -8.5611 H   0  0  0  0  0  0
  -27.7117    9.4233   -9.9087 H   0  0  0  0  0  0
  -25.6084    8.6926  -10.0217 H   0  0  0  0  0  0
  -20.4193    7.9035  -12.5964 H   0  0  0  0  0  0
  -25.0026    6.9137   -9.7922 H   0  0  0  0  0  0
  -24.8254    4.2556  -10.7121 H   0  0  0  0  0  0
  -23.7710    2.1299   -9.9446 H   0  0  0  0  0  0
  -20.7681    4.3870   -7.8727 H   0  0  0  0  0  0
  1  2  1  0  0  0
  1  7  1  0  0  0
  1 31  1  0  0  0
  1 32  1  0  0  0
  2  3  1  0  0  0
  2 33  1  0  0  0
  2 34  1  0  0  0
  3  4  1  0  0  0
  3  5  1  0  0  0
  3 35  1  0  0  0
  4 36  1  0  0  0
  4 37  1  0  0  0
  4 38  1  0  0  0
  5  6  1  0  0  0
  5 39  1  0  0  0
  5 40  1  0  0  0
  6  7  1  0  0  0
  6 41  1  0  0  0
  6 42  1  0  0  0
  7  8  1  0  0  0
  7 43  1  0  0  0
  8  9  1  0  0  0
  8 44  1  0  0  0
  8 45  1  0  0  0
  9 10  1  0  0  0
 10 11  2  0  0  0
 10 12  1  0  0  0
 11 17  1  0  0  0
 11 46  1  0  0  0
 12 13  1  0  0  0
 12 15  2  0  0  0
 13 14  1  0  0  0
 14 47  1  0  0  0
 14 48  1  0  0  0
 14 49  1  0  0  0
 15 16  1  0  0  0
 15 50  1  0  0  0
 16 17  2  0  0  0
 16 21  1  0  0  0
 17 18  1  0  0  0
 18 19  2  0  0  0
 19 20  1  0  0  0
 19 51  1  0  0  0
 20 21  2  0  0  0
 21 22  1  0  0  0
 22 23  1  0  0  0
 22 52  1  0  0  0
 23 24  2  0  0  0
 23 29  1  0  0  0
 24 25  1  0  0  0
 24 53  1  0  0  0
 25 26  2  0  0  0
 25 54  1  0  0  0
 26 27  1  0  0  0
 26 28  1  0  0  0
 28 29  2  0  0  0
 28 55  1  0  0  0
 29 30  1  0  0  0
M  CHG  1   3   1
M  END
> <s_m_source_file>
../2ivu_ligand.sdf

> <i_m_source_file_index>
1

> <s_epik_input>
W0NIM11bTkBASCtdMVtDSDJdW0NIMl1bQ0BIXShbQ0gyXVtDSDJdMSlbQ0gyXU9jKGMoW2NIXTIpT1tDSDNdKVtjSF1jKGMyMyluW2NIXW5jM1tOSF1jNFtjSF1bY0hdYyhCcilbY0hdYzRG

> <s_epik_cmdline>
J2VwaWtfYXBwJywgJy1pbWFlJywgJ2xpZ2FuZF9wcm8ubWFlJywgJy1vbWFlJywgJ2xpZ2FuZF9wcmVwLm1hZScsICctbXMnLCAnMScsICctcGgnLCAnNycsICctcGh0JywgJzAuNScsICctbnQn

> <r_lp_tautomer_probability>
1

> <r_epik_Ionization_Penalty>
  0.0038

> <r_epik_Ionization_Penalty_Charging>
  0.0015

> <r_epik_Ionization_Penalty_Neutral>
  0.0022

> <r_epik_State_Penalty>
 -0.0000

> <r_epik_Charging_Adjusted_Penalty>
0.00154336194626557

> <i_epik_Tot_Q>
1

> <i_epik_Tot_abs_Q>
1

$$$$
