2ivz_ligand
                    3D
 Schrodinger Suite 2020-3.
196200  0  0  1  0            999 V2000
   13.4990   22.2120   50.4460 N   0  3  0  0  0  0
   12.0440   21.9660   50.7160 C   0  0  0  0  0  0
   11.7860   20.8410   51.7050 C   0  0  0  0  0  0
   11.4620   21.0990   52.8690 O   0  0  0  0  0  0
   11.9230   19.5990   51.2340 N   0  0  0  0  0  0
   11.6960   18.3920   52.0380 C   0  0  2  0  0  0
   12.5290   18.4090   53.3280 C   0  0  0  0  0  0
   13.7630   18.4120   53.2850 O   0  0  0  0  0  0
   11.9760   17.1480   51.2120 C   0  0  0  0  0  0
   11.8360   18.4270   54.4670 N   0  0  0  0  0  0
   12.4900   18.5610   55.7690 C   0  0  2  0  0  0
   11.6700   17.9700   56.9180 C   0  0  0  0  0  0
   10.4320   18.0110   56.9010 O   0  0  0  0  0  0
   12.7080   20.0540   56.0560 C   0  0  0  0  0  0
   13.0890   20.2910   57.4050 O   0  0  0  0  0  0
   12.3680   17.4520   57.9240 N   0  0  0  0  0  0
   11.6970   16.9540   59.1140 C   0  0  2  0  0  0
   11.3530   18.0420   60.1260 C   0  0  0  0  0  0
   10.7120   17.7560   61.1340 O   0  0  0  0  0  0
   12.4640   15.7870   59.7600 C   0  0  0  0  0  0
   13.7150   16.2020   60.4950 C   0  0  0  0  0  0
   14.1260   17.3970   60.4770 O   0  0  0  0  0  0
   14.2920   15.2810   61.1190 O   0  0  0  0  0  0
   11.7840   19.2760   59.8470 N   0  0  0  0  0  0
   11.5280   20.4420   60.6930 C   0  0  0  0  0  0
   12.1630   20.4050   62.0750 C   0  0  0  0  0  0
   11.7200   21.1050   62.9950 O   0  0  0  0  0  0
   13.1970   19.5850   62.2380 N   0  0  0  0  0  0
   13.8750   19.4940   63.5180 C   0  0  2  0  0  0
   14.7820   20.7090   63.7140 C   0  0  0  0  0  0
   14.9850   21.1510   64.8310 O   0  0  0  0  0  0
   14.7040   18.2010   63.6140 C   0  0  0  0  0  0
   15.5900   18.0990   62.5220 O   0  0  0  0  0  0
   15.3030   21.2330   62.6140 N   0  0  0  0  0  0
   16.2740   22.3130   62.6510 C   0  0  0  0  0  0
   17.6920   21.7700   62.8100 C   0  0  0  0  0  0
   18.6320   22.5460   62.8160 O   0  0  0  0  0  0
   17.8720   20.4500   62.9570 N   0  0  0  0  0  0
   19.2430   19.9220   63.1790 C   0  0  2  0  0  0
   19.5930   18.5320   62.6750 C   0  0  0  0  0  0
   20.7640   18.2140   62.5700 O   0  0  0  0  0  0
   19.6020   19.9340   64.6730 C   0  0  0  0  0  0
   18.5780   19.2810   65.5300 C   0  0  0  0  0  0
   17.6060   19.9160   66.2550 C   0  0  0  0  0  0
   18.4120   17.8690   65.7770 C   0  0  0  0  0  0
   16.8430   18.9860   66.9280 N   0  0  0  0  0  0
   17.3100   17.7270   66.6550 C   0  0  0  0  0  0
   19.0770   16.7120   65.3300 C   0  0  0  0  0  0
   16.8560   16.4760   67.1060 C   0  0  0  0  0  0
   18.6080   15.4500   65.7780 C   0  0  0  0  0  0
   17.5230   15.3590   66.6730 C   0  0  0  0  0  0
   18.5950   17.6940   62.4130 N   0  0  0  0  0  0
   18.8660   16.2940   62.0800 C   0  0  2  0  0  0
   19.3510   16.1320   60.6620 C   0  0  0  0  0  0
   19.3440   17.0830   59.8610 O   0  0  0  0  0  0
   17.5960   15.4530   62.2470 C   0  0  0  0  0  0
   16.7450   15.6490   61.1200 O   0  0  0  0  0  0
   19.6990   14.8910   60.3260 N   0  0  0  0  0  0
   20.1440   14.5650   58.9770 C   0  0  2  0  0  0
   19.0120   14.7010   57.9460 C   0  0  0  0  0  0
   19.2660   14.7060   56.7490 O   0  0  0  0  0  0
   20.7010   13.1420   58.9620 C   0  0  0  0  0  0
   19.6990   12.2120   59.3750 O   0  0  0  0  0  0
   17.7680   14.8050   58.4180 N   0  0  0  0  0  0
   16.6060   14.9280   57.5480 C   0  0  2  0  0  0
   16.0470   16.3570   57.5770 C   0  0  0  0  0  0
   14.9580   16.6190   57.0650 O   0  0  0  0  0  0
   15.5390   13.9000   57.9440 C   0  0  0  0  0  0
   15.9730   12.4210   57.6570 C   0  0  0  0  0  0
   14.8490   11.4270   57.8640 C   0  0  0  0  0  0
   13.8510   11.7830   58.5330 O   0  0  0  0  0  0
   14.9680   10.2840   57.3710 O   0  0  0  0  0  0
   16.8000   17.2790   58.1710 N   0  0  0  0  0  0
   16.4160   18.6860   58.1820 C   0  0  2  0  0  0
   16.9150   19.2890   56.8720 C   0  0  0  0  0  0
   18.1210   19.4410   56.6620 O   0  0  0  0  0  0
   17.0380   19.4250   59.3720 C   0  0  0  0  0  0
   16.4670   20.8260   59.5260 C   0  0  0  0  0  0
   15.2880   20.9870   59.8700 O   0  0  0  0  0  0
   17.2780   21.8350   59.2210 N   0  0  0  0  0  0
   16.0180   19.6070   55.9650 N   0  0  0  0  0  0
   16.4660   20.1200   54.6480 C   0  0  2  0  0  0
   17.8260   19.5250   54.1330 C   0  0  0  0  0  0
   18.7940   20.2640   53.9250 O   0  0  0  0  0  0
   16.5400   21.6620   54.6980 C   0  0  0  0  0  0
   16.4400   22.3050   53.3160 C   0  0  0  0  0  0
   15.9420   21.7000   52.3620 O   0  0  0  0  0  0
   16.8750   23.5580   53.2180 N   0  0  0  0  0  0
   17.9130   18.1850   53.9230 N   0  0  0  0  0  0
   19.2000   17.6850   53.4340 C   0  0  2  0  0  0
   19.5390   18.0720   51.9840 C   0  0  0  0  0  0
   20.7090   18.1530   51.6330 O   0  0  0  0  0  0
   19.0350   16.1710   53.5110 C   0  0  0  0  0  0
   17.5980   15.9490   53.3700 C   0  0  0  0  0  0
   16.9470   17.0860   54.1020 C   0  0  0  0  0  0
   18.5310   18.3240   51.1640 N   0  0  0  0  0  0
   18.7750   18.5860   49.7580 C   0  0  2  0  0  0
   18.6960   20.0710   49.3770 C   0  0  0  0  0  0
   17.6170   20.6760   49.4390 O   0  0  0  0  0  0
   17.8210   17.7510   48.9040 C   0  0  0  0  0  0
   17.9870   16.2680   49.0670 C   0  0  0  0  0  0
   17.1180   15.4050   49.6800 C   0  0  0  0  0  0
   19.0890   15.4680   48.6010 C   0  0  0  0  0  0
   17.6110   14.1150   49.6220 N   0  0  0  0  0  0
   18.8210   14.1330   48.9660 C   0  0  0  0  0  0
   20.2840   15.7580   47.9210 C   0  0  0  0  0  0
   19.6930   13.0750   48.6500 C   0  0  0  0  0  0
   21.1630   14.6990   47.6080 C   0  0  0  0  0  0
   20.8570   13.3780   47.9840 C   0  0  0  0  0  0
   19.7916   20.7111   48.9784 O   0  0  0  0  0  0
   13.6039   23.0360   49.7249 H   0  0  0  0  0  0
   13.9540   21.3008   50.0304 H   0  0  0  0  0  0
   14.0060   22.4796   51.3848 H   0  0  0  0  0  0
   11.5891   22.8772   51.1316 H   0  0  0  0  0  0
   11.5370   21.6984   49.7772 H   0  0  0  0  0  0
   12.2241   19.5091   50.1798 H   0  0  0  0  0  0
   10.6299   18.4079   52.3085 H   0  0  0  0  0  0
   11.3640   17.1692   50.2982 H   0  0  0  0  0  0
   11.7254   16.2531   51.8005 H   0  0  0  0  0  0
   13.0413   17.1211   50.9393 H   0  0  0  0  0  0
   10.7412   18.3374   54.4080 H   0  0  0  0  0  0
   13.4246   17.9895   55.6693 H   0  0  0  0  0  0
   13.5044   20.4404   55.4029 H   0  0  0  0  0  0
   11.7756   20.6046   55.8624 H   0  0  0  0  0  0
   13.2784   21.3179   57.7507 H   0  0  0  0  0  0
   13.4643   17.4024   57.8494 H   0  0  0  0  0  0
   10.7431   16.5886   58.7059 H   0  0  0  0  0  0
   11.8143   15.2799   60.4886 H   0  0  0  0  0  0
   12.7688   15.0727   58.9810 H   0  0  0  0  0  0
   15.0412   17.6721   61.0217 H   0  0  0  0  0  0
   12.3629   19.3868   58.9182 H   0  0  0  0  0  0
   11.9155   21.3454   60.1993 H   0  0  0  0  0  0
   10.4449   20.5478   60.8536 H   0  0  0  0  0  0
   13.5374   18.9719   61.3905 H   0  0  0  0  0  0
   13.0711   19.4841   64.2687 H   0  0  0  0  0  0
   15.2867   18.2075   64.5470 H   0  0  0  0  0  0
   14.0297   17.3319   63.6089 H   0  0  0  0  0  0
   16.2593   17.2303   62.4360 H   0  0  0  0  0  0
   14.9751   20.8211   61.6482 H   0  0  0  0  0  0
   16.2196   22.8872   61.7144 H   0  0  0  0  0  0
   16.0531   22.9757   63.5007 H   0  0  0  0  0  0
   17.0168   19.7594   62.9146 H   0  0  0  0  0  0
   19.7934   20.6287   62.5405 H   0  0  0  0  0  0
   20.5512   19.3997   64.8263 H   0  0  0  0  0  0
   19.7068   20.9737   65.0166 H   0  0  0  0  0  0
   17.4576   20.9951   66.2942 H   0  0  0  0  0  0
   19.9310   16.7836   64.6565 H   0  0  0  0  0  0
   16.0016   16.3962   67.7781 H   0  0  0  0  0  0
   19.0928   14.5396   65.4256 H   0  0  0  0  0  0
   17.2070   14.3784   67.0290 H   0  0  0  0  0  0
   17.5584   18.0603   62.4480 H   0  0  0  0  0  0
   19.6646   15.9938   62.7743 H   0  0  0  0  0  0
   17.8675   14.3896   62.3211 H   0  0  0  0  0  0
   17.0696   15.7616   63.1622 H   0  0  0  0  0  0
   15.7802   15.1238   61.0614 H   0  0  0  0  0  0
   19.6449   14.1040   61.0926 H   0  0  0  0  0  0
   20.9265   15.3023   58.7445 H   0  0  0  0  0  0
   21.0287   12.8873   57.9433 H   0  0  0  0  0  0
   21.5569   13.0760   59.6498 H   0  0  0  0  0  0
   19.9314   11.1379   59.4219 H   0  0  0  0  0  0
   17.6387   14.7952   59.5103 H   0  0  0  0  0  0
   16.9697   14.7101   56.5330 H   0  0  0  0  0  0
   15.3316   13.9832   59.0211 H   0  0  0  0  0  0
   14.6162   14.0923   57.3770 H   0  0  0  0  0  0
   16.3099   12.3337   56.6135 H   0  0  0  0  0  0
   16.7954   12.1426   58.3323 H   0  0  0  0  0  0
   13.0207   11.0806   58.6984 H   0  0  0  0  0  0
   17.7312   16.9592   58.6614 H   0  0  0  0  0  0
   15.3212   18.7333   58.2773 H   0  0  0  0  0  0
   16.8359   18.8655   60.2973 H   0  0  0  0  0  0
   18.1248   19.5088   59.2242 H   0  0  0  0  0  0
   18.3172   21.6341   58.9214 H   0  0  0  0  0  0
   16.9096   22.8704   59.2683 H   0  0  0  0  0  0
   14.9441   19.4957   56.1755 H   0  0  0  0  0  0
   15.6763   19.7724   53.9656 H   0  0  0  0  0  0
   15.7115   22.0492   55.3092 H   0  0  0  0  0  0
   17.4982   21.9689   55.1426 H   0  0  0  0  0  0
   17.3121   24.0586   54.0945 H   0  0  0  0  0  0
   16.7977   24.0937   52.2604 H   0  0  0  0  0  0
   19.9881   18.1290   54.0599 H   0  0  0  0  0  0
   19.6039   15.6983   52.6968 H   0  0  0  0  0  0
   19.4118   15.8099   54.4793 H   0  0  0  0  0  0
   17.3298   15.9501   52.3032 H   0  0  0  0  0  0
   17.3316   14.9785   53.8140 H   0  0  0  0  0  0
   16.8186   16.8819   55.1752 H   0  0  0  0  0  0
   15.9793   17.3736   53.6651 H   0  0  0  0  0  0
   17.5029   18.3340   51.5550 H   0  0  0  0  0  0
   19.8190   18.2688   49.6182 H   0  0  0  0  0  0
   16.7820   17.9910   49.1738 H   0  0  0  0  0  0
   17.9857   17.9792   47.8406 H   0  0  0  0  0  0
   16.1755   15.6933   50.1455 H   0  0  0  0  0  0
   20.5278   16.7826   47.6402 H   0  0  0  0  0  0
   19.4533   12.0477   48.9245 H   0  0  0  0  0  0
   22.0879   14.9065   47.0698 H   0  0  0  0  0  0
   21.5573   12.5784   47.7423 H   0  0  0  0  0  0
   19.7380   21.7752   48.7048 H   0  0  0  0  0  0
  1  2  1  0  0  0
  1111  1  0  0  0
  1112  1  0  0  0
  1113  1  0  0  0
  2  3  1  0  0  0
  2114  1  0  0  0
  2115  1  0  0  0
  3  4  2  0  0  0
  3  5  1  0  0  0
  5  6  1  0  0  0
  5116  1  0  0  0
  6  9  1  0  0  0
  6  7  1  0  0  0
  6117  1  0  0  0
  7  8  2  0  0  0
  7 10  1  0  0  0
  9118  1  0  0  0
  9119  1  0  0  0
  9120  1  0  0  0
 10 11  1  0  0  0
 10121  1  0  0  0
 11 14  1  0  0  0
 11 12  1  0  0  0
 11122  1  0  0  0
 12 13  2  0  0  0
 12 16  1  0  0  0
 14 15  1  0  0  0
 14123  1  0  0  0
 14124  1  0  0  0
 15125  1  0  0  0
 16 17  1  0  0  0
 16126  1  0  0  0
 17 20  1  0  0  0
 17 18  1  0  0  0
 17127  1  0  0  0
 18 19  2  0  0  0
 18 24  1  0  0  0
 20 21  1  0  0  0
 20128  1  0  0  0
 20129  1  0  0  0
 21 22  1  0  0  0
 21 23  2  0  0  0
 22130  1  0  0  0
 24 25  1  0  0  0
 24131  1  0  0  0
 25 26  1  0  0  0
 25132  1  0  0  0
 25133  1  0  0  0
 26 27  2  0  0  0
 26 28  1  0  0  0
 28 29  1  0  0  0
 28134  1  0  0  0
 29 32  1  0  0  0
 29 30  1  0  0  0
 29135  1  0  0  0
 30 31  2  0  0  0
 30 34  1  0  0  0
 32 33  1  0  0  0
 32136  1  0  0  0
 32137  1  0  0  0
 33138  1  0  0  0
 34 35  1  0  0  0
 34139  1  0  0  0
 35 36  1  0  0  0
 35140  1  0  0  0
 35141  1  0  0  0
 36 37  2  0  0  0
 36 38  1  0  0  0
 38 39  1  0  0  0
 38142  1  0  0  0
 39 42  1  0  0  0
 39 40  1  0  0  0
 39143  1  0  0  0
 40 41  2  0  0  0
 40 52  1  0  0  0
 42 43  1  0  0  0
 42144  1  0  0  0
 42145  1  0  0  0
 43 44  2  0  0  0
 43 45  1  0  0  0
 44 46  1  0  0  0
 44146  1  0  0  0
 45 48  2  0  0  0
 45 47  1  0  0  0
 46 47  1  0  0  0
 47 49  2  0  0  0
 48 50  1  0  0  0
 48147  1  0  0  0
 49 51  1  0  0  0
 49148  1  0  0  0
 50 51  2  0  0  0
 50149  1  0  0  0
 51150  1  0  0  0
 52 53  1  0  0  0
 52151  1  0  0  0
 53 56  1  0  0  0
 53 54  1  0  0  0
 53152  1  0  0  0
 54 55  2  0  0  0
 54 58  1  0  0  0
 56 57  1  0  0  0
 56153  1  0  0  0
 56154  1  0  0  0
 57155  1  0  0  0
 58 59  1  0  0  0
 58156  1  0  0  0
 59 62  1  0  0  0
 59 60  1  0  0  0
 59157  1  0  0  0
 60 61  2  0  0  0
 60 64  1  0  0  0
 62 63  1  0  0  0
 62158  1  0  0  0
 62159  1  0  0  0
 63160  1  0  0  0
 64 65  1  0  0  0
 64161  1  0  0  0
 65 68  1  0  0  0
 65 66  1  0  0  0
 65162  1  0  0  0
 66 67  2  0  0  0
 66 73  1  0  0  0
 68 69  1  0  0  0
 68163  1  0  0  0
 68164  1  0  0  0
 69 70  1  0  0  0
 69165  1  0  0  0
 69166  1  0  0  0
 70 72  2  0  0  0
 70 71  1  0  0  0
 71167  1  0  0  0
 73 74  1  0  0  0
 73168  1  0  0  0
 74 77  1  0  0  0
 74 75  1  0  0  0
 74169  1  0  0  0
 75 76  2  0  0  0
 75 81  1  0  0  0
 77 78  1  0  0  0
 77170  1  0  0  0
 77171  1  0  0  0
 78 80  1  0  0  0
 78 79  2  0  0  0
 80172  1  0  0  0
 80173  1  0  0  0
 81 82  1  0  0  0
 81174  1  0  0  0
 82 85  1  0  0  0
 82 83  1  0  0  0
 82175  1  0  0  0
 83 84  2  0  0  0
 83 89  1  0  0  0
 85 86  1  0  0  0
 85176  1  0  0  0
 85177  1  0  0  0
 86 88  1  0  0  0
 86 87  2  0  0  0
 88178  1  0  0  0
 88179  1  0  0  0
 89 90  1  0  0  0
 89 95  1  0  0  0
 90 91  1  0  0  0
 90 93  1  0  0  0
 90180  1  0  0  0
 91 92  2  0  0  0
 91 96  1  0  0  0
 93 94  1  0  0  0
 93181  1  0  0  0
 93182  1  0  0  0
 94 95  1  0  0  0
 94183  1  0  0  0
 94184  1  0  0  0
 95185  1  0  0  0
 95186  1  0  0  0
 96 97  1  0  0  0
 96187  1  0  0  0
 97100  1  0  0  0
 97 98  1  0  0  0
 97188  1  0  0  0
 98 99  2  0  0  0
 98110  1  0  0  0
100101  1  0  0  0
100189  1  0  0  0
100190  1  0  0  0
101102  2  0  0  0
101103  1  0  0  0
102104  1  0  0  0
102191  1  0  0  0
103106  2  0  0  0
103105  1  0  0  0
104105  1  0  0  0
105107  2  0  0  0
106108  1  0  0  0
106192  1  0  0  0
107109  1  0  0  0
107193  1  0  0  0
108109  2  0  0  0
108194  1  0  0  0
109195  1  0  0  0
110196  1  0  0  0
M  CHG  1   1   1
M  END
> <s_m_source_file>
../2ivz_ligand.sdf

> <i_m_source_file_index>
1

> <s_epik_input>
W05IMytdW0NIMl1DKD1PKVtOSF1bQ0BASF0oW0NIM10pQyg9TylbTkhdW0NAQEhdKFtDSDJdW09IXSlDKD1PKVtOSF1bQ0BASF0oW0NIMl1DKD1PKVtPSF0pQyg9TylbTkhdW0NIMl1DKD1PKVtOSF1bQ0BASF0oW0NIMl1bT0hdKUMoPU8pW05IXVtDSDJdQyg9TylbTkhdW0NAQEhdKFtDSDJdYzFbY0hdW25IXWMoYzEyKVtjSF1bY0hdW2NIXVtjSF0yKUMoPU8pW05IXVtDQEBIXShbQ0gyXVtPSF0pQyg9TylbTkhdW0NAQEhdKFtDSDJdW09IXSlDKD1PKVtOSF1bQ0BASF0oW0NIMl1bQ0gyXUMoPU8pW09IXSlDKD1PKVtOSF1bQ0BASF0oW0NIMl1DKD1PKVtOSDJdKUMoPU8pW05IXVtDQEBIXShbQ0gyXUMoPU8pW05IMl0pQyg9TylOM1tDQEBIXShbQ0gyXVtDSDJdW0NIMl0zKUMoPU8pW05IXVtDQEhdKEMoPU8pW09IXSlbQ0gyXWM0W2NIXVtuSF1jKGM0NSlbY0hdW2NIXVtjSF1bY0hdNQ==

> <s_epik_cmdline>
J2VwaWtfYXBwJywgJy1pbWFlJywgJ2xpZ2FuZF9wcm8ubWFlJywgJy1vbWFlJywgJ2xpZ2FuZF9wcmVwLm1hZScsICctbXMnLCAnMScsICctcGgnLCAnNycsICctcGh0JywgJzAuNScsICctbnQn

> <s_epik_pKa_notes>
Molecule size exceeds maximum supported for generating protonation states

$$$$
