2iw6_ligand
                    3D
 Schrodinger Suite 2020-3.
 61 63  0  0  1  0            999 V2000
    3.8680   41.7760   50.5570 C   0  0  0  0  0  0
    9.7210   44.7760   50.4540 C   0  0  0  0  0  0
    7.7540   43.6700   49.8940 C   0  0  0  0  0  0
    7.0570   44.5980   50.6990 C   0  0  0  0  0  0
    7.7420   45.6250   51.3840 C   0  0  0  0  0  0
    3.1920   45.8110   53.5440 C   0  0  0  0  0  0
    3.4340   46.4780   52.3480 C   0  0  0  0  0  0
    4.7430   46.7270   51.9120 C   0  0  0  0  0  0
    5.8380   46.2910   52.6650 C   0  0  0  0  0  0
    4.2640   45.3640   54.3110 C   0  0  0  0  0  0
    8.6430   47.6550   53.8110 C   0  0  0  0  0  0
    7.7880   47.8100   52.5830 C   0  0  0  0  0  0
    5.5600   45.6020   53.8670 C   0  0  0  0  0  0
    5.8680   42.1470   49.2930 C   0  0  0  0  0  0
    9.0810   45.6700   51.2260 N   0  0  0  0  0  0
    9.0860   43.8040   49.7900 N   0  0  0  0  0  0
    7.1150   46.5450   52.1970 N   0  0  0  0  0  0
    9.3490   47.5520   54.7690 N   0  0  0  0  0  0
    7.1490   42.6070   49.1720 N   0  0  0  0  0  0
    5.1740   42.2530   50.4950 C   0  0  0  0  0  0
    3.2290   41.1960   49.4550 C   0  0  0  0  0  0
    3.9350   41.0890   48.2510 C   0  0  0  0  0  0
    5.2570   41.5680   48.1950 C   0  0  0  0  0  0
    1.9320   40.7440   49.6220 O   0  0  0  0  0  0
    1.1290   40.2120   48.5620 C   0  0  0  0  0  0
   -0.4020   40.1960   48.8010 C   0  0  1  0  0  0
   -0.9060   40.6490   50.1900 C   0  0  0  0  0  0
   -2.4040   40.5940   50.2230 N   0  3  0  0  0  0
   -3.1750   41.7460   50.6990 C   0  0  0  0  0  0
   -3.1620   39.3690   49.9530 C   0  0  0  0  0  0
   -1.0280   40.9790   47.7660 O   0  0  0  0  0  0
    6.8360   44.9780   54.9250 Cl  0  0  0  0  0  0
    2.2770   46.9500   51.5190 C   0  0  0  0  0  0
    3.3232   41.8570   51.4976 H   0  0  0  0  0  0
   10.8051   44.8458   50.3649 H   0  0  0  0  0  0
    5.9738   44.5201   50.7928 H   0  0  0  0  0  0
    2.1690   45.6393   53.8788 H   0  0  0  0  0  0
    4.9087   47.2648   50.9785 H   0  0  0  0  0  0
    4.0898   44.8343   55.2476 H   0  0  0  0  0  0
    7.0098   48.5644   52.7709 H   0  0  0  0  0  0
    8.4146   48.1321   51.7382 H   0  0  0  0  0  0
    7.7283   42.0551   48.4172 H   0  0  0  0  0  0
    5.6442   42.7008   51.3705 H   0  0  0  0  0  0
    3.4691   40.6426   47.3725 H   0  0  0  0  0  0
    5.8142   41.4806   47.2622 H   0  0  0  0  0  0
    1.2861   40.8059   47.6495 H   0  0  0  0  0  0
    1.4162   39.1671   48.3734 H   0  0  0  0  0  0
   -0.7362   39.1524   48.7051 H   0  0  0  0  0  0
   -0.4983   39.9816   50.9635 H   0  0  0  0  0  0
   -0.5734   41.6797   50.3825 H   0  0  0  0  0  0
   -2.2110   40.7061   49.1459 H   0  0  0  0  0  0
   -2.4981   42.5972   50.8641 H   0  0  0  0  0  0
   -3.6757   41.4871   51.6436 H   0  0  0  0  0  0
   -3.9297   42.0183   49.9465 H   0  0  0  0  0  0
   -2.4762   38.5828   49.6043 H   0  0  0  0  0  0
   -3.9163   39.5680   49.1775 H   0  0  0  0  0  0
   -3.6623   39.0368   50.8746 H   0  0  0  0  0  0
   -0.7841   40.7904   46.7101 H   0  0  0  0  0  0
    1.3344   46.6690   52.0114 H   0  0  0  0  0  0
    2.3243   46.4833   50.5240 H   0  0  0  0  0  0
    2.3237   48.0439   51.4135 H   0  0  0  0  0  0
  1 20  2  0  0  0
  1 21  1  0  0  0
  1 34  1  0  0  0
  2 15  2  0  0  0
  2 16  1  0  0  0
  2 35  1  0  0  0
  3  4  1  0  0  0
  3 16  2  0  0  0
  3 19  1  0  0  0
  4  5  2  0  0  0
  4 36  1  0  0  0
  5 15  1  0  0  0
  5 17  1  0  0  0
  6  7  2  0  0  0
  6 10  1  0  0  0
  6 37  1  0  0  0
  7  8  1  0  0  0
  7 33  1  0  0  0
  8  9  2  0  0  0
  8 38  1  0  0  0
  9 13  1  0  0  0
  9 17  1  0  0  0
 10 13  2  0  0  0
 10 39  1  0  0  0
 11 12  1  0  0  0
 11 18  3  0  0  0
 12 17  1  0  0  0
 12 40  1  0  0  0
 12 41  1  0  0  0
 13 32  1  0  0  0
 14 19  1  0  0  0
 14 20  1  0  0  0
 14 23  2  0  0  0
 19 42  1  0  0  0
 20 43  1  0  0  0
 21 22  2  0  0  0
 21 24  1  0  0  0
 22 23  1  0  0  0
 22 44  1  0  0  0
 23 45  1  0  0  0
 24 25  1  0  0  0
 25 26  1  0  0  0
 25 46  1  0  0  0
 25 47  1  0  0  0
 26 27  1  0  0  0
 26 31  1  0  0  0
 26 48  1  0  0  0
 27 28  1  0  0  0
 27 49  1  0  0  0
 27 50  1  0  0  0
 28 29  1  0  0  0
 28 30  1  0  0  0
 28 51  1  0  0  0
 29 52  1  0  0  0
 29 53  1  0  0  0
 29 54  1  0  0  0
 30 55  1  0  0  0
 30 56  1  0  0  0
 30 57  1  0  0  0
 31 58  1  0  0  0
 33 59  1  0  0  0
 33 60  1  0  0  0
 33 61  1  0  0  0
M  CHG  1  28   1
M  END
> <s_m_source_file>
../2iw6_ligand.sdf

> <i_m_source_file_index>
1

> <s_epik_input>
W0NIM11bTkgrXShbQ0gzXSlbQ0gyXVtDQEBIXShbT0hdKVtDSDJdT2MoW2NIXVtjSF0xKVtjSF1bY0hdYzFbTkhdYzJbY0hdYyhuW2NIXW4yKU4oW0NIMl1DI04pYyhbY0hdMyljKENsKVtjSF1bY0hdYzNbQ0gzXQ==

> <s_epik_cmdline>
J2VwaWtfYXBwJywgJy1pbWFlJywgJ2xpZ2FuZF9wcm8ubWFlJywgJy1vbWFlJywgJ2xpZ2FuZF9wcmVwLm1hZScsICctbXMnLCAnMScsICctcGgnLCAnNycsICctcGh0JywgJzAuNScsICctbnQn

> <r_lp_tautomer_probability>
0.999999999985434

> <r_epik_Ionization_Penalty>
  0.1093

> <r_epik_Ionization_Penalty_Charging>
  0.1092

> <r_epik_Ionization_Penalty_Neutral>
  0.0001

> <r_epik_State_Penalty>
  0.0990

> <r_epik_Charging_Adjusted_Penalty>
0.20818616252629

> <i_epik_Tot_Q>
1

> <i_epik_Tot_abs_Q>
1

$$$$
