2iw8_ligand
                    3D
 Schrodinger Suite 2020-3.
 50 53  0  0  1  0            999 V2000
    8.2220   44.0290   50.0230 C   0  0  0  0  0  0
   11.0250   46.8000   52.1870 C   0  0  0  0  0  0
    5.2950   46.0300   52.0110 C   0  0  0  0  0  0
    4.4120   46.4980   53.1380 C   0  0  0  0  0  0
    2.9660   46.2020   52.7200 C   0  0  0  0  0  0
    1.9720   46.4300   53.8610 C   0  0  0  0  0  0
    2.4070   45.7380   55.1520 C   0  0  0  0  0  0
    3.8420   46.1550   55.5260 C   0  0  0  0  0  0
    4.8150   45.7570   54.4270 C   0  0  0  0  0  0
    4.5350   41.5910   50.1310 C   0  0  0  0  0  0
    4.2290   40.8110   49.0050 C   0  0  0  0  0  0
    5.1580   40.8040   47.9430 C   0  0  0  0  0  0
    6.3390   41.5510   48.0210 C   0  0  0  0  0  0
    1.6910   40.5510   49.6590 N   0  0  0  0  0  0
    7.2930   44.7030   50.7500 N   0  0  0  0  0  0
    7.6160   45.6970   51.6130 C   0  0  0  0  0  0
    6.6500   46.3330   52.3110 O   0  0  0  0  0  0
    9.0200   46.0680   51.7620 C   0  0  0  0  0  0
    9.7070   46.9640   52.4940 N   0  0  0  0  0  0
   11.1660   45.7940   51.2670 N   0  3  0  0  0  0
    9.9130   45.3500   50.9890 C   0  0  0  0  0  0
    9.5340   44.3580   50.1440 N   0  0  0  0  0  0
    7.8180   43.0320   49.1710 N   0  0  0  0  0  0
    6.6350   42.3310   49.1500 C   0  0  0  0  0  0
    5.7220   42.3300   50.2050 C   0  0  0  0  0  0
    2.8610   39.9350   48.9110 S   0  0  0  0  0  0
    3.0650   38.5930   49.5070 O   0  0  0  0  0  0
    2.5520   39.7690   47.4760 O   0  0  0  0  0  0
   11.7844   47.4358   52.6656 H   0  0  0  0  0  0
    5.1826   44.9431   51.8842 H   0  0  0  0  0  0
    5.0035   46.5397   51.0808 H   0  0  0  0  0  0
    4.5267   47.5765   53.3215 H   0  0  0  0  0  0
    2.6833   46.8610   51.8858 H   0  0  0  0  0  0
    2.8838   45.1522   52.4020 H   0  0  0  0  0  0
    1.8867   47.5079   54.0630 H   0  0  0  0  0  0
    0.9875   46.0316   53.5747 H   0  0  0  0  0  0
    1.7265   46.0229   55.9679 H   0  0  0  0  0  0
    2.3753   44.6474   55.0121 H   0  0  0  0  0  0
    3.8831   47.2458   55.6622 H   0  0  0  0  0  0
    4.1364   45.6573   56.4617 H   0  0  0  0  0  0
    4.7690   44.6714   54.2555 H   0  0  0  0  0  0
    5.8400   46.0407   54.7078 H   0  0  0  0  0  0
    3.8341   41.6221   50.9652 H   0  0  0  0  0  0
    4.9536   40.2103   47.0520 H   0  0  0  0  0  0
    7.0426   41.5266   47.1889 H   0  0  0  0  0  0
    0.8063   39.9063   49.5508 H   0  0  0  0  0  0
    1.4729   41.5458   49.2432 H   0  0  0  0  0  0
    8.4853   42.6937   48.3646 H   0  0  0  0  0  0
    5.9360   42.9134   51.1005 H   0  0  0  0  0  0
   12.1677   45.5090   50.9128 H   0  0  0  0  0  0
  1 15  2  0  0  0
  1 22  1  0  0  0
  1 23  1  0  0  0
  2 19  2  0  0  0
  2 20  1  0  0  0
  2 29  1  0  0  0
  3  4  1  0  0  0
  3 17  1  0  0  0
  3 30  1  0  0  0
  3 31  1  0  0  0
  4  5  1  0  0  0
  4  9  1  0  0  0
  4 32  1  0  0  0
  5  6  1  0  0  0
  5 33  1  0  0  0
  5 34  1  0  0  0
  6  7  1  0  0  0
  6 35  1  0  0  0
  6 36  1  0  0  0
  7  8  1  0  0  0
  7 37  1  0  0  0
  7 38  1  0  0  0
  8  9  1  0  0  0
  8 39  1  0  0  0
  8 40  1  0  0  0
  9 41  1  0  0  0
  9 42  1  0  0  0
 10 11  2  0  0  0
 10 25  1  0  0  0
 10 43  1  0  0  0
 11 12  1  0  0  0
 11 26  1  0  0  0
 12 13  2  0  0  0
 12 44  1  0  0  0
 13 24  1  0  0  0
 13 45  1  0  0  0
 14 26  1  0  0  0
 14 46  1  0  0  0
 14 47  1  0  0  0
 15 16  1  0  0  0
 16 17  1  0  0  0
 16 18  2  0  0  0
 18 19  1  0  0  0
 18 21  1  0  0  0
 20 21  1  0  0  0
 20 50  1  0  0  0
 21 22  2  0  0  0
 23 24  1  0  0  0
 23 48  1  0  0  0
 24 25  2  0  0  0
 25 49  1  0  0  0
 26 27  2  0  0  0
 26 28  2  0  0  0
M  CHG  1  20   1
M  END
> <s_m_source_file>
../2iw8_ligand.sdf

> <i_m_source_file_index>
1

> <s_epik_input>
W05IMl1TKD1PKSg9TyljMVtjSF1bY0hdYyhbY0hdW2NIXTEpW05IXWMobmMoYzIzKVtuSF1bY0hdbjMpbmMyT1tDSDJdW0NIXTRbQ0gyXVtDSDJdW0NIMl1bQ0gyXVtDSDJdNA==

> <s_epik_cmdline>
J2VwaWtfYXBwJywgJy1pbWFlJywgJ2xpZ2FuZF9wcm8ubWFlJywgJy1vbWFlJywgJ2xpZ2FuZF9wcmVwLm1hZScsICctbXMnLCAnMScsICctcGgnLCAnNycsICctcGh0JywgJzAuNScsICctbnQn

> <r_lp_tautomer_probability>
1

> <r_epik_Ionization_Penalty>
  0.0096

> <r_epik_Ionization_Penalty_Charging>
  0.0000

> <r_epik_Ionization_Penalty_Neutral>
  0.0096

> <r_epik_State_Penalty>
 -0.0000

> <r_epik_Charging_Adjusted_Penalty>
0

> <i_epik_Tot_Q>
1

> <i_epik_Tot_abs_Q>
1

> <s_epik_Chemistry_Notes>
This compound has an imine and may undergo hydrolysis.

$$$$
