2iw9_ligand
                    3D
 Schrodinger Suite 2020-3.
 50 53  0  0  1  0            999 V2000
    7.7900   43.7290   49.8420 C   0  0  0  0  0  0
   10.6640   46.3810   51.9930 C   0  0  0  0  0  0
    4.9380   45.7440   51.8420 C   0  0  0  0  0  0
    4.0580   46.0110   53.0440 C   0  0  0  0  0  0
    2.6180   45.5960   52.7190 C   0  0  0  0  0  0
    1.7050   45.8360   53.9210 C   0  0  0  0  0  0
    2.2770   45.3040   55.2360 C   0  0  0  0  0  0
    3.7340   45.7260   55.4460 C   0  0  0  0  0  0
    4.5760   45.2560   54.2720 C   0  0  0  0  0  0
    4.1300   41.3120   49.9790 C   0  0  0  0  0  0
    3.7920   40.6400   48.7970 C   0  0  0  0  0  0
    4.6640   40.7210   47.7110 C   0  0  0  0  0  0
    5.8660   41.4390   47.8020 C   0  0  0  0  0  0
    1.3840   40.3000   49.6640 N   0  0  0  0  0  0
    6.8680   44.3970   50.5810 N   0  0  0  0  0  0
    7.2280   45.3720   51.4530 C   0  0  0  0  0  0
    6.2870   46.0290   52.1840 O   0  0  0  0  0  0
    8.6560   45.7010   51.5950 C   0  0  0  0  0  0
    9.3640   46.5760   52.3340 N   0  0  0  0  0  0
   10.7880   45.3880   51.0620 N   0  3  0  0  0  0
    9.5310   44.9790   50.8070 C   0  0  0  0  0  0
    9.1190   44.0070   49.9570 N   0  0  0  0  0  0
    7.3900   42.7670   48.9840 N   0  0  0  0  0  0
    6.2030   42.1010   48.9740 C   0  0  0  0  0  0
    5.3360   42.0230   50.0800 C   0  0  0  0  0  0
    2.4060   39.8040   48.6540 S   0  0  0  0  0  0
    2.6670   38.3710   48.8940 O   0  0  0  0  0  0
    1.8510   40.0060   47.3150 O   0  0  0  0  0  0
   11.4521   46.9914   52.4581 H   0  0  0  0  0  0
    4.8452   44.6884   51.5469 H   0  0  0  0  0  0
    4.6232   46.3872   51.0070 H   0  0  0  0  0  0
    4.0895   47.0875   53.2680 H   0  0  0  0  0  0
    2.2493   46.1871   51.8677 H   0  0  0  0  0  0
    2.5939   44.5270   52.4609 H   0  0  0  0  0  0
    1.5401   46.9163   54.0463 H   0  0  0  0  0  0
    0.7401   45.3348   53.7544 H   0  0  0  0  0  0
    1.6843   45.6923   56.0774 H   0  0  0  0  0  0
    2.2365   44.2047   55.2354 H   0  0  0  0  0  0
    3.7911   46.8220   55.5208 H   0  0  0  0  0  0
    4.1164   45.2748   56.3735 H   0  0  0  0  0  0
    4.4621   44.1737   54.1120 H   0  0  0  0  0  0
    5.6387   45.4938   54.4273 H   0  0  0  0  0  0
    3.4489   41.2823   50.8295 H   0  0  0  0  0  0
    4.4077   40.2191   46.7780 H   0  0  0  0  0  0
    6.5398   41.4770   46.9460 H   0  0  0  0  0  0
    0.4523   39.7254   49.5552 H   0  0  0  0  0  0
    1.1802   41.3662   49.4860 H   0  0  0  0  0  0
    8.0589   42.4390   48.1747 H   0  0  0  0  0  0
    5.6013   42.5151   51.0157 H   0  0  0  0  0  0
   11.7841   45.0983   50.6962 H   0  0  0  0  0  0
  1 15  2  0  0  0
  1 22  1  0  0  0
  1 23  1  0  0  0
  2 19  2  0  0  0
  2 20  1  0  0  0
  2 29  1  0  0  0
  3  4  1  0  0  0
  3 17  1  0  0  0
  3 30  1  0  0  0
  3 31  1  0  0  0
  4  5  1  0  0  0
  4  9  1  0  0  0
  4 32  1  0  0  0
  5  6  1  0  0  0
  5 33  1  0  0  0
  5 34  1  0  0  0
  6  7  1  0  0  0
  6 35  1  0  0  0
  6 36  1  0  0  0
  7  8  1  0  0  0
  7 37  1  0  0  0
  7 38  1  0  0  0
  8  9  1  0  0  0
  8 39  1  0  0  0
  8 40  1  0  0  0
  9 41  1  0  0  0
  9 42  1  0  0  0
 10 11  2  0  0  0
 10 25  1  0  0  0
 10 43  1  0  0  0
 11 12  1  0  0  0
 11 26  1  0  0  0
 12 13  2  0  0  0
 12 44  1  0  0  0
 13 24  1  0  0  0
 13 45  1  0  0  0
 14 26  1  0  0  0
 14 46  1  0  0  0
 14 47  1  0  0  0
 15 16  1  0  0  0
 16 17  1  0  0  0
 16 18  2  0  0  0
 18 19  1  0  0  0
 18 21  1  0  0  0
 20 21  1  0  0  0
 20 50  1  0  0  0
 21 22  2  0  0  0
 23 24  1  0  0  0
 23 48  1  0  0  0
 24 25  2  0  0  0
 25 49  1  0  0  0
 26 27  2  0  0  0
 26 28  2  0  0  0
M  CHG  1  20   1
M  END
> <s_m_source_file>
../2iw9_ligand.sdf

> <i_m_source_file_index>
1

> <s_epik_input>
W05IMl1TKD1PKSg9TyljMVtjSF1bY0hdYyhbY0hdW2NIXTEpW05IXWMobmMoYzIzKVtuSF1bY0hdbjMpbmMyT1tDSDJdW0NIXTRbQ0gyXVtDSDJdW0NIMl1bQ0gyXVtDSDJdNA==

> <s_epik_cmdline>
J2VwaWtfYXBwJywgJy1pbWFlJywgJ2xpZ2FuZF9wcm8ubWFlJywgJy1vbWFlJywgJ2xpZ2FuZF9wcmVwLm1hZScsICctbXMnLCAnMScsICctcGgnLCAnNycsICctcGh0JywgJzAuNScsICctbnQn

> <r_lp_tautomer_probability>
1

> <r_epik_Ionization_Penalty>
  0.0096

> <r_epik_Ionization_Penalty_Charging>
  0.0000

> <r_epik_Ionization_Penalty_Neutral>
  0.0096

> <r_epik_State_Penalty>
 -0.0000

> <r_epik_Charging_Adjusted_Penalty>
0

> <i_epik_Tot_Q>
1

> <i_epik_Tot_abs_Q>
1

> <s_epik_Chemistry_Notes>
This compound has an imine and may undergo hydrolysis.

$$$$
