2iws_ligand
                    3D
 Schrodinger Suite 2020-3.
 38 39  0  0  1  0            999 V2000
   18.4650  -34.9290  -60.3030 C   0  0  0  0  0  0
   18.4250  -33.9530  -59.1610 C   0  0  0  0  0  0
   19.7270  -35.1970  -60.9690 O   0  0  0  0  0  0
   17.4640  -32.9540  -59.1340 C   0  0  0  0  0  0
   17.4290  -32.0480  -58.0840 C   0  0  0  0  0  0
   18.3790  -32.1530  -57.0610 C   0  0  0  0  0  0
   19.3380  -33.1400  -57.0890 C   0  0  0  0  0  0
   19.3750  -34.0400  -58.1350 C   0  0  0  0  0  0
   20.4150  -35.1380  -58.1850 C   0  0  0  0  0  0
   21.7050  -34.7130  -58.8540 C   0  0  0  0  0  0
   21.9060  -33.2980  -59.3390 C   0  0  0  0  0  0
   23.0010  -33.2730  -60.4030 C   0  0  0  0  0  0
   22.4170  -33.2520  -61.8100 C   0  0  0  0  0  0
   22.7320  -34.5640  -62.4860 C   0  0  0  0  0  0
   21.7910  -35.2420  -63.1410 C   0  0  0  0  0  0
   20.3800  -34.7180  -63.2330 C   0  0  0  0  0  0
   19.4780  -35.5460  -62.3300 C   0  0  0  0  0  0
   17.4560  -35.5070  -60.6830 O   0  0  0  0  0  0
   16.5410  -32.8560  -60.1320 O   0  0  0  0  0  0
   18.3460  -31.2700  -56.0350 O   0  5  0  0  0  0
   20.4000  -33.2140  -55.8910 Cl  0  0  0  0  0  0
   22.6010  -35.5290  -59.0130 O   0  0  0  0  0  0
   16.6717  -31.2646  -58.0558 H   0  0  0  0  0  0
   20.6624  -35.4555  -57.1613 H   0  0  0  0  0  0
   20.0169  -35.9947  -58.7485 H   0  0  0  0  0  0
   20.9671  -32.9217  -59.7713 H   0  0  0  0  0  0
   22.2024  -32.6593  -58.4939 H   0  0  0  0  0  0
   23.6200  -32.3733  -60.2710 H   0  0  0  0  0  0
   23.6307  -34.1693  -60.3023 H   0  0  0  0  0  0
   21.3272  -33.1141  -61.7526 H   0  0  0  0  0  0
   22.8620  -32.4227  -62.3794 H   0  0  0  0  0  0
   23.7573  -34.9588  -62.4318 H   0  0  0  0  0  0
   22.0383  -36.1986  -63.6245 H   0  0  0  0  0  0
   20.3579  -33.6661  -62.9120 H   0  0  0  0  0  0
   20.0286  -34.7915  -64.2728 H   0  0  0  0  0  0
   19.6887  -36.6153  -62.4787 H   0  0  0  0  0  0
   18.4249  -35.3424  -62.5740 H   0  0  0  0  0  0
   16.5589  -33.5687  -60.9697 H   0  0  0  0  0  0
  1  2  1  0  0  0
  1  3  1  0  0  0
  1 18  2  0  0  0
  2  4  2  0  0  0
  2  8  1  0  0  0
  3 17  1  0  0  0
  4  5  1  0  0  0
  4 19  1  0  0  0
  5  6  2  0  0  0
  5 23  1  0  0  0
  6  7  1  0  0  0
  6 20  1  0  0  0
  7  8  2  0  0  0
  7 21  1  0  0  0
  8  9  1  0  0  0
  9 10  1  0  0  0
  9 24  1  0  0  0
  9 25  1  0  0  0
 10 11  1  0  0  0
 10 22  2  0  0  0
 11 12  1  0  0  0
 11 26  1  0  0  0
 11 27  1  0  0  0
 12 13  1  0  0  0
 12 28  1  0  0  0
 12 29  1  0  0  0
 13 14  1  0  0  0
 13 30  1  0  0  0
 13 31  1  0  0  0
 14 15  2  0  0  0
 14 32  1  0  0  0
 15 16  1  0  0  0
 15 33  1  0  0  0
 16 17  1  0  0  0
 16 34  1  0  0  0
 16 35  1  0  0  0
 17 36  1  0  0  0
 17 37  1  0  0  0
 19 38  1  0  0  0
M  CHG  1  20  -1
M  END
> <s_m_source_file>
../2iws_ligand.sdf

> <i_m_source_file_index>
1

> <s_epik_input>
Tz1DMU9bQ0gyXVtDSDJdL1tDSF09W0NIXVxbQ0gyXVtDSDJdW0NIMl1DKD1PKVtDSDJdYyhjMTIpYyhDbCljKFtPSF0pW2NIXWMyW09IXQ==

> <s_epik_cmdline>
J2VwaWtfYXBwJywgJy1pbWFlJywgJ2xpZ2FuZF9wcm8ubWFlJywgJy1vbWFlJywgJ2xpZ2FuZF9wcmVwLm1hZScsICctbXMnLCAnMScsICctcGgnLCAnNycsICctcGh0JywgJzAuNScsICctbnQn

> <r_lp_tautomer_probability>
0.99999998

> <r_epik_Ionization_Penalty>
  0.2784

> <r_epik_Ionization_Penalty_Charging>
  0.2782

> <r_epik_Ionization_Penalty_Neutral>
  0.0001

> <r_epik_State_Penalty>
  0.2707

> <r_epik_Charging_Adjusted_Penalty>
0.548916635950073

> <i_epik_Tot_Q>
-1

> <i_epik_Tot_abs_Q>
1

> <s_epik_Chemistry_Notes>
This compound has an ester and may undergo hydrolysis at high or low pH.

$$$$
