2iwu_ligand
                    3D
 Schrodinger Suite 2020-3.
 38 39  0  0  1  0            999 V2000
   18.5050  -35.2070   -5.6720 C   0  0  0  0  0  0
   19.7720  -35.6510   -6.2310 O   0  0  0  0  0  0
   18.5160  -34.2160   -4.5470 C   0  0  0  0  0  0
   17.6240  -33.1570   -4.5310 C   0  0  0  0  0  0
   17.6450  -32.2430   -3.4850 C   0  0  0  0  0  0
   18.5660  -32.3810   -2.4560 C   0  0  0  0  0  0
   19.4600  -33.4420   -2.4810 C   0  0  0  0  0  0
   19.4410  -34.3540   -3.5240 C   0  0  0  0  0  0
   20.4270  -35.4990   -3.5290 C   0  0  0  0  0  0
   21.7940  -35.0650   -4.0150 C   0  0  0  0  0  0
   22.2030  -33.6060   -4.0360 C   0  0  0  0  0  0
   21.8840  -32.9170   -5.3650 C   0  0  0  0  0  0
   22.8080  -33.3430   -6.5040 C   0  0  0  0  0  0
   21.9820  -34.1990   -7.4310 C   0  0  0  0  0  0
   21.8780  -35.5020   -7.1880 C   0  0  0  0  0  0
   21.0330  -36.3710   -8.0850 C   0  0  0  0  0  0
   19.6300  -36.3030   -7.4940 C   0  0  0  0  0  0
   17.4590  -35.6570   -6.1140 O   0  0  0  0  0  0
   16.7110  -33.0120   -5.5390 O   0  0  0  0  0  0
   18.5790  -31.4770   -1.4380 O   0  5  0  0  0  0
   20.5350  -33.6270   -1.3060 Cl  0  0  0  0  0  0
   22.5860  -35.9180   -4.3840 O   0  0  0  0  0  0
   16.9361  -31.4151   -3.4724 H   0  0  0  0  0  0
   20.5341  -35.8951   -2.5084 H   0  0  0  0  0  0
   20.0615  -36.2948   -4.1947 H   0  0  0  0  0  0
   21.6694  -33.0642   -3.2412 H   0  0  0  0  0  0
   23.2874  -33.5267   -3.8694 H   0  0  0  0  0  0
   20.8541  -33.1596   -5.6658 H   0  0  0  0  0  0
   21.9845  -31.8280   -5.2469 H   0  0  0  0  0  0
   23.1836  -32.4499   -7.0250 H   0  0  0  0  0  0
   23.6556  -33.9125   -6.0951 H   0  0  0  0  0  0
   21.4692  -33.7587   -8.2989 H   0  0  0  0  0  0
   22.4083  -35.9460   -6.3327 H   0  0  0  0  0  0
   21.0606  -35.9751   -9.1109 H   0  0  0  0  0  0
   21.4269  -37.3980   -8.0776 H   0  0  0  0  0  0
   19.2113  -37.3088   -7.3424 H   0  0  0  0  0  0
   18.9545  -35.7175   -8.1350 H   0  0  0  0  0  0
   16.6898  -33.7327   -6.3697 H   0  0  0  0  0  0
  1  2  1  0  0  0
  1  3  1  0  0  0
  1 18  2  0  0  0
  2 17  1  0  0  0
  3  4  2  0  0  0
  3  8  1  0  0  0
  4  5  1  0  0  0
  4 19  1  0  0  0
  5  6  2  0  0  0
  5 23  1  0  0  0
  6  7  1  0  0  0
  6 20  1  0  0  0
  7  8  2  0  0  0
  7 21  1  0  0  0
  8  9  1  0  0  0
  9 10  1  0  0  0
  9 24  1  0  0  0
  9 25  1  0  0  0
 10 11  1  0  0  0
 10 22  2  0  0  0
 11 12  1  0  0  0
 11 26  1  0  0  0
 11 27  1  0  0  0
 12 13  1  0  0  0
 12 28  1  0  0  0
 12 29  1  0  0  0
 13 14  1  0  0  0
 13 30  1  0  0  0
 13 31  1  0  0  0
 14 15  2  0  0  0
 14 32  1  0  0  0
 15 16  1  0  0  0
 15 33  1  0  0  0
 16 17  1  0  0  0
 16 34  1  0  0  0
 16 35  1  0  0  0
 17 36  1  0  0  0
 17 37  1  0  0  0
 19 38  1  0  0  0
M  CHG  1  20  -1
M  END
> <s_m_source_file>
../2iwu_ligand.sdf

> <i_m_source_file_index>
1

> <s_epik_input>
Tz1DMU9bQ0gyXVtDSDJdXFtDSF09W0NIXVxbQ0gyXVtDSDJdW0NIMl1DKD1PKVtDSDJdYyhjMTIpYyhDbCljKFtPSF0pW2NIXWMyW09IXQ==

> <s_epik_cmdline>
J2VwaWtfYXBwJywgJy1pbWFlJywgJ2xpZ2FuZF9wcm8ubWFlJywgJy1vbWFlJywgJ2xpZ2FuZF9wcmVwLm1hZScsICctbXMnLCAnMScsICctcGgnLCAnNycsICctcGh0JywgJzAuNScsICctbnQn

> <r_lp_tautomer_probability>
0.99999998

> <r_epik_Ionization_Penalty>
  0.2784

> <r_epik_Ionization_Penalty_Charging>
  0.2782

> <r_epik_Ionization_Penalty_Neutral>
  0.0001

> <r_epik_State_Penalty>
  0.2707

> <r_epik_Charging_Adjusted_Penalty>
0.548916635950073

> <i_epik_Tot_Q>
-1

> <i_epik_Tot_abs_Q>
1

> <s_epik_Chemistry_Notes>
This compound has an ester and may undergo hydrolysis at high or low pH.

$$$$
