2iyf_ligand
                    3D
 Schrodinger Suite 2020-3.
119121  0  0  1  0            999 V2000
  -15.3870  -11.7730  -20.6710 C   0  0  2  0  0  0
  -13.9060  -12.1220  -20.4830 C   0  0  2  0  0  0
  -13.2580  -13.1130  -21.4950 C   0  0  2  0  0  0
  -11.7240  -13.0220  -21.4010 C   0  0  2  0  0  0
  -11.3490  -11.8120  -22.0760 O   0  0  0  0  0  0
  -10.4280   -9.5930  -22.1720 C   0  0  2  0  0  0
  -11.1360   -8.4020  -21.5100 C   0  0  2  0  0  0
  -12.5240   -8.1410  -22.1190 C   0  0  1  0  0  0
  -13.3580   -7.2070  -21.1770 C   0  0  2  0  0  0
  -14.3460   -7.9820  -20.2860 C   0  0  2  0  0  0
  -15.4500   -8.6090  -21.1600 C   0  0  0  0  0  0
  -16.4620   -9.4210  -20.3300 C   0  0  2  0  0  0
  -15.8760  -10.6790  -19.7350 C   0  0  0  0  0  0
  -15.8430  -10.8620  -18.5140 O   0  0  0  0  0  0
  -10.6580  -10.8080  -21.3500 C   0  0  0  0  0  0
  -10.3260  -10.9580  -20.1830 O   0  0  0  0  0  0
  -10.3290   -7.2180  -21.5970 O   0  0  0  0  0  0
  -14.0770   -6.3260  -21.9990 O   0  0  0  0  0  0
  -16.3400  -12.9470  -20.4440 C   0  0  0  0  0  0
  -17.6880   -9.7660  -21.1750 C   0  0  0  0  0  0
  -13.7420  -12.8480  -22.9160 C   0  0  0  0  0  0
  -13.7320  -12.5860  -19.1300 O   0  0  0  0  0  0
  -13.7300  -14.4310  -21.2120 O   0  0  0  0  0  0
  -10.9850  -14.1510  -22.1240 C   0  0  0  0  0  0
   -8.8970   -9.5300  -22.3720 C   0  0  0  0  0  0
  -14.8810   -7.1310  -19.1210 C   0  0  0  0  0  0
  -13.6330   -9.0610  -19.7130 O   0  0  0  0  0  0
  -13.7310   -4.9390  -21.8830 C   0  0  1  0  0  0
  -14.3830   -4.1530  -23.0290 C   0  0  1  0  0  0
  -14.1840   -2.6530  -22.8040 C   0  0  2  0  0  0
  -14.6280   -2.2510  -21.3780 C   0  0  0  0  0  0
  -13.9390   -3.1190  -20.3130 C   0  0  2  0  0  0
  -14.1960   -4.4990  -20.6140 O   0  0  0  0  0  0
  -15.0240   -1.8380  -23.7160 N   0  3  0  0  0  0
  -14.5450   -2.8660  -18.9430 C   0  0  0  0  0  0
  -13.7450   -4.4850  -24.2670 O   0  0  0  0  0  0
  -14.5630   -0.4810  -23.9950 C   0  0  0  0  0  0
   -9.4530   -7.0170  -20.4650 C   0  0  1  0  0  0
   -8.2750   -6.1280  -20.8890 C   0  0  0  0  0  0
   -8.6430   -4.6390  -21.0200 C   0  0  2  0  0  0
   -9.2900   -4.1600  -19.7090 C   0  0  2  0  0  0
  -10.4810   -5.0690  -19.3970 C   0  0  1  0  0  0
  -10.1340   -6.4680  -19.3320 O   0  0  0  0  0  0
   -9.5980   -4.4240  -22.0710 O   0  0  0  0  0  0
   -9.7920   -2.8280  -19.9150 O   0  0  0  0  0  0
   -9.3780   -4.6560  -23.4840 C   0  0  0  0  0  0
  -16.3490   -2.2570  -24.1580 C   0  0  0  0  0  0
  -11.0930   -4.7510  -18.0260 C   0  0  0  0  0  0
   -9.5070  -14.1270  -21.7920 C   0  0  0  0  0  0
  -12.3480   -7.5820  -23.5390 C   0  0  0  0  0  0
   -7.3980   -3.7730  -21.2890 C   0  0  0  0  0  0
  -15.4173  -11.4402  -21.7190 H   0  0  0  0  0  0
  -13.3469  -11.1836  -20.6128 H   0  0  0  0  0  0
  -11.4259  -13.0149  -20.3422 H   0  0  0  0  0  0
  -10.8890   -9.6233  -23.1703 H   0  0  0  0  0  0
  -11.2367   -8.6034  -20.4333 H   0  0  0  0  0  0
  -13.0824   -9.0834  -22.2192 H   0  0  0  0  0  0
  -12.7120   -6.5943  -20.5310 H   0  0  0  0  0  0
  -15.9997   -7.8128  -21.6834 H   0  0  0  0  0  0
  -14.9938   -9.2855  -21.8977 H   0  0  0  0  0  0
  -16.7565   -8.7948  -19.4750 H   0  0  0  0  0  0
  -16.0486  -13.7865  -21.0924 H   0  0  0  0  0  0
  -17.3675  -12.6370  -20.6850 H   0  0  0  0  0  0
  -16.2894  -13.2620  -19.3913 H   0  0  0  0  0  0
  -18.1084   -8.8447  -21.6044 H   0  0  0  0  0  0
  -18.4440  -10.2538  -20.5421 H   0  0  0  0  0  0
  -17.3939  -10.4478  -21.9866 H   0  0  0  0  0  0
  -13.4239  -11.8430  -23.2303 H   0  0  0  0  0  0
  -14.8397  -12.9117  -22.9473 H   0  0  0  0  0  0
  -13.3117  -13.5981  -23.5958 H   0  0  0  0  0  0
  -14.1332  -11.9983  -18.2911 H   0  0  0  0  0  0
  -13.5223  -14.8916  -20.2349 H   0  0  0  0  0  0
  -11.4021  -15.1202  -21.8132 H   0  0  0  0  0  0
  -11.1059  -14.0314  -23.2108 H   0  0  0  0  0  0
   -8.6424   -8.6479  -22.9779 H   0  0  0  0  0  0
   -8.5569  -10.4399  -22.8881 H   0  0  0  0  0  0
   -8.4020   -9.4573  -21.3924 H   0  0  0  0  0  0
  -15.4453   -6.2756  -19.5208 H   0  0  0  0  0  0
  -14.0377   -6.7641  -18.5175 H   0  0  0  0  0  0
  -15.5424   -7.7449  -18.4920 H   0  0  0  0  0  0
  -13.1554   -9.8106  -20.3611 H   0  0  0  0  0  0
  -12.6376   -4.8187  -21.8882 H   0  0  0  0  0  0
  -15.4445   -4.4253  -23.1238 H   0  0  0  0  0  0
  -13.1228   -2.4505  -23.0108 H   0  0  0  0  0  0
  -14.3652   -1.1986  -21.1952 H   0  0  0  0  0  0
  -15.7164   -2.3790  -21.2831 H   0  0  0  0  0  0
  -12.8540   -2.9379  -20.3158 H   0  0  0  0  0  0
  -14.9084   -2.4303  -24.6357 H   0  0  0  0  0  0
  -14.3784   -1.8171  -18.6564 H   0  0  0  0  0  0
  -14.0699   -3.5280  -18.2040 H   0  0  0  0  0  0
  -15.6254   -3.0697  -18.9767 H   0  0  0  0  0  0
  -13.7615   -5.5220  -24.6335 H   0  0  0  0  0  0
  -13.5491   -0.3477  -23.5898 H   0  0  0  0  0  0
  -15.2445    0.2420  -23.5230 H   0  0  0  0  0  0
  -14.5482   -0.3151  -25.0823 H   0  0  0  0  0  0
   -9.1467   -8.0167  -20.1232 H   0  0  0  0  0  0
   -7.4713   -6.2033  -20.1417 H   0  0  0  0  0  0
   -7.8982   -6.4606  -21.8675 H   0  0  0  0  0  0
   -8.5694   -4.1214  -18.8788 H   0  0  0  0  0  0
  -11.1756   -4.9400  -20.2401 H   0  0  0  0  0  0
   -9.0973   -2.0092  -20.1538 H   0  0  0  0  0  0
  -10.2902   -4.4017  -24.0437 H   0  0  0  0  0  0
   -9.1308   -5.7153  -23.6475 H   0  0  0  0  0  0
   -8.5460   -4.0271  -23.8336 H   0  0  0  0  0  0
  -16.5210   -3.3022  -23.8613 H   0  0  0  0  0  0
  -16.4145   -2.1710  -25.2527 H   0  0  0  0  0  0
  -17.1109   -1.6138  -23.6934 H   0  0  0  0  0  0
  -11.3875   -3.6917  -17.9927 H   0  0  0  0  0  0
  -10.3515   -4.9504  -17.2383 H   0  0  0  0  0  0
  -11.9787   -5.3830  -17.8643 H   0  0  0  0  0  0
   -8.9988  -14.9458  -22.3223 H   0  0  0  0  0  0
   -9.3727  -14.2533  -20.7076 H   0  0  0  0  0  0
   -9.0765  -13.1644  -22.1051 H   0  0  0  0  0  0
  -11.7556   -8.2876  -24.1400 H   0  0  0  0  0  0
  -11.8269   -6.6145  -23.4902 H   0  0  0  0  0  0
  -13.3354   -7.4437  -24.0036 H   0  0  0  0  0  0
   -6.6609   -3.9318  -20.4881 H   0  0  0  0  0  0
   -7.6880   -2.7122  -21.3155 H   0  0  0  0  0  0
   -6.9560   -4.0565  -22.2556 H   0  0  0  0  0  0
  1  2  1  0  0  0
  1 13  1  0  0  0
  1 19  1  0  0  0
  1 52  1  0  0  0
  2  3  1  0  0  0
  2 22  1  0  0  0
  2 53  1  0  0  0
  3  4  1  0  0  0
  3 21  1  0  0  0
  3 23  1  0  0  0
  4  5  1  0  0  0
  4 24  1  0  0  0
  4 54  1  0  0  0
  5 15  1  0  0  0
  6  7  1  0  0  0
  6 15  1  0  0  0
  6 25  1  0  0  0
  6 55  1  0  0  0
  7  8  1  0  0  0
  7 17  1  0  0  0
  7 56  1  0  0  0
  8  9  1  0  0  0
  8 50  1  0  0  0
  8 57  1  0  0  0
  9 10  1  0  0  0
  9 18  1  0  0  0
  9 58  1  0  0  0
 10 11  1  0  0  0
 10 26  1  0  0  0
 10 27  1  0  0  0
 11 12  1  0  0  0
 11 59  1  0  0  0
 11 60  1  0  0  0
 12 13  1  0  0  0
 12 20  1  0  0  0
 12 61  1  0  0  0
 13 14  2  0  0  0
 15 16  2  0  0  0
 17 38  1  0  0  0
 18 28  1  0  0  0
 19 62  1  0  0  0
 19 63  1  0  0  0
 19 64  1  0  0  0
 20 65  1  0  0  0
 20 66  1  0  0  0
 20 67  1  0  0  0
 21 68  1  0  0  0
 21 69  1  0  0  0
 21 70  1  0  0  0
 22 71  1  0  0  0
 23 72  1  0  0  0
 24 49  1  0  0  0
 24 73  1  0  0  0
 24 74  1  0  0  0
 25 75  1  0  0  0
 25 76  1  0  0  0
 25 77  1  0  0  0
 26 78  1  0  0  0
 26 79  1  0  0  0
 26 80  1  0  0  0
 27 81  1  0  0  0
 28 29  1  0  0  0
 28 33  1  0  0  0
 28 82  1  0  0  0
 29 30  1  0  0  0
 29 36  1  0  0  0
 29 83  1  0  0  0
 30 31  1  0  0  0
 30 34  1  0  0  0
 30 84  1  0  0  0
 31 32  1  0  0  0
 31 85  1  0  0  0
 31 86  1  0  0  0
 32 33  1  0  0  0
 32 35  1  0  0  0
 32 87  1  0  0  0
 34 37  1  0  0  0
 34 47  1  0  0  0
 34 88  1  0  0  0
 35 89  1  0  0  0
 35 90  1  0  0  0
 35 91  1  0  0  0
 36 92  1  0  0  0
 37 93  1  0  0  0
 37 94  1  0  0  0
 37 95  1  0  0  0
 38 39  1  0  0  0
 38 43  1  0  0  0
 38 96  1  0  0  0
 39 40  1  0  0  0
 39 97  1  0  0  0
 39 98  1  0  0  0
 40 41  1  0  0  0
 40 44  1  0  0  0
 40 51  1  0  0  0
 41 42  1  0  0  0
 41 45  1  0  0  0
 41 99  1  0  0  0
 42 43  1  0  0  0
 42 48  1  0  0  0
 42100  1  0  0  0
 44 46  1  0  0  0
 45101  1  0  0  0
 46102  1  0  0  0
 46103  1  0  0  0
 46104  1  0  0  0
 47105  1  0  0  0
 47106  1  0  0  0
 47107  1  0  0  0
 48108  1  0  0  0
 48109  1  0  0  0
 48110  1  0  0  0
 49111  1  0  0  0
 49112  1  0  0  0
 49113  1  0  0  0
 50114  1  0  0  0
 50115  1  0  0  0
 50116  1  0  0  0
 51117  1  0  0  0
 51118  1  0  0  0
 51119  1  0  0  0
M  CHG  1  34   1
M  END
> <s_m_source_file>
../2iyf_ligand.sdf

> <i_m_source_file_index>
1

> <s_epik_input>
W0NIM11bQ0BdMShbT0hdKVtDQEhdKFtPSF0pW0NAQEhdKFtDSDNdKUMoPU8pW0NASF0oW0NIM10pW0NIMl1bQ0BAXShbQ0gzXSkoW09IXSlbQ0BIXShPW0NASF0yW0NASF0oW09IXSlbQ0BASF0oW05IK10oW0NIM10pW0NIM10pW0NIMl1bQ0BIXShPMilbQ0gzXSlbQ0BASF0oW0NIM10pW0NAQEhdKFtDQEBIXShbQ0gzXSlDKD1PKU9bQ0BASF0xW0NIMl1bQ0gzXSlPW0NAQEhdKFtDSDJdW0NAQF0zKFtDSDNdKU9bQ0gzXSlPW0NAQEhdKFtDSDNdKVtDQEBIXTNbT0hd

> <s_epik_cmdline>
J2VwaWtfYXBwJywgJy1pbWFlJywgJ2xpZ2FuZF9wcm8ubWFlJywgJy1vbWFlJywgJ2xpZ2FuZF9wcmVwLm1hZScsICctbXMnLCAnMScsICctcGgnLCAnNycsICctcGh0JywgJzAuNScsICctbnQn

> <r_lp_tautomer_probability>
1

> <r_epik_Ionization_Penalty>
  0.0091

> <r_epik_Ionization_Penalty_Charging>
  0.0091

> <r_epik_Ionization_Penalty_Neutral>
  0.0000

> <r_epik_State_Penalty>
 -0.0000

> <r_epik_Charging_Adjusted_Penalty>
0.00908465940245015

> <i_epik_Tot_Q>
1

> <i_epik_Tot_abs_Q>
1

> <s_epik_Chemistry_Notes>
This compound has an ester and may undergo hydrolysis at high or low pH. This compound contains an acetal/aminal-like group ( X-CH(R)-Y where X, Y are N, S, or O) that may be acid/base labile, releasing an aldehyde.

$$$$
