2izl_ligand
                    3D
 Schrodinger Suite 2020-3.
 33 34  0  0  1  0            999 V2000
   29.2980   14.3270   -9.8890 C   0  0  0  0  0  0
   28.0900   14.1070   -9.8120 O   0  5  0  0  0  0
   30.0100   13.9020  -10.7890 O   0  0  0  0  0  0
   29.9750   15.2140   -8.8110 C   0  0  0  0  0  0
   31.4330   14.8050   -8.4620 C   0  0  0  0  0  0
   31.4760   13.4260   -7.7710 C   0  0  0  0  0  0
   32.8560   13.2180   -7.1340 C   0  0  0  0  0  0
   32.8280   11.9210   -6.2780 C   0  0  2  0  0  0
   32.0850   12.0150   -4.6360 S   0  0  0  0  0  0
   32.8850   10.4480   -4.1980 C   0  0  0  0  0  0
   34.2070   10.2490   -4.9770 C   0  0  2  0  0  0
   35.3210   10.7870   -4.1460 N   0  3  0  0  0  0
   35.8070   11.8830   -4.6390 C   0  0  0  0  0  0
   36.7610   12.5430   -4.0600 N   0  0  0  0  0  0
   35.2340   12.2360   -5.7600 N   0  0  0  0  0  0
   34.2240   11.2500   -6.2010 C   0  0  2  0  0  0
   30.0107   16.2556   -9.1628 H   0  0  0  0  0  0
   29.3962   15.1621   -7.8770 H   0  0  0  0  0  0
   32.0302   14.7539   -9.3843 H   0  0  0  0  0  0
   31.8706   15.5514   -7.7828 H   0  0  0  0  0  0
   30.7012   13.3822   -6.9914 H   0  0  0  0  0  0
   31.2923   12.6371   -8.5152 H   0  0  0  0  0  0
   33.6146   13.1240   -7.9250 H   0  0  0  0  0  0
   33.0982   14.0795   -6.4943 H   0  0  0  0  0  0
   32.2580   11.3183   -7.0004 H   0  0  0  0  0  0
   33.1108   10.4399   -3.1214 H   0  0  0  0  0  0
   32.2107    9.6125   -4.4375 H   0  0  0  0  0  0
   34.3243    9.1813   -5.2141 H   0  0  0  0  0  0
   35.7387   10.3685   -3.2184 H   0  0  0  0  0  0
   37.1893   12.1759   -3.1156 H   0  0  0  0  0  0
   35.4225   13.1371   -6.3621 H   0  0  0  0  0  0
   34.4752   10.8411   -7.1908 H   0  0  0  0  0  0
   37.1421   13.4700   -4.5131 H   0  0  0  0  0  0
  1  4  1  0  0  0
  1  3  2  0  0  0
  1  2  1  0  0  0
  4  5  1  0  0  0
  4 17  1  0  0  0
  4 18  1  0  0  0
  5  6  1  0  0  0
  5 19  1  0  0  0
  5 20  1  0  0  0
  6  7  1  0  0  0
  6 21  1  0  0  0
  6 22  1  0  0  0
  7  8  1  0  0  0
  7 23  1  0  0  0
  7 24  1  0  0  0
  8 16  1  0  0  0
  8  9  1  0  0  0
  8 25  1  0  0  0
  9 10  1  0  0  0
 10 11  1  0  0  0
 10 26  1  0  0  0
 10 27  1  0  0  0
 11 16  1  0  0  0
 11 12  1  0  0  0
 11 28  1  0  0  0
 12 13  2  0  0  0
 12 29  1  0  0  0
 13 15  1  0  0  0
 13 14  1  0  0  0
 14 30  1  0  0  0
 14 33  1  0  0  0
 15 16  1  0  0  0
 15 31  1  0  0  0
 16 32  1  0  0  0
M  CHG  2   2  -1  12   1
M  END
> <s_m_source_file>
../2izl_ligand.sdf

> <i_m_source_file_index>
1

> <s_epik_input>
W09IXUMoPU8pW0NIMl1bQ0gyXVtDSDJdW0NIMl1bQ0BIXShTW0NIMl0xKVtDQEhdKFtDQEhdMTIpW05IXUMoXFtOSF0yKT1OXFtIXQ==

> <s_epik_cmdline>
J2VwaWtfYXBwJywgJy1pbWFlJywgJ2xpZ2FuZF9wcm8ubWFlJywgJy1vbWFlJywgJ2xpZ2FuZF9wcmVwLm1hZScsICctbXMnLCAnMScsICctcGgnLCAnNycsICctcGh0JywgJzAuNScsICctbnQn

> <r_epik_Ionization_Penalty>
  0.0210

> <r_epik_Ionization_Penalty_Charging>
  0.0210

> <r_epik_Ionization_Penalty_Neutral>
  0.0000

> <r_epik_State_Penalty>
  0.0132

> <r_epik_Charging_Adjusted_Penalty>
0.0341369575222767

> <i_epik_Tot_Q>
0

> <i_epik_Tot_abs_Q>
2

> <s_epik_Chemistry_Notes>
This compound has an imine and may undergo hydrolysis.

$$$$
