2j2u_ligand
                    3D
 Schrodinger Suite 2020-3.
 52 55  0  0  1  0            999 V2000
   13.9850    7.5280   26.1870 Cl  0  0  0  0  0  0
   12.2480    7.6990   26.1510 C   0  0  0  0  0  0
   11.4930    7.1820   27.2330 C   0  0  0  0  0  0
   10.0900    7.2970   27.1870 C   0  0  0  0  0  0
    9.4790    7.9410   26.0830 C   0  0  0  0  0  0
    8.1520    8.1990   25.7840 N   0  0  0  0  0  0
   10.2540    8.4820   24.9880 C   0  0  0  0  0  0
   11.6420    8.3570   25.0530 C   0  0  0  0  0  0
    9.3720    9.0700   24.0370 C   0  0  0  0  0  0
    8.1090    8.8410   24.5920 C   0  0  0  0  0  0
    6.5310    9.2820   24.0070 S   0  0  0  0  0  0
    5.6650    9.1730   25.1390 O   0  0  0  0  0  0
    6.6080   10.5090   23.2790 O   0  0  0  0  0  0
    6.0030    8.2680   22.8500 N   0  0  3  0  0  0
    6.1900    6.8190   22.8420 C   0  0  2  0  0  0
    7.0710    6.2480   21.7330 C   0  0  0  0  0  0
    8.1360    6.7260   21.3350 O   0  0  0  0  0  0
    4.8490    6.0750   22.7180 C   0  0  0  0  0  0
    5.0510    5.0650   21.5780 C   0  0  0  0  0  0
    6.4880    5.1170   21.2860 N   0  0  0  0  0  0
    7.2540    4.0430   20.6140 C   0  0  1  0  0  0
    6.9970    2.7010   21.3190 C   0  0  0  0  0  0
    7.0000    3.8700   19.1120 C   0  0  0  0  0  0
    5.8610    4.0100   18.6740 O   0  0  0  0  0  0
    8.0520    3.5530   18.2950 N   0  0  0  0  0  0
    9.2600    2.7890   18.6630 C   0  0  0  0  0  0
    9.6150    1.6910   17.6480 C   0  0  0  0  0  0
    9.6060    2.2560   16.3370 O   0  0  0  0  0  0
    8.3310    2.7880   15.9710 C   0  0  0  0  0  0
    8.0200    3.9780   16.8890 C   0  0  0  0  0  0
   11.9863    6.7066   28.0808 H   0  0  0  0  0  0
    9.4791    6.8936   27.9946 H   0  0  0  0  0  0
   12.2622    8.7672   24.2560 H   0  0  0  0  0  0
    9.6208    9.5754   23.1038 H   0  0  0  0  0  0
    5.6156    8.7775   21.9554 H   0  0  0  0  0  0
    6.7013    6.7131   23.8102 H   0  0  0  0  0  0
    4.6202    5.5707   23.6685 H   0  0  0  0  0  0
    4.0508    6.7946   22.4833 H   0  0  0  0  0  0
    4.7380    4.0654   21.9140 H   0  0  0  0  0  0
    4.4462    5.3661   20.7099 H   0  0  0  0  0  0
    8.2893    4.4005   20.7153 H   0  0  0  0  0  0
    7.1764    2.8136   22.3984 H   0  0  0  0  0  0
    7.6760    1.9372   20.9121 H   0  0  0  0  0  0
    5.9547    2.3922   21.1508 H   0  0  0  0  0  0
   10.1200    3.4718   18.7279 H   0  0  0  0  0  0
    9.1037    2.3026   19.6372 H   0  0  0  0  0  0
   10.6144    1.2913   17.8748 H   0  0  0  0  0  0
    8.8735    0.8809   17.7098 H   0  0  0  0  0  0
    8.3592    3.1193   14.9225 H   0  0  0  0  0  0
    7.5617    2.0107   16.0893 H   0  0  0  0  0  0
    7.0208    4.3692   16.6469 H   0  0  0  0  0  0
    8.7711    4.7651   16.7266 H   0  0  0  0  0  0
  1  2  1  0  0  0
  2  3  2  0  0  0
  2  8  1  0  0  0
  3  4  1  0  0  0
  3 31  1  0  0  0
  4  5  2  0  0  0
  4 32  1  0  0  0
  5  6  1  0  0  0
  5  7  1  0  0  0
  6 10  2  0  0  0
  7  8  2  0  0  0
  7  9  1  0  0  0
  8 33  1  0  0  0
  9 10  1  0  0  0
  9 34  1  0  0  0
 10 11  1  0  0  0
 11 12  2  0  0  0
 11 13  2  0  0  0
 11 14  1  0  0  0
 14 15  1  0  0  0
 14 35  1  0  0  0
 15 16  1  0  0  0
 15 18  1  0  0  0
 15 36  1  0  0  0
 16 17  2  0  0  0
 16 20  1  0  0  0
 18 19  1  0  0  0
 18 37  1  0  0  0
 18 38  1  0  0  0
 19 20  1  0  0  0
 19 39  1  0  0  0
 19 40  1  0  0  0
 20 21  1  0  0  0
 21 22  1  0  0  0
 21 23  1  0  0  0
 21 41  1  0  0  0
 22 42  1  0  0  0
 22 43  1  0  0  0
 22 44  1  0  0  0
 23 24  2  0  0  0
 23 25  1  0  0  0
 25 26  1  0  0  0
 25 30  1  0  0  0
 26 27  1  0  0  0
 26 45  1  0  0  0
 26 46  1  0  0  0
 27 28  1  0  0  0
 27 47  1  0  0  0
 27 48  1  0  0  0
 28 29  1  0  0  0
 29 30  1  0  0  0
 29 49  1  0  0  0
 29 50  1  0  0  0
 30 51  1  0  0  0
 30 52  1  0  0  0
M  END
> <s_m_source_file>
../2j2u_ligand.sdf

> <i_m_source_file_index>
1

> <s_epik_input>
W2NIXTFbY0hdYyhDbClbY0hdYyhjMTIpW0NIMl1DKD1OMilTKD1PKSg9TylbTkhdW0NAQEhdM0MoPU8pTihbQ0gyXVtDSDJdMylbQ0BASF0oW0NIM10pQyg9TylONFtDSDJdW0NIMl1PW0NIMl1bQ0gyXTQ=

> <s_epik_cmdline>
J2VwaWtfYXBwJywgJy1pbWFlJywgJ2xpZ2FuZF9wcm8ubWFlJywgJy1vbWFlJywgJ2xpZ2FuZF9wcmVwLm1hZScsICctbXMnLCAnMScsICctcGgnLCAnNycsICctcGh0JywgJzAuNScsICctbnQn

> <r_lp_tautomer_probability>
1

> <r_epik_Ionization_Penalty>
  0.0003

> <r_epik_Ionization_Penalty_Charging>
  0.0000

> <r_epik_Ionization_Penalty_Neutral>
  0.0003

> <r_epik_State_Penalty>
 -0.0000

> <r_epik_Charging_Adjusted_Penalty>
0

> <i_epik_Tot_Q>
0

> <i_epik_Tot_abs_Q>
0

> <s_epik_Chemistry_Notes>
This compound has an imine and may undergo hydrolysis.

$$$$
