2j34_ligand
                    3D
 Schrodinger Suite 2020-3.
 52 55  0  0  1  0            999 V2000
   13.7680    7.3080   26.6650 Cl  0  0  0  0  0  0
   12.0620    7.5350   26.3870 C   0  0  0  0  0  0
   11.6350    8.1390   25.1910 C   0  0  0  0  0  0
   10.2390    8.3210   24.9260 C   0  0  0  0  0  0
    9.3090    7.8670   25.8950 C   0  0  0  0  0  0
    7.9530    8.1060   25.5240 C   0  0  0  0  0  0
    9.7370    7.2670   27.1030 C   0  0  0  0  0  0
   11.1190    7.0970   27.3590 C   0  0  0  0  0  0
    7.9630    8.7240   24.2400 C   0  0  0  0  0  0
    6.4580    9.1250   23.4830 S   0  0  0  0  0  0
    5.4740    9.1170   24.5050 O   0  0  0  0  0  0
    6.5920   10.3140   22.6940 O   0  0  0  0  0  0
    6.0530    8.0100   22.3610 N   0  0  3  0  0  0
    6.1290    6.5490   22.5640 C   0  0  1  0  0  0
    4.7840    5.8390   22.3370 C   0  0  0  0  0  0
    5.1260    4.5170   21.6280 C   0  0  0  0  0  0
    7.1340    5.7510   21.7220 C   0  0  0  0  0  0
    8.2730    6.1080   21.4510 O   0  0  0  0  0  0
    6.5620    4.5870   21.3350 N   0  0  0  0  0  0
    7.3350    3.4890   20.6800 C   0  0  1  0  0  0
    7.0070    2.0910   21.2540 C   0  0  0  0  0  0
    7.1130    3.4600   19.1730 C   0  0  0  0  0  0
    6.1400    4.0560   18.7300 O   0  0  0  0  0  0
    8.0040    2.7860   18.3790 N   0  0  0  0  0  0
    7.7220    2.7270   16.9360 C   0  0  0  0  0  0
    8.9900    2.7460   16.0710 C   0  0  0  0  0  0
    9.9140    1.7640   16.5410 O   0  0  0  0  0  0
   10.3830    2.0710   17.8490 C   0  0  0  0  0  0
    9.2290    2.0910   18.8520 C   0  0  0  0  0  0
    9.5280    9.0060   23.5500 S   0  0  0  0  0  0
   12.3720    8.4713   24.4599 H   0  0  0  0  0  0
    7.0703    7.8608   26.1146 H   0  0  0  0  0  0
    9.0023    6.9355   27.8368 H   0  0  0  0  0  0
   11.4563    6.6370   28.2878 H   0  0  0  0  0  0
    5.8641    8.4166   21.3565 H   0  0  0  0  0  0
    6.4707    6.5876   23.6089 H   0  0  0  0  0  0
    4.2964    5.6587   23.3064 H   0  0  0  0  0  0
    4.1360    6.4719   21.7128 H   0  0  0  0  0  0
    4.8933    3.6729   22.2939 H   0  0  0  0  0  0
    4.5323    4.4311   20.7060 H   0  0  0  0  0  0
    8.3810    3.7491   20.8998 H   0  0  0  0  0  0
    7.1627    2.0960   22.3429 H   0  0  0  0  0  0
    7.6666    1.3413   20.7927 H   0  0  0  0  0  0
    5.9584    1.8414   21.0347 H   0  0  0  0  0  0
    7.1771    1.7994   16.7065 H   0  0  0  0  0  0
    7.1092    3.5934   16.6464 H   0  0  0  0  0  0
    8.7248    2.5241   15.0268 H   0  0  0  0  0  0
    9.4574    3.7402   16.1273 H   0  0  0  0  0  0
   11.1126    1.3107   18.1647 H   0  0  0  0  0  0
   10.8636    3.0604   17.8434 H   0  0  0  0  0  0
    9.6055    2.5877   19.7584 H   0  0  0  0  0  0
    8.9901    1.0420   19.0811 H   0  0  0  0  0  0
  1  2  1  0  0  0
  2  3  2  0  0  0
  2  8  1  0  0  0
  3  4  1  0  0  0
  3 31  1  0  0  0
  4  5  2  0  0  0
  4 30  1  0  0  0
  5  6  1  0  0  0
  5  7  1  0  0  0
  6  9  2  0  0  0
  6 32  1  0  0  0
  7  8  2  0  0  0
  7 33  1  0  0  0
  8 34  1  0  0  0
  9 10  1  0  0  0
  9 30  1  0  0  0
 10 11  2  0  0  0
 10 12  2  0  0  0
 10 13  1  0  0  0
 13 14  1  0  0  0
 13 35  1  0  0  0
 14 15  1  0  0  0
 14 17  1  0  0  0
 14 36  1  0  0  0
 15 16  1  0  0  0
 15 37  1  0  0  0
 15 38  1  0  0  0
 16 19  1  0  0  0
 16 39  1  0  0  0
 16 40  1  0  0  0
 17 18  2  0  0  0
 17 19  1  0  0  0
 19 20  1  0  0  0
 20 21  1  0  0  0
 20 22  1  0  0  0
 20 41  1  0  0  0
 21 42  1  0  0  0
 21 43  1  0  0  0
 21 44  1  0  0  0
 22 23  2  0  0  0
 22 24  1  0  0  0
 24 25  1  0  0  0
 24 29  1  0  0  0
 25 26  1  0  0  0
 25 45  1  0  0  0
 25 46  1  0  0  0
 26 27  1  0  0  0
 26 47  1  0  0  0
 26 48  1  0  0  0
 27 28  1  0  0  0
 28 29  1  0  0  0
 28 49  1  0  0  0
 28 50  1  0  0  0
 29 51  1  0  0  0
 29 52  1  0  0  0
M  END
> <s_m_source_file>
../2j34_ligand.sdf

> <i_m_source_file_index>
1

> <s_epik_input>
Q2xjKFtjSF0xKVtjSF1bY0hdYyhjMTIpW2NIXWMoczIpUyg9TykoPU8pW05IXVtDQEhdM1tDSDJdW0NIMl1OKEMzPU8pW0NAQEhdKFtDSDNdKUMoPU8pTjRbQ0gyXVtDSDJdT1tDSDJdW0NIMl00

> <s_epik_cmdline>
J2VwaWtfYXBwJywgJy1pbWFlJywgJ2xpZ2FuZF9wcm8ubWFlJywgJy1vbWFlJywgJ2xpZ2FuZF9wcmVwLm1hZScsICctbXMnLCAnMScsICctcGgnLCAnNycsICctcGh0JywgJzAuNScsICctbnQn

> <r_lp_tautomer_probability>
1

> <r_epik_Ionization_Penalty>
  0.0070

> <r_epik_Ionization_Penalty_Charging>
  0.0000

> <r_epik_Ionization_Penalty_Neutral>
  0.0070

> <r_epik_State_Penalty>
 -0.0000

> <r_epik_Charging_Adjusted_Penalty>
0

> <i_epik_Tot_Q>
0

> <i_epik_Tot_abs_Q>
0

$$$$
