2j3q_ligand
                    3D
 Schrodinger Suite 2020-3.
 38 40  0  0  1  0            999 V2000
  -23.6730  110.3450   39.8380 C   0  0  0  0  0  0
  -22.8280  110.8850   38.7660 C   0  0  0  0  0  0
  -21.5980  111.6120   39.0710 C   0  0  0  0  0  0
  -21.1930  111.8150   40.4530 C   0  0  0  0  0  0
  -22.0560  111.2870   41.4870 C   0  0  0  0  0  0
  -23.2560  110.5770   41.1920 C   0  0  0  0  0  0
  -19.8790  112.5630   40.8620 C   0  0  3  0  0  0
  -19.2620  112.8740   42.0950 N   0  0  0  0  0  0
  -18.0390  113.5590   41.9960 C   0  0  0  0  0  0
  -18.9000  113.1310   39.5010 S   0  0  0  0  0  0
  -17.6880  113.7710   40.5450 C   0  0  0  0  0  0
  -16.4800  114.4360   40.1540 C   0  0  0  0  0  0
  -15.5800  114.8900   41.1870 C   0  0  0  0  0  0
  -15.9030  114.6890   42.5750 C   0  0  0  0  0  0
  -17.1020  114.0360   42.9650 C   0  0  0  0  0  0
  -14.2830  115.5930   40.8380 O   0  0  0  0  0  0
  -24.9090  109.5780   39.5790 N   0  0  0  0  0  0
  -25.3910  109.2780   38.2090 C   0  0  0  0  0  0
  -25.7230  109.0460   40.7000 C   0  0  0  0  0  0
  -19.8520  112.5270   43.4220 C   0  0  0  0  0  0
  -23.1227  110.7414   37.7265 H   0  0  0  0  0  0
  -20.9825  112.0031   38.2609 H   0  0  0  0  0  0
  -21.7782  111.4377   42.5302 H   0  0  0  0  0  0
  -23.8698  110.2024   42.0112 H   0  0  0  0  0  0
  -20.3789  112.3308   41.8139 H   0  0  0  0  0  0
  -16.2465  114.5951   39.1013 H   0  0  0  0  0  0
  -15.2142  115.0447   43.3413 H   0  0  0  0  0  0
  -17.3125  113.8954   44.0252 H   0  0  0  0  0  0
  -14.0134  115.7587   39.7845 H   0  0  0  0  0  0
  -24.7058  109.7243   37.4733 H   0  0  0  0  0  0
  -26.3983  109.6989   38.0744 H   0  0  0  0  0  0
  -25.4264  108.1883   38.0632 H   0  0  0  0  0  0
  -25.2630  109.3349   41.6565 H   0  0  0  0  0  0
  -25.7687  107.9491   40.6316 H   0  0  0  0  0  0
  -26.7406  109.4597   40.6428 H   0  0  0  0  0  0
  -20.8041  111.9967   43.2726 H   0  0  0  0  0  0
  -20.0315  113.4483   43.9956 H   0  0  0  0  0  0
  -19.1550  111.8804   43.9754 H   0  0  0  0  0  0
  1  2  2  0  0  0
  1  6  1  0  0  0
  1 17  1  0  0  0
  2  3  1  0  0  0
  2 21  1  0  0  0
  3  4  2  0  0  0
  3 22  1  0  0  0
  4  5  1  0  0  0
  4  7  1  0  0  0
  5  6  2  0  0  0
  5 23  1  0  0  0
  6 24  1  0  0  0
  7  8  1  0  0  0
  7 10  1  0  0  0
  7 25  1  0  0  0
  8  9  1  0  0  0
  8 20  1  0  0  0
  9 11  2  0  0  0
  9 15  1  0  0  0
 10 11  1  0  0  0
 11 12  1  0  0  0
 12 13  2  0  0  0
 12 26  1  0  0  0
 13 14  1  0  0  0
 13 16  1  0  0  0
 14 15  2  0  0  0
 14 27  1  0  0  0
 15 28  1  0  0  0
 16 29  1  0  0  0
 17 18  1  0  0  0
 17 19  1  0  0  0
 18 30  1  0  0  0
 18 31  1  0  0  0
 18 32  1  0  0  0
 19 33  1  0  0  0
 19 34  1  0  0  0
 19 35  1  0  0  0
 20 36  1  0  0  0
 20 37  1  0  0  0
 20 38  1  0  0  0
M  END
> <s_m_source_file>
../2j3q_ligand.sdf

> <i_m_source_file_index>
1

> <s_epik_input>
W0NIM11OKFtDSDNdKWMxW2NIXVtjSF1jKFtjSF1bY0hdMSlbQ0hdKE4yW0NIM10pU2MoYzIzKVtjSF1jKFtPSF0pW2NIXVtjSF0z

> <s_epik_cmdline>
J2VwaWtfYXBwJywgJy1pbWFlJywgJ2xpZ2FuZF9wcm8ubWFlJywgJy1vbWFlJywgJ2xpZ2FuZF9wcmVwLm1hZScsICctbXMnLCAnMScsICctcGgnLCAnNycsICctcGh0JywgJzAuNScsICctbnQn

> <r_lp_tautomer_probability>
0.999999999997365

> <r_epik_Ionization_Penalty>
  0.0490

> <r_epik_Ionization_Penalty_Charging>
  0.0000

> <r_epik_Ionization_Penalty_Neutral>
  0.0490

> <r_epik_State_Penalty>
  0.0404

> <r_epik_Charging_Adjusted_Penalty>
0.0404198127185226

> <i_epik_Tot_Q>
0

> <i_epik_Tot_abs_Q>
0

> <s_epik_Chemistry_Notes>
This compound contains an acetal/aminal-like group ( X-CH(R)-Y where X, Y are N, S, or O) that may be acid/base labile, releasing an aldehyde.

$$$$
