2j47_ligand
                    3D
 Schrodinger Suite 2020-3.
 46 48  0  0  1  0            999 V2000
    3.0100   -6.4480   34.3000 O   0  0  0  0  0  0
    3.2140   -7.6070   34.6270 C   0  0  0  0  0  0
    4.0590   -7.9390   35.8400 C   0  0  0  0  0  0
    2.7230   -8.7070   34.0160 N   0  0  0  0  0  0
    1.8830   -8.6750   32.8270 C   0  0  2  0  0  0
    2.7340   -8.3220   31.5950 C   0  0  1  0  0  0
    3.1570   -9.5410   30.9620 O   0  0  0  0  0  0
    1.9610   -7.3370   30.6650 C   0  0  2  0  0  0
    2.7910   -7.0590   29.5500 O   0  0  0  0  0  0
    1.6360   -6.0050   31.4510 C   0  0  1  0  0  0
    1.0760   -4.9320   30.4980 C   0  0  0  0  0  0
   -0.0400   -5.3970   29.7370 O   0  0  0  0  0  0
    0.6770   -7.7480   32.9170 C   0  0  0  0  0  0
    0.6290   -6.5290   32.3460 N   0  0  0  0  0  0
   -0.6280   -6.0480   32.6320 C   0  0  0  0  0  0
   -1.2640   -6.9870   33.4310 C   0  0  0  0  0  0
   -0.4310   -8.0320   33.6020 N   0  0  0  0  0  0
   -2.5440   -6.9170   33.9830 C   0  0  0  0  0  0
   -3.2380   -5.9440   33.7790 O   0  0  0  0  0  0
   -2.9620   -8.0020   34.6850 N   0  0  0  0  0  0
   -4.2070   -8.1070   35.3040 C   0  0  0  0  0  0
   -4.9020   -9.3190   35.4250 C   0  0  0  0  0  0
   -6.1220   -9.4030   36.1220 C   0  0  0  0  0  0
   -6.6610   -8.2640   36.7180 C   0  0  0  0  0  0
   -5.9870   -7.0530   36.6100 C   0  0  0  0  0  0
   -4.7570   -6.9750   35.9210 C   0  0  0  0  0  0
    4.4299   -7.0084   36.2943 H   0  0  0  0  0  0
    4.9117   -8.5625   35.5333 H   0  0  0  0  0  0
    3.4488   -8.4871   36.5730 H   0  0  0  0  0  0
    2.9945   -9.6706   34.4718 H   0  0  0  0  0  0
    1.4848   -9.6997   32.7884 H   0  0  0  0  0  0
    3.6933   -7.8531   31.8594 H   0  0  0  0  0  0
    3.7095  -10.2973   31.5389 H   0  0  0  0  0  0
    1.0507   -7.7822   30.2369 H   0  0  0  0  0  0
    3.1160   -7.8760   28.8890 H   0  0  0  0  0  0
    2.4427   -5.4964   31.9992 H   0  0  0  0  0  0
    0.7454   -4.0600   31.0814 H   0  0  0  0  0  0
    1.8604   -4.6241   29.7910 H   0  0  0  0  0  0
   -0.5330   -4.7264   29.0178 H   0  0  0  0  0  0
   -1.0478   -5.1011   32.2925 H   0  0  0  0  0  0
   -2.3013   -8.8748   34.7936 H   0  0  0  0  0  0
   -4.4874  -10.2177   34.9683 H   0  0  0  0  0  0
   -6.6443  -10.3569   36.1956 H   0  0  0  0  0  0
   -7.6026   -8.3224   37.2639 H   0  0  0  0  0  0
   -6.4116   -6.1561   37.0610 H   0  0  0  0  0  0
   -4.2288   -6.0230   35.8683 H   0  0  0  0  0  0
  1  2  2  0  0  0
  2  3  1  0  0  0
  2  4  1  0  0  0
  3 27  1  0  0  0
  3 28  1  0  0  0
  3 29  1  0  0  0
  4  5  1  0  0  0
  4 30  1  0  0  0
  5  6  1  0  0  0
  5 13  1  0  0  0
  5 31  1  0  0  0
  6  7  1  0  0  0
  6  8  1  0  0  0
  6 32  1  0  0  0
  7 33  1  0  0  0
  8  9  1  0  0  0
  8 10  1  0  0  0
  8 34  1  0  0  0
  9 35  1  0  0  0
 10 11  1  0  0  0
 10 14  1  0  0  0
 10 36  1  0  0  0
 11 12  1  0  0  0
 11 37  1  0  0  0
 11 38  1  0  0  0
 12 39  1  0  0  0
 13 14  1  0  0  0
 13 17  2  0  0  0
 14 15  1  0  0  0
 15 16  2  0  0  0
 15 40  1  0  0  0
 16 17  1  0  0  0
 16 18  1  0  0  0
 18 19  2  0  0  0
 18 20  1  0  0  0
 20 21  1  0  0  0
 20 41  1  0  0  0
 21 22  2  0  0  0
 21 26  1  0  0  0
 22 23  1  0  0  0
 22 42  1  0  0  0
 23 24  2  0  0  0
 23 43  1  0  0  0
 24 25  1  0  0  0
 24 44  1  0  0  0
 25 26  2  0  0  0
 25 45  1  0  0  0
 26 46  1  0  0  0
M  END
> <s_m_source_file>
../2j47_ligand.sdf

> <i_m_source_file_index>
1

> <s_epik_input>
Tz1DKFtDSDNdKVtOSF1bQ0BASF0xW0NAQEhdKFtPSF0pW0NASF0oW09IXSlbQ0BASF0oW0NIMl1bT0hdKW4oYzEyKVtjSF1jKG4yKUMoPU8pW05IXWMzW2NIXVtjSF1bY0hdW2NIXVtjSF0z

> <s_epik_cmdline>
J2VwaWtfYXBwJywgJy1pbWFlJywgJ2xpZ2FuZF9wcm8ubWFlJywgJy1vbWFlJywgJ2xpZ2FuZF9wcmVwLm1hZScsICctbXMnLCAnMScsICctcGgnLCAnNycsICctcGh0JywgJzAuNScsICctbnQn

> <r_lp_tautomer_probability>
1

> <r_epik_Ionization_Penalty>
  0.0011

> <r_epik_Ionization_Penalty_Charging>
  0.0011

> <r_epik_Ionization_Penalty_Neutral>
  0.0000

> <r_epik_State_Penalty>
 -0.0000

> <r_epik_Charging_Adjusted_Penalty>
0.0010712612208907

> <i_epik_Tot_Q>
0

> <i_epik_Tot_abs_Q>
0

$$$$
