2j4a_ligand
                    3D
 Schrodinger Suite 2020-3.
 41 42  0  0  1  0            999 V2000
    6.4900   19.0420   32.8500 C   0  0  0  0  0  0
    2.3540   21.7550   31.3060 C   0  0  0  0  0  0
    5.8470   20.0310   33.6580 C   0  0  0  0  0  0
    1.4270   22.6970   31.7290 C   0  0  0  0  0  0
    4.5460   20.4980   33.3470 C   0  0  0  0  0  0
    1.2520   23.9740   31.1480 C   0  0  0  0  0  0
    3.7950   20.0060   32.2010 C   0  0  0  0  0  0
    2.0540   24.3780   30.0420 C   0  0  0  0  0  0
    4.4840   19.0210   31.4300 C   0  0  0  0  0  0
    3.0060   23.4380   29.5910 C   0  0  0  0  0  0
    5.7610   18.5620   31.7330 C   0  0  0  0  0  0
    3.1370   22.1820   30.2080 C   0  0  0  0  0  0
    7.8520   18.6100   33.2760 C   0  0  0  0  0  0
    8.2320   17.1570   32.9820 C   0  0  0  0  0  0
    3.7580   21.8140   34.4760 Br  0  0  0  0  0  0
    0.2020   24.9570   31.6810 C   0  0  0  0  0  0
    3.5920   18.3280   29.9380 Br  0  0  0  0  0  0
    2.4840   20.4930   31.9240 O   0  0  0  0  0  0
    1.9230   25.6120   29.4400 O   0  0  0  0  0  0
    9.6320   16.8450   33.4760 C   0  0  0  0  0  0
    0.9380   25.7200   32.8070 C   0  0  0  0  0  0
   10.5350   17.5640   33.0370 O   0  5  0  0  0  0
    9.8080   15.9150   34.2490 O   0  0  0  0  0  0
   -1.0650   24.2530   32.1980 C   0  0  0  0  0  0
    6.3666   20.4325   34.5280 H   0  0  0  0  0  0
    0.7869   22.4331   32.5708 H   0  0  0  0  0  0
    3.6508   23.6908   28.7494 H   0  0  0  0  0  0
    6.2165   17.8084   31.0906 H   0  0  0  0  0  0
    3.8875   21.4952   29.8167 H   0  0  0  0  0  0
    8.6079   19.2265   32.7676 H   0  0  0  0  0  0
    7.9515   18.7317   34.3647 H   0  0  0  0  0  0
    7.5237   16.4835   33.4867 H   0  0  0  0  0  0
    8.1956   16.9808   31.8968 H   0  0  0  0  0  0
   -0.1700   25.6193   30.8854 H   0  0  0  0  0  0
    1.1737   26.3275   29.8096 H   0  0  0  0  0  0
    1.8344   26.2066   32.3950 H   0  0  0  0  0  0
    1.2344   25.0130   33.5959 H   0  0  0  0  0  0
    0.2687   26.4831   33.2310 H   0  0  0  0  0  0
   -1.5556   23.7245   31.3673 H   0  0  0  0  0  0
   -1.7553   25.0007   32.6156 H   0  0  0  0  0  0
   -0.7896   23.5306   32.9805 H   0  0  0  0  0  0
  1  3  2  0  0  0
  1 11  1  0  0  0
  1 13  1  0  0  0
  2  4  2  0  0  0
  2 12  1  0  0  0
  2 18  1  0  0  0
  3  5  1  0  0  0
  3 25  1  0  0  0
  4  6  1  0  0  0
  4 26  1  0  0  0
  5  7  2  0  0  0
  5 15  1  0  0  0
  6  8  2  0  0  0
  6 16  1  0  0  0
  7  9  1  0  0  0
  7 18  1  0  0  0
  8 10  1  0  0  0
  8 19  1  0  0  0
  9 11  2  0  0  0
  9 17  1  0  0  0
 10 12  2  0  0  0
 10 27  1  0  0  0
 11 28  1  0  0  0
 12 29  1  0  0  0
 13 14  1  0  0  0
 13 30  1  0  0  0
 13 31  1  0  0  0
 14 20  1  0  0  0
 14 32  1  0  0  0
 14 33  1  0  0  0
 16 21  1  0  0  0
 16 24  1  0  0  0
 16 34  1  0  0  0
 19 35  1  0  0  0
 20 22  1  0  0  0
 20 23  2  0  0  0
 21 36  1  0  0  0
 21 37  1  0  0  0
 21 38  1  0  0  0
 24 39  1  0  0  0
 24 40  1  0  0  0
 24 41  1  0  0  0
M  CHG  1  22  -1
M  END
> <s_m_source_file>
../2j4a_ligand.sdf

> <i_m_source_file_index>
1

> <s_epik_input>
W09IXUMoPU8pW0NIMl1bQ0gyXWMxW2NIXWMoQnIpYyhjKEJyKVtjSF0xKU9jMltjSF1jKFtDSF0oW0NIM10pW0NIM10pYyhbT0hdKVtjSF1bY0hdMg==

> <s_epik_cmdline>
J2VwaWtfYXBwJywgJy1pbWFlJywgJ2xpZ2FuZF9wcm8ubWFlJywgJy1vbWFlJywgJ2xpZ2FuZF9wcmVwLm1hZScsICctbXMnLCAnMScsICctcGgnLCAnNycsICctcGh0JywgJzAuNScsICctbnQn

> <r_lp_tautomer_probability>
1

> <r_epik_Ionization_Penalty>
  0.0023

> <r_epik_Ionization_Penalty_Charging>
  0.0008

> <r_epik_Ionization_Penalty_Neutral>
  0.0015

> <r_epik_State_Penalty>
 -0.0000

> <r_epik_Charging_Adjusted_Penalty>
0.000848485281905462

> <i_epik_Tot_Q>
-1

> <i_epik_Tot_abs_Q>
1

$$$$
