2j4k_ligand
                    3D
 Schrodinger Suite 2020-3.
 32 33  0  0  1  0            999 V2000
   39.3860    9.1620   -0.0140 N   0  0  0  0  0  0
   39.3590    7.7270   -0.5400 C   0  0  0  0  0  0
   38.2400    7.4180   -1.3420 N   0  0  0  0  0  0
   37.1730    8.2930   -1.6990 C   0  0  0  0  0  0
   37.1900    9.7450   -1.1890 C   0  0  0  0  0  0
   38.2650   10.0940   -0.3930 C   0  0  0  0  0  0
   40.1770    6.8710   -0.3290 O   0  0  0  0  0  0
   35.9980    7.8500   -2.5610 O   0  0  0  0  0  0
   40.2890   14.2900   -1.4690 P   0  0  0  0  0  0
   39.3670   14.0180   -2.5900 O   0  0  0  0  0  0
   40.1650   15.6280   -0.8100 O   0  5  0  0  0  0
   41.8010   14.0330   -1.8890 O   0  5  0  0  0  0
   40.5890    9.5790    0.8990 C   0  0  1  0  0  0
   41.9920    9.6280    0.1180 C   0  0  2  0  0  0
   42.9910    9.0240    0.9860 O   0  0  0  0  0  0
   41.8910   11.0880   -0.4040 C   0  0  1  0  0  0
   41.3940   11.8140    0.8770 C   0  0  2  0  0  0
   43.1530   11.6290   -0.7840 O   0  0  0  0  0  0
   40.3760   10.9960    1.3020 O   0  0  0  0  0  0
   40.7680   13.1530    0.8270 C   0  0  0  0  0  0
   40.0490   13.2160   -0.3810 O   0  0  0  0  0  0
   38.1276    6.4083   -1.7637 H   0  0  0  0  0  0
   36.4022   10.4551   -1.4402 H   0  0  0  0  0  0
   38.3042   11.1149   -0.0131 H   0  0  0  0  0  0
   40.5976    8.8853    1.7527 H   0  0  0  0  0  0
   42.3685    9.0263   -0.7223 H   0  0  0  0  0  0
   42.9108    7.9620    1.2610 H   0  0  0  0  0  0
   41.3229   11.2146   -1.3374 H   0  0  0  0  0  0
   42.2488   11.9668    1.5522 H   0  0  0  0  0  0
   43.6717   11.2425   -1.6737 H   0  0  0  0  0  0
   40.0968   13.2764    1.6897 H   0  0  0  0  0  0
   41.5508   13.9252    0.8581 H   0  0  0  0  0  0
  1  2  1  0  0  0
  1  6  1  0  0  0
  1 13  1  0  0  0
  2  3  1  0  0  0
  2  7  2  0  0  0
  3  4  1  0  0  0
  3 22  1  0  0  0
  4  5  1  0  0  0
  4  8  2  0  0  0
  5  6  2  0  0  0
  5 23  1  0  0  0
  6 24  1  0  0  0
  9 10  2  0  0  0
  9 11  1  0  0  0
  9 12  1  0  0  0
  9 21  1  0  0  0
 13 14  1  0  0  0
 13 19  1  0  0  0
 13 25  1  0  0  0
 14 15  1  0  0  0
 14 16  1  0  0  0
 14 26  1  0  0  0
 15 27  1  0  0  0
 16 17  1  0  0  0
 16 18  1  0  0  0
 16 28  1  0  0  0
 17 19  1  0  0  0
 17 20  1  0  0  0
 17 29  1  0  0  0
 18 30  1  0  0  0
 20 21  1  0  0  0
 20 31  1  0  0  0
 20 32  1  0  0  0
M  CHG  2  11  -1  12  -1
M  END
> <s_m_source_file>
../2j4k_ligand.sdf

> <i_m_source_file_index>
1

> <s_epik_input>
W2NIXTFbY0hdYyg9TylbbkhdYyg9TyluMVtDQEhdMltDQEhdKFtPSF0pW0NASF0oW09IXSlbQ0BIXShPMilbQ0gyXU9QKD1PKShbT0hdKVtPSF0=

> <s_epik_cmdline>
J2VwaWtfYXBwJywgJy1pbWFlJywgJ2xpZ2FuZF9wcm8ubWFlJywgJy1vbWFlJywgJ2xpZ2FuZF9wcmVwLm1hZScsICctbXMnLCAnMScsICctcGgnLCAnNycsICctcGh0JywgJzAuNScsICctbnQn

> <r_lp_tautomer_probability>
0.999537046341301

> <r_epik_Ionization_Penalty>
  0.1082

> <r_epik_Ionization_Penalty_Charging>
  0.1082

> <r_epik_Ionization_Penalty_Neutral>
  0.0000

> <r_epik_State_Penalty>
  0.0955

> <r_epik_Charging_Adjusted_Penalty>
0.203721441546161

> <i_epik_Tot_Q>
-2

> <i_epik_Tot_abs_Q>
2

> <s_epik_Chemistry_Notes>
This compound contains an acetal/aminal-like group ( X-CH(R)-Y where X, Y are N, S, or O) that may be acid/base labile, releasing an aldehyde.

$$$$
