2j4q_ligand
                    3D
 Schrodinger Suite 2020-3.
 42 43  0  0  1  0            999 V2000
   17.6850  -18.9790   62.1450 P   0  0  2  0  0  0
   16.9230  -19.5300   61.0160 O   0  0  0  0  0  0
   19.0940  -19.4170   62.3540 O   0  5  0  0  0  0
   16.8370  -19.1780   63.5410 O   0  0  0  0  0  0
   15.7330  -20.3360   63.8540 P   0  0  2  0  0  0
   14.4160  -19.8710   63.3460 O   0  5  0  0  0  0
   15.8150  -20.7720   65.2600 O   0  0  0  0  0  0
   16.3130  -21.6500   63.0770 O   0  0  0  0  0  0
   16.2570  -22.1170   61.5060 P   0  0  0  0  0  0
   17.6390  -21.9820   60.9700 O   0  5  0  0  0  0
   15.2560  -21.3130   60.7420 O   0  5  0  0  0  0
   15.8560  -23.5490   61.4670 O   0  0  0  0  0  0
   18.1150  -13.7060   62.4900 N   0  0  0  0  0  0
   18.0750  -12.9140   63.6280 C   0  0  0  0  0  0
   17.0400  -12.3320   63.9400 O   0  0  0  0  0  0
   19.1820  -12.7900   64.4450 N   0  0  0  0  0  0
   20.3530  -13.4390   64.1270 C   0  0  0  0  0  0
   21.3270  -13.3110   64.8580 O   0  0  0  0  0  0
   20.4290  -14.2300   62.9990 C   0  0  0  0  0  0
   21.7040  -14.9350   62.6340 C   0  0  0  0  0  0
   19.3010  -14.3640   62.1920 C   0  0  0  0  0  0
   17.6550  -17.3800   61.8380 O   0  0  0  0  0  0
   16.4200  -17.0990   61.2240 C   0  0  0  0  0  0
   16.1570  -15.7860   60.9130 C   0  0  1  0  0  0
   16.2380  -14.9790   62.0760 O   0  0  0  0  0  0
   17.1310  -15.3050   60.0320 C   0  0  1  0  0  0
   16.8210  -15.5680   58.6770 O   0  0  0  0  0  0
   17.2470  -13.9360   60.3380 C   0  0  0  0  0  0
   16.9820  -13.8160   61.7150 C   0  0  2  0  0  0
   19.1290  -12.1711   65.3528 H   0  0  0  0  0  0
   22.4755  -14.7098   63.3851 H   0  0  0  0  0  0
   22.0431  -14.5912   61.6456 H   0  0  0  0  0  0
   21.5272  -16.0203   62.6040 H   0  0  0  0  0  0
   19.3506  -14.9991   61.3076 H   0  0  0  0  0  0
   16.3511  -17.6456   60.2719 H   0  0  0  0  0  0
   15.6008  -17.4133   61.8874 H   0  0  0  0  0  0
   15.1540  -15.7670   60.4617 H   0  0  0  0  0  0
   18.0932  -15.8199   60.1704 H   0  0  0  0  0  0
   16.7076  -16.6057   58.3301 H   0  0  0  0  0  0
   18.2644  -13.5920   60.1000 H   0  0  0  0  0  0
   16.5185  -13.3645   59.7442 H   0  0  0  0  0  0
   16.4548  -12.8703   61.9093 H   0  0  0  0  0  0
  1  2  2  0  0  0
  1  3  1  0  0  0
  1  4  1  0  0  0
  1 22  1  0  0  0
  4  5  1  0  0  0
  5  6  1  0  0  0
  5  7  2  0  0  0
  5  8  1  0  0  0
  8  9  1  0  0  0
  9 10  1  0  0  0
  9 11  1  0  0  0
  9 12  2  0  0  0
 13 14  1  0  0  0
 13 21  1  0  0  0
 13 29  1  0  0  0
 14 15  2  0  0  0
 14 16  1  0  0  0
 16 17  1  0  0  0
 16 30  1  0  0  0
 17 18  2  0  0  0
 17 19  1  0  0  0
 19 20  1  0  0  0
 19 21  2  0  0  0
 20 31  1  0  0  0
 20 32  1  0  0  0
 20 33  1  0  0  0
 21 34  1  0  0  0
 22 23  1  0  0  0
 23 24  1  0  0  0
 23 35  1  0  0  0
 23 36  1  0  0  0
 24 25  1  0  0  0
 24 26  1  0  0  0
 24 37  1  0  0  0
 25 29  1  0  0  0
 26 27  1  0  0  0
 26 28  1  0  0  0
 26 38  1  0  0  0
 27 39  1  0  0  0
 28 29  1  0  0  0
 28 40  1  0  0  0
 28 41  1  0  0  0
 29 42  1  0  0  0
M  CHG  4   3  -1   6  -1  10  -1  11  -1
M  END
> <s_m_source_file>
../2j4q_ligand.sdf

> <i_m_source_file_index>
1

> <s_epik_input>
W09IXVAoPU8pKFtPSF0pT1tQQF0oPU8pKFtPSF0pT1tQQF0oPU8pKFtPSF0pT1tDSDJdW0NASF0xT1tDQEhdKFtDSDJdW0NAQEhdMVtPSF0pbjJjKD1PKVtuSF1jKD1PKWMoW0NIM10pW2NIXTI=

> <s_epik_cmdline>
J2VwaWtfYXBwJywgJy1pbWFlJywgJ2xpZ2FuZF9wcm8ubWFlJywgJy1vbWFlJywgJ2xpZ2FuZF9wcmVwLm1hZScsICctbXMnLCAnMScsICctcGgnLCAnNycsICctcGh0JywgJzAuNScsICctbnQn

> <r_lp_tautomer_probability>
0.999537046341301

> <r_epik_Ionization_Penalty>
  0.0827

> <r_epik_Ionization_Penalty_Charging>
  0.0827

> <r_epik_Ionization_Penalty_Neutral>
  0.0000

> <r_epik_State_Penalty>
  0.0709

> <r_epik_Charging_Adjusted_Penalty>
0.153602835498398

> <i_epik_Tot_Q>
-4

> <i_epik_Tot_abs_Q>
4

> <s_epik_Chemistry_Notes>
This compound contains an acetal/aminal-like group ( X-CH(R)-Y where X, Y are N, S, or O) that may be acid/base labile, releasing an aldehyde.

$$$$
