2j4z_ligand
                    3D
 Schrodinger Suite 2020-3.
 59 63  0  0  1  0            999 V2000
   43.2880   49.6920   17.8900 C   0  0  0  0  0  0
   44.2440   49.3480   17.1880 O   0  0  0  0  0  0
   42.1820   50.2990   17.3360 N   0  0  0  0  0  0
   39.8830   51.6260   14.8130 N   0  0  0  0  0  0
   38.8920   51.8500   16.7730 C   0  0  3  0  0  0
   38.7740   52.0380   15.5080 N   0  3  0  0  0  0
   37.8270   52.2310   17.6960 N   0  0  0  0  0  0
   37.7260   52.1610   19.0560 C   0  0  0  0  0  0
   36.4630   52.6220   19.7430 C   0  0  0  0  0  0
   38.6560   51.7240   19.7280 O   0  0  0  0  0  0
   35.3170   53.1510   19.0750 C   0  0  0  0  0  0
   34.1780   53.5430   19.8020 C   0  0  0  0  0  0
   35.2910   52.8940   21.8880 C   0  0  0  0  0  0
   36.4250   52.5060   21.1670 C   0  0  0  0  0  0
   40.6850   51.1640   15.8400 C   0  0  0  0  0  0
   40.0510   51.2910   17.1030 C   0  0  0  0  0  0
   40.9870   50.7450   18.1220 C   0  0  0  0  0  0
   42.0550   50.5590   15.8640 C   0  0  0  0  0  0
   32.9210   53.8240   22.0180 N   0  0  0  0  0  0
   32.6940   53.2840   23.4290 C   0  0  0  0  0  0
   31.2160   53.1950   23.9100 C   0  0  0  0  0  0
   30.2230   53.3100   22.7910 N   0  3  0  0  0  0
   30.4030   54.5050   21.8920 C   0  0  0  0  0  0
   31.8760   54.7840   21.4550 C   0  0  0  0  0  0
   28.8320   53.2220   23.3170 C   0  0  0  0  0  0
   34.1360   53.4210   21.2300 C   0  0  0  0  0  0
   41.4530   45.8970   19.5050 C   0  0  0  0  0  0
   40.8760   46.6880   20.4680 C   0  0  0  0  0  0
   42.7160   46.7230   18.6860 S   0  0  0  0  0  0
   41.4440   47.9610   20.5580 C   0  0  0  0  0  0
   42.4540   48.1200   19.6560 C   0  0  0  0  0  0
   43.3250   49.3760   19.4090 C   0  0  0  0  0  0
   36.8931   52.6649   17.3093 H   0  0  0  0  0  0
   35.3248   53.2522   17.9897 H   0  0  0  0  0  0
   33.3148   53.9454   19.2718 H   0  0  0  0  0  0
   35.2876   52.7926   22.9733 H   0  0  0  0  0  0
   37.2908   52.1101   21.6979 H   0  0  0  0  0  0
   40.5562   49.8842   18.6543 H   0  0  0  0  0  0
   41.2921   51.5111   18.8501 H   0  0  0  0  0  0
   42.8557   51.2409   15.5417 H   0  0  0  0  0  0
   42.1392   49.6094   15.3153 H   0  0  0  0  0  0
   33.0947   52.2620   23.4993 H   0  0  0  0  0  0
   33.2079   53.9301   24.1560 H   0  0  0  0  0  0
   31.0490   52.2267   24.4045 H   0  0  0  0  0  0
   31.0119   54.0095   24.6206 H   0  0  0  0  0  0
   30.4133   52.4441   22.1398 H   0  0  0  0  0  0
   29.8219   54.3605   20.9692 H   0  0  0  0  0  0
   30.0505   55.4095   22.4094 H   0  0  0  0  0  0
   32.1072   55.8092   21.7797 H   0  0  0  0  0  0
   31.8882   54.7359   20.3561 H   0  0  0  0  0  0
   28.7410   52.3393   23.9671 H   0  0  0  0  0  0
   28.1273   53.1330   22.4770 H   0  0  0  0  0  0
   28.6006   54.1287   23.8953 H   0  0  0  0  0  0
   41.1476   44.8734   19.2879 H   0  0  0  0  0  0
   40.0539   46.3545   21.1012 H   0  0  0  0  0  0
   41.1208   48.7296   21.2601 H   0  0  0  0  0  0
   44.3632   49.1859   19.7188 H   0  0  0  0  0  0
   42.9255   50.2327   19.9716 H   0  0  0  0  0  0
   37.9178   52.4717   14.9705 H   0  0  0  0  0  0
  1  2  2  0  0  0
  1  3  1  0  0  0
  1 32  1  0  0  0
  3 17  1  0  0  0
  3 18  1  0  0  0
  4  6  2  0  0  0
  4 15  1  0  0  0
  5  6  1  0  0  0
  5  7  1  0  0  0
  5 16  1  0  0  0
  6 59  1  0  0  0
  7  8  1  0  0  0
  7 33  1  0  0  0
  8  9  1  0  0  0
  8 10  2  0  0  0
  9 11  2  0  0  0
  9 14  1  0  0  0
 11 12  1  0  0  0
 11 34  1  0  0  0
 12 26  2  0  0  0
 12 35  1  0  0  0
 13 14  2  0  0  0
 13 26  1  0  0  0
 13 36  1  0  0  0
 14 37  1  0  0  0
 15 16  2  0  0  0
 15 18  1  0  0  0
 16 17  1  0  0  0
 17 38  1  0  0  0
 17 39  1  0  0  0
 18 40  1  0  0  0
 18 41  1  0  0  0
 19 20  1  0  0  0
 19 24  1  0  0  0
 19 26  1  0  0  0
 20 21  1  0  0  0
 20 42  1  0  0  0
 20 43  1  0  0  0
 21 22  1  0  0  0
 21 44  1  0  0  0
 21 45  1  0  0  0
 22 23  1  0  0  0
 22 25  1  0  0  0
 22 46  1  0  0  0
 23 24  1  0  0  0
 23 47  1  0  0  0
 23 48  1  0  0  0
 24 49  1  0  0  0
 24 50  1  0  0  0
 25 51  1  0  0  0
 25 52  1  0  0  0
 25 53  1  0  0  0
 27 28  2  0  0  0
 27 29  1  0  0  0
 27 54  1  0  0  0
 28 30  1  0  0  0
 28 55  1  0  0  0
 29 31  1  0  0  0
 30 31  2  0  0  0
 30 56  1  0  0  0
 31 32  1  0  0  0
 32 57  1  0  0  0
 32 58  1  0  0  0
M  CHG  2   6   1  22   1
M  END
> <s_m_source_file>
../2j4z_ligand.sdf

> <i_m_source_file_index>
1

> <s_epik_input>
W2NIXTFbY0hdW2NIXXNjMVtDSDJdQyg9TylOKFtDSDJdMilbQ0gyXUMoPUMyMylbQ0hdKE49TjMpW05IXUMoPU8pYzRbY0hdW2NIXWMoW2NIXVtjSF00KU41W0NIMl1bQ0gyXVtOSCtdKFtDSDNdKVtDSDJdW0NIMl01

> <s_epik_cmdline>
J2VwaWtfYXBwJywgJy1pbWFlJywgJ2xpZ2FuZF9wcm8ubWFlJywgJy1vbWFlJywgJ2xpZ2FuZF9wcmVwLm1hZScsICctbXMnLCAnMScsICctcGgnLCAnNycsICctcGh0JywgJzAuNScsICctbnQn

> <r_epik_Ionization_Penalty>
  0.0652

> <r_epik_Ionization_Penalty_Charging>
  0.0649

> <r_epik_Ionization_Penalty_Neutral>
  0.0002

> <r_epik_State_Penalty>
  0.0564

> <r_epik_Charging_Adjusted_Penalty>
0.121370005549394

> <i_epik_Tot_Q>
2

> <i_epik_Tot_abs_Q>
2

$$$$
