2j50_ligand
                    3D
 Schrodinger Suite 2020-3.
 66 70  0  0  1  0            999 V2000
   26.1750   36.7030   24.3730 N   0  0  0  0  0  0
   27.9040   39.4280   26.1480 N   0  0  0  0  0  0
   25.8050   39.8180   26.3570 C   0  0  3  0  0  0
   27.0480   40.2780   26.6680 N   0  3  0  0  0  0
   24.7320   40.5390   26.7920 N   0  0  0  0  0  0
   23.3860   40.2720   26.6200 C   0  0  0  0  0  0
   22.3970   41.2730   27.1970 C   0  0  0  0  0  0
   22.9650   39.2870   26.0400 O   0  0  0  0  0  0
   22.7860   42.4430   27.8930 C   0  0  0  0  0  0
   21.8200   43.3460   28.4160 C   0  0  0  0  0  0
   20.0270   41.9220   27.5480 C   0  0  0  0  0  0
   20.9910   41.0300   27.0320 C   0  0  0  0  0  0
   27.3070   38.4420   25.5130 C   0  0  0  0  0  0
   25.9790   38.6240   25.6050 C   0  0  0  0  0  0
   25.1590   37.5880   24.9280 C   0  0  0  0  0  0
   27.5230   37.1890   24.7220 C   0  0  0  0  0  0
   19.3500   44.0150   28.7910 N   0  0  0  0  0  0
   18.1270   44.1130   27.8930 C   0  0  0  0  0  0
   17.8010   45.4680   27.1860 C   0  0  0  0  0  0
   18.0720   46.6500   28.0240 N   0  3  0  0  0  0
   19.4730   46.6410   28.4580 C   0  0  0  0  0  0
   19.8610   45.3540   29.2440 C   0  0  0  0  0  0
   17.7480   47.8910   27.3140 C   0  0  0  0  0  0
   20.3960   43.1260   28.2660 C   0  0  0  0  0  0
   25.9940   35.5270   23.5830 C   0  0  0  0  0  0
   26.9510   34.8780   23.1730 O   0  0  0  0  0  0
   23.8780   36.1590   22.2630 C   0  0  0  0  0  0
   22.5870   36.7000   22.5010 C   0  0  0  0  0  0
   24.6160   36.6400   21.1350 C   0  0  0  0  0  0
   22.0490   37.6890   21.6440 C   0  0  0  0  0  0
   24.0850   37.6240   20.2800 C   0  0  0  0  0  0
   24.4930   35.0940   23.2020 C   0  0  1  0  0  0
   22.7960   38.1580   20.5290 C   0  0  0  0  0  0
   23.3370   33.1330   22.3410 C   0  0  0  0  0  0
   24.5810   33.7900   22.5560 O   0  0  0  0  0  0
   24.8874   41.4671   27.3616 H   0  0  0  0  0  0
   23.8462   42.6556   28.0306 H   0  0  0  0  0  0
   22.1625   44.2337   28.9477 H   0  0  0  0  0  0
   18.9702   41.6984   27.4019 H   0  0  0  0  0  0
   20.6621   40.1388   26.4975 H   0  0  0  0  0  0
   24.5420   37.9944   24.1131 H   0  0  0  0  0  0
   24.5214   37.0233   25.6241 H   0  0  0  0  0  0
   28.0458   36.4250   25.3161 H   0  0  0  0  0  0
   28.0905   37.3891   23.8012 H   0  0  0  0  0  0
   18.2191   43.3912   27.0680 H   0  0  0  0  0  0
   17.2233   43.8875   28.4783 H   0  0  0  0  0  0
   18.4118   45.5631   26.2761 H   0  0  0  0  0  0
   16.7349   45.4937   26.9163 H   0  0  0  0  0  0
   17.4276   46.6100   28.9146 H   0  0  0  0  0  0
   20.1299   46.7045   27.5780 H   0  0  0  0  0  0
   19.6583   47.5022   29.1168 H   0  0  0  0  0  0
   19.5120   45.5523   30.2682 H   0  0  0  0  0  0
   20.9608   45.3522   29.2253 H   0  0  0  0  0  0
   16.6936   47.8698   27.0011 H   0  0  0  0  0  0
   18.3919   47.9848   26.4271 H   0  0  0  0  0  0
   17.9154   48.7495   27.9811 H   0  0  0  0  0  0
   22.0042   36.3497   23.3529 H   0  0  0  0  0  0
   25.6085   36.2365   20.9341 H   0  0  0  0  0  0
   21.0560   38.0937   21.8398 H   0  0  0  0  0  0
   24.6650   37.9752   19.4266 H   0  0  0  0  0  0
   23.8065   34.9573   24.0506 H   0  0  0  0  0  0
   22.3809   38.9217   19.8713 H   0  0  0  0  0  0
   23.5139   32.1640   21.8514 H   0  0  0  0  0  0
   22.6988   33.7574   21.6984 H   0  0  0  0  0  0
   22.8368   32.9698   23.3070 H   0  0  0  0  0  0
   27.4121   41.1537   27.2253 H   0  0  0  0  0  0
  1 15  1  0  0  0
  1 16  1  0  0  0
  1 25  1  0  0  0
  2  4  2  0  0  0
  2 13  1  0  0  0
  3  4  1  0  0  0
  3  5  1  0  0  0
  3 14  1  0  0  0
  4 66  1  0  0  0
  5  6  1  0  0  0
  5 36  1  0  0  0
  6  7  1  0  0  0
  6  8  2  0  0  0
  7  9  2  0  0  0
  7 12  1  0  0  0
  9 10  1  0  0  0
  9 37  1  0  0  0
 10 24  2  0  0  0
 10 38  1  0  0  0
 11 12  2  0  0  0
 11 24  1  0  0  0
 11 39  1  0  0  0
 12 40  1  0  0  0
 13 14  2  0  0  0
 13 16  1  0  0  0
 14 15  1  0  0  0
 15 41  1  0  0  0
 15 42  1  0  0  0
 16 43  1  0  0  0
 16 44  1  0  0  0
 17 18  1  0  0  0
 17 22  1  0  0  0
 17 24  1  0  0  0
 18 19  1  0  0  0
 18 45  1  0  0  0
 18 46  1  0  0  0
 19 20  1  0  0  0
 19 47  1  0  0  0
 19 48  1  0  0  0
 20 21  1  0  0  0
 20 23  1  0  0  0
 20 49  1  0  0  0
 21 22  1  0  0  0
 21 50  1  0  0  0
 21 51  1  0  0  0
 22 52  1  0  0  0
 22 53  1  0  0  0
 23 54  1  0  0  0
 23 55  1  0  0  0
 23 56  1  0  0  0
 25 26  2  0  0  0
 25 32  1  0  0  0
 27 28  2  0  0  0
 27 29  1  0  0  0
 27 32  1  0  0  0
 28 30  1  0  0  0
 28 57  1  0  0  0
 29 31  2  0  0  0
 29 58  1  0  0  0
 30 33  2  0  0  0
 30 59  1  0  0  0
 31 33  1  0  0  0
 31 60  1  0  0  0
 32 35  1  0  0  0
 32 61  1  0  0  0
 33 62  1  0  0  0
 34 35  1  0  0  0
 34 63  1  0  0  0
 34 64  1  0  0  0
 34 65  1  0  0  0
M  CHG  2   4   1  20   1
M  END
> <s_m_source_file>
../2j50_ligand.sdf

> <i_m_source_file_index>
1

> <s_epik_input>
W2NIXTFbY0hdW2NIXVtjSF1bY0hdYzFbQ0BASF0oT1tDSDNdKUMoPU8pTihbQ0gyXTIpW0NIMl1DKD1DMjMpW0NIXShOPU4zKVtOSF1DKD1PKWM0W2NIXVtjSF1jKFtjSF1bY0hdNClONVtDSDJdW0NIMl1bTkgrXShbQ0gzXSlbQ0gyXVtDSDJdNQ==

> <s_epik_cmdline>
J2VwaWtfYXBwJywgJy1pbWFlJywgJ2xpZ2FuZF9wcm8ubWFlJywgJy1vbWFlJywgJ2xpZ2FuZF9wcmVwLm1hZScsICctbXMnLCAnMScsICctcGgnLCAnNycsICctcGh0JywgJzAuNScsICctbnQn

> <r_epik_Ionization_Penalty>
  0.0652

> <r_epik_Ionization_Penalty_Charging>
  0.0650

> <r_epik_Ionization_Penalty_Neutral>
  0.0002

> <r_epik_State_Penalty>
  0.0564

> <r_epik_Charging_Adjusted_Penalty>
0.12141774411206

> <i_epik_Tot_Q>
2

> <i_epik_Tot_abs_Q>
2

$$$$
