2j6m_ligand
                    3D
 Schrodinger Suite 2020-3.
 65 69  0  0  1  0            999 V2000
  -50.7820   -0.6920  -12.4130 C   0  0  0  0  0  0
  -49.4830   -1.0040  -11.6760 C   0  0  0  0  0  0
  -49.1860   -2.4340  -11.7620 N   0  0  1  0  0  0
  -50.2950   -3.2120  -11.2020 C   0  0  0  0  0  0
  -50.3250   -3.0340   -9.6850 C   0  0  0  0  0  0
  -48.9970   -2.7720  -13.1700 C   0  0  0  0  0  0
  -50.3000   -2.5340  -13.9180 C   0  0  0  0  0  0
  -50.6950   -1.1260  -13.8110 N   0  3  2  0  0  0
  -49.8460   -0.2520  -14.6260 C   0  0  0  0  0  0
  -50.5050   -0.0850  -15.9900 C   0  0  0  0  0  0
  -51.5450    0.8070  -16.1470 C   0  0  0  0  0  0
  -52.1510    0.9550  -17.3830 C   0  0  0  0  0  0
  -50.0770   -0.8310  -17.0690 C   0  0  0  0  0  0
  -50.6790   -0.6800  -18.3070 C   0  0  0  0  0  0
  -51.7220    0.2090  -18.4630 C   0  0  0  0  0  0
  -52.3280    0.3730  -19.6960 C   0  0  0  0  0  0
  -53.3660    1.1590  -19.9400 N   0  0  0  0  0  0
  -51.9570   -0.2180  -20.8220 C   0  0  0  0  0  0
  -52.7630    0.1890  -21.7830 C   0  0  0  0  0  0
  -53.6530    1.0650  -21.2250 C   0  0  0  0  0  0
  -54.5870    1.6230  -21.9920 N   0  0  0  0  0  0
  -54.6590    1.3430  -23.2760 C   0  0  0  0  0  0
  -53.8170    0.5090  -23.8430 N   0  0  0  0  0  0
  -52.8630   -0.0780  -23.1290 C   0  0  0  0  0  0
  -52.0340   -0.9090  -23.7250 N   0  0  0  0  0  0
  -52.3410   -1.3270  -25.0890 C   0  0  2  0  0  0
  -51.2870   -2.3080  -25.5730 C   0  0  0  0  0  0
  -52.3440   -0.1220  -26.0010 C   0  0  0  0  0  0
  -52.2240    1.1440  -25.4670 C   0  0  0  0  0  0
  -52.2300    2.2450  -26.3050 C   0  0  0  0  0  0
  -52.3550    2.0790  -27.6710 C   0  0  0  0  0  0
  -52.4720    0.8110  -28.2030 C   0  0  0  0  0  0
  -52.4670   -0.2920  -27.3680 C   0  0  0  0  0  0
  -51.6156   -1.2192  -11.9260 H   0  0  0  0  0  0
  -50.9678    0.3919  -12.3858 H   0  0  0  0  0  0
  -48.6579   -0.4363  -12.1309 H   0  0  0  0  0  0
  -49.5842   -0.7197  -10.6182 H   0  0  0  0  0  0
  -51.2441   -2.8594  -11.6319 H   0  0  0  0  0  0
  -50.1556   -4.2759  -11.4442 H   0  0  0  0  0  0
  -51.1569   -3.6175   -9.2638 H   0  0  0  0  0  0
  -50.4641   -1.9699   -9.4434 H   0  0  0  0  0  0
  -49.3756   -3.3864   -9.2556 H   0  0  0  0  0  0
  -48.2047   -2.1388  -13.5959 H   0  0  0  0  0  0
  -48.7078   -3.8297  -13.2576 H   0  0  0  0  0  0
  -50.1658   -2.7908  -14.9792 H   0  0  0  0  0  0
  -51.0914   -3.1639  -13.4856 H   0  0  0  0  0  0
  -51.7090   -1.0384  -14.2282 H   0  0  0  0  0  0
  -49.7457    0.7259  -14.1324 H   0  0  0  0  0  0
  -48.8519   -0.7089  -14.7399 H   0  0  0  0  0  0
  -51.8902    1.3960  -15.2973 H   0  0  0  0  0  0
  -52.9704    1.6635  -17.5042 H   0  0  0  0  0  0
  -49.2608   -1.5429  -16.9463 H   0  0  0  0  0  0
  -50.3286   -1.2637  -19.1582 H   0  0  0  0  0  0
  -51.1499   -0.9310  -21.0462 H   0  0  0  0  0  0
  -55.4337    1.8130  -23.8818 H   0  0  0  0  0  0
  -51.1309   -1.2875  -23.2239 H   0  0  0  0  0  0
  -53.3352   -1.7970  -25.0656 H   0  0  0  0  0  0
  -51.2769   -3.1895  -24.9151 H   0  0  0  0  0  0
  -50.2993   -1.8243  -25.5532 H   0  0  0  0  0  0
  -51.5217   -2.6206  -26.6012 H   0  0  0  0  0  0
  -52.1249    1.2766  -24.3896 H   0  0  0  0  0  0
  -52.1358    3.2469  -25.8861 H   0  0  0  0  0  0
  -52.3612    2.9488  -28.3279 H   0  0  0  0  0  0
  -52.5683    0.6786  -29.2806 H   0  0  0  0  0  0
  -52.5599   -1.2939  -27.7870 H   0  0  0  0  0  0
  1  2  1  0  0  0
  1  8  1  0  0  0
  1 34  1  0  0  0
  1 35  1  0  0  0
  2  3  1  0  0  0
  2 36  1  0  0  0
  2 37  1  0  0  0
  3  4  1  0  0  0
  3  6  1  0  0  0
  4  5  1  0  0  0
  4 38  1  0  0  0
  4 39  1  0  0  0
  5 40  1  0  0  0
  5 41  1  0  0  0
  5 42  1  0  0  0
  6  7  1  0  0  0
  6 43  1  0  0  0
  6 44  1  0  0  0
  7  8  1  0  0  0
  7 45  1  0  0  0
  7 46  1  0  0  0
  8  9  1  0  0  0
  8 47  1  0  0  0
  9 10  1  0  0  0
  9 48  1  0  0  0
  9 49  1  0  0  0
 10 11  2  0  0  0
 10 13  1  0  0  0
 11 12  1  0  0  0
 11 50  1  0  0  0
 12 15  2  0  0  0
 12 51  1  0  0  0
 13 14  2  0  0  0
 13 52  1  0  0  0
 14 15  1  0  0  0
 14 53  1  0  0  0
 15 16  1  0  0  0
 16 17  2  0  0  0
 16 18  1  0  0  0
 17 20  1  0  0  0
 18 19  2  0  0  0
 18 54  1  0  0  0
 19 20  1  0  0  0
 19 24  1  0  0  0
 20 21  2  0  0  0
 21 22  1  0  0  0
 22 23  1  0  0  0
 22 55  1  0  0  0
 23 24  2  0  0  0
 24 25  1  0  0  0
 25 26  1  0  0  0
 25 56  1  0  0  0
 26 27  1  0  0  0
 26 28  1  0  0  0
 26 57  1  0  0  0
 27 58  1  0  0  0
 27 59  1  0  0  0
 27 60  1  0  0  0
 28 29  2  0  0  0
 28 33  1  0  0  0
 29 30  1  0  0  0
 29 61  1  0  0  0
 30 31  2  0  0  0
 30 62  1  0  0  0
 31 32  1  0  0  0
 31 63  1  0  0  0
 32 33  2  0  0  0
 32 64  1  0  0  0
 33 65  1  0  0  0
M  CHG  1   8   1
M  END
> <s_m_source_file>
../2j6m_ligand.sdf

> <i_m_source_file_index>
1

> <s_epik_input>
W0NIM11bQ0gyXVtOQEBIK10xW0NIMl1bQ0gyXVtOQEgrXShbQ0gyXVtDSDJdMSlbQ0gyXWMyW2NIXVtjSF1jKFtjSF1bY0hdMilDKFtDSF09Myk9TkMoQzM0KT1OW0NIMl1OPUM0W05IXVtDQEhdKFtDSDNdKWM1W2NIXVtjSF1bY0hdW2NIXVtjSF01

> <s_epik_cmdline>
J2VwaWtfYXBwJywgJy1pbWFlJywgJ2xpZ2FuZF9wcm8ubWFlJywgJy1vbWFlJywgJ2xpZ2FuZF9wcmVwLm1hZScsICctbXMnLCAnMScsICctcGgnLCAnNycsICctcGh0JywgJzAuNScsICctbnQn

> <r_lp_tautomer_probability>
1

> <r_epik_Ionization_Penalty>
  0.0148

> <r_epik_Ionization_Penalty_Charging>
  0.0136

> <r_epik_Ionization_Penalty_Neutral>
  0.0011

> <r_epik_State_Penalty>
 -0.0000

> <r_epik_Charging_Adjusted_Penalty>
0.0136354947705809

> <i_epik_Tot_Q>
1

> <i_epik_Tot_abs_Q>
1

> <s_epik_Chemistry_Notes>
This compound has an imine and may undergo hydrolysis.

$$$$
