2j77_ligand
                    3D
 Schrodinger Suite 2020-3.
 25 25  0  0  1  0            999 V2000
   -0.9120   11.1330   10.9470 C   0  0  0  0  0  0
    0.1350   11.6360    9.9430 C   0  0  2  0  0  0
    0.4720   12.9340   10.3860 O   0  0  0  0  0  0
   -0.4860   11.7580    8.5440 C   0  0  1  0  0  0
    0.5770   12.0530    7.6640 O   0  0  0  0  0  0
   -1.3080   10.5040    8.1440 C   0  0  2  0  0  0
   -1.7400   10.7230    6.8160 O   0  0  0  0  0  0
   -2.4700   10.3840    9.1460 C   0  0  2  0  0  0
   -1.8910   10.1580   10.4680 N   0  3  0  0  0  0
   -3.4120    9.1980    8.8830 C   0  0  0  0  0  0
   -2.7160    7.9670    9.0060 O   0  0  0  0  0  0
   -0.4047   10.6452   11.7923 H   0  0  0  0  0  0
   -1.5043   11.9833   11.3161 H   0  0  0  0  0  0
    1.0404   11.0122    9.9103 H   0  0  0  0  0  0
    0.9344   13.0752   11.3740 H   0  0  0  0  0  0
   -1.1693   12.6149    8.4497 H   0  0  0  0  0  0
    1.2239   12.9220    7.8547 H   0  0  0  0  0  0
   -0.7635    9.5497    8.0918 H   0  0  0  0  0  0
   -1.0015   10.8259    6.0073 H   0  0  0  0  0  0
   -3.0482   11.3189    9.1048 H   0  0  0  0  0  0
   -1.4233    9.1637   10.4166 H   0  0  0  0  0  0
   -2.7454   10.1259   11.1601 H   0  0  0  0  0  0
   -4.2354    9.2150    9.6122 H   0  0  0  0  0  0
   -3.8221    9.2741    7.8651 H   0  0  0  0  0  0
   -3.2471    7.0167    8.8482 H   0  0  0  0  0  0
  1  2  1  0  0  0
  1  9  1  0  0  0
  1 12  1  0  0  0
  1 13  1  0  0  0
  2  3  1  0  0  0
  2  4  1  0  0  0
  2 14  1  0  0  0
  3 15  1  0  0  0
  4  5  1  0  0  0
  4  6  1  0  0  0
  4 16  1  0  0  0
  5 17  1  0  0  0
  6  7  1  0  0  0
  6  8  1  0  0  0
  6 18  1  0  0  0
  7 19  1  0  0  0
  8  9  1  0  0  0
  8 10  1  0  0  0
  8 20  1  0  0  0
  9 21  1  0  0  0
  9 22  1  0  0  0
 10 11  1  0  0  0
 10 23  1  0  0  0
 10 24  1  0  0  0
 11 25  1  0  0  0
M  CHG  1   9   1
M  END
> <s_m_source_file>
../2j77_ligand.sdf

> <i_m_source_file_index>
1

> <s_epik_input>
W09IXVtDQEhdMVtDSDJdW05IMitdW0NASF0oW0NIMl1bT0hdKVtDQEBIXShbT0hdKVtDQEBIXTFbT0hd

> <s_epik_cmdline>
J2VwaWtfYXBwJywgJy1pbWFlJywgJ2xpZ2FuZF9wcm8ubWFlJywgJy1vbWFlJywgJ2xpZ2FuZF9wcmVwLm1hZScsICctbXMnLCAnMScsICctcGgnLCAnNycsICctcGh0JywgJzAuNScsICctbnQn

> <r_lp_tautomer_probability>
1

> <r_epik_Ionization_Penalty>
  0.0034

> <r_epik_Ionization_Penalty_Charging>
  0.0034

> <r_epik_Ionization_Penalty_Neutral>
  0.0000

> <r_epik_State_Penalty>
 -0.0000

> <r_epik_Charging_Adjusted_Penalty>
0.00338677877254832

> <i_epik_Tot_Q>
1

> <i_epik_Tot_abs_Q>
1

$$$$
