2j7b_ligand
                    3D
 Schrodinger Suite 2020-3.
 24 25  0  0  1  0            999 V2000
   34.3030   24.4830   38.9730 C   0  0  0  0  0  0
   35.0210   23.4660   38.1460 C   0  0  1  0  0  0
   35.2650   24.0260   36.7490 C   0  0  2  0  0  0
   34.0460   24.8430   36.2670 C   0  0  1  0  0  0
   33.8810   26.1370   37.1030 C   0  0  1  0  0  0
   32.6400   26.9400   36.7370 C   0  0  0  0  0  0
   33.8200   25.6260   38.4860 N   0  0  0  0  0  0
   33.1480   26.3780   39.4370 N   0  0  0  0  0  0
   33.2300   25.6160   40.5920 N   0  0  0  0  0  0
   33.9810   24.4530   40.2830 N   0  0  0  0  0  0
   36.2560   23.0390   38.7230 O   0  0  0  0  0  0
   35.5150   22.9010   35.8850 O   0  0  0  0  0  0
   34.2130   25.2280   34.9140 O   0  0  0  0  0  0
   31.4470   26.1970   37.0270 O   0  0  0  0  0  0
   34.4140   22.5487   38.1404 H   0  0  0  0  0  0
   36.1590   24.6658   36.7114 H   0  0  0  0  0  0
   33.1476   24.2088   36.2928 H   0  0  0  0  0  0
   34.7004   26.8591   36.9726 H   0  0  0  0  0  0
   32.6244   27.8751   37.3161 H   0  0  0  0  0  0
   32.6587   27.1745   35.6624 H   0  0  0  0  0  0
   36.2700   22.6058   39.7340 H   0  0  0  0  0  0
   36.3529   22.2205   36.0967 H   0  0  0  0  0  0
   34.3488   24.4615   34.1368 H   0  0  0  0  0  0
   30.4606   26.6376   36.8198 H   0  0  0  0  0  0
  1  2  1  0  0  0
  1  7  1  0  0  0
  1 10  2  0  0  0
  2  3  1  0  0  0
  2 11  1  0  0  0
  2 15  1  0  0  0
  3  4  1  0  0  0
  3 12  1  0  0  0
  3 16  1  0  0  0
  4  5  1  0  0  0
  4 13  1  0  0  0
  4 17  1  0  0  0
  5  6  1  0  0  0
  5  7  1  0  0  0
  5 18  1  0  0  0
  6 14  1  0  0  0
  6 19  1  0  0  0
  6 20  1  0  0  0
  7  8  1  0  0  0
  8  9  2  0  0  0
  9 10  1  0  0  0
 11 21  1  0  0  0
 12 22  1  0  0  0
 13 23  1  0  0  0
 14 24  1  0  0  0
M  END
> <s_m_source_file>
../2j7b_ligand.sdf

> <i_m_source_file_index>
1

> <s_epik_input>
bjFubm4oYzEyKVtDQEhdKFtDSDJdW09IXSlbQ0BASF0oW09IXSlbQ0BIXShbT0hdKVtDQEhdMltPSF0=

> <s_epik_cmdline>
J2VwaWtfYXBwJywgJy1pbWFlJywgJ2xpZ2FuZF9wcm8ubWFlJywgJy1vbWFlJywgJ2xpZ2FuZF9wcmVwLm1hZScsICctbXMnLCAnMScsICctcGgnLCAnNycsICctcGh0JywgJzAuNScsICctbnQn

> <r_lp_tautomer_probability>
1

> <r_epik_Ionization_Penalty>
  0.0003

> <r_epik_Ionization_Penalty_Charging>
  0.0000

> <r_epik_Ionization_Penalty_Neutral>
  0.0003

> <r_epik_State_Penalty>
 -0.0000

> <r_epik_Charging_Adjusted_Penalty>
0

> <i_epik_Tot_Q>
0

> <i_epik_Tot_abs_Q>
0

$$$$
