2j7g_ligand
                    3D
 Schrodinger Suite 2020-3.
 32 33  0  0  1  0            999 V2000
   -2.0290    9.3280   13.8130 C   0  0  0  0  0  0
   -0.9850   10.7530   10.6690 C   0  0  0  0  0  0
    0.0050   11.5230    9.7990 C   0  0  1  0  0  0
   -0.5790   11.7990    8.4110 C   0  0  2  0  0  0
   -1.3710   10.5560    7.9290 C   0  0  1  0  0  0
   -2.6280   10.3660    8.8320 C   0  0  1  0  0  0
   -3.5440    9.2260    8.4010 C   0  0  0  0  0  0
    0.3680   12.7580   10.4240 O   0  0  0  0  0  0
    0.5410   12.0790    7.5940 O   0  0  0  0  0  0
   -1.8180   10.7610    6.6050 O   0  0  0  0  0  0
   -2.2060   10.1920   10.2360 N   0  0  0  0  0  0
   -2.9030    7.9790    8.6380 O   0  0  0  0  0  0
   -0.8660   10.4410   11.9350 N   0  3  0  0  0  0
   -1.9140    9.7170   12.3320 C   0  0  0  0  0  0
   -2.7480    9.5700   11.2990 C   0  0  0  0  0  0
   -1.4910    7.9810   14.2360 C   0  0  0  0  0  0
   -0.3590    7.6630   13.8490 O   0  0  0  0  0  0
   -2.2270    7.3170   14.9960 O   0  5  0  0  0  0
   -1.4838   10.0594   14.4276 H   0  0  0  0  0  0
   -3.0886    9.3182   14.1084 H   0  0  0  0  0  0
    0.9406   10.9505    9.7163 H   0  0  0  0  0  0
   -1.2300   12.6834    8.3475 H   0  0  0  0  0  0
   -0.7259    9.6661    7.8858 H   0  0  0  0  0  0
   -3.2450   11.2749    8.7754 H   0  0  0  0  0  0
   -4.4799    9.2698    8.9773 H   0  0  0  0  0  0
   -3.7690    9.3219    7.3285 H   0  0  0  0  0  0
    0.8070   12.7558   11.4326 H   0  0  0  0  0  0
    1.1900   12.9364    7.8255 H   0  0  0  0  0  0
   -1.0889   10.9184    5.7965 H   0  0  0  0  0  0
   -3.4173    7.0397    8.3866 H   0  0  0  0  0  0
   -3.7001    9.0395   11.3144 H   0  0  0  0  0  0
    0.0133   10.7772   12.5040 H   0  0  0  0  0  0
  1 14  1  0  0  0
  1 16  1  0  0  0
  1 19  1  0  0  0
  1 20  1  0  0  0
  2  3  1  0  0  0
  2 11  1  0  0  0
  2 13  2  0  0  0
  3  4  1  0  0  0
  3  8  1  0  0  0
  3 21  1  0  0  0
  4  5  1  0  0  0
  4  9  1  0  0  0
  4 22  1  0  0  0
  5  6  1  0  0  0
  5 10  1  0  0  0
  5 23  1  0  0  0
  6  7  1  0  0  0
  6 11  1  0  0  0
  6 24  1  0  0  0
  7 12  1  0  0  0
  7 25  1  0  0  0
  7 26  1  0  0  0
  8 27  1  0  0  0
  9 28  1  0  0  0
 10 29  1  0  0  0
 11 15  1  0  0  0
 12 30  1  0  0  0
 13 14  1  0  0  0
 13 32  1  0  0  0
 14 15  2  0  0  0
 15 31  1  0  0  0
 16 17  2  0  0  0
 16 18  1  0  0  0
M  CHG  2  13   1  18  -1
M  END
> <s_m_source_file>
../2j7g_ligand.sdf

> <i_m_source_file_index>
1

> <s_epik_input>
Tz1DKFtPSF0pW0NIMl1jKG4xKVtjSF1uKGMxMilbQ0BIXShbQ0gyXVtPSF0pW0NAQEhdKFtPSF0pW0NASF0oW09IXSlbQ0BIXTJbT0hd

> <s_epik_cmdline>
J2VwaWtfYXBwJywgJy1pbWFlJywgJ2xpZ2FuZF9wcm8ubWFlJywgJy1vbWFlJywgJ2xpZ2FuZF9wcmVwLm1hZScsICctbXMnLCAnMScsICctcGgnLCAnNycsICctcGh0JywgJzAuNScsICctbnQn

> <r_lp_tautomer_probability>
1

> <r_epik_Ionization_Penalty>
  0.0406

> <r_epik_Ionization_Penalty_Charging>
  0.0001

> <r_epik_Ionization_Penalty_Neutral>
  0.0405

> <r_epik_State_Penalty>
  0.0337

> <r_epik_Charging_Adjusted_Penalty>
0.0338299969271511

> <i_epik_Tot_Q>
0

> <i_epik_Tot_abs_Q>
2

$$$$
