2j7w_ligand
                    3D
 Schrodinger Suite 2020-3.
 13 12  0  0  1  0            999 V2000
   19.5690   68.4070   13.1810 P   0  0  0  0  0  0
   19.3460   69.8550   13.5550 O   0  5  0  0  0  0
   18.8920   67.8560   11.9480 O   0  0  0  0  0  0
   21.1640   68.1440   13.1600 O   0  5  0  0  0  0
   19.1390   67.4990   14.4390 O   0  0  0  0  0  0
   19.0940   65.8820   14.4470 P   0  0  0  0  0  0
   18.4750   65.3780   13.1640 O   0  0  0  0  0  0
   20.4370   65.3570   14.9200 O   0  5  0  0  0  0
   17.9900   65.6550   15.5940 O   0  0  0  0  0  0
   16.8050   66.7350   15.7760 P   0  0  0  0  0  0
   17.4470   67.9020   16.4990 O   0  5  0  0  0  0
   16.3640   67.0410   14.3610 O   0  5  0  0  0  0
   15.7780   65.9950   16.6000 O   0  0  0  0  0  0
  1  2  1  0  0  0
  1  3  2  0  0  0
  1  4  1  0  0  0
  1  5  1  0  0  0
  5  6  1  0  0  0
  6  7  2  0  0  0
  6  8  1  0  0  0
  6  9  1  0  0  0
  9 10  1  0  0  0
 10 11  1  0  0  0
 10 12  1  0  0  0
 10 13  2  0  0  0
M  CHG  5   2  -1   4  -1   8  -1  11  -1  12  -1
M  END
> <s_m_source_file>
../2j7w_ligand.sdf

> <i_m_source_file_index>
1

> <s_epik_input>
W09IXVAoPU8pKFtPSF0pT1AoPU8pKFtPSF0pT1AoPU8pKFtPSF0pW09IXQ==

> <s_epik_cmdline>
J2VwaWtfYXBwJywgJy1pbWFlJywgJ2xpZ2FuZF9wcm8ubWFlJywgJy1vbWFlJywgJ2xpZ2FuZF9wcmVwLm1hZScsICctbXMnLCAnMScsICctcGgnLCAnNycsICctcGh0JywgJzAuNScsICctbnQn

> <r_epik_Ionization_Penalty>
  0.1850

> <r_epik_Ionization_Penalty_Charging>
  0.1850

> <r_epik_Ionization_Penalty_Neutral>
  0.0000

> <r_epik_State_Penalty>
  0.1781

> <r_epik_Charging_Adjusted_Penalty>
0.363129941793699

> <i_epik_Tot_Q>
-5

> <i_epik_Tot_abs_Q>
5

$$$$
