2j7x_ligand
                    3D
 Schrodinger Suite 2020-3.
 44 47  0  0  1  0            999 V2000
   50.3610   31.3800   79.3660 C   0  0  0  0  0  0
   51.0470   32.3200   80.1530 C   0  0  0  0  0  0
   51.6670   33.4430   79.5740 C   0  0  0  0  0  0
   52.3070   34.3290   80.3980 O   0  0  0  0  0  0
   51.6170   33.6210   78.1890 C   0  0  0  0  0  0
   50.9550   32.6910   77.3540 C   0  0  0  0  0  0
   50.9070   32.8990   75.8520 C   0  0  0  0  0  0
   50.5480   31.6030   75.1140 C   0  0  0  0  0  0
   49.2480   31.0270   75.6980 C   0  0  2  0  0  0
   49.5470   30.4930   77.1110 C   0  0  1  0  0  0
   50.2650   31.5150   77.9730 C   0  0  0  0  0  0
   48.2330   29.9840   77.7130 C   0  0  0  0  0  0
   47.6230   28.8520   76.8540 C   0  0  0  0  0  0
   47.3450   29.3400   75.4350 C   0  0  1  0  0  0
   48.6650   29.8620   74.8790 C   0  0  1  0  0  0
   48.3690   30.0280   73.3980 C   0  0  0  0  0  0
   47.4060   28.8730   73.0710 C   0  0  0  0  0  0
   46.9670   28.2630   74.4140 C   0  0  2  0  0  0
   45.5580   27.9440   74.4380 O   0  0  0  0  0  0
   46.2600   30.4400   75.4350 C   0  0  0  0  0  0
   49.8913   30.5238   79.8502 H   0  0  0  0  0  0
   51.1001   32.1769   81.2323 H   0  0  0  0  0  0
   52.3253   34.1554   81.4841 H   0  0  0  0  0  0
   52.0970   34.4926   77.7439 H   0  0  0  0  0  0
   50.1478   33.6576   75.6110 H   0  0  0  0  0  0
   51.8910   33.2395   75.4973 H   0  0  0  0  0  0
   50.4072   31.8172   74.0443 H   0  0  0  0  0  0
   51.3616   30.8731   75.2378 H   0  0  0  0  0  0
   48.5100   31.8427   75.6907 H   0  0  0  0  0  0
   50.2613   29.6574   77.0703 H   0  0  0  0  0  0
   48.4199   29.5939   78.7244 H   0  0  0  0  0  0
   47.5097   30.8110   77.7669 H   0  0  0  0  0  0
   48.3262   28.0074   76.8076 H   0  0  0  0  0  0
   46.6776   28.5175   77.3060 H   0  0  0  0  0  0
   49.5282   29.1860   74.9676 H   0  0  0  0  0  0
   47.9071   31.0111   73.2244 H   0  0  0  0  0  0
   49.3062   29.9572   72.8265 H   0  0  0  0  0  0
   46.5388   29.2639   72.5186 H   0  0  0  0  0  0
   47.9264   28.1250   72.4548 H   0  0  0  0  0  0
   47.3954   27.2731   74.6296 H   0  0  0  0  0  0
   45.1097   27.5008   75.3394 H   0  0  0  0  0  0
   46.5258   31.2171   76.1668 H   0  0  0  0  0  0
   45.2897   29.9980   75.7056 H   0  0  0  0  0  0
   46.1921   30.8880   74.4327 H   0  0  0  0  0  0
  1  2  2  0  0  0
  1 11  1  0  0  0
  1 21  1  0  0  0
  2  3  1  0  0  0
  2 22  1  0  0  0
  3  4  1  0  0  0
  3  5  2  0  0  0
  4 23  1  0  0  0
  5  6  1  0  0  0
  5 24  1  0  0  0
  6  7  1  0  0  0
  6 11  2  0  0  0
  7  8  1  0  0  0
  7 25  1  0  0  0
  7 26  1  0  0  0
  8  9  1  0  0  0
  8 27  1  0  0  0
  8 28  1  0  0  0
  9 10  1  0  0  0
  9 15  1  0  0  0
  9 29  1  0  0  0
 10 11  1  0  0  0
 10 12  1  0  0  0
 10 30  1  0  0  0
 12 13  1  0  0  0
 12 31  1  0  0  0
 12 32  1  0  0  0
 13 14  1  0  0  0
 13 33  1  0  0  0
 13 34  1  0  0  0
 14 15  1  0  0  0
 14 18  1  0  0  0
 14 20  1  0  0  0
 15 16  1  0  0  0
 15 35  1  0  0  0
 16 17  1  0  0  0
 16 36  1  0  0  0
 16 37  1  0  0  0
 17 18  1  0  0  0
 17 38  1  0  0  0
 17 39  1  0  0  0
 18 19  1  0  0  0
 18 40  1  0  0  0
 19 41  1  0  0  0
 20 42  1  0  0  0
 20 43  1  0  0  0
 20 44  1  0  0  0
M  END
> <s_m_source_file>
../2j7x_ligand.sdf

> <i_m_source_file_index>
1

> <s_epik_input>
W2NIXTFbY0hdYyhbT0hdKVtjSF1jKFtDSDJdW0NIMl0yKWMxW0NAQEhdKFtDSDJdW0NIMl0zKVtDQEBIXTJbQ0BASF0oW0NAXTM0W0NIM10pW0NIMl1bQ0gyXVtDQEBIXTRbT0hd

> <s_epik_cmdline>
J2VwaWtfYXBwJywgJy1pbWFlJywgJ2xpZ2FuZF9wcm8ubWFlJywgJy1vbWFlJywgJ2xpZ2FuZF9wcmVwLm1hZScsICctbXMnLCAnMScsICctcGgnLCAnNycsICctcGh0JywgJzAuNScsICctbnQn

> <r_lp_tautomer_probability>
1

> <r_epik_Ionization_Penalty>
  0.0001

> <r_epik_Ionization_Penalty_Charging>
  0.0000

> <r_epik_Ionization_Penalty_Neutral>
  0.0001

> <r_epik_State_Penalty>
 -0.0000

> <r_epik_Charging_Adjusted_Penalty>
0

> <i_epik_Tot_Q>
0

> <i_epik_Tot_abs_Q>
0

$$$$
