2j83_ligand
                    3D
 Schrodinger Suite 2020-3.
 63 64  0  0  1  0            999 V2000
   25.7170   48.9420   99.0180 C   0  0  1  0  0  0
   24.9690   47.6350   99.2020 C   0  0  0  0  0  0
   27.1960   48.6780   98.6970 C   0  0  0  0  0  0
   29.4320   47.2100   99.3910 C   0  0  0  0  0  0
   30.6700   47.7160   99.7270 C   0  0  0  0  0  0
   31.6250   46.9970   99.0330 C   0  0  0  0  0  0
   31.0940   46.0040   98.2180 C   0  0  0  0  0  0
   25.0010   49.8430   97.9940 C   0  0  1  0  0  0
   23.5370   50.0930   98.3930 C   0  0  0  0  0  0
   22.6700   50.6100   97.2500 C   0  0  0  0  0  0
   22.6350   52.1330   97.2330 C   0  0  0  0  0  0
   21.2470   50.0750   97.3190 C   0  0  0  0  0  0
   25.7030   51.1740   97.8650 C   0  0  0  0  0  0
   27.0760   52.6360   96.4240 C   0  0  2  0  0  0
   26.3740   53.9710   96.3550 C   0  0  0  0  0  0
   26.8040   56.3670   96.7760 C   0  0  0  0  0  0
   27.9710   52.4180   95.1970 C   0  0  0  0  0  0
   28.9160   51.2690   95.4920 C   0  0  0  0  0  0
   30.0460   51.4740   96.2880 C   0  0  0  0  0  0
   30.9100   50.4170   96.5760 C   0  0  0  0  0  0
   30.6390   49.1460   96.0680 C   0  0  0  0  0  0
   29.5120   48.9330   95.2690 C   0  0  0  0  0  0
   28.6530   50.0000   94.9850 C   0  0  0  0  0  0
   24.3680   47.4860  100.3700 N   0  0  0  0  0  0
   26.1770   51.4980   96.6530 N   0  0  0  0  0  0
   26.9600   54.9510   97.0540 N   0  0  0  0  0  0
   24.9120   46.7780   98.3290 O   0  0  0  0  0  0
   23.7010   46.2970  100.6560 O   0  0  0  0  0  0
   25.7880   51.9040   98.8450 O   0  0  0  0  0  0
   25.3450   54.1150   95.7130 O   0  0  0  0  0  0
   27.9600   47.8540  100.0630 S   0  0  0  0  0  0
   29.3420   45.8920   98.2710 S   0  0  0  0  0  0
   25.7047   49.4918   99.9707 H   0  0  0  0  0  0
   27.2693   48.0451   97.8003 H   0  0  0  0  0  0
   27.7078   49.6343   98.5136 H   0  0  0  0  0  0
   30.8615   48.5374  100.4175 H   0  0  0  0  0  0
   32.6944   47.1906   99.1170 H   0  0  0  0  0  0
   31.7110   45.3518   97.6000 H   0  0  0  0  0  0
   25.0356   49.3316   97.0207 H   0  0  0  0  0  0
   23.0875   49.1530   98.7457 H   0  0  0  0  0  0
   23.4990   50.8422   99.1976 H   0  0  0  0  0  0
   23.1298   50.2436   96.3203 H   0  0  0  0  0  0
   23.6624   52.5228   97.1831 H   0  0  0  0  0  0
   22.1481   52.4988   98.1490 H   0  0  0  0  0  0
   22.0693   52.4770   96.3546 H   0  0  0  0  0  0
   21.2690   48.9753   97.3314 H   0  0  0  0  0  0
   20.6824   50.4206   96.4405 H   0  0  0  0  0  0
   20.7612   50.4424   98.2349 H   0  0  0  0  0  0
   27.6829   52.6541   97.3412 H   0  0  0  0  0  0
   27.3925   56.9498   97.4999 H   0  0  0  0  0  0
   25.7424   56.6424   96.8601 H   0  0  0  0  0  0
   27.1590   56.5819   95.7573 H   0  0  0  0  0  0
   27.3454   52.1764   94.3251 H   0  0  0  0  0  0
   28.5446   53.3344   94.9940 H   0  0  0  0  0  0
   30.2540   52.4669   96.6868 H   0  0  0  0  0  0
   31.7920   50.5832   97.1945 H   0  0  0  0  0  0
   31.3085   48.3163   96.2950 H   0  0  0  0  0  0
   29.3035   47.9406   94.8693 H   0  0  0  0  0  0
   27.7728   49.8365   94.3632 H   0  0  0  0  0  0
   24.3929   48.2955  101.1144 H   0  0  0  0  0  0
   25.8629   50.8666   95.8088 H   0  0  0  0  0  0
   27.5958   54.6212   97.8888 H   0  0  0  0  0  0
   23.1992   46.1675  101.6263 H   0  0  0  0  0  0
  1  2  1  0  0  0
  1  3  1  0  0  0
  1  8  1  0  0  0
  1 33  1  0  0  0
  2 24  1  0  0  0
  2 27  2  0  0  0
  3 31  1  0  0  0
  3 34  1  0  0  0
  3 35  1  0  0  0
  4  5  2  0  0  0
  4 31  1  0  0  0
  4 32  1  0  0  0
  5  6  1  0  0  0
  5 36  1  0  0  0
  6  7  2  0  0  0
  6 37  1  0  0  0
  7 32  1  0  0  0
  7 38  1  0  0  0
  8  9  1  0  0  0
  8 13  1  0  0  0
  8 39  1  0  0  0
  9 10  1  0  0  0
  9 40  1  0  0  0
  9 41  1  0  0  0
 10 11  1  0  0  0
 10 12  1  0  0  0
 10 42  1  0  0  0
 11 43  1  0  0  0
 11 44  1  0  0  0
 11 45  1  0  0  0
 12 46  1  0  0  0
 12 47  1  0  0  0
 12 48  1  0  0  0
 13 25  1  0  0  0
 13 29  2  0  0  0
 14 15  1  0  0  0
 14 17  1  0  0  0
 14 25  1  0  0  0
 14 49  1  0  0  0
 15 26  1  0  0  0
 15 30  2  0  0  0
 16 26  1  0  0  0
 16 50  1  0  0  0
 16 51  1  0  0  0
 16 52  1  0  0  0
 17 18  1  0  0  0
 17 53  1  0  0  0
 17 54  1  0  0  0
 18 19  2  0  0  0
 18 23  1  0  0  0
 19 20  1  0  0  0
 19 55  1  0  0  0
 20 21  2  0  0  0
 20 56  1  0  0  0
 21 22  1  0  0  0
 21 57  1  0  0  0
 22 23  2  0  0  0
 22 58  1  0  0  0
 23 59  1  0  0  0
 24 28  1  0  0  0
 24 60  1  0  0  0
 25 61  1  0  0  0
 26 62  1  0  0  0
 28 63  1  0  0  0
M  END
> <s_m_source_file>
../2j83_ligand.sdf

> <i_m_source_file_index>
1

> <s_epik_input>
czFbY0hdW2NIXVtjSF1jMVNbQ0gyXVtDQEhdKEMoPU8pW05IXVtPSF0pW0NAQEhdKFtDSDJdW0NIXShbQ0gzXSlbQ0gzXSlDKD1PKVtOSF1bQ0BIXShDKD1PKVtOSF1bQ0gzXSlbQ0gyXWMyW2NIXVtjSF1bY0hdW2NIXVtjSF0y

> <s_epik_cmdline>
J2VwaWtfYXBwJywgJy1pbWFlJywgJ2xpZ2FuZF9wcm8ubWFlJywgJy1vbWFlJywgJ2xpZ2FuZF9wcmVwLm1hZScsICctbXMnLCAnMScsICctcGgnLCAnNycsICctcGh0JywgJzAuNScsICctbnQn

> <r_lp_tautomer_probability>
1

> <r_epik_Ionization_Penalty>
  0.0083

> <r_epik_Ionization_Penalty_Charging>
  0.0000

> <r_epik_Ionization_Penalty_Neutral>
  0.0083

> <r_epik_State_Penalty>
 -0.0000

> <r_epik_Charging_Adjusted_Penalty>
0

> <i_epik_Tot_Q>
0

> <i_epik_Tot_abs_Q>
0

> <s_epik_Chemistry_Notes>
This compound has a N-S or N-O group and may undergo hydrolysis at high or low pH.

$$$$
