2j94_ligand
                    3D
 Schrodinger Suite 2020-3.
 51 54  0  0  1  0            999 V2000
    6.2560    4.6970   17.7970 O   0  0  0  0  0  0
    7.0120    3.9640   18.4280 C   0  0  0  0  0  0
    7.8080    3.0650   17.7800 N   0  0  0  0  0  0
    7.6500    2.9310   16.3220 C   0  0  0  0  0  0
    9.0120    3.0320   15.6360 C   0  0  0  0  0  0
    9.8690    2.0580   16.2330 O   0  0  0  0  0  0
   10.1440    2.3450   17.6000 C   0  0  0  0  0  0
    8.8350    2.2120   18.3790 C   0  0  0  0  0  0
    7.0670    4.0890   19.9570 C   0  0  2  0  0  0
    6.5420    2.8280   20.6620 C   0  0  0  0  0  0
    6.3940    5.2930   20.4710 N   0  0  0  0  0  0
    4.9660    5.4720   20.7060 C   0  0  0  0  0  0
    4.8340    6.9920   20.5490 C   0  0  0  0  0  0
    7.1060    6.3800   20.7780 C   0  0  0  0  0  0
    8.3090    6.3840   20.6960 O   0  0  0  0  0  0
    6.1390    7.4760   21.1950 C   0  0  1  0  0  0
    6.4430    8.8810   20.9380 N   0  0  3  0  0  0
    6.3560    9.9130   22.2060 S   0  0  0  0  0  0
    4.9730   10.0270   22.5760 O   0  0  0  0  0  0
    7.1240   11.0420   21.7880 O   0  0  0  0  0  0
    7.1410    9.2320   23.5930 C   0  0  0  0  0  0
    6.4670    8.6010   24.5220 N   0  0  0  0  0  0
    7.3290    8.1310   25.4580 N   0  0  0  0  0  0
    8.4700    9.1720   23.7720 N   0  0  0  0  0  0
    8.5910    8.5160   24.9860 C   0  0  0  0  0  0
    9.8910    8.1930   25.6470 C   0  0  0  0  0  0
    9.9140    7.6310   26.9240 C   0  0  0  0  0  0
   11.2550    7.3910   27.3180 C   0  0  0  0  0  0
   12.1390    7.7990   26.2950 C   0  0  0  0  0  0
   11.4100    8.4400   24.9100 S   0  0  0  0  0  0
   13.8510    7.6210   26.3890 Cl  0  0  0  0  0  0
    7.2001    1.9544   16.0902 H   0  0  0  0  0  0
    6.9968    3.7335   15.9487 H   0  0  0  0  0  0
    8.8964    2.8333   14.5603 H   0  0  0  0  0  0
    9.4212    4.0428   15.7802 H   0  0  0  0  0  0
   10.8891    1.6315   17.9817 H   0  0  0  0  0  0
   10.5377    3.3684   17.6878 H   0  0  0  0  0  0
    9.0021    2.5170   19.4226 H   0  0  0  0  0  0
    8.5025    1.1638   18.3521 H   0  0  0  0  0  0
    8.1243    4.2426   20.2186 H   0  0  0  0  0  0
    7.0583    1.9427   20.2624 H   0  0  0  0  0  0
    5.4605    2.7326   20.4854 H   0  0  0  0  0  0
    6.7316    2.9063   21.7427 H   0  0  0  0  0  0
    4.3969    4.9015   19.9572 H   0  0  0  0  0  0
    4.7120    5.1103   21.7133 H   0  0  0  0  0  0
    4.7555    7.2449   19.4813 H   0  0  0  0  0  0
    3.9320    7.3380   21.0750 H   0  0  0  0  0  0
    6.1671    7.6205   22.2851 H   0  0  0  0  0  0
    6.8740    9.1827   19.9719 H   0  0  0  0  0  0
    9.0338    7.4098   27.5277 H   0  0  0  0  0  0
   11.5587    6.9558   28.2701 H   0  0  0  0  0  0
  1  2  2  0  0  0
  2  3  1  0  0  0
  2  9  1  0  0  0
  3  4  1  0  0  0
  3  8  1  0  0  0
  4  5  1  0  0  0
  4 32  1  0  0  0
  4 33  1  0  0  0
  5  6  1  0  0  0
  5 34  1  0  0  0
  5 35  1  0  0  0
  6  7  1  0  0  0
  7  8  1  0  0  0
  7 36  1  0  0  0
  7 37  1  0  0  0
  8 38  1  0  0  0
  8 39  1  0  0  0
  9 10  1  0  0  0
  9 11  1  0  0  0
  9 40  1  0  0  0
 10 41  1  0  0  0
 10 42  1  0  0  0
 10 43  1  0  0  0
 11 12  1  0  0  0
 11 14  1  0  0  0
 12 13  1  0  0  0
 12 44  1  0  0  0
 12 45  1  0  0  0
 13 16  1  0  0  0
 13 46  1  0  0  0
 13 47  1  0  0  0
 14 15  2  0  0  0
 14 16  1  0  0  0
 16 17  1  0  0  0
 16 48  1  0  0  0
 17 18  1  0  0  0
 17 49  1  0  0  0
 18 19  2  0  0  0
 18 20  2  0  0  0
 18 21  1  0  0  0
 21 22  2  0  0  0
 21 24  1  0  0  0
 22 23  1  0  0  0
 23 25  1  0  0  0
 24 25  2  0  0  0
 25 26  1  0  0  0
 26 27  2  0  0  0
 26 30  1  0  0  0
 27 28  1  0  0  0
 27 50  1  0  0  0
 28 29  2  0  0  0
 28 51  1  0  0  0
 29 30  1  0  0  0
 29 31  1  0  0  0
M  END
> <s_m_source_file>
../2j94_ligand.sdf

> <i_m_source_file_index>
1

> <s_epik_input>
W0NIMl0xW0NIMl1PW0NIMl1bQ0gyXU4xQyg9TylbQ0BIXShbQ0gzXSlOMltDSDJdW0NIMl1bQ0BASF0oQzI9TylbTkhdUyg9TykoPU8pYzNuW25IXWMobjMpLWM0W2NIXVtjSF1jKHM0KUNs

> <s_epik_cmdline>
J2VwaWtfYXBwJywgJy1pbWFlJywgJ2xpZ2FuZF9wcm8ubWFlJywgJy1vbWFlJywgJ2xpZ2FuZF9wcmVwLm1hZScsICctbXMnLCAnMScsICctcGgnLCAnNycsICctcGh0JywgJzAuNScsICctbnQn

> <r_lp_tautomer_probability>
1

> <r_epik_Ionization_Penalty>
  3.8381

> <r_epik_Ionization_Penalty_Charging>
  0.0000

> <r_epik_Ionization_Penalty_Neutral>
  3.8381

> <r_epik_State_Penalty>
 -0.0000

> <r_epik_Charging_Adjusted_Penalty>
0

> <i_epik_Tot_Q>
0

> <i_epik_Tot_abs_Q>
0

$$$$
