2j95_ligand
                    3D
 Schrodinger Suite 2020-3.
 53 56  0  0  1  0            999 V2000
   14.1050    7.5320   26.9890 Cl  0  0  0  0  0  0
   12.4180    7.7660   26.7000 C   0  0  0  0  0  0
   11.3760    7.3800   27.5560 C   0  0  0  0  0  0
   10.1060    7.6710   27.0020 C   0  0  0  0  0  0
   10.1930    8.3030   25.7530 C   0  0  0  0  0  0
    9.0800    8.6980   24.8590 C   0  0  0  0  0  0
    9.2010    9.4640   23.6880 C   0  0  0  0  0  0
    7.9870    9.6230   23.0020 C   0  0  0  0  0  0
    6.9270    8.9390   23.6060 C   0  0  0  0  0  0
    5.2290    8.8720   23.0360 S   0  0  0  0  0  0
    4.5230    8.3880   24.1970 O   0  0  0  0  0  0
    4.8170   10.0990   22.4130 O   0  0  0  0  0  0
    5.2710    7.7680   21.8600 N   0  0  3  0  0  0
    5.4710    6.3750   22.2560 C   0  0  1  0  0  0
    4.2940    5.4580   21.9300 C   0  0  0  0  0  0
    4.9270    4.1000   21.6030 C   0  0  0  0  0  0
    6.6060    5.7240   21.4760 C   0  0  0  0  0  0
    7.6600    6.2900   21.2230 O   0  0  0  0  0  0
    6.2760    4.4450   21.1530 N   0  0  0  0  0  0
    7.2050    3.4960   20.4630 C   0  0  1  0  0  0
    7.2180    2.0470   21.0200 C   0  0  0  0  0  0
    6.9850    3.4530   18.9410 C   0  0  0  0  0  0
    5.8970    3.8310   18.5190 O   0  0  0  0  0  0
    8.0100    3.0420   18.1030 N   0  0  0  0  0  0
    7.7440    3.0970   16.6480 C   0  0  0  0  0  0
    8.6830    2.2610   15.7710 C   0  0  0  0  0  0
   10.0010    2.2340   16.2850 O   0  0  0  0  0  0
   10.0940    1.6970   17.5790 C   0  0  0  0  0  0
    9.3640    2.6190   18.5570 C   0  0  0  0  0  0
    7.4780    8.1250   25.0250 S   0  0  0  0  0  0
   11.8210    8.4880   25.2650 S   0  0  0  0  0  0
   11.5258    6.9128   28.5293 H   0  0  0  0  0  0
    9.1631    7.4300   27.4929 H   0  0  0  0  0  0
   10.1434    9.8921   23.3462 H   0  0  0  0  0  0
    7.8813   10.2170   22.0942 H   0  0  0  0  0  0
    5.3208    8.0505   20.7981 H   0  0  0  0  0  0
    5.6448    6.5007   23.3349 H   0  0  0  0  0  0
    3.6259    5.3950   22.8016 H   0  0  0  0  0  0
    3.7393    5.8645   21.0715 H   0  0  0  0  0  0
    4.9368    3.4729   22.5067 H   0  0  0  0  0  0
    4.3403    3.6016   20.8172 H   0  0  0  0  0  0
    8.1746    3.9595   20.6977 H   0  0  0  0  0  0
    7.3751    2.0740   22.1084 H   0  0  0  0  0  0
    8.0322    1.4792   20.5459 H   0  0  0  0  0  0
    6.2559    1.5611   20.8004 H   0  0  0  0  0  0
    6.7262    2.7313   16.4473 H   0  0  0  0  0  0
    7.8363    4.1355   16.2974 H   0  0  0  0  0  0
    8.3124    1.2266   15.7193 H   0  0  0  0  0  0
    8.7171    2.6892   14.7584 H   0  0  0  0  0  0
    9.6316    0.6990   17.5959 H   0  0  0  0  0  0
   11.1525    1.6156   17.8670 H   0  0  0  0  0  0
    9.9977    3.5071   18.6972 H   0  0  0  0  0  0
    9.2782    2.0757   19.5096 H   0  0  0  0  0  0
  1  2  1  0  0  0
  2  3  2  0  0  0
  2 31  1  0  0  0
  3  4  1  0  0  0
  3 32  1  0  0  0
  4  5  2  0  0  0
  4 33  1  0  0  0
  5  6  1  0  0  0
  5 31  1  0  0  0
  6  7  2  0  0  0
  6 30  1  0  0  0
  7  8  1  0  0  0
  7 34  1  0  0  0
  8  9  2  0  0  0
  8 35  1  0  0  0
  9 10  1  0  0  0
  9 30  1  0  0  0
 10 11  2  0  0  0
 10 12  2  0  0  0
 10 13  1  0  0  0
 13 14  1  0  0  0
 13 36  1  0  0  0
 14 15  1  0  0  0
 14 17  1  0  0  0
 14 37  1  0  0  0
 15 16  1  0  0  0
 15 38  1  0  0  0
 15 39  1  0  0  0
 16 19  1  0  0  0
 16 40  1  0  0  0
 16 41  1  0  0  0
 17 18  2  0  0  0
 17 19  1  0  0  0
 19 20  1  0  0  0
 20 21  1  0  0  0
 20 22  1  0  0  0
 20 42  1  0  0  0
 21 43  1  0  0  0
 21 44  1  0  0  0
 21 45  1  0  0  0
 22 23  2  0  0  0
 22 24  1  0  0  0
 24 25  1  0  0  0
 24 29  1  0  0  0
 25 26  1  0  0  0
 25 46  1  0  0  0
 25 47  1  0  0  0
 26 27  1  0  0  0
 26 48  1  0  0  0
 26 49  1  0  0  0
 27 28  1  0  0  0
 28 29  1  0  0  0
 28 50  1  0  0  0
 28 51  1  0  0  0
 29 52  1  0  0  0
 29 53  1  0  0  0
M  END
> <s_m_source_file>
../2j95_ligand.sdf

> <i_m_source_file_index>
1

> <s_epik_input>
Q2xjMVtjSF1bY0hdYyhzMSktYzJbY0hdW2NIXWMoczIpUyg9TykoPU8pW05IXVtDQEhdM1tDSDJdW0NIMl1OKEMzPU8pW0NAQEhdKFtDSDNdKUMoPU8pTjRbQ0gyXVtDSDJdT1tDSDJdW0NIMl00

> <s_epik_cmdline>
J2VwaWtfYXBwJywgJy1pbWFlJywgJ2xpZ2FuZF9wcm8ubWFlJywgJy1vbWFlJywgJ2xpZ2FuZF9wcmVwLm1hZScsICctbXMnLCAnMScsICctcGgnLCAnNycsICctcGh0JywgJzAuNScsICctbnQn

> <r_lp_tautomer_probability>
1

> <r_epik_Ionization_Penalty>
  0.0053

> <r_epik_Ionization_Penalty_Charging>
  0.0000

> <r_epik_Ionization_Penalty_Neutral>
  0.0053

> <r_epik_State_Penalty>
 -0.0000

> <r_epik_Charging_Adjusted_Penalty>
0

> <i_epik_Tot_Q>
0

> <i_epik_Tot_abs_Q>
0

$$$$
