2j9a_ligand
                    3D
 Schrodinger Suite 2020-3.
109110  0  0  1  0            999 V2000
   65.9870   53.3170   18.5990 N   0  0  0  0  0  0
   67.0680   52.6970   19.3510 C   0  0  2  0  0  0
   66.5840   52.2600   20.7170 C   0  0  0  0  0  0
   65.8720   53.0300   21.3560 O   0  0  0  0  0  0
   68.2640   53.6850   19.5190 C   0  0  0  0  0  0
   66.9970   51.0530   21.1420 N   0  0  0  0  0  0
   67.8810   50.2480   20.2580 C   0  0  0  0  0  0
   66.5740   50.5830   22.4990 C   0  0  1  0  0  0
   65.9140   49.2070   22.4230 C   0  0  0  0  0  0
   64.6400   49.2980   21.5070 C   0  0  0  0  0  0
   63.8960   47.9580   21.5030 C   0  0  0  0  0  0
   63.6570   50.4120   21.9160 C   0  0  0  0  0  0
   67.7610   50.7820   23.5130 C   0  0  0  0  0  0
   68.8810   51.1070   23.0840 O   0  0  0  0  0  0
   67.4060   50.7060   24.8240 N   0  0  0  0  0  0
   68.2950   51.0230   26.0080 C   0  0  2  0  0  0
   68.5850   49.9630   27.1120 C   0  0  0  0  0  0
   68.2460   50.1820   28.2830 O   0  0  0  0  0  0
   67.5670   52.2200   26.7040 C   0  0  0  0  0  0
   66.1120   51.8270   26.9990 C   0  0  0  0  0  0
   65.1340   52.0210   26.0100 C   0  0  0  0  0  0
   65.7640   51.2550   28.2330 C   0  0  0  0  0  0
   63.8080   51.6460   26.2260 C   0  0  0  0  0  0
   64.4360   50.8840   28.4640 C   0  0  0  0  0  0
   63.4570   51.0750   27.4660 C   0  0  0  0  0  0
   62.1520   50.6980   27.6950 O   0  0  0  0  0  0
   69.2620   48.8530   26.8000 N   0  0  0  0  0  0
   69.7780   48.4390   25.4960 C   0  0  2  0  0  0
   69.2310   47.0220   25.3090 C   0  0  0  0  0  0
   69.9540   46.0640   25.6930 O   0  5  0  0  0  0
   71.3330   48.4580   25.5440 C   0  0  0  0  0  0
   72.0150   49.7800   25.0910 C   0  0  0  0  0  0
   71.3460   51.0020   25.2130 C   0  0  0  0  0  0
   73.3170   49.7660   24.5590 C   0  0  0  0  0  0
   71.9480   52.1950   24.8060 C   0  0  0  0  0  0
   73.9300   50.9610   24.1570 C   0  0  0  0  0  0
   73.2420   52.1830   24.2790 C   0  0  0  0  0  0
   73.8030   53.3720   23.8970 O   0  0  0  0  0  0
   68.0790   46.9300   24.8140 O   0  0  0  0  0  0
   56.1860   53.3800   22.6030 C   0  0  0  0  0  0
   57.1970   54.5350   22.7250 C   0  0  0  0  0  0
   58.6770   54.1130   22.5140 C   0  0  0  0  0  0
   58.9630   53.6830   21.0560 C   0  0  0  0  0  0
   60.4710   53.8410   20.7380 C   0  0  0  0  0  0
   60.7490   53.4230   19.2790 C   0  0  0  0  0  0
   62.1750   53.7310   18.8780 C   0  0  0  0  0  0
   62.5600   53.0510   17.5410 C   0  0  1  0  0  0
   61.7610   53.6320   16.4050 N   0  3  0  0  0  0
   64.0310   53.3640   17.2410 C   0  0  2  0  0  0
   64.3960   52.9060   15.9630 O   0  0  0  0  0  0
   64.9870   52.5950   18.1510 C   0  0  0  0  0  0
   64.7890   51.4130   18.3940 O   0  0  0  0  0  0
   66.0040   54.3991   18.4021 H   0  0  0  0  0  0
   67.3468   51.8121   18.7601 H   0  0  0  0  0  0
   68.6178   54.0043   18.5276 H   0  0  0  0  0  0
   69.0820   53.1825   20.0560 H   0  0  0  0  0  0
   67.9352   54.5646   20.0918 H   0  0  0  0  0  0
   68.0539   50.7928   19.3181 H   0  0  0  0  0  0
   67.4004   49.2830   20.0394 H   0  0  0  0  0  0
   68.8426   50.0727   20.7625 H   0  0  0  0  0  0
   65.7421   51.2021   22.8659 H   0  0  0  0  0  0
   66.6244   48.4826   21.9981 H   0  0  0  0  0  0
   65.6214   48.8844   23.4331 H   0  0  0  0  0  0
   64.9880   49.5415   20.4923 H   0  0  0  0  0  0
   64.5889   47.1548   21.2121 H   0  0  0  0  0  0
   63.0641   48.0027   20.7847 H   0  0  0  0  0  0
   63.5010   47.7549   22.5093 H   0  0  0  0  0  0
   64.1809   51.3792   21.9222 H   0  0  0  0  0  0
   63.2626   50.2021   22.9212 H   0  0  0  0  0  0
   62.8258   50.4498   21.1965 H   0  0  0  0  0  0
   66.3682   50.3798   24.9872 H   0  0  0  0  0  0
   69.2853   51.1573   25.5483 H   0  0  0  0  0  0
   68.0806   52.4640   27.6456 H   0  0  0  0  0  0
   67.5842   53.0962   26.0392 H   0  0  0  0  0  0
   65.4156   52.4718   25.0584 H   0  0  0  0  0  0
   66.5208   51.1019   29.0024 H   0  0  0  0  0  0
   63.0567   51.7919   25.4499 H   0  0  0  0  0  0
   64.1551   50.4444   29.4211 H   0  0  0  0  0  0
   61.3911   50.8482   26.9149 H   0  0  0  0  0  0
   69.4169   48.2131   27.6812 H   0  0  0  0  0  0
   69.4402   49.1145   24.6962 H   0  0  0  0  0  0
   71.6702   48.2794   26.5757 H   0  0  0  0  0  0
   71.7298   47.6700   24.8870 H   0  0  0  0  0  0
   70.3399   51.0239   25.6319 H   0  0  0  0  0  0
   73.8519   48.8216   24.4588 H   0  0  0  0  0  0
   71.4074   53.1368   24.8997 H   0  0  0  0  0  0
   74.9408   50.9439   23.7494 H   0  0  0  0  0  0
   73.2359   54.3081   24.0068 H   0  0  0  0  0  0
   55.1684   53.7648   22.7655 H   0  0  0  0  0  0
   56.4129   52.6129   23.3580 H   0  0  0  0  0  0
   56.2545   52.9373   21.5983 H   0  0  0  0  0  0
   56.9701   55.3021   21.9700 H   0  0  0  0  0  0
   57.1285   54.9777   23.7296 H   0  0  0  0  0  0
   59.3374   54.9589   22.7553 H   0  0  0  0  0  0
   58.9136   53.2639   23.1720 H   0  0  0  0  0  0
   58.6749   52.6300   20.9211 H   0  0  0  0  0  0
   58.3817   54.3134   20.3670 H   0  0  0  0  0  0
   60.7668   54.8914   20.8762 H   0  0  0  0  0  0
   61.0574   53.2028   21.4154 H   0  0  0  0  0  0
   60.5817   52.3413   19.1693 H   0  0  0  0  0  0
   60.0717   53.9689   18.6058 H   0  0  0  0  0  0
   62.2956   54.8178   18.7584 H   0  0  0  0  0  0
   62.8614   53.3696   19.6579 H   0  0  0  0  0  0
   62.3631   51.9709   17.6089 H   0  0  0  0  0  0
   60.6915   53.4349   16.5705 H   0  0  0  0  0  0
   62.0774   53.1679   15.4592 H   0  0  0  0  0  0
   61.9303   54.7178   16.3553 H   0  0  0  0  0  0
   64.1375   54.4578   17.2893 H   0  0  0  0  0  0
   63.8739   53.2862   15.0726 H   0  0  0  0  0  0
  1  2  1  0  0  0
  1 51  1  0  0  0
  1 53  1  0  0  0
  2  3  1  0  0  0
  2  5  1  0  0  0
  2 54  1  0  0  0
  3  4  2  0  0  0
  3  6  1  0  0  0
  5 55  1  0  0  0
  5 56  1  0  0  0
  5 57  1  0  0  0
  6  7  1  0  0  0
  6  8  1  0  0  0
  7 58  1  0  0  0
  7 59  1  0  0  0
  7 60  1  0  0  0
  8  9  1  0  0  0
  8 13  1  0  0  0
  8 61  1  0  0  0
  9 10  1  0  0  0
  9 62  1  0  0  0
  9 63  1  0  0  0
 10 11  1  0  0  0
 10 12  1  0  0  0
 10 64  1  0  0  0
 11 65  1  0  0  0
 11 66  1  0  0  0
 11 67  1  0  0  0
 12 68  1  0  0  0
 12 69  1  0  0  0
 12 70  1  0  0  0
 13 14  2  0  0  0
 13 15  1  0  0  0
 15 16  1  0  0  0
 15 71  1  0  0  0
 16 17  1  0  0  0
 16 19  1  0  0  0
 16 72  1  0  0  0
 17 18  2  0  0  0
 17 27  1  0  0  0
 19 20  1  0  0  0
 19 73  1  0  0  0
 19 74  1  0  0  0
 20 21  2  0  0  0
 20 22  1  0  0  0
 21 23  1  0  0  0
 21 75  1  0  0  0
 22 24  2  0  0  0
 22 76  1  0  0  0
 23 25  2  0  0  0
 23 77  1  0  0  0
 24 25  1  0  0  0
 24 78  1  0  0  0
 25 26  1  0  0  0
 26 79  1  0  0  0
 27 28  1  0  0  0
 27 80  1  0  0  0
 28 29  1  0  0  0
 28 31  1  0  0  0
 28 81  1  0  0  0
 29 30  1  0  0  0
 29 39  2  0  0  0
 31 32  1  0  0  0
 31 82  1  0  0  0
 31 83  1  0  0  0
 32 33  2  0  0  0
 32 34  1  0  0  0
 33 35  1  0  0  0
 33 84  1  0  0  0
 34 36  2  0  0  0
 34 85  1  0  0  0
 35 37  2  0  0  0
 35 86  1  0  0  0
 36 37  1  0  0  0
 36 87  1  0  0  0
 37 38  1  0  0  0
 38 88  1  0  0  0
 40 41  1  0  0  0
 40 89  1  0  0  0
 40 90  1  0  0  0
 40 91  1  0  0  0
 41 42  1  0  0  0
 41 92  1  0  0  0
 41 93  1  0  0  0
 42 43  1  0  0  0
 42 94  1  0  0  0
 42 95  1  0  0  0
 43 44  1  0  0  0
 43 96  1  0  0  0
 43 97  1  0  0  0
 44 45  1  0  0  0
 44 98  1  0  0  0
 44 99  1  0  0  0
 45 46  1  0  0  0
 45100  1  0  0  0
 45101  1  0  0  0
 46 47  1  0  0  0
 46102  1  0  0  0
 46103  1  0  0  0
 47 48  1  0  0  0
 47 49  1  0  0  0
 47104  1  0  0  0
 48105  1  0  0  0
 48106  1  0  0  0
 48107  1  0  0  0
 49 50  1  0  0  0
 49 51  1  0  0  0
 49108  1  0  0  0
 50109  1  0  0  0
 51 52  2  0  0  0
M  CHG  2  30  -1  48   1
M  END
> <s_m_source_file>
../2j9a_ligand.sdf

> <i_m_source_file_index>
1

> <s_epik_input>
W0NIM11bQ0gyXVtDSDJdW0NIMl1bQ0gyXVtDSDJdW0NIMl1bQ0BASF0oW05IMytdKVtDQEhdKFtPSF0pQyg9TylbTkhdW0NAQEhdKFtDSDNdKUMoPU8pTihbQ0gzXSlbQ0BASF0oW0NIMl1bQ0hdKFtDSDNdKVtDSDNdKUMoPU8pW05IXVtDQEBIXShbQ0gyXWMxW2NIXVtjSF1jKFtPSF0pW2NIXVtjSF0xKUMoPU8pW05IXVtDQEhdKEMoPU8pW09IXSlbQ0gyXWMyW2NIXVtjSF1jKFtPSF0pW2NIXVtjSF0y

> <s_epik_cmdline>
J2VwaWtfYXBwJywgJy1pbWFlJywgJ2xpZ2FuZF9wcm8ubWFlJywgJy1vbWFlJywgJ2xpZ2FuZF9wcmVwLm1hZScsICctbXMnLCAnMScsICctcGgnLCAnNycsICctcGh0JywgJzAuNScsICctbnQn

> <r_lp_tautomer_probability>
0.99999999999473

> <r_epik_Ionization_Penalty>
  0.0197

> <r_epik_Ionization_Penalty_Charging>
  0.0180

> <r_epik_Ionization_Penalty_Neutral>
  0.0017

> <r_epik_State_Penalty>
  0.0141

> <r_epik_Charging_Adjusted_Penalty>
0.0320958480648889

> <i_epik_Tot_Q>
0

> <i_epik_Tot_abs_Q>
2

$$$$
