2j9h_ligand
                    3D
 Schrodinger Suite 2020-3.
 54 53  0  0  1  0            999 V2000
   15.4020   -2.9120   11.8320 N   0  3  0  0  0  0
   14.0070   -3.2720   11.6950 C   0  0  2  0  0  0
   13.8050   -4.7360   11.9700 C   0  0  0  0  0  0
   14.5550   -5.5910   11.4960 O   0  0  0  0  0  0
   12.8710   -5.1470   12.6730 O   0  5  0  0  0  0
   13.5060   -2.8510   10.3140 C   0  0  0  0  0  0
   12.0560   -3.2470   10.0980 C   0  0  0  0  0  0
   11.5730   -2.6320    8.8230 C   0  0  0  0  0  0
   12.5020   -2.1440    7.8940 O   0  0  0  0  0  0
   10.2550   -2.5590    8.6110 N   0  0  0  0  0  0
    9.7590   -1.7860    7.4850 C   0  0  2  0  0  0
    8.4790   -1.0540    7.7370 C   0  0  0  0  0  0
    7.6750   -1.4000    8.8450 O   0  0  0  0  0  0
    9.6150   -2.6610    6.2600 C   0  0  0  0  0  0
    8.3810   -3.9580    6.5170 S   0  0  0  0  0  0
    8.4130   -4.0510    4.7150 C   0  0  0  0  0  0
    7.8410   -5.3370    4.1480 C   0  0  0  0  0  0
    6.3430   -5.1760    3.9750 C   0  0  0  0  0  0
    6.0050   -4.5820    2.6160 C   0  0  0  0  0  0
    4.5690   -4.9420    2.2400 C   0  0  0  0  0  0
    4.0450   -3.9610    1.2020 C   0  0  0  0  0  0
    8.1900   -0.1050    6.8390 N   0  0  0  0  0  0
    7.0410    0.7780    6.9380 C   0  0  0  0  0  0
    7.3970    2.2350    7.2090 C   0  0  0  0  0  0
    6.5180    3.1020    6.9980 O   0  0  0  0  0  0
    8.5350    2.5990    7.6330 O   0  5  0  0  0  0
   15.7629   -3.2149   12.8260 H   0  0  0  0  0  0
   15.5127   -1.8236   11.7177 H   0  0  0  0  0  0
   15.9906   -3.4239   11.0565 H   0  0  0  0  0  0
   13.4525   -2.7247   12.4715 H   0  0  0  0  0  0
   13.5854   -1.7586   10.2125 H   0  0  0  0  0  0
   14.1167   -3.3366    9.5386 H   0  0  0  0  0  0
   11.9806   -4.3426   10.0353 H   0  0  0  0  0  0
   11.4477   -2.8852   10.9401 H   0  0  0  0  0  0
    9.5485   -3.0756    9.2773 H   0  0  0  0  0  0
   10.5365   -1.0185    7.3568 H   0  0  0  0  0  0
    9.3011   -2.0451    5.4044 H   0  0  0  0  0  0
   10.5804   -3.1375    6.0342 H   0  0  0  0  0  0
    7.8236   -3.2229    4.2946 H   0  0  0  0  0  0
    9.4523   -3.9772    4.3624 H   0  0  0  0  0  0
    8.3067   -5.5473    3.1739 H   0  0  0  0  0  0
    8.0477   -6.1667    4.8400 H   0  0  0  0  0  0
    5.8565   -6.1591    4.0583 H   0  0  0  0  0  0
    5.9535   -4.5068    4.7563 H   0  0  0  0  0  0
    6.1075   -3.4876    2.6584 H   0  0  0  0  0  0
    6.6926   -4.9856    1.8581 H   0  0  0  0  0  0
    4.5432   -5.9597    1.8234 H   0  0  0  0  0  0
    3.9329   -4.8965    3.1363 H   0  0  0  0  0  0
    3.0111   -4.2261    0.9360 H   0  0  0  0  0  0
    4.6777   -4.0054    0.3033 H   0  0  0  0  0  0
    4.0674   -2.9422    1.6162 H   0  0  0  0  0  0
    8.8819   -0.0140    5.9887 H   0  0  0  0  0  0
    6.4769    0.7530    5.9940 H   0  0  0  0  0  0
    6.3924    0.4448    7.7616 H   0  0  0  0  0  0
  1  2  1  0  0  0
  1 27  1  0  0  0
  1 28  1  0  0  0
  1 29  1  0  0  0
  2  3  1  0  0  0
  2  6  1  0  0  0
  2 30  1  0  0  0
  3  4  2  0  0  0
  3  5  1  0  0  0
  6  7  1  0  0  0
  6 31  1  0  0  0
  6 32  1  0  0  0
  7  8  1  0  0  0
  7 33  1  0  0  0
  7 34  1  0  0  0
  8  9  2  0  0  0
  8 10  1  0  0  0
 10 11  1  0  0  0
 10 35  1  0  0  0
 11 12  1  0  0  0
 11 14  1  0  0  0
 11 36  1  0  0  0
 12 13  2  0  0  0
 12 22  1  0  0  0
 14 15  1  0  0  0
 14 37  1  0  0  0
 14 38  1  0  0  0
 15 16  1  0  0  0
 16 17  1  0  0  0
 16 39  1  0  0  0
 16 40  1  0  0  0
 17 18  1  0  0  0
 17 41  1  0  0  0
 17 42  1  0  0  0
 18 19  1  0  0  0
 18 43  1  0  0  0
 18 44  1  0  0  0
 19 20  1  0  0  0
 19 45  1  0  0  0
 19 46  1  0  0  0
 20 21  1  0  0  0
 20 47  1  0  0  0
 20 48  1  0  0  0
 21 49  1  0  0  0
 21 50  1  0  0  0
 21 51  1  0  0  0
 22 23  1  0  0  0
 22 52  1  0  0  0
 23 24  1  0  0  0
 23 53  1  0  0  0
 23 54  1  0  0  0
 24 25  2  0  0  0
 24 26  1  0  0  0
M  CHG  3   1   1   5  -1  26  -1
M  END
> <s_m_source_file>
../2j9h_ligand.sdf

> <i_m_source_file_index>
1

> <s_epik_input>
Tz1DKFtPSF0pW0NAQEhdKFtOSDMrXSlbQ0gyXVtDSDJdQyg9TylbTkhdW0NASF0oQyg9TylbTkhdW0NIMl1DKD1PKVtPSF0pW0NIMl1TW0NIMl1bQ0gyXVtDSDJdW0NIMl1bQ0gyXVtDSDNd

> <s_epik_cmdline>
J2VwaWtfYXBwJywgJy1pbWFlJywgJ2xpZ2FuZF9wcm8ubWFlJywgJy1vbWFlJywgJ2xpZ2FuZF9wcmVwLm1hZScsICctbXMnLCAnMScsICctcGgnLCAnNycsICctcGh0JywgJzAuNScsICctbnQn

> <r_lp_tautomer_probability>
1

> <r_epik_Ionization_Penalty>
  0.0025

> <r_epik_Ionization_Penalty_Charging>
  0.0025

> <r_epik_Ionization_Penalty_Neutral>
  0.0000

> <r_epik_State_Penalty>
 -0.0000

> <r_epik_Charging_Adjusted_Penalty>
0.00254311866569949

> <i_epik_Tot_Q>
-1

> <i_epik_Tot_abs_Q>
3

$$$$
