2j9l_ligand
                    3D
 Schrodinger Suite 2020-3.
 43 45  0  0  1  0            999 V2000
   14.2980   75.9230   56.8070 P   0  0  0  0  0  0
   14.8130   75.8020   58.3540 O   0  5  0  0  0  0
   15.4610   76.7600   56.0260 O   0  5  0  0  0  0
   12.9510   76.5570   56.6990 O   0  0  0  0  0  0
   13.5210   74.0030   54.9300 P   0  0  2  0  0  0
   12.1320   73.7010   55.3000 O   0  5  0  0  0  0
   14.3300   72.9780   54.2600 O   0  0  0  0  0  0
   14.3500   74.4210   56.2200 O   0  0  0  0  0  0
   13.0500   75.3780   52.5090 P   0  0  1  0  0  0
   12.3170   76.6320   52.2730 O   0  5  0  0  0  0
   14.1890   75.0200   51.6540 O   0  0  0  0  0  0
   13.5380   75.3360   54.0420 O   0  0  0  0  0  0
   10.7820   73.2460   48.9490 N   0  0  0  0  0  0
   12.0420   73.6670   49.0490 C   0  0  0  0  0  0
   12.3980   74.2530   47.9070 N   0  0  0  0  0  0
   11.3590   74.2030   47.0820 C   0  0  0  0  0  0
   11.1450   74.6320   45.7850 C   0  0  0  0  0  0
   12.1100   75.2440   45.1130 N   0  0  0  0  0  0
    9.9560   74.4230   45.2230 N   0  0  0  0  0  0
    8.9910   73.8090   45.8810 C   0  0  0  0  0  0
    9.1640   73.3820   47.1180 N   0  0  0  0  0  0
   10.3340   73.5640   47.7410 C   0  0  0  0  0  0
   11.9610   74.2290   52.4480 O   0  0  0  0  0  0
   10.5760   74.5430   52.6120 C   0  0  0  0  0  0
    9.6820   73.3680   52.1920 C   0  0  1  0  0  0
    9.3470   73.5520   50.8010 O   0  0  0  0  0  0
   10.3550   71.9920   52.2990 C   0  0  1  0  0  0
    9.3600   70.9810   52.5390 O   0  0  0  0  0  0
   10.9540   71.7820   50.9210 C   0  0  1  0  0  0
   10.9080   70.3860   50.5840 O   0  0  0  0  0  0
   10.0030   72.5490   50.0020 C   0  0  2  0  0  0
   12.6797   73.5505   49.9253 H   0  0  0  0  0  0
   13.0887   75.4118   45.5863 H   0  0  0  0  0  0
   11.9320   75.5840   44.0821 H   0  0  0  0  0  0
    8.0296   73.6509   45.3922 H   0  0  0  0  0  0
   10.3751   74.7743   53.6685 H   0  0  0  0  0  0
   10.3216   75.4146   51.9910 H   0  0  0  0  0  0
    8.7815   73.3804   52.8236 H   0  0  0  0  0  0
   11.0684   71.8886   53.1299 H   0  0  0  0  0  0
    8.8098   70.9659   53.4914 H   0  0  0  0  0  0
   12.0151   72.0606   50.8399 H   0  0  0  0  0  0
   11.5279   69.6657   51.1380 H   0  0  0  0  0  0
    9.2507   71.8955   49.5362 H   0  0  0  0  0  0
  1  2  1  0  0  0
  1  3  1  0  0  0
  1  4  2  0  0  0
  1  8  1  0  0  0
  5  6  1  0  0  0
  5  7  2  0  0  0
  5  8  1  0  0  0
  5 12  1  0  0  0
  9 10  1  0  0  0
  9 11  2  0  0  0
  9 12  1  0  0  0
  9 23  1  0  0  0
 13 14  1  0  0  0
 13 22  1  0  0  0
 13 31  1  0  0  0
 14 15  2  0  0  0
 14 32  1  0  0  0
 15 16  1  0  0  0
 16 17  2  0  0  0
 16 22  1  0  0  0
 17 18  1  0  0  0
 17 19  1  0  0  0
 18 33  1  0  0  0
 18 34  1  0  0  0
 19 20  2  0  0  0
 20 21  1  0  0  0
 20 35  1  0  0  0
 21 22  2  0  0  0
 23 24  1  0  0  0
 24 25  1  0  0  0
 24 36  1  0  0  0
 24 37  1  0  0  0
 25 26  1  0  0  0
 25 27  1  0  0  0
 25 38  1  0  0  0
 26 31  1  0  0  0
 27 28  1  0  0  0
 27 29  1  0  0  0
 27 39  1  0  0  0
 28 40  1  0  0  0
 29 30  1  0  0  0
 29 31  1  0  0  0
 29 41  1  0  0  0
 30 42  1  0  0  0
 31 43  1  0  0  0
M  CHG  4   2  -1   3  -1   6  -1  10  -1
M  END
> <s_m_source_file>
../2j9l_ligand.sdf

> <i_m_source_file_index>
1

> <s_epik_input>
W09IXVAoPU8pKFtPSF0pT1tQQEBdKD1PKShbT0hdKU9bUEBdKD1PKShbT0hdKU9bQ0gyXVtDQEhdMU9bQ0BIXShbQ0BIXShbT0hdKVtDQEBIXTFbT0hdKW4oW2NIXW4yKWMoYzIzKW5bY0hdbmMzW05IMl0=

> <s_epik_cmdline>
J2VwaWtfYXBwJywgJy1pbWFlJywgJ2xpZ2FuZF9wcm8ubWFlJywgJy1vbWFlJywgJ2xpZ2FuZF9wcmVwLm1hZScsICctbXMnLCAnMScsICctcGgnLCAnNycsICctcGh0JywgJzAuNScsICctbnQn

> <r_lp_tautomer_probability>
0.999997216410988

> <r_epik_Ionization_Penalty>
  0.0818

> <r_epik_Ionization_Penalty_Charging>
  0.0813

> <r_epik_Ionization_Penalty_Neutral>
  0.0004

> <r_epik_State_Penalty>
  0.0708

> <r_epik_Charging_Adjusted_Penalty>
0.152157994418768

> <i_epik_Tot_Q>
-4

> <i_epik_Tot_abs_Q>
4

> <s_epik_Chemistry_Notes>
This compound contains an acetal/aminal-like group ( X-CH(R)-Y where X, Y are N, S, or O) that may be acid/base labile, releasing an aldehyde.

$$$$
