2j9n_ligand
                    3D
 Schrodinger Suite 2020-3.
 18 18  0  0  1  0            999 V2000
   28.6820   43.7880   16.0130 C   0  0  0  0  0  0
   28.4050   44.3650   17.2430 C   0  0  0  0  0  0
   28.0380   43.6080   18.3440 C   0  0  0  0  0  0
   27.9890   42.2340   18.2400 C   0  0  0  0  0  0
   28.2580   41.6420   17.0210 C   0  0  0  0  0  0
   28.6190   42.4170   15.9170 C   0  0  0  0  0  0
   29.0350   44.5610   14.9010 C   0  0  0  0  0  0
   28.7290   45.8570   14.8650 N   0  0  0  0  0  0
   29.6720   44.0550   13.8530 N   0  3  0  0  0  0
   28.4782   45.4476   17.3470 H   0  0  0  0  0  0
   27.7895   44.0957   19.2866 H   0  0  0  0  0  0
   27.7413   41.6230   19.1080 H   0  0  0  0  0  0
   28.1877   40.5590   16.9200 H   0  0  0  0  0  0
   28.8532   41.9310   14.9699 H   0  0  0  0  0  0
   28.2009   46.3211   15.7110 H   0  0  0  0  0  0
   29.0044   46.4630   13.9893 H   0  0  0  0  0  0
   29.9456   42.9897   13.8374 H   0  0  0  0  0  0
   29.9266   44.7008   12.9997 H   0  0  0  0  0  0
  1  2  2  0  0  0
  1  6  1  0  0  0
  1  7  1  0  0  0
  2  3  1  0  0  0
  2 10  1  0  0  0
  3  4  2  0  0  0
  3 11  1  0  0  0
  4  5  1  0  0  0
  4 12  1  0  0  0
  5  6  2  0  0  0
  5 13  1  0  0  0
  6 14  1  0  0  0
  7  8  1  0  0  0
  7  9  2  0  0  0
  8 15  1  0  0  0
  8 16  1  0  0  0
  9 17  1  0  0  0
  9 18  1  0  0  0
M  CHG  1   9   1
M  END
> <s_m_source_file>
../2j9n_ligand.sdf

> <i_m_source_file_index>
1

> <s_epik_input>
W0hdXE49QyhbTkgyXSlcYzFbY0hdW2NIXVtjSF1bY0hdW2NIXTE=

> <s_epik_cmdline>
J2VwaWtfYXBwJywgJy1pbWFlJywgJ2xpZ2FuZF9wcm8ubWFlJywgJy1vbWFlJywgJ2xpZ2FuZF9wcmVwLm1hZScsICctbXMnLCAnMScsICctcGgnLCAnNycsICctcGh0JywgJzAuNScsICctbnQn

> <r_lp_tautomer_probability>
1

> <r_epik_Ionization_Penalty>
  0.0003

> <r_epik_Ionization_Penalty_Charging>
  0.0003

> <r_epik_Ionization_Penalty_Neutral>
  0.0000

> <r_epik_State_Penalty>
 -0.0000

> <r_epik_Charging_Adjusted_Penalty>
0.0003115973184836

> <i_epik_Tot_Q>
1

> <i_epik_Tot_abs_Q>
1

> <s_epik_Chemistry_Notes>
This compound has an imine and may undergo hydrolysis.

$$$$
