2ja3_ligand
                    3D
 Schrodinger Suite 2020-3.
 39 41  0  0  1  0            999 V2000
   13.7790   75.2420   55.9310 P   0  0  0  0  0  0
   12.7900   76.2430   56.7280 O   0  5  0  0  0  0
   12.8310   74.0240   55.4370 O   0  5  0  0  0  0
   14.8790   74.7670   56.8030 O   0  0  0  0  0  0
   13.3670   76.6110   53.4560 P   0  0  1  0  0  0
   12.9310   77.9680   53.8320 O   0  0  0  0  0  0
   14.0080   76.4110   52.1410 O   0  5  0  0  0  0
   14.3280   76.0360   54.6210 O   0  0  0  0  0  0
   11.0320   74.4370   49.8130 N   0  0  0  0  0  0
   12.2570   74.9210   50.0320 C   0  0  0  0  0  0
   12.7200   75.4910   48.9220 N   0  0  0  0  0  0
   11.7870   75.3670   47.9860 C   0  0  0  0  0  0
   11.7090   75.7630   46.6610 C   0  0  0  0  0  0
   12.7270   76.4070   46.1040 N   0  0  0  0  0  0
   10.5980   75.4850   45.9580 N   0  0  0  0  0  0
    9.5840   74.8390   46.5200 C   0  0  0  0  0  0
    9.6280   74.4490   47.7870 N   0  0  0  0  0  0
   10.7130   74.6970   48.5450 C   0  0  0  0  0  0
   12.1140   75.6150   53.5410 O   0  0  0  0  0  0
   10.9880   75.8750   52.7260 C   0  0  0  0  0  0
    9.9140   74.8010   52.8780 C   0  0  1  0  0  0
    9.3020   74.6080   51.5940 O   0  0  0  0  0  0
   10.4840   73.4340   53.2050 C   0  0  1  0  0  0
    9.4160   72.5760   53.6000 O   0  0  0  0  0  0
   11.0260   72.9710   51.8570 C   0  0  1  0  0  0
   10.8180   71.5640   51.7040 O   0  0  0  0  0  0
   10.1710   73.7170   50.8220 C   0  0  2  0  0  0
   12.7964   74.8587   50.9771 H   0  0  0  0  0  0
   13.6287   76.6261   46.6948 H   0  0  0  0  0  0
   12.6691   76.7217   45.0516 H   0  0  0  0  0  0
    8.6950   74.6241   45.9270 H   0  0  0  0  0  0
   10.5482   76.8435   53.0064 H   0  0  0  0  0  0
   11.2980   75.9048   51.6710 H   0  0  0  0  0  0
    9.2005   75.1370   53.6448 H   0  0  0  0  0  0
   11.1992   73.4040   54.0402 H   0  0  0  0  0  0
    8.8937   72.7506   54.5522 H   0  0  0  0  0  0
   12.1124   73.1050   51.7487 H   0  0  0  0  0  0
   11.3463   70.8555   52.3589 H   0  0  0  0  0  0
    9.5284   73.0608   50.2166 H   0  0  0  0  0  0
  1  2  1  0  0  0
  1  3  1  0  0  0
  1  4  2  0  0  0
  1  8  1  0  0  0
  5  6  2  0  0  0
  5  7  1  0  0  0
  5  8  1  0  0  0
  5 19  1  0  0  0
  9 10  1  0  0  0
  9 18  1  0  0  0
  9 27  1  0  0  0
 10 11  2  0  0  0
 10 28  1  0  0  0
 11 12  1  0  0  0
 12 13  2  0  0  0
 12 18  1  0  0  0
 13 14  1  0  0  0
 13 15  1  0  0  0
 14 29  1  0  0  0
 14 30  1  0  0  0
 15 16  2  0  0  0
 16 17  1  0  0  0
 16 31  1  0  0  0
 17 18  2  0  0  0
 19 20  1  0  0  0
 20 21  1  0  0  0
 20 32  1  0  0  0
 20 33  1  0  0  0
 21 22  1  0  0  0
 21 23  1  0  0  0
 21 34  1  0  0  0
 22 27  1  0  0  0
 23 24  1  0  0  0
 23 25  1  0  0  0
 23 35  1  0  0  0
 24 36  1  0  0  0
 25 26  1  0  0  0
 25 27  1  0  0  0
 25 37  1  0  0  0
 26 38  1  0  0  0
 27 39  1  0  0  0
M  CHG  3   2  -1   3  -1   7  -1
M  END
> <s_m_source_file>
../2ja3_ligand.sdf

> <i_m_source_file_index>
1

> <s_epik_input>
W09IXVAoPU8pKFtPSF0pT1tQQEBdKD1PKShbT0hdKU9bQ0gyXVtDQEhdMU9bQ0BIXShbQ0BIXShbT0hdKVtDQEBIXTFbT0hdKW4oW2NIXW4yKWMoYzIzKW5bY0hdbmMzW05IMl0=

> <s_epik_cmdline>
J2VwaWtfYXBwJywgJy1pbWFlJywgJ2xpZ2FuZF9wcm8ubWFlJywgJy1vbWFlJywgJ2xpZ2FuZF9wcmVwLm1hZScsICctbXMnLCAnMScsICctcGgnLCAnNycsICctcGh0JywgJzAuNScsICctbnQn

> <r_lp_tautomer_probability>
0.999997216410988

> <r_epik_Ionization_Penalty>
  0.1037

> <r_epik_Ionization_Penalty_Charging>
  0.1033

> <r_epik_Ionization_Penalty_Neutral>
  0.0004

> <r_epik_State_Penalty>
  0.0922

> <r_epik_Charging_Adjusted_Penalty>
0.19546844050481

> <i_epik_Tot_Q>
-3

> <i_epik_Tot_abs_Q>
3

> <s_epik_Chemistry_Notes>
This compound contains an acetal/aminal-like group ( X-CH(R)-Y where X, Y are N, S, or O) that may be acid/base labile, releasing an aldehyde.

$$$$
