2jaj_ligand
                    3D
 Schrodinger Suite 2020-3.
 37 36  0  0  1  0            999 V2000
   15.9620    4.3160   67.6130 N   0  3  0  0  0  0
   16.2440    5.2580   66.5180 C   0  0  2  0  0  0
   15.0880    6.2120   66.1790 C   0  0  0  0  0  0
   14.0110    6.0720   66.8110 O   0  0  0  0  0  0
   16.6850    4.4490   65.2760 C   0  0  0  0  0  0
   15.6210    3.4160   64.9240 C   0  0  0  0  0  0
   16.0340    2.6290   63.6390 C   0  0  0  0  0  0
   16.2270    3.4680   62.4150 N   0  0  0  0  0  0
   15.2280    3.8010   61.5820 C   0  0  0  0  0  0
   13.9570    3.3550   61.8710 N   0  0  0  0  0  0
   15.5390    4.5330   60.4840 N   0  3  0  0  0  0
   12.7840    3.6540   61.0540 C   0  0  0  0  0  0
   13.5330    1.7500   58.0590 C   0  0  0  0  0  0
   15.3170    7.0690   65.2790 O   0  5  0  0  0  0
   13.5380    2.9150   58.9320 O   0  0  0  0  0  0
   12.5600    2.6340   59.9500 C   0  0  0  0  0  0
   15.6464    4.8756   68.5059 H   0  0  0  0  0  0
   16.8699    3.7394   67.8436 H   0  0  0  0  0  0
   15.1589    3.6290   67.3079 H   0  0  0  0  0  0
   17.0470    5.8999   66.9094 H   0  0  0  0  0  0
   16.8236    5.1312   64.4243 H   0  0  0  0  0  0
   17.6329    3.9341   65.4914 H   0  0  0  0  0  0
   15.5074    2.7078   65.7580 H   0  0  0  0  0  0
   14.6627    3.9242   64.7415 H   0  0  0  0  0  0
   16.9873    2.1101   63.8174 H   0  0  0  0  0  0
   15.2553    1.8915   63.3945 H   0  0  0  0  0  0
   17.2280    3.8456   62.1592 H   0  0  0  0  0  0
   13.8539    2.7400   62.7772 H   0  0  0  0  0  0
   16.5765    4.8568   60.3146 H   0  0  0  0  0  0
   11.8867    3.6631   61.6902 H   0  0  0  0  0  0
   12.9081    4.6393   60.5810 H   0  0  0  0  0  0
   14.2636    1.8952   57.2496 H   0  0  0  0  0  0
   12.5295    1.6191   57.6280 H   0  0  0  0  0  0
   13.8021    0.8554   58.6398 H   0  0  0  0  0  0
   12.6934    1.6200   60.3551 H   0  0  0  0  0  0
   11.5388    2.7396   59.5549 H   0  0  0  0  0  0
   14.7538    4.8031   59.7626 H   0  0  0  0  0  0
  1  2  1  0  0  0
  1 17  1  0  0  0
  1 18  1  0  0  0
  1 19  1  0  0  0
  2  3  1  0  0  0
  2  5  1  0  0  0
  2 20  1  0  0  0
  3  4  2  0  0  0
  3 14  1  0  0  0
  5  6  1  0  0  0
  5 21  1  0  0  0
  5 22  1  0  0  0
  6  7  1  0  0  0
  6 23  1  0  0  0
  6 24  1  0  0  0
  7  8  1  0  0  0
  7 25  1  0  0  0
  7 26  1  0  0  0
  8  9  1  0  0  0
  8 27  1  0  0  0
  9 10  1  0  0  0
  9 11  2  0  0  0
 10 12  1  0  0  0
 10 28  1  0  0  0
 11 29  1  0  0  0
 11 37  1  0  0  0
 12 16  1  0  0  0
 12 30  1  0  0  0
 12 31  1  0  0  0
 13 15  1  0  0  0
 13 32  1  0  0  0
 13 33  1  0  0  0
 13 34  1  0  0  0
 15 16  1  0  0  0
 16 35  1  0  0  0
 16 36  1  0  0  0
M  CHG  3   1   1  11   1  14  -1
M  END
> <s_m_source_file>
../2jaj_ligand.sdf

> <i_m_source_file_index>
1

> <s_epik_input>
Tz1DKFtPSF0pW0NAQEhdKFtOSDMrXSlbQ0gyXVtDSDJdW0NIMl1bTkhdL0MoPU5cW0hdKVtOSF1bQ0gyXVtDSDJdT1tDSDNd

> <s_epik_cmdline>
J2VwaWtfYXBwJywgJy1pbWFlJywgJ2xpZ2FuZF9wcm8ubWFlJywgJy1vbWFlJywgJ2xpZ2FuZF9wcmVwLm1hZScsICctbXMnLCAnMScsICctcGgnLCAnNycsICctcGh0JywgJzAuNScsICctbnQn

> <r_lp_tautomer_probability>
1

> <r_epik_Ionization_Penalty>
  0.0015

> <r_epik_Ionization_Penalty_Charging>
  0.0015

> <r_epik_Ionization_Penalty_Neutral>
  0.0000

> <r_epik_State_Penalty>
 -0.0000

> <r_epik_Charging_Adjusted_Penalty>
0.00154557415964565

> <i_epik_Tot_Q>
1

> <i_epik_Tot_abs_Q>
3

> <s_epik_Chemistry_Notes>
This compound has an imine and may undergo hydrolysis.

$$$$
