2jb6_ligand
                    3D
 Schrodinger Suite 2020-3.
 85 88  0  0  1  0            999 V2000
   91.9430   -8.4980  100.5740 O   0  0  0  0  0  0
   91.7510   -9.8780  100.0440 S   0  0  0  0  0  0
   90.8840  -10.6510  100.9870 O   0  5  0  0  0  0
   91.0820   -9.8290   98.7120 O   0  0  0  0  0  0
   93.3780  -10.6880   99.9030 C   0  0  0  0  0  0
   94.2010  -10.3980   98.6360 C   0  0  0  0  0  0
   95.1780  -11.4980   98.5700 N   0  3  0  0  0  0
   96.3470  -11.4750   99.2280 C   0  0  0  0  0  0
   96.9290  -10.4860  100.0260 C   0  0  0  0  0  0
   98.1950  -10.6770  100.5740 C   0  0  0  0  0  0
   98.9000  -11.8480  100.3170 C   0  0  0  0  0  0
  100.4760  -12.0750  101.0180 S   0  0  0  0  0  0
  101.1560  -10.7490  101.1520 O   0  0  0  0  0  0
  100.3280  -12.6920  102.3740 O   0  5  0  0  0  0
  101.2930  -12.9890  100.1650 O   0  0  0  0  0  0
   98.3370  -12.8300   99.5090 C   0  0  0  0  0  0
   97.0680  -12.6390   98.9550 C   0  0  0  0  0  0
   96.2010  -13.5020   98.0480 C   0  0  0  0  0  0
   96.9600  -13.7510   96.7380 C   0  0  0  0  0  0
   95.8570  -14.8090   98.7740 C   0  0  0  0  0  0
   94.9720  -12.5960   97.8390 C   0  0  0  0  0  0
   93.8760  -12.9180   97.0260 C   0  0  0  0  0  0
   93.7470  -14.0950   96.2970 C   0  0  0  0  0  0
   92.6190  -14.3160   95.5180 C   0  0  0  0  0  0
   92.4660  -15.4850   94.7800 C   0  0  0  0  0  0
   93.5430  -16.5880   94.7910 C   0  0  0  0  0  0
   91.3110  -15.6330   94.0260 C   0  0  0  0  0  0
   91.0990  -16.7760   93.2670 C   0  0  0  0  0  0
   89.9320  -16.8910   92.5260 C   0  0  0  0  0  0
   89.5850  -17.9820   91.7220 C   0  0  0  0  0  0
   90.4440  -19.2500   91.5170 C   0  0  0  0  0  0
   90.6810  -19.9980   92.8390 C   0  0  0  0  0  0
   91.7690  -18.9350   90.7990 C   0  0  0  0  0  0
   89.5450  -20.0830   90.6130 C   0  0  0  0  0  0
   89.6750  -21.3620   90.0650 C   0  0  0  0  0  0
   88.6630  -21.8710   89.2570 C   0  0  0  0  0  0
   88.7830  -23.4530   88.5540 S   0  0  0  0  0  0
   88.8740  -23.3200   87.0670 O   0  0  0  0  0  0
   90.0080  -24.1490   89.0660 O   0  5  0  0  0  0
   87.5560  -24.2330   88.9090 O   0  0  0  0  0  0
   87.5300  -21.1130   89.0010 C   0  0  0  0  0  0
   87.3990  -19.8410   89.5430 C   0  0  0  0  0  0
   88.4150  -19.3100   90.3360 C   0  0  0  0  0  0
   88.4840  -18.1440   90.9870 N   0  0  0  0  0  0
   87.4240  -17.1230   90.9160 C   0  0  0  0  0  0
   87.8080  -16.2570   89.7030 C   0  0  0  0  0  0
   86.9170  -14.6790   89.4900 S   0  0  0  0  0  0
   86.8330  -13.9640   90.7980 O   0  0  0  0  0  0
   85.5440  -14.9660   88.9780 O   0  0  0  0  0  0
   87.6470  -13.8160   88.5100 O   0  5  0  0  0  0
   94.0157  -10.3787  100.7443 H   0  0  0  0  0  0
   93.2471  -11.7800   99.9243 H   0  0  0  0  0  0
   93.5351  -10.3881   97.7605 H   0  0  0  0  0  0
   94.6923   -9.4187   98.7340 H   0  0  0  0  0  0
   96.3887   -9.5596  100.2206 H   0  0  0  0  0  0
   98.6349   -9.9060  101.2066 H   0  0  0  0  0  0
   98.8861  -13.7498   99.3075 H   0  0  0  0  0  0
   97.8262  -14.4001   96.9338 H   0  0  0  0  0  0
   97.3064  -12.7913   96.3268 H   0  0  0  0  0  0
   96.2915  -14.2401   96.0142 H   0  0  0  0  0  0
   96.7688  -15.4124   98.8945 H   0  0  0  0  0  0
   95.1194  -15.3729   98.1841 H   0  0  0  0  0  0
   95.4362  -14.5788   99.7639 H   0  0  0  0  0  0
   93.0815  -12.1582   96.9889 H   0  0  0  0  0  0
   94.5405  -14.8558   96.3359 H   0  0  0  0  0  0
   91.8369  -13.5429   95.4921 H   0  0  0  0  0  0
   94.3738  -16.2828   95.4442 H   0  0  0  0  0  0
   93.9184  -16.7441   93.7689 H   0  0  0  0  0  0
   93.1052  -17.5242   95.1678 H   0  0  0  0  0  0
   90.5583  -14.8309   94.0344 H   0  0  0  0  0  0
   91.8522  -17.5777   93.2578 H   0  0  0  0  0  0
   89.2527  -16.0296   92.6074 H   0  0  0  0  0  0
   91.3304  -19.3947   93.4903 H   0  0  0  0  0  0
   91.1648  -20.9640   92.6321 H   0  0  0  0  0  0
   89.7173  -20.1706   93.3405 H   0  0  0  0  0  0
   92.4103  -18.3336   91.4601 H   0  0  0  0  0  0
   91.5616  -18.3715   89.8773 H   0  0  0  0  0  0
   92.2817  -19.8749   90.5466 H   0  0  0  0  0  0
   90.5646  -21.9578   90.2695 H   0  0  0  0  0  0
   86.7380  -21.5179   88.3709 H   0  0  0  0  0  0
   86.4998  -19.2567   89.3479 H   0  0  0  0  0  0
   86.4498  -17.6149   90.7782 H   0  0  0  0  0  0
   87.4122  -16.5412   91.8494 H   0  0  0  0  0  0
   88.8724  -15.9870   89.7675 H   0  0  0  0  0  0
   87.6287  -16.8229   88.7769 H   0  0  0  0  0  0
  1  2  2  0  0  0
  2  3  1  0  0  0
  2  4  2  0  0  0
  2  5  1  0  0  0
  5  6  1  0  0  0
  5 51  1  0  0  0
  5 52  1  0  0  0
  6  7  1  0  0  0
  6 53  1  0  0  0
  6 54  1  0  0  0
  7  8  1  0  0  0
  7 21  2  0  0  0
  8  9  2  0  0  0
  8 17  1  0  0  0
  9 10  1  0  0  0
  9 55  1  0  0  0
 10 11  2  0  0  0
 10 56  1  0  0  0
 11 12  1  0  0  0
 11 16  1  0  0  0
 12 13  2  0  0  0
 12 14  1  0  0  0
 12 15  2  0  0  0
 16 17  2  0  0  0
 16 57  1  0  0  0
 17 18  1  0  0  0
 18 19  1  0  0  0
 18 20  1  0  0  0
 18 21  1  0  0  0
 19 58  1  0  0  0
 19 59  1  0  0  0
 19 60  1  0  0  0
 20 61  1  0  0  0
 20 62  1  0  0  0
 20 63  1  0  0  0
 21 22  1  0  0  0
 22 23  2  0  0  0
 22 64  1  0  0  0
 23 24  1  0  0  0
 23 65  1  0  0  0
 24 25  2  0  0  0
 24 66  1  0  0  0
 25 26  1  0  0  0
 25 27  1  0  0  0
 26 67  1  0  0  0
 26 68  1  0  0  0
 26 69  1  0  0  0
 27 28  2  0  0  0
 27 70  1  0  0  0
 28 29  1  0  0  0
 28 71  1  0  0  0
 29 30  2  0  0  0
 29 72  1  0  0  0
 30 31  1  0  0  0
 30 44  1  0  0  0
 31 32  1  0  0  0
 31 33  1  0  0  0
 31 34  1  0  0  0
 32 73  1  0  0  0
 32 74  1  0  0  0
 32 75  1  0  0  0
 33 76  1  0  0  0
 33 77  1  0  0  0
 33 78  1  0  0  0
 34 35  2  0  0  0
 34 43  1  0  0  0
 35 36  1  0  0  0
 35 79  1  0  0  0
 36 37  1  0  0  0
 36 41  2  0  0  0
 37 38  2  0  0  0
 37 39  1  0  0  0
 37 40  2  0  0  0
 41 42  1  0  0  0
 41 80  1  0  0  0
 42 43  2  0  0  0
 42 81  1  0  0  0
 43 44  1  0  0  0
 44 45  1  0  0  0
 45 46  1  0  0  0
 45 82  1  0  0  0
 45 83  1  0  0  0
 46 47  1  0  0  0
 46 84  1  0  0  0
 46 85  1  0  0  0
 47 48  2  0  0  0
 47 49  2  0  0  0
 47 50  1  0  0  0
M  CHG  5   3  -1   7   1  14  -1  39  -1  50  -1
M  END
> <s_m_source_file>
../2jb6_ligand.sdf

> <i_m_source_file_index>
1

> <s_epik_input>
W2NIXTFbY0hdYyhTKD1PKSg9TylbT0hdKVtjSF1jKGMxMilDKFtDSDNdKShbQ0gzXSlDKD1bTitdMltDSDJdW0NIMl1TKD1PKSg9TylbT0hdKS9bQ0hdPVtDSF0vW0NIXT1DKFxbQ0gzXSkvW0NIXT1bQ0hdL1tDSF09QyhcQzMoW0NIM10pW0NIM10pTihbQ0gyXVtDSDJdUyg9TykoPU8pW09IXSljKGMzNClbY0hdW2NIXWMoW2NIXTQpUyg9TykoPU8pW09IXQ==

> <s_epik_cmdline>
J2VwaWtfYXBwJywgJy1pbWFlJywgJ2xpZ2FuZF9wcm8ubWFlJywgJy1vbWFlJywgJ2xpZ2FuZF9wcmVwLm1hZScsICctbXMnLCAnMScsICctcGgnLCAnNycsICctcGh0JywgJzAuNScsICctbnQn

> <r_lp_tautomer_probability>
1

> <r_epik_Ionization_Penalty>
  0.0000

> <r_epik_Ionization_Penalty_Charging>
  0.0000

> <r_epik_Ionization_Penalty_Neutral>
  0.0000

> <r_epik_State_Penalty>
 -0.0000

> <r_epik_Charging_Adjusted_Penalty>
5.25724088257453e-06

> <i_epik_Tot_Q>
-3

> <i_epik_Tot_abs_Q>
5

> <s_epik_Chemistry_Notes>
This compound has an imine and may undergo hydrolysis.

$$$$
