2jbo_ligand
                    3D
 Schrodinger Suite 2020-3.
 41 45  0  0  1  0            999 V2000
  238.7100   82.5570  184.3310 C   0  0  0  0  0  0
  240.0870   82.5030  184.4560 C   0  0  0  0  0  0
  240.6770   81.6990  185.4610 C   0  0  0  0  0  0
  242.0680   81.6300  185.5780 C   0  0  0  0  0  0
  242.8590   82.3760  184.6830 C   0  0  0  0  0  0
  242.2770   83.1840  183.6910 C   0  0  0  0  0  0
  240.8790   83.2520  183.5760 C   0  0  0  0  0  0
  240.3050   84.0120  182.6250 N   0  0  0  0  0  0
  238.9860   84.0740  182.5080 C   0  0  0  0  0  0
  238.1380   83.3530  183.3540 C   0  0  0  0  0  0
  236.7370   83.4480  183.2370 C   0  0  0  0  0  0
  235.9010   82.4200  183.6750 C   0  0  0  0  0  0
  236.2050   84.5760  182.7390 N   0  0  0  0  0  0
  234.9080   84.7320  182.6130 C   0  0  0  0  0  0
  234.0300   83.7360  183.0090 C   0  0  0  0  0  0
  234.5300   82.5580  183.5370 C   0  0  0  0  0  0
  233.6580   81.5490  183.9320 C   0  0  0  0  0  0
  232.3460   81.5060  183.6830 C   0  0  0  0  0  0
  231.8450   80.4050  184.2380 C   0  0  3  0  0  0
  230.5730   79.8520  184.3170 C   0  0  0  0  0  0
  229.5960   80.5450  184.0770 O   0  0  0  0  0  0
  230.4150   78.5170  184.7020 N   0  0  0  0  0  0
  231.6120   77.6180  185.0130 C   0  0  0  0  0  0
  232.7830   78.4170  185.5990 C   0  0  0  0  0  0
  232.8980   79.7480  184.8610 C   0  0  0  0  0  0
  233.9970   80.4660  184.6400 N   0  0  0  0  0  0
  238.0774   81.9741  185.0004 H   0  0  0  0  0  0
  240.0450   81.1326  186.1450 H   0  0  0  0  0  0
  242.5313   81.0112  186.3465 H   0  0  0  0  0  0
  243.9450   82.3258  184.7612 H   0  0  0  0  0  0
  242.9093   83.7566  183.0125 H   0  0  0  0  0  0
  238.5511   84.7037  181.7318 H   0  0  0  0  0  0
  236.3223   81.5189  184.1206 H   0  0  0  0  0  0
  234.5162   85.6576  182.1911 H   0  0  0  0  0  0
  232.9543   83.8788  182.9056 H   0  0  0  0  0  0
  231.8699   82.3094  183.1017 H   0  0  0  0  0  0
  229.3928   78.1178  184.7784 H   0  0  0  0  0  0
  231.3149   76.8518  185.7442 H   0  0  0  0  0  0
  231.9538   77.1296  184.0885 H   0  0  0  0  0  0
  232.6025   78.6011  186.6684 H   0  0  0  0  0  0
  233.7146   77.8448  185.4776 H   0  0  0  0  0  0
  1  2  1  0  0  0
  1 10  2  0  0  0
  1 27  1  0  0  0
  2  3  2  0  0  0
  2  7  1  0  0  0
  3  4  1  0  0  0
  3 28  1  0  0  0
  4  5  2  0  0  0
  4 29  1  0  0  0
  5  6  1  0  0  0
  5 30  1  0  0  0
  6  7  2  0  0  0
  6 31  1  0  0  0
  7  8  1  0  0  0
  8  9  2  0  0  0
  9 10  1  0  0  0
  9 32  1  0  0  0
 10 11  1  0  0  0
 11 12  2  0  0  0
 11 13  1  0  0  0
 12 16  1  0  0  0
 12 33  1  0  0  0
 13 14  2  0  0  0
 14 15  1  0  0  0
 14 34  1  0  0  0
 15 16  2  0  0  0
 15 35  1  0  0  0
 16 17  1  0  0  0
 17 18  2  0  0  0
 17 26  1  0  0  0
 18 19  1  0  0  0
 18 36  1  0  0  0
 19 20  1  0  0  0
 19 25  1  0  0  0
 20 21  2  0  0  0
 20 22  1  0  0  0
 22 23  1  0  0  0
 22 37  1  0  0  0
 23 24  1  0  0  0
 23 38  1  0  0  0
 23 39  1  0  0  0
 24 25  1  0  0  0
 24 40  1  0  0  0
 24 41  1  0  0  0
 25 26  2  0  0  0
M  END
> <s_m_source_file>
../2jbo_ligand.sdf

> <i_m_source_file_index>
1

> <s_epik_input>
W2NIXTFbY0hdW2NIXVtjSF1jKGMxMiluW2NIXWMoW2NIXTIpLWMzW2NIXWMoW2NIXVtjSF1uMylDKD1bQ0hdNClOPUMoW0NIXTQ1KVtDSDJdW0NIMl1bTkhdQzU9Tw==

> <s_epik_cmdline>
J2VwaWtfYXBwJywgJy1pbWFlJywgJ2xpZ2FuZF9wcm8ubWFlJywgJy1vbWFlJywgJ2xpZ2FuZF9wcmVwLm1hZScsICctbXMnLCAnMScsICctcGgnLCAnNycsICctcGh0JywgJzAuNScsICctbnQn

> <r_lp_tautomer_probability>
1

> <r_epik_Ionization_Penalty>
  0.0010

> <r_epik_Ionization_Penalty_Charging>
  0.0000

> <r_epik_Ionization_Penalty_Neutral>
  0.0010

> <r_epik_State_Penalty>
 -0.0000

> <r_epik_Charging_Adjusted_Penalty>
0

> <i_epik_Tot_Q>
0

> <i_epik_Tot_abs_Q>
0

> <s_epik_Chemistry_Notes>
This compound has an imine and may undergo hydrolysis.

$$$$
