2jbu_ligand
                    3D
 Schrodinger Suite 2020-3.
 73 72  0  0  1  0            999 V2000
 -108.0050   43.9870    5.7020 N   0  3  0  0  0  0
 -106.7880   43.4470    5.0830 C   0  0  2  0  0  0
 -107.0530   41.9860    4.6640 C   0  0  0  0  0  0
 -106.9760   41.0580    5.4790 O   0  0  0  0  0  0
 -105.5720   43.5520    6.0820 C   0  0  0  0  0  0
 -107.3740   41.7960    3.3830 N   0  0  0  0  0  0
 -107.6980   40.4720    2.8400 C   0  0  2  0  0  0
 -106.5910   39.8360    2.0010 C   0  0  0  0  0  0
 -106.0390   40.4710    1.1030 O   0  0  0  0  0  0
 -108.9830   40.5620    2.0100 C   0  0  0  0  0  0
 -106.2860   38.5740    2.2950 N   0  0  0  0  0  0
 -105.2550   37.8240    1.5800 C   0  0  2  0  0  0
 -105.7770   37.4170    0.1690 C   0  0  0  0  0  0
 -106.8180   36.7610    0.0580 O   0  0  0  0  0  0
 -104.8410   36.5810    2.4360 C   0  0  0  0  0  0
 -105.0630   37.8240   -0.8950 N   0  0  0  0  0  0
 -105.4590   37.5350   -2.2940 C   0  0  2  0  0  0
 -104.7300   36.3490   -2.9670 C   0  0  0  0  0  0
 -103.8670   35.7060   -2.3540 O   0  0  0  0  0  0
 -105.3090   38.8220   -3.1730 C   0  0  0  0  0  0
 -105.0880   36.0650   -4.2270 N   0  0  0  0  0  0
 -104.4990   34.9500   -4.9960 C   0  0  2  0  0  0
 -103.2200   35.3170   -5.7470 C   0  0  0  0  0  0
 -102.1570   34.7530   -5.4900 O   0  0  0  0  0  0
 -105.5290   34.3710   -5.9960 C   0  0  0  0  0  0
 -103.3340   36.2430   -6.6940 N   0  0  0  0  0  0
 -102.1870   36.6850   -7.4820 C   0  0  2  0  0  0
 -101.7750   38.0880   -7.0340 C   0  0  0  0  0  0
 -102.6250   38.9480   -6.7690 O   0  0  0  0  0  0
 -102.5340   36.6820   -8.9940 C   0  0  0  0  0  0
 -100.4640   38.2980   -6.9370 N   0  0  0  0  0  0
  -99.8940   39.5850   -6.5460 C   0  0  2  0  0  0
 -100.6400   40.7220   -7.2410 C   0  0  0  0  0  0
 -100.2530   41.0530   -8.3810 O   0  0  0  0  0  0
  -98.4130   39.6250   -6.9160 C   0  0  0  0  0  0
 -101.6120   41.2450   -6.6550 O   0  5  0  0  0  0
 -107.8301   45.0296    6.0060 H   0  0  0  0  0  0
 -108.2645   43.3859    6.5859 H   0  0  0  0  0  0
 -108.8321   43.9501    4.9778 H   0  0  0  0  0  0
 -106.5896   44.0557    4.1885 H   0  0  0  0  0  0
 -105.4137   44.6051    6.3575 H   0  0  0  0  0  0
 -104.6654   43.1592    5.5986 H   0  0  0  0  0  0
 -105.7889   42.9649    6.9866 H   0  0  0  0  0  0
 -107.3903   42.6786    2.7267 H   0  0  0  0  0  0
 -107.8147   39.8502    3.7399 H   0  0  0  0  0  0
 -109.7791   41.0201    2.6153 H   0  0  0  0  0  0
 -109.2918   39.5523    1.7016 H   0  0  0  0  0  0
 -108.8005   41.1783    1.1173 H   0  0  0  0  0  0
 -106.8457   38.0968    3.1129 H   0  0  0  0  0  0
 -104.3971   38.5019    1.4595 H   0  0  0  0  0  0
 -104.4805   36.9168    3.4195 H   0  0  0  0  0  0
 -104.0402   36.0309    1.9202 H   0  0  0  0  0  0
 -105.7113   35.9217    2.5699 H   0  0  0  0  0  0
 -104.1464   38.3965   -0.6899 H   0  0  0  0  0  0
 -106.5040   37.2153   -2.1686 H   0  0  0  0  0  0
 -105.8300   39.6604   -2.6875 H   0  0  0  0  0  0
 -105.7490   38.6419   -4.1649 H   0  0  0  0  0  0
 -104.2426   39.0679   -3.2840 H   0  0  0  0  0  0
 -105.8559   36.7047   -4.6864 H   0  0  0  0  0  0
 -104.2273   34.2285   -4.2114 H   0  0  0  0  0  0
 -106.4517   34.1053   -5.4593 H   0  0  0  0  0  0
 -105.1111   33.4726   -6.4738 H   0  0  0  0  0  0
 -105.7561   35.1236   -6.7654 H   0  0  0  0  0  0
 -104.3274   36.6786   -6.8766 H   0  0  0  0  0  0
 -101.3780   35.9688   -7.2756 H   0  0  0  0  0  0
 -102.8280   35.6674   -9.3007 H   0  0  0  0  0  0
 -101.6541   36.9995   -9.5727 H   0  0  0  0  0  0
 -103.3659   37.3770   -9.1806 H   0  0  0  0  0  0
  -99.8018   37.4501   -7.1663 H   0  0  0  0  0  0
 -100.0175   39.6673   -5.4561 H   0  0  0  0  0  0
  -97.8864   38.8023   -6.4101 H   0  0  0  0  0  0
  -97.9818   40.5861   -6.5993 H   0  0  0  0  0  0
  -98.3041   39.5153   -8.0051 H   0  0  0  0  0  0
  1  2  1  0  0  0
  1 37  1  0  0  0
  1 38  1  0  0  0
  1 39  1  0  0  0
  2  5  1  0  0  0
  2  3  1  0  0  0
  2 40  1  0  0  0
  3  4  2  0  0  0
  3  6  1  0  0  0
  5 41  1  0  0  0
  5 42  1  0  0  0
  5 43  1  0  0  0
  6  7  1  0  0  0
  6 44  1  0  0  0
  7 10  1  0  0  0
  7  8  1  0  0  0
  7 45  1  0  0  0
  8  9  2  0  0  0
  8 11  1  0  0  0
 10 46  1  0  0  0
 10 47  1  0  0  0
 10 48  1  0  0  0
 11 12  1  0  0  0
 11 49  1  0  0  0
 12 15  1  0  0  0
 12 13  1  0  0  0
 12 50  1  0  0  0
 13 14  2  0  0  0
 13 16  1  0  0  0
 15 51  1  0  0  0
 15 52  1  0  0  0
 15 53  1  0  0  0
 16 17  1  0  0  0
 16 54  1  0  0  0
 17 20  1  0  0  0
 17 18  1  0  0  0
 17 55  1  0  0  0
 18 19  2  0  0  0
 18 21  1  0  0  0
 20 56  1  0  0  0
 20 57  1  0  0  0
 20 58  1  0  0  0
 21 22  1  0  0  0
 21 59  1  0  0  0
 22 25  1  0  0  0
 22 23  1  0  0  0
 22 60  1  0  0  0
 23 24  2  0  0  0
 23 26  1  0  0  0
 25 61  1  0  0  0
 25 62  1  0  0  0
 25 63  1  0  0  0
 26 27  1  0  0  0
 26 64  1  0  0  0
 27 30  1  0  0  0
 27 28  1  0  0  0
 27 65  1  0  0  0
 28 29  2  0  0  0
 28 31  1  0  0  0
 30 66  1  0  0  0
 30 67  1  0  0  0
 30 68  1  0  0  0
 31 32  1  0  0  0
 31 69  1  0  0  0
 32 35  1  0  0  0
 32 33  1  0  0  0
 32 70  1  0  0  0
 33 34  2  0  0  0
 33 36  1  0  0  0
 35 71  1  0  0  0
 35 72  1  0  0  0
 35 73  1  0  0  0
M  CHG  2   1   1  36  -1
M  END
> <s_m_source_file>
../2jbu_ligand.sdf

> <i_m_source_file_index>
1

> <s_epik_input>
W05IMytdW0NAQEhdKFtDSDNdKUMoPU8pW05IXVtDQEBIXShbQ0gzXSlDKD1PKVtOSF1bQ0BASF0oW0NIM10pQyg9TylbTkhdW0NAQEhdKFtDSDNdKUMoPU8pW05IXVtDQEBIXShbQ0gzXSlDKD1PKVtOSF1bQ0BASF0oW0NIM10pQyg9TylbTkhdW0NAQEhdKFtDSDNdKUMoPU8pW09IXQ==

> <s_epik_cmdline>
J2VwaWtfYXBwJywgJy1pbWFlJywgJ2xpZ2FuZF9wcm8ubWFlJywgJy1vbWFlJywgJ2xpZ2FuZF9wcmVwLm1hZScsICctbXMnLCAnMScsICctcGgnLCAnNycsICctcGh0JywgJzAuNScsICctbnQn

> <r_epik_Ionization_Penalty>
  0.1241

> <r_epik_Ionization_Penalty_Charging>
  0.1241

> <r_epik_Ionization_Penalty_Neutral>
  0.0000

> <r_epik_State_Penalty>
  0.1134

> <r_epik_Charging_Adjusted_Penalty>
0.237502898569041

> <i_epik_Tot_Q>
0

> <i_epik_Tot_abs_Q>
2

$$$$
