2jbv_ligand
                    3D
 Schrodinger Suite 2020-3.
 88 93  0  0  1  0            999 V2000
   88.2160   33.5680   70.9570 P   0  0  2  0  0  0
   87.1810   33.5340   69.9020 O   0  0  0  0  0  0
   88.4920   34.8690   71.6330 O   0  5  0  0  0  0
   89.6270   33.1430   70.3120 O   0  0  0  0  0  0
   89.6870   32.1330   69.2500 C   0  0  0  0  0  0
   90.6740   32.6520   68.1900 C   0  0  1  0  0  0
   90.9280   31.5750   67.3060 O   0  0  0  0  0  0
   90.0860   33.7850   67.3450 C   0  0  1  0  0  0
   91.0820   34.8000   67.3460 O   0  0  0  0  0  0
   89.8740   33.1030   65.9760 C   0  0  1  0  0  0
   90.0430   33.9880   64.8900 O   0  0  0  0  0  0
   90.9820   32.0820   65.9920 C   0  0  2  0  0  0
   90.7120   30.9100   65.1160 N   0  0  0  0  0  0
   89.5330   30.2590   64.9740 C   0  0  0  0  0  0
   89.6950   29.2890   64.0860 N   0  0  0  0  0  0
   90.9720   29.2950   63.6720 C   0  0  0  0  0  0
   91.7030   28.5130   62.7600 C   0  0  0  0  0  0
   91.1320   27.4930   62.1200 N   0  0  0  0  0  0
   93.0130   28.7740   62.5590 N   0  0  0  0  0  0
   93.6070   29.8080   63.2090 C   0  0  0  0  0  0
   92.9430   30.5800   64.0980 N   0  0  0  0  0  0
   91.6200   30.3540   64.3140 C   0  0  0  0  0  0
   81.7280   38.1820   77.5380 N   0  0  0  0  0  0
   82.4690   38.9940   78.3530 C   0  0  0  0  0  0
   82.8390   38.5760   79.4590 O   0  0  0  0  0  0
   82.7170   40.2720   77.8530 N   0  0  0  0  0  0
   82.1300   40.5600   76.5660 C   0  0  0  0  0  0
   82.3960   41.6410   76.0750 O   0  0  0  0  0  0
   80.6790   39.9730   76.2900 C   0  0  1  0  0  0
   79.9490   40.1960   75.0220 N   0  0  0  0  0  0
   80.4570   39.7070   73.8290 C   0  0  0  0  0  0
   79.9750   40.2100   72.6080 C   0  0  0  0  0  0
   80.4550   39.6930   71.3970 C   0  0  0  0  0  0
   79.8960   40.2810   70.0990 C   0  0  0  0  0  0
   81.4320   38.6560   71.4170 C   0  0  0  0  0  0
   82.0250   38.0320   70.1190 C   0  0  0  0  0  0
   81.9000   38.1580   72.6500 C   0  0  0  0  0  0
   81.4080   38.6580   73.8690 C   0  0  0  0  0  0
   81.9260   38.1900   75.0430 N   0  0  0  0  0  0
   81.3310   38.6630   76.3050 C   0  0  1  0  0  0
   82.2550   36.7720   75.1210 C   0  0  0  0  0  0
   83.8190   36.6580   75.2640 C   0  0  2  0  0  0
   84.4770   37.6590   74.4560 O   0  0  0  0  0  0
   84.2530   35.2660   74.8010 C   0  0  2  0  0  0
   83.5890   34.3250   75.6060 O   0  0  0  0  0  0
   85.7920   35.0270   74.8410 C   0  0  2  0  0  0
   86.4300   36.0140   73.9970 O   0  0  0  0  0  0
   86.0940   33.6430   74.2790 C   0  0  0  0  0  0
   87.5530   33.4780   74.2340 O   0  0  0  0  0  0
   88.2430   32.1800   73.5590 P   0  0  1  0  0  0
   89.7200   32.3000   73.7820 O   0  5  0  0  0  0
   87.5420   30.9710   73.9650 O   0  0  0  0  0  0
   87.8740   32.3420   71.9650 O   0  0  0  0  0  0
   90.0356   31.1785   69.6711 H   0  0  0  0  0  0
   88.6856   31.9980   68.8153 H   0  0  0  0  0  0
   91.6106   32.9803   68.6643 H   0  0  0  0  0  0
   89.1834   34.3113   67.6891 H   0  0  0  0  0  0
   91.3090   35.3469   68.2730 H   0  0  0  0  0  0
   88.8591   32.7309   65.7722 H   0  0  0  0  0  0
   89.3206   34.8010   64.7255 H   0  0  0  0  0  0
   91.9475   32.5257   65.7075 H   0  0  0  0  0  0
   88.6079   30.4932   65.5007 H   0  0  0  0  0  0
   90.0658   27.2726   62.2772 H   0  0  0  0  0  0
   91.7269   26.8715   61.4346 H   0  0  0  0  0  0
   94.6563   30.0230   63.0067 H   0  0  0  0  0  0
   81.4478   37.1643   77.8476 H   0  0  0  0  0  0
   83.3246   40.9815   78.4339 H   0  0  0  0  0  0
   79.8198   40.2859   76.9014 H   0  0  0  0  0  0
   78.9996   40.7516   75.0243 H   0  0  0  0  0  0
   79.2271   41.0030   72.6031 H   0  0  0  0  0  0
   79.1602   41.0630   70.3378 H   0  0  0  0  0  0
   79.4093   39.4854   69.5158 H   0  0  0  0  0  0
   80.7168   40.7171   69.5107 H   0  0  0  0  0  0
   81.5715   38.5138   69.2402 H   0  0  0  0  0  0
   81.8085   36.9537   70.0985 H   0  0  0  0  0  0
   83.1138   38.1878   70.1016 H   0  0  0  0  0  0
   82.6556   37.3725   72.6588 H   0  0  0  0  0  0
   80.5743   37.8707   76.4029 H   0  0  0  0  0  0
   81.7552   36.3271   75.9941 H   0  0  0  0  0  0
   81.9142   36.2656   74.2059 H   0  0  0  0  0  0
   84.1614   36.8590   76.2898 H   0  0  0  0  0  0
   84.2883   38.7267   74.6415 H   0  0  0  0  0  0
   83.9056   35.0990   73.7707 H   0  0  0  0  0  0
   82.4926   34.3505   75.6915 H   0  0  0  0  0  0
   86.2109   35.1375   75.8521 H   0  0  0  0  0  0
   86.3331   37.0842   74.2323 H   0  0  0  0  0  0
   85.6456   32.8774   74.9292 H   0  0  0  0  0  0
   85.6713   33.5579   73.2670 H   0  0  0  0  0  0
  1  2  2  0  0  0
  1  3  1  0  0  0
  1  4  1  0  0  0
  1 53  1  0  0  0
  4  5  1  0  0  0
  5  6  1  0  0  0
  5 54  1  0  0  0
  5 55  1  0  0  0
  6  7  1  0  0  0
  6  8  1  0  0  0
  6 56  1  0  0  0
  7 12  1  0  0  0
  8  9  1  0  0  0
  8 10  1  0  0  0
  8 57  1  0  0  0
  9 58  1  0  0  0
 10 11  1  0  0  0
 10 12  1  0  0  0
 10 59  1  0  0  0
 11 60  1  0  0  0
 12 13  1  0  0  0
 12 61  1  0  0  0
 13 14  1  0  0  0
 13 22  1  0  0  0
 14 15  2  0  0  0
 14 62  1  0  0  0
 15 16  1  0  0  0
 16 17  2  0  0  0
 16 22  1  0  0  0
 17 18  1  0  0  0
 17 19  1  0  0  0
 18 63  1  0  0  0
 18 64  1  0  0  0
 19 20  2  0  0  0
 20 21  1  0  0  0
 20 65  1  0  0  0
 21 22  2  0  0  0
 23 24  1  0  0  0
 23 40  1  0  0  0
 23 66  1  0  0  0
 24 25  2  0  0  0
 24 26  1  0  0  0
 26 27  1  0  0  0
 26 67  1  0  0  0
 27 28  2  0  0  0
 27 29  1  0  0  0
 29 30  1  0  0  0
 29 40  1  0  0  0
 29 68  1  0  0  0
 30 31  1  0  0  0
 30 69  1  0  0  0
 31 32  2  0  0  0
 31 38  1  0  0  0
 32 33  1  0  0  0
 32 70  1  0  0  0
 33 34  1  0  0  0
 33 35  2  0  0  0
 34 71  1  0  0  0
 34 72  1  0  0  0
 34 73  1  0  0  0
 35 36  1  0  0  0
 35 37  1  0  0  0
 36 74  1  0  0  0
 36 75  1  0  0  0
 36 76  1  0  0  0
 37 38  2  0  0  0
 37 77  1  0  0  0
 38 39  1  0  0  0
 39 40  1  0  0  0
 39 41  1  0  0  0
 40 78  1  0  0  0
 41 42  1  0  0  0
 41 79  1  0  0  0
 41 80  1  0  0  0
 42 43  1  0  0  0
 42 44  1  0  0  0
 42 81  1  0  0  0
 43 82  1  0  0  0
 44 45  1  0  0  0
 44 46  1  0  0  0
 44 83  1  0  0  0
 45 84  1  0  0  0
 46 47  1  0  0  0
 46 48  1  0  0  0
 46 85  1  0  0  0
 47 86  1  0  0  0
 48 49  1  0  0  0
 48 87  1  0  0  0
 48 88  1  0  0  0
 49 50  1  0  0  0
 50 51  1  0  0  0
 50 52  2  0  0  0
 50 53  1  0  0  0
M  CHG  2   3  -1  51  -1
M  END
> <s_m_source_file>
../2jbv_ligand.sdf

> <i_m_source_file_index>
1

> <s_epik_input>
W05IMl1jMW5bY0hdbmMoYzEyKW4oW2NIXW4yKVtDQEBIXShbQ0BIXShbT0hdKVtDQEBIXTNbT0hdKU9bQ0BASF0zW0NIMl1PW1BAXSg9TykoW09IXSlPW1BAQF0oPU8pKFtPSF0pT1tDSDJdW0NAQEhdKFtPSF0pW0NAQEhdKFtPSF0pW0NAQEhdKFtPSF0pW0NIMl1OKFtDQEhdKFtDQEBIXTQ1KVtOSF1DKD1PKVtOSF1DND1PKWM2YyhbTkhdNSlbY0hdYyhbQ0gzXSljKFtDSDNdKVtjSF02

> <s_epik_cmdline>
J2VwaWtfYXBwJywgJy1pbWFlJywgJ2xpZ2FuZF9wcm8ubWFlJywgJy1vbWFlJywgJ2xpZ2FuZF9wcmVwLm1hZScsICctbXMnLCAnMScsICctcGgnLCAnNycsICctcGh0JywgJzAuNScsICctbnQn

> <r_lp_tautomer_probability>
1

> <r_epik_Ionization_Penalty>
  0.0013

> <r_epik_Ionization_Penalty_Charging>
  0.0006

> <r_epik_Ionization_Penalty_Neutral>
  0.0007

> <r_epik_State_Penalty>
 -0.0000

> <r_epik_Charging_Adjusted_Penalty>
0.000586675472376959

> <i_epik_Tot_Q>
-2

> <i_epik_Tot_abs_Q>
2

> <s_epik_Chemistry_Notes>
This compound contains an acetal/aminal-like group ( X-CH(R)-Y where X, Y are N, S, or O) that may be acid/base labile, releasing an aldehyde.

$$$$
