2jc0_ligand
                    3D
 Schrodinger Suite 2020-3.
 52 54  0  0  1  0            999 V2000
    5.4410   41.3790   51.9340 F   0  0  0  0  0  0
    5.2640   42.6940   51.6080 C   0  0  0  0  0  0
    4.6250   43.3570   52.5940 F   0  0  0  0  0  0
    4.6610   42.9470   50.4290 F   0  0  0  0  0  0
    6.5990   43.4150   51.5370 C   0  0  0  0  0  0
    7.3670   43.6370   52.7200 C   0  0  0  0  0  0
    8.5800   44.3530   52.6760 C   0  0  0  0  0  0
    7.0420   43.9470   50.2940 C   0  0  0  0  0  0
    8.2380   44.6590   50.2560 C   0  0  0  0  0  0
    9.0280   44.8450   51.4290 C   0  0  0  0  0  0
   10.2970   45.6700   51.3370 C   0  0  0  0  0  0
   10.2210   46.9170   51.5540 O   0  0  0  0  0  0
   11.4900   45.1010   50.9700 N   0  0  0  0  0  0
   12.8050   45.8570   50.9670 C   0  0  1  0  0  0
   12.7410   46.9920   49.9010 C   0  0  0  0  0  0
   11.8250   46.7660   49.0050 O   0  5  0  0  0  0
   13.5590   47.8660   49.7470 O   0  0  0  0  0  0
   13.0380   46.4530   52.4050 C   0  0  0  0  0  0
   13.2470   45.4710   53.5850 C   0  0  0  0  0  0
   13.8440   46.2240   54.7440 C   0  0  0  0  0  0
   11.9260   44.8470   54.0630 C   0  0  0  0  0  0
   13.7660   44.7240   50.4660 C   0  0  0  0  0  0
   13.1010   43.4210   50.8420 C   0  0  2  0  0  0
   13.6050   42.1550   50.1660 C   0  0  0  0  0  0
   12.8820   41.0770   50.5300 O   0  5  0  0  0  0
   14.6870   42.1320   49.6220 O   0  0  0  0  0  0
   11.6360   43.6760   50.5750 C   0  0  2  0  0  0
   11.2190   43.3480   49.1640 C   0  0  0  0  0  0
   10.2300   41.9930   48.8400 S   0  0  0  0  0  0
   11.6100   44.0430   47.9950 C   0  0  0  0  0  0
   11.0150   43.3860   46.8770 C   0  0  0  0  0  0
   10.2630   42.2990   47.1640 C   0  0  0  0  0  0
    7.0093   43.2463   53.6726 H   0  0  0  0  0  0
    9.1597   44.5235   53.5832 H   0  0  0  0  0  0
    6.4553   43.7998   49.3872 H   0  0  0  0  0  0
    8.5774   45.0828   49.3108 H   0  0  0  0  0  0
   13.9401   47.0825   52.3993 H   0  0  0  0  0  0
   12.1685   47.0610   52.6952 H   0  0  0  0  0  0
   13.9217   44.6676   53.2545 H   0  0  0  0  0  0
   14.7936   46.6836   54.4325 H   0  0  0  0  0  0
   14.0286   45.5292   55.5766 H   0  0  0  0  0  0
   13.1460   47.0093   55.0696 H   0  0  0  0  0  0
   11.4640   44.2882   53.2358 H   0  0  0  0  0  0
   11.2431   45.6432   54.3941 H   0  0  0  0  0  0
   12.1257   44.1631   54.9011 H   0  0  0  0  0  0
   13.8932   44.8063   49.3765 H   0  0  0  0  0  0
   14.7441   44.8285   50.9583 H   0  0  0  0  0  0
   13.3364   43.1887   51.8911 H   0  0  0  0  0  0
   10.9486   43.0343   51.1458 H   0  0  0  0  0  0
   12.2514   44.9234   47.9557 H   0  0  0  0  0  0
   11.1576   43.7381   45.8553 H   0  0  0  0  0  0
    9.7445   41.6960   46.4186 H   0  0  0  0  0  0
  1  2  1  0  0  0
  2  3  1  0  0  0
  2  4  1  0  0  0
  2  5  1  0  0  0
  5  6  2  0  0  0
  5  8  1  0  0  0
  6  7  1  0  0  0
  6 33  1  0  0  0
  7 10  2  0  0  0
  7 34  1  0  0  0
  8  9  2  0  0  0
  8 35  1  0  0  0
  9 10  1  0  0  0
  9 36  1  0  0  0
 10 11  1  0  0  0
 11 12  2  0  0  0
 11 13  1  0  0  0
 13 14  1  0  0  0
 13 27  1  0  0  0
 14 15  1  0  0  0
 14 18  1  0  0  0
 14 22  1  0  0  0
 15 16  1  0  0  0
 15 17  2  0  0  0
 18 19  1  0  0  0
 18 37  1  0  0  0
 18 38  1  0  0  0
 19 20  1  0  0  0
 19 21  1  0  0  0
 19 39  1  0  0  0
 20 40  1  0  0  0
 20 41  1  0  0  0
 20 42  1  0  0  0
 21 43  1  0  0  0
 21 44  1  0  0  0
 21 45  1  0  0  0
 22 23  1  0  0  0
 22 46  1  0  0  0
 22 47  1  0  0  0
 23 24  1  0  0  0
 23 27  1  0  0  0
 23 48  1  0  0  0
 24 25  1  0  0  0
 24 26  2  0  0  0
 27 28  1  0  0  0
 27 49  1  0  0  0
 28 29  1  0  0  0
 28 30  2  0  0  0
 29 32  1  0  0  0
 30 31  1  0  0  0
 30 50  1  0  0  0
 31 32  2  0  0  0
 31 51  1  0  0  0
 32 52  1  0  0  0
M  CHG  2  16  -1  25  -1
M  END
> <s_m_source_file>
../2jc0_ligand.sdf

> <i_m_source_file_index>
1

> <s_epik_input>
RkMoRikoRiljMVtjSF1bY0hdYyhbY0hdW2NIXTEpQyg9TylOKFtDQEBdMihDKD1PKVtPSF0pW0NIMl1bQ0hdKFtDSDNdKVtDSDNdKVtDQEhdKFtDQEhdKFtDSDJdMilDKD1PKVtPSF0pYzNzW2NIXVtjSF1bY0hdMw==

> <s_epik_cmdline>
J2VwaWtfYXBwJywgJy1pbWFlJywgJ2xpZ2FuZF9wcm8ubWFlJywgJy1vbWFlJywgJ2xpZ2FuZF9wcmVwLm1hZScsICctbXMnLCAnMScsICctcGgnLCAnNycsICctcGh0JywgJzAuNScsICctbnQn

> <r_lp_tautomer_probability>
1

> <r_epik_Ionization_Penalty>
  0.0007

> <r_epik_Ionization_Penalty_Charging>
  0.0007

> <r_epik_Ionization_Penalty_Neutral>
  0.0000

> <r_epik_State_Penalty>
 -0.0000

> <r_epik_Charging_Adjusted_Penalty>
0.000739272559486533

> <i_epik_Tot_Q>
-2

> <i_epik_Tot_abs_Q>
2

$$$$
