2jdh_ligand
                    3D
 Schrodinger Suite 2020-3.
 59 61  0  0  1  0            999 V2000
   38.7450    4.4860   -3.5560 C   0  0  1  0  0  0
   37.4100    4.2790   -2.8990 C   0  0  2  0  0  0
   36.6280    3.2760   -3.6900 C   0  0  1  0  0  0
   37.3660    1.9660   -3.8950 C   0  0  1  0  0  0
   38.7360    2.2880   -4.4980 C   0  0  2  0  0  0
   39.6110    1.0420   -4.6510 C   0  0  0  0  0  0
   36.6290    5.4880   -2.7860 O   0  0  0  0  0  0
   35.3910    2.9920   -2.9610 O   0  0  0  0  0  0
   37.4950    1.3610   -2.5840 O   0  0  0  0  0  0
   39.4710    3.2300   -3.6940 O   0  0  0  0  0  0
   40.8670    7.4180   -7.3530 C   0  0  1  0  0  0
   41.2910    5.9730   -7.2430 C   0  0  1  0  0  0
   40.1520    5.1360   -6.6460 C   0  0  2  0  0  0
   39.7520    5.7730   -5.3130 C   0  0  1  0  0  0
   39.3440    7.2250   -5.5270 C   0  0  1  0  0  0
   38.9250    7.9460   -4.2860 C   0  0  0  0  0  0
   42.8850    5.1840   -8.9210 C   0  0  0  0  0  0
   43.0890    4.7770  -10.3640 C   0  0  0  0  0  0
   41.6190    5.4620   -8.5700 N   0  0  0  0  0  0
   40.7160    3.8300   -6.4180 O   0  0  0  0  0  0
   38.5680    5.1130   -4.8330 O   0  0  0  0  0  0
   40.4790    7.9520   -6.0890 O   0  0  0  0  0  0
   39.8340    7.7690   -3.3160 O   0  0  0  0  0  0
   43.8530    5.2200   -8.1280 O   0  0  0  0  0  0
   43.0380    9.6960   -8.9590 N   0  0  0  0  0  0
   43.7440    9.4090   -7.8490 C   0  0  0  0  0  0
   45.0890    9.9600   -7.3990 C   0  0  0  0  0  0
   45.8110   10.3060   -8.5820 O   0  0  0  0  0  0
   41.8470    8.2050   -7.8050 N   0  0  0  0  0  0
   42.9890    8.4760   -7.1280 C   0  0  0  0  0  0
   41.8270    8.9620   -8.9830 N   0  0  0  0  0  0
   39.3737    5.1547   -2.9497 H   0  0  0  0  0  0
   37.5871    3.9581   -1.8619 H   0  0  0  0  0  0
   36.4161    3.7185   -4.6745 H   0  0  0  0  0  0
   36.8331    1.2468   -4.5344 H   0  0  0  0  0  0
   38.5503    2.7723   -5.4681 H   0  0  0  0  0  0
   39.0822    0.2954   -5.2617 H   0  0  0  0  0  0
   39.8238    0.6193   -3.6580 H   0  0  0  0  0  0
   40.5559    1.3157   -5.1432 H   0  0  0  0  0  0
   37.0303    6.3527   -2.2371 H   0  0  0  0  0  0
   34.7020    3.8109   -2.7068 H   0  0  0  0  0  0
   36.5955    1.0719   -2.0208 H   0  0  0  0  0  0
   40.0557    7.5170   -8.0892 H   0  0  0  0  0  0
   42.1986    5.9017   -6.6257 H   0  0  0  0  0  0
   39.2724    5.0226   -7.2967 H   0  0  0  0  0  0
   40.5678    5.6669   -4.5828 H   0  0  0  0  0  0
   38.4827    7.2281   -6.2113 H   0  0  0  0  0  0
   38.8327    9.0210   -4.5000 H   0  0  0  0  0  0
   37.9549    7.5555   -3.9448 H   0  0  0  0  0  0
   42.1253    4.8081  -10.8935 H   0  0  0  0  0  0
   43.4960    3.7558  -10.4029 H   0  0  0  0  0  0
   43.7940    5.4712  -10.8446 H   0  0  0  0  0  0
   40.8207    5.2965   -9.3084 H   0  0  0  0  0  0
   41.0606    3.2236   -7.2686 H   0  0  0  0  0  0
   39.6835    8.2327   -2.3299 H   0  0  0  0  0  0
   44.9293   10.8456   -6.7663 H   0  0  0  0  0  0
   45.6266    9.1912   -6.8246 H   0  0  0  0  0  0
   46.8231   10.7298   -8.5045 H   0  0  0  0  0  0
   43.2750    8.0367   -6.1723 H   0  0  0  0  0  0
  1  2  1  0  0  0
  1 10  1  0  0  0
  1 21  1  0  0  0
  1 32  1  0  0  0
  2  3  1  0  0  0
  2  7  1  0  0  0
  2 33  1  0  0  0
  3  4  1  0  0  0
  3  8  1  0  0  0
  3 34  1  0  0  0
  4  5  1  0  0  0
  4  9  1  0  0  0
  4 35  1  0  0  0
  5  6  1  0  0  0
  5 10  1  0  0  0
  5 36  1  0  0  0
  6 37  1  0  0  0
  6 38  1  0  0  0
  6 39  1  0  0  0
  7 40  1  0  0  0
  8 41  1  0  0  0
  9 42  1  0  0  0
 11 12  1  0  0  0
 11 22  1  0  0  0
 11 29  1  0  0  0
 11 43  1  0  0  0
 12 13  1  0  0  0
 12 19  1  0  0  0
 12 44  1  0  0  0
 13 14  1  0  0  0
 13 20  1  0  0  0
 13 45  1  0  0  0
 14 15  1  0  0  0
 14 21  1  0  0  0
 14 46  1  0  0  0
 15 16  1  0  0  0
 15 22  1  0  0  0
 15 47  1  0  0  0
 16 23  1  0  0  0
 16 48  1  0  0  0
 16 49  1  0  0  0
 17 18  1  0  0  0
 17 19  1  0  0  0
 17 24  2  0  0  0
 18 50  1  0  0  0
 18 51  1  0  0  0
 18 52  1  0  0  0
 19 53  1  0  0  0
 20 54  1  0  0  0
 23 55  1  0  0  0
 25 26  1  0  0  0
 25 31  2  0  0  0
 26 27  1  0  0  0
 26 30  2  0  0  0
 27 28  1  0  0  0
 27 56  1  0  0  0
 27 57  1  0  0  0
 28 58  1  0  0  0
 29 30  1  0  0  0
 29 31  1  0  0  0
 30 59  1  0  0  0
M  END
> <s_m_source_file>
../2jdh_ligand.sdf

> <i_m_source_file_index>
1

> <s_epik_input>
W0NIM11bQ0BIXShPMSlbQ0BASF0oW09IXSlbQ0BASF0oW09IXSlbQ0BIXShbT0hdKVtDQEBIXTFPW0NASF0oW0NASF0oTzIpW0NIMl1bT0hdKVtDQEhdKFtPSF0pW0NAQEhdKFtOSF1DKD1PKVtDSDNdKVtDQEBIXTJuKFtjSF0zKW5uYzNbQ0gyXVtPSF0=

> <s_epik_cmdline>
J2VwaWtfYXBwJywgJy1pbWFlJywgJ2xpZ2FuZF9wcm8ubWFlJywgJy1vbWFlJywgJ2xpZ2FuZF9wcmVwLm1hZScsICctbXMnLCAnMScsICctcGgnLCAnNycsICctcGh0JywgJzAuNScsICctbnQn

> <r_lp_tautomer_probability>
1

> <r_epik_Ionization_Penalty>
  0.0000

> <r_epik_Ionization_Penalty_Charging>
  0.0000

> <r_epik_Ionization_Penalty_Neutral>
  0.0000

> <r_epik_State_Penalty>
 -0.0000

> <r_epik_Charging_Adjusted_Penalty>
0

> <i_epik_Tot_Q>
0

> <i_epik_Tot_abs_Q>
0

> <s_epik_Chemistry_Notes>
This compound contains an acetal/aminal-like group ( X-CH(R)-Y where X, Y are N, S, or O) that may be acid/base labile, releasing an aldehyde.

$$$$
