2jdk_ligand
                    3D
 Schrodinger Suite 2020-3.
 61 63  0  0  1  0            999 V2000
   38.8400    4.5800   -3.5280 C   0  0  1  0  0  0
   37.4890    4.3580   -2.8660 C   0  0  2  0  0  0
   36.6660    3.3830   -3.6420 C   0  0  1  0  0  0
   37.4240    2.0860   -3.8690 C   0  0  1  0  0  0
   38.8010    2.3680   -4.4740 C   0  0  2  0  0  0
   39.6740    1.1260   -4.5860 C   0  0  0  0  0  0
   36.6750    5.5510   -2.7300 O   0  0  0  0  0  0
   35.4580    3.0890   -2.9250 O   0  0  0  0  0  0
   37.5550    1.4640   -2.5450 O   0  0  0  0  0  0
   39.5200    3.3320   -3.6640 O   0  0  0  0  0  0
   40.9810    7.5790   -7.2470 C   0  0  1  0  0  0
   41.4030    6.1310   -7.1670 C   0  0  1  0  0  0
   40.2760    5.2640   -6.6000 C   0  0  2  0  0  0
   39.8090    5.8700   -5.2860 C   0  0  1  0  0  0
   39.4150    7.3430   -5.4790 C   0  0  1  0  0  0
   38.9790    8.0390   -4.2510 C   0  0  0  0  0  0
   43.0160    5.4540   -8.8610 C   0  0  0  0  0  0
   43.2760    5.0810  -10.2950 C   0  0  0  0  0  0
   41.7400    5.6490   -8.4950 N   0  0  0  0  0  0
   40.8010    3.9530   -6.3550 O   0  0  0  0  0  0
   38.6370    5.2040   -4.7840 O   0  0  0  0  0  0
   40.5530    8.0630   -6.0070 O   0  0  0  0  0  0
   39.8450    7.9140   -3.2270 O   0  0  0  0  0  0
   43.9830    5.5600   -8.0690 O   0  0  0  0  0  0
   46.1150    9.4730   -7.0350 O   0  0  0  0  0  0
   45.2450   10.0550   -7.6840 C   0  0  0  0  0  0
   45.5710   11.3210   -8.3270 O   0  0  0  0  0  0
   46.1470   11.4240   -9.6360 C   0  0  0  0  0  0
   43.8700    9.4780   -7.8690 C   0  0  0  0  0  0
   43.1590    9.6660   -8.9920 N   0  0  0  0  0  0
   41.9420    8.9930   -8.8790 N   0  0  0  0  0  0
   41.9590    8.3610   -7.6440 N   0  0  0  0  0  0
   43.1090    8.6620   -7.0150 C   0  0  0  0  0  0
   39.5177    5.2360   -2.9620 H   0  0  0  0  0  0
   37.7131    4.0132   -1.8458 H   0  0  0  0  0  0
   36.3843    3.8482   -4.5981 H   0  0  0  0  0  0
   36.8885    1.4027   -4.5445 H   0  0  0  0  0  0
   38.6361    2.7974   -5.4732 H   0  0  0  0  0  0
   39.1588    0.3695   -5.1962 H   0  0  0  0  0  0
   39.8640    0.7196   -3.5816 H   0  0  0  0  0  0
   40.6300    1.3914   -5.0611 H   0  0  0  0  0  0
   37.0664    6.4252   -2.1890 H   0  0  0  0  0  0
   34.7640    3.9005   -2.6606 H   0  0  0  0  0  0
   36.6552    1.1962   -1.9717 H   0  0  0  0  0  0
   40.1906    7.7270   -7.9976 H   0  0  0  0  0  0
   42.3047    6.0573   -6.5413 H   0  0  0  0  0  0
   39.4371    5.1493   -7.3022 H   0  0  0  0  0  0
   40.6135    5.7229   -4.5503 H   0  0  0  0  0  0
   38.5629    7.3873   -6.1733 H   0  0  0  0  0  0
   38.8671    9.1134   -4.4586 H   0  0  0  0  0  0
   38.0145    7.6273   -3.9190 H   0  0  0  0  0  0
   42.3219    5.0340  -10.8404 H   0  0  0  0  0  0
   43.7698    4.0989  -10.3346 H   0  0  0  0  0  0
   43.9264    5.8374  -10.7585 H   0  0  0  0  0  0
   40.9422    5.4368   -9.2219 H   0  0  0  0  0  0
   41.1906    3.3517   -7.1897 H   0  0  0  0  0  0
   39.6260    8.3907   -2.2602 H   0  0  0  0  0  0
   46.2952   12.4842   -9.8890 H   0  0  0  0  0  0
   45.4714   10.9625  -10.3712 H   0  0  0  0  0  0
   47.1163   10.9043   -9.6520 H   0  0  0  0  0  0
   43.3996    8.3311   -6.0179 H   0  0  0  0  0  0
  1  2  1  0  0  0
  1 10  1  0  0  0
  1 21  1  0  0  0
  1 34  1  0  0  0
  2  3  1  0  0  0
  2  7  1  0  0  0
  2 35  1  0  0  0
  3  4  1  0  0  0
  3  8  1  0  0  0
  3 36  1  0  0  0
  4  5  1  0  0  0
  4  9  1  0  0  0
  4 37  1  0  0  0
  5  6  1  0  0  0
  5 10  1  0  0  0
  5 38  1  0  0  0
  6 39  1  0  0  0
  6 40  1  0  0  0
  6 41  1  0  0  0
  7 42  1  0  0  0
  8 43  1  0  0  0
  9 44  1  0  0  0
 11 12  1  0  0  0
 11 22  1  0  0  0
 11 32  1  0  0  0
 11 45  1  0  0  0
 12 13  1  0  0  0
 12 19  1  0  0  0
 12 46  1  0  0  0
 13 14  1  0  0  0
 13 20  1  0  0  0
 13 47  1  0  0  0
 14 15  1  0  0  0
 14 21  1  0  0  0
 14 48  1  0  0  0
 15 16  1  0  0  0
 15 22  1  0  0  0
 15 49  1  0  0  0
 16 23  1  0  0  0
 16 50  1  0  0  0
 16 51  1  0  0  0
 17 18  1  0  0  0
 17 19  1  0  0  0
 17 24  2  0  0  0
 18 52  1  0  0  0
 18 53  1  0  0  0
 18 54  1  0  0  0
 19 55  1  0  0  0
 20 56  1  0  0  0
 23 57  1  0  0  0
 25 26  2  0  0  0
 26 27  1  0  0  0
 26 29  1  0  0  0
 27 28  1  0  0  0
 28 58  1  0  0  0
 28 59  1  0  0  0
 28 60  1  0  0  0
 29 30  1  0  0  0
 29 33  2  0  0  0
 30 31  2  0  0  0
 31 32  1  0  0  0
 32 33  1  0  0  0
 33 61  1  0  0  0
M  END
> <s_m_source_file>
../2jdk_ligand.sdf

> <i_m_source_file_index>
1

> <s_epik_input>
W0NIM11bQ0BIXShPMSlbQ0BASF0oW09IXSlbQ0BASF0oW09IXSlbQ0BIXShbT0hdKVtDQEBIXTFPW0NASF0oW0NASF0oTzIpW0NIMl1bT0hdKVtDQEhdKFtPSF0pW0NAQEhdKFtOSF1DKD1PKVtDSDNdKVtDQEBIXTJuKFtjSF0zKW5uYzNDKD1PKU9bQ0gzXQ==

> <s_epik_cmdline>
J2VwaWtfYXBwJywgJy1pbWFlJywgJ2xpZ2FuZF9wcm8ubWFlJywgJy1vbWFlJywgJ2xpZ2FuZF9wcmVwLm1hZScsICctbXMnLCAnMScsICctcGgnLCAnNycsICctcGh0JywgJzAuNScsICctbnQn

> <r_lp_tautomer_probability>
1

> <r_epik_Ionization_Penalty>
  0.0000

> <r_epik_Ionization_Penalty_Charging>
  0.0000

> <r_epik_Ionization_Penalty_Neutral>
  0.0000

> <r_epik_State_Penalty>
 -0.0000

> <r_epik_Charging_Adjusted_Penalty>
0

> <i_epik_Tot_Q>
0

> <i_epik_Tot_abs_Q>
0

> <s_epik_Chemistry_Notes>
This compound has an ester and may undergo hydrolysis at high or low pH. This compound contains an acetal/aminal-like group ( X-CH(R)-Y where X, Y are N, S, or O) that may be acid/base labile, releasing an aldehyde.

$$$$
