2jdl_ligand
                    3D
 Schrodinger Suite 2020-3.
141142  0  0  1  0            999 V2000
   21.9450  -21.6190   13.7970 N   0  3  0  0  0  0
   20.8100  -21.0150   14.5480 C   0  0  2  0  0  0
   20.8210  -21.5190   15.9940 C   0  0  0  0  0  0
   20.8920  -22.7310   16.2610 O   0  0  0  0  0  0
   19.4370  -21.2980   13.8760 C   0  0  0  0  0  0
   18.3310  -20.2250   14.2350 C   0  0  0  0  0  0
   18.1060  -19.8850   15.4540 O   0  5  0  0  0  0
   17.6740  -19.7480   13.2620 O   0  0  0  0  0  0
   20.7640  -20.5520   16.9080 N   0  0  0  0  0  0
   20.6420  -20.8000   18.3330 C   0  0  2  0  0  0
   20.3300  -19.4210   19.0000 C   0  0  0  0  0  0
   19.4280  -18.6800   18.5530 O   0  0  0  0  0  0
   21.9400  -21.4760   18.8690 C   0  0  0  0  0  0
   21.7280  -22.1950   20.2170 C   0  0  0  0  0  0
   22.5150  -21.9060   21.1720 O   0  5  0  0  0  0
   20.7710  -23.0260   20.3030 O   0  0  0  0  0  0
   21.0100  -19.1460   20.1120 N   0  0  0  0  0  0
   21.2230  -17.8000   20.6510 C   0  0  2  0  0  0
   22.7380  -17.5990   20.8130 C   0  0  0  0  0  0
   23.1920  -16.5720   21.3220 O   0  0  0  0  0  0
   20.5120  -17.6280   22.0130 C   0  0  0  0  0  0
   18.9860  -17.5370   21.8910 C   0  0  0  0  0  0
   18.4020  -18.0560   20.9130 O   0  5  0  0  0  0
   18.3800  -16.9690   22.8100 O   0  0  0  0  0  0
   23.5020  -18.6070   20.3830 N   0  0  0  0  0  0
   24.9570  -18.6590   20.6000 C   0  0  2  0  0  0
   25.6750  -17.9060   19.4680 C   0  0  0  0  0  0
   26.8580  -17.5820   19.5990 O   0  0  0  0  0  0
   25.4880  -20.1150   20.7800 C   0  0  0  0  0  0
   25.4020  -20.7060   22.2640 C   0  0  0  0  0  0
   26.1740  -19.7660   23.6840 S   0  0  0  0  0  0
   24.9330  -18.5210   24.0980 C   0  0  0  0  0  0
   24.9270  -17.6220   18.3930 N   0  0  0  0  0  0
   25.3810  -16.8330   17.2760 C   0  0  0  0  0  0
   26.7200  -17.2550   16.6970 C   0  0  0  0  0  0
   27.4750  -16.3980   16.2170 O   0  0  0  0  0  0
   26.9960  -18.5700   16.7510 N   0  0  0  0  0  0
   28.3000  -19.1380   16.3930 C   0  0  2  0  0  0
   28.5540  -18.9060   14.9090 C   0  0  0  0  0  0
   27.7640  -19.2570   14.0760 O   0  0  0  0  0  0
   28.4690  -20.6430   16.7530 C   0  0  0  0  0  0
   28.7480  -20.9400   18.2720 C   0  0  0  0  0  0
   27.9200  -21.8710   18.9970 C   0  0  0  0  0  0
   29.8080  -20.3470   18.9590 C   0  0  0  0  0  0
   28.1560  -22.1880   20.4000 C   0  0  0  0  0  0
   30.0660  -20.6470   20.3490 C   0  0  0  0  0  0
   29.2320  -21.5740   21.0690 C   0  0  0  0  0  0
   29.6790  -18.2800   14.6010 N   0  0  0  0  0  0
   30.0470  -17.9510   13.2090 C   0  0  0  0  0  0
   29.3760  -16.7380   12.6020 C   0  0  0  0  0  0
   29.3500  -16.6010   11.3980 O   0  0  0  0  0  0
   28.7600  -15.8840   13.4030 N   0  0  0  0  0  0
   28.0480  -14.7150   12.8460 C   0  0  2  0  0  0
   28.6840  -13.4090   13.2070 C   0  0  0  0  0  0
   28.0350  -12.3460   13.0000 O   0  0  0  0  0  0
   26.5810  -14.6540   13.2790 C   0  0  0  0  0  0
   25.8440  -15.9470   13.0220 C   0  0  0  0  0  0
   24.5480  -15.8950   13.7900 C   0  0  0  0  0  0
   25.6560  -16.2720   11.5210 C   0  0  0  0  0  0
   29.9010  -13.4920   13.7630 N   0  0  0  0  0  0
   30.6460  -12.3310   14.2670 C   0  0  2  0  0  0
   32.0250  -12.3100   13.6470 C   0  0  0  0  0  0
   32.1790  -11.8010   12.5260 O   0  0  0  0  0  0
   30.5790  -12.2700   15.7990 C   0  0  0  0  0  0
   29.1370  -12.0920   16.3010 C   0  0  0  0  0  0
   28.3350  -13.2190   16.6040 C   0  0  0  0  0  0
   28.5460  -10.8300   16.3460 C   0  0  0  0  0  0
   26.9820  -13.0580   16.9740 C   0  0  0  0  0  0
   27.2310  -10.6740   16.7470 C   0  0  0  0  0  0
   26.4330  -11.8020   17.0380 C   0  0  0  0  0  0
   33.0300  -12.8670   14.3270 N   0  0  0  0  0  0
   34.3890  -12.8200   13.7820 C   0  0  2  0  0  0
   34.7000  -13.9810   12.8440 C   0  0  0  0  0  0
   33.8660  -14.7720   12.4860 O   0  0  0  0  0  0
   35.4770  -12.4830   14.8030 C   0  0  0  0  0  0
   35.6810  -13.5460   15.8680 C   0  0  0  0  0  0
   36.6930  -13.4350   16.6070 O   0  5  0  0  0  0
   34.8710  -14.4700   15.9800 O   0  0  0  0  0  0
   35.7610  -14.0260   12.2420 O   0  5  0  0  0  0
   22.8892  -21.3900   14.3128 H   0  0  0  0  0  0
   21.9733  -21.2037   12.7788 H   0  0  0  0  0  0
   21.8110  -22.7095   13.7446 H   0  0  0  0  0  0
   20.9871  -19.9295   14.5301 H   0  0  0  0  0  0
   19.5568  -21.2969   12.7825 H   0  0  0  0  0  0
   19.0642  -22.2799   14.2030 H   0  0  0  0  0  0
   20.8145  -19.5196   16.5317 H   0  0  0  0  0  0
   19.8168  -21.5083   18.4983 H   0  0  0  0  0  0
   22.2915  -22.2229   18.1420 H   0  0  0  0  0  0
   22.7179  -20.7121   19.0149 H   0  0  0  0  0  0
   21.4260  -20.0199   20.6346 H   0  0  0  0  0  0
   20.7912  -17.0890   19.9313 H   0  0  0  0  0  0
   20.7428  -18.4884   22.6583 H   0  0  0  0  0  0
   20.8623  -16.7035   22.4953 H   0  0  0  0  0  0
   22.9966  -19.4227   19.8452 H   0  0  0  0  0  0
   25.1244  -18.1300   21.5498 H   0  0  0  0  0  0
   24.9083  -20.7982   20.1419 H   0  0  0  0  0  0
   26.5490  -20.1565   20.4926 H   0  0  0  0  0  0
   24.3467  -20.8128   22.5555 H   0  0  0  0  0  0
   25.8926  -21.6900   22.2958 H   0  0  0  0  0  0
   25.2956  -17.9059   24.9348 H   0  0  0  0  0  0
   23.9963  -19.0194   24.3882 H   0  0  0  0  0  0
   24.7512  -17.8794   23.2232 H   0  0  0  0  0  0
   23.9069  -18.0335   18.3972 H   0  0  0  0  0  0
   24.6482  -16.8994   16.4583 H   0  0  0  0  0  0
   25.4883  -15.7836   17.5878 H   0  0  0  0  0  0
   26.1816  -19.2298   17.0848 H   0  0  0  0  0  0
   29.0106  -18.5694   17.0108 H   0  0  0  0  0  0
   27.5503  -21.1882   16.4906 H   0  0  0  0  0  0
   29.3169  -21.0615   16.1909 H   0  0  0  0  0  0
   27.0908  -22.3534   18.4794 H   0  0  0  0  0  0
   30.4551  -19.6426   18.4362 H   0  0  0  0  0  0
   27.5083  -22.8908   20.9241 H   0  0  0  0  0  0
   30.9013  -20.1661   20.8580 H   0  0  0  0  0  0
   29.4309  -21.7973   22.1172 H   0  0  0  0  0  0
   30.3504  -18.0036   15.4274 H   0  0  0  0  0  0
   31.1282  -17.7565   13.1518 H   0  0  0  0  0  0
   29.7912  -18.7958   12.5526 H   0  0  0  0  0  0
   28.7803  -16.0488   14.4904 H   0  0  0  0  0  0
   28.1435  -14.8739   11.7617 H   0  0  0  0  0  0
   26.5254  -14.4427   14.3571 H   0  0  0  0  0  0
   26.0672  -13.8566   12.7221 H   0  0  0  0  0  0
   26.4523  -16.7775   13.4096 H   0  0  0  0  0  0
   24.7558  -15.6605   14.8444 H   0  0  0  0  0  0
   24.0432  -16.8701   13.7238 H   0  0  0  0  0  0
   23.8993  -15.1165   13.3622 H   0  0  0  0  0  0
   26.6375  -16.2938   11.0248 H   0  0  0  0  0  0
   25.0264  -15.4998   11.0547 H   0  0  0  0  0  0
   25.1704  -17.2535   11.4164 H   0  0  0  0  0  0
   30.3392  -14.4986   13.8313 H   0  0  0  0  0  0
   30.1608  -11.4076   13.9178 H   0  0  0  0  0  0
   30.9786  -13.2040   16.2209 H   0  0  0  0  0  0
   31.1771  -11.4198   16.1586 H   0  0  0  0  0  0
   28.7657  -14.2189   16.5512 H   0  0  0  0  0  0
   29.1283   -9.9537   16.0612 H   0  0  0  0  0  0
   26.3736  -13.9314   17.2088 H   0  0  0  0  0  0
   26.8082   -9.6736   16.8389 H   0  0  0  0  0  0
   25.3857  -11.6756   17.3122 H   0  0  0  0  0  0
   32.8413  -13.3596   15.2923 H   0  0  0  0  0  0
   34.3481  -11.9284   13.1391 H   0  0  0  0  0  0
   36.4391  -12.3559   14.2851 H   0  0  0  0  0  0
   35.2149  -11.5502   15.3238 H   0  0  0  0  0  0
  1  2  1  0  0  0
  1 80  1  0  0  0
  1 81  1  0  0  0
  1 82  1  0  0  0
  2  3  1  0  0  0
  2  5  1  0  0  0
  2 83  1  0  0  0
  3  4  2  0  0  0
  3  9  1  0  0  0
  5  6  1  0  0  0
  5 84  1  0  0  0
  5 85  1  0  0  0
  6  7  1  0  0  0
  6  8  2  0  0  0
  9 10  1  0  0  0
  9 86  1  0  0  0
 10 11  1  0  0  0
 10 13  1  0  0  0
 10 87  1  0  0  0
 11 12  2  0  0  0
 11 17  1  0  0  0
 13 14  1  0  0  0
 13 88  1  0  0  0
 13 89  1  0  0  0
 14 15  1  0  0  0
 14 16  2  0  0  0
 17 18  1  0  0  0
 17 90  1  0  0  0
 18 19  1  0  0  0
 18 21  1  0  0  0
 18 91  1  0  0  0
 19 20  2  0  0  0
 19 25  1  0  0  0
 21 22  1  0  0  0
 21 92  1  0  0  0
 21 93  1  0  0  0
 22 23  1  0  0  0
 22 24  2  0  0  0
 25 26  1  0  0  0
 25 94  1  0  0  0
 26 27  1  0  0  0
 26 29  1  0  0  0
 26 95  1  0  0  0
 27 28  2  0  0  0
 27 33  1  0  0  0
 29 30  1  0  0  0
 29 96  1  0  0  0
 29 97  1  0  0  0
 30 31  1  0  0  0
 30 98  1  0  0  0
 30 99  1  0  0  0
 31 32  1  0  0  0
 32100  1  0  0  0
 32101  1  0  0  0
 32102  1  0  0  0
 33 34  1  0  0  0
 33103  1  0  0  0
 34 35  1  0  0  0
 34104  1  0  0  0
 34105  1  0  0  0
 35 36  2  0  0  0
 35 37  1  0  0  0
 37 38  1  0  0  0
 37106  1  0  0  0
 38 39  1  0  0  0
 38 41  1  0  0  0
 38107  1  0  0  0
 39 40  2  0  0  0
 39 48  1  0  0  0
 41 42  1  0  0  0
 41108  1  0  0  0
 41109  1  0  0  0
 42 43  2  0  0  0
 42 44  1  0  0  0
 43 45  1  0  0  0
 43110  1  0  0  0
 44 46  2  0  0  0
 44111  1  0  0  0
 45 47  2  0  0  0
 45112  1  0  0  0
 46 47  1  0  0  0
 46113  1  0  0  0
 47114  1  0  0  0
 48 49  1  0  0  0
 48115  1  0  0  0
 49 50  1  0  0  0
 49116  1  0  0  0
 49117  1  0  0  0
 50 51  2  0  0  0
 50 52  1  0  0  0
 52 53  1  0  0  0
 52118  1  0  0  0
 53 54  1  0  0  0
 53 56  1  0  0  0
 53119  1  0  0  0
 54 55  2  0  0  0
 54 60  1  0  0  0
 56 57  1  0  0  0
 56120  1  0  0  0
 56121  1  0  0  0
 57 58  1  0  0  0
 57 59  1  0  0  0
 57122  1  0  0  0
 58123  1  0  0  0
 58124  1  0  0  0
 58125  1  0  0  0
 59126  1  0  0  0
 59127  1  0  0  0
 59128  1  0  0  0
 60 61  1  0  0  0
 60129  1  0  0  0
 61 62  1  0  0  0
 61 64  1  0  0  0
 61130  1  0  0  0
 62 63  2  0  0  0
 62 71  1  0  0  0
 64 65  1  0  0  0
 64131  1  0  0  0
 64132  1  0  0  0
 65 66  2  0  0  0
 65 67  1  0  0  0
 66 68  1  0  0  0
 66133  1  0  0  0
 67 69  2  0  0  0
 67134  1  0  0  0
 68 70  2  0  0  0
 68135  1  0  0  0
 69 70  1  0  0  0
 69136  1  0  0  0
 70137  1  0  0  0
 71 72  1  0  0  0
 71138  1  0  0  0
 72 73  1  0  0  0
 72 75  1  0  0  0
 72139  1  0  0  0
 73 74  2  0  0  0
 73 79  1  0  0  0
 75 76  1  0  0  0
 75140  1  0  0  0
 75141  1  0  0  0
 76 77  1  0  0  0
 76 78  2  0  0  0
M  CHG  6   1   1   7  -1  15  -1  23  -1  77  -1  79  -1
M  END
> <s_m_source_file>
../2jdl_ligand.sdf

> <i_m_source_file_index>
1

> <s_epik_input>
W09IXUMoPU8pW0NIMl1bQ0BIXShbTkgzK10pQyg9TylbTkhdW0NAQEhdKFtDSDJdQyg9TylbT0hdKUMoPU8pW05IXVtDQEBIXShbQ0gyXUMoPU8pW09IXSlDKD1PKVtOSF1bQ0BASF0oW0NIMl1bQ0gyXVNbQ0gzXSlDKD1PKVtOSF1bQ0gyXUMoPU8pW05IXVtDQEBIXShbQ0gyXWMxW2NIXVtjSF1bY0hdW2NIXVtjSF0xKUMoPU8pW05IXVtDSDJdQyg9TylbTkhdW0NAQEhdKFtDSDJdW0NIXShbQ0gzXSlbQ0gzXSlDKD1PKVtOSF1bQ0BIXShDKD1PKVtOSF1bQ0BIXShDKD1PKVtPSF0pW0NIMl1DKD1PKVtPSF0pW0NIMl1jMltjSF1bY0hdW2NIXVtjSF1bY0hdMg==

> <s_epik_cmdline>
J2VwaWtfYXBwJywgJy1pbWFlJywgJ2xpZ2FuZF9wcm8ubWFlJywgJy1vbWFlJywgJ2xpZ2FuZF9wcmVwLm1hZScsICctbXMnLCAnMScsICctcGgnLCAnNycsICctcGh0JywgJzAuNScsICctbnQn

> <r_epik_Ionization_Penalty>
  0.0238

> <r_epik_Ionization_Penalty_Charging>
  0.0238

> <r_epik_Ionization_Penalty_Neutral>
  0.0000

> <r_epik_State_Penalty>
  0.0159

> <r_epik_Charging_Adjusted_Penalty>
0.0397506127261277

> <i_epik_Tot_Q>
-4

> <i_epik_Tot_abs_Q>
6

$$$$
