2jdp_ligand
                    3D
 Schrodinger Suite 2020-3.
 26 26  0  0  1  0            999 V2000
  -34.8140    9.0870  -42.3930 C   0  0  2  0  0  0
  -33.7980    8.8930  -41.2920 C   0  0  2  0  0  0
  -33.8980   10.0480  -40.3070 C   0  0  1  0  0  0
  -35.3050   10.2150  -39.7320 C   0  0  1  0  0  0
  -36.3340   10.2570  -40.8700 C   0  0  2  0  0  0
  -37.7870   10.2780  -40.3860 C   0  0  0  0  0  0
  -34.4750   10.2670  -43.1470 O   0  0  0  0  0  0
  -32.4840    8.8950  -41.8400 O   0  0  0  0  0  0
  -32.9580    9.8190  -39.2430 O   0  0  0  0  0  0
  -35.5300    9.1180  -38.8320 O   0  0  0  0  0  0
  -36.1080    9.1790  -41.7770 O   0  0  0  0  0  0
  -35.1970   10.3070  -44.3820 C   0  0  0  0  0  0
  -34.8604    8.2674  -43.1252 H   0  0  0  0  0  0
  -33.9414    7.9142  -40.8109 H   0  0  0  0  0  0
  -33.6156   10.9845  -40.8103 H   0  0  0  0  0  0
  -35.4190   11.1259  -39.1260 H   0  0  0  0  0  0
  -36.1697   11.1687  -41.4631 H   0  0  0  0  0  0
  -37.9295   11.1179  -39.6901 H   0  0  0  0  0  0
  -38.0159    9.3329  -39.8718 H   0  0  0  0  0  0
  -38.4590   10.3983  -41.2485 H   0  0  0  0  0  0
  -32.1960    8.1349  -42.5812 H   0  0  0  0  0  0
  -31.8918    9.6757  -39.4724 H   0  0  0  0  0  0
  -34.8642    8.9690  -37.9692 H   0  0  0  0  0  0
  -34.9217   11.2151  -44.9384 H   0  0  0  0  0  0
  -36.2773   10.3172  -44.1750 H   0  0  0  0  0  0
  -34.9469    9.4195  -44.9818 H   0  0  0  0  0  0
  1  2  1  0  0  0
  1  7  1  0  0  0
  1 11  1  0  0  0
  1 13  1  0  0  0
  2  3  1  0  0  0
  2  8  1  0  0  0
  2 14  1  0  0  0
  3  4  1  0  0  0
  3  9  1  0  0  0
  3 15  1  0  0  0
  4  5  1  0  0  0
  4 10  1  0  0  0
  4 16  1  0  0  0
  5  6  1  0  0  0
  5 11  1  0  0  0
  5 17  1  0  0  0
  6 18  1  0  0  0
  6 19  1  0  0  0
  6 20  1  0  0  0
  7 12  1  0  0  0
  8 21  1  0  0  0
  9 22  1  0  0  0
 10 23  1  0  0  0
 12 24  1  0  0  0
 12 25  1  0  0  0
 12 26  1  0  0  0
M  END
> <s_m_source_file>
../2jdp_ligand.sdf

> <i_m_source_file_index>
1

> <s_epik_input>
W0NIM11PW0NASF0xW0NAQEhdKFtPSF0pW0NASF0oW09IXSlbQ0BIXShbT0hdKVtDQEBIXShPMSlbQ0gzXQ==

> <s_epik_cmdline>
J2VwaWtfYXBwJywgJy1pbWFlJywgJ2xpZ2FuZF9wcm8ubWFlJywgJy1vbWFlJywgJ2xpZ2FuZF9wcmVwLm1hZScsICctbXMnLCAnMScsICctcGgnLCAnNycsICctcGh0JywgJzAuNScsICctbnQn

> <r_lp_tautomer_probability>
1

> <r_epik_Ionization_Penalty>
  0.0000

> <r_epik_Ionization_Penalty_Charging>
  0.0000

> <r_epik_Ionization_Penalty_Neutral>
  0.0000

> <r_epik_State_Penalty>
 -0.0000

> <r_epik_Charging_Adjusted_Penalty>
0

> <i_epik_Tot_Q>
0

> <i_epik_Tot_abs_Q>
0

> <s_epik_Chemistry_Notes>
This compound contains an acetal/aminal-like group ( X-CH(R)-Y where X, Y are N, S, or O) that may be acid/base labile, releasing an aldehyde.

$$$$
