2jds_ligand
                    3D
 Schrodinger Suite 2020-3.
 54 58  0  0  1  0            999 V2000
    5.2660   10.4400    5.5250 C   0  0  0  0  0  0
    4.6210   10.2650    4.1860 C   0  0  0  0  0  0
    3.2910   10.2130    3.9520 N   0  3  0  0  0  0
    3.0470   10.0550    2.6330 N   0  0  0  0  0  0
    4.2510   10.0170    1.9210 C   0  0  0  0  0  0
    4.5590    9.8680    0.5620 C   0  0  0  0  0  0
    5.8810    9.8780    0.1840 C   0  0  0  0  0  0
    6.9390    9.9970    1.1450 C   0  0  0  0  0  0
    6.6500   10.1370    2.5050 C   0  0  0  0  0  0
    5.3130   10.1620    2.9070 C   0  0  0  0  0  0
    8.3300    9.9810    0.6680 C   0  0  0  0  0  0
    8.5930   10.4500   -0.6350 C   0  0  0  0  0  0
    9.7940   10.4900   -1.2240 N   0  0  0  0  0  0
   10.8200   10.0540   -0.4890 C   0  0  0  0  0  0
   10.6840    9.5480    0.8020 C   0  0  0  0  0  0
   11.8460    9.1220    1.4320 O   0  0  0  0  0  0
   11.9780    8.1240    2.4350 C   0  0  0  0  0  0
   13.4770    7.7060    2.3250 C   0  0  1  0  0  0
   13.6780    6.9530    1.0090 N   0  3  0  0  0  0
   14.4850    8.9090    2.5360 C   0  0  0  0  0  0
   14.6420    9.8410    1.3870 C   0  0  0  0  0  0
   15.3690    9.5750    0.2160 C   0  0  0  0  0  0
   15.2870   10.6400   -0.6800 N   0  3  0  0  0  0
   14.4790   11.6510   -0.1260 C   0  0  0  0  0  0
   14.0800   12.9000   -0.6610 C   0  0  0  0  0  0
   13.2600   13.7160    0.1230 C   0  0  0  0  0  0
   12.8400   13.2790    1.4070 C   0  0  0  0  0  0
   13.2220   12.0460    1.9290 C   0  0  0  0  0  0
   14.0590   11.1890    1.1860 C   0  0  0  0  0  0
    9.4230    9.4970    1.4340 C   0  0  0  0  0  0
    4.4896   10.4852    6.3029 H   0  0  0  0  0  0
    5.8475   11.3737    5.5326 H   0  0  0  0  0  0
    5.9350    9.5897    5.7236 H   0  0  0  0  0  0
    3.7685    9.7469   -0.1786 H   0  0  0  0  0  0
    6.1314    9.7933   -0.8735 H   0  0  0  0  0  0
    7.4524   10.2249    3.2375 H   0  0  0  0  0  0
    7.7433   10.8120   -1.2138 H   0  0  0  0  0  0
   11.8190   10.0963   -0.9229 H   0  0  0  0  0  0
   11.7317    8.5556    3.4164 H   0  0  0  0  0  0
   11.2915    7.2925    2.2175 H   0  0  0  0  0  0
   13.7130    6.9997    3.1346 H   0  0  0  0  0  0
   12.9438    6.1370    0.9377 H   0  0  0  0  0  0
   14.6950    6.5350    0.9774 H   0  0  0  0  0  0
   13.5397    7.6454    0.1656 H   0  0  0  0  0  0
   14.1489    9.5246    3.3834 H   0  0  0  0  0  0
   15.4896    8.5131    2.7461 H   0  0  0  0  0  0
   15.9048    8.6206    0.1061 H   0  0  0  0  0  0
   14.4024   13.2151   -1.6534 H   0  0  0  0  0  0
   12.9425   14.6891   -0.2516 H   0  0  0  0  0  0
   12.1987   13.9288    2.0025 H   0  0  0  0  0  0
   12.8725   11.7423    2.9158 H   0  0  0  0  0  0
    9.2964    9.1108    2.4454 H   0  0  0  0  0  0
   15.8142   10.5895   -1.6441 H   0  0  0  0  0  0
    2.5817   10.2971    4.7885 H   0  0  0  0  0  0
  1  2  1  0  0  0
  1 31  1  0  0  0
  1 32  1  0  0  0
  1 33  1  0  0  0
  2  3  2  0  0  0
  2 10  1  0  0  0
  3  4  1  0  0  0
  3 54  1  0  0  0
  4  5  1  0  0  0
  5  6  1  0  0  0
  5 10  2  0  0  0
  6  7  2  0  0  0
  6 34  1  0  0  0
  7  8  1  0  0  0
  7 35  1  0  0  0
  8  9  2  0  0  0
  8 11  1  0  0  0
  9 10  1  0  0  0
  9 36  1  0  0  0
 11 12  2  0  0  0
 11 30  1  0  0  0
 12 13  1  0  0  0
 12 37  1  0  0  0
 13 14  2  0  0  0
 14 15  1  0  0  0
 14 38  1  0  0  0
 15 16  1  0  0  0
 15 30  2  0  0  0
 16 17  1  0  0  0
 17 18  1  0  0  0
 17 39  1  0  0  0
 17 40  1  0  0  0
 18 19  1  0  0  0
 18 20  1  0  0  0
 18 41  1  0  0  0
 19 42  1  0  0  0
 19 43  1  0  0  0
 19 44  1  0  0  0
 20 21  1  0  0  0
 20 45  1  0  0  0
 20 46  1  0  0  0
 21 22  2  0  0  0
 21 29  1  0  0  0
 22 23  1  0  0  0
 22 47  1  0  0  0
 23 24  1  0  0  0
 23 53  1  0  0  0
 24 25  1  0  0  0
 24 29  2  0  0  0
 25 26  2  0  0  0
 25 48  1  0  0  0
 26 27  1  0  0  0
 26 49  1  0  0  0
 27 28  2  0  0  0
 27 50  1  0  0  0
 28 29  1  0  0  0
 28 51  1  0  0  0
 30 52  1  0  0  0
M  CHG  3   3   1  19   1  23   1
M  END
> <s_m_source_file>
../2jds_ligand.sdf

> <i_m_source_file_index>
1

> <s_epik_input>
W25IXTFuYyhbQ0gzXSljKGMxMilbY0hdYyhbY0hdW2NIXTIpLWMzW2NIXW5bY0hdYyhbY0hdMylPW0NIMl1bQ0BASF0oW05IMytdKVtDSDJdYyhbY0hdW25IXTQpYyhjNDUpW2NIXVtjSF1bY0hdW2NIXTU=

> <s_epik_cmdline>
J2VwaWtfYXBwJywgJy1pbWFlJywgJ2xpZ2FuZF9wcm8ubWFlJywgJy1vbWFlJywgJ2xpZ2FuZF9wcmVwLm1hZScsICctbXMnLCAnMScsICctcGgnLCAnNycsICctcGh0JywgJzAuNScsICctbnQn

> <r_epik_Ionization_Penalty>
  0.0156

> <r_epik_Ionization_Penalty_Charging>
  0.0151

> <r_epik_Ionization_Penalty_Neutral>
  0.0005

> <r_epik_State_Penalty>
  0.2967

> <r_epik_Charging_Adjusted_Penalty>
0.311810955309677

> <i_epik_Tot_Q>
3

> <i_epik_Tot_abs_Q>
3

$$$$
