2jdt_ligand
                    3D
 Schrodinger Suite 2020-3.
 51 53  0  0  1  0            999 V2000
   13.2310   14.5970   -0.2260 Cl  0  0  0  0  0  0
   13.6970   13.3090    0.7800 C   0  0  0  0  0  0
   13.0560   13.1470    1.9910 C   0  0  0  0  0  0
   13.4400   12.1090    2.8110 C   0  0  0  0  0  0
   14.4570   11.2710    2.4130 C   0  0  0  0  0  0
   14.8320   10.1160    3.3140 C   0  0  0  0  0  0
   13.9830    9.0340    2.7510 O   0  0  0  0  0  0
   14.2990    7.6970    3.1980 C   0  0  0  0  0  0
   13.0100    6.7910    3.3550 C   0  0  0  0  0  0
   11.6830    7.3230    2.8470 N   0  3  0  0  0  0
   11.0070    7.9290    3.8850 C   0  0  0  0  0  0
    9.5550    8.0250    3.5140 C   0  0  0  0  0  0
    9.0510    9.0620    4.3610 N   0  0  3  0  0  0
    8.8330   10.5260    3.6980 S   0  0  0  0  0  0
    8.6970   11.3800    4.8170 O   0  0  0  0  0  0
    9.8540   10.7370    2.7460 O   0  0  0  0  0  0
    7.3160   10.3780    2.8450 C   0  0  0  0  0  0
    7.3180   10.2840    1.4770 C   0  0  0  0  0  0
    6.1460   10.1500    0.7510 C   0  0  0  0  0  0
    4.9440   10.0720    1.3880 C   0  0  0  0  0  0
    4.8970   10.1480    2.7960 C   0  0  0  0  0  0
    3.6650   10.0830    3.4860 C   0  0  0  0  0  0
    3.6290   10.1700    4.8120 N   0  0  0  0  0  0
    4.7420   10.3040    5.5250 C   0  0  0  0  0  0
    5.9800   10.3920    4.9460 C   0  0  0  0  0  0
    6.0960   10.3200    3.5370 C   0  0  0  0  0  0
   15.0880   11.4220    1.1800 C   0  0  0  0  0  0
   14.7010   12.4640    0.3530 C   0  0  0  0  0  0
   12.2603   13.8279    2.2933 H   0  0  0  0  0  0
   12.9423   11.9523    3.7680 H   0  0  0  0  0  0
   15.9107    9.9189    3.2276 H   0  0  0  0  0  0
   14.5879   10.3697    4.3562 H   0  0  0  0  0  0
   14.9658    7.2144    2.4683 H   0  0  0  0  0  0
   14.8001    7.7462    4.1760 H   0  0  0  0  0  0
   13.1584    5.8452    2.8133 H   0  0  0  0  0  0
   12.8377    6.5800    4.4207 H   0  0  0  0  0  0
   11.8639    8.0566    2.0476 H   0  0  0  0  0  0
   11.0815    6.4911    2.4519 H   0  0  0  0  0  0
   11.1227    7.3275    4.7986 H   0  0  0  0  0  0
   11.4194    8.9348    4.0535 H   0  0  0  0  0  0
    9.4651    8.2797    2.4477 H   0  0  0  0  0  0
    9.0636    7.0592    3.7030 H   0  0  0  0  0  0
    8.6735    8.8174    5.3648 H   0  0  0  0  0  0
    8.2692   10.3156    0.9456 H   0  0  0  0  0  0
    6.1855   10.1066   -0.3374 H   0  0  0  0  0  0
    4.0253    9.9517    0.8138 H   0  0  0  0  0  0
    2.7375    9.9606    2.9266 H   0  0  0  0  0  0
    4.6670   10.3455    6.6116 H   0  0  0  0  0  0
    6.8686   10.5164    5.5649 H   0  0  0  0  0  0
   15.8731   10.7318    0.8712 H   0  0  0  0  0  0
   15.1796   12.6133   -0.6149 H   0  0  0  0  0  0
  1  2  1  0  0  0
  2  3  2  0  0  0
  2 28  1  0  0  0
  3  4  1  0  0  0
  3 29  1  0  0  0
  4  5  2  0  0  0
  4 30  1  0  0  0
  5  6  1  0  0  0
  5 27  1  0  0  0
  6  7  1  0  0  0
  6 31  1  0  0  0
  6 32  1  0  0  0
  7  8  1  0  0  0
  8  9  1  0  0  0
  8 33  1  0  0  0
  8 34  1  0  0  0
  9 10  1  0  0  0
  9 35  1  0  0  0
  9 36  1  0  0  0
 10 11  1  0  0  0
 10 37  1  0  0  0
 10 38  1  0  0  0
 11 12  1  0  0  0
 11 39  1  0  0  0
 11 40  1  0  0  0
 12 13  1  0  0  0
 12 41  1  0  0  0
 12 42  1  0  0  0
 13 14  1  0  0  0
 13 43  1  0  0  0
 14 15  2  0  0  0
 14 16  2  0  0  0
 14 17  1  0  0  0
 17 18  2  0  0  0
 17 26  1  0  0  0
 18 19  1  0  0  0
 18 44  1  0  0  0
 19 20  2  0  0  0
 19 45  1  0  0  0
 20 21  1  0  0  0
 20 46  1  0  0  0
 21 22  1  0  0  0
 21 26  2  0  0  0
 22 23  2  0  0  0
 22 47  1  0  0  0
 23 24  1  0  0  0
 24 25  2  0  0  0
 24 48  1  0  0  0
 25 26  1  0  0  0
 25 49  1  0  0  0
 27 28  2  0  0  0
 27 50  1  0  0  0
 28 51  1  0  0  0
M  CHG  1  10   1
M  END
> <s_m_source_file>
../2jdt_ligand.sdf

> <i_m_source_file_index>
1

> <s_epik_input>
Q2xjMVtjSF1bY0hdYyhbY0hdW2NIXTEpW0NIMl1PW0NIMl1bQ0gyXVtOSDIrXVtDSDJdW0NIMl1bTkhdUyg9TykoPU8pYyhbY0hdW2NIXVtjSF0yKWMoYzIzKVtjSF1bY0hdbltjSF0z

> <s_epik_cmdline>
J2VwaWtfYXBwJywgJy1pbWFlJywgJ2xpZ2FuZF9wcm8ubWFlJywgJy1vbWFlJywgJ2xpZ2FuZF9wcmVwLm1hZScsICctbXMnLCAnMScsICctcGgnLCAnNycsICctcGh0JywgJzAuNScsICctbnQn

> <r_epik_Ionization_Penalty>
  0.0153

> <r_epik_Ionization_Penalty_Charging>
  0.0135

> <r_epik_Ionization_Penalty_Neutral>
  0.0019

> <r_epik_State_Penalty>
  0.0105

> <r_epik_Charging_Adjusted_Penalty>
0.0240022902465312

> <i_epik_Tot_Q>
1

> <i_epik_Tot_abs_Q>
1

$$$$
