2jdv_ligand
                    3D
 Schrodinger Suite 2020-3.
 54 58  0  0  1  0            999 V2000
    4.6300    9.6460    5.4830 C   0  0  0  0  0  0
    3.9820    9.6170    4.1620 C   0  0  0  0  0  0
    2.6600    9.5430    3.9270 N   0  3  0  0  0  0
    2.4940    9.5320    2.5900 N   0  0  0  0  0  0
    3.6740    9.6100    1.9010 C   0  0  0  0  0  0
    3.9820    9.6390    0.5150 C   0  0  0  0  0  0
    5.3300    9.7180    0.2000 C   0  0  0  0  0  0
    6.3620    9.7830    1.1680 C   0  0  0  0  0  0
    6.0380    9.7610    2.5410 C   0  0  0  0  0  0
    4.6930    9.6820    2.9080 C   0  0  0  0  0  0
    7.7610    9.8900    0.7360 C   0  0  0  0  0  0
    8.1180   10.6090   -0.4380 C   0  0  0  0  0  0
    9.3890   10.7540   -0.8510 N   0  0  0  0  0  0
   10.3620   10.1750   -0.1680 C   0  0  0  0  0  0
   10.1120    9.4190    0.9860 C   0  0  0  0  0  0
   11.1580    8.8460    1.6870 O   0  0  0  0  0  0
   11.0350    7.5980    2.3610 C   0  0  0  0  0  0
   12.4580    7.3990    2.9270 C   0  0  1  0  0  0
   13.3660    7.2540    1.7530 N   0  3  0  0  0  0
   12.9710    8.5600    3.8470 C   0  0  0  0  0  0
   12.1550    8.6550    5.0680 C   0  0  0  0  0  0
   12.4130    7.9870    6.2650 C   0  0  0  0  0  0
   11.4120    8.2470    7.1860 N   0  3  0  0  0  0
   10.4700    9.0920    6.6090 C   0  0  0  0  0  0
    9.2970    9.6280    7.1460 C   0  0  0  0  0  0
    8.5450   10.4530    6.3380 C   0  0  0  0  0  0
    8.9440   10.7100    5.0060 C   0  0  0  0  0  0
   10.1130   10.2060    4.4590 C   0  0  0  0  0  0
   10.9140    9.3830    5.2540 C   0  0  0  0  0  0
    8.7980    9.2870    1.4520 C   0  0  0  0  0  0
    3.8631    9.5828    6.2690 H   0  0  0  0  0  0
    5.1931   10.5843    5.5946 H   0  0  0  0  0  0
    5.3181    8.7925    5.5726 H   0  0  0  0  0  0
    3.2084    9.6016   -0.2520 H   0  0  0  0  0  0
    5.6117    9.7308   -0.8529 H   0  0  0  0  0  0
    6.8204    9.8047    3.2986 H   0  0  0  0  0  0
    7.3240   11.0636   -1.0305 H   0  0  0  0  0  0
   11.3898   10.2889   -0.5127 H   0  0  0  0  0  0
   10.2665    7.6783    3.1440 H   0  0  0  0  0  0
   10.7444    6.8192    1.6405 H   0  0  0  0  0  0
   12.4595    6.4872    3.5424 H   0  0  0  0  0  0
   13.0047    6.4391    1.1085 H   0  0  0  0  0  0
   14.3829    7.0218    2.1024 H   0  0  0  0  0  0
   13.3802    8.1942    1.1821 H   0  0  0  0  0  0
   14.0160    8.3677    4.1317 H   0  0  0  0  0  0
   12.9089    9.5139    3.3027 H   0  0  0  0  0  0
   13.3142    7.3640    6.3640 H   0  0  0  0  0  0
    8.9880    9.4020    8.1665 H   0  0  0  0  0  0
    7.6361   10.9107    6.7285 H   0  0  0  0  0  0
    8.3032   11.3325    4.3815 H   0  0  0  0  0  0
   10.4000   10.4455    3.4351 H   0  0  0  0  0  0
    8.5875    8.7220    2.3601 H   0  0  0  0  0  0
   11.4585    7.7997    8.1899 H   0  0  0  0  0  0
    1.9530    9.5047    4.7689 H   0  0  0  0  0  0
  1  2  1  0  0  0
  1 31  1  0  0  0
  1 32  1  0  0  0
  1 33  1  0  0  0
  2  3  2  0  0  0
  2 10  1  0  0  0
  3  4  1  0  0  0
  3 54  1  0  0  0
  4  5  1  0  0  0
  5  6  1  0  0  0
  5 10  2  0  0  0
  6  7  2  0  0  0
  6 34  1  0  0  0
  7  8  1  0  0  0
  7 35  1  0  0  0
  8  9  2  0  0  0
  8 11  1  0  0  0
  9 10  1  0  0  0
  9 36  1  0  0  0
 11 12  2  0  0  0
 11 30  1  0  0  0
 12 13  1  0  0  0
 12 37  1  0  0  0
 13 14  2  0  0  0
 14 15  1  0  0  0
 14 38  1  0  0  0
 15 16  1  0  0  0
 15 30  2  0  0  0
 16 17  1  0  0  0
 17 18  1  0  0  0
 17 39  1  0  0  0
 17 40  1  0  0  0
 18 19  1  0  0  0
 18 20  1  0  0  0
 18 41  1  0  0  0
 19 42  1  0  0  0
 19 43  1  0  0  0
 19 44  1  0  0  0
 20 21  1  0  0  0
 20 45  1  0  0  0
 20 46  1  0  0  0
 21 22  2  0  0  0
 21 29  1  0  0  0
 22 23  1  0  0  0
 22 47  1  0  0  0
 23 24  1  0  0  0
 23 53  1  0  0  0
 24 25  1  0  0  0
 24 29  2  0  0  0
 25 26  2  0  0  0
 25 48  1  0  0  0
 26 27  1  0  0  0
 26 49  1  0  0  0
 27 28  2  0  0  0
 27 50  1  0  0  0
 28 29  1  0  0  0
 28 51  1  0  0  0
 30 52  1  0  0  0
M  CHG  3   3   1  19   1  23   1
M  END
> <s_m_source_file>
../2jdv_ligand.sdf

> <i_m_source_file_index>
1

> <s_epik_input>
W25IXTFuYyhbQ0gzXSljKGMxMilbY0hdYyhbY0hdW2NIXTIpLWMzW2NIXW5bY0hdYyhbY0hdMylPW0NIMl1bQ0BASF0oW05IMytdKVtDSDJdYyhbY0hdW25IXTQpYyhjNDUpW2NIXVtjSF1bY0hdW2NIXTU=

> <s_epik_cmdline>
J2VwaWtfYXBwJywgJy1pbWFlJywgJ2xpZ2FuZF9wcm8ubWFlJywgJy1vbWFlJywgJ2xpZ2FuZF9wcmVwLm1hZScsICctbXMnLCAnMScsICctcGgnLCAnNycsICctcGh0JywgJzAuNScsICctbnQn

> <r_epik_Ionization_Penalty>
  0.0156

> <r_epik_Ionization_Penalty_Charging>
  0.0151

> <r_epik_Ionization_Penalty_Neutral>
  0.0005

> <r_epik_State_Penalty>
  0.2967

> <r_epik_Charging_Adjusted_Penalty>
0.311810955309677

> <i_epik_Tot_Q>
3

> <i_epik_Tot_abs_Q>
3

$$$$
