2jew_ligand
                    3D
 Schrodinger Suite 2020-3.
 39 39  0  0  1  0            999 V2000
   79.4660   16.3410   -0.6950 N   0  3  0  0  0  0
   80.3290   17.2560   -1.4440 C   0  0  0  0  0  0
   80.1640   24.3510    3.2950 C   0  0  0  0  0  0
   82.9680   27.6400    2.1870 C   0  0  0  0  0  0
   82.2210   25.2580    2.5410 C   0  0  0  0  0  0
   82.0740   26.4970    1.6750 C   0  0  0  0  0  0
   80.9250   18.3120   -0.4950 C   0  0  0  0  0  0
   79.8310   19.3380   -0.0960 C   0  0  0  0  0  0
   80.3960   20.3740    0.8910 C   0  0  1  0  0  0
   79.2870   21.4050    1.2370 C   0  0  0  0  0  0
   79.9220   22.5910    1.9040 C   0  0  0  0  0  0
   81.0240   23.2840    1.6310 C   0  0  0  0  0  0
   79.4760   23.3650    2.9890 N   0  3  0  0  0  0
   80.9750   19.8280    2.1520 C   0  0  0  0  0  0
   81.1310   24.3080    2.4560 N   0  0  0  0  0  0
   82.2020   19.9810    2.3710 O   0  5  0  0  0  0
   80.2260   19.2290    2.9540 O   0  0  0  0  0  0
   79.0449   15.5906   -1.3803 H   0  0  0  0  0  0
   78.6489   16.9089   -0.2261 H   0  0  0  0  0  0
   80.0558   15.8360    0.0842 H   0  0  0  0  0  0
   81.1461   16.6881   -1.9129 H   0  0  0  0  0  0
   79.7393   17.7610   -2.2232 H   0  0  0  0  0  0
   79.9880   25.0787    4.0871 H   0  0  0  0  0  0
   82.8409   28.5219    1.5420 H   0  0  0  0  0  0
   84.0201   27.3196    2.1670 H   0  0  0  0  0  0
   82.6820   27.8955    3.2180 H   0  0  0  0  0  0
   83.1317   24.7136    2.2506 H   0  0  0  0  0  0
   82.2929   25.5555    3.5976 H   0  0  0  0  0  0
   81.0219   26.8174    1.6950 H   0  0  0  0  0  0
   82.3599   26.2415    0.6440 H   0  0  0  0  0  0
   81.3071   17.8175    0.4102 H   0  0  0  0  0  0
   81.7484   18.8370   -1.0013 H   0  0  0  0  0  0
   79.4728   19.8604   -0.9953 H   0  0  0  0  0  0
   78.9912   18.8117    0.3812 H   0  0  0  0  0  0
   81.2728   20.8152    0.3945 H   0  0  0  0  0  0
   78.7808   21.7228    0.3135 H   0  0  0  0  0  0
   78.5552   20.9425    1.9157 H   0  0  0  0  0  0
   81.7348   23.0414    0.8411 H   0  0  0  0  0  0
   78.5643   23.1323    3.5588 H   0  0  0  0  0  0
  1  2  1  0  0  0
  1 18  1  0  0  0
  1 19  1  0  0  0
  1 20  1  0  0  0
  2  7  1  0  0  0
  2 21  1  0  0  0
  2 22  1  0  0  0
  3 13  2  0  0  0
  3 15  1  0  0  0
  3 23  1  0  0  0
  4  6  1  0  0  0
  4 24  1  0  0  0
  4 25  1  0  0  0
  4 26  1  0  0  0
  5  6  1  0  0  0
  5 15  1  0  0  0
  5 27  1  0  0  0
  5 28  1  0  0  0
  6 29  1  0  0  0
  6 30  1  0  0  0
  7  8  1  0  0  0
  7 31  1  0  0  0
  7 32  1  0  0  0
  8  9  1  0  0  0
  8 33  1  0  0  0
  8 34  1  0  0  0
  9 10  1  0  0  0
  9 14  1  0  0  0
  9 35  1  0  0  0
 10 11  1  0  0  0
 10 36  1  0  0  0
 10 37  1  0  0  0
 11 12  2  0  0  0
 11 13  1  0  0  0
 12 15  1  0  0  0
 12 38  1  0  0  0
 13 39  1  0  0  0
 14 16  1  0  0  0
 14 17  2  0  0  0
M  CHG  3   1   1  13   1  16  -1
M  END
> <s_m_source_file>
../2jew_ligand.sdf

> <i_m_source_file_index>
1

> <s_epik_input>
W05IMytdW0NIMl1bQ0gyXVtDSDJdW0NASF0oQyg9TylbT0hdKVtDSDJdYzFbY0hdbihbY0hdbjEpW0NIMl1bQ0gyXVtDSDNd

> <s_epik_cmdline>
J2VwaWtfYXBwJywgJy1pbWFlJywgJ2xpZ2FuZF9wcm8ubWFlJywgJy1vbWFlJywgJ2xpZ2FuZF9wcmVwLm1hZScsICctbXMnLCAnMScsICctcGgnLCAnNycsICctcGh0JywgJzAuNScsICctbnQn

> <r_lp_tautomer_probability>
1

> <r_epik_Ionization_Penalty>
  0.0942

> <r_epik_Ionization_Penalty_Charging>
  0.0009

> <r_epik_Ionization_Penalty_Neutral>
  0.0933

> <r_epik_State_Penalty>
  0.0836

> <r_epik_Charging_Adjusted_Penalty>
0.0844696176496991

> <i_epik_Tot_Q>
1

> <i_epik_Tot_abs_Q>
3

$$$$
