2jf4_ligand
                    3D
 Schrodinger Suite 2020-3.
 49 50  0  0  1  0            999 V2000
   29.3480   51.1170   15.0070 O   0  0  0  0  0  0
   30.4530   51.0700   14.1080 C   0  0  0  0  0  0
   30.1730   52.1660   13.1190 C   0  0  0  0  0  0
   29.6470   51.8400   11.9170 C   0  0  0  0  0  0
   30.4060   53.5980   13.5600 C   0  0  1  0  0  0
   31.6810   53.8010   14.1500 O   0  0  0  0  0  0
   30.2820   54.5860   12.4220 C   0  0  2  0  0  0
   30.2030   55.8860   13.0200 O   0  0  0  0  0  0
   29.0530   54.2270   11.5790 C   0  0  1  0  0  0
   28.7160   55.3020   10.6960 O   0  0  0  0  0  0
   29.3270   52.8890   10.8540 C   0  0  1  0  0  0
   30.4380   52.9570    9.8930 N   0  3  0  0  0  0
   31.1980   51.7480    9.5260 C   0  0  2  0  0  0
   32.6950   51.9990    9.3400 C   0  0  2  0  0  0
   33.2030   52.8780   10.3480 O   0  0  0  0  0  0
   30.5730   50.9450    8.3630 C   0  0  0  0  0  0
   31.0630   51.3040    6.9550 C   0  0  2  0  0  0
   30.5460   50.3000    5.9240 C   0  0  0  0  0  0
   29.1050   50.2800    5.9320 O   0  0  0  0  0  0
   32.5910   51.4640    6.9100 C   0  0  1  0  0  0
   33.0270   51.8160    5.5890 O   0  0  0  0  0  0
   33.0170   52.5180    7.9340 C   0  0  2  0  0  0
   34.4160   52.7770    7.7980 O   0  0  0  0  0  0
   29.2927   50.4101   15.8480 H   0  0  0  0  0  0
   31.3858   51.2451   14.6641 H   0  0  0  0  0  0
   30.4928   50.0814   13.6273 H   0  0  0  0  0  0
   29.4347   50.7878   11.6767 H   0  0  0  0  0  0
   29.6693   53.7914   14.3537 H   0  0  0  0  0  0
   31.9945   53.1869   15.0071 H   0  0  0  0  0  0
   31.1598   54.6208   11.7600 H   0  0  0  0  0  0
   31.0278   56.2535   13.6482 H   0  0  0  0  0  0
   28.1355   54.1515   12.1810 H   0  0  0  0  0  0
   28.5007   56.3010   11.1029 H   0  0  0  0  0  0
   28.4590   52.6212   10.2336 H   0  0  0  0  0  0
   30.0650   53.3283    8.9270 H   0  0  0  0  0  0
   31.2114   53.6399   10.2744 H   0  0  0  0  0  0
   31.0942   51.1391   10.4362 H   0  0  0  0  0  0
   33.2410   51.0600    9.5136 H   0  0  0  0  0  0
   33.0514   52.6412   11.4115 H   0  0  0  0  0  0
   30.7909   49.8752    8.4974 H   0  0  0  0  0  0
   29.4839   51.0992    8.3546 H   0  0  0  0  0  0
   30.6392   52.2825    6.6850 H   0  0  0  0  0  0
   30.8976   50.5889    4.9225 H   0  0  0  0  0  0
   30.9224   49.2959    6.1692 H   0  0  0  0  0  0
   28.5604   49.6112    5.2492 H   0  0  0  0  0  0
   33.1015   50.5090    7.1032 H   0  0  0  0  0  0
   32.7969   51.1559    4.7397 H   0  0  0  0  0  0
   32.5354   53.4901    7.7520 H   0  0  0  0  0  0
   34.9057   53.5117    8.4541 H   0  0  0  0  0  0
  1  2  1  0  0  0
  1 24  1  0  0  0
  2  3  1  0  0  0
  2 25  1  0  0  0
  2 26  1  0  0  0
  3  4  2  0  0  0
  3  5  1  0  0  0
  4 11  1  0  0  0
  4 27  1  0  0  0
  5  6  1  0  0  0
  5  7  1  0  0  0
  5 28  1  0  0  0
  6 29  1  0  0  0
  7  8  1  0  0  0
  7  9  1  0  0  0
  7 30  1  0  0  0
  8 31  1  0  0  0
  9 10  1  0  0  0
  9 11  1  0  0  0
  9 32  1  0  0  0
 10 33  1  0  0  0
 11 12  1  0  0  0
 11 34  1  0  0  0
 12 13  1  0  0  0
 12 35  1  0  0  0
 12 36  1  0  0  0
 13 14  1  0  0  0
 13 16  1  0  0  0
 13 37  1  0  0  0
 14 15  1  0  0  0
 14 22  1  0  0  0
 14 38  1  0  0  0
 15 39  1  0  0  0
 16 17  1  0  0  0
 16 40  1  0  0  0
 16 41  1  0  0  0
 17 18  1  0  0  0
 17 20  1  0  0  0
 17 42  1  0  0  0
 18 19  1  0  0  0
 18 43  1  0  0  0
 18 44  1  0  0  0
 19 45  1  0  0  0
 20 21  1  0  0  0
 20 22  1  0  0  0
 20 46  1  0  0  0
 21 47  1  0  0  0
 22 23  1  0  0  0
 22 48  1  0  0  0
 23 49  1  0  0  0
M  CHG  1  12   1
M  END
> <s_m_source_file>
../2jf4_ligand.sdf

> <i_m_source_file_index>
1

> <s_epik_input>
W09IXVtDSDJdQzE9W0NIXVtDQEBIXShbQ0BIXShbT0hdKVtDQEBIXShbT0hdKVtDQEBIXTFbT0hdKVtOSDIrXVtDQEBIXTJbQ0BIXShbT0hdKVtDQEBIXShbT0hdKVtDQEhdKFtPSF0pW0NASF0oW0NIMl0yKVtDSDJdW09IXQ==

> <s_epik_cmdline>
J2VwaWtfYXBwJywgJy1pbWFlJywgJ2xpZ2FuZF9wcm8ubWFlJywgJy1vbWFlJywgJ2xpZ2FuZF9wcmVwLm1hZScsICctbXMnLCAnMScsICctcGgnLCAnNycsICctcGh0JywgJzAuNScsICctbnQn

> <r_epik_Ionization_Penalty>
  0.0395

> <r_epik_Ionization_Penalty_Charging>
  0.0395

> <r_epik_Ionization_Penalty_Neutral>
  0.0000

> <r_epik_State_Penalty>
  0.0332

> <r_epik_Charging_Adjusted_Penalty>
0.072662540226734

> <i_epik_Tot_Q>
1

> <i_epik_Tot_abs_Q>
1

$$$$
