2jfz_ligand
                    3D
 Schrodinger Suite 2020-3.
 58 62  0  0  1  0            999 V2000
   15.2290   56.5040   36.3360 C   0  0  0  0  0  0
   15.8720   55.5530   35.8830 O   0  0  0  0  0  0
   15.3470   56.8320   37.6800 N   0  0  0  0  0  0
   16.2440   56.0660   38.5740 C   0  0  0  0  0  0
   17.6320   56.7140   38.8440 C   0  0  0  0  0  0
   18.5760   56.4430   37.6570 C   0  0  0  0  0  0
   18.2830   56.1350   40.1160 C   0  0  0  0  0  0
   14.6360   57.8910   38.1810 C   0  0  0  0  0  0
   14.6280   58.3440   39.3610 N   0  0  0  0  0  0
   13.7870   59.4040   39.4180 N   0  0  0  0  0  0
   13.5740   60.2010   40.6520 C   0  0  0  0  0  0
   14.1770   61.6150   40.3650 C   0  0  0  0  0  0
   15.5740   61.7870   40.0200 C   0  0  0  0  0  0
   16.4910   60.6780   39.9500 C   0  0  0  0  0  0
   17.8540   60.8790   39.6030 C   0  0  0  0  0  0
   18.3240   62.1920   39.3150 C   0  0  0  0  0  0
   17.4370   63.3040   39.3770 C   0  0  0  0  0  0
   16.0710   63.1120   39.7270 C   0  0  0  0  0  0
   15.1980   64.2320   39.7830 C   0  0  0  0  0  0
   13.8290   64.0560   40.1290 C   0  0  0  0  0  0
   13.3220   62.7610   40.4170 C   0  0  0  0  0  0
   13.2240   59.6150   38.2190 C   0  0  0  0  0  0
   12.2140   60.7220   37.8800 C   0  0  0  0  0  0
   10.9020   60.6830   38.4430 C   0  0  0  0  0  0
    9.9810   61.7180   38.1390 C   0  0  0  0  0  0
   10.3560   62.7480   37.3100 N   0  0  0  0  0  0
   11.6090   62.8120   36.7530 C   0  0  0  0  0  0
   12.5640   61.8050   37.0240 C   0  0  0  0  0  0
   13.7220   58.6990   37.3720 C   0  0  0  0  0  0
   13.6200   58.3110   35.9470 C   0  0  0  0  0  0
   12.8810   58.9410   35.2110 O   0  0  0  0  0  0
   14.3710   57.2390   35.5210 N   0  0  0  0  0  0
   14.2670   56.8690   34.1040 C   0  0  0  0  0  0
   15.7636   55.9407   39.5556 H   0  0  0  0  0  0
   16.4431   55.0775   38.1344 H   0  0  0  0  0  0
   17.4825   57.7956   38.9776 H   0  0  0  0  0  0
   18.1321   56.8480   36.7356 H   0  0  0  0  0  0
   18.7244   55.3586   37.5467 H   0  0  0  0  0  0
   19.5455   56.9289   37.8412 H   0  0  0  0  0  0
   17.6260   56.3166   40.9793 H   0  0  0  0  0  0
   19.2543   56.6228   40.2853 H   0  0  0  0  0  0
   18.4332   55.0525   39.9908 H   0  0  0  0  0  0
   12.4968   60.2653   40.8656 H   0  0  0  0  0  0
   14.0866   59.7152   41.4953 H   0  0  0  0  0  0
   16.1342   59.6710   40.1662 H   0  0  0  0  0  0
   18.5375   60.0312   39.5574 H   0  0  0  0  0  0
   19.3688   62.3466   39.0455 H   0  0  0  0  0  0
   17.8054   64.3057   39.1557 H   0  0  0  0  0  0
   15.5783   65.2289   39.5602 H   0  0  0  0  0  0
   13.1658   64.9199   40.1732 H   0  0  0  0  0  0
   12.2713   62.6390   40.6802 H   0  0  0  0  0  0
   10.6108   59.8643   39.1011 H   0  0  0  0  0  0
    8.9768   61.6965   38.5624 H   0  0  0  0  0  0
   11.8692   63.6436   36.0982 H   0  0  0  0  0  0
   13.5589   61.8572   36.5818 H   0  0  0  0  0  0
   14.9146   56.0029   33.9027 H   0  0  0  0  0  0
   14.5842   57.7171   33.4794 H   0  0  0  0  0  0
   13.2243   56.6098   33.8683 H   0  0  0  0  0  0
  1  2  2  0  0  0
  1  3  1  0  0  0
  1 32  1  0  0  0
  3  4  1  0  0  0
  3  8  1  0  0  0
  4  5  1  0  0  0
  4 34  1  0  0  0
  4 35  1  0  0  0
  5  6  1  0  0  0
  5  7  1  0  0  0
  5 36  1  0  0  0
  6 37  1  0  0  0
  6 38  1  0  0  0
  6 39  1  0  0  0
  7 40  1  0  0  0
  7 41  1  0  0  0
  7 42  1  0  0  0
  8  9  2  0  0  0
  8 29  1  0  0  0
  9 10  1  0  0  0
 10 11  1  0  0  0
 10 22  1  0  0  0
 11 12  1  0  0  0
 11 43  1  0  0  0
 11 44  1  0  0  0
 12 13  2  0  0  0
 12 21  1  0  0  0
 13 14  1  0  0  0
 13 18  1  0  0  0
 14 15  2  0  0  0
 14 45  1  0  0  0
 15 16  1  0  0  0
 15 46  1  0  0  0
 16 17  2  0  0  0
 16 47  1  0  0  0
 17 18  1  0  0  0
 17 48  1  0  0  0
 18 19  2  0  0  0
 19 20  1  0  0  0
 19 49  1  0  0  0
 20 21  2  0  0  0
 20 50  1  0  0  0
 21 51  1  0  0  0
 22 23  1  0  0  0
 22 29  2  0  0  0
 23 24  2  0  0  0
 23 28  1  0  0  0
 24 25  1  0  0  0
 24 52  1  0  0  0
 25 26  2  0  0  0
 25 53  1  0  0  0
 26 27  1  0  0  0
 27 28  2  0  0  0
 27 54  1  0  0  0
 28 55  1  0  0  0
 29 30  1  0  0  0
 30 31  2  0  0  0
 30 32  1  0  0  0
 32 33  1  0  0  0
 33 56  1  0  0  0
 33 57  1  0  0  0
 33 58  1  0  0  0
M  END
> <s_m_source_file>
../2jfz_ligand.sdf

> <i_m_source_file_index>
1

> <s_epik_input>
W0NIM11bQ0hdKFtDSDNdKVtDSDJdbjFjKD1PKW4oW0NIM10pYyg9TyljKGMxMiljKC1jM1tjSF1bY0hdbltjSF1bY0hdMyluKG4yKVtDSDJdYzRbY0hdW2NIXVtjSF1jKGM0NSlbY0hdW2NIXVtjSF1bY0hdNQ==

> <s_epik_cmdline>
J2VwaWtfYXBwJywgJy1pbWFlJywgJ2xpZ2FuZF9wcm8ubWFlJywgJy1vbWFlJywgJ2xpZ2FuZF9wcmVwLm1hZScsICctbXMnLCAnMScsICctcGgnLCAnNycsICctcGh0JywgJzAuNScsICctbnQn

> <r_lp_tautomer_probability>
1

> <r_epik_Ionization_Penalty>
  0.0081

> <r_epik_Ionization_Penalty_Charging>
  0.0000

> <r_epik_Ionization_Penalty_Neutral>
  0.0081

> <r_epik_State_Penalty>
 -0.0000

> <r_epik_Charging_Adjusted_Penalty>
1.77025752479665e-09

> <i_epik_Tot_Q>
0

> <i_epik_Tot_abs_Q>
0

$$$$
