2jg0_ligand
                    3D
 Schrodinger Suite 2020-3.
 47 49  0  0  1  0            999 V2000
   18.2810   51.2980   13.3990 O   0  0  0  0  0  0
   19.2280   51.0070   14.3830 C   0  0  0  0  0  0
   19.8100   49.6160   14.2360 C   0  0  1  0  0  0
   20.7330   49.5590   15.2990 O   0  0  0  0  0  0
   18.8280   48.4500   14.4000 C   0  0  1  0  0  0
   17.4540   48.8410   14.3800 O   0  0  0  0  0  0
   19.1000   47.4780   13.2400 C   0  0  2  0  0  0
   18.9300   46.0980   13.5740 O   0  0  0  0  0  0
   20.4990   47.8260   12.7000 C   0  0  1  0  0  0
   20.6080   47.6470   10.9290 S   0  0  0  0  0  0
   20.5830   49.3300   12.9420 C   0  0  1  0  0  0
   19.9540   49.9060   11.7260 N   0  0  0  0  0  0
   19.8170   49.1480   10.7310 C   0  0  0  0  0  0
   19.0360   49.5190    9.6890 N   0  0  0  0  0  0
   18.2200   50.7120    9.6220 C   0  0  2  0  0  0
   16.7190   50.3610    9.5390 C   0  0  2  0  0  0
   16.3560   49.4790   10.6000 O   0  0  0  0  0  0
   18.5970   51.5120    8.4720 O   0  0  0  0  0  0
   18.2480   51.0000    7.1790 C   0  0  2  0  0  0
   18.6170   52.0520    6.1390 C   0  0  0  0  0  0
   20.0460   52.1800    6.0660 O   0  0  0  0  0  0
   16.7520   50.7220    7.1120 C   0  0  1  0  0  0
   16.3740   50.2980    5.8060 O   0  0  0  0  0  0
   16.3440   49.7330    8.2020 C   0  0  2  0  0  0
   14.9610   49.5050    8.1330 O   0  0  0  0  0  0
   17.7800   52.2773   13.3903 H   0  0  0  0  0  0
   20.0559   51.7285   14.3199 H   0  0  0  0  0  0
   18.7581   51.0740   15.3753 H   0  0  0  0  0  0
   20.3950   49.7349   16.3309 H   0  0  0  0  0  0
   18.9178   48.0125   15.4052 H   0  0  0  0  0  0
   17.0694   49.5381   15.1390 H   0  0  0  0  0  0
   18.3217   47.5268   12.4642 H   0  0  0  0  0  0
   17.9670   45.7423   13.9690 H   0  0  0  0  0  0
   21.2198   47.2421   13.2911 H   0  0  0  0  0  0
   21.5876   49.7640   13.0529 H   0  0  0  0  0  0
   19.0569   48.8186    8.8410 H   0  0  0  0  0  0
   18.4591   51.2895   10.5271 H   0  0  0  0  0  0
   16.1199   51.2710    9.6905 H   0  0  0  0  0  0
   16.5510   49.7651   11.6441 H   0  0  0  0  0  0
   18.8131   50.0660    7.0439 H   0  0  0  0  0  0
   18.2273   51.7484    5.1562 H   0  0  0  0  0  0
   18.1783   53.0195    6.4244 H   0  0  0  0  0  0
   20.4989   52.8968    5.3652 H   0  0  0  0  0  0
   16.1722   51.6488    7.2337 H   0  0  0  0  0  0
   16.6118   50.9248    4.9339 H   0  0  0  0  0  0
   16.7772   48.7301    8.0735 H   0  0  0  0  0  0
   14.4810   48.8161    8.8436 H   0  0  0  0  0  0
  1  2  1  0  0  0
  1 26  1  0  0  0
  2  3  1  0  0  0
  2 27  1  0  0  0
  2 28  1  0  0  0
  3  4  1  0  0  0
  3  5  1  0  0  0
  3 11  1  0  0  0
  4 29  1  0  0  0
  5  6  1  0  0  0
  5  7  1  0  0  0
  5 30  1  0  0  0
  6 31  1  0  0  0
  7  8  1  0  0  0
  7  9  1  0  0  0
  7 32  1  0  0  0
  8 33  1  0  0  0
  9 10  1  0  0  0
  9 11  1  0  0  0
  9 34  1  0  0  0
 10 13  1  0  0  0
 11 12  1  0  0  0
 11 35  1  0  0  0
 12 13  2  0  0  0
 13 14  1  0  0  0
 14 15  1  0  0  0
 14 36  1  0  0  0
 15 16  1  0  0  0
 15 18  1  0  0  0
 15 37  1  0  0  0
 16 17  1  0  0  0
 16 24  1  0  0  0
 16 38  1  0  0  0
 17 39  1  0  0  0
 18 19  1  0  0  0
 19 20  1  0  0  0
 19 22  1  0  0  0
 19 40  1  0  0  0
 20 21  1  0  0  0
 20 41  1  0  0  0
 20 42  1  0  0  0
 21 43  1  0  0  0
 22 23  1  0  0  0
 22 24  1  0  0  0
 22 44  1  0  0  0
 23 45  1  0  0  0
 24 25  1  0  0  0
 24 46  1  0  0  0
 25 47  1  0  0  0
M  END
> <s_m_source_file>
../2jg0_ligand.sdf

> <i_m_source_file_index>
1

> <s_epik_input>
W09IXVtDQEhdMVtDQEhdKFtPSF0pW0NAXShbT0hdKShbQ0gyXVtPSF0pW0NAQEhdKFtDQEBIXTEyKU49QyhTMilbTkhdW0NAQEhdM1tDQEhdKFtPSF0pW0NAQEhdKFtPSF0pW0NASF0oW09IXSlbQ0BIXShPMylbQ0gyXVtPSF0=

> <s_epik_cmdline>
J2VwaWtfYXBwJywgJy1pbWFlJywgJ2xpZ2FuZF9wcm8ubWFlJywgJy1vbWFlJywgJ2xpZ2FuZF9wcmVwLm1hZScsICctbXMnLCAnMScsICctcGgnLCAnNycsICctcGh0JywgJzAuNScsICctbnQn

> <r_epik_Ionization_Penalty>
  0.0164

> <r_epik_Ionization_Penalty_Charging>
  0.0164

> <r_epik_Ionization_Penalty_Neutral>
  0.0000

> <r_epik_State_Penalty>
  0.0371

> <r_epik_Charging_Adjusted_Penalty>
0.0534473618239636

> <i_epik_Tot_Q>
0

> <i_epik_Tot_abs_Q>
0

> <s_epik_Chemistry_Notes>
This compound has an imine and may undergo hydrolysis. This compound contains an acetal/aminal-like group ( X-CH(R)-Y where X, Y are N, S, or O) that may be acid/base labile, releasing an aldehyde.

$$$$
