2jg8_ligand
                    3D
 Schrodinger Suite 2020-3.
 17 16  0  0  1  0            999 V2000
  -19.7820    9.3090    2.3370 N   0  3  0  0  0  0
  -18.5420    9.6500    1.5840 C   0  0  1  0  0  0
  -17.3160    9.0080    2.2360 C   0  0  0  0  0  0
  -17.4390    7.5980    2.2780 O   0  0  0  0  0  0
  -18.6430    9.2240    0.1240 C   0  0  0  0  0  0
  -18.3210   10.0000   -0.7740 O   0  5  0  0  0  0
  -15.9950    6.8900    2.3650 P   0  0  0  0  0  0
  -15.0960    7.5450    3.5240 O   0  5  0  0  0  0
  -15.2520    7.0710    0.9510 O   0  0  0  0  0  0
  -16.1900    5.3160    2.6190 O   0  0  0  0  0  0
  -19.6751    9.6294    3.3838 H   0  0  0  0  0  0
  -19.9454    8.2218    2.3012 H   0  0  0  0  0  0
  -16.4163    9.2651    1.6576 H   0  0  0  0  0  0
  -17.2097    9.3821    3.2649 H   0  0  0  0  0  0
  -19.0056    8.2174   -0.1314 H   0  0  0  0  0  0
  -15.0176    8.0789    0.5779 H   0  0  0  0  0  0
  -20.6407    9.8241    1.8818 H   0  0  0  0  0  0
  1  2  1  0  0  0
  1 11  1  0  0  0
  1 12  1  0  0  0
  1 17  1  0  0  0
  2  3  1  0  0  0
  2  5  2  0  0  0
  3  4  1  0  0  0
  3 13  1  0  0  0
  3 14  1  0  0  0
  4  7  1  0  0  0
  5  6  1  0  0  0
  5 15  1  0  0  0
  7  8  1  0  0  0
  7  9  1  0  0  0
  7 10  2  0  0  0
  9 16  1  0  0  0
M  CHG  3   1   1   6  -1   8  -1
M  END
> <s_m_source_file>
../2jg8_ligand.sdf

> <i_m_source_file_index>
1

> <s_epik_input>
Tz1bQ0hdW0NAQEhdKFtOSDMrXSlbQ0gyXU9QKD1PKShbT0hdKVtPSF0=

> <s_epik_cmdline>
J2VwaWtfYXBwJywgJy1pbWFlJywgJ2xpZ2FuZF9wcm8ubWFlJywgJy1vbWFlJywgJ2xpZ2FuZF9wcmVwLm1hZScsICctbXMnLCAnMScsICctcGgnLCAnNycsICctcGh0JywgJzAuNScsICctbnQn

> <r_lp_tautomer_probability>
1

> <r_epik_Ionization_Penalty>
  2.0897

> <r_epik_Ionization_Penalty_Charging>
  0.6005

> <r_epik_Ionization_Penalty_Neutral>
  1.4893

> <r_epik_State_Penalty>
 -0.0000

> <r_epik_Charging_Adjusted_Penalty>
0.600461378387844

> <i_epik_Tot_Q>
-1

> <i_epik_Tot_abs_Q>
3

$$$$
