2jh5_ligand
                    3D
 Schrodinger Suite 2020-3.
 50 52  0  0  1  0            999 V2000
    9.8460   25.2660   46.2660 Cl  0  0  0  0  0  0
   10.0930   23.7440   47.0190 C   0  0  0  0  0  0
   11.0130   22.7720   46.6030 C   0  0  0  0  0  0
   10.9590   21.6550   47.4570 C   0  0  0  0  0  0
   10.0190   21.7880   48.4920 C   0  0  0  0  0  0
    9.7120   20.7810   49.5520 C   0  0  0  0  0  0
    9.4770   18.1510   50.2600 S   0  0  0  0  0  0
   10.1710   18.2570   51.5080 O   0  0  0  0  0  0
    9.6200   16.9960   49.4270 O   0  0  0  0  0  0
    7.9130   18.4340   50.6100 N   0  0  3  0  0  0
    6.9070   17.9340   49.7000 C   0  0  1  0  0  0
    5.9600   16.9300   50.3840 C   0  0  0  0  0  0
    4.5590   17.2850   49.8640 C   0  0  0  0  0  0
    6.0270   18.9850   49.0710 C   0  0  0  0  0  0
    6.4080   20.0860   48.6950 O   0  0  0  0  0  0
    4.7790   18.4540   49.0060 N   0  0  0  0  0  0
    3.7220   18.9920   48.1480 C   0  0  1  0  0  0
    3.6730   18.1820   46.8430 C   0  0  0  0  0  0
    2.3500   19.0290   48.8330 C   0  0  0  0  0  0
    1.4240   18.3890   48.3260 O   0  0  0  0  0  0
    2.2400   19.7860   49.9960 N   0  0  0  0  0  0
    0.9810   19.7960   50.7500 C   0  0  0  0  0  0
    1.1690   19.7670   52.2710 C   0  0  0  0  0  0
    2.1840   20.6690   52.7120 O   0  0  0  0  0  0
    3.4420   20.4180   52.0890 C   0  0  0  0  0  0
    3.2850   20.6600   50.5780 C   0  0  0  0  0  0
    9.2340   23.2760   48.4210 S   0  0  0  0  0  0
    9.9270   19.4860   49.2390 C   0  0  0  0  0  0
   11.6748   22.8675   45.7422 H   0  0  0  0  0  0
   11.5856   20.7725   47.3279 H   0  0  0  0  0  0
    9.3289   21.0500   50.5474 H   0  0  0  0  0  0
    7.6296   19.1254   51.4173 H   0  0  0  0  0  0
    7.5614   17.4980   48.9308 H   0  0  0  0  0  0
    6.2484   15.9057   50.1054 H   0  0  0  0  0  0
    6.0288   17.0462   51.4757 H   0  0  0  0  0  0
    4.1493   16.4323   49.3027 H   0  0  0  0  0  0
    3.8998   17.5151   50.7140 H   0  0  0  0  0  0
    4.0119   20.0361   47.9585 H   0  0  0  0  0  0
    4.6699   18.1751   46.3781 H   0  0  0  0  0  0
    2.9498   18.6415   46.1532 H   0  0  0  0  0  0
    3.3642   17.1496   47.0637 H   0  0  0  0  0  0
    0.4164   20.7087   50.5087 H   0  0  0  0  0  0
    0.3839   18.9129   50.4785 H   0  0  0  0  0  0
    0.2265   20.0502   52.7624 H   0  0  0  0  0  0
    1.4562   18.7529   52.5857 H   0  0  0  0  0  0
    4.1994   21.0988   52.5048 H   0  0  0  0  0  0
    3.7427   19.3766   52.2764 H   0  0  0  0  0  0
    4.2489   20.4541   50.0897 H   0  0  0  0  0  0
    3.0116   21.7137   50.4200 H   0  0  0  0  0  0
   10.4141   19.2235   48.2883 H   0  0  0  0  0  0
  1  2  1  0  0  0
  2  3  2  0  0  0
  2 27  1  0  0  0
  3  4  1  0  0  0
  3 29  1  0  0  0
  4  5  2  0  0  0
  4 30  1  0  0  0
  5  6  1  0  0  0
  5 27  1  0  0  0
  6 28  2  0  0  0
  6 31  1  0  0  0
  7  8  2  0  0  0
  7  9  2  0  0  0
  7 10  1  0  0  0
  7 28  1  0  0  0
 10 11  1  0  0  0
 10 32  1  0  0  0
 11 12  1  0  0  0
 11 14  1  0  0  0
 11 33  1  0  0  0
 12 13  1  0  0  0
 12 34  1  0  0  0
 12 35  1  0  0  0
 13 16  1  0  0  0
 13 36  1  0  0  0
 13 37  1  0  0  0
 14 15  2  0  0  0
 14 16  1  0  0  0
 16 17  1  0  0  0
 17 18  1  0  0  0
 17 19  1  0  0  0
 17 38  1  0  0  0
 18 39  1  0  0  0
 18 40  1  0  0  0
 18 41  1  0  0  0
 19 20  2  0  0  0
 19 21  1  0  0  0
 21 22  1  0  0  0
 21 26  1  0  0  0
 22 23  1  0  0  0
 22 42  1  0  0  0
 22 43  1  0  0  0
 23 24  1  0  0  0
 23 44  1  0  0  0
 23 45  1  0  0  0
 24 25  1  0  0  0
 25 26  1  0  0  0
 25 46  1  0  0  0
 25 47  1  0  0  0
 26 48  1  0  0  0
 26 49  1  0  0  0
 28 50  1  0  0  0
M  END
> <s_m_source_file>
../2jh5_ligand.sdf

> <i_m_source_file_index>
1

> <s_epik_input>
Q2xjMVtjSF1bY0hdYyhzMSkvW0NIXT1bQ0hdL1MoPU8pKD1PKVtOSF1bQ0BIXTJbQ0gyXVtDSDJdTihDMj1PKVtDQEBIXShbQ0gzXSlDKD1PKU4zW0NIMl1bQ0gyXU9bQ0gyXVtDSDJdMw==

> <s_epik_cmdline>
J2VwaWtfYXBwJywgJy1pbWFlJywgJ2xpZ2FuZF9wcm8ubWFlJywgJy1vbWFlJywgJ2xpZ2FuZF9wcmVwLm1hZScsICctbXMnLCAnMScsICctcGgnLCAnNycsICctcGh0JywgJzAuNScsICctbnQn

> <r_lp_tautomer_probability>
1

> <r_epik_Ionization_Penalty>
  0.0001

> <r_epik_Ionization_Penalty_Charging>
  0.0000

> <r_epik_Ionization_Penalty_Neutral>
  0.0001

> <r_epik_State_Penalty>
 -0.0000

> <r_epik_Charging_Adjusted_Penalty>
0

> <i_epik_Tot_Q>
0

> <i_epik_Tot_abs_Q>
0

$$$$
