2jh6_ligand
                    3D
 Schrodinger Suite 2020-3.
 52 54  0  0  1  0            999 V2000
   10.1820   25.4840   46.0270 Cl  0  0  0  0  0  0
   10.3440   23.9520   46.8200 C   0  0  0  0  0  0
   11.3340   22.9690   46.4370 C   0  0  0  0  0  0
   11.2600   21.8240   47.3090 C   0  0  0  0  0  0
   10.2240   21.9710   48.3000 C   0  0  0  0  0  0
    9.8880   20.9240   49.3310 C   0  0  0  0  0  0
    9.6460   18.2320   49.8450 S   0  0  0  0  0  0
    9.7820   17.0120   49.1100 O   0  0  0  0  0  0
   10.4020   18.4090   51.0490 O   0  0  0  0  0  0
    8.1290   18.3930   50.3470 N   0  0  3  0  0  0
    7.0220   17.9620   49.4970 C   0  0  1  0  0  0
    6.0160   17.0240   50.2100 C   0  0  0  0  0  0
    4.6750   17.3830   49.5330 C   0  0  0  0  0  0
    6.1860   19.1020   48.9300 C   0  0  0  0  0  0
    6.6360   20.2010   48.6120 O   0  0  0  0  0  0
    4.9020   18.6790   48.8700 N   0  0  0  0  0  0
    3.8220   19.4540   48.2360 C   0  0  1  0  0  0
    3.4530   18.9040   46.8410 C   0  0  0  0  0  0
    2.5720   19.5120   49.1110 C   0  0  0  0  0  0
    1.5710   18.9070   48.7750 O   0  0  0  0  0  0
    2.6100   20.2310   50.2580 N   0  0  0  0  0  0
    1.4200   20.2970   51.1100 C   0  0  0  0  0  0
    1.7920   19.9460   52.5430 C   0  0  0  0  0  0
    2.9090   20.7370   52.9860 O   0  0  0  0  0  0
    4.0810   20.5440   52.1800 C   0  0  0  0  0  0
    3.7670   21.0000   50.7480 C   0  0  0  0  0  0
    9.4150   23.4750   48.1860 S   0  0  0  0  0  0
   10.0430   19.5390   48.6910 C   0  0  0  0  0  0
   12.0343   23.0785   45.6090 H   0  0  0  0  0  0
   11.9092   20.9521   47.2287 H   0  0  0  0  0  0
   10.5722   21.0195   50.1870 H   0  0  0  0  0  0
    8.8518   21.0648   49.6724 H   0  0  0  0  0  0
    7.9283   18.9766   51.2576 H   0  0  0  0  0  0
    7.6035   17.4612   48.7090 H   0  0  0  0  0  0
    6.3091   15.9770   50.0428 H   0  0  0  0  0  0
    6.0173   17.2373   51.2891 H   0  0  0  0  0  0
    4.4105   16.6011   48.8059 H   0  0  0  0  0  0
    3.8866   17.4555   50.2966 H   0  0  0  0  0  0
    4.2511   20.4628   48.1452 H   0  0  0  0  0  0
    4.3549   18.8632   46.2126 H   0  0  0  0  0  0
    2.7087   19.5642   46.3717 H   0  0  0  0  0  0
    3.0325   17.8929   46.9450 H   0  0  0  0  0  0
    1.0044   21.3150   51.0811 H   0  0  0  0  0  0
    0.6672   19.5831   50.7444 H   0  0  0  0  0  0
    0.9339   20.1413   53.2029 H   0  0  0  0  0  0
    2.0644   18.8818   52.6010 H   0  0  0  0  0  0
    4.9103   21.1389   52.5904 H   0  0  0  0  0  0
    4.3570   19.4792   52.1832 H   0  0  0  0  0  0
    4.6332   20.8148   50.0957 H   0  0  0  0  0  0
    3.5244   22.0729   50.7395 H   0  0  0  0  0  0
    9.3669   19.4565   47.8272 H   0  0  0  0  0  0
   11.0824   19.4035   48.3573 H   0  0  0  0  0  0
  1  2  1  0  0  0
  2  3  2  0  0  0
  2 27  1  0  0  0
  3  4  1  0  0  0
  3 29  1  0  0  0
  4  5  2  0  0  0
  4 30  1  0  0  0
  5  6  1  0  0  0
  5 27  1  0  0  0
  6 28  1  0  0  0
  6 31  1  0  0  0
  6 32  1  0  0  0
  7  8  2  0  0  0
  7  9  2  0  0  0
  7 10  1  0  0  0
  7 28  1  0  0  0
 10 11  1  0  0  0
 10 33  1  0  0  0
 11 12  1  0  0  0
 11 14  1  0  0  0
 11 34  1  0  0  0
 12 13  1  0  0  0
 12 35  1  0  0  0
 12 36  1  0  0  0
 13 16  1  0  0  0
 13 37  1  0  0  0
 13 38  1  0  0  0
 14 15  2  0  0  0
 14 16  1  0  0  0
 16 17  1  0  0  0
 17 18  1  0  0  0
 17 19  1  0  0  0
 17 39  1  0  0  0
 18 40  1  0  0  0
 18 41  1  0  0  0
 18 42  1  0  0  0
 19 20  2  0  0  0
 19 21  1  0  0  0
 21 22  1  0  0  0
 21 26  1  0  0  0
 22 23  1  0  0  0
 22 43  1  0  0  0
 22 44  1  0  0  0
 23 24  1  0  0  0
 23 45  1  0  0  0
 23 46  1  0  0  0
 24 25  1  0  0  0
 25 26  1  0  0  0
 25 47  1  0  0  0
 25 48  1  0  0  0
 26 49  1  0  0  0
 26 50  1  0  0  0
 28 51  1  0  0  0
 28 52  1  0  0  0
M  END
> <s_m_source_file>
../2jh6_ligand.sdf

> <i_m_source_file_index>
1

> <s_epik_input>
Q2xjMVtjSF1bY0hdYyhzMSlbQ0gyXVtDSDJdUyg9TykoPU8pW05IXVtDQEhdMltDSDJdW0NIMl1OKEMyPU8pW0NAQEhdKFtDSDNdKUMoPU8pTjNbQ0gyXVtDSDJdT1tDSDJdW0NIMl0z

> <s_epik_cmdline>
J2VwaWtfYXBwJywgJy1pbWFlJywgJ2xpZ2FuZF9wcm8ubWFlJywgJy1vbWFlJywgJ2xpZ2FuZF9wcmVwLm1hZScsICctbXMnLCAnMScsICctcGgnLCAnNycsICctcGh0JywgJzAuNScsICctbnQn

> <r_lp_tautomer_probability>
1

> <r_epik_Ionization_Penalty>
  0.0000

> <r_epik_Ionization_Penalty_Charging>
  0.0000

> <r_epik_Ionization_Penalty_Neutral>
  0.0000

> <r_epik_State_Penalty>
 -0.0000

> <r_epik_Charging_Adjusted_Penalty>
0

> <i_epik_Tot_Q>
0

> <i_epik_Tot_abs_Q>
0

$$$$
