2jiu_ligand
                    3D
 Schrodinger Suite 2020-3.
 65 69  0  0  1  0            999 V2000
  -10.6900   10.5920   36.2440 C   0  0  0  0  0  0
  -11.8340    9.6390   35.8930 C   0  0  0  0  0  0
  -13.0640   10.0790   36.5690 N   0  0  1  0  0  0
  -12.8520   10.0760   38.0230 C   0  0  0  0  0  0
  -13.5550    8.8650   38.6400 C   0  0  0  0  0  0
  -13.4060   11.4380   36.1260 C   0  0  0  0  0  0
  -12.2630   12.3920   36.4780 C   0  0  0  0  0  0
  -11.0320   11.9530   35.8060 N   0  3  2  0  0  0
  -11.2360   11.9630   34.3500 C   0  0  0  0  0  0
  -10.5150   13.1680   33.7420 C   0  0  0  0  0  0
   -9.1290   13.1700   33.6420 C   0  0  0  0  0  0
   -8.4730   14.2650   33.0900 C   0  0  0  0  0  0
  -11.2460   14.2610   33.2910 C   0  0  0  0  0  0
  -10.5910   15.3560   32.7400 C   0  0  0  0  0  0
   -9.2040   15.3580   32.6390 C   0  0  0  0  0  0
   -8.5490   16.4520   32.0870 C   0  0  0  0  0  0
   -7.2350   16.6770   32.1440 N   0  0  0  0  0  0
   -9.1330   17.4460   31.4160 C   0  0  0  0  0  0
   -8.1880   18.3040   31.0460 C   0  0  0  0  0  0
   -6.9810   17.8160   31.5090 C   0  0  0  0  0  0
   -5.8570   18.5030   31.2660 N   0  0  0  0  0  0
   -5.8990   19.6400   30.5890 C   0  0  0  0  0  0
   -7.0390   20.1360   30.1320 N   0  0  0  0  0  0
   -8.1980   19.4970   30.3410 C   0  0  0  0  0  0
   -9.3400   19.9990   29.8800 N   0  0  0  0  0  0
   -9.4520   21.4390   29.6060 C   0  0  2  0  0  0
  -10.9280   21.8220   29.4840 C   0  0  0  0  0  0
   -8.7290   21.7690   28.2990 C   0  0  0  0  0  0
   -8.1820   23.0320   28.1070 C   0  0  0  0  0  0
   -7.5250   23.3320   26.9190 C   0  0  0  0  0  0
   -7.4140   22.3680   25.9240 C   0  0  0  0  0  0
   -7.9610   21.1050   26.1160 C   0  0  0  0  0  0
   -8.6180   20.8050   27.3040 C   0  0  0  0  0  0
  -10.5295   10.5871   37.3322 H   0  0  0  0  0  0
   -9.7708   10.2642   35.7364 H   0  0  0  0  0  0
  -11.9928    9.6420   34.8045 H   0  0  0  0  0  0
  -11.5781    8.6215   36.2234 H   0  0  0  0  0  0
  -11.7742   10.0216   38.2363 H   0  0  0  0  0  0
  -13.2653   10.9990   38.4557 H   0  0  0  0  0  0
  -13.3957    8.8638   39.7284 H   0  0  0  0  0  0
  -13.1418    7.9417   38.2079 H   0  0  0  0  0  0
  -14.6329    8.9191   38.4273 H   0  0  0  0  0  0
  -13.5632   11.4401   35.0373 H   0  0  0  0  0  0
  -14.3267   11.7672   36.6300 H   0  0  0  0  0  0
  -12.5188   13.4090   36.1458 H   0  0  0  0  0  0
  -12.1063   12.3905   37.5668 H   0  0  0  0  0  0
  -10.2113   12.6378   36.0658 H   0  0  0  0  0  0
  -10.8311   11.0366   33.9167 H   0  0  0  0  0  0
  -12.3118   12.0306   34.1309 H   0  0  0  0  0  0
   -8.5559   12.3132   33.9963 H   0  0  0  0  0  0
   -7.3859   14.2662   33.0110 H   0  0  0  0  0  0
  -12.3332   14.2593   33.3695 H   0  0  0  0  0  0
  -11.1644   16.2132   32.3870 H   0  0  0  0  0  0
  -10.1835   17.6371   31.1516 H   0  0  0  0  0  0
   -4.9717   20.1818   30.4029 H   0  0  0  0  0  0
  -10.2006   19.3370   29.7037 H   0  0  0  0  0  0
   -8.9844   21.9694   30.4486 H   0  0  0  0  0  0
  -11.4473   21.5845   30.4241 H   0  0  0  0  0  0
  -11.3864   21.2570   28.6590 H   0  0  0  0  0  0
  -11.0115   22.8999   29.2812 H   0  0  0  0  0  0
   -8.2681   23.7876   28.8879 H   0  0  0  0  0  0
   -7.0971   24.3230   26.7680 H   0  0  0  0  0  0
   -6.8979   22.6026   24.9930 H   0  0  0  0  0  0
   -7.8749   20.3494   25.3351 H   0  0  0  0  0  0
   -9.0459   19.8140   27.4550 H   0  0  0  0  0  0
  1  2  1  0  0  0
  1  8  1  0  0  0
  1 34  1  0  0  0
  1 35  1  0  0  0
  2  3  1  0  0  0
  2 36  1  0  0  0
  2 37  1  0  0  0
  3  4  1  0  0  0
  3  6  1  0  0  0
  4  5  1  0  0  0
  4 38  1  0  0  0
  4 39  1  0  0  0
  5 40  1  0  0  0
  5 41  1  0  0  0
  5 42  1  0  0  0
  6  7  1  0  0  0
  6 43  1  0  0  0
  6 44  1  0  0  0
  7  8  1  0  0  0
  7 45  1  0  0  0
  7 46  1  0  0  0
  8  9  1  0  0  0
  8 47  1  0  0  0
  9 10  1  0  0  0
  9 48  1  0  0  0
  9 49  1  0  0  0
 10 11  2  0  0  0
 10 13  1  0  0  0
 11 12  1  0  0  0
 11 50  1  0  0  0
 12 15  2  0  0  0
 12 51  1  0  0  0
 13 14  2  0  0  0
 13 52  1  0  0  0
 14 15  1  0  0  0
 14 53  1  0  0  0
 15 16  1  0  0  0
 16 17  2  0  0  0
 16 18  1  0  0  0
 17 20  1  0  0  0
 18 19  2  0  0  0
 18 54  1  0  0  0
 19 20  1  0  0  0
 19 24  1  0  0  0
 20 21  2  0  0  0
 21 22  1  0  0  0
 22 23  1  0  0  0
 22 55  1  0  0  0
 23 24  2  0  0  0
 24 25  1  0  0  0
 25 26  1  0  0  0
 25 56  1  0  0  0
 26 27  1  0  0  0
 26 28  1  0  0  0
 26 57  1  0  0  0
 27 58  1  0  0  0
 27 59  1  0  0  0
 27 60  1  0  0  0
 28 29  2  0  0  0
 28 33  1  0  0  0
 29 30  1  0  0  0
 29 61  1  0  0  0
 30 31  2  0  0  0
 30 62  1  0  0  0
 31 32  1  0  0  0
 31 63  1  0  0  0
 32 33  2  0  0  0
 32 64  1  0  0  0
 33 65  1  0  0  0
M  CHG  1   8   1
M  END
> <s_m_source_file>
../2jiu_ligand.sdf

> <i_m_source_file_index>
1

> <s_epik_input>
W0NIM11bQ0gyXVtOQEBIK10xW0NIMl1bQ0gyXVtOQEgrXShbQ0gyXVtDSDJdMSlbQ0gyXWMyW2NIXVtjSF1jKFtjSF1bY0hdMilDKFtDSF09Myk9TkMoQzM0KT1OW0NIMl1OPUM0W05IXVtDQEhdKFtDSDNdKWM1W2NIXVtjSF1bY0hdW2NIXVtjSF01

> <s_epik_cmdline>
J2VwaWtfYXBwJywgJy1pbWFlJywgJ2xpZ2FuZF9wcm8ubWFlJywgJy1vbWFlJywgJ2xpZ2FuZF9wcmVwLm1hZScsICctbXMnLCAnMScsICctcGgnLCAnNycsICctcGh0JywgJzAuNScsICctbnQn

> <r_lp_tautomer_probability>
1

> <r_epik_Ionization_Penalty>
  0.0148

> <r_epik_Ionization_Penalty_Charging>
  0.0136

> <r_epik_Ionization_Penalty_Neutral>
  0.0011

> <r_epik_State_Penalty>
 -0.0000

> <r_epik_Charging_Adjusted_Penalty>
0.0136354947705809

> <i_epik_Tot_Q>
1

> <i_epik_Tot_abs_Q>
1

> <s_epik_Chemistry_Notes>
This compound has an imine and may undergo hydrolysis.

$$$$
