2jjb_ligand
                    3D
 Schrodinger Suite 2020-3.
 51 53  0  0  1  0            999 V2000
   -6.2250  -33.8360   45.0860 O   0  0  0  0  0  0
   -5.7560  -34.4580   43.8760 C   0  0  1  0  0  0
   -6.8140  -34.2240   42.7990 C   0  0  2  0  0  0
   -6.9550  -35.3600   41.7760 C   0  0  1  0  0  0
   -8.0630  -36.2200   42.0480 O   0  0  0  0  0  0
   -7.1090  -34.6490   40.4240 C   0  0  2  0  0  0
   -6.8160  -35.5040   39.2950 O   0  0  0  0  0  0
   -6.0060  -33.5830   40.4870 C   0  0  1  0  0  0
   -6.1400  -32.4130   39.4900 C   0  0  0  0  0  0
   -7.3970  -31.8030   39.5920 O   0  0  0  0  0  0
   -6.0530  -33.3090   41.9380 N   0  3  2  0  0  0
   -5.0810  -32.5080   42.6640 C   0  0  0  0  0  0
   -4.4790  -33.7090   43.4300 C   0  0  2  0  0  0
   -2.7670  -34.4590   41.7860 C   0  0  1  0  0  0
   -2.1980  -35.6990   41.0850 C   0  0  1  0  0  0
   -1.3770  -36.5670   42.0620 C   0  0  2  0  0  0
   -0.2710  -35.6850   42.6720 C   0  0  1  0  0  0
   -0.8820  -34.4710   43.3710 C   0  0  1  0  0  0
    0.1820  -33.4920   43.9130 C   0  0  0  0  0  0
   -3.8180  -34.7830   42.6870 O   0  0  0  0  0  0
   -3.2600  -36.3910   40.4530 O   0  0  0  0  0  0
   -0.7910  -37.6460   41.3750 O   0  0  0  0  0  0
    0.5340  -36.4300   43.5730 O   0  0  0  0  0  0
   -1.7390  -33.7660   42.4800 O   0  0  0  0  0  0
   -0.4270  -32.3290   44.4920 O   0  0  0  0  0  0
   -7.1312  -34.2130   45.5827 H   0  0  0  0  0  0
   -5.5898  -35.5253   44.0841 H   0  0  0  0  0  0
   -7.7770  -33.9629   43.2621 H   0  0  0  0  0  0
   -6.1300  -36.0864   41.8179 H   0  0  0  0  0  0
   -8.0938  -36.7983   42.9832 H   0  0  0  0  0  0
   -8.1401  -34.3164   40.2337 H   0  0  0  0  0  0
   -7.4814  -36.3467   39.0560 H   0  0  0  0  0  0
   -4.9931  -33.8812   40.1786 H   0  0  0  0  0  0
   -5.3662  -31.6604   39.7017 H   0  0  0  0  0  0
   -6.0145  -32.7893   38.4640 H   0  0  0  0  0  0
   -7.6483  -30.9495   38.9451 H   0  0  0  0  0  0
   -6.6377  -32.4297   41.6298 H   0  0  0  0  0  0
   -4.4153  -32.0024   41.9490 H   0  0  0  0  0  0
   -5.6059  -31.7559   43.2712 H   0  0  0  0  0  0
   -3.7055  -33.3140   44.1051 H   0  0  0  0  0  0
   -3.2079  -33.7557   41.0642 H   0  0  0  0  0  0
   -1.5434  -35.4404   40.2397 H   0  0  0  0  0  0
   -2.0061  -37.0516   42.8232 H   0  0  0  0  0  0
    0.4415  -35.3623   41.8986 H   0  0  0  0  0  0
   -1.5201  -34.8376   44.1885 H   0  0  0  0  0  0
    0.7825  -33.9942   44.6858 H   0  0  0  0  0  0
    0.8378  -33.1709   43.0903 H   0  0  0  0  0  0
   -3.9092  -35.8662   39.7367 H   0  0  0  0  0  0
   -1.4277  -38.3879   40.8708 H   0  0  0  0  0  0
    1.0490  -37.3387   43.2280 H   0  0  0  0  0  0
    0.2016  -31.5359   44.9230 H   0  0  0  0  0  0
  1  2  1  0  0  0
  1 26  1  0  0  0
  2  3  1  0  0  0
  2 13  1  0  0  0
  2 27  1  0  0  0
  3  4  1  0  0  0
  3 11  1  0  0  0
  3 28  1  0  0  0
  4  5  1  0  0  0
  4  6  1  0  0  0
  4 29  1  0  0  0
  5 30  1  0  0  0
  6  7  1  0  0  0
  6  8  1  0  0  0
  6 31  1  0  0  0
  7 32  1  0  0  0
  8  9  1  0  0  0
  8 11  1  0  0  0
  8 33  1  0  0  0
  9 10  1  0  0  0
  9 34  1  0  0  0
  9 35  1  0  0  0
 10 36  1  0  0  0
 11 12  1  0  0  0
 11 37  1  0  0  0
 12 13  1  0  0  0
 12 38  1  0  0  0
 12 39  1  0  0  0
 13 20  1  0  0  0
 13 40  1  0  0  0
 14 15  1  0  0  0
 14 20  1  0  0  0
 14 24  1  0  0  0
 14 41  1  0  0  0
 15 16  1  0  0  0
 15 21  1  0  0  0
 15 42  1  0  0  0
 16 17  1  0  0  0
 16 22  1  0  0  0
 16 43  1  0  0  0
 17 18  1  0  0  0
 17 23  1  0  0  0
 17 44  1  0  0  0
 18 19  1  0  0  0
 18 24  1  0  0  0
 18 45  1  0  0  0
 19 25  1  0  0  0
 19 46  1  0  0  0
 19 47  1  0  0  0
 21 48  1  0  0  0
 22 49  1  0  0  0
 23 50  1  0  0  0
 25 51  1  0  0  0
M  CHG  1  11   1
M  END
> <s_m_source_file>
../2jjb_ligand.sdf

> <i_m_source_file_index>
1

> <s_epik_input>
W09IXVtDQEhdMVtDQEhdKFtPSF0pW0NAQEhdKFtDSDJdW09IXSlbTkBASCtdKFtDQEBIXTEyKVtDSDJdW0NAQEhdKFtDQEhdMltPSF0pT1tDQEBIXTNbQ0BIXShbT0hdKVtDQEBIXShbT0hdKVtDQEhdKFtPSF0pW0NASF0oTzMpW0NIMl1bT0hd

> <s_epik_cmdline>
J2VwaWtfYXBwJywgJy1pbWFlJywgJ2xpZ2FuZF9wcm8ubWFlJywgJy1vbWFlJywgJ2xpZ2FuZF9wcmVwLm1hZScsICctbXMnLCAnMScsICctcGgnLCAnNycsICctcGh0JywgJzAuNScsICctbnQn

> <r_epik_Ionization_Penalty>
  0.0426

> <r_epik_Ionization_Penalty_Charging>
  0.0426

> <r_epik_Ionization_Penalty_Neutral>
  0.0000

> <r_epik_State_Penalty>
  0.0360

> <r_epik_Charging_Adjusted_Penalty>
0.0785141709654141

> <i_epik_Tot_Q>
1

> <i_epik_Tot_abs_Q>
1

> <s_epik_Chemistry_Notes>
This compound contains an acetal/aminal-like group ( X-CH(R)-Y where X, Y are N, S, or O) that may be acid/base labile, releasing an aldehyde.

$$$$
