2jjk_ligand
                    3D
 Schrodinger Suite 2020-3.
 59 60  0  0  1  0            999 V2000
    8.7430   59.9740   30.4230 S   0  0  0  0  0  0
   16.9850   59.0470   19.4940 S   0  0  0  0  0  0
   16.4590   60.0070   20.8020 N   0  0  0  0  0  0
    8.8540   60.3120   28.7850 N   0  0  0  0  0  0
    9.1950   59.3040   27.8890 C   0  0  0  0  0  0
   16.5520   59.5330   22.1110 C   0  0  0  0  0  0
    7.2490   59.0710   30.7210 C   0  0  0  0  0  0
   18.7430   58.8530   19.4830 C   0  0  0  0  0  0
    9.8900   59.1430   30.7690 O   0  0  0  0  0  0
   16.4010   57.7280   19.6380 O   0  0  0  0  0  0
   16.6690   59.7810   18.2630 O   0  0  0  0  0  0
    8.6750   61.2430   31.1850 O   0  0  0  0  0  0
    7.2990   57.6950   30.9180 C   0  0  0  0  0  0
   19.3270   57.6440   19.8710 C   0  0  0  0  0  0
    9.4020   58.1260   28.2250 O   0  5  0  0  0  0
   17.0140   58.3940   22.3910 O   0  5  0  0  0  0
    9.2500   59.7650   26.5930 N   0  0  0  0  0  0
   16.0900   60.4420   23.0590 N   0  0  0  0  0  0
    6.1300   56.9900   31.1510 C   0  0  0  0  0  0
   20.7060   57.5200   19.8410 C   0  0  0  0  0  0
    6.2160   55.2750   31.3940 Cl  0  0  0  0  0  0
   21.4520   56.0180   20.3100 Cl  0  0  0  0  0  0
    6.0290   59.7230   30.7660 C   0  0  0  0  0  0
   19.5310   59.9140   19.0500 C   0  0  0  0  0  0
    4.8540   59.0220   31.0140 C   0  0  0  0  0  0
   20.9060   59.7840   19.0370 C   0  0  0  0  0  0
    4.9110   57.6440   31.2030 C   0  0  0  0  0  0
   21.4920   58.5850   19.4290 C   0  0  0  0  0  0
   16.0940   60.1340   24.4840 C   0  0  0  0  0  0
    9.9580   59.0160   25.5600 C   0  0  0  0  0  0
   15.0640   59.0380   24.7820 C   0  0  0  0  0  0
   11.4650   58.9770   25.8370 C   0  0  0  0  0  0
   14.4100   59.2030   26.1560 C   0  0  0  0  0  0
   12.1700   60.2960   25.5030 C   0  0  0  0  0  0
   13.4990   60.4290   26.2540 C   0  0  0  0  0  0
    8.2555   57.1731   30.8891 H   0  0  0  0  0  0
   18.7048   56.8090   20.1932 H   0  0  0  0  0  0
    8.7506   60.7121   26.3409 H   0  0  0  0  0  0
   15.7150   61.4146   22.7076 H   0  0  0  0  0  0
    5.9887   60.8003   30.6049 H   0  0  0  0  0  0
   19.0657   60.8437   18.7225 H   0  0  0  0  0  0
    3.8991   59.5456   31.0599 H   0  0  0  0  0  0
   21.5306   60.6193   18.7202 H   0  0  0  0  0  0
    3.9971   57.0807   31.3917 H   0  0  0  0  0  0
   22.5770   58.4820   19.4121 H   0  0  0  0  0  0
   17.0937   59.7837   24.7806 H   0  0  0  0  0  0
   15.8380   61.0384   25.0554 H   0  0  0  0  0  0
    9.5799   57.9834   25.5317 H   0  0  0  0  0  0
    9.7934   59.4936   24.5829 H   0  0  0  0  0  0
   14.2680   59.0669   24.0234 H   0  0  0  0  0  0
   15.5573   58.0551   24.7586 H   0  0  0  0  0  0
   11.6365   58.7674   26.9031 H   0  0  0  0  0  0
   11.9293   58.1869   25.2287 H   0  0  0  0  0  0
   13.7964   58.3176   26.3787 H   0  0  0  0  0  0
   15.1909   59.3103   26.9233 H   0  0  0  0  0  0
   12.3749   60.3390   24.4231 H   0  0  0  0  0  0
   11.5238   61.1395   25.7875 H   0  0  0  0  0  0
   13.2521   60.6190   27.3090 H   0  0  0  0  0  0
   14.0164   61.3047   25.8351 H   0  0  0  0  0  0
  1  4  1  0  0  0
  1  7  1  0  0  0
  1  9  2  0  0  0
  1 12  2  0  0  0
  2  3  1  0  0  0
  2  8  1  0  0  0
  2 10  2  0  0  0
  2 11  2  0  0  0
  3  6  2  0  0  0
  4  5  2  0  0  0
  5 15  1  0  0  0
  5 17  1  0  0  0
  6 16  1  0  0  0
  6 18  1  0  0  0
  7 13  2  0  0  0
  7 23  1  0  0  0
  8 14  2  0  0  0
  8 24  1  0  0  0
 13 19  1  0  0  0
 13 36  1  0  0  0
 14 20  1  0  0  0
 14 37  1  0  0  0
 17 30  1  0  0  0
 17 38  1  0  0  0
 18 29  1  0  0  0
 18 39  1  0  0  0
 19 21  1  0  0  0
 19 27  2  0  0  0
 20 22  1  0  0  0
 20 28  2  0  0  0
 23 25  2  0  0  0
 23 40  1  0  0  0
 24 26  2  0  0  0
 24 41  1  0  0  0
 25 27  1  0  0  0
 25 42  1  0  0  0
 26 28  1  0  0  0
 26 43  1  0  0  0
 27 44  1  0  0  0
 28 45  1  0  0  0
 29 31  1  0  0  0
 29 46  1  0  0  0
 29 47  1  0  0  0
 30 32  1  0  0  0
 30 48  1  0  0  0
 30 49  1  0  0  0
 31 33  1  0  0  0
 31 50  1  0  0  0
 31 51  1  0  0  0
 32 34  1  0  0  0
 32 52  1  0  0  0
 32 53  1  0  0  0
 33 35  1  0  0  0
 33 54  1  0  0  0
 33 55  1  0  0  0
 34 35  1  0  0  0
 34 56  1  0  0  0
 34 57  1  0  0  0
 35 58  1  0  0  0
 35 59  1  0  0  0
M  CHG  2  15  -1  16  -1
M  END
> <s_m_source_file>
../2jjk_ligand.sdf

> <i_m_source_file_index>
1

> <s_epik_input>
W2NIXTFbY0hdW2NIXWMoQ2wpW2NIXWMxUyg9TykoPU8pW05IXUMoPU8pW05IXVtDSDJdW0NIMl1bQ0gyXVtDSDJdW0NIMl1bQ0gyXVtDSDJdW05IXUMoPU8pW05IXVMoPU8pKD1PKWMyW2NIXWMoQ2wpW2NIXVtjSF1bY0hdMg==

> <s_epik_cmdline>
J2VwaWtfYXBwJywgJy1pbWFlJywgJ2xpZ2FuZF9wcm8ubWFlJywgJy1vbWFlJywgJ2xpZ2FuZF9wcmVwLm1hZScsICctbXMnLCAnMScsICctcGgnLCAnNycsICctcGh0JywgJzAuNScsICctbnQn

> <r_epik_Ionization_Penalty>
  0.0141

> <r_epik_Ionization_Penalty_Charging>
  0.0141

> <r_epik_Ionization_Penalty_Neutral>
  0.0000

> <r_epik_State_Penalty>
  0.0110

> <r_epik_Charging_Adjusted_Penalty>
0.0251525387420569

> <i_epik_Tot_Q>
-2

> <i_epik_Tot_abs_Q>
2

$$$$
