2jjr_ligand
                    3D
 Schrodinger Suite 2020-3.
 29 28  0  0  1  0            999 V2000
   21.5620  -18.1430  -18.7780 C   0  0  0  0  0  0
   21.7520  -17.4140  -20.1110 C   0  0  0  0  0  0
   22.0340  -19.5960  -18.9510 C   0  0  0  0  0  0
   22.3480  -17.4250  -17.6920 C   0  0  0  0  0  0
   21.5560  -15.8940  -20.0860 C   0  0  0  0  0  0
   21.3990  -20.6400  -18.0270 C   0  0  0  0  0  0
   21.5640  -16.3750  -16.8870 C   0  0  0  0  0  0
   20.1390  -18.1310  -18.4190 N   0  3  0  0  0  0
   22.0690  -15.3050  -21.2900 O   0  0  0  0  0  0
   22.3630  -21.6360  -17.6150 O   0  0  0  0  0  0
   22.4200  -15.2850  -16.5100 O   0  0  0  0  0  0
   22.7754  -17.5816  -20.4779 H   0  0  0  0  0  0
   21.0309  -17.8005  -20.8463 H   0  0  0  0  0  0
   21.8171  -19.9324  -19.9756 H   0  0  0  0  0  0
   23.1171  -19.6540  -18.7676 H   0  0  0  0  0  0
   22.7198  -18.1593  -16.9622 H   0  0  0  0  0  0
   23.1989  -16.8949  -18.1448 H   0  0  0  0  0  0
   20.4836  -15.6639  -20.0027 H   0  0  0  0  0  0
   22.0901  -15.4695  -19.2231 H   0  0  0  0  0  0
   21.0049  -20.1429  -17.1283 H   0  0  0  0  0  0
   20.5780  -21.1466  -18.5556 H   0  0  0  0  0  0
   20.7385  -15.9844  -17.5001 H   0  0  0  0  0  0
   21.1568  -16.8397  -15.9769 H   0  0  0  0  0  0
   19.5599  -18.6482  -19.1982 H   0  0  0  0  0  0
   19.7913  -17.0909  -18.3332 H   0  0  0  0  0  0
   19.9993  -18.6449  -17.4565 H   0  0  0  0  0  0
   22.0095  -14.2167  -21.4386 H   0  0  0  0  0  0
   22.0566  -22.4549  -16.9475 H   0  0  0  0  0  0
   22.0157  -14.4444  -15.9269 H   0  0  0  0  0  0
  1  2  1  0  0  0
  1  3  1  0  0  0
  1  4  1  0  0  0
  1  8  1  0  0  0
  2  5  1  0  0  0
  2 12  1  0  0  0
  2 13  1  0  0  0
  3  6  1  0  0  0
  3 14  1  0  0  0
  3 15  1  0  0  0
  4  7  1  0  0  0
  4 16  1  0  0  0
  4 17  1  0  0  0
  5  9  1  0  0  0
  5 18  1  0  0  0
  5 19  1  0  0  0
  6 10  1  0  0  0
  6 20  1  0  0  0
  6 21  1  0  0  0
  7 11  1  0  0  0
  7 22  1  0  0  0
  7 23  1  0  0  0
  8 24  1  0  0  0
  8 25  1  0  0  0
  8 26  1  0  0  0
  9 27  1  0  0  0
 10 28  1  0  0  0
 11 29  1  0  0  0
M  CHG  1   8   1
M  END
> <s_m_source_file>
../2jjr_ligand.sdf

> <i_m_source_file_index>
1

> <s_epik_input>
W09IXVtDSDJdW0NIMl1DKFtOSDMrXSkoW0NIMl1bQ0gyXVtPSF0pW0NIMl1bQ0gyXVtPSF0=

> <s_epik_cmdline>
J2VwaWtfYXBwJywgJy1pbWFlJywgJ2xpZ2FuZF9wcm8ubWFlJywgJy1vbWFlJywgJ2xpZ2FuZF9wcmVwLm1hZScsICctbXMnLCAnMScsICctcGgnLCAnNycsICctcGh0JywgJzAuNScsICctbnQn

> <r_lp_tautomer_probability>
1

> <r_epik_Ionization_Penalty>
  0.0016

> <r_epik_Ionization_Penalty_Charging>
  0.0016

> <r_epik_Ionization_Penalty_Neutral>
  0.0000

> <r_epik_State_Penalty>
 -0.0000

> <r_epik_Charging_Adjusted_Penalty>
0.00157656483098242

> <i_epik_Tot_Q>
1

> <i_epik_Tot_abs_Q>
1

$$$$
