2jk7_ligand
                    3D
 Schrodinger Suite 2020-3.
 77 80  0  0  1  0            999 V2000
  110.8170   98.7840   61.8030 C   0  0  0  0  0  0
  109.7170   98.1930   62.8130 C   0  0  0  0  0  0
  108.4090   97.3610   62.3070 C   0  0  2  0  0  0
  108.1430   97.0740   60.7930 N   0  0  0  0  0  0
  109.0010   96.3840   59.8790 C   0  0  0  0  0  0
  110.4180   95.7540   60.1720 C   0  0  1  0  0  0
  111.0130   94.8310   59.2550 N   0  0  0  0  0  0
  111.6480   93.7600   59.8560 C   0  0  0  0  0  0
  112.2870   92.7240   58.9860 C   0  0  2  0  0  0
  111.4380   91.4060   59.0430 C   0  0  0  0  0  0
  109.9960   91.5730   58.4900 C   0  0  0  0  0  0
  113.6600   92.5470   59.4900 N   0  3  0  0  0  0
  111.7190   93.5930   61.1060 O   0  0  0  0  0  0
  111.4010   96.7410   60.5290 C   0  0  0  0  0  0
  111.3140   97.9740   60.6810 C   0  0  0  0  0  0
  108.6390   96.2320   58.6680 O   0  0  0  0  0  0
  106.8590   97.5860   60.2320 C   0  0  2  0  0  0
  107.0080   98.9570   59.5450 C   0  0  1  0  0  0
  108.1290   99.4610   59.5120 O   0  0  0  0  0  0
  106.2580   98.5770   58.4020 N   0  0  1  0  0  0
  106.0630   99.6790   57.3870 C   0  0  0  0  0  0
  105.2960  100.9950   57.9330 C   0  0  0  0  0  0
  105.5460  102.3180   57.2890 C   0  0  0  0  0  0
  114.8390   93.2990   59.3980 C   0  0  0  0  0  0
  104.8570  103.5010   57.7740 C   0  0  0  0  0  0
  103.9270  103.4230   58.8760 C   0  0  0  0  0  0
  103.6660  102.1420   59.5190 C   0  0  0  0  0  0
  104.3420  100.9350   59.0530 C   0  0  0  0  0  0
  105.2570   99.1020   56.1840 C   0  0  0  0  0  0
  103.9930   99.6270   55.6330 C   0  0  0  0  0  0
  103.3640   99.0050   54.5210 C   0  0  0  0  0  0
  103.9700   97.8520   53.9240 C   0  0  0  0  0  0
  105.8330   97.9450   55.5640 C   0  0  0  0  0  0
  105.2100   97.3160   54.4450 C   0  0  0  0  0  0
  106.0870   97.2360   61.4330 C   0  0  0  0  0  0
  107.0650   97.9030   62.5650 C   0  0  0  0  0  0
  110.4200   99.6869   61.3160 H   0  0  0  0  0  0
  111.7287   99.0400   62.3627 H   0  0  0  0  0  0
  110.1967   97.4836   63.5034 H   0  0  0  0  0  0
  109.2668   99.0160   63.3874 H   0  0  0  0  0  0
  108.6542   96.4784   62.9160 H   0  0  0  0  0  0
  110.2586   95.0671   61.0163 H   0  0  0  0  0  0
  110.9407   95.0081   58.1718 H   0  0  0  0  0  0
  112.3709   93.0590   57.9416 H   0  0  0  0  0  0
  111.9316   90.6258   58.4449 H   0  0  0  0  0  0
  111.3533   91.0692   60.0868 H   0  0  0  0  0  0
  109.4626   90.6136   58.5613 H   0  0  0  0  0  0
  110.0413   91.8901   57.4377 H   0  0  0  0  0  0
  109.4630   92.3336   59.0795 H   0  0  0  0  0  0
  113.6430   92.4915   60.5885 H   0  0  0  0  0  0
  114.0832   91.6171   59.0824 H   0  0  0  0  0  0
  111.8190   96.5013   61.5179 H   0  0  0  0  0  0
  112.2073   96.7428   59.7808 H   0  0  0  0  0  0
  110.7196   98.1903   59.7811 H   0  0  0  0  0  0
  112.3694   98.2191   60.4910 H   0  0  0  0  0  0
  106.3247   97.1745   59.3630 H   0  0  0  0  0  0
  106.8281   99.9673   59.9412 H   0  0  0  0  0  0
  108.6407   99.7260   60.4490 H   0  0  0  0  0  0
  106.7703   97.7523   57.8848 H   0  0  0  0  0  0
  107.0947   99.9508   57.1190 H   0  0  0  0  0  0
  106.2446  102.3963   56.4560 H   0  0  0  0  0  0
  115.6472   92.7809   59.9350 H   0  0  0  0  0  0
  114.6775   94.2904   59.8465 H   0  0  0  0  0  0
  115.1177   93.4160   58.3403 H   0  0  0  0  0  0
  105.0450  104.4636   57.2984 H   0  0  0  0  0  0
  103.4205  104.3222   59.2266 H   0  0  0  0  0  0
  102.9637  102.0847   60.3507 H   0  0  0  0  0  0
  104.1387   99.9806   59.5386 H   0  0  0  0  0  0
  103.5344  100.5059   56.0861 H   0  0  0  0  0  0
  102.4288   99.4015   54.1256 H   0  0  0  0  0  0
  103.4926   97.3735   53.0689 H   0  0  0  0  0  0
  106.7653   97.5377   55.9551 H   0  0  0  0  0  0
  105.6644   96.4382   53.9856 H   0  0  0  0  0  0
  105.0866   97.6891   61.3707 H   0  0  0  0  0  0
  105.9906   96.1424   61.5011 H   0  0  0  0  0  0
  106.7462   97.6249   63.5804 H   0  0  0  0  0  0
  107.0882   98.9991   62.4753 H   0  0  0  0  0  0
  1  2  1  0  0  0
  1 15  1  0  0  0
  1 37  1  0  0  0
  1 38  1  0  0  0
  2  3  1  0  0  0
  2 39  1  0  0  0
  2 40  1  0  0  0
  3  4  1  0  0  0
  3 36  1  0  0  0
  3 41  1  0  0  0
  4  5  1  0  0  0
  4 17  1  0  0  0
  5  6  1  0  0  0
  5 16  2  0  0  0
  6  7  1  0  0  0
  6 14  1  0  0  0
  6 42  1  0  0  0
  7  8  1  0  0  0
  7 43  1  0  0  0
  8  9  1  0  0  0
  8 13  2  0  0  0
  9 10  1  0  0  0
  9 12  1  0  0  0
  9 44  1  0  0  0
 10 11  1  0  0  0
 10 45  1  0  0  0
 10 46  1  0  0  0
 11 47  1  0  0  0
 11 48  1  0  0  0
 11 49  1  0  0  0
 12 24  1  0  0  0
 12 50  1  0  0  0
 12 51  1  0  0  0
 14 15  1  0  0  0
 14 52  1  0  0  0
 14 53  1  0  0  0
 15 54  1  0  0  0
 15 55  1  0  0  0
 17 18  1  0  0  0
 17 35  1  0  0  0
 17 56  1  0  0  0
 18 19  1  0  0  0
 18 20  1  0  0  0
 18 57  1  0  0  0
 19 58  1  0  0  0
 20 21  1  0  0  0
 20 59  1  0  0  0
 21 22  1  0  0  0
 21 29  1  0  0  0
 21 60  1  0  0  0
 22 23  2  0  0  0
 22 28  1  0  0  0
 23 25  1  0  0  0
 23 61  1  0  0  0
 24 62  1  0  0  0
 24 63  1  0  0  0
 24 64  1  0  0  0
 25 26  2  0  0  0
 25 65  1  0  0  0
 26 27  1  0  0  0
 26 66  1  0  0  0
 27 28  2  0  0  0
 27 67  1  0  0  0
 28 68  1  0  0  0
 29 30  2  0  0  0
 29 33  1  0  0  0
 30 31  1  0  0  0
 30 69  1  0  0  0
 31 32  2  0  0  0
 31 70  1  0  0  0
 32 34  1  0  0  0
 32 71  1  0  0  0
 33 34  2  0  0  0
 33 72  1  0  0  0
 34 73  1  0  0  0
 35 36  1  0  0  0
 35 74  1  0  0  0
 35 75  1  0  0  0
 36 76  1  0  0  0
 36 77  1  0  0  0
M  CHG  1  12   1
M  END
> <s_m_source_file>
../2jk7_ligand.sdf

> <i_m_source_file_index>
1

> <s_epik_input>
W0NIM11bQ0gyXVtDQEhdKFtOSDIrXVtDSDNdKUMoPU8pW05IXVtDQEBIXShbQ0gyXVtDSDJdW0NIMl1bQ0gyXTEpQyg9TylOKFtDQEBIXTEyKVtDQEBIXShbQ0gyXVtDSDJdMilbQ0BASF0oW09IXSlbTkgyK11bQ0hdKGMzW2NIXVtjSF1bY0hdW2NIXVtjSF0zKWM0W2NIXVtjSF1bY0hdW2NIXVtjSF00

> <s_epik_cmdline>
J2VwaWtfYXBwJywgJy1pbWFlJywgJ2xpZ2FuZF9wcm8ubWFlJywgJy1vbWFlJywgJ2xpZ2FuZF9wcmVwLm1hZScsICctbXMnLCAnMScsICctcGgnLCAnNycsICctcGh0JywgJzAuNScsICctbnQn

> <r_lp_tautomer_probability>
1

> <r_epik_Ionization_Penalty>
  0.3358

> <r_epik_Ionization_Penalty_Charging>
  0.0678

> <r_epik_Ionization_Penalty_Neutral>
  0.2680

> <r_epik_State_Penalty>
 -0.0000

> <r_epik_Charging_Adjusted_Penalty>
0.0677934329433585

> <i_epik_Tot_Q>
1

> <i_epik_Tot_abs_Q>
1

> <s_epik_Chemistry_Notes>
This compound contains an acetal/aminal-like group ( X-CH(R)-Y where X, Y are N, S, or O) that may be acid/base labile, releasing an aldehyde.

$$$$
