2jk9_ligand
                    3D
 Schrodinger Suite 2020-3.
117117  0  0  1  0            999 V2000
    1.2530   40.6280   45.1790 N   0  3  0  0  0  0
    0.1200   41.5490   44.8830 C   0  0  2  0  0  0
    0.5270   42.6250   43.8610 C   0  0  0  0  0  0
    0.3370   43.8220   44.0900 O   0  0  0  0  0  0
   -0.4120   42.1760   46.1900 C   0  0  0  0  0  0
   -1.9020   42.5320   46.1280 C   0  0  0  0  0  0
   -2.6590   42.0000   45.3120 O   0  0  0  0  0  0
   -2.3270   43.4240   47.0170 N   0  0  0  0  0  0
    1.1060   42.1730   42.7440 N   0  0  0  0  0  0
    1.3210   43.0070   41.5530 C   0  0  2  0  0  0
    0.1050   42.8600   40.6350 C   0  0  0  0  0  0
   -0.5640   41.8270   40.6320 O   0  0  0  0  0  0
    2.6090   42.6030   40.8160 C   0  0  0  0  0  0
    3.0530   43.5580   39.6770 C   0  0  0  0  0  0
    2.5560   43.1610   38.2710 C   0  0  0  0  0  0
    1.9640   42.0690   38.0930 O   0  5  0  0  0  0
    2.7590   43.9500   37.3270 O   0  0  0  0  0  0
   -0.1640   43.9160   39.8760 N   0  0  0  0  0  0
   -1.3230   44.0340   38.9970 C   0  0  2  0  0  0
   -1.6840   42.7470   38.2070 C   0  0  0  0  0  0
   -2.8460   42.3350   38.1620 O   0  0  0  0  0  0
   -1.0580   45.1980   38.0250 C   0  0  0  0  0  0
   -2.0450   45.4680   36.8890 C   0  0  0  0  0  0
   -3.4440   45.7240   37.4360 C   0  0  0  0  0  0
   -1.5550   46.6480   36.0570 C   0  0  0  0  0  0
   -0.6840   42.1250   37.5940 N   0  0  0  0  0  0
   -0.8950   40.9330   36.7550 C   0  0  2  0  0  0
   -0.2150   39.6660   37.3080 C   0  0  0  0  0  0
    0.1280   38.7630   36.5560 O   0  0  0  0  0  0
   -0.4690   41.2350   35.3080 C   0  0  0  0  0  0
   -1.5470   41.9990   34.5200 C   0  0  0  0  0  0
   -2.7130   41.6110   34.5110 O   0  0  0  0  0  0
   -1.1460   43.0710   33.8450 N   0  0  0  0  0  0
   -0.0520   39.6080   38.6340 N   0  0  0  0  0  0
    0.4610   38.4230   39.3300 C   0  0  2  0  0  0
    1.9360   38.1110   39.0170 C   0  0  0  0  0  0
    2.3680   36.9590   39.0810 O   0  0  0  0  0  0
   -0.4250   37.2040   39.0140 C   0  0  0  0  0  0
   -0.2760   36.0880   40.0280 C   0  0  0  0  0  0
   -0.2320   36.3330   41.2440 O   0  0  0  0  0  0
   -0.2220   34.8510   39.5380 N   0  0  0  0  0  0
    2.6990   39.1470   38.6870 N   0  0  0  0  0  0
    4.0850   38.9900   38.2810 C   0  0  2  0  0  0
    5.0390   39.3820   39.4070 C   0  0  0  0  0  0
    4.6480   40.0790   40.3480 O   0  0  0  0  0  0
    4.3490   39.8220   37.0250 C   0  0  0  0  0  0
    3.6090   39.2830   35.8110 C   0  0  0  0  0  0
    3.6480   38.0860   35.5420 O   0  0  0  0  0  0
    2.9290   40.1640   35.0750 N   0  0  0  0  0  0
    6.2780   38.9130   39.3110 N   0  0  0  0  0  0
    7.3030   39.2100   40.3080 C   0  0  2  0  0  0
    8.0140   40.5230   39.9370 C   0  0  0  0  0  0
    8.5300   40.6520   38.8230 O   0  0  0  0  0  0
    8.3140   38.0610   40.3960 C   0  0  0  0  0  0
    8.0270   41.5050   40.8580 N   0  0  0  0  0  0
    8.7610   42.7580   40.6490 C   0  0  2  0  0  0
   10.2080   42.5560   40.1750 C   0  0  0  0  0  0
   11.1550   42.8780   40.8970 O   0  0  0  0  0  0
    8.7210   43.4070   42.0390 C   0  0  0  0  0  0
    7.4360   42.9480   42.6100 C   0  0  0  0  0  0
    7.2290   41.5480   42.0990 C   0  0  0  0  0  0
   10.4420   42.0690   39.0660 O   0  5  0  0  0  0
    1.6227   40.1883   44.2410 H   0  0  0  0  0  0
    0.9085   39.8265   45.8490 H   0  0  0  0  0  0
    2.0643   41.1893   45.6656 H   0  0  0  0  0  0
   -0.6710   40.9354   44.4271 H   0  0  0  0  0  0
   -0.2748   41.4666   47.0194 H   0  0  0  0  0  0
    0.1416   43.1021   46.4043 H   0  0  0  0  0  0
   -1.6175   43.8741   47.7269 H   0  0  0  0  0  0
   -3.3883   43.7121   47.0428 H   0  0  0  0  0  0
    1.4276   41.1211   42.7442 H   0  0  0  0  0  0
    1.4282   44.0451   41.9008 H   0  0  0  0  0  0
    3.4437   42.5635   41.5313 H   0  0  0  0  0  0
    2.4732   41.6131   40.3561 H   0  0  0  0  0  0
    2.6688   44.5693   39.8758 H   0  0  0  0  0  0
    4.1516   43.5860   39.6293 H   0  0  0  0  0  0
    0.5621   44.7397   39.9424 H   0  0  0  0  0  0
   -2.1566   44.2230   39.6894 H   0  0  0  0  0  0
   -1.0245   46.1437   38.5859 H   0  0  0  0  0  0
   -0.0957   45.0391   37.5164 H   0  0  0  0  0  0
   -2.1044   44.5808   36.2415 H   0  0  0  0  0  0
   -3.7695   44.8575   38.0304 H   0  0  0  0  0  0
   -4.1420   45.8782   36.5999 H   0  0  0  0  0  0
   -3.4303   46.6210   38.0725 H   0  0  0  0  0  0
   -0.5452   46.4343   35.6767 H   0  0  0  0  0  0
   -1.5273   47.5519   36.6833 H   0  0  0  0  0  0
   -2.2390   46.8091   35.2107 H   0  0  0  0  0  0
    0.3299   42.5294   37.7299 H   0  0  0  0  0  0
   -1.9781   40.7463   36.8002 H   0  0  0  0  0  0
    0.4430   41.8500   35.3151 H   0  0  0  0  0  0
   -0.2705   40.2909   34.7796 H   0  0  0  0  0  0
   -0.0914   43.3817   33.8822 H   0  0  0  0  0  0
   -1.8686   43.6478   33.2490 H   0  0  0  0  0  0
   -0.3238   40.5073   39.2062 H   0  0  0  0  0  0
    0.4000   38.7005   40.3927 H   0  0  0  0  0  0
   -1.4814   37.5107   39.0062 H   0  0  0  0  0  0
   -0.1535   36.7991   38.0279 H   0  0  0  0  0  0
   -0.2648   34.6876   38.4510 H   0  0  0  0  0  0
   -0.1346   33.9925   40.2202 H   0  0  0  0  0  0
    2.2483   40.1496   38.7287 H   0  0  0  0  0  0
    4.2153   37.9189   38.0669 H   0  0  0  0  0  0
    4.0176   40.8571   37.1945 H   0  0  0  0  0  0
    5.4256   39.8140   36.7994 H   0  0  0  0  0  0
    2.9236   41.2275   35.3559 H   0  0  0  0  0  0
    2.3738   39.8268   34.1873 H   0  0  0  0  0  0
    6.5209   38.2812   38.4439 H   0  0  0  0  0  0
    6.7791   39.3100   41.2701 H   0  0  0  0  0  0
    7.7900   37.1311   40.6617 H   0  0  0  0  0  0
    9.0650   38.2916   41.1660 H   0  0  0  0  0  0
    8.8125   37.9359   39.4234 H   0  0  0  0  0  0
    8.2799   43.3341   39.8449 H   0  0  0  0  0  0
    9.5835   43.0634   42.6290 H   0  0  0  0  0  0
    8.7611   44.5012   41.9341 H   0  0  0  0  0  0
    7.4961   42.9645   43.7082 H   0  0  0  0  0  0
    6.6275   43.6154   42.2769 H   0  0  0  0  0  0
    6.1743   41.3424   41.8640 H   0  0  0  0  0  0
    7.6028   40.7888   42.8018 H   0  0  0  0  0  0
  1  2  1  0  0  0
  1 63  1  0  0  0
  1 64  1  0  0  0
  1 65  1  0  0  0
  2  3  1  0  0  0
  2  5  1  0  0  0
  2 66  1  0  0  0
  3  4  2  0  0  0
  3  9  1  0  0  0
  5  6  1  0  0  0
  5 67  1  0  0  0
  5 68  1  0  0  0
  6  7  2  0  0  0
  6  8  1  0  0  0
  8 69  1  0  0  0
  8 70  1  0  0  0
  9 10  1  0  0  0
  9 71  1  0  0  0
 10 11  1  0  0  0
 10 13  1  0  0  0
 10 72  1  0  0  0
 11 12  2  0  0  0
 11 18  1  0  0  0
 13 14  1  0  0  0
 13 73  1  0  0  0
 13 74  1  0  0  0
 14 15  1  0  0  0
 14 75  1  0  0  0
 14 76  1  0  0  0
 15 16  1  0  0  0
 15 17  2  0  0  0
 18 19  1  0  0  0
 18 77  1  0  0  0
 19 20  1  0  0  0
 19 22  1  0  0  0
 19 78  1  0  0  0
 20 21  2  0  0  0
 20 26  1  0  0  0
 22 23  1  0  0  0
 22 79  1  0  0  0
 22 80  1  0  0  0
 23 24  1  0  0  0
 23 25  1  0  0  0
 23 81  1  0  0  0
 24 82  1  0  0  0
 24 83  1  0  0  0
 24 84  1  0  0  0
 25 85  1  0  0  0
 25 86  1  0  0  0
 25 87  1  0  0  0
 26 27  1  0  0  0
 26 88  1  0  0  0
 27 28  1  0  0  0
 27 30  1  0  0  0
 27 89  1  0  0  0
 28 29  2  0  0  0
 28 34  1  0  0  0
 30 31  1  0  0  0
 30 90  1  0  0  0
 30 91  1  0  0  0
 31 32  2  0  0  0
 31 33  1  0  0  0
 33 92  1  0  0  0
 33 93  1  0  0  0
 34 35  1  0  0  0
 34 94  1  0  0  0
 35 36  1  0  0  0
 35 38  1  0  0  0
 35 95  1  0  0  0
 36 37  2  0  0  0
 36 42  1  0  0  0
 38 39  1  0  0  0
 38 96  1  0  0  0
 38 97  1  0  0  0
 39 40  2  0  0  0
 39 41  1  0  0  0
 41 98  1  0  0  0
 41 99  1  0  0  0
 42 43  1  0  0  0
 42100  1  0  0  0
 43 44  1  0  0  0
 43 46  1  0  0  0
 43101  1  0  0  0
 44 45  2  0  0  0
 44 50  1  0  0  0
 46 47  1  0  0  0
 46102  1  0  0  0
 46103  1  0  0  0
 47 48  2  0  0  0
 47 49  1  0  0  0
 49104  1  0  0  0
 49105  1  0  0  0
 50 51  1  0  0  0
 50106  1  0  0  0
 51 52  1  0  0  0
 51 54  1  0  0  0
 51107  1  0  0  0
 52 53  2  0  0  0
 52 55  1  0  0  0
 54108  1  0  0  0
 54109  1  0  0  0
 54110  1  0  0  0
 55 56  1  0  0  0
 55 61  1  0  0  0
 56 57  1  0  0  0
 56 59  1  0  0  0
 56111  1  0  0  0
 57 58  2  0  0  0
 57 62  1  0  0  0
 59 60  1  0  0  0
 59112  1  0  0  0
 59113  1  0  0  0
 60 61  1  0  0  0
 60114  1  0  0  0
 60115  1  0  0  0
 61116  1  0  0  0
 61117  1  0  0  0
M  CHG  3   1   1  16  -1  62  -1
M  END
> <s_m_source_file>
../2jk9_ligand.sdf

> <i_m_source_file_index>
1

> <s_epik_input>
Tz1DKFtOSDJdKVtDSDJdW0NASF0oW05IMytdKUMoPU8pW05IXVtDQEBIXShbQ0gyXVtDSDJdQyg9TylbT0hdKUMoPU8pW05IXVtDQEBIXShbQ0gyXVtDSF0oW0NIM10pW0NIM10pQyg9TylbTkhdW0NAQEhdKFtDSDJdQyg9TylbTkgyXSlDKD1PKVtOSF1bQ0BASF0oW0NIMl1DKD1PKVtOSDJdKUMoPU8pW05IXVtDQEBIXShbQ0gyXUMoPU8pW05IMl0pQyg9TylbTkhdW0NAQEhdKFtDSDNdKUMoPU8pTjFbQ0BIXShDKD1PKVtPSF0pW0NIMl1bQ0gyXVtDSDJdMQ==

> <s_epik_cmdline>
J2VwaWtfYXBwJywgJy1pbWFlJywgJ2xpZ2FuZF9wcm8ubWFlJywgJy1vbWFlJywgJ2xpZ2FuZF9wcmVwLm1hZScsICctbXMnLCAnMScsICctcGgnLCAnNycsICctcGh0JywgJzAuNScsICctbnQn

> <r_epik_Ionization_Penalty>
  0.1997

> <r_epik_Ionization_Penalty_Charging>
  0.1997

> <r_epik_Ionization_Penalty_Neutral>
  0.0000

> <r_epik_State_Penalty>
  0.1874

> <r_epik_Charging_Adjusted_Penalty>
0.387107010290557

> <i_epik_Tot_Q>
-1

> <i_epik_Tot_abs_Q>
3

$$$$
