2jkh_ligand
                    3D
 Schrodinger Suite 2020-3.
 59 63  0  0  1  0            999 V2000
   -3.3790   10.1460   22.3380 O   0  0  0  0  0  0
   -3.9410   11.1580   21.9180 C   0  0  0  0  0  0
   -4.9910   11.0850   21.0360 N   0  0  0  0  0  0
   -5.8800    9.9090   21.1480 C   0  0  0  0  0  0
   -5.5610    9.1700   19.8540 C   0  0  0  0  0  0
   -6.3260    7.8750   19.6540 C   0  0  0  0  0  0
   -6.0510    7.1990   18.3700 N   0  3  0  0  0  0
   -4.6370    6.8540   18.2010 C   0  0  0  0  0  0
   -6.7910    5.9390   18.3930 C   0  0  0  0  0  0
   -6.5190    7.9920   17.2120 C   0  0  0  0  0  0
   -3.5440   12.5840   22.2200 C   0  0  2  0  0  0
   -3.3790   12.9840   23.6880 C   0  0  1  0  0  0
   -4.7170   13.3720   24.1640 N   0  0  1  0  0  0
   -4.6370   14.4120   25.2040 C   0  0  0  0  0  0
   -4.7100   15.7650   24.5000 C   0  0  0  0  0  0
   -5.1380   15.4870   23.0620 C   0  0  0  0  0  0
   -5.3720   13.9770   22.9790 C   0  0  1  0  0  0
   -4.7430   13.3810   21.7340 C   0  0  2  0  0  0
   -5.5910   12.3290   21.0820 C   0  0  0  0  0  0
   -6.6970   12.5320   20.5910 O   0  0  0  0  0  0
   -2.5260   12.0300   24.4490 C   0  0  0  0  0  0
   -3.0640   11.1180   25.3850 C   0  0  0  0  0  0
   -1.1850   11.9120   24.2960 N   0  0  0  0  0  0
   -0.8190   10.8700   25.1950 O   0  0  0  0  0  0
   -1.9190   10.4620   25.8600 C   0  0  0  0  0  0
   -1.8730    9.3760   26.7280 C   0  0  0  0  0  0
   -2.7630    9.0540   27.7450 C   0  0  0  0  0  0
   -2.4110    7.8370   28.3300 C   0  0  0  0  0  0
   -0.5750    8.2640   26.4200 S   0  0  0  0  0  0
   -1.2890    7.3390   27.6830 C   0  0  0  0  0  0
   -0.4950    5.7740   28.1070 Cl  0  0  0  0  0  0
   -5.6211    9.3385   22.0521 H   0  0  0  0  0  0
   -6.9255   10.2446   21.2131 H   0  0  0  0  0  0
   -5.7999    9.8145   18.9952 H   0  0  0  0  0  0
   -4.4918    8.9124   19.8329 H   0  0  0  0  0  0
   -6.0631    7.1666   20.4534 H   0  0  0  0  0  0
   -7.4065    8.0788   19.6855 H   0  0  0  0  0  0
   -4.2974    6.2649   19.0657 H   0  0  0  0  0  0
   -4.0409    7.7756   18.1283 H   0  0  0  0  0  0
   -4.5112    6.2625   17.2822 H   0  0  0  0  0  0
   -6.4572    5.3333   19.2484 H   0  0  0  0  0  0
   -6.6059    5.3880   17.4591 H   0  0  0  0  0  0
   -7.8668    6.1473   18.4887 H   0  0  0  0  0  0
   -5.9732    8.9464   17.1766 H   0  0  0  0  0  0
   -7.5963    8.1893   17.3141 H   0  0  0  0  0  0
   -6.3354    7.4299   16.2844 H   0  0  0  0  0  0
   -2.5607   12.7414   21.7527 H   0  0  0  0  0  0
   -2.7767   13.8792   23.9021 H   0  0  0  0  0  0
   -5.4771   14.2955   25.9044 H   0  0  0  0  0  0
   -3.6876   14.3119   25.7504 H   0  0  0  0  0  0
   -5.4447   16.4049   25.0107 H   0  0  0  0  0  0
   -3.7216   16.2469   24.5284 H   0  0  0  0  0  0
   -6.0590   16.0457   22.8391 H   0  0  0  0  0  0
   -4.3407   15.8050   22.3741 H   0  0  0  0  0  0
   -6.4498   13.7576   22.9627 H   0  0  0  0  0  0
   -4.5606   14.2030   21.0261 H   0  0  0  0  0  0
   -4.1056   10.9635   25.6666 H   0  0  0  0  0  0
   -3.6149    9.6650   28.0435 H   0  0  0  0  0  0
   -2.9316    7.3568   29.1585 H   0  0  0  0  0  0
  1  2  2  0  0  0
  2  3  1  0  0  0
  2 11  1  0  0  0
  3  4  1  0  0  0
  3 19  1  0  0  0
  4  5  1  0  0  0
  4 32  1  0  0  0
  4 33  1  0  0  0
  5  6  1  0  0  0
  5 34  1  0  0  0
  5 35  1  0  0  0
  6  7  1  0  0  0
  6 36  1  0  0  0
  6 37  1  0  0  0
  7  8  1  0  0  0
  7  9  1  0  0  0
  7 10  1  0  0  0
  8 38  1  0  0  0
  8 39  1  0  0  0
  8 40  1  0  0  0
  9 41  1  0  0  0
  9 42  1  0  0  0
  9 43  1  0  0  0
 10 44  1  0  0  0
 10 45  1  0  0  0
 10 46  1  0  0  0
 11 12  1  0  0  0
 11 18  1  0  0  0
 11 47  1  0  0  0
 12 13  1  0  0  0
 12 21  1  0  0  0
 12 48  1  0  0  0
 13 14  1  0  0  0
 13 17  1  0  0  0
 14 15  1  0  0  0
 14 49  1  0  0  0
 14 50  1  0  0  0
 15 16  1  0  0  0
 15 51  1  0  0  0
 15 52  1  0  0  0
 16 17  1  0  0  0
 16 53  1  0  0  0
 16 54  1  0  0  0
 17 18  1  0  0  0
 17 55  1  0  0  0
 18 19  1  0  0  0
 18 56  1  0  0  0
 19 20  2  0  0  0
 21 22  1  0  0  0
 21 23  2  0  0  0
 22 25  2  0  0  0
 22 57  1  0  0  0
 23 24  1  0  0  0
 24 25  1  0  0  0
 25 26  1  0  0  0
 26 27  2  0  0  0
 26 29  1  0  0  0
 27 28  1  0  0  0
 27 58  1  0  0  0
 28 30  2  0  0  0
 28 59  1  0  0  0
 29 30  1  0  0  0
 30 31  1  0  0  0
M  CHG  1   7   1
M  END
> <s_m_source_file>
../2jkh_ligand.sdf

> <i_m_source_file_index>
1

> <s_epik_input>
W0NIM11bTitdKFtDSDNdKShbQ0gzXSlbQ0gyXVtDSDJdW0NIMl1OKEMxPU8pQyg9TylbQ0BIXShbQ0BIXTEyKVtDQEhdM1tOQEgrXShbQ0gyXVtDSDJdW0NIMl0zKVtDQEhdMmM0W2NIXWMob240KS1jNVtjSF1bY0hdYyhzNSlDbA==

> <s_epik_cmdline>
J2VwaWtfYXBwJywgJy1pbWFlJywgJ2xpZ2FuZF9wcm8ubWFlJywgJy1vbWFlJywgJ2xpZ2FuZF9wcmVwLm1hZScsICctbXMnLCAnMScsICctcGgnLCAnNycsICctcGh0JywgJzAuNScsICctbnQn

> <r_lp_tautomer_probability>
1

> <r_epik_Ionization_Penalty>
  0.1044

> <r_epik_Ionization_Penalty_Charging>
  0.0000

> <r_epik_Ionization_Penalty_Neutral>
  0.1044

> <r_epik_State_Penalty>
  0.0943

> <r_epik_Charging_Adjusted_Penalty>
0.0942818234352768

> <i_epik_Tot_Q>
1

> <i_epik_Tot_abs_Q>
1

$$$$
