2jkk_ligand
                    3D
 Schrodinger Suite 2020-3.
 58 61  0  0  1  0            999 V2000
    9.0410   -2.7190   32.0490 C   0  0  0  0  0  0
   10.2130   -2.9610   33.0220 C   0  0  0  0  0  0
   11.3040   -3.5690   32.3390 O   0  0  0  0  0  0
   11.8660   -2.6670   31.3900 C   0  0  0  0  0  0
   10.8670   -2.2280   30.3140 C   0  0  0  0  0  0
    9.4790   -2.0480   30.8040 N   0  0  0  0  0  0
    8.5740   -1.2030   30.0720 C   0  0  0  0  0  0
    7.2790   -0.9350   30.5310 C   0  0  0  0  0  0
    6.3970   -0.1130   29.8000 C   0  0  0  0  0  0
    5.1280    0.1660   30.2020 O   0  0  0  0  0  0
    4.7900   -0.5600   31.3940 C   0  0  0  0  0  0
    8.9970   -0.6060   28.8740 C   0  0  0  0  0  0
    8.1160    0.2040   28.1470 C   0  0  0  0  0  0
    6.8140    0.4680   28.6080 C   0  0  0  0  0  0
    5.9230    1.2440   27.9650 N   0  0  0  0  0  0
    6.2010    2.3770   27.2920 C   0  0  0  0  0  0
    7.4540    2.8240   27.1340 N   0  0  0  0  0  0
    5.1990    3.0670   26.7550 N   0  0  0  0  0  0
    5.4270    4.1840   26.0740 C   0  0  0  0  0  0
    6.7110    4.6620   25.8790 C   0  0  0  0  0  0
    6.9780    6.1210   24.9630 Cl  0  0  0  0  0  0
    7.7720    3.9310   26.4160 C   0  0  0  0  0  0
    9.0490    4.3410   26.2290 N   0  0  0  0  0  0
   10.1860    3.7000   26.5900 C   0  0  0  0  0  0
   10.3770    3.3480   27.9430 C   0  0  0  0  0  0
   11.5180    2.6950   28.3730 C   0  0  0  0  0  0
   12.5330    2.4170   27.4570 C   0  0  0  0  0  0
   12.3700    2.7740   26.1200 C   0  0  0  0  0  0
   11.2100    3.4050   25.6740 C   0  0  0  0  0  0
   11.1170    3.7550   24.1830 C   0  0  0  0  0  0
   10.3950    4.6710   23.8180 O   0  0  0  0  0  0
   11.8370    2.9880   23.3590 N   0  0  0  0  0  0
   11.8190    3.3030   21.9240 C   0  0  0  0  0  0
    8.5858   -3.6826   31.7765 H   0  0  0  0  0  0
    8.2872   -2.0816   32.5343 H   0  0  0  0  0  0
   10.5436   -2.0004   33.4438 H   0  0  0  0  0  0
    9.8835   -3.6245   33.8351 H   0  0  0  0  0  0
   12.2175   -1.7623   31.9076 H   0  0  0  0  0  0
   12.7129   -3.1507   30.8812 H   0  0  0  0  0  0
   11.1850   -1.2642   29.8897 H   0  0  0  0  0  0
   10.8302   -2.9852   29.5169 H   0  0  0  0  0  0
    6.9456   -1.3707   31.4729 H   0  0  0  0  0  0
    3.7605   -0.3141   31.6936 H   0  0  0  0  0  0
    5.4832   -0.2820   32.2016 H   0  0  0  0  0  0
    4.8673   -1.6400   31.1999 H   0  0  0  0  0  0
   10.0107   -0.7729   28.5099 H   0  0  0  0  0  0
    8.4464    0.6391   27.2038 H   0  0  0  0  0  0
    4.8577    0.9699   27.9598 H   0  0  0  0  0  0
    4.5840    4.7367   25.6593 H   0  0  0  0  0  0
    9.2512    5.3004   25.7304 H   0  0  0  0  0  0
    9.6038    3.5976   28.6696 H   0  0  0  0  0  0
   11.6231    2.4005   29.4172 H   0  0  0  0  0  0
   13.4478    1.9236   27.7852 H   0  0  0  0  0  0
   13.1660    2.5553   25.4083 H   0  0  0  0  0  0
   12.4324    2.1401   23.7285 H   0  0  0  0  0  0
   12.4554    2.5869   21.3834 H   0  0  0  0  0  0
   12.2001    4.3230   21.7677 H   0  0  0  0  0  0
   10.7880    3.2349   21.5466 H   0  0  0  0  0  0
  1  2  1  0  0  0
  1  6  1  0  0  0
  1 34  1  0  0  0
  1 35  1  0  0  0
  2  3  1  0  0  0
  2 36  1  0  0  0
  2 37  1  0  0  0
  3  4  1  0  0  0
  4  5  1  0  0  0
  4 38  1  0  0  0
  4 39  1  0  0  0
  5  6  1  0  0  0
  5 40  1  0  0  0
  5 41  1  0  0  0
  6  7  1  0  0  0
  7  8  2  0  0  0
  7 12  1  0  0  0
  8  9  1  0  0  0
  8 42  1  0  0  0
  9 10  1  0  0  0
  9 14  2  0  0  0
 10 11  1  0  0  0
 11 43  1  0  0  0
 11 44  1  0  0  0
 11 45  1  0  0  0
 12 13  2  0  0  0
 12 46  1  0  0  0
 13 14  1  0  0  0
 13 47  1  0  0  0
 14 15  1  0  0  0
 15 16  1  0  0  0
 15 48  1  0  0  0
 16 17  2  0  0  0
 16 18  1  0  0  0
 17 22  1  0  0  0
 18 19  2  0  0  0
 19 20  1  0  0  0
 19 49  1  0  0  0
 20 21  1  0  0  0
 20 22  2  0  0  0
 22 23  1  0  0  0
 23 24  1  0  0  0
 23 50  1  0  0  0
 24 25  2  0  0  0
 24 29  1  0  0  0
 25 26  1  0  0  0
 25 51  1  0  0  0
 26 27  2  0  0  0
 26 52  1  0  0  0
 27 28  1  0  0  0
 27 53  1  0  0  0
 28 29  2  0  0  0
 28 54  1  0  0  0
 29 30  1  0  0  0
 30 31  2  0  0  0
 30 32  1  0  0  0
 32 33  1  0  0  0
 32 55  1  0  0  0
 33 56  1  0  0  0
 33 57  1  0  0  0
 33 58  1  0  0  0
M  END
> <s_m_source_file>
../2jkk_ligand.sdf

> <i_m_source_file_index>
1

> <s_epik_input>
W0NIMl0xW0NIMl1PW0NIMl1bQ0gyXU4xYzJbY0hdYyhPW0NIM10pYyhbY0hdW2NIXTIpW05IXWMzbmMoYyhDbClbY0hdbjMpW05IXWM0W2NIXVtjSF1bY0hdW2NIXWM0Qyg9TylbTkhdW0NIM10=

> <s_epik_cmdline>
J2VwaWtfYXBwJywgJy1pbWFlJywgJ2xpZ2FuZF9wcm8ubWFlJywgJy1vbWFlJywgJ2xpZ2FuZF9wcmVwLm1hZScsICctbXMnLCAnMScsICctcGgnLCAnNycsICctcGh0JywgJzAuNScsICctbnQn

> <r_lp_tautomer_probability>
1

> <r_epik_Ionization_Penalty>
  0.0004

> <r_epik_Ionization_Penalty_Charging>
  0.0000

> <r_epik_Ionization_Penalty_Neutral>
  0.0004

> <r_epik_State_Penalty>
 -0.0000

> <r_epik_Charging_Adjusted_Penalty>
0

> <i_epik_Tot_Q>
0

> <i_epik_Tot_abs_Q>
0

$$$$
