2jkm_ligand
                    3D
 Schrodinger Suite 2020-3.
 70 73  0  0  1  0            999 V2000
   10.8430    3.2190   22.2240 C   0  0  0  0  0  0
   11.2370    3.3060   23.6990 C   0  0  0  0  0  0
   12.2500    2.1940   23.9810 C   0  0  0  0  0  0
   11.8170    4.6430   23.9950 N   0  0  3  0  0  0
   11.3420    5.4670   25.3700 S   0  0  0  0  0  0
   12.3910    6.4570   25.7840 O   0  0  0  0  0  0
   10.0920    6.2350   25.0780 O   0  0  0  0  0  0
   11.1320    4.3470   26.7280 C   0  0  0  0  0  0
   12.2990    3.8090   27.2890 C   0  0  0  0  0  0
   12.2380    2.9140   28.3560 C   0  0  0  0  0  0
   10.9940    2.5530   28.8630 C   0  0  0  0  0  0
    9.8270    3.0940   28.3060 C   0  0  0  0  0  0
    9.8690    3.9870   27.2300 C   0  0  0  0  0  0
    8.7390    4.5150   26.6990 N   0  0  0  0  0  0
    7.5040    3.9590   26.6490 C   0  0  0  0  0  0
    7.1990    2.7680   27.2170 N   0  0  0  0  0  0
    6.4860    4.6450   25.9870 C   0  0  0  0  0  0
    6.8310    6.1870   25.2660 Cl  0  0  0  0  0  0
    5.2080    4.0800   25.9090 C   0  0  0  0  0  0
    4.9730    2.8930   26.4690 N   0  0  0  0  0  0
    5.9580    2.2340   27.1170 C   0  0  0  0  0  0
    5.6800    1.0490   27.6680 N   0  0  0  0  0  0
    6.5180    0.3440   28.4420 C   0  0  0  0  0  0
    6.0090   -0.2050   29.6220 C   0  0  0  0  0  0
    6.8440   -0.9660   30.4450 C   0  0  0  0  0  0
    4.6990    0.0170   29.9350 O   0  0  0  0  0  0
    4.2800   -0.4360   31.2360 C   0  0  0  0  0  0
    7.8610    0.1010   28.0930 C   0  0  0  0  0  0
    8.6940   -0.6580   28.9260 C   0  0  0  0  0  0
    8.1800   -1.2040   30.1130 C   0  0  0  0  0  0
    8.9210   -1.9480   30.9490 N   0  0  0  0  0  0
   10.3390   -2.3010   30.8130 C   0  0  0  0  0  0
    8.3990   -2.5560   32.1730 C   0  0  0  0  0  0
    9.6340   -2.8130   33.0270 C   0  0  0  0  0  0
   10.7630   -2.1250   32.2680 C   0  0  1  0  0  0
   12.0840   -2.7150   32.6260 N   0  3  0  0  0  0
   12.7050   -3.5350   31.5410 C   0  0  0  0  0  0
   10.4156    2.2269   22.0166 H   0  0  0  0  0  0
   11.7335    3.3730   21.5969 H   0  0  0  0  0  0
   10.0965    3.9945   21.9976 H   0  0  0  0  0  0
   10.3599    3.2051   24.3552 H   0  0  0  0  0  0
   11.7959    1.2182   23.7541 H   0  0  0  0  0  0
   12.5426    2.2247   25.0409 H   0  0  0  0  0  0
   13.1396    2.3399   23.3507 H   0  0  0  0  0  0
   12.6696    5.0149   23.4079 H   0  0  0  0  0  0
   13.2697    4.0953   26.8842 H   0  0  0  0  0  0
   13.1513    2.5033   28.7865 H   0  0  0  0  0  0
   10.9267    1.8497   29.6931 H   0  0  0  0  0  0
    8.8603    2.8111   28.7227 H   0  0  0  0  0  0
    8.7625    5.5133   26.2376 H   0  0  0  0  0  0
    4.4072    4.6087   25.3920 H   0  0  0  0  0  0
    4.6994    0.5803   27.4988 H   0  0  0  0  0  0
    6.4430   -1.3840   31.3684 H   0  0  0  0  0  0
    3.2137   -0.2063   31.3784 H   0  0  0  0  0  0
    4.8717    0.0746   32.0101 H   0  0  0  0  0  0
    4.4345   -1.5223   31.3133 H   0  0  0  0  0  0
    8.2574    0.5086   27.1630 H   0  0  0  0  0  0
    9.7363   -0.8237   28.6536 H   0  0  0  0  0  0
   10.4260   -3.3297   30.4333 H   0  0  0  0  0  0
   10.8235   -1.6082   30.1092 H   0  0  0  0  0  0
    7.7011   -1.8589   32.6598 H   0  0  0  0  0  0
    7.8714   -3.4883   31.9232 H   0  0  0  0  0  0
    9.4849   -2.3798   34.0271 H   0  0  0  0  0  0
    9.7980   -3.8969   33.1177 H   0  0  0  0  0  0
   10.9319   -1.0663   32.5141 H   0  0  0  0  0  0
   12.7927   -1.9087   32.8661 H   0  0  0  0  0  0
   11.9671   -3.3727   33.4999 H   0  0  0  0  0  0
   13.6714   -3.9300   31.8874 H   0  0  0  0  0  0
   12.8631   -2.9071   30.6517 H   0  0  0  0  0  0
   12.0374   -4.3711   31.2856 H   0  0  0  0  0  0
  1  2  1  0  0  0
  1 38  1  0  0  0
  1 39  1  0  0  0
  1 40  1  0  0  0
  2  3  1  0  0  0
  2  4  1  0  0  0
  2 41  1  0  0  0
  3 42  1  0  0  0
  3 43  1  0  0  0
  3 44  1  0  0  0
  4  5  1  0  0  0
  4 45  1  0  0  0
  5  6  2  0  0  0
  5  7  2  0  0  0
  5  8  1  0  0  0
  8  9  2  0  0  0
  8 13  1  0  0  0
  9 10  1  0  0  0
  9 46  1  0  0  0
 10 11  2  0  0  0
 10 47  1  0  0  0
 11 12  1  0  0  0
 11 48  1  0  0  0
 12 13  2  0  0  0
 12 49  1  0  0  0
 13 14  1  0  0  0
 14 15  1  0  0  0
 14 50  1  0  0  0
 15 16  2  0  0  0
 15 17  1  0  0  0
 16 21  1  0  0  0
 17 18  1  0  0  0
 17 19  2  0  0  0
 19 20  1  0  0  0
 19 51  1  0  0  0
 20 21  2  0  0  0
 21 22  1  0  0  0
 22 23  1  0  0  0
 22 52  1  0  0  0
 23 24  2  0  0  0
 23 28  1  0  0  0
 24 25  1  0  0  0
 24 26  1  0  0  0
 25 30  2  0  0  0
 25 53  1  0  0  0
 26 27  1  0  0  0
 27 54  1  0  0  0
 27 55  1  0  0  0
 27 56  1  0  0  0
 28 29  2  0  0  0
 28 57  1  0  0  0
 29 30  1  0  0  0
 29 58  1  0  0  0
 30 31  1  0  0  0
 31 32  1  0  0  0
 31 33  1  0  0  0
 32 35  1  0  0  0
 32 59  1  0  0  0
 32 60  1  0  0  0
 33 34  1  0  0  0
 33 61  1  0  0  0
 33 62  1  0  0  0
 34 35  1  0  0  0
 34 63  1  0  0  0
 34 64  1  0  0  0
 35 36  1  0  0  0
 35 65  1  0  0  0
 36 37  1  0  0  0
 36 66  1  0  0  0
 36 67  1  0  0  0
 37 68  1  0  0  0
 37 69  1  0  0  0
 37 70  1  0  0  0
M  CHG  1  36   1
M  END
> <s_m_source_file>
../2jkm_ligand.sdf

> <i_m_source_file_index>
1

> <s_epik_input>
W0NIM11bQ0hdKFtDSDNdKVtOSF1TKD1PKSg9TyljMVtjSF1bY0hdW2NIXVtjSF1jMVtOSF1jMm5jKG5bY0hdYzJDbClbTkhdYzNjKE9bQ0gzXSlbY0hdYyhbY0hdW2NIXTMpTjRbQ0gyXVtDQEBIXShbQ0gyXVtDSDJdNClbTkgyK11bQ0gzXQ==

> <s_epik_cmdline>
J2VwaWtfYXBwJywgJy1pbWFlJywgJ2xpZ2FuZF9wcm8ubWFlJywgJy1vbWFlJywgJ2xpZ2FuZF9wcmVwLm1hZScsICctbXMnLCAnMScsICctcGgnLCAnNycsICctcGh0JywgJzAuNScsICctbnQn

> <r_lp_tautomer_probability>
1

> <r_epik_Ionization_Penalty>
  0.0039

> <r_epik_Ionization_Penalty_Charging>
  0.0036

> <r_epik_Ionization_Penalty_Neutral>
  0.0003

> <r_epik_State_Penalty>
 -0.0000

> <r_epik_Charging_Adjusted_Penalty>
0.00355186088422204

> <i_epik_Tot_Q>
1

> <i_epik_Tot_abs_Q>
1

$$$$
