2jko_ligand
                    3D
 Schrodinger Suite 2020-3.
 64 68  0  0  1  0            999 V2000
   29.1450   20.0430   31.1850 C   0  0  0  0  0  0
   28.1560   19.7580   30.0440 C   0  0  0  0  0  0
   26.9130   19.1920   30.5960 N   0  3  0  0  0  0
   26.0570   18.6960   29.5020 C   0  0  0  0  0  0
   26.1880   20.2270   31.3640 C   0  0  0  0  0  0
   27.0140   20.6490   32.6070 C   0  0  0  0  0  0
   28.4980   20.7390   32.3510 N   0  0  0  0  0  0
   29.3250   21.4750   33.2520 C   0  0  0  0  0  0
   30.7020   21.5630   33.0320 C   0  0  0  0  0  0
   31.5390   22.2750   33.9020 C   0  0  0  0  0  0
   32.8870   22.3620   33.6740 O   0  0  0  0  0  0
   33.3070   21.8740   32.3690 C   0  0  0  0  0  0
   28.7920   22.1100   34.3810 C   0  0  0  0  0  0
   29.6190   22.8200   35.2580 C   0  0  0  0  0  0
   30.9970   22.9180   35.0220 C   0  0  0  0  0  0
   31.8260   23.5860   35.8480 N   0  0  0  0  0  0
   31.5480   24.7030   36.5470 C   0  0  0  0  0  0
   30.2890   25.1830   36.6290 N   0  0  0  0  0  0
   32.5560   25.3400   37.1830 N   0  0  0  0  0  0
   32.3300   26.4420   37.8920 C   0  0  0  0  0  0
   31.0340   26.9590   37.9860 C   0  0  0  0  0  0
   30.7170   28.3930   38.9100 Cl  0  0  0  0  0  0
   29.9930   26.2940   37.3340 C   0  0  0  0  0  0
   28.7270   26.7600   37.4070 N   0  0  0  0  0  0
   27.6420   25.9660   37.3250 C   0  0  0  0  0  0
   26.8080   25.7410   38.4390 C   0  0  0  0  0  0
   26.8420   26.1850   39.7730 C   0  0  0  0  0  0
   27.7000   26.9420   40.2350 O   0  0  0  0  0  0
   25.8270   25.6810   40.4920 N   0  0  0  0  0  0
   25.5580   25.9420   41.9300 C   0  0  0  0  0  0
   24.9790   24.8300   39.6490 C   0  0  0  0  0  0
   25.6890   24.9050   38.2970 C   0  0  0  0  0  0
   25.3960   24.3060   37.0710 C   0  0  0  0  0  0
   26.2180   24.5330   35.9680 C   0  0  0  0  0  0
   27.3310   25.3640   36.0980 C   0  0  0  0  0  0
   29.5672   19.0950   31.5496 H   0  0  0  0  0  0
   29.9561   20.6873   30.8149 H   0  0  0  0  0  0
   27.9272   20.6947   29.5146 H   0  0  0  0  0  0
   28.6038   19.0398   29.3414 H   0  0  0  0  0  0
   27.1692   18.3545   31.2615 H   0  0  0  0  0  0
   26.5988   17.9264   28.9326 H   0  0  0  0  0  0
   25.7954   19.5300   28.8342 H   0  0  0  0  0  0
   25.1384   18.2616   29.9233 H   0  0  0  0  0  0
   26.0220   21.1077   30.7263 H   0  0  0  0  0  0
   25.2187   19.8261   31.6952 H   0  0  0  0  0  0
   26.6813   21.6401   32.9490 H   0  0  0  0  0  0
   26.8659   19.9145   33.4123 H   0  0  0  0  0  0
   31.1353   21.0665   32.1638 H   0  0  0  0  0  0
   34.3975   21.9806   32.2713 H   0  0  0  0  0  0
   32.8094   22.4587   31.5813 H   0  0  0  0  0  0
   33.0317   20.8138   32.2680 H   0  0  0  0  0  0
   27.7217   22.0503   34.5783 H   0  0  0  0  0  0
   29.1868   23.3024   36.1347 H   0  0  0  0  0  0
   32.8530   23.2251   36.0064 H   0  0  0  0  0  0
   33.1546   26.9422   38.3998 H   0  0  0  0  0  0
   28.5440   27.8365   37.5398 H   0  0  0  0  0  0
   26.3355   26.6073   42.3336 H   0  0  0  0  0  0
   25.5658   24.9911   42.4829 H   0  0  0  0  0  0
   24.5736   26.4208   42.0378 H   0  0  0  0  0  0
   24.9531   23.8118   40.0646 H   0  0  0  0  0  0
   23.9590   25.2410   39.6218 H   0  0  0  0  0  0
   24.5234   23.6598   36.9757 H   0  0  0  0  0  0
   25.9925   24.0642   35.0102 H   0  0  0  0  0  0
   27.9680   25.5478   35.2328 H   0  0  0  0  0  0
  1  2  1  0  0  0
  1  7  1  0  0  0
  1 36  1  0  0  0
  1 37  1  0  0  0
  2  3  1  0  0  0
  2 38  1  0  0  0
  2 39  1  0  0  0
  3  4  1  0  0  0
  3  5  1  0  0  0
  3 40  1  0  0  0
  4 41  1  0  0  0
  4 42  1  0  0  0
  4 43  1  0  0  0
  5  6  1  0  0  0
  5 44  1  0  0  0
  5 45  1  0  0  0
  6  7  1  0  0  0
  6 46  1  0  0  0
  6 47  1  0  0  0
  7  8  1  0  0  0
  8  9  2  0  0  0
  8 13  1  0  0  0
  9 10  1  0  0  0
  9 48  1  0  0  0
 10 11  1  0  0  0
 10 15  2  0  0  0
 11 12  1  0  0  0
 12 49  1  0  0  0
 12 50  1  0  0  0
 12 51  1  0  0  0
 13 14  2  0  0  0
 13 52  1  0  0  0
 14 15  1  0  0  0
 14 53  1  0  0  0
 15 16  1  0  0  0
 16 17  1  0  0  0
 16 54  1  0  0  0
 17 18  2  0  0  0
 17 19  1  0  0  0
 18 23  1  0  0  0
 19 20  2  0  0  0
 20 21  1  0  0  0
 20 55  1  0  0  0
 21 22  1  0  0  0
 21 23  2  0  0  0
 23 24  1  0  0  0
 24 25  1  0  0  0
 24 56  1  0  0  0
 25 26  2  0  0  0
 25 35  1  0  0  0
 26 27  1  0  0  0
 26 32  1  0  0  0
 27 28  2  0  0  0
 27 29  1  0  0  0
 29 30  1  0  0  0
 29 31  1  0  0  0
 30 57  1  0  0  0
 30 58  1  0  0  0
 30 59  1  0  0  0
 31 32  1  0  0  0
 31 60  1  0  0  0
 31 61  1  0  0  0
 32 33  2  0  0  0
 33 34  1  0  0  0
 33 62  1  0  0  0
 34 35  2  0  0  0
 34 63  1  0  0  0
 35 64  1  0  0  0
M  CHG  1   3   1
M  END
> <s_m_source_file>
../2jko_ligand.sdf

> <i_m_source_file_index>
1

> <s_epik_input>
W0NIM11bTkgrXTFbQ0gyXVtDSDJdTihbQ0gyXVtDSDJdMSljMltjSF1jKE9bQ0gzXSljKFtjSF1bY0hdMilbTkhdYzNuYyhjKENsKVtjSF1uMylbTkhdYzRbY0hdW2NIXVtjSF1jKGM0NSlbQ0gyXU4oQzU9TylbQ0gzXQ==

> <s_epik_cmdline>
J2VwaWtfYXBwJywgJy1pbWFlJywgJ2xpZ2FuZF9wcm8ubWFlJywgJy1vbWFlJywgJ2xpZ2FuZF9wcmVwLm1hZScsICctbXMnLCAnMScsICctcGgnLCAnNycsICctcGh0JywgJzAuNScsICctbnQn

> <r_lp_tautomer_probability>
1

> <r_epik_Ionization_Penalty>
  0.0696

> <r_epik_Ionization_Penalty_Charging>
  0.0647

> <r_epik_Ionization_Penalty_Neutral>
  0.0049

> <r_epik_State_Penalty>
 -0.0000

> <r_epik_Charging_Adjusted_Penalty>
0.0647487349615153

> <i_epik_Tot_Q>
1

> <i_epik_Tot_abs_Q>
1

$$$$
