2jkp_ligand
                    3D
 Schrodinger Suite 2020-3.
 29 30  0  0  1  0            999 V2000
   22.1680   43.8310   69.9760 C   0  0  0  0  0  0
   21.7770   42.8910   71.1310 C   0  0  1  0  0  0
   23.0400   42.2660   71.7000 C   0  0  2  0  0  0
   23.6740   41.4420   70.5660 C   0  0  1  0  0  0
   24.1760   42.3380   69.4610 C   0  0  1  0  0  0
   24.4800   41.6390   68.1540 C   0  0  1  0  0  0
   21.0420   43.7410   72.0520 O   0  0  0  0  0  0
   22.6560   41.4290   72.7790 O   0  0  0  0  0  0
   24.8190   40.7070   70.9650 O   0  0  0  0  0  0
   23.4530   40.7220   67.7850 O   0  0  0  0  0  0
   23.1320   43.2660   69.0460 N   0  3  3  0  0  0
   24.4330   42.7940   67.1940 C   0  0  0  0  0  0
   23.2790   43.6770   67.6560 C   0  0  0  0  0  0
   21.2713   44.0886   69.3933 H   0  0  0  0  0  0
   22.6153   44.7487   70.3855 H   0  0  0  0  0  0
   21.1125   42.0486   70.8888 H   0  0  0  0  0  0
   23.7463   42.9884   72.1351 H   0  0  0  0  0  0
   22.9192   40.7081   70.2471 H   0  0  0  0  0  0
   25.0638   42.8148   69.9020 H   0  0  0  0  0  0
   25.3896   41.0205   68.1685 H   0  0  0  0  0  0
   20.1151   44.2346   71.7244 H   0  0  0  0  0  0
   22.1853   41.8648   73.6726 H   0  0  0  0  0  0
   24.7415   39.9632   71.7717 H   0  0  0  0  0  0
   23.3091   39.7963   68.3615 H   0  0  0  0  0  0
   22.0755   43.0426   69.2554 H   0  0  0  0  0  0
   25.3884   43.3382   67.2281 H   0  0  0  0  0  0
   24.2619   42.4170   66.1749 H   0  0  0  0  0  0
   22.3410   43.4831   67.1152 H   0  0  0  0  0  0
   23.5111   44.7514   67.6139 H   0  0  0  0  0  0
  1  2  1  0  0  0
  1 11  1  0  0  0
  1 14  1  0  0  0
  1 15  1  0  0  0
  2  3  1  0  0  0
  2  7  1  0  0  0
  2 16  1  0  0  0
  3  4  1  0  0  0
  3  8  1  0  0  0
  3 17  1  0  0  0
  4  5  1  0  0  0
  4  9  1  0  0  0
  4 18  1  0  0  0
  5  6  1  0  0  0
  5 11  1  0  0  0
  5 19  1  0  0  0
  6 10  1  0  0  0
  6 12  1  0  0  0
  6 20  1  0  0  0
  7 21  1  0  0  0
  8 22  1  0  0  0
  9 23  1  0  0  0
 10 24  1  0  0  0
 11 13  1  0  0  0
 11 25  1  0  0  0
 12 13  1  0  0  0
 12 26  1  0  0  0
 12 27  1  0  0  0
 13 28  1  0  0  0
 13 29  1  0  0  0
M  CHG  1  11   1
M  END
> <s_m_source_file>
../2jkp_ligand.sdf

> <i_m_source_file_index>
1

> <s_epik_input>
W09IXVtDQEhdMVtDQEhdKFtPSF0pW0NAQEhdKFtPSF0pW0NIMl1bTkgrXShbQ0BASF0xMilbQ0gyXVtDSDJdW0NAQEhdMltPSF0=

> <s_epik_cmdline>
J2VwaWtfYXBwJywgJy1pbWFlJywgJ2xpZ2FuZF9wcm8ubWFlJywgJy1vbWFlJywgJ2xpZ2FuZF9wcmVwLm1hZScsICctbXMnLCAnMScsICctcGgnLCAnNycsICctcGh0JywgJzAuNScsICctbnQn

> <r_epik_Ionization_Penalty>
  0.0117

> <r_epik_Ionization_Penalty_Charging>
  0.0117

> <r_epik_Ionization_Penalty_Neutral>
  0.0000

> <r_epik_State_Penalty>
  0.0090

> <r_epik_Charging_Adjusted_Penalty>
0.0207317003209308

> <i_epik_Tot_Q>
1

> <i_epik_Tot_abs_Q>
1

$$$$
