2jkq_ligand
                    3D
 Schrodinger Suite 2020-3.
 77 82  0  0  1  0            999 V2000
   15.2250   -3.5540   26.7410 C   0  0  0  0  0  0
   16.0350   -4.8540   27.1440 C   0  0  0  0  0  0
   16.9640   -4.5870   28.3480 C   0  0  0  0  0  0
   17.9690   -3.4470   28.0440 C   0  0  0  0  0  0
   17.3060   -2.3690   27.1230 C   0  0  0  0  0  0
   15.8500   -2.3730   27.4100 N   0  3  0  0  0  0
   15.2620   -1.0410   27.0540 C   0  0  0  0  0  0
   14.5800   -1.0050   25.6590 C   0  0  0  0  0  0
   13.9790    0.3890   25.4110 C   0  0  0  0  0  0
   14.3000   -0.5350   28.1710 C   0  0  0  0  0  0
   12.8770   -0.2280   27.6590 C   0  0  0  0  0  0
   12.9030    0.6190   26.4170 N   0  0  0  0  0  0
   11.8850    1.5970   26.2480 C   0  0  0  0  0  0
   11.0940    1.9120   27.3500 C   0  0  0  0  0  0
   10.0730    2.8440   27.2590 C   0  0  0  0  0  0
   11.6200    2.2470   25.0400 C   0  0  0  0  0  0
   12.3090    2.1150   23.6760 C   0  0  0  0  0  0
   11.5450    3.0710   22.8750 N   0  0  0  0  0  0
   11.7750    3.3480   21.4510 C   0  0  0  0  0  0
   10.6050    3.6520   23.6130 C   0  0  0  0  0  0
    9.8360    4.5000   23.1600 O   0  0  0  0  0  0
   10.6000    3.1930   24.9350 C   0  0  0  0  0  0
    9.8100    3.4890   26.0560 C   0  0  0  0  0  0
    8.8040    4.3870   26.0220 N   0  0  0  0  0  0
    7.5110    3.9950   26.0630 C   0  0  0  0  0  0
    7.1600    2.8460   26.6750 N   0  0  0  0  0  0
    6.4950    4.7500   25.4790 C   0  0  0  0  0  0
    6.8220    6.2570   24.6740 Cl  0  0  0  0  0  0
    5.1860    4.2720   25.5570 C   0  0  0  0  0  0
    4.9090    3.1280   26.1670 N   0  0  0  0  0  0
    5.8860    2.4140   26.7300 C   0  0  0  0  0  0
    5.5760    1.2660   27.3240 N   0  0  0  0  0  0
    6.4320    0.5420   28.0550 C   0  0  0  0  0  0
    7.7160    0.2490   27.6040 C   0  0  0  0  0  0
    8.5860   -0.5070   28.3860 C   0  0  0  0  0  0
    8.1770   -0.9960   29.6200 C   0  0  0  0  0  0
    6.8920   -0.7120   30.0690 C   0  0  0  0  0  0
    6.0200    0.0500   29.2890 C   0  0  0  0  0  0
    4.7630    0.3210   29.7180 O   0  0  0  0  0  0
    4.3780   -0.6870   30.6870 C   0  0  0  0  0  0
   15.2578   -3.4254   25.6490 H   0  0  0  0  0  0
   14.1795   -3.6577   27.0667 H   0  0  0  0  0  0
   15.3315   -5.6546   27.4163 H   0  0  0  0  0  0
   16.6509   -5.1808   26.2932 H   0  0  0  0  0  0
   16.3597   -4.2966   29.2201 H   0  0  0  0  0  0
   17.5315   -5.4996   28.5827 H   0  0  0  0  0  0
   18.2804   -2.9719   28.9860 H   0  0  0  0  0  0
   18.8507   -3.8619   27.5336 H   0  0  0  0  0  0
   17.7389   -1.3821   27.3435 H   0  0  0  0  0  0
   17.4910   -2.6233   26.0689 H   0  0  0  0  0  0
   15.6510   -2.4999   28.4844 H   0  0  0  0  0  0
   16.1413   -0.3832   26.9891 H   0  0  0  0  0  0
   15.3257   -1.2241   24.8806 H   0  0  0  0  0  0
   13.7796   -1.7587   25.6226 H   0  0  0  0  0  0
   14.7648    1.1513   25.5175 H   0  0  0  0  0  0
   13.5612    0.4326   24.3944 H   0  0  0  0  0  0
   14.2116   -1.3024   28.9541 H   0  0  0  0  0  0
   14.7012    0.3910   28.6087 H   0  0  0  0  0  0
   12.3605   -1.1704   27.4243 H   0  0  0  0  0  0
   12.3168    0.3136   28.4355 H   0  0  0  0  0  0
   11.2817    1.4159   28.3022 H   0  0  0  0  0  0
    9.4708    3.0735   28.1381 H   0  0  0  0  0  0
   13.3721    2.3797   23.7751 H   0  0  0  0  0  0
   12.2210    1.0781   23.3195 H   0  0  0  0  0  0
   12.6111    2.7322   21.0881 H   0  0  0  0  0  0
   12.0193    4.4124   21.3193 H   0  0  0  0  0  0
   10.8668    3.1068   20.8792 H   0  0  0  0  0  0
    9.0283    5.4621   25.9597 H   0  0  0  0  0  0
    4.3774    4.8493   25.1086 H   0  0  0  0  0  0
    4.5601    0.8549   27.2300 H   0  0  0  0  0  0
    8.0433    0.6143   26.6306 H   0  0  0  0  0  0
    9.5939   -0.7161   28.0274 H   0  0  0  0  0  0
    8.8546   -1.5947   30.2286 H   0  0  0  0  0  0
    6.5627   -1.0874   31.0379 H   0  0  0  0  0  0
    3.3586   -0.4808   31.0453 H   0  0  0  0  0  0
    5.0767   -0.6649   31.5363 H   0  0  0  0  0  0
    4.4067   -1.6799   30.2143 H   0  0  0  0  0  0
  1  2  1  0  0  0
  1  6  1  0  0  0
  1 41  1  0  0  0
  1 42  1  0  0  0
  2  3  1  0  0  0
  2 43  1  0  0  0
  2 44  1  0  0  0
  3  4  1  0  0  0
  3 45  1  0  0  0
  3 46  1  0  0  0
  4  5  1  0  0  0
  4 47  1  0  0  0
  4 48  1  0  0  0
  5  6  1  0  0  0
  5 49  1  0  0  0
  5 50  1  0  0  0
  6  7  1  0  0  0
  6 51  1  0  0  0
  7  8  1  0  0  0
  7 10  1  0  0  0
  7 52  1  0  0  0
  8  9  1  0  0  0
  8 53  1  0  0  0
  8 54  1  0  0  0
  9 12  1  0  0  0
  9 55  1  0  0  0
  9 56  1  0  0  0
 10 11  1  0  0  0
 10 57  1  0  0  0
 10 58  1  0  0  0
 11 12  1  0  0  0
 11 59  1  0  0  0
 11 60  1  0  0  0
 12 13  1  0  0  0
 13 14  2  0  0  0
 13 16  1  0  0  0
 14 15  1  0  0  0
 14 61  1  0  0  0
 15 23  2  0  0  0
 15 62  1  0  0  0
 16 17  1  0  0  0
 16 22  2  0  0  0
 17 18  1  0  0  0
 17 63  1  0  0  0
 17 64  1  0  0  0
 18 19  1  0  0  0
 18 20  1  0  0  0
 19 65  1  0  0  0
 19 66  1  0  0  0
 19 67  1  0  0  0
 20 21  2  0  0  0
 20 22  1  0  0  0
 22 23  1  0  0  0
 23 24  1  0  0  0
 24 25  1  0  0  0
 24 68  1  0  0  0
 25 26  2  0  0  0
 25 27  1  0  0  0
 26 31  1  0  0  0
 27 28  1  0  0  0
 27 29  2  0  0  0
 29 30  1  0  0  0
 29 69  1  0  0  0
 30 31  2  0  0  0
 31 32  1  0  0  0
 32 33  1  0  0  0
 32 70  1  0  0  0
 33 34  2  0  0  0
 33 38  1  0  0  0
 34 35  1  0  0  0
 34 71  1  0  0  0
 35 36  2  0  0  0
 35 72  1  0  0  0
 36 37  1  0  0  0
 36 73  1  0  0  0
 37 38  2  0  0  0
 37 74  1  0  0  0
 38 39  1  0  0  0
 39 40  1  0  0  0
 40 75  1  0  0  0
 40 76  1  0  0  0
 40 77  1  0  0  0
M  CHG  1   6   1
M  END
> <s_m_source_file>
../2jkq_ligand.sdf

> <i_m_source_file_index>
1

> <s_epik_input>
W0NIMl0xW0NIMl1bQ0gyXVtDSDJdW0NIMl1bTkgrXTFbQ0hdMltDSDJdW0NIMl1OKFtDSDJdW0NIMl0yKWMzW2NIXVtjSF1jKGMoYzM0KUMoPU8pTihbQ0gyXTQpW0NIM10pW05IXWM1bmMobltjSF1jNUNsKVtOSF1jNltjSF1bY0hdW2NIXVtjSF1jNk9bQ0gzXQ==

> <s_epik_cmdline>
J2VwaWtfYXBwJywgJy1pbWFlJywgJ2xpZ2FuZF9wcm8ubWFlJywgJy1vbWFlJywgJ2xpZ2FuZF9wcmVwLm1hZScsICctbXMnLCAnMScsICctcGgnLCAnNycsICctcGh0JywgJzAuNScsICctbnQn

> <r_lp_tautomer_probability>
1

> <r_epik_Ionization_Penalty>
  0.0012

> <r_epik_Ionization_Penalty_Charging>
  0.0007

> <r_epik_Ionization_Penalty_Neutral>
  0.0005

> <r_epik_State_Penalty>
 -0.0000

> <r_epik_Charging_Adjusted_Penalty>
0.000652723164520462

> <i_epik_Tot_Q>
1

> <i_epik_Tot_abs_Q>
1

$$$$
