2jkr_ligand
                    3D
 Schrodinger Suite 2020-3.
162161  0  0  1  0            999 V2000
   60.7250  -32.9290  -91.8250 N   0  3  0  0  0  0
   59.6620  -33.8770  -92.1670 C   0  0  2  0  0  0
   59.5910  -34.1380  -93.6790 C   0  0  0  0  0  0
   58.9800  -33.3660  -94.4310 O   0  0  0  0  0  0
   58.3120  -33.3870  -91.6430 C   0  0  0  0  0  0
   57.8600  -32.0310  -92.1960 C   0  0  0  0  0  0
   59.1560  -30.7680  -92.1910 S   0  0  0  0  0  0
   58.2330  -29.2760  -92.5780 C   0  0  0  0  0  0
   60.2160  -35.2420  -94.0980 N   0  0  0  0  0  0
   60.4090  -35.5950  -95.5120 C   0  0  1  0  0  0
   59.6170  -36.8340  -95.9090 C   0  0  0  0  0  0
   60.3790  -37.6040  -96.8220 O   0  0  0  0  0  0
   60.1740  -34.4500  -96.4980 C   0  0  0  0  0  0
   59.0780  -34.2520  -97.0520 O   0  0  0  0  0  0
   61.2540  -33.7180  -96.7160 N   0  0  0  0  0  0
   61.2410  -32.5030  -97.4990 C   0  0  2  0  0  0
   61.3610  -32.7880  -99.0030 C   0  0  0  0  0  0
   61.7250  -31.9120  -99.7820 O   0  0  0  0  0  0
   62.3700  -31.5970  -96.9890 C   0  0  0  0  0  0
   62.3740  -31.4720  -95.4560 C   0  0  0  0  0  0
   63.5700  -30.7100  -94.9130 C   0  0  0  0  0  0
   63.5490  -30.2260  -93.7810 O   0  0  0  0  0  0
   64.6230  -30.6050  -95.7160 N   0  0  0  0  0  0
   61.0550  -34.0160  -99.4090 N   0  0  0  0  0  0
   61.1690  -34.3860 -100.8180 C   0  0  2  0  0  0
   59.7990  -34.5200 -101.4820 C   0  0  0  0  0  0
   59.7110  -34.7250 -102.7020 O   0  0  0  0  0  0
   62.0360  -35.6770 -101.0370 C   0  0  2  0  0  0
   62.0390  -36.1110 -102.5100 C   0  0  0  0  0  0
   61.5580  -36.8410 -100.1600 C   0  0  0  0  0  0
   62.6580  -35.1200 -103.4750 C   0  0  0  0  0  0
   58.7370  -34.3990 -100.6810 N   0  0  0  0  0  0
   57.3730  -34.4560 -101.2100 C   0  0  2  0  0  0
   57.1740  -33.3220 -102.2080 C   0  0  0  0  0  0
   57.5680  -32.1790 -101.9410 O   0  0  0  0  0  0
   56.3450  -34.3720 -100.0720 C   0  0  0  0  0  0
   54.8700  -34.5430 -100.4900 C   0  0  0  0  0  0
   54.0250  -35.0170  -99.3050 C   0  0  0  0  0  0
   54.6710  -36.2460  -98.6260 C   0  0  0  0  0  0
   53.8530  -36.8140  -97.5190 N   0  3  0  0  0  0
   56.5850  -33.6350 -103.3610 N   0  0  0  0  0  0
   56.3240  -32.6170 -104.3790 C   0  0  2  0  0  0
   55.4430  -31.5070 -103.8240 C   0  0  0  0  0  0
   54.5700  -31.7540 -102.9950 O   0  0  0  0  0  0
   55.6360  -33.2280 -105.5910 C   0  0  0  0  0  0
   56.4800  -34.1720 -106.4030 C   0  0  0  0  0  0
   55.5890  -34.9130 -107.3660 C   0  0  0  0  0  0
   56.3410  -35.7320 -108.3070 N   0  0  0  0  0  0
   55.7830  -36.6350 -109.1080 C   0  0  0  0  0  0
   54.4730  -36.8310 -109.0810 N   0  0  0  0  0  0
   56.5310  -37.3440 -109.9350 N   0  0  0  0  0  0
   55.6640  -30.2830 -104.2850 N   0  0  0  0  0  0
   54.8540  -29.1530 -103.8410 C   0  0  2  0  0  0
   53.5550  -29.0650 -104.6150 C   0  0  0  0  0  0
   52.6340  -28.3880 -104.1770 O   0  0  0  0  0  0
   55.6170  -27.8410 -103.9860 C   0  0  0  0  0  0
   56.9530  -27.7540 -103.2610 C   0  0  0  0  0  0
   57.2630  -26.3100 -102.9760 C   0  0  0  0  0  0
   56.8820  -28.5160 -101.9670 C   0  0  0  0  0  0
   53.4900  -29.7510 -105.7570 N   0  0  0  0  0  0
   52.3070  -29.7240 -106.6140 C   0  0  2  0  0  0
   51.7800  -31.1120 -106.9550 C   0  0  0  0  0  0
   51.6860  -31.9880 -106.0920 O   0  0  0  0  0  0
   52.5880  -28.9800 -107.9240 C   0  0  0  0  0  0
   52.7340  -27.4660 -107.9330 C   0  0  0  0  0  0
   52.4670  -26.9510 -109.3330 C   0  0  0  0  0  0
   51.7880  -26.8130 -106.9380 C   0  0  0  0  0  0
   51.4190  -31.2710 -108.2290 N   0  0  0  0  0  0
   50.8130  -32.4890 -108.7660 C   0  0  2  0  0  0
   49.6070  -32.9330 -107.9480 C   0  0  0  0  0  0
   48.6680  -32.1570 -107.7600 O   0  0  0  0  0  0
   51.8470  -33.6110 -108.8960 C   0  0  0  0  0  0
   52.8440  -33.2710 -109.8500 O   0  0  0  0  0  0
   49.5672  -34.1598 -107.4359 O   0  0  0  0  0  0
   61.6858  -33.3006  -92.2108 H   0  0  0  0  0  0
   60.7849  -32.8240  -90.7317 H   0  0  0  0  0  0
   60.5026  -31.9505  -92.2757 H   0  0  0  0  0  0
   59.9454  -34.8088  -91.6556 H   0  0  0  0  0  0
   57.5300  -34.1136  -91.9086 H   0  0  0  0  0  0
   58.3593  -33.2827  -90.5490 H   0  0  0  0  0  0
   57.5277  -32.1522  -93.2376 H   0  0  0  0  0  0
   57.0280  -31.6460  -91.5881 H   0  0  0  0  0  0
   58.9195  -28.4170  -92.6058 H   0  0  0  0  0  0
   57.4669  -29.1083  -91.8066 H   0  0  0  0  0  0
   57.7474  -29.3892  -93.5585 H   0  0  0  0  0  0
   60.5975  -35.9060  -93.3083 H   0  0  0  0  0  0
   61.4847  -35.8234  -95.5393 H   0  0  0  0  0  0
   59.4005  -37.4336  -95.0125 H   0  0  0  0  0  0
   58.6724  -36.5291  -96.3831 H   0  0  0  0  0  0
   59.9706  -38.5427  -97.2246 H   0  0  0  0  0  0
   62.1937  -34.0738  -96.2684 H   0  0  0  0  0  0
   60.2569  -32.0398  -97.3345 H   0  0  0  0  0  0
   63.3408  -32.0114  -97.2986 H   0  0  0  0  0  0
   62.2502  -30.5886  -97.4117 H   0  0  0  0  0  0
   61.4686  -30.9396  -95.1292 H   0  0  0  0  0  0
   62.3915  -32.4757  -95.0063 H   0  0  0  0  0  0
   64.5961  -31.0539  -96.7199 H   0  0  0  0  0  0
   65.5219  -30.0692  -95.3771 H   0  0  0  0  0  0
   60.7129  -34.7571  -98.6717 H   0  0  0  0  0  0
   61.6791  -33.5138 -101.2529 H   0  0  0  0  0  0
   63.0702  -35.4404 -100.7465 H   0  0  0  0  0  0
   62.6077  -37.0467 -102.6154 H   0  0  0  0  0  0
   61.0043  -36.2709 -102.8473 H   0  0  0  0  0  0
   61.5563  -36.5288  -99.1052 H   0  0  0  0  0  0
   62.2353  -37.6983 -100.2876 H   0  0  0  0  0  0
   60.5396  -37.1306 -100.4583 H   0  0  0  0  0  0
   62.6101  -35.5244 -104.4968 H   0  0  0  0  0  0
   63.7083  -34.9460 -103.1984 H   0  0  0  0  0  0
   62.1049  -34.1702 -103.4302 H   0  0  0  0  0  0
   58.9034  -34.2539  -99.6034 H   0  0  0  0  0  0
   57.2688  -35.4257 -101.7188 H   0  0  0  0  0  0
   56.5500  -35.1613  -99.3337 H   0  0  0  0  0  0
   56.4158  -33.3878  -99.5858 H   0  0  0  0  0  0
   54.4757  -33.5797 -100.8458 H   0  0  0  0  0  0
   54.8014  -35.2877 -101.2967 H   0  0  0  0  0  0
   53.9426  -34.2065  -98.5659 H   0  0  0  0  0  0
   53.0209  -35.2945  -99.6583 H   0  0  0  0  0  0
   54.8146  -37.0429  -99.3705 H   0  0  0  0  0  0
   55.6450  -35.9608  -98.2017 H   0  0  0  0  0  0
   54.3735  -37.6810  -97.0860 H   0  0  0  0  0  0
   52.8755  -37.1314  -97.9110 H   0  0  0  0  0  0
   53.7058  -36.0492  -96.7422 H   0  0  0  0  0  0
   56.2936  -34.6803 -103.5411 H   0  0  0  0  0  0
   57.3144  -32.2240 -104.6523 H   0  0  0  0  0  0
   54.7558  -33.8005 -105.2631 H   0  0  0  0  0  0
   55.3185  -32.4271 -106.2749 H   0  0  0  0  0  0
   57.2371  -33.6004 -106.9598 H   0  0  0  0  0  0
   56.9799  -34.8863 -105.7323 H   0  0  0  0  0  0
   54.9142  -35.5762 -106.8050 H   0  0  0  0  0  0
   54.9952  -34.1911 -107.9458 H   0  0  0  0  0  0
   57.4327  -35.6207 -108.3827 H   0  0  0  0  0  0
   53.8432  -36.2450 -108.3955 H   0  0  0  0  0  0
   54.0151  -37.5798 -109.7441 H   0  0  0  0  0  0
   57.6194  -37.1874 -109.9636 H   0  0  0  0  0  0
   56.4732  -30.1270 -105.0136 H   0  0  0  0  0  0
   54.6412  -29.3627 -102.7824 H   0  0  0  0  0  0
   55.8371  -27.6604 -105.0485 H   0  0  0  0  0  0
   55.0052  -27.0157 -103.5929 H   0  0  0  0  0  0
   57.7510  -28.1868 -103.8822 H   0  0  0  0  0  0
   57.3150  -25.7524 -103.9228 H   0  0  0  0  0  0
   58.2290  -26.2383 -102.4547 H   0  0  0  0  0  0
   56.4717  -25.8833 -102.3421 H   0  0  0  0  0  0
   56.6553  -29.5720 -102.1753 H   0  0  0  0  0  0
   56.0907  -28.0892 -101.3331 H   0  0  0  0  0  0
   57.8480  -28.4443 -101.4458 H   0  0  0  0  0  0
   54.3653  -30.3509 -106.0466 H   0  0  0  0  0  0
   51.5705  -29.1966 -105.9899 H   0  0  0  0  0  0
   53.5362  -29.3370 -108.3523 H   0  0  0  0  0  0
   51.7704  -29.1684 -108.6354 H   0  0  0  0  0  0
   53.7599  -27.2048 -107.6341 H   0  0  0  0  0  0
   53.1591  -27.4330 -110.0392 H   0  0  0  0  0  0
   52.6175  -25.8616 -109.3578 H   0  0  0  0  0  0
   51.4306  -27.1846 -109.6181 H   0  0  0  0  0  0
   51.9952  -27.1975 -105.9284 H   0  0  0  0  0  0
   50.7487  -27.0460 -107.2130 H   0  0  0  0  0  0
   51.9357  -25.7231 -106.9527 H   0  0  0  0  0  0
   51.6034  -30.4110 -108.8896 H   0  0  0  0  0  0
   50.4582  -32.2045 -109.7676 H   0  0  0  0  0  0
   52.3306  -33.7785 -107.9223 H   0  0  0  0  0  0
   51.3464  -34.5352 -109.2206 H   0  0  0  0  0  0
   53.6639  -33.9728 -110.0626 H   0  0  0  0  0  0
   48.6968  -34.4812 -106.8451 H   0  0  0  0  0  0
  1  2  1  0  0  0
  1 75  1  0  0  0
  1 76  1  0  0  0
  1 77  1  0  0  0
  2  3  1  0  0  0
  2  5  1  0  0  0
  2 78  1  0  0  0
  3  4  2  0  0  0
  3  9  1  0  0  0
  5  6  1  0  0  0
  5 79  1  0  0  0
  5 80  1  0  0  0
  6  7  1  0  0  0
  6 81  1  0  0  0
  6 82  1  0  0  0
  7  8  1  0  0  0
  8 83  1  0  0  0
  8 84  1  0  0  0
  8 85  1  0  0  0
  9 10  1  0  0  0
  9 86  1  0  0  0
 10 11  1  0  0  0
 10 13  1  0  0  0
 10 87  1  0  0  0
 11 12  1  0  0  0
 11 88  1  0  0  0
 11 89  1  0  0  0
 12 90  1  0  0  0
 13 14  2  0  0  0
 13 15  1  0  0  0
 15 16  1  0  0  0
 15 91  1  0  0  0
 16 17  1  0  0  0
 16 19  1  0  0  0
 16 92  1  0  0  0
 17 18  2  0  0  0
 17 24  1  0  0  0
 19 20  1  0  0  0
 19 93  1  0  0  0
 19 94  1  0  0  0
 20 21  1  0  0  0
 20 95  1  0  0  0
 20 96  1  0  0  0
 21 22  2  0  0  0
 21 23  1  0  0  0
 23 97  1  0  0  0
 23 98  1  0  0  0
 24 25  1  0  0  0
 24 99  1  0  0  0
 25 26  1  0  0  0
 25 28  1  0  0  0
 25100  1  0  0  0
 26 27  2  0  0  0
 26 32  1  0  0  0
 28 29  1  0  0  0
 28 30  1  0  0  0
 28101  1  0  0  0
 29 31  1  0  0  0
 29102  1  0  0  0
 29103  1  0  0  0
 30104  1  0  0  0
 30105  1  0  0  0
 30106  1  0  0  0
 31107  1  0  0  0
 31108  1  0  0  0
 31109  1  0  0  0
 32 33  1  0  0  0
 32110  1  0  0  0
 33 34  1  0  0  0
 33 36  1  0  0  0
 33111  1  0  0  0
 34 35  2  0  0  0
 34 41  1  0  0  0
 36 37  1  0  0  0
 36112  1  0  0  0
 36113  1  0  0  0
 37 38  1  0  0  0
 37114  1  0  0  0
 37115  1  0  0  0
 38 39  1  0  0  0
 38116  1  0  0  0
 38117  1  0  0  0
 39 40  1  0  0  0
 39118  1  0  0  0
 39119  1  0  0  0
 40120  1  0  0  0
 40121  1  0  0  0
 40122  1  0  0  0
 41 42  1  0  0  0
 41123  1  0  0  0
 42 43  1  0  0  0
 42 45  1  0  0  0
 42124  1  0  0  0
 43 44  2  0  0  0
 43 52  1  0  0  0
 45 46  1  0  0  0
 45125  1  0  0  0
 45126  1  0  0  0
 46 47  1  0  0  0
 46127  1  0  0  0
 46128  1  0  0  0
 47 48  1  0  0  0
 47129  1  0  0  0
 47130  1  0  0  0
 48 49  1  0  0  0
 48131  1  0  0  0
 49 50  1  0  0  0
 49 51  2  0  0  0
 50132  1  0  0  0
 50133  1  0  0  0
 51134  1  0  0  0
 52 53  1  0  0  0
 52135  1  0  0  0
 53 54  1  0  0  0
 53 56  1  0  0  0
 53136  1  0  0  0
 54 55  2  0  0  0
 54 60  1  0  0  0
 56 57  1  0  0  0
 56137  1  0  0  0
 56138  1  0  0  0
 57 58  1  0  0  0
 57 59  1  0  0  0
 57139  1  0  0  0
 58140  1  0  0  0
 58141  1  0  0  0
 58142  1  0  0  0
 59143  1  0  0  0
 59144  1  0  0  0
 59145  1  0  0  0
 60 61  1  0  0  0
 60146  1  0  0  0
 61 62  1  0  0  0
 61 64  1  0  0  0
 61147  1  0  0  0
 62 63  2  0  0  0
 62 68  1  0  0  0
 64 65  1  0  0  0
 64148  1  0  0  0
 64149  1  0  0  0
 65 66  1  0  0  0
 65 67  1  0  0  0
 65150  1  0  0  0
 66151  1  0  0  0
 66152  1  0  0  0
 66153  1  0  0  0
 67154  1  0  0  0
 67155  1  0  0  0
 67156  1  0  0  0
 68 69  1  0  0  0
 68157  1  0  0  0
 69 70  1  0  0  0
 69 72  1  0  0  0
 69158  1  0  0  0
 70 71  2  0  0  0
 70 74  1  0  0  0
 72 73  1  0  0  0
 72159  1  0  0  0
 72160  1  0  0  0
 73161  1  0  0  0
 74162  1  0  0  0
M  CHG  2   1   1  40   1
M  END
> <s_m_source_file>
../2jkr_ligand.sdf

> <i_m_source_file_index>
1

> <s_epik_input>
W0NIM11TW0NIMl1bQ0gyXVtDQEhdKFtOSDMrXSlDKD1PKVtOSF1bQ0BASF0oW0NIMl1bT0hdKUMoPU8pW05IXVtDQEBIXShbQ0gyXVtDSDJdQyg9TylbTkgyXSlDKD1PKVtOSF1bQ0BASF0oW0NAQEhdKFtDSDNdKVtDSDJdW0NIM10pQyg9TylbTkhdW0NAQEhdKFtDSDJdW0NIMl1bQ0gyXVtDSDJdW05IMytdKUMoPU8pW05IXVtDQEBIXShbQ0gyXVtDSDJdW0NIMl1bTkhdL0MoW05IMl0pPU5cW0hdKUMoPU8pW05IXVtDQEBIXShbQ0gyXVtDSF0oW0NIM10pW0NIM10pQyg9TylbTkhdW0NAQEhdKFtDSDJdW0NIXShbQ0gzXSlbQ0gzXSlDKD1PKVtOSF1bQ0BIXShDKD1PKVtPSF0pW0NIMl1bT0hd

> <s_epik_cmdline>
J2VwaWtfYXBwJywgJy1pbWFlJywgJ2xpZ2FuZF9wcm8ubWFlJywgJy1vbWFlJywgJ2xpZ2FuZF9wcmVwLm1hZScsICctbXMnLCAnMScsICctcGgnLCAnNycsICctcGh0JywgJzAuNScsICctbnQn

> <s_epik_pKa_notes>
Molecule size exceeds maximum supported for generating protonation states

> <s_epik_Chemistry_Notes>
This compound has an imine and may undergo hydrolysis.

$$$$
