2jkt_ligand
                    3D
 Schrodinger Suite 2020-3.
161160  0  0  1  0            999 V2000
   60.7110  -33.0920  -92.6350 N   0  3  0  0  0  0
   59.5960  -33.9290  -93.0720 C   0  0  2  0  0  0
   59.6410  -34.1860  -94.5870 C   0  0  0  0  0  0
   59.1180  -33.3990  -95.3830 O   0  0  0  0  0  0
   58.2550  -33.3200  -92.6400 C   0  0  0  0  0  0
   57.9170  -31.9680  -93.2650 C   0  0  0  0  0  0
   59.1160  -30.6640  -92.9230 S   0  0  0  0  0  0
   58.2740  -29.2440  -93.6130 C   0  0  0  0  0  0
   60.2700  -35.3060  -94.9570 N   0  0  0  0  0  0
   60.5750  -35.6810  -96.3530 C   0  0  1  0  0  0
   59.7710  -36.9070  -96.8040 C   0  0  0  0  0  0
   60.5160  -37.6710  -97.7450 O   0  0  0  0  0  0
   60.4660  -34.5440  -97.3750 C   0  0  0  0  0  0
   59.4750  -34.4060  -98.0950 O   0  0  0  0  0  0
   61.5280  -33.7580  -97.4510 N   0  0  0  0  0  0
   61.5220  -32.5430  -98.2380 C   0  0  2  0  0  0
   61.6300  -32.8110  -99.7410 C   0  0  0  0  0  0
   61.8930  -31.9070 -100.5330 O   0  0  0  0  0  0
   62.6360  -31.6200  -97.7370 C   0  0  0  0  0  0
   62.4740  -31.2550  -96.2590 C   0  0  0  0  0  0
   63.4890  -30.2320  -95.7720 C   0  0  0  0  0  0
   64.3630  -29.8270  -96.5650 O   0  0  0  0  0  0
   63.4170  -29.8370  -94.5880 O   0  0  0  0  0  0
   61.4190  -34.0550 -100.1420 N   0  0  0  0  0  0
   61.5600  -34.4000 -101.5510 C   0  0  2  0  0  0
   60.2040  -34.6230 -102.2430 C   0  0  0  0  0  0
   60.1330  -34.8540 -103.4530 O   0  0  0  0  0  0
   62.5420  -35.5820 -101.7340 C   0  0  2  0  0  0
   62.4060  -36.2170 -103.1180 C   0  0  0  0  0  0
   62.3390  -36.6140 -100.6380 C   0  0  0  0  0  0
   62.7570  -35.2880 -104.2730 C   0  0  0  0  0  0
   59.1230  -34.5170 -101.4780 N   0  0  0  0  0  0
   57.7900  -34.6500 -102.0590 C   0  0  2  0  0  0
   57.5570  -33.4970 -103.0230 C   0  0  0  0  0  0
   57.8920  -32.3460 -102.7200 O   0  0  0  0  0  0
   56.7130  -34.6750 -100.9680 C   0  0  0  0  0  0
   55.3410  -35.1540 -101.4360 C   0  0  0  0  0  0
   54.4440  -35.4750 -100.2500 C   0  0  0  0  0  0
   55.1600  -36.3970  -99.2680 C   0  0  0  0  0  0
   54.2680  -36.9160  -98.1930 N   0  3  0  0  0  0
   57.0010  -33.8110 -104.1890 N   0  0  0  0  0  0
   56.7040  -32.7910 -105.1810 C   0  0  2  0  0  0
   55.8690  -31.6700 -104.5810 C   0  0  0  0  0  0
   55.0680  -31.9010 -103.6710 O   0  0  0  0  0  0
   55.9300  -33.3920 -106.3420 C   0  0  0  0  0  0
   56.7390  -34.2480 -107.2480 C   0  0  0  0  0  0
   55.8070  -34.9610 -108.1660 C   0  0  0  0  0  0
   56.5070  -35.8230 -109.1030 N   0  0  0  0  0  0
   55.8940  -36.7260 -109.8590 C   0  0  0  0  0  0
   54.5760  -36.8770 -109.7720 N   0  0  0  0  0  0
   56.5880  -37.4790 -110.6960 N   0  0  0  0  0  0
   56.0470  -30.4590 -105.1050 N   0  0  0  0  0  0
   55.2090  -29.3360 -104.7130 C   0  0  2  0  0  0
   53.8670  -29.3420 -105.4490 C   0  0  0  0  0  0
   52.9070  -28.7040 -105.0030 O   0  0  0  0  0  0
   55.9400  -28.0190 -104.9540 C   0  0  0  0  0  0
   57.2290  -27.8180 -104.1570 C   0  0  0  0  0  0
   57.4470  -26.3390 -103.8590 C   0  0  0  0  0  0
   57.1620  -28.5900 -102.8670 C   0  0  0  0  0  0
   53.7960  -30.0870 -106.5540 N   0  0  0  0  0  0
   52.6120  -30.0780 -107.4100 C   0  0  2  0  0  0
   52.0690  -31.4590 -107.7750 C   0  0  0  0  0  0
   52.0850  -32.3930 -106.9670 O   0  0  0  0  0  0
   52.8910  -29.2990 -108.6940 C   0  0  0  0  0  0
   53.0020  -27.7750 -108.6370 C   0  0  0  0  0  0
   53.1090  -27.1940 -110.0610 C   0  0  0  0  0  0
   51.8350  -27.1370 -107.8670 C   0  0  0  0  0  0
   51.5580  -31.5510 -109.0010 N   0  0  0  0  0  0
   50.9770  -32.7770 -109.5280 C   0  0  2  0  0  0
   50.0890  -33.4670 -108.4900 C   0  0  0  0  0  0
   48.9980  -32.9860 -108.1690 O   0  0  0  0  0  0
   52.0750  -33.7250 -110.0320 C   0  0  0  0  0  0
   52.7840  -33.1750 -111.1380 O   0  0  0  0  0  0
   50.4979  -34.6000 -107.9260 O   0  0  0  0  0  0
   61.6593  -33.5480  -92.9555 H   0  0  0  0  0  0
   60.6974  -33.0064  -91.5384 H   0  0  0  0  0  0
   60.6156  -32.0915  -93.0821 H   0  0  0  0  0  0
   59.7418  -34.8870  -92.5515 H   0  0  0  0  0  0
   57.4371  -34.0025  -92.9143 H   0  0  0  0  0  0
   58.2555  -33.1675  -91.5506 H   0  0  0  0  0  0
   57.8623  -32.0730  -94.3586 H   0  0  0  0  0  0
   56.9470  -31.6189  -92.8813 H   0  0  0  0  0  0
   58.8965  -28.3472  -93.4778 H   0  0  0  0  0  0
   57.3115  -29.1032  -93.0994 H   0  0  0  0  0  0
   58.0964  -29.4087  -94.6860 H   0  0  0  0  0  0
   60.5657  -35.9706  -94.1318 H   0  0  0  0  0  0
   61.6439  -35.9320  -96.2854 H   0  0  0  0  0  0
   59.5431  -37.5372  -95.9317 H   0  0  0  0  0  0
   58.8324  -36.5775  -97.2735 H   0  0  0  0  0  0
   60.0852  -38.5883  -98.1729 H   0  0  0  0  0  0
   62.4318  -34.0492  -96.8957 H   0  0  0  0  0  0
   60.5336  -32.0923  -98.0650 H   0  0  0  0  0  0
   63.6084  -32.1198  -97.8579 H   0  0  0  0  0  0
   62.6285  -30.6867  -98.3192 H   0  0  0  0  0  0
   61.4729  -30.8300  -96.0939 H   0  0  0  0  0  0
   62.5951  -32.1582  -95.6428 H   0  0  0  0  0  0
   64.1385  -29.0977  -94.2100 H   0  0  0  0  0  0
   61.1373  -34.8281  -99.4120 H   0  0  0  0  0  0
   61.9978  -33.4988 -102.0050 H   0  0  0  0  0  0
   63.5717  -35.2039 -101.6522 H   0  0  0  0  0  0
   63.0762  -37.0862 -103.1900 H   0  0  0  0  0  0
   61.3664  -36.5419 -103.2718 H   0  0  0  0  0  0
   62.4422  -36.1304  -99.6554 H   0  0  0  0  0  0
   63.0942  -37.4076 -100.7372 H   0  0  0  0  0  0
   61.3336  -37.0512 -100.7278 H   0  0  0  0  0  0
   62.6320  -35.8238 -105.2255 H   0  0  0  0  0  0
   63.8012  -34.9569 -104.1729 H   0  0  0  0  0  0
   62.0913  -34.4125 -104.2546 H   0  0  0  0  0  0
   59.2369  -34.3278 -100.4004 H   0  0  0  0  0  0
   57.7725  -35.6090 -102.5975 H   0  0  0  0  0  0
   57.0265  -35.3510 -100.1588 H   0  0  0  0  0  0
   56.5751  -33.6606 -100.5656 H   0  0  0  0  0  0
   54.8633  -34.3666 -102.0375 H   0  0  0  0  0  0
   55.4580  -36.0616 -102.0464 H   0  0  0  0  0  0
   54.1744  -34.5431  -99.7314 H   0  0  0  0  0  0
   53.5306  -35.9742 -100.6056 H   0  0  0  0  0  0
   55.5671  -37.2638  -99.8092 H   0  0  0  0  0  0
   55.9811  -35.8491  -98.7826 H   0  0  0  0  0  0
   54.8442  -37.5709  -97.5228 H   0  0  0  0  0  0
   53.4437  -37.4875  -98.6446 H   0  0  0  0  0  0
   53.8577  -36.0727  -97.6181 H   0  0  0  0  0  0
   56.7655  -34.8652 -104.3966 H   0  0  0  0  0  0
   57.6866  -32.4165 -105.5038 H   0  0  0  0  0  0
   55.1151  -34.0203 -105.9533 H   0  0  0  0  0  0
   55.5083  -32.5846 -106.9586 H   0  0  0  0  0  0
   57.4319  -33.6184 -107.8255 H   0  0  0  0  0  0
   57.3126  -34.9732 -106.6521 H   0  0  0  0  0  0
   55.1191  -35.5857 -107.5774 H   0  0  0  0  0  0
   55.2296  -34.2259 -108.7458 H   0  0  0  0  0  0
   57.5988  -35.7451 -109.2118 H   0  0  0  0  0  0
   53.9955  -36.2525 -109.0770 H   0  0  0  0  0  0
   54.0659  -37.6264 -110.3950 H   0  0  0  0  0  0
   57.6786  -37.3569 -110.7707 H   0  0  0  0  0  0
   56.8459  -30.3163 -105.8476 H   0  0  0  0  0  0
   55.0307  -29.4837 -103.6376 H   0  0  0  0  0  0
   56.2199  -27.9439 -106.0151 H   0  0  0  0  0  0
   55.2805  -27.1796 -104.6885 H   0  0  0  0  0  0
   58.0775  -28.1953 -104.7467 H   0  0  0  0  0  0
   57.4955  -25.7779 -104.8039 H   0  0  0  0  0  0
   58.3903  -26.2112 -103.3078 H   0  0  0  0  0  0
   56.6125  -25.9608 -103.2503 H   0  0  0  0  0  0
   57.0047  -29.6565 -103.0857 H   0  0  0  0  0  0
   56.3273  -28.2137 -102.2574 H   0  0  0  0  0  0
   58.1051  -28.4641 -102.3150 H   0  0  0  0  0  0
   54.6581  -30.7187 -106.8143 H   0  0  0  0  0  0
   51.8677  -29.5837 -106.7684 H   0  0  0  0  0  0
   53.8509  -29.6261 -109.1201 H   0  0  0  0  0  0
   52.0852  -29.4863 -109.4190 H   0  0  0  0  0  0
   53.9198  -27.5360 -108.0797 H   0  0  0  0  0  0
   53.9505  -27.6675 -110.5879 H   0  0  0  0  0  0
   53.2771  -26.1085 -110.0024 H   0  0  0  0  0  0
   52.1757  -27.3915 -110.6087 H   0  0  0  0  0  0
   51.7824  -27.5692 -106.8568 H   0  0  0  0  0  0
   50.8930  -27.3341 -108.3997 H   0  0  0  0  0  0
   51.9944  -26.0511 -107.7934 H   0  0  0  0  0  0
   51.5886  -30.6448 -109.6238 H   0  0  0  0  0  0
   50.3492  -32.4500 -110.3700 H   0  0  0  0  0  0
   52.7944  -33.9163 -109.2221 H   0  0  0  0  0  0
   51.6212  -34.6748 -110.3513 H   0  0  0  0  0  0
   53.6014  -33.7439 -111.6051 H   0  0  0  0  0  0
   49.8654  -35.1021 -107.1791 H   0  0  0  0  0  0
  1  2  1  0  0  0
  1 75  1  0  0  0
  1 76  1  0  0  0
  1 77  1  0  0  0
  2  3  1  0  0  0
  2  5  1  0  0  0
  2 78  1  0  0  0
  3  4  2  0  0  0
  3  9  1  0  0  0
  5  6  1  0  0  0
  5 79  1  0  0  0
  5 80  1  0  0  0
  6  7  1  0  0  0
  6 81  1  0  0  0
  6 82  1  0  0  0
  7  8  1  0  0  0
  8 83  1  0  0  0
  8 84  1  0  0  0
  8 85  1  0  0  0
  9 10  1  0  0  0
  9 86  1  0  0  0
 10 11  1  0  0  0
 10 13  1  0  0  0
 10 87  1  0  0  0
 11 12  1  0  0  0
 11 88  1  0  0  0
 11 89  1  0  0  0
 12 90  1  0  0  0
 13 14  2  0  0  0
 13 15  1  0  0  0
 15 16  1  0  0  0
 15 91  1  0  0  0
 16 17  1  0  0  0
 16 19  1  0  0  0
 16 92  1  0  0  0
 17 18  2  0  0  0
 17 24  1  0  0  0
 19 20  1  0  0  0
 19 93  1  0  0  0
 19 94  1  0  0  0
 20 21  1  0  0  0
 20 95  1  0  0  0
 20 96  1  0  0  0
 21 22  2  0  0  0
 21 23  1  0  0  0
 23 97  1  0  0  0
 24 25  1  0  0  0
 24 98  1  0  0  0
 25 26  1  0  0  0
 25 28  1  0  0  0
 25 99  1  0  0  0
 26 27  2  0  0  0
 26 32  1  0  0  0
 28 29  1  0  0  0
 28 30  1  0  0  0
 28100  1  0  0  0
 29 31  1  0  0  0
 29101  1  0  0  0
 29102  1  0  0  0
 30103  1  0  0  0
 30104  1  0  0  0
 30105  1  0  0  0
 31106  1  0  0  0
 31107  1  0  0  0
 31108  1  0  0  0
 32 33  1  0  0  0
 32109  1  0  0  0
 33 34  1  0  0  0
 33 36  1  0  0  0
 33110  1  0  0  0
 34 35  2  0  0  0
 34 41  1  0  0  0
 36 37  1  0  0  0
 36111  1  0  0  0
 36112  1  0  0  0
 37 38  1  0  0  0
 37113  1  0  0  0
 37114  1  0  0  0
 38 39  1  0  0  0
 38115  1  0  0  0
 38116  1  0  0  0
 39 40  1  0  0  0
 39117  1  0  0  0
 39118  1  0  0  0
 40119  1  0  0  0
 40120  1  0  0  0
 40121  1  0  0  0
 41 42  1  0  0  0
 41122  1  0  0  0
 42 43  1  0  0  0
 42 45  1  0  0  0
 42123  1  0  0  0
 43 44  2  0  0  0
 43 52  1  0  0  0
 45 46  1  0  0  0
 45124  1  0  0  0
 45125  1  0  0  0
 46 47  1  0  0  0
 46126  1  0  0  0
 46127  1  0  0  0
 47 48  1  0  0  0
 47128  1  0  0  0
 47129  1  0  0  0
 48 49  1  0  0  0
 48130  1  0  0  0
 49 50  1  0  0  0
 49 51  2  0  0  0
 50131  1  0  0  0
 50132  1  0  0  0
 51133  1  0  0  0
 52 53  1  0  0  0
 52134  1  0  0  0
 53 54  1  0  0  0
 53 56  1  0  0  0
 53135  1  0  0  0
 54 55  2  0  0  0
 54 60  1  0  0  0
 56 57  1  0  0  0
 56136  1  0  0  0
 56137  1  0  0  0
 57 58  1  0  0  0
 57 59  1  0  0  0
 57138  1  0  0  0
 58139  1  0  0  0
 58140  1  0  0  0
 58141  1  0  0  0
 59142  1  0  0  0
 59143  1  0  0  0
 59144  1  0  0  0
 60 61  1  0  0  0
 60145  1  0  0  0
 61 62  1  0  0  0
 61 64  1  0  0  0
 61146  1  0  0  0
 62 63  2  0  0  0
 62 68  1  0  0  0
 64 65  1  0  0  0
 64147  1  0  0  0
 64148  1  0  0  0
 65 66  1  0  0  0
 65 67  1  0  0  0
 65149  1  0  0  0
 66150  1  0  0  0
 66151  1  0  0  0
 66152  1  0  0  0
 67153  1  0  0  0
 67154  1  0  0  0
 67155  1  0  0  0
 68 69  1  0  0  0
 68156  1  0  0  0
 69 70  1  0  0  0
 69 72  1  0  0  0
 69157  1  0  0  0
 70 71  2  0  0  0
 70 74  1  0  0  0
 72 73  1  0  0  0
 72158  1  0  0  0
 72159  1  0  0  0
 73160  1  0  0  0
 74161  1  0  0  0
M  CHG  2   1   1  40   1
M  END
> <s_m_source_file>
../2jkt_ligand.sdf

> <i_m_source_file_index>
1

> <s_epik_input>
W0NIM11TW0NIMl1bQ0gyXVtDQEhdKFtOSDMrXSlDKD1PKVtOSF1bQ0BASF0oW0NIMl1bT0hdKUMoPU8pW05IXVtDQEBIXShbQ0gyXVtDSDJdQyg9TylbT0hdKUMoPU8pW05IXVtDQEBIXShbQ0BASF0oW0NIM10pW0NIMl1bQ0gzXSlDKD1PKVtOSF1bQ0BASF0oW0NIMl1bQ0gyXVtDSDJdW0NIMl1bTkgzK10pQyg9TylbTkhdW0NAQEhdKFtDSDJdW0NIMl1bQ0gyXVtOSF0vQyhbTkgyXSk9TlxbSF0pQyg9TylbTkhdW0NAQEhdKFtDSDJdW0NIXShbQ0gzXSlbQ0gzXSlDKD1PKVtOSF1bQ0BASF0oW0NIMl1bQ0hdKFtDSDNdKVtDSDNdKUMoPU8pW05IXVtDQEhdKEMoPU8pW09IXSlbQ0gyXVtPSF0=

> <s_epik_cmdline>
J2VwaWtfYXBwJywgJy1pbWFlJywgJ2xpZ2FuZF9wcm8ubWFlJywgJy1vbWFlJywgJ2xpZ2FuZF9wcmVwLm1hZScsICctbXMnLCAnMScsICctcGgnLCAnNycsICctcGh0JywgJzAuNScsICctbnQn

> <s_epik_pKa_notes>
Molecule size exceeds maximum supported for generating protonation states

> <s_epik_Chemistry_Notes>
This compound has an imine and may undergo hydrolysis.

$$$$
