2jld_ligand
                    3D
 Schrodinger Suite 2020-3.
 54 63  0  0  1  0            999 V2000
   42.0320   82.4190   36.2090 C   0  0  0  0  0  0
   42.3560   83.1060   34.9990 C   0  0  0  0  0  0
   43.1640   82.4910   33.9920 C   0  0  0  0  0  0
   43.6330   81.1820   34.1830 C   0  0  0  0  0  0
   43.2720   80.5220   35.3710 C   0  0  0  0  0  0
   42.4970   81.1080   36.3790 C   0  0  0  0  0  0
   44.4970   79.2900   34.0600 C   0  0  0  0  0  0
   43.8690   79.2170   35.2780 C   0  0  0  0  0  0
   45.2250   78.2780   33.5240 C   0  0  0  0  0  0
   45.3720   77.0760   34.2430 C   0  0  0  0  0  0
   44.7160   76.9750   35.4970 C   0  0  0  0  0  0
   43.9720   78.0450   36.0250 C   0  0  0  0  0  0
   43.4960   77.6590   37.2900 C   0  0  0  0  0  0
   46.5040   77.6010   31.7180 C   0  0  0  0  0  0
   46.6900   76.3590   32.3860 C   0  0  0  0  0  0
   46.1420   76.0740   33.6360 C   0  0  0  0  0  0
   44.6820   75.9750   36.4880 C   0  0  0  0  0  0
   47.4230   75.3820   31.7900 F   0  0  0  0  0  0
   45.7360   78.5520   32.2830 N   0  0  0  0  0  0
   44.3180   80.3850   33.4370 N   0  0  0  0  0  0
   43.9410   76.3970   37.5730 N   0  0  0  0  0  0
   41.2780   83.0010   37.1880 O   0  0  0  0  0  0
   45.2070   74.8840   36.4660 O   0  0  0  0  0  0
   42.7740   78.2640   38.0560 O   0  0  0  0  0  0
   43.7110   79.8890   30.5200 C   0  0  0  0  0  0
   42.8420   79.5670   29.9520 O   0  0  0  0  0  0
   46.6280   82.1460   31.8550 C   0  0  0  0  0  0
   45.7870   82.3580   30.7600 C   0  0  0  0  0  0
   46.0790   81.3830   29.7920 C   0  0  0  0  0  0
   47.0920   80.5730   30.2800 C   0  0  0  0  0  0
   47.4270   81.0460   31.5510 C   0  0  2  0  0  0
   44.7800   83.4260   30.6020 C   0  0  0  0  0  0
   41.6850   83.7640   28.2260 C   0  0  0  0  0  0
   43.0130   84.2670   28.8260 C   0  0  1  0  0  0
   42.8450   85.4310   29.8200 C   0  0  0  0  0  0
   44.0370   83.3640   29.4120 N   0  0  0  0  0  0
   44.6450   84.2040   31.5420 O   0  0  0  0  0  0
   42.1000   85.1550   30.9270 O   0  5  0  0  0  0
   43.3870   86.5060   29.6340 O   0  0  0  0  0  0
   45.2780   80.4370   31.6100 Ru  0  0  0  0  0  0
   41.9806   84.1170   34.8405 H   0  0  0  0  0  0
   43.4141   83.0356   33.0815 H   0  0  0  0  0  0
   42.2582   80.5512   37.2851 H   0  0  0  0  0  0
   46.9803   77.7819   30.7544 H   0  0  0  0  0  0
   46.3215   75.0954   34.1051 H   0  0  0  0  0  0
   43.6801   75.9238   38.5311 H   0  0  0  0  0  0
   40.9101   84.0298   37.0604 H   0  0  0  0  0  0
   44.4228   80.6024   30.0791 H   0  0  0  0  0  0
   48.4872   81.0402   31.8442 H   0  0  0  0  0  0
   41.1007   84.6207   27.8590 H   0  0  0  0  0  0
   41.1109   83.2331   28.9997 H   0  0  0  0  0  0
   41.8958   83.0794   27.3912 H   0  0  0  0  0  0
   43.4789   84.5059   27.8586 H   0  0  0  0  0  0
   44.3313   82.4474   28.8798 H   0  0  0  0  0  0
  1  2  2  0  0  0
  1  6  1  0  0  0
  1 22  1  0  0  0
  2  3  1  0  0  0
  2 41  1  0  0  0
  3  4  2  0  0  0
  3 42  1  0  0  0
  4  5  1  0  0  0
  4 20  1  0  0  0
  5  6  2  0  0  0
  5  8  1  0  0  0
  6 43  1  0  0  0
  7  8  2  0  0  0
  7  9  1  0  0  0
  7 20  1  0  0  0
  8 12  1  0  0  0
  9 10  2  0  0  0
  9 19  1  0  0  0
 10 11  1  0  0  0
 10 16  1  0  0  0
 11 12  2  0  0  0
 11 17  1  0  0  0
 12 13  1  0  0  0
 13 21  1  0  0  0
 13 24  2  0  0  0
 14 15  1  0  0  0
 14 19  1  0  0  0
 14 44  1  0  0  0
 15 16  2  0  0  0
 15 18  1  0  0  0
 16 45  1  0  0  0
 17 21  1  0  0  0
 17 23  2  0  0  0
 19 40  1  0  0  0
 20 40  1  0  0  0
 21 46  1  0  0  0
 22 47  1  0  0  0
 25 26  2  0  0  0
 25 40  1  0  0  0
 25 48  1  0  0  0
 27 28  2  0  0  0
 27 31  1  0  0  0
 27 40  1  0  0  0
 28 29  1  0  0  0
 28 32  1  0  0  0
 29 30  2  0  0  0
 29 40  1  0  0  0
 30 31  1  0  0  0
 30 40  1  0  0  0
 31 40  1  0  0  0
 31 49  1  0  0  0
 32 36  1  0  0  0
 32 37  2  0  0  0
 33 34  1  0  0  0
 33 50  1  0  0  0
 33 51  1  0  0  0
 33 52  1  0  0  0
 34 35  1  0  0  0
 34 36  1  0  0  0
 34 53  1  0  0  0
 35 38  1  0  0  0
 35 39  2  0  0  0
 36 54  1  0  0  0
M  CHG  1  38  -1
M  END
> <s_m_source_file>
../2jld_ligand.sdf

> <i_m_source_file_index>
1

> <s_epik_input>
W2NIXTFjKFtPSF0pW2NIXVtjSF1jKG4yMyljMWMoYzRjKEMoPU8pW05IXUM0PU8pYzVbQ0hdPUMoRilbQ0gyXTYpYzJjNU42W1J1SF0zNzg5KFtDSF09TylDPTFbQ0BASF05Qzg9QzdDMUMoPU8pW05IXVtDQEBIXShbQ0gzXSlDKD1PKVtPSF0=

> <s_epik_cmdline>
J2VwaWtfYXBwJywgJy1pbWFlJywgJ2xpZ2FuZF9wcm8ubWFlJywgJy1vbWFlJywgJ2xpZ2FuZF9wcmVwLm1hZScsICctbXMnLCAnMScsICctcGgnLCAnNycsICctcGh0JywgJzAuNScsICctbnQn

> <r_lp_tautomer_probability>
1

> <r_epik_Ionization_Penalty>
  0.2412

> <r_epik_Ionization_Penalty_Charging>
  0.0001

> <r_epik_Ionization_Penalty_Neutral>
  0.2411

> <r_epik_State_Penalty>
 -0.0000

> <r_epik_Charging_Adjusted_Penalty>
5.46668106277254e-05

> <i_epik_Tot_Q>
-1

> <i_epik_Tot_abs_Q>
1

$$$$
