2jmj_ligand
                    3D
 Schrodinger Suite 2020-3.
168167  0  0  1  0            999 V2000
   -0.3500   -3.8860    9.6440 N   0  3  0  0  0  0
    0.2810   -2.7090    8.9800 C   0  0  2  0  0  0
   -0.4950   -1.4440    9.3350 C   0  0  0  0  0  0
   -1.7220   -1.4680    9.4320 O   0  0  0  0  0  0
    0.2680   -2.9170    7.4620 C   0  0  0  0  0  0
    0.2260   -0.3340    9.5110 N   0  0  0  0  0  0
   -0.4170    0.9420    9.8340 C   0  0  2  0  0  0
   -1.3540    1.3190    8.6930 C   0  0  0  0  0  0
   -0.9110    1.4850    7.5560 O   0  0  0  0  0  0
    0.6300    2.0540   10.0320 C   0  0  0  0  0  0
    2.0170    1.4530   10.3160 C   0  0  0  0  0  0
    2.7810    1.2720    8.9980 C   0  0  0  0  0  0
    4.1540    0.8380    9.2560 N   0  0  0  0  0  0
    5.1820    1.6870    9.1990 C   0  0  0  0  0  0
    4.9850    2.9520    8.9410 N   0  0  0  0  0  0
    6.3930    1.2500    9.4090 N   0  0  0  0  0  0
   -2.6530    1.4150    8.9800 N   0  0  0  0  0  0
   -3.6160    1.7270    7.9290 C   0  0  2  0  0  0
   -4.4890    2.9340    8.2470 C   0  0  0  0  0  0
   -4.7570    3.2560    9.4060 O   0  0  0  0  0  0
   -4.5340    0.5230    7.6840 C   0  0  2  0  0  0
   -5.4030    0.3650    8.7970 O   0  0  0  0  0  0
   -3.7040   -0.7500    7.5000 C   0  0  0  0  0  0
   -4.9660    3.5470    7.1720 N   0  0  0  0  0  0
   -5.8710    4.6840    7.2390 C   0  0  1  0  0  0
   -5.1050    6.0130    7.0100 C   0  0  0  0  0  0
   -5.4400    6.6280    5.6380 C   0  0  0  0  0  0
   -5.0930    8.1260    5.6060 C   0  0  0  0  0  0
   -3.6310    8.3720    6.0300 C   0  0  0  0  0  0
   -2.7430    8.5100    4.8260 N   0  3  0  0  0  0
   -6.9400    4.4430    6.1770 C   0  0  0  0  0  0
   -6.6410    4.4300    4.9830 O   0  0  0  0  0  0
   -3.1890    9.6590    3.9710 C   0  0  0  0  0  0
   -2.7840    7.2480    4.0290 C   0  0  0  0  0  0
   -1.3420    8.7560    5.2820 C   0  0  0  0  0  0
   -8.1690    4.1810    6.6110 N   0  0  0  0  0  0
   -9.2330    3.8760    5.6600 C   0  0  2  0  0  0
  -10.4230    4.8230    5.7880 C   0  0  0  0  0  0
  -10.5580    5.5510    6.7720 O   0  0  0  0  0  0
   -9.6990    2.4270    5.8530 C   0  0  0  0  0  0
  -10.4900    2.2990    7.1610 C   0  0  0  0  0  0
  -11.9880    2.3680    6.8750 C   0  0  0  0  0  0
  -12.5710    1.4030    6.3820 O   0  0  0  0  0  0
  -12.6470    3.4580    7.1550 N   0  0  0  0  0  0
  -11.2860    4.7880    4.7710 N   0  0  0  0  0  0
  -12.4820    5.6260    4.7380 C   0  0  2  0  0  0
  -13.5140    5.0260    3.7810 C   0  0  0  0  0  0
  -14.2650    5.7520    3.1280 O   0  0  0  0  0  0
  -12.1270    7.0470    4.2790 C   0  0  2  0  0  0
  -10.8400    7.4040    4.7670 O   0  0  0  0  0  0
  -13.1680    8.0380    4.8080 C   0  0  0  0  0  0
  -13.5380    3.6940    3.7030 N   0  0  0  0  0  0
  -14.4760    2.9950    2.8200 C   0  0  2  0  0  0
  -14.1960    3.3280    1.3540 C   0  0  0  0  0  0
  -13.3570    4.1740    1.0510 O   0  0  0  0  0  0
  -15.9160    3.3760    3.1700 C   0  0  0  0  0  0
  -14.9050    2.6510    0.4480 N   0  0  0  0  0  0
  -14.7240    2.8770   -0.9870 C   0  0  2  0  0  0
  -16.0490    3.2470   -1.6520 C   0  0  0  0  0  0
  -17.1100    2.7580   -1.2610 O   0  0  0  0  0  0
  -14.1640    1.6120   -1.6420 C   0  0  0  0  0  0
  -13.4200    1.9840   -2.9290 C   0  0  0  0  0  0
  -13.2690    0.7470   -3.8200 C   0  0  0  0  0  0
  -12.8960   -0.4190   -3.0190 N   0  0  0  0  0  0
  -13.7880   -1.3470   -2.6740 C   0  0  0  0  0  0
  -15.0380   -1.2360   -3.0400 N   0  0  0  0  0  0
  -13.4130   -2.3730   -1.9630 N   0  0  0  0  0  0
  -15.9740    4.1100   -2.6660 N   0  0  0  0  0  0
  -17.1670    4.5400   -3.3920 C   0  0  2  0  0  0
  -17.5820    3.4900   -4.4250 C   0  0  0  0  0  0
  -18.7090    3.5550   -4.8860 O   0  0  0  0  0  0
  -16.9030    5.8790   -4.0940 C   0  0  0  0  0  0
  -15.7680    5.7170   -5.1150 C   0  0  0  0  0  0
  -15.5130    7.0530   -5.8250 C   0  0  0  0  0  0
  -15.0290    8.1020   -4.8160 C   0  0  0  0  0  0
  -13.9900    7.5050   -3.9290 N   0  3  0  0  0  0
  -16.7833    2.5857   -4.7882 O   0  0  0  0  0  0
   -0.3422   -3.7397   10.7342 H   0  0  0  0  0  0
    0.2149   -4.7956    9.3920 H   0  0  0  0  0  0
   -1.3881   -3.9907    9.2955 H   0  0  0  0  0  0
    1.3155   -2.6216    9.3435 H   0  0  0  0  0  0
    0.8286   -3.8299    7.2122 H   0  0  0  0  0  0
    0.7369   -2.0524    6.9694 H   0  0  0  0  0  0
   -0.7708   -3.0180    7.1147 H   0  0  0  0  0  0
    1.3200   -0.3885    9.4098 H   0  0  0  0  0  0
   -0.9735    0.7846   10.7697 H   0  0  0  0  0  0
    0.6892    2.6682    9.1214 H   0  0  0  0  0  0
    0.3365    2.6867   10.8826 H   0  0  0  0  0  0
    2.5815    2.1289   10.9751 H   0  0  0  0  0  0
    1.8996    0.4756   10.8069 H   0  0  0  0  0  0
    2.2762    0.5125    8.3829 H   0  0  0  0  0  0
    2.8050    2.2277    8.4539 H   0  0  0  0  0  0
    4.3609   -0.2133    9.5050 H   0  0  0  0  0  0
    3.9655    3.3248    8.7633 H   0  0  0  0  0  0
    5.8386    3.6447    8.9014 H   0  0  0  0  0  0
    6.5635    0.1853    9.6266 H   0  0  0  0  0  0
   -2.9976    1.2582   10.0128 H   0  0  0  0  0  0
   -2.9790    1.9647    7.0643 H   0  0  0  0  0  0
   -5.1855    0.6913    6.8138 H   0  0  0  0  0  0
   -6.0813    1.1815    9.0855 H   0  0  0  0  0  0
   -3.0312   -0.6277    6.6384 H   0  0  0  0  0  0
   -4.3755   -1.6031    7.3228 H   0  0  0  0  0  0
   -3.1089   -0.9339    8.4067 H   0  0  0  0  0  0
   -4.6454    3.1560    6.1951 H   0  0  0  0  0  0
   -6.3165    4.7203    8.2441 H   0  0  0  0  0  0
   -5.3817    6.7351    7.7923 H   0  0  0  0  0  0
   -4.0222    5.8240    7.0519 H   0  0  0  0  0  0
   -4.8617    6.1152    4.8553 H   0  0  0  0  0  0
   -6.5149    6.5105    5.4361 H   0  0  0  0  0  0
   -5.2310    8.5126    4.5855 H   0  0  0  0  0  0
   -5.7538    8.6703    6.2967 H   0  0  0  0  0  0
   -3.5717    9.2969    6.6224 H   0  0  0  0  0  0
   -3.2776    7.5250    6.6363 H   0  0  0  0  0  0
   -4.2206    9.4845    3.6314 H   0  0  0  0  0  0
   -2.5253    9.7457    3.0981 H   0  0  0  0  0  0
   -3.1481   10.5893    4.5566 H   0  0  0  0  0  0
   -3.8138    7.0616    3.6903 H   0  0  0  0  0  0
   -2.4459    6.4084    4.6541 H   0  0  0  0  0  0
   -2.1225    7.3444    3.1555 H   0  0  0  0  0  0
   -1.3056    9.6849    5.8700 H   0  0  0  0  0  0
   -0.6827    8.8501    4.4065 H   0  0  0  0  0  0
   -1.0061    7.9141    5.9052 H   0  0  0  0  0  0
   -8.3829    4.1945    7.6899 H   0  0  0  0  0  0
   -8.7734    4.0290    4.6724 H   0  0  0  0  0  0
  -10.3431    2.1337    5.0109 H   0  0  0  0  0  0
   -8.8233    1.7625    5.8936 H   0  0  0  0  0  0
  -10.2569    1.3354    7.6377 H   0  0  0  0  0  0
  -10.2131    3.1199    7.8388 H   0  0  0  0  0  0
  -12.1236    4.3193    7.5957 H   0  0  0  0  0  0
  -13.7263    3.5161    6.9505 H   0  0  0  0  0  0
  -11.0735    4.0998    3.9396 H   0  0  0  0  0  0
  -12.8685    5.6387    5.7678 H   0  0  0  0  0  0
  -12.0461    7.1012    3.1833 H   0  0  0  0  0  0
   -9.9609    6.8033    4.4907 H   0  0  0  0  0  0
  -14.1632    7.7610    4.4300 H   0  0  0  0  0  0
  -12.9152    9.0526    4.4663 H   0  0  0  0  0  0
  -13.1732    8.0121    5.9077 H   0  0  0  0  0  0
  -12.8322    3.1195    4.3210 H   0  0  0  0  0  0
  -14.3075    1.9225    2.9969 H   0  0  0  0  0  0
  -16.1130    3.1348    4.2250 H   0  0  0  0  0  0
  -16.6104    2.8127    2.5293 H   0  0  0  0  0  0
  -16.0598    4.4544    3.0073 H   0  0  0  0  0  0
  -15.6379    1.9101    0.8000 H   0  0  0  0  0  0
  -14.0167    3.7151   -1.0730 H   0  0  0  0  0  0
  -13.4684    1.1171   -0.9483 H   0  0  0  0  0  0
  -14.9905    0.9273   -1.8831 H   0  0  0  0  0  0
  -13.9878    2.7545   -3.4711 H   0  0  0  0  0  0
  -12.4226    2.3732   -2.6765 H   0  0  0  0  0  0
  -14.2233    0.5417   -4.3271 H   0  0  0  0  0  0
  -12.4865    0.9295   -4.5713 H   0  0  0  0  0  0
  -11.8557   -0.5470   -2.6852 H   0  0  0  0  0  0
  -15.3608   -0.3725   -3.6401 H   0  0  0  0  0  0
  -15.7671   -2.0061   -2.7479 H   0  0  0  0  0  0
  -12.3626   -2.4722   -1.6519 H   0  0  0  0  0  0
  -14.9858    4.4993   -2.9522 H   0  0  0  0  0  0
  -17.9535    4.6464   -2.6304 H   0  0  0  0  0  0
  -17.8154    6.2066   -4.6138 H   0  0  0  0  0  0
  -16.6152    6.6339   -3.3475 H   0  0  0  0  0  0
  -14.8511    5.3998   -4.5967 H   0  0  0  0  0  0
  -16.0499    4.9576   -5.8592 H   0  0  0  0  0  0
  -14.7443    6.9156   -6.5997 H   0  0  0  0  0  0
  -16.4452    7.4041   -6.2916 H   0  0  0  0  0  0
  -14.5990    8.9587   -5.3556 H   0  0  0  0  0  0
  -15.8781    8.4422   -4.2050 H   0  0  0  0  0  0
  -13.6459    8.2605   -3.2073 H   0  0  0  0  0  0
  -13.1392    7.1653   -4.5379 H   0  0  0  0  0  0
  -14.4183    6.6487   -3.3873 H   0  0  0  0  0  0
  -17.0990    1.8393   -5.5320 H   0  0  0  0  0  0
  1  2  1  0  0  0
  1 78  1  0  0  0
  1 79  1  0  0  0
  1 80  1  0  0  0
  2  3  1  0  0  0
  2  5  1  0  0  0
  2 81  1  0  0  0
  3  4  2  0  0  0
  3  6  1  0  0  0
  5 82  1  0  0  0
  5 83  1  0  0  0
  5 84  1  0  0  0
  6  7  1  0  0  0
  6 85  1  0  0  0
  7  8  1  0  0  0
  7 10  1  0  0  0
  7 86  1  0  0  0
  8  9  2  0  0  0
  8 17  1  0  0  0
 10 11  1  0  0  0
 10 87  1  0  0  0
 10 88  1  0  0  0
 11 12  1  0  0  0
 11 89  1  0  0  0
 11 90  1  0  0  0
 12 13  1  0  0  0
 12 91  1  0  0  0
 12 92  1  0  0  0
 13 14  1  0  0  0
 13 93  1  0  0  0
 14 15  1  0  0  0
 14 16  2  0  0  0
 15 94  1  0  0  0
 15 95  1  0  0  0
 16 96  1  0  0  0
 17 18  1  0  0  0
 17 97  1  0  0  0
 18 19  1  0  0  0
 18 21  1  0  0  0
 18 98  1  0  0  0
 19 20  2  0  0  0
 19 24  1  0  0  0
 21 22  1  0  0  0
 21 23  1  0  0  0
 21 99  1  0  0  0
 22100  1  0  0  0
 23101  1  0  0  0
 23102  1  0  0  0
 23103  1  0  0  0
 24 25  1  0  0  0
 24104  1  0  0  0
 25 26  1  0  0  0
 25 31  1  0  0  0
 25105  1  0  0  0
 26 27  1  0  0  0
 26106  1  0  0  0
 26107  1  0  0  0
 27 28  1  0  0  0
 27108  1  0  0  0
 27109  1  0  0  0
 28 29  1  0  0  0
 28110  1  0  0  0
 28111  1  0  0  0
 29 30  1  0  0  0
 29112  1  0  0  0
 29113  1  0  0  0
 30 33  1  0  0  0
 30 34  1  0  0  0
 30 35  1  0  0  0
 31 32  2  0  0  0
 31 36  1  0  0  0
 33114  1  0  0  0
 33115  1  0  0  0
 33116  1  0  0  0
 34117  1  0  0  0
 34118  1  0  0  0
 34119  1  0  0  0
 35120  1  0  0  0
 35121  1  0  0  0
 35122  1  0  0  0
 36 37  1  0  0  0
 36123  1  0  0  0
 37 38  1  0  0  0
 37 40  1  0  0  0
 37124  1  0  0  0
 38 39  2  0  0  0
 38 45  1  0  0  0
 40 41  1  0  0  0
 40125  1  0  0  0
 40126  1  0  0  0
 41 42  1  0  0  0
 41127  1  0  0  0
 41128  1  0  0  0
 42 43  2  0  0  0
 42 44  1  0  0  0
 44129  1  0  0  0
 44130  1  0  0  0
 45 46  1  0  0  0
 45131  1  0  0  0
 46 47  1  0  0  0
 46 49  1  0  0  0
 46132  1  0  0  0
 47 48  2  0  0  0
 47 52  1  0  0  0
 49 50  1  0  0  0
 49 51  1  0  0  0
 49133  1  0  0  0
 50134  1  0  0  0
 51135  1  0  0  0
 51136  1  0  0  0
 51137  1  0  0  0
 52 53  1  0  0  0
 52138  1  0  0  0
 53 54  1  0  0  0
 53 56  1  0  0  0
 53139  1  0  0  0
 54 55  2  0  0  0
 54 57  1  0  0  0
 56140  1  0  0  0
 56141  1  0  0  0
 56142  1  0  0  0
 57 58  1  0  0  0
 57143  1  0  0  0
 58 59  1  0  0  0
 58 61  1  0  0  0
 58144  1  0  0  0
 59 60  2  0  0  0
 59 68  1  0  0  0
 61 62  1  0  0  0
 61145  1  0  0  0
 61146  1  0  0  0
 62 63  1  0  0  0
 62147  1  0  0  0
 62148  1  0  0  0
 63 64  1  0  0  0
 63149  1  0  0  0
 63150  1  0  0  0
 64 65  1  0  0  0
 64151  1  0  0  0
 65 66  1  0  0  0
 65 67  2  0  0  0
 66152  1  0  0  0
 66153  1  0  0  0
 67154  1  0  0  0
 68 69  1  0  0  0
 68155  1  0  0  0
 69 70  1  0  0  0
 69 72  1  0  0  0
 69156  1  0  0  0
 70 71  2  0  0  0
 70 77  1  0  0  0
 72 73  1  0  0  0
 72157  1  0  0  0
 72158  1  0  0  0
 73 74  1  0  0  0
 73159  1  0  0  0
 73160  1  0  0  0
 74 75  1  0  0  0
 74161  1  0  0  0
 74162  1  0  0  0
 75 76  1  0  0  0
 75163  1  0  0  0
 75164  1  0  0  0
 76165  1  0  0  0
 76166  1  0  0  0
 76167  1  0  0  0
 77168  1  0  0  0
M  CHG  3   1   1  30   1  76   1
M  END
> <s_m_source_file>
../2jmj_ligand.sdf

> <i_m_source_file_index>
1

> <s_epik_input>
W0hdL049QyhbTkgyXSlcW05IXVtDSDJdW0NIMl1bQ0gyXVtDQEhdKFtOSF1DKD1PKVtDQEBIXShbTkgzK10pW0NIM10pQyg9TylbTkhdW0NAQEhdKFtDQEhdKFtPSF0pW0NIM10pQyg9TylbTkhdW0NAQEhdKFtDSDJdW0NIMl1bQ0gyXVtDSDJdW04rXShbQ0gzXSkoW0NIM10pW0NIM10pQyg9TylbTkhdW0NAQEhdKFtDSDJdW0NIMl1DKD1PKVtOSDJdKUMoPU8pW05IXVtDQEBIXShbQ0BIXShbT0hdKVtDSDNdKUMoPU8pW05IXVtDQEBIXShbQ0gzXSlDKD1PKVtOSF1bQ0BASF0oW0NIMl1bQ0gyXVtDSDJdW05IXS9DKFtOSDJdKT1OXFtIXSlDKD1PKVtOSF1bQ0BIXShDKD1PKVtPSF0pW0NIMl1bQ0gyXVtDSDJdW0NIMl1bTkgzK10=

> <s_epik_cmdline>
J2VwaWtfYXBwJywgJy1pbWFlJywgJ2xpZ2FuZF9wcm8ubWFlJywgJy1vbWFlJywgJ2xpZ2FuZF9wcmVwLm1hZScsICctbXMnLCAnMScsICctcGgnLCAnNycsICctcGh0JywgJzAuNScsICctbnQn

> <s_epik_pKa_notes>
Molecule size exceeds maximum supported for generating protonation states

> <s_epik_Chemistry_Notes>
This compound has an imine and may undergo hydrolysis.

$$$$
