2jnp_ligand
                    3D
 Schrodinger Suite 2020-3.
 39 39  0  0  1  0            999 V2000
    6.3150    1.5170    3.3910 C   0  0  0  0  0  0
    6.6380    1.5560    2.0360 C   0  0  0  0  0  0
    5.6600    1.8600    1.0930 C   0  0  0  0  0  0
    4.3500    2.0650    1.5100 C   0  0  0  0  0  0
    4.0130    1.9840    2.8620 C   0  0  0  0  0  0
    5.0000    1.7170    3.8110 C   0  0  0  0  0  0
    5.9480    1.9420   -0.2510 O   0  0  0  0  0  0
    7.1380    1.3270   -0.8150 C   0  0  0  0  0  0
    4.6030    1.7130    5.5610 S   0  0  0  0  0  0
    3.2770    2.2920    5.7390 O   0  0  0  0  0  0
    5.6470    2.3390    6.3570 O   0  0  0  0  0  0
    4.5010    0.1580    6.0890 N   0  0  3  0  0  0
    5.7190   -0.6690    6.3130 C   0  0  0  0  0  0
    3.2130   -0.4450    6.5250 C   0  0  0  0  0  0
    2.6170   -1.4380    5.5520 C   0  0  0  0  0  0
    1.8000   -0.9330    4.6050 N   0  0  0  0  0  0
    1.1360   -1.6650    3.8020 O   0  0  0  0  0  0
    2.8760   -2.6280    5.6000 O   0  0  0  0  0  0
    6.5150   -0.3390    7.6070 C   0  0  0  0  0  0
    7.6800   -1.3390    7.7520 C   0  0  0  0  0  0
    5.6380   -0.3710    8.8790 C   0  0  0  0  0  0
    7.0957    1.3288    4.1281 H   0  0  0  0  0  0
    7.6583    1.3481    1.7138 H   0  0  0  0  0  0
    3.5784    2.2912    0.7740 H   0  0  0  0  0  0
    2.9794    2.1293    3.1761 H   0  0  0  0  0  0
    7.1695    1.5150   -1.8984 H   0  0  0  0  0  0
    7.1124    0.2427   -0.6316 H   0  0  0  0  0  0
    8.0327    1.7579   -0.3419 H   0  0  0  0  0  0
    5.4346   -1.7293    6.3825 H   0  0  0  0  0  0
    6.4158   -0.5306    5.4732 H   0  0  0  0  0  0
    3.3617   -0.9808    7.4741 H   0  0  0  0  0  0
    2.4652    0.3494    6.6657 H   0  0  0  0  0  0
    6.8980    0.6880    7.5143 H   0  0  0  0  0  0
    8.3010   -1.3125    6.8445 H   0  0  0  0  0  0
    7.2775   -2.3532    7.8914 H   0  0  0  0  0  0
    8.2924   -1.0646    8.6236 H   0  0  0  0  0  0
    4.8088    0.3436    8.7707 H   0  0  0  0  0  0
    6.2480   -0.0954    9.7519 H   0  0  0  0  0  0
    5.2330   -1.3840    9.0197 H   0  0  0  0  0  0
  1  2  2  0  0  0
  1  6  1  0  0  0
  1 22  1  0  0  0
  2  3  1  0  0  0
  2 23  1  0  0  0
  3  4  2  0  0  0
  3  7  1  0  0  0
  4  5  1  0  0  0
  4 24  1  0  0  0
  5  6  2  0  0  0
  5 25  1  0  0  0
  6  9  1  0  0  0
  7  8  1  0  0  0
  8 26  1  0  0  0
  8 27  1  0  0  0
  8 28  1  0  0  0
  9 10  2  0  0  0
  9 11  2  0  0  0
  9 12  1  0  0  0
 12 13  1  0  0  0
 12 14  1  0  0  0
 13 19  1  0  0  0
 13 29  1  0  0  0
 13 30  1  0  0  0
 14 15  1  0  0  0
 14 31  1  0  0  0
 14 32  1  0  0  0
 15 16  1  0  0  0
 15 18  2  0  0  0
 16 17  2  0  0  0
 19 20  1  0  0  0
 19 21  1  0  0  0
 19 33  1  0  0  0
 20 34  1  0  0  0
 20 35  1  0  0  0
 20 36  1  0  0  0
 21 37  1  0  0  0
 21 38  1  0  0  0
 21 39  1  0  0  0
M  END
> <s_m_source_file>
../2jnp_ligand.sdf

> <i_m_source_file_index>
1

> <s_epik_input>
W0NIM11PYzFbY0hdW2NIXWMoW2NIXVtjSF0xKVMoPU8pKD1PKU4oW0NIMl1bQ0hdKFtDSDNdKVtDSDNdKVtDSDJdQyg9TylOPU8=

> <s_epik_cmdline>
J2VwaWtfYXBwJywgJy1pbWFlJywgJ2xpZ2FuZF9wcm8ubWFlJywgJy1vbWFlJywgJ2xpZ2FuZF9wcmVwLm1hZScsICctbXMnLCAnMScsICctcGgnLCAnNycsICctcGh0JywgJzAuNScsICctbnQn

> <r_lp_tautomer_probability>
1

> <r_epik_Ionization_Penalty>
  0.0000

> <r_epik_Ionization_Penalty_Charging>
  0.0000

> <r_epik_Ionization_Penalty_Neutral>
  0.0000

> <r_epik_State_Penalty>
 -0.0000

> <r_epik_Charging_Adjusted_Penalty>
0

> <i_epik_Tot_Q>
0

> <i_epik_Tot_abs_Q>
0

$$$$
