2jnw_ligand
                    3D
 Schrodinger Suite 2020-3.
170170  0  0  1  0            999 V2000
  -15.3230    1.6770  -12.5190 N   0  3  0  0  0  0
  -16.5250    2.5770  -12.6200 C   0  0  2  0  0  0
  -16.1450    3.9320  -13.2930 C   0  0  0  0  0  0
  -15.1600    4.0360  -14.0340 O   0  0  0  0  0  0
  -16.9960    2.7980  -11.1590 C   0  0  0  0  0  0
  -18.5320    2.8060  -11.0850 C   0  0  0  0  0  0
  -19.0190    4.0820  -10.3800 C   0  0  0  0  0  0
  -20.0010    4.8370  -11.2910 C   0  0  0  0  0  0
  -19.9460    6.2590  -10.8480 N   0  3  0  0  0  0
  -16.9340    4.9670  -13.0320 N   0  0  0  0  0  0
  -16.6690    6.3270  -13.6160 C   0  0  2  0  0  0
  -16.6170    7.3500  -12.4680 C   0  0  0  0  0  0
  -17.4110    8.2720  -12.4020 O   0  0  0  0  0  0
  -17.8580    6.5910  -14.5670 C   0  0  2  0  0  0
  -17.5020    7.7610  -15.4980 C   0  0  0  0  0  0
  -19.1300    6.9190  -13.7660 C   0  0  0  0  0  0
  -18.6300    7.9910  -16.5110 C   0  0  0  0  0  0
  -15.7100    7.1580  -11.5390 N   0  0  0  0  0  0
  -15.6260    8.0780  -10.3620 C   0  0  2  0  0  0
  -14.3870    8.9220  -10.4380 C   0  0  0  0  0  0
  -13.7440    9.1820   -9.4400 O   0  0  0  0  0  0
  -15.5520    7.1800   -9.1400 C   0  0  2  0  0  0
  -16.6940    6.1510   -9.1870 C   0  0  0  0  0  0
  -15.6760    8.0380   -7.8680 C   0  0  0  0  0  0
  -16.2640    4.8290   -8.5270 C   0  0  0  0  0  0
  -14.0400    9.3400  -11.6110 N   0  0  0  0  0  0
  -12.8150   10.1580  -11.7590 C   0  0  2  0  0  0
  -12.5340   10.9730  -10.5000 C   0  0  0  0  0  0
  -13.1840   11.9600  -10.1950 O   0  0  0  0  0  0
  -13.0380   11.0610  -12.9530 C   0  0  0  0  0  0
  -11.6790   11.2960  -13.6140 C   0  0  0  0  0  0
  -10.7840   11.7670  -12.9190 O   0  0  0  0  0  0
  -11.5460   10.9740  -14.7910 O   0  0  0  0  0  0
  -11.5540   10.5420   -9.7770 N   0  0  0  0  0  0
  -11.1700   11.2410   -8.5400 C   0  0  2  0  0  0
  -10.2720   12.4090   -8.9400 C   0  0  0  0  0  0
  -10.5840   13.1390   -9.8690 O   0  0  0  0  0  0
  -10.3790   10.2120   -7.7240 C   0  0  2  0  0  0
   -9.0540   10.1690   -8.2370 O   0  0  0  0  0  0
  -11.0050    8.8080   -7.8180 C   0  0  0  0  0  0
   -9.1500   12.5740   -8.2670 N   0  0  0  0  0  0
   -8.2050   13.6810   -8.6130 C   0  0  0  0  0  0
   -6.7970   13.1040   -8.7710 C   0  0  0  0  0  0
   -6.3570   12.3100   -7.9580 O   0  0  0  0  0  0
   -6.0890   13.4920   -9.8180 N   0  0  0  0  0  0
   -4.7040   12.9580  -10.0320 C   0  0  0  0  0  0
   -4.3200   12.9490  -11.5280 C   0  0  0  0  0  0
   -3.4930   12.1710  -11.9400 O   0  0  0  0  0  0
   -4.9010   13.7970  -12.3440 N   0  0  0  0  0  0
   -4.5410   13.7980  -13.8040 C   0  0  0  0  0  0
   -4.6820   12.4210  -14.3550 C   0  0  0  0  0  0
   -3.7420   11.8750  -14.8820 O   0  0  0  0  0  0
   -5.8290   11.8440  -14.2700 N   0  0  0  0  0  0
   -5.9660   10.4920  -14.8260 C   0  0  2  0  0  0
   -7.4240   10.0560  -14.8090 C   0  0  0  0  0  0
   -8.1260   10.2340  -13.8450 O   0  0  0  0  0  0
   -5.0120    9.6680  -13.9640 C   0  0  0  0  0  0
   -5.7290    8.9810  -12.8260 C   0  0  0  0  0  0
   -6.2410    9.7230  -11.7520 C   0  0  0  0  0  0
   -5.9070    7.5960  -12.8670 C   0  0  0  0  0  0
   -6.9440    9.0670  -10.7270 C   0  0  0  0  0  0
   -6.5960    6.9420  -11.8430 C   0  0  0  0  0  0
   -7.1220    7.6680  -10.7760 C   0  0  0  0  0  0
   -7.8920    9.5580  -15.9140 N   0  0  0  0  0  0
   -9.3320    9.1760  -16.0340 C   0  0  2  0  0  0
   -9.6940    7.9300  -15.2320 C   0  0  0  0  0  0
   -9.0550    6.9140  -15.3260 O   0  0  0  0  0  0
   -9.5120    8.9160  -17.5070 C   0  0  2  0  0  0
   -9.2810   10.2130  -18.2990 C   0  0  0  0  0  0
  -10.9150    8.3890  -17.7750 C   0  0  0  0  0  0
  -10.5000   11.1540  -18.1940 C   0  0  0  0  0  0
  -10.7420    8.0070  -14.4580 N   0  0  0  0  0  0
  -11.1680    6.8320  -13.6410 C   0  0  2  0  0  0
  -12.6670    6.5210  -13.8350 C   0  0  0  0  0  0
  -13.4910    7.3600  -13.4730 O   0  0  0  0  0  0
  -10.8770    7.2800  -12.2100 C   0  0  0  0  0  0
  -10.5610    6.0820  -11.3370 C   0  0  0  0  0  0
   -9.3350    5.3470  -11.8800 C   0  0  0  0  0  0
  -10.2840    6.5840   -9.9240 C   0  0  0  0  0  0
  -13.0590    5.3732  -14.3806 O   0  0  0  0  0  0
  -15.6136    0.7292  -12.0423 H   0  0  0  0  0  0
  -14.5467    2.1686  -11.9143 H   0  0  0  0  0  0
  -14.9302    1.4754  -13.5265 H   0  0  0  0  0  0
  -17.3008    2.1050  -13.2408 H   0  0  0  0  0  0
  -16.6114    1.9870  -10.5231 H   0  0  0  0  0  0
  -16.6152    3.7629  -10.7929 H   0  0  0  0  0  0
  -18.9483    2.7741  -12.1027 H   0  0  0  0  0  0
  -18.8765    1.9272  -10.5202 H   0  0  0  0  0  0
  -19.5267    3.8118   -9.4423 H   0  0  0  0  0  0
  -18.1579    4.7293  -10.1574 H   0  0  0  0  0  0
  -19.6843    4.7311  -12.3391 H   0  0  0  0  0  0
  -21.0107    4.4178  -11.1690 H   0  0  0  0  0  0
  -20.6308    6.8614  -11.4630 H   0  0  0  0  0  0
  -18.9201    6.6392  -10.9621 H   0  0  0  0  0  0
  -20.2465    6.3259   -9.7920 H   0  0  0  0  0  0
  -17.7992    4.8115  -12.3707 H   0  0  0  0  0  0
  -15.7090    6.3770  -14.1508 H   0  0  0  0  0  0
  -18.0573    5.6903  -15.1662 H   0  0  0  0  0  0
  -17.3610    8.6744  -14.9015 H   0  0  0  0  0  0
  -16.5728    7.5294  -16.0392 H   0  0  0  0  0  0
  -19.3743    6.0751  -13.1041 H   0  0  0  0  0  0
  -19.9652    7.0945  -14.4600 H   0  0  0  0  0  0
  -18.9598    7.8220  -13.1613 H   0  0  0  0  0  0
  -18.3645    8.8298  -17.1713 H   0  0  0  0  0  0
  -19.5614    8.2266  -15.9753 H   0  0  0  0  0  0
  -18.7732    7.0816  -17.1130 H   0  0  0  0  0  0
  -15.0092    6.3150  -11.6293 H   0  0  0  0  0  0
  -16.4879    8.7611  -10.3403 H   0  0  0  0  0  0
  -14.5851    6.6554   -9.1422 H   0  0  0  0  0  0
  -17.5678    6.5483   -8.6498 H   0  0  0  0  0  0
  -16.9663    5.9530  -10.2342 H   0  0  0  0  0  0
  -14.8571    8.7719   -7.8395 H   0  0  0  0  0  0
  -15.6183    7.3896   -6.9813 H   0  0  0  0  0  0
  -16.6412    8.5656   -7.8743 H   0  0  0  0  0  0
  -17.0948    4.1095   -8.5721 H   0  0  0  0  0  0
  -15.9957    5.0140   -7.4764 H   0  0  0  0  0  0
  -15.3941    4.4187   -9.0608 H   0  0  0  0  0  0
  -14.6464    9.0927  -12.4949 H   0  0  0  0  0  0
  -11.9529    9.4931  -11.9163 H   0  0  0  0  0  0
  -13.7282   10.5737  -13.6574 H   0  0  0  0  0  0
  -13.4708   12.0144  -12.6159 H   0  0  0  0  0  0
  -10.5822   11.1288  -15.2980 H   0  0  0  0  0  0
  -11.0048    9.6432  -10.0940 H   0  0  0  0  0  0
  -12.0451   11.6165   -7.9894 H   0  0  0  0  0  0
  -10.3109   10.5214   -6.6706 H   0  0  0  0  0  0
   -8.4409   11.0821   -8.2540 H   0  0  0  0  0  0
  -12.0308    8.8367   -7.4219 H   0  0  0  0  0  0
  -10.4045    8.0987   -7.2296 H   0  0  0  0  0  0
  -11.0268    8.4859   -8.8696 H   0  0  0  0  0  0
   -8.9125   11.8857   -7.4425 H   0  0  0  0  0  0
   -8.5207   14.1513   -9.5559 H   0  0  0  0  0  0
   -8.2098   14.4319   -7.8092 H   0  0  0  0  0  0
   -6.5187   14.2087  -10.5333 H   0  0  0  0  0  0
   -3.9809   13.5876   -9.4928 H   0  0  0  0  0  0
   -4.6461   11.9268   -9.6535 H   0  0  0  0  0  0
   -5.6500   14.5061  -11.9617 H   0  0  0  0  0  0
   -5.2128   14.4792  -14.3468 H   0  0  0  0  0  0
   -3.5010   14.1352  -13.9250 H   0  0  0  0  0  0
   -6.6929   12.3346  -13.7977 H   0  0  0  0  0  0
   -5.6940   10.4238  -15.8896 H   0  0  0  0  0  0
   -4.5319    8.8962  -14.5836 H   0  0  0  0  0  0
   -4.2417   10.3270  -13.5370 H   0  0  0  0  0  0
   -6.0946   10.8024  -11.7123 H   0  0  0  0  0  0
   -5.5060    7.0225  -13.7027 H   0  0  0  0  0  0
   -7.3520    9.6392   -9.8937 H   0  0  0  0  0  0
   -6.7227    5.8600  -11.8786 H   0  0  0  0  0  0
   -7.6684    7.1575   -9.9829 H   0  0  0  0  0  0
   -7.2130    9.4187  -16.7681 H   0  0  0  0  0  0
   -9.9732    9.9786  -15.6406 H   0  0  0  0  0  0
   -8.7789    8.1548  -17.8122 H   0  0  0  0  0  0
   -8.3989   10.7346  -17.8991 H   0  0  0  0  0  0
   -9.1144    9.9707  -19.3590 H   0  0  0  0  0  0
  -11.0732    7.4614  -17.2054 H   0  0  0  0  0  0
  -11.0305    8.1838  -18.8495 H   0  0  0  0  0  0
  -11.6549    9.1411  -17.4637 H   0  0  0  0  0  0
  -10.3057   12.0712  -18.7693 H   0  0  0  0  0  0
  -10.6737   11.4127  -17.1391 H   0  0  0  0  0  0
  -11.3892   10.6487  -18.5989 H   0  0  0  0  0  0
  -11.3127    8.9461  -14.4101 H   0  0  0  0  0  0
  -10.6250    5.9209  -13.9327 H   0  0  0  0  0  0
  -10.0147    7.9630  -12.2078 H   0  0  0  0  0  0
  -11.7569    7.7991  -11.8022 H   0  0  0  0  0  0
  -11.4145    5.3881  -11.3348 H   0  0  0  0  0  0
   -9.5438    4.9887  -12.8988 H   0  0  0  0  0  0
   -9.1036    4.4901  -11.2302 H   0  0  0  0  0  0
   -8.4757    6.0334  -11.9016 H   0  0  0  0  0  0
  -11.1706    7.1110   -9.5417 H   0  0  0  0  0  0
   -9.4268    7.2732   -9.9412 H   0  0  0  0  0  0
  -10.0547    5.7299   -9.2698 H   0  0  0  0  0  0
  -14.1310    5.1649  -14.5128 H   0  0  0  0  0  0
  1  2  1  0  0  0
  1 81  1  0  0  0
  1 82  1  0  0  0
  1 83  1  0  0  0
  2  5  1  0  0  0
  2  3  1  0  0  0
  2 84  1  0  0  0
  3  4  2  0  0  0
  3 10  1  0  0  0
  5  6  1  0  0  0
  5 85  1  0  0  0
  5 86  1  0  0  0
  6  7  1  0  0  0
  6 87  1  0  0  0
  6 88  1  0  0  0
  7  8  1  0  0  0
  7 89  1  0  0  0
  7 90  1  0  0  0
  8  9  1  0  0  0
  8 91  1  0  0  0
  8 92  1  0  0  0
  9 93  1  0  0  0
  9 94  1  0  0  0
  9 95  1  0  0  0
 10 11  1  0  0  0
 10 96  1  0  0  0
 11 14  1  0  0  0
 11 12  1  0  0  0
 11 97  1  0  0  0
 12 13  2  0  0  0
 12 18  1  0  0  0
 14 16  1  0  0  0
 14 15  1  0  0  0
 14 98  1  0  0  0
 15 17  1  0  0  0
 15 99  1  0  0  0
 15100  1  0  0  0
 16101  1  0  0  0
 16102  1  0  0  0
 16103  1  0  0  0
 17104  1  0  0  0
 17105  1  0  0  0
 17106  1  0  0  0
 18 19  1  0  0  0
 18107  1  0  0  0
 19 22  1  0  0  0
 19 20  1  0  0  0
 19108  1  0  0  0
 20 21  2  0  0  0
 20 26  1  0  0  0
 22 24  1  0  0  0
 22 23  1  0  0  0
 22109  1  0  0  0
 23 25  1  0  0  0
 23110  1  0  0  0
 23111  1  0  0  0
 24112  1  0  0  0
 24113  1  0  0  0
 24114  1  0  0  0
 25115  1  0  0  0
 25116  1  0  0  0
 25117  1  0  0  0
 26 27  1  0  0  0
 26118  1  0  0  0
 27 30  1  0  0  0
 27 28  1  0  0  0
 27119  1  0  0  0
 28 29  2  0  0  0
 28 34  1  0  0  0
 30 31  1  0  0  0
 30120  1  0  0  0
 30121  1  0  0  0
 31 32  2  0  0  0
 31 33  1  0  0  0
 33122  1  0  0  0
 34 35  1  0  0  0
 34123  1  0  0  0
 35 38  1  0  0  0
 35 36  1  0  0  0
 35124  1  0  0  0
 36 37  2  0  0  0
 36 41  1  0  0  0
 38 40  1  0  0  0
 38 39  1  0  0  0
 38125  1  0  0  0
 39126  1  0  0  0
 40127  1  0  0  0
 40128  1  0  0  0
 40129  1  0  0  0
 41 42  1  0  0  0
 41130  1  0  0  0
 42 43  1  0  0  0
 42131  1  0  0  0
 42132  1  0  0  0
 43 44  2  0  0  0
 43 45  1  0  0  0
 45 46  1  0  0  0
 45133  1  0  0  0
 46 47  1  0  0  0
 46134  1  0  0  0
 46135  1  0  0  0
 47 48  2  0  0  0
 47 49  1  0  0  0
 49 50  1  0  0  0
 49136  1  0  0  0
 50 51  1  0  0  0
 50137  1  0  0  0
 50138  1  0  0  0
 51 52  2  0  0  0
 51 53  1  0  0  0
 53 54  1  0  0  0
 53139  1  0  0  0
 54 57  1  0  0  0
 54 55  1  0  0  0
 54140  1  0  0  0
 55 56  2  0  0  0
 55 64  1  0  0  0
 57 58  1  0  0  0
 57141  1  0  0  0
 57142  1  0  0  0
 58 59  2  0  0  0
 58 60  1  0  0  0
 59 61  1  0  0  0
 59143  1  0  0  0
 60 62  2  0  0  0
 60144  1  0  0  0
 61 63  2  0  0  0
 61145  1  0  0  0
 62 63  1  0  0  0
 62146  1  0  0  0
 63147  1  0  0  0
 64 65  1  0  0  0
 64148  1  0  0  0
 65 68  1  0  0  0
 65 66  1  0  0  0
 65149  1  0  0  0
 66 67  2  0  0  0
 66 72  1  0  0  0
 68 70  1  0  0  0
 68 69  1  0  0  0
 68150  1  0  0  0
 69 71  1  0  0  0
 69151  1  0  0  0
 69152  1  0  0  0
 70153  1  0  0  0
 70154  1  0  0  0
 70155  1  0  0  0
 71156  1  0  0  0
 71157  1  0  0  0
 71158  1  0  0  0
 72 73  1  0  0  0
 72159  1  0  0  0
 73 76  1  0  0  0
 73 74  1  0  0  0
 73160  1  0  0  0
 74 75  2  0  0  0
 74 80  1  0  0  0
 76 77  1  0  0  0
 76161  1  0  0  0
 76162  1  0  0  0
 77 78  1  0  0  0
 77 79  1  0  0  0
 77163  1  0  0  0
 78164  1  0  0  0
 78165  1  0  0  0
 78166  1  0  0  0
 79167  1  0  0  0
 79168  1  0  0  0
 79169  1  0  0  0
 80170  1  0  0  0
M  CHG  2   1   1   9   1
M  END
> <s_m_source_file>
../2jnw_ligand.sdf

> <i_m_source_file_index>
1

> <s_epik_input>
W05IMytdW0NIMl1bQ0gyXVtDSDJdW0NIMl1bQ0BIXShbTkgzK10pQyg9TylbTkhdW0NAQEhdKFtDQEBIXShbQ0gzXSlbQ0gyXVtDSDNdKUMoPU8pW05IXVtDQEBIXShbQ0BASF0oW0NIM10pW0NIMl1bQ0gzXSlDKD1PKVtOSF1bQ0BASF0oW0NIMl1DKD1PKVtPSF0pQyg9TylbTkhdW0NAQEhdKFtDQEhdKFtPSF0pW0NIM10pQyg9TylbTkhdW0NIMl1DKD1PKVtOSF1bQ0gyXUMoPU8pW05IXVtDSDJdQyg9TylbTkhdW0NAQEhdKFtDSDJdYzFbY0hdW2NIXVtjSF1bY0hdW2NIXTEpQyg9TylbTkhdW0NAQEhdKFtDQEBIXShbQ0gzXSlbQ0gyXVtDSDNdKUMoPU8pW05IXVtDQEhdKEMoPU8pW09IXSlbQ0gyXVtDSF0oW0NIM10pW0NIM10=

> <s_epik_cmdline>
J2VwaWtfYXBwJywgJy1pbWFlJywgJ2xpZ2FuZF9wcm8ubWFlJywgJy1vbWFlJywgJ2xpZ2FuZF9wcmVwLm1hZScsICctbXMnLCAnMScsICctcGgnLCAnNycsICctcGh0JywgJzAuNScsICctbnQn

> <s_epik_pKa_notes>
Molecule size exceeds maximum supported for generating protonation states

$$$$
