2jo9_ligand
                    3D
 Schrodinger Suite 2020-3.
137141  0  0  1  0            999 V2000
   11.9950    1.3150   12.2890 N   0  3  0  0  0  0
   11.5520    2.6830   12.6330 C   0  0  2  0  0  0
   11.4210    3.5430   11.3830 C   0  0  0  0  0  0
   12.3070    4.3400   11.0730 O   0  0  0  0  0  0
   12.5230    3.3610   13.6070 C   0  0  0  0  0  0
   12.6770    2.6480   14.9430 C   0  0  0  0  0  0
   13.4070    1.3300   14.8140 C   0  0  0  0  0  0
   14.6480    1.3390   14.7870 O   0  0  0  0  0  0
   12.7350    0.2840   14.7030 O   0  5  0  0  0  0
   10.3350    3.3660   10.6460 N   0  0  0  0  0  0
   10.0520    4.2360    9.5170 C   0  0  2  0  0  0
    8.6450    4.7880    9.6540 C   0  0  0  0  0  0
    7.7730    4.1160   10.2090 O   0  0  0  0  0  0
   10.1530    3.4450    8.2060 C   0  0  0  0  0  0
   11.4480    2.6620    8.0420 C   0  0  0  0  0  0
   11.4140    1.7470    6.8390 C   0  0  0  0  0  0
   10.9640    0.5860    6.9740 O   0  5  0  0  0  0
   11.8360    2.1750    5.7470 O   0  0  0  0  0  0
    8.3870    6.0050    9.1710 N   0  0  0  0  0  0
    7.0310    6.5240    9.0880 C   0  0  2  0  0  0
    6.2840    5.9450    7.8940 C   0  0  0  0  0  0
    6.8960    5.6250    6.8700 O   0  0  0  0  0  0
    7.2460    8.0270    8.9270 C   0  0  0  0  0  0
    8.5560    8.1470    8.2250 C   0  0  0  0  0  0
    9.3850    6.9690    8.6690 C   0  0  0  0  0  0
    4.9660    5.7820    8.0050 N   0  0  0  0  0  0
    4.0990    5.5920    6.8490 C   0  0  2  0  0  0
    3.8350    6.9270    6.1560 C   0  0  0  0  0  0
    3.8280    7.9760    6.8080 O   0  0  0  0  0  0
    2.7960    5.0260    7.4450 C   0  0  0  0  0  0
    3.0760    4.7950    8.8970 C   0  0  0  0  0  0
    4.2140    5.7040    9.2590 C   0  0  0  0  0  0
    3.6400    6.9300    4.8370 N   0  0  0  0  0  0
    3.1770    8.1200    4.1460 C   0  0  2  0  0  0
    1.6800    8.2880    4.3610 C   0  0  0  0  0  0
    0.9620    7.2980    4.4980 O   0  0  0  0  0  0
    3.5010    7.8350    2.6810 C   0  0  0  0  0  0
    3.4870    6.3470    2.5660 C   0  0  0  0  0  0
    3.8630    5.7980    3.9230 C   0  0  0  0  0  0
    1.1750    9.5220    4.3920 N   0  0  0  0  0  0
   -0.2320    9.7610    4.6730 C   0  0  2  0  0  0
   -1.0910    9.4740    3.4530 C   0  0  0  0  0  0
   -0.6440    9.6350    2.3120 O   0  0  0  0  0  0
   -0.2870   11.2570    5.0310 C   0  0  0  0  0  0
    1.1340   11.7350    5.0330 C   0  0  0  0  0  0
    1.9100   10.7680    4.1870 C   0  0  0  0  0  0
   -2.3200    9.0350    3.6880 N   0  0  0  0  0  0
   -3.2200    8.7400    2.5970 C   0  0  2  0  0  0
   -3.8000   10.0280    2.0350 C   0  0  0  0  0  0
   -4.7250   10.6160    2.5950 O   0  0  0  0  0  0
   -4.3380    7.7790    3.0200 C   0  0  0  0  0  0
   -5.3430    7.5360    1.9160 C   0  0  0  0  0  0
   -5.0890    6.6080    0.9190 C   0  0  0  0  0  0
   -6.5290    8.2580    1.8550 C   0  0  0  0  0  0
   -5.9890    6.3980   -0.1060 C   0  0  0  0  0  0
   -7.4330    8.0570    0.8320 C   0  0  0  0  0  0
   -7.1580    7.1230   -0.1460 C   0  0  0  0  0  0
   -8.0540    6.9130   -1.1660 O   0  0  0  0  0  0
   -3.2000   10.4680    0.9510 N   0  0  0  0  0  0
   -3.6600   11.6210    0.2120 C   0  0  2  0  0  0
   -3.0070   11.5830   -1.1590 C   0  0  0  0  0  0
   -1.7890   11.7400   -1.2730 O   0  0  0  0  0  0
   -3.2910   12.9140    0.9380 C   0  0  0  0  0  0
   -4.1420   14.0970    0.5240 C   0  0  0  0  0  0
   -5.5280   14.0610    1.1330 C   0  0  0  0  0  0
   -5.6740   14.4370    2.3180 O   0  5  0  0  0  0
   -6.4830   13.6690    0.4330 O   0  0  0  0  0  0
   -3.8030   11.3270   -2.1840 N   0  0  0  0  0  0
   -3.2730   11.1570   -3.5310 C   0  0  2  0  0  0
   -2.7510   12.4770   -4.0760 C   0  0  0  0  0  0
   -1.5420   12.5580   -4.3770 O   0  5  0  0  0  0
   -4.3320   10.5800   -4.4720 C   0  0  0  0  0  0
   -3.7720   10.3020   -5.8500 C   0  0  0  0  0  0
   -2.9160    9.3960   -5.9790 O   0  5  0  0  0  0
   -4.1720   10.9880   -6.8140 O   0  0  0  0  0  0
   -3.5410   13.4370   -4.1650 O   0  0  0  0  0  0
   11.2761    0.8615   11.5907 H   0  0  0  0  0  0
   12.0510    0.7068   13.2039 H   0  0  0  0  0  0
   12.9874    1.3589   11.8165 H   0  0  0  0  0  0
   10.5686    2.5527   13.1082 H   0  0  0  0  0  0
   13.5237    3.4093   13.1529 H   0  0  0  0  0  0
   12.1705    4.3796   13.8267 H   0  0  0  0  0  0
   13.2473    3.2851   15.6350 H   0  0  0  0  0  0
   11.6825    2.4447   15.3669 H   0  0  0  0  0  0
    9.6433    2.5485   10.8973 H   0  0  0  0  0  0
   10.7975    5.0442    9.5498 H   0  0  0  0  0  0
    9.3295    2.7177    8.1522 H   0  0  0  0  0  0
   10.0868    4.1375    7.3539 H   0  0  0  0  0  0
   12.2864    3.3626    7.9146 H   0  0  0  0  0  0
   11.6188    2.0444    8.9361 H   0  0  0  0  0  0
    6.4532    6.2400    9.9799 H   0  0  0  0  0  0
    6.4235    8.4536    8.3341 H   0  0  0  0  0  0
    7.2682    8.5026    9.9186 H   0  0  0  0  0  0
    8.3924    8.1265    7.1374 H   0  0  0  0  0  0
    9.0368    9.0957    8.5056 H   0  0  0  0  0  0
   10.0808    7.2318    9.4794 H   0  0  0  0  0  0
    9.9450    6.5172    7.8370 H   0  0  0  0  0  0
    4.5830    4.9289    6.1168 H   0  0  0  0  0  0
    1.9831    5.7541    7.3070 H   0  0  0  0  0  0
    2.5372    4.0865    6.9348 H   0  0  0  0  0  0
    2.1783    5.0339    9.4861 H   0  0  0  0  0  0
    3.3482    3.7410    9.0548 H   0  0  0  0  0  0
    4.8585    5.2888   10.0478 H   0  0  0  0  0  0
    3.8808    6.7111    9.5500 H   0  0  0  0  0  0
    3.6685    9.0248    4.5330 H   0  0  0  0  0  0
    2.7375    8.2994    2.0396 H   0  0  0  0  0  0
    4.4889    8.2523    2.4360 H   0  0  0  0  0  0
    2.4807    6.0112    2.2750 H   0  0  0  0  0  0
    4.2138    6.0313    1.8030 H   0  0  0  0  0  0
    4.9186    5.4920    3.9691 H   0  0  0  0  0  0
    3.2233    4.9543    4.2213 H   0  0  0  0  0  0
   -0.5756    9.0849    5.4697 H   0  0  0  0  0  0
   -0.8849   11.7923    4.2787 H   0  0  0  0  0  0
   -0.7488   11.3802    6.0218 H   0  0  0  0  0  0
    1.1799   12.7503    4.6121 H   0  0  0  0  0  0
    1.5150   11.7482    6.0648 H   0  0  0  0  0  0
    2.9494   10.6402    4.5237 H   0  0  0  0  0  0
    1.9002   11.0279    3.1182 H   0  0  0  0  0  0
   -2.6517    8.8960    4.7275 H   0  0  0  0  0  0
   -2.5881    8.2475    1.8432 H   0  0  0  0  0  0
   -3.9013    6.8088    3.2994 H   0  0  0  0  0  0
   -4.8771    8.2001    3.8814 H   0  0  0  0  0  0
   -4.1627    6.0341    0.9446 H   0  0  0  0  0  0
   -6.7486    8.9948    2.6276 H   0  0  0  0  0  0
   -5.7749    5.6613   -0.8803 H   0  0  0  0  0  0
   -8.3582    8.6322    0.7966 H   0  0  0  0  0  0
   -7.8352    6.1686   -1.9457 H   0  0  0  0  0  0
   -2.3106    9.9165    0.6122 H   0  0  0  0  0  0
   -4.7552   11.5456    0.1425 H   0  0  0  0  0  0
   -3.4203   12.7758    2.0216 H   0  0  0  0  0  0
   -2.2426   13.1687    0.7234 H   0  0  0  0  0  0
   -3.6559   15.0293    0.8473 H   0  0  0  0  0  0
   -4.2547   14.1026   -0.5702 H   0  0  0  0  0  0
   -4.8849   11.2430   -2.0040 H   0  0  0  0  0  0
   -2.4413   10.4453   -3.4226 H   0  0  0  0  0  0
   -4.7140    9.6349   -4.0586 H   0  0  0  0  0  0
   -5.1603   11.2964   -4.5752 H   0  0  0  0  0  0
  1  2  1  0  0  0
  1 77  1  0  0  0
  1 78  1  0  0  0
  1 79  1  0  0  0
  2  3  1  0  0  0
  2  5  1  0  0  0
  2 80  1  0  0  0
  3  4  2  0  0  0
  3 10  1  0  0  0
  5  6  1  0  0  0
  5 81  1  0  0  0
  5 82  1  0  0  0
  6  7  1  0  0  0
  6 83  1  0  0  0
  6 84  1  0  0  0
  7  8  2  0  0  0
  7  9  1  0  0  0
 10 11  1  0  0  0
 10 85  1  0  0  0
 11 12  1  0  0  0
 11 14  1  0  0  0
 11 86  1  0  0  0
 12 13  2  0  0  0
 12 19  1  0  0  0
 14 15  1  0  0  0
 14 87  1  0  0  0
 14 88  1  0  0  0
 15 16  1  0  0  0
 15 89  1  0  0  0
 15 90  1  0  0  0
 16 17  1  0  0  0
 16 18  2  0  0  0
 19 20  1  0  0  0
 19 25  1  0  0  0
 20 21  1  0  0  0
 20 23  1  0  0  0
 20 91  1  0  0  0
 21 22  2  0  0  0
 21 26  1  0  0  0
 23 24  1  0  0  0
 23 92  1  0  0  0
 23 93  1  0  0  0
 24 25  1  0  0  0
 24 94  1  0  0  0
 24 95  1  0  0  0
 25 96  1  0  0  0
 25 97  1  0  0  0
 26 27  1  0  0  0
 26 32  1  0  0  0
 27 28  1  0  0  0
 27 30  1  0  0  0
 27 98  1  0  0  0
 28 29  2  0  0  0
 28 33  1  0  0  0
 30 31  1  0  0  0
 30 99  1  0  0  0
 30100  1  0  0  0
 31 32  1  0  0  0
 31101  1  0  0  0
 31102  1  0  0  0
 32103  1  0  0  0
 32104  1  0  0  0
 33 34  1  0  0  0
 33 39  1  0  0  0
 34 35  1  0  0  0
 34 37  1  0  0  0
 34105  1  0  0  0
 35 36  2  0  0  0
 35 40  1  0  0  0
 37 38  1  0  0  0
 37106  1  0  0  0
 37107  1  0  0  0
 38 39  1  0  0  0
 38108  1  0  0  0
 38109  1  0  0  0
 39110  1  0  0  0
 39111  1  0  0  0
 40 41  1  0  0  0
 40 46  1  0  0  0
 41 42  1  0  0  0
 41 44  1  0  0  0
 41112  1  0  0  0
 42 43  2  0  0  0
 42 47  1  0  0  0
 44 45  1  0  0  0
 44113  1  0  0  0
 44114  1  0  0  0
 45 46  1  0  0  0
 45115  1  0  0  0
 45116  1  0  0  0
 46117  1  0  0  0
 46118  1  0  0  0
 47 48  1  0  0  0
 47119  1  0  0  0
 48 49  1  0  0  0
 48 51  1  0  0  0
 48120  1  0  0  0
 49 50  2  0  0  0
 49 59  1  0  0  0
 51 52  1  0  0  0
 51121  1  0  0  0
 51122  1  0  0  0
 52 53  2  0  0  0
 52 54  1  0  0  0
 53 55  1  0  0  0
 53123  1  0  0  0
 54 56  2  0  0  0
 54124  1  0  0  0
 55 57  2  0  0  0
 55125  1  0  0  0
 56 57  1  0  0  0
 56126  1  0  0  0
 57 58  1  0  0  0
 58127  1  0  0  0
 59 60  1  0  0  0
 59128  1  0  0  0
 60 61  1  0  0  0
 60 63  1  0  0  0
 60129  1  0  0  0
 61 62  2  0  0  0
 61 68  1  0  0  0
 63 64  1  0  0  0
 63130  1  0  0  0
 63131  1  0  0  0
 64 65  1  0  0  0
 64132  1  0  0  0
 64133  1  0  0  0
 65 66  1  0  0  0
 65 67  2  0  0  0
 68 69  1  0  0  0
 68134  1  0  0  0
 69 70  1  0  0  0
 69 72  1  0  0  0
 69135  1  0  0  0
 70 71  1  0  0  0
 70 76  2  0  0  0
 72 73  1  0  0  0
 72136  1  0  0  0
 72137  1  0  0  0
 73 74  1  0  0  0
 73 75  2  0  0  0
M  CHG  6   1   1   9  -1  17  -1  66  -1  71  -1  74  -1
M  END
> <s_m_source_file>
../2jo9_ligand.sdf

> <i_m_source_file_index>
1

> <s_epik_input>
Tz1DKFtPSF0pW0NIMl1bQ0gyXVtDQEhdKFtOSDMrXSlDKD1PKVtOSF1bQ0BASF0oW0NIMl1bQ0gyXUMoPU8pW09IXSlDKD1PKU4xW0NAQEhdKFtDSDJdW0NIMl1bQ0gyXTEpQyg9TylOMltDQEBIXShbQ0gyXVtDSDJdW0NIMl0yKUMoPU8pTjNbQ0BASF0oW0NIMl1bQ0gyXVtDSDJdMylDKD1PKU40W0NAQEhdKFtDSDJdW0NIMl1bQ0gyXTQpQyg9TylbTkhdW0NAQEhdKFtDSDJdYzVbY0hdW2NIXWMoW09IXSlbY0hdW2NIXTUpQyg9TylbTkhdW0NAQEhdKFtDSDJdW0NIMl1DKD1PKVtPSF0pQyg9TylbTkhdW0NASF0oQyg9TylbT0hdKVtDSDJdQyg9TylbT0hd

> <s_epik_cmdline>
J2VwaWtfYXBwJywgJy1pbWFlJywgJ2xpZ2FuZF9wcm8ubWFlJywgJy1vbWFlJywgJ2xpZ2FuZF9wcmVwLm1hZScsICctbXMnLCAnMScsICctcGgnLCAnNycsICctcGh0JywgJzAuNScsICctbnQn

> <r_lp_tautomer_probability>
0.999999999997365

> <r_epik_Ionization_Penalty>
  0.0787

> <r_epik_Ionization_Penalty_Charging>
  0.0779

> <r_epik_Ionization_Penalty_Neutral>
  0.0009

> <r_epik_State_Penalty>
  0.0635

> <r_epik_Charging_Adjusted_Penalty>
0.141324300676481

> <i_epik_Tot_Q>
-4

> <i_epik_Tot_abs_Q>
6

$$$$
