2joa_ligand
                    3D
 Schrodinger Suite 2020-3.
133136  0  0  1  0            999 V2000
    0.1080   -4.0340   -2.1130 N   0  3  0  0  0  0
   -0.4550   -2.6770   -1.8940 C   0  0  2  0  0  0
   -1.3780   -2.2720   -3.0380 C   0  0  0  0  0  0
   -1.3820   -2.8980   -4.0980 O   0  0  0  0  0  0
    0.7040   -1.6840   -1.7690 C   0  0  0  0  0  0
    0.7580   -1.0260   -0.4050 C   0  0  0  0  0  0
   -0.0300   -0.0860   -0.1680 O   0  5  0  0  0  0
    1.5870   -1.4500    0.4270 O   0  0  0  0  0  0
   -2.1600   -1.2190   -2.8170 N   0  0  0  0  0  0
   -3.0870   -0.7290   -3.8300 C   0  0  2  0  0  0
   -2.3680    0.1550   -4.8430 C   0  0  0  0  0  0
   -2.1160   -0.2590   -5.9750 O   0  0  0  0  0  0
   -4.2260    0.0520   -3.1710 C   0  0  0  0  0  0
   -3.8250    0.5810   -1.9180 O   0  0  0  0  0  0
   -2.0380    1.3740   -4.4300 N   0  0  0  0  0  0
   -1.3470    2.3160   -5.3040 C   0  0  2  0  0  0
   -2.1830    2.6180   -6.5450 C   0  0  0  0  0  0
   -1.8500    2.1870   -7.6500 O   0  0  0  0  0  0
    0.0160    1.7550   -5.7140 C   0  0  0  0  0  0
    1.1380    2.1150   -4.7540 C   0  0  0  0  0  0
    2.4970    1.7450   -5.3250 C   0  0  0  0  0  0
    3.1120    2.8590   -6.0440 N   0  0  0  0  0  0
    3.7700    3.8530   -5.4500 C   0  0  0  0  0  0
    3.8950    3.8800   -4.1290 N   0  0  0  0  0  0
    4.3030    4.8230   -6.1800 N   0  3  0  0  0  0
   -3.2680    3.3610   -6.3550 N   0  0  0  0  0  0
   -4.1500    3.7210   -7.4600 C   0  0  2  0  0  0
   -3.6440    4.9630   -8.1840 C   0  0  0  0  0  0
   -3.2680    5.9510   -7.5550 O   0  0  0  0  0  0
   -5.5890    3.9740   -6.9760 C   0  0  2  0  0  0
   -5.5910    4.9550   -5.8020 C   0  0  0  0  0  0
   -6.2540    2.6640   -6.5820 C   0  0  0  0  0  0
   -6.9090    5.6770   -5.6210 C   0  0  0  0  0  0
   -3.6390    4.9050   -9.5120 N   0  0  0  0  0  0
   -3.1810    6.0260  -10.3250 C   0  0  2  0  0  0
   -4.3070    6.5550  -11.2060 C   0  0  0  0  0  0
   -4.5020    6.0880  -12.3290 O   0  0  0  0  0  0
   -1.9960    5.6010  -11.1930 C   0  0  0  0  0  0
   -0.7190    5.4470  -10.4240 C   0  0  0  0  0  0
   -0.5390    4.7480   -9.2640 C   0  0  0  0  0  0
    0.5550    6.0070  -10.7580 C   0  0  0  0  0  0
    0.7710    4.8370   -8.8580 N   0  3  0  0  0  0
    1.4630    5.6040   -9.7580 C   0  0  0  0  0  0
    1.0200    6.8050  -11.8060 C   0  0  0  0  0  0
    2.8050    5.9760   -9.7790 C   0  0  0  0  0  0
    2.3510    7.1750  -11.8240 C   0  0  0  0  0  0
    3.2300    6.7590  -10.8160 C   0  0  0  0  0  0
   -5.0470    7.5320  -10.6910 N   0  0  0  0  0  0
   -6.1550    8.1240  -11.4310 C   0  0  2  0  0  0
   -5.6440    8.9680  -12.5940 C   0  0  0  0  0  0
   -5.7020   10.1980  -12.5550 O   0  0  0  0  0  0
   -7.0160    8.9820  -10.5010 C   0  0  0  0  0  0
   -8.4340    9.1320  -10.9660 C   0  0  0  0  0  0
   -9.0150    8.5250  -12.0420 C   0  0  0  0  0  0
   -9.4490    9.9450  -10.3670 C   0  0  0  0  0  0
  -10.3300    8.9120  -12.1490 N   0  3  0  0  0  0
  -10.6200    9.7830  -11.1310 C   0  0  0  0  0  0
   -9.4810   10.7950   -9.2580 C   0  0  0  0  0  0
  -11.8080   10.4380  -10.8210 C   0  0  0  0  0  0
  -10.6610   11.4440   -8.9500 C   0  0  0  0  0  0
  -11.8110   11.2640   -9.7290 C   0  0  0  0  0  0
   -5.1440    8.3020  -13.6290 N   0  0  0  0  0  0
   -4.6250    8.9920  -14.8020 C   0  0  2  0  0  0
   -5.6490    9.0010  -15.9320 C   0  0  0  0  0  0
   -5.4360    9.7400  -16.9170 O   0  5  0  0  0  0
   -3.3240    8.3430  -15.3100 C   0  0  0  0  0  0
   -2.6900    9.1950  -16.3980 C   0  0  0  0  0  0
   -2.3520    8.1250  -14.1590 C   0  0  0  0  0  0
   -6.6560    8.2700  -15.8230 O   0  0  0  0  0  0
   -0.7125   -4.7609   -2.2051 H   0  0  0  0  0  0
    0.7466   -4.3080   -1.2603 H   0  0  0  0  0  0
    0.7068   -4.0380   -3.0357 H   0  0  0  0  0  0
   -1.0513   -2.7076   -0.9701 H   0  0  0  0  0  0
    1.6565   -2.2101   -1.9297 H   0  0  0  0  0  0
    0.5910   -0.8916   -2.5236 H   0  0  0  0  0  0
   -2.0950   -0.7153   -1.8413 H   0  0  0  0  0  0
   -3.4744   -1.6269   -4.3336 H   0  0  0  0  0  0
   -4.5257    0.8846   -3.8244 H   0  0  0  0  0  0
   -5.0849   -0.6165   -3.0117 H   0  0  0  0  0  0
   -4.5338    1.1701   -1.3175 H   0  0  0  0  0  0
   -2.2981    1.6667   -3.4021 H   0  0  0  0  0  0
   -1.2217    3.2336   -4.7104 H   0  0  0  0  0  0
   -0.0377    0.6572   -5.7584 H   0  0  0  0  0  0
    0.2921    2.1489   -6.7032 H   0  0  0  0  0  0
    1.1232    3.1981   -4.5624 H   0  0  0  0  0  0
    0.9983    1.5732   -3.8069 H   0  0  0  0  0  0
    3.1709    1.4512   -4.5067 H   0  0  0  0  0  0
    2.3838    0.9050   -6.0262 H   0  0  0  0  0  0
    3.0457    2.9093   -7.1408 H   0  0  0  0  0  0
    3.4548    3.0779   -3.5184 H   0  0  0  0  0  0
    4.4388    4.7045   -3.6447 H   0  0  0  0  0  0
    4.2025    4.8057   -7.2753 H   0  0  0  0  0  0
   -3.4947    3.7061   -5.3354 H   0  0  0  0  0  0
   -4.1107    2.8467   -8.1263 H   0  0  0  0  0  0
   -6.1736    4.4148   -7.7969 H   0  0  0  0  0  0
   -5.3828    4.4107   -4.8690 H   0  0  0  0  0  0
   -4.8160    5.7192   -5.9614 H   0  0  0  0  0  0
   -6.2418    1.9744   -7.4389 H   0  0  0  0  0  0
   -7.2944    2.8569   -6.2813 H   0  0  0  0  0  0
   -5.7067    2.2134   -5.7409 H   0  0  0  0  0  0
   -6.8371    6.3619   -4.7633 H   0  0  0  0  0  0
   -7.7072    4.9426   -5.4379 H   0  0  0  0  0  0
   -7.1405    6.2511   -6.5303 H   0  0  0  0  0  0
   -3.9918    3.9824   -9.9961 H   0  0  0  0  0  0
   -2.8759    6.8036   -9.6093 H   0  0  0  0  0  0
   -2.2160    4.6320  -11.6648 H   0  0  0  0  0  0
   -1.8226    6.3574  -11.9726 H   0  0  0  0  0  0
   -1.3874    4.2228   -8.8010 H   0  0  0  0  0  0
    0.3438    7.1304  -12.5966 H   0  0  0  0  0  0
    3.4921    5.6543   -8.9964 H   0  0  0  0  0  0
    2.7229    7.8005  -12.6355 H   0  0  0  0  0  0
    4.2750    7.0660  -10.8592 H   0  0  0  0  0  0
   -4.8056    7.8927   -9.6802 H   0  0  0  0  0  0
   -6.7354    7.2741  -11.8192 H   0  0  0  0  0  0
   -7.0444    8.5239   -9.5013 H   0  0  0  0  0  0
   -6.5848    9.9914  -10.4296 H   0  0  0  0  0  0
   -8.4272    7.8402  -12.6709 H   0  0  0  0  0  0
   -8.5907   10.9432   -8.6469 H   0  0  0  0  0  0
  -12.7040   10.2985  -11.4258 H   0  0  0  0  0  0
  -10.6977   12.1075   -8.0860 H   0  0  0  0  0  0
  -12.7262   11.7918   -9.4607 H   0  0  0  0  0  0
   -5.1279    7.2030  -13.5854 H   0  0  0  0  0  0
   -4.4388   10.0154  -14.4442 H   0  0  0  0  0  0
   -3.5575    7.3609  -15.7471 H   0  0  0  0  0  0
   -3.4098    9.3386  -17.2173 H   0  0  0  0  0  0
   -1.7921    8.6894  -16.7831 H   0  0  0  0  0  0
   -2.4094   10.1733  -15.9807 H   0  0  0  0  0  0
   -2.8320    7.5072  -13.3857 H   0  0  0  0  0  0
   -2.0694    9.0971  -13.7286 H   0  0  0  0  0  0
   -1.4522    7.6132  -14.5309 H   0  0  0  0  0  0
  -10.9544    8.5188  -12.9648 H   0  0  0  0  0  0
    1.0973    4.3301   -7.9379 H   0  0  0  0  0  0
    4.8457    5.6450   -5.6904 H   0  0  0  0  0  0
  1  2  1  0  0  0
  1 70  1  0  0  0
  1 71  1  0  0  0
  1 72  1  0  0  0
  2  3  1  0  0  0
  2  5  1  0  0  0
  2 73  1  0  0  0
  3  4  2  0  0  0
  3  9  1  0  0  0
  5  6  1  0  0  0
  5 74  1  0  0  0
  5 75  1  0  0  0
  6  7  1  0  0  0
  6  8  2  0  0  0
  9 10  1  0  0  0
  9 76  1  0  0  0
 10 11  1  0  0  0
 10 13  1  0  0  0
 10 77  1  0  0  0
 11 12  2  0  0  0
 11 15  1  0  0  0
 13 14  1  0  0  0
 13 78  1  0  0  0
 13 79  1  0  0  0
 14 80  1  0  0  0
 15 16  1  0  0  0
 15 81  1  0  0  0
 16 17  1  0  0  0
 16 19  1  0  0  0
 16 82  1  0  0  0
 17 18  2  0  0  0
 17 26  1  0  0  0
 19 20  1  0  0  0
 19 83  1  0  0  0
 19 84  1  0  0  0
 20 21  1  0  0  0
 20 85  1  0  0  0
 20 86  1  0  0  0
 21 22  1  0  0  0
 21 87  1  0  0  0
 21 88  1  0  0  0
 22 23  1  0  0  0
 22 89  1  0  0  0
 23 24  1  0  0  0
 23 25  2  0  0  0
 24 90  1  0  0  0
 24 91  1  0  0  0
 25 92  1  0  0  0
 25133  1  0  0  0
 26 27  1  0  0  0
 26 93  1  0  0  0
 27 28  1  0  0  0
 27 30  1  0  0  0
 27 94  1  0  0  0
 28 29  2  0  0  0
 28 34  1  0  0  0
 30 31  1  0  0  0
 30 32  1  0  0  0
 30 95  1  0  0  0
 31 33  1  0  0  0
 31 96  1  0  0  0
 31 97  1  0  0  0
 32 98  1  0  0  0
 32 99  1  0  0  0
 32100  1  0  0  0
 33101  1  0  0  0
 33102  1  0  0  0
 33103  1  0  0  0
 34 35  1  0  0  0
 34104  1  0  0  0
 35 36  1  0  0  0
 35 38  1  0  0  0
 35105  1  0  0  0
 36 37  2  0  0  0
 36 48  1  0  0  0
 38 39  1  0  0  0
 38106  1  0  0  0
 38107  1  0  0  0
 39 40  2  0  0  0
 39 41  1  0  0  0
 40 42  1  0  0  0
 40108  1  0  0  0
 41 43  2  0  0  0
 41 44  1  0  0  0
 42 43  1  0  0  0
 42132  1  0  0  0
 43 45  1  0  0  0
 44 46  2  0  0  0
 44109  1  0  0  0
 45 47  2  0  0  0
 45110  1  0  0  0
 46 47  1  0  0  0
 46111  1  0  0  0
 47112  1  0  0  0
 48 49  1  0  0  0
 48113  1  0  0  0
 49 50  1  0  0  0
 49 52  1  0  0  0
 49114  1  0  0  0
 50 51  2  0  0  0
 50 62  1  0  0  0
 52 53  1  0  0  0
 52115  1  0  0  0
 52116  1  0  0  0
 53 54  2  0  0  0
 53 55  1  0  0  0
 54 56  1  0  0  0
 54117  1  0  0  0
 55 57  2  0  0  0
 55 58  1  0  0  0
 56 57  1  0  0  0
 56131  1  0  0  0
 57 59  1  0  0  0
 58 60  2  0  0  0
 58118  1  0  0  0
 59 61  2  0  0  0
 59119  1  0  0  0
 60 61  1  0  0  0
 60120  1  0  0  0
 61121  1  0  0  0
 62 63  1  0  0  0
 62122  1  0  0  0
 63 64  1  0  0  0
 63 66  1  0  0  0
 63123  1  0  0  0
 64 65  1  0  0  0
 64 69  2  0  0  0
 66 67  1  0  0  0
 66 68  1  0  0  0
 66124  1  0  0  0
 67125  1  0  0  0
 67126  1  0  0  0
 67127  1  0  0  0
 68128  1  0  0  0
 68129  1  0  0  0
 68130  1  0  0  0
M  CHG  6   1   1   7  -1  25   1  42   1  56   1  65  -1
M  END
> <s_m_source_file>
../2joa_ligand.sdf

> <i_m_source_file_index>
1

> <s_epik_input>
W09IXUMoPU8pW0NIMl1bQ0BIXShbTkgzK10pQyg9TylbTkhdW0NAQEhdKFtDSDJdW09IXSlDKD1PKVtOSF1bQ0BASF0oW0NIMl1bQ0gyXVtDSDJdW05IXS9DKFtOSDJdKT1OXFtIXSlDKD1PKVtOSF1bQ0BASF0oW0NAQEhdKFtDSDNdKVtDSDJdW0NIM10pQyg9TylbTkhdW0NAQEhdKFtDSDJdYzFbY0hdW25IXWMoYzEyKVtjSF1bY0hdW2NIXVtjSF0yKUMoPU8pW05IXVtDQEhdKEMoPU8pW05IXVtDQEhdKEMoPU8pW09IXSlbQ0hdKFtDSDNdKVtDSDNdKVtDSDJdYzNbY0hdW25IXWMoYzM0KVtjSF1bY0hdW2NIXVtjSF00

> <s_epik_cmdline>
J2VwaWtfYXBwJywgJy1pbWFlJywgJ2xpZ2FuZF9wcm8ubWFlJywgJy1vbWFlJywgJ2xpZ2FuZF9wcmVwLm1hZScsICctbXMnLCAnMScsICctcGgnLCAnNycsICctcGh0JywgJzAuNScsICctbnQn

> <r_epik_Ionization_Penalty>
  0.0218

> <r_epik_Ionization_Penalty_Charging>
  0.0218

> <r_epik_Ionization_Penalty_Neutral>
  0.0000

> <r_epik_State_Penalty>
  0.0173

> <r_epik_Charging_Adjusted_Penalty>
0.0390561236684519

> <i_epik_Tot_Q>
2

> <i_epik_Tot_abs_Q>
6

> <s_epik_Chemistry_Notes>
This compound has an imine and may undergo hydrolysis.

$$$$
