2jq9_ligand
                    3D
 Schrodinger Suite 2020-3.
221220  0  0  1  0            999 V2000
    9.8580   -4.2440    8.5260 N   0  3  0  0  0  0
    8.4580   -3.8350    8.5050 C   0  0  2  0  0  0
    8.3240   -2.3410    8.7790 C   0  0  0  0  0  0
    7.4100   -1.6860    8.2770 O   0  0  0  0  0  0
    7.6570   -4.6290    9.5380 C   0  0  0  0  0  0
    6.1650   -4.6660    9.2540 C   0  0  0  0  0  0
    5.3290   -4.6090   10.5170 C   0  0  0  0  0  0
    5.6050   -5.3950   11.4480 O   0  0  0  0  0  0
    4.3980   -3.7780   10.5770 O   0  0  0  0  0  0
    9.2400   -1.8070    9.5800 N   0  0  0  0  0  0
    9.2240   -0.3890    9.9220 C   0  0  2  0  0  0
    9.6020    0.4670    8.7170 C   0  0  0  0  0  0
    9.1470    1.6030    8.5830 O   0  0  0  0  0  0
   10.1850   -0.1120   11.0800 C   0  0  0  0  0  0
    9.6690    0.9660   12.0130 C   0  0  0  0  0  0
    8.6590    0.7190   12.7060 O   0  0  0  0  0  0
   10.2750    2.0570   12.0530 O   0  0  0  0  0  0
   10.4370   -0.0860    7.8430 N   0  0  0  0  0  0
   10.8760    0.6280    6.6490 C   0  0  2  0  0  0
    9.6860    1.0150    5.7760 C   0  0  0  0  0  0
    9.4480    2.1960    5.5230 O   0  0  0  0  0  0
   11.8530   -0.2320    5.8460 C   0  0  0  0  0  0
   13.0450   -0.7170    6.6560 C   0  0  0  0  0  0
   14.2470    0.1970    6.5270 C   0  0  0  0  0  0
   14.7930    0.3750    5.4380 O   0  0  0  0  0  0
   14.6680    0.7830    7.6430 N   0  0  0  0  0  0
    8.9430    0.0130    5.3190 N   0  0  0  0  0  0
    7.7780    0.2490    4.4740 C   0  0  2  0  0  0
    6.6290    0.8440    5.2830 C   0  0  0  0  0  0
    5.8070    1.5920    4.7530 O   0  0  0  0  0  0
    7.3290   -1.0550    3.8110 C   0  0  0  0  0  0
    6.7840   -2.1160    4.7680 C   0  0  0  0  0  0
    5.6840   -2.9240    4.0980 C   0  0  0  0  0  0
    7.9040   -3.0290    5.2440 C   0  0  0  0  0  0
    6.5780    0.5080    6.5680 N   0  0  0  0  0  0
    5.5300    1.0100    7.4480 C   0  0  2  0  0  0
    5.6330    2.5230    7.6100 C   0  0  0  0  0  0
    4.6220    3.2160    7.7220 O   0  0  0  0  0  0
    5.6160    0.3320    8.8170 C   0  0  0  0  0  0
    4.6640    0.8740    9.7160 O   0  0  0  0  0  0
    6.8620    3.0290    7.6210 N   0  0  0  0  0  0
    7.0970    4.4610    7.7690 C   0  0  2  0  0  0
    6.8100    5.1970    6.4640 C   0  0  0  0  0  0
    6.0820    6.1900    6.4480 O   0  0  0  0  0  0
    8.5400    4.7190    8.2070 C   0  0  0  0  0  0
    8.6850    5.8910    9.1640 C   0  0  0  0  0  0
    8.5980    5.4390   10.6130 C   0  0  0  0  0  0
    9.5060    6.1910   11.4760 N   0  0  0  0  0  0
    9.2880    7.4440   11.8690 C   0  0  0  0  0  0
    8.1950    8.0890   11.4800 N   0  0  0  0  0  0
   10.1650    8.0540   12.6550 N   0  0  0  0  0  0
    7.3870    4.7050    5.3730 N   0  0  0  0  0  0
    7.1920    5.3160    4.0640 C   0  0  2  0  0  0
    5.7190    5.2980    3.6680 C   0  0  0  0  0  0
    5.2420    6.1960    2.9740 O   0  0  0  0  0  0
    8.0250    4.5860    3.0080 C   0  0  0  0  0  0
    9.5090    4.5350    3.3320 C   0  0  0  0  0  0
   10.1560    3.2740    2.7820 C   0  0  0  0  0  0
   10.6860    3.4740    1.4350 N   0  0  0  0  0  0
   11.4190    2.5720    0.7860 C   0  0  0  0  0  0
   11.7110    1.4090    1.3550 N   0  0  0  0  0  0
   11.8610    2.8340   -0.4370 N   0  0  0  0  0  0
    5.0040    4.2710    4.1140 N   0  0  0  0  0  0
    3.5850    4.1360    3.8060 C   0  0  2  0  0  0
    2.7700    5.2080    4.5220 C   0  0  0  0  0  0
    1.8920    5.8340    3.9270 O   0  0  0  0  0  0
    3.0850    2.7470    4.2060 C   0  0  0  0  0  0
    1.6000    2.4920    3.9400 C   0  0  0  0  0  0
    1.3650    1.0350    3.5750 C   0  0  0  0  0  0
    0.7680    2.8800    5.1540 C   0  0  0  0  0  0
    3.0650    5.4150    5.8010 N   0  0  0  0  0  0
    2.3600    6.4110    6.5970 C   0  0  2  0  0  0
    2.5230    7.8060    6.0010 C   0  0  0  0  0  0
    1.6340    8.6490    6.1180 O   0  0  0  0  0  0
    2.8580    6.3880    8.0340 C   0  0  0  0  0  0
    3.6640    8.0410    5.3620 N   0  0  0  0  0  0
    3.9440    9.3330    4.7480 C   0  0  2  0  0  0
    3.1420    9.5160    3.4650 C   0  0  0  0  0  0
    2.7340   10.6270    3.1290 O   0  0  0  0  0  0
    5.4320    9.4720    4.4670 C   0  0  0  0  0  0
    2.9200    8.4170    2.7500 N   0  0  0  0  0  0
    2.1660    8.4560    1.5030 C   0  0  2  0  0  0
    0.7450    8.9580    1.7400 C   0  0  0  0  0  0
    0.3010    9.9170    1.1090 O   0  0  0  0  0  0
    2.1280    7.0680    0.8610 C   0  0  0  0  0  0
    2.1720    7.0590   -0.6680 C   0  0  0  0  0  0
    3.6100    7.0270   -1.1610 C   0  0  0  0  0  0
    1.3920    5.8730   -1.2150 C   0  0  0  0  0  0
    0.0370    8.3040    2.6550 N   0  0  0  0  0  0
   -1.3330    8.6840    2.9770 C   0  0  2  0  0  0
   -1.3920   10.1120    3.5080 C   0  0  0  0  0  0
   -2.2300   10.9080    3.0850 O   0  0  0  0  0  0
   -1.9230    7.7200    4.0080 C   0  0  0  0  0  0
   -1.1880    7.7270    5.3380 C   0  0  0  0  0  0
   -1.6930    6.6280    6.2590 C   0  0  0  0  0  0
   -1.6550    7.0310    7.6630 N   0  0  0  0  0  0
   -1.8580    6.1950    8.6790 C   0  0  0  0  0  0
   -2.1140    4.9130    8.4530 N   0  0  0  0  0  0
   -1.8050    6.6440    9.9260 N   0  0  0  0  0  0
   -0.4960   10.4300    4.4360 N   0  0  0  0  0  0
   -0.4450   11.7640    5.0250 C   0  0  2  0  0  0
    0.3780   12.7110    4.1580 C   0  0  0  0  0  0
    1.6180   12.7190    4.3050 O   0  0  0  0  0  0
    0.1470   11.7000    6.4340 C   0  0  0  0  0  0
   -0.4720   12.7210    7.3680 C   0  0  0  0  0  0
   -0.3870   13.9270    7.1320 O   0  0  0  0  0  0
   -1.0980   12.2430    8.4370 N   0  0  0  0  0  0
   -0.2250   13.4350    3.3380 O   0  0  0  0  0  0
   10.4204   -3.6649    7.7788 H   0  0  0  0  0  0
    9.9304   -5.3159    8.2896 H   0  0  0  0  0  0
   10.2789   -4.0596    9.5254 H   0  0  0  0  0  0
    8.1020   -4.0578    7.4883 H   0  0  0  0  0  0
    8.0133   -5.6695    9.5573 H   0  0  0  0  0  0
    7.7908   -4.1771   10.5319 H   0  0  0  0  0  0
    5.8895   -3.8046    8.6278 H   0  0  0  0  0  0
    5.9153   -5.5980    8.7258 H   0  0  0  0  0  0
    3.7749   -3.7144   11.4813 H   0  0  0  0  0  0
   10.0237   -2.4623    9.9879 H   0  0  0  0  0  0
    8.1877   -0.1710   10.2195 H   0  0  0  0  0  0
   10.3258   -1.0312   11.6675 H   0  0  0  0  0  0
   11.1547    0.2198   10.6804 H   0  0  0  0  0  0
    8.2624    1.4822   13.3917 H   0  0  0  0  0  0
   10.7977   -1.1069    8.0371 H   0  0  0  0  0  0
   11.3749    1.5363    7.0178 H   0  0  0  0  0  0
   11.3306   -1.1221    5.4654 H   0  0  0  0  0  0
   12.2461    0.3518    5.0007 H   0  0  0  0  0  0
   12.7700   -0.7656    7.7200 H   0  0  0  0  0  0
   13.3422   -1.7173    6.3081 H   0  0  0  0  0  0
   14.1479    0.5936    8.5936 H   0  0  0  0  0  0
   15.5365    1.4575    7.6161 H   0  0  0  0  0  0
    9.2250   -1.0145    5.5925 H   0  0  0  0  0  0
    8.1096    0.9728    3.7150 H   0  0  0  0  0  0
    6.5269   -0.8420    3.0890 H   0  0  0  0  0  0
    8.1814   -1.5127    3.2876 H   0  0  0  0  0  0
    6.3530   -1.6126    5.6460 H   0  0  0  0  0  0
    4.8850   -2.2471    3.7614 H   0  0  0  0  0  0
    5.2724   -3.6488    4.8158 H   0  0  0  0  0  0
    6.0989   -3.4607    3.2321 H   0  0  0  0  0  0
    8.6887   -2.4266    5.7250 H   0  0  0  0  0  0
    8.3298   -3.5662    4.3837 H   0  0  0  0  0  0
    7.5033   -3.7543    5.9674 H   0  0  0  0  0  0
    7.3521   -0.1661    6.9634 H   0  0  0  0  0  0
    4.5831    0.7551    6.9497 H   0  0  0  0  0  0
    5.4212   -0.7449    8.7057 H   0  0  0  0  0  0
    6.6214    0.4812    9.2376 H   0  0  0  0  0  0
    4.5991    0.4911   10.7452 H   0  0  0  0  0  0
    7.7130    2.3401    7.5151 H   0  0  0  0  0  0
    6.3929    4.7958    8.5450 H   0  0  0  0  0  0
    8.9332    3.8275    8.7175 H   0  0  0  0  0  0
    9.1578    4.9379    7.3236 H   0  0  0  0  0  0
    9.6609    6.3738    9.0073 H   0  0  0  0  0  0
    7.8817    6.6188    8.9769 H   0  0  0  0  0  0
    7.5723    5.5864   10.9821 H   0  0  0  0  0  0
    8.8627    4.3735   10.6813 H   0  0  0  0  0  0
   10.4328    5.7232   11.8397 H   0  0  0  0  0  0
    7.4638    7.5886   10.8281 H   0  0  0  0  0  0
    8.0205    9.1239   11.8095 H   0  0  0  0  0  0
   11.0727    7.5250   12.9808 H   0  0  0  0  0  0
    8.0248    3.8146    5.4748 H   0  0  0  0  0  0
    7.5326    6.3562    4.1735 H   0  0  0  0  0  0
    7.6730    3.5479    2.9166 H   0  0  0  0  0  0
    7.9177    5.0961    2.0394 H   0  0  0  0  0  0
   10.0115    5.4066    2.8873 H   0  0  0  0  0  0
    9.6468    4.5496    4.4232 H   0  0  0  0  0  0
   10.9868    2.9726    3.4369 H   0  0  0  0  0  0
    9.4098    2.4668    2.7413 H   0  0  0  0  0  0
   10.4856    4.4134    0.8990 H   0  0  0  0  0  0
   11.3473    1.1861    2.3689 H   0  0  0  0  0  0
   12.3167    0.6681    0.8127 H   0  0  0  0  0  0
   11.6222    3.7961   -0.9137 H   0  0  0  0  0  0
    5.5079    3.5113    4.7297 H   0  0  0  0  0  0
    3.5055    4.2751    2.7177 H   0  0  0  0  0  0
    3.6412    1.9815    3.6450 H   0  0  0  0  0  0
    3.2417    2.5974    5.2844 H   0  0  0  0  0  0
    1.2812    3.1128    3.0897 H   0  0  0  0  0  0
    1.9740    0.7742    2.6969 H   0  0  0  0  0  0
    0.3009    0.8825    3.3417 H   0  0  0  0  0  0
    1.6501    0.3942    4.4224 H   0  0  0  0  0  0
    0.9515    3.9358    5.4020 H   0  0  0  0  0  0
    1.0502    2.2481    6.0090 H   0  0  0  0  0  0
   -0.2990    2.7364    4.9283 H   0  0  0  0  0  0
    3.8639    4.8117    6.2568 H   0  0  0  0  0  0
    1.3000    6.1192    6.5621 H   0  0  0  0  0  0
    2.7339    5.3768    8.4489 H   0  0  0  0  0  0
    2.2783    7.1045    8.6345 H   0  0  0  0  0  0
    3.9220    6.6660    8.0578 H   0  0  0  0  0  0
    4.4064    7.2314    5.3027 H   0  0  0  0  0  0
    3.6289   10.0859    5.4854 H   0  0  0  0  0  0
    5.9958    9.3374    5.4019 H   0  0  0  0  0  0
    5.6358   10.4720    4.0566 H   0  0  0  0  0  0
    5.7407    8.7071    3.7393 H   0  0  0  0  0  0
    3.3210    7.4621    3.1206 H   0  0  0  0  0  0
    2.7061    9.1646    0.8579 H   0  0  0  0  0  0
    2.9934    6.4818    1.2036 H   0  0  0  0  0  0
    1.1994    6.5549    1.1515 H   0  0  0  0  0  0
    1.7034    7.9816   -1.0412 H   0  0  0  0  0  0
    4.1561    7.8913   -0.7551 H   0  0  0  0  0  0
    3.6218    7.0691   -2.2601 H   0  0  0  0  0  0
    4.0924    6.0975   -0.8245 H   0  0  0  0  0  0
    0.3561    5.9145   -0.8474 H   0  0  0  0  0  0
    1.8633    4.9377   -0.8787 H   0  0  0  0  0  0
    1.3927    5.9093   -2.3144 H   0  0  0  0  0  0
    0.5093    7.4571    3.1742 H   0  0  0  0  0  0
   -1.8850    8.6197    2.0277 H   0  0  0  0  0  0
   -2.9691    7.9939    4.2095 H   0  0  0  0  0  0
   -1.8819    6.6932    3.6155 H   0  0  0  0  0  0
   -0.1134    7.5690    5.1639 H   0  0  0  0  0  0
   -1.3402    8.6960    5.8360 H   0  0  0  0  0  0
   -2.7334    6.3819    6.0001 H   0  0  0  0  0  0
   -1.0643    5.7331    6.1411 H   0  0  0  0  0  0
   -1.4493    8.0783    7.9292 H   0  0  0  0  0  0
   -2.1592    4.5348    7.4211 H   0  0  0  0  0  0
   -2.2810    4.2283    9.2976 H   0  0  0  0  0  0
   -1.5932    7.7059   10.1197 H   0  0  0  0  0  0
    0.2188    9.6586    4.7586 H   0  0  0  0  0  0
   -1.4888   12.1091    5.0610 H   0  0  0  0  0  0
   -0.0271   10.7008    6.8598 H   0  0  0  0  0  0
    1.2285   11.8950    6.3865 H   0  0  0  0  0  0
   -1.1478   11.1571    8.6055 H   0  0  0  0  0  0
   -1.5668   12.9329    9.1541 H   0  0  0  0  0  0
    0.3395   14.1289    2.6978 H   0  0  0  0  0  0
  1  2  1  0  0  0
  1109  1  0  0  0
  1110  1  0  0  0
  1111  1  0  0  0
  2  3  1  0  0  0
  2  5  1  0  0  0
  2112  1  0  0  0
  3  4  2  0  0  0
  3 10  1  0  0  0
  5  6  1  0  0  0
  5113  1  0  0  0
  5114  1  0  0  0
  6  7  1  0  0  0
  6115  1  0  0  0
  6116  1  0  0  0
  7  8  2  0  0  0
  7  9  1  0  0  0
  9117  1  0  0  0
 10 11  1  0  0  0
 10118  1  0  0  0
 11 12  1  0  0  0
 11 14  1  0  0  0
 11119  1  0  0  0
 12 13  2  0  0  0
 12 18  1  0  0  0
 14 15  1  0  0  0
 14120  1  0  0  0
 14121  1  0  0  0
 15 16  1  0  0  0
 15 17  2  0  0  0
 16122  1  0  0  0
 18 19  1  0  0  0
 18123  1  0  0  0
 19 20  1  0  0  0
 19 22  1  0  0  0
 19124  1  0  0  0
 20 21  2  0  0  0
 20 27  1  0  0  0
 22 23  1  0  0  0
 22125  1  0  0  0
 22126  1  0  0  0
 23 24  1  0  0  0
 23127  1  0  0  0
 23128  1  0  0  0
 24 25  2  0  0  0
 24 26  1  0  0  0
 26129  1  0  0  0
 26130  1  0  0  0
 27 28  1  0  0  0
 27131  1  0  0  0
 28 29  1  0  0  0
 28 31  1  0  0  0
 28132  1  0  0  0
 29 30  2  0  0  0
 29 35  1  0  0  0
 31 32  1  0  0  0
 31133  1  0  0  0
 31134  1  0  0  0
 32 33  1  0  0  0
 32 34  1  0  0  0
 32135  1  0  0  0
 33136  1  0  0  0
 33137  1  0  0  0
 33138  1  0  0  0
 34139  1  0  0  0
 34140  1  0  0  0
 34141  1  0  0  0
 35 36  1  0  0  0
 35142  1  0  0  0
 36 37  1  0  0  0
 36 39  1  0  0  0
 36143  1  0  0  0
 37 38  2  0  0  0
 37 41  1  0  0  0
 39 40  1  0  0  0
 39144  1  0  0  0
 39145  1  0  0  0
 40146  1  0  0  0
 41 42  1  0  0  0
 41147  1  0  0  0
 42 43  1  0  0  0
 42 45  1  0  0  0
 42148  1  0  0  0
 43 44  2  0  0  0
 43 52  1  0  0  0
 45 46  1  0  0  0
 45149  1  0  0  0
 45150  1  0  0  0
 46 47  1  0  0  0
 46151  1  0  0  0
 46152  1  0  0  0
 47 48  1  0  0  0
 47153  1  0  0  0
 47154  1  0  0  0
 48 49  1  0  0  0
 48155  1  0  0  0
 49 50  1  0  0  0
 49 51  2  0  0  0
 50156  1  0  0  0
 50157  1  0  0  0
 51158  1  0  0  0
 52 53  1  0  0  0
 52159  1  0  0  0
 53 54  1  0  0  0
 53 56  1  0  0  0
 53160  1  0  0  0
 54 55  2  0  0  0
 54 63  1  0  0  0
 56 57  1  0  0  0
 56161  1  0  0  0
 56162  1  0  0  0
 57 58  1  0  0  0
 57163  1  0  0  0
 57164  1  0  0  0
 58 59  1  0  0  0
 58165  1  0  0  0
 58166  1  0  0  0
 59 60  1  0  0  0
 59167  1  0  0  0
 60 61  1  0  0  0
 60 62  2  0  0  0
 61168  1  0  0  0
 61169  1  0  0  0
 62170  1  0  0  0
 63 64  1  0  0  0
 63171  1  0  0  0
 64 65  1  0  0  0
 64 67  1  0  0  0
 64172  1  0  0  0
 65 66  2  0  0  0
 65 71  1  0  0  0
 67 68  1  0  0  0
 67173  1  0  0  0
 67174  1  0  0  0
 68 69  1  0  0  0
 68 70  1  0  0  0
 68175  1  0  0  0
 69176  1  0  0  0
 69177  1  0  0  0
 69178  1  0  0  0
 70179  1  0  0  0
 70180  1  0  0  0
 70181  1  0  0  0
 71 72  1  0  0  0
 71182  1  0  0  0
 72 73  1  0  0  0
 72 75  1  0  0  0
 72183  1  0  0  0
 73 74  2  0  0  0
 73 76  1  0  0  0
 75184  1  0  0  0
 75185  1  0  0  0
 75186  1  0  0  0
 76 77  1  0  0  0
 76187  1  0  0  0
 77 78  1  0  0  0
 77 80  1  0  0  0
 77188  1  0  0  0
 78 79  2  0  0  0
 78 81  1  0  0  0
 80189  1  0  0  0
 80190  1  0  0  0
 80191  1  0  0  0
 81 82  1  0  0  0
 81192  1  0  0  0
 82 83  1  0  0  0
 82 85  1  0  0  0
 82193  1  0  0  0
 83 84  2  0  0  0
 83 89  1  0  0  0
 85 86  1  0  0  0
 85194  1  0  0  0
 85195  1  0  0  0
 86 87  1  0  0  0
 86 88  1  0  0  0
 86196  1  0  0  0
 87197  1  0  0  0
 87198  1  0  0  0
 87199  1  0  0  0
 88200  1  0  0  0
 88201  1  0  0  0
 88202  1  0  0  0
 89 90  1  0  0  0
 89203  1  0  0  0
 90 91  1  0  0  0
 90 93  1  0  0  0
 90204  1  0  0  0
 91 92  2  0  0  0
 91100  1  0  0  0
 93 94  1  0  0  0
 93205  1  0  0  0
 93206  1  0  0  0
 94 95  1  0  0  0
 94207  1  0  0  0
 94208  1  0  0  0
 95 96  1  0  0  0
 95209  1  0  0  0
 95210  1  0  0  0
 96 97  1  0  0  0
 96211  1  0  0  0
 97 98  1  0  0  0
 97 99  2  0  0  0
 98212  1  0  0  0
 98213  1  0  0  0
 99214  1  0  0  0
100101  1  0  0  0
100215  1  0  0  0
101102  1  0  0  0
101104  1  0  0  0
101216  1  0  0  0
102103  2  0  0  0
102108  1  0  0  0
104105  1  0  0  0
104217  1  0  0  0
104218  1  0  0  0
105106  2  0  0  0
105107  1  0  0  0
107219  1  0  0  0
107220  1  0  0  0
108221  1  0  0  0
M  CHG  1   1   1
M  END
> <s_m_source_file>
../2jq9_ligand.sdf

> <i_m_source_file_index>
1

> <s_epik_input>
Tz1DKFtPSF0pW0NIMl1bQ0gyXVtDQEhdKFtOSDMrXSlDKD1PKVtOSF1bQ0BASF0oW0NIMl1DKD1PKVtPSF0pQyg9TylbTkhdW0NAQEhdKFtDSDJdW0NIMl1DKD1PKVtOSDJdKUMoPU8pW05IXVtDQEBIXShbQ0gyXVtDSF0oW0NIM10pW0NIM10pQyg9TylbTkhdW0NAQEhdKFtDSDJdW09IXSlDKD1PKVtOSF1bQ0BASF0oW0NIMl1bQ0gyXVtDSDJdW05IXS9DKFtOSDJdKT1OXFtIXSlDKD1PKVtOSF1bQ0BASF0oW0NIMl1bQ0gyXVtDSDJdW05IXS9DKFtOSDJdKT1OXFtIXSlDKD1PKVtOSF1bQ0BASF0oW0NIMl1bQ0hdKFtDSDNdKVtDSDNdKUMoPU8pW05IXVtDQEBIXShbQ0gzXSlDKD1PKVtOSF1bQ0BASF0oW0NIM10pQyg9TylbTkhdW0NAQEhdKFtDSDJdW0NIXShbQ0gzXSlbQ0gzXSlDKD1PKVtOSF1bQ0BIXShDKD1PKVtOSF1bQ0BIXShDKD1PKVtPSF0pW0NIMl1DKD1PKVtOSDJdKVtDSDJdW0NIMl1bQ0gyXVtOSF0vQyhbTkgyXSk9TlxbSF0=

> <s_epik_cmdline>
J2VwaWtfYXBwJywgJy1pbWFlJywgJ2xpZ2FuZF9wcm8ubWFlJywgJy1vbWFlJywgJ2xpZ2FuZF9wcmVwLm1hZScsICctbXMnLCAnMScsICctcGgnLCAnNycsICctcGh0JywgJzAuNScsICctbnQn

> <s_epik_pKa_notes>
Molecule size exceeds maximum supported for generating protonation states

> <s_epik_Chemistry_Notes>
This compound has an imine and may undergo hydrolysis.

$$$$
