2jqi_ligand
                    3D
 Schrodinger Suite 2020-3.
160160  0  0  1  0            999 V2000
  -13.8570  -27.5140    4.1750 N   0  3  0  0  0  0
  -13.7290  -28.4110    5.3540 C   0  0  2  0  0  0
  -12.2980  -28.4270    5.8820 C   0  0  0  0  0  0
  -11.4380  -29.1170    5.3380 O   0  0  0  0  0  0
  -14.1580  -29.8210    4.9420 C   0  0  0  0  0  0
  -15.0160  -30.4960    5.9950 C   0  0  0  0  0  0
  -14.6060  -31.4830    6.6050 O   0  0  0  0  0  0
  -16.2130  -29.9660    6.2110 N   0  0  0  0  0  0
  -12.0610  -27.6570    6.9440 N   0  0  0  0  0  0
  -10.7410  -27.5620    7.5680 C   0  0  2  0  0  0
   -9.6520  -27.2230    6.5470 C   0  0  0  0  0  0
   -9.8400  -27.3840    5.3420 O   0  0  0  0  0  0
  -10.3700  -28.8590    8.3290 C   0  0  2  0  0  0
   -9.1910  -28.6050    9.2710 C   0  0  0  0  0  0
  -10.0480  -29.9990    7.3690 C   0  0  0  0  0  0
   -9.2000  -29.4850   10.5000 C   0  0  0  0  0  0
   -8.5130  -26.7460    7.0400 N   0  0  0  0  0  0
   -7.4000  -26.3820    6.1730 C   0  0  1  0  0  0
   -6.8130  -25.0080    6.5590 C   0  0  1  0  0  0
   -5.6310  -24.6440    5.6700 C   0  0  0  0  0  0
   -7.8010  -24.0190    6.4490 O   0  0  0  0  0  0
   -8.3250  -23.3540    7.7590 P   0  0  0  0  0  0
   -8.3730  -24.5070    8.7970 O   0  0  0  0  0  0
   -7.2120  -22.3550    8.1650 O   0  0  0  0  0  0
   -9.6580  -22.6890    7.5770 O   0  0  0  0  0  0
   -6.2970  -27.4340    6.2290 C   0  0  0  0  0  0
   -5.8500  -27.8220    7.3080 O   0  0  0  0  0  0
   -5.8620  -27.8900    5.0590 N   0  0  0  0  0  0
   -4.8110  -28.8970    4.9750 C   0  0  2  0  0  0
   -3.4570  -28.2460    4.6940 C   0  0  0  0  0  0
   -3.3240  -27.4560    3.7600 O   0  0  0  0  0  0
   -5.1370  -29.9120    3.8770 C   0  0  0  0  0  0
   -6.4960  -30.5730    4.0440 C   0  0  0  0  0  0
   -6.5200  -31.9970    3.5240 C   0  0  0  0  0  0
   -7.3450  -32.3480    2.6800 O   0  0  0  0  0  0
   -5.6120  -32.8250    4.0280 N   0  0  0  0  0  0
   -2.4290  -28.5680    5.5020 N   0  0  0  0  0  0
   -1.0870  -28.0040    5.3280 C   0  0  2  0  0  0
   -0.3580  -28.5960    4.1260 C   0  0  0  0  0  0
   -0.2230  -29.8140    4.0080 O   0  0  0  0  0  0
   -0.3750  -28.3870    6.6260 C   0  0  0  0  0  0
   -1.0560  -29.6330    7.0730 C   0  0  0  0  0  0
   -2.4920  -29.5010    6.6440 C   0  0  0  0  0  0
    0.1110  -27.7260    3.2370 N   0  0  0  0  0  0
    0.8270  -28.1640    2.0440 C   0  0  2  0  0  0
    2.2720  -28.5220    2.3800 C   0  0  0  0  0  0
    2.7180  -28.3420    3.5130 O   0  0  0  0  0  0
    0.7960  -27.0700    0.9750 C   0  0  2  0  0  0
   -0.3850  -26.2960    1.0850 O   0  0  0  0  0  0
    0.8610  -27.6100   -0.4370 C   0  0  0  0  0  0
    2.9970  -29.0290    1.3890 N   0  0  0  0  0  0
    4.3910  -29.4130    1.5810 C   0  0  2  0  0  0
    5.2600  -28.1870    1.8430 C   0  0  0  0  0  0
    4.7930  -27.0520    1.7580 O   0  0  0  0  0  0
    4.9090  -30.1660    0.3540 C   0  0  0  0  0  0
    3.9810  -31.2750   -0.1160 C   0  0  0  0  0  0
    4.5820  -32.1020   -1.2360 C   0  0  0  0  0  0
    5.7070  -32.5900   -1.1270 O   0  0  0  0  0  0
    3.8340  -32.2630   -2.3210 N   0  0  0  0  0  0
    6.5290  -28.4250    2.1630 N   0  0  0  0  0  0
    7.4630  -27.3410    2.4360 C   0  0  2  0  0  0
    8.9060  -27.8270    2.3330 C   0  0  0  0  0  0
    9.2690  -28.8530    2.9100 O   0  0  0  0  0  0
    7.2090  -26.7570    3.8270 C   0  0  0  0  0  0
    7.7290  -25.3400    3.9970 C   0  0  0  0  0  0
    8.2100  -25.0600    5.4070 C   0  0  0  0  0  0
    7.5120  -25.3430    6.3810 O   0  0  0  0  0  0
    9.4080  -24.5000    5.5240 N   0  0  0  0  0  0
    9.7230  -27.0860    1.5930 N   0  0  0  0  0  0
   11.1250  -27.4410    1.4140 C   0  0  2  0  0  0
   11.9920  -26.8130    2.5020 C   0  0  0  0  0  0
   12.1940  -25.5990    2.5240 O   0  0  0  0  0  0
   11.6140  -26.9940    0.0350 C   0  0  0  0  0  0
   10.9760  -27.7300   -0.9940 O   0  0  0  0  0  0
   12.4990  -27.6490    3.4020 N   0  0  0  0  0  0
   13.3420  -27.1760    4.4930 C   0  0  2  0  0  0
   14.7750  -26.9590    4.0190 C   0  0  0  0  0  0
   15.2480  -27.7570    3.1830 O   0  0  0  0  0  0
   13.3220  -28.1750    5.6500 C   0  0  2  0  0  0
   11.9910  -28.4990    6.0100 O   0  0  0  0  0  0
   14.0230  -27.6680    6.8930 C   0  0  0  0  0  0
   15.4120  -25.9910    4.4850 O   0  0  0  0  0  0
  -13.5519  -26.4949    4.4548 H   0  0  0  0  0  0
  -14.9029  -27.5032    3.8344 H   0  0  0  0  0  0
  -13.2109  -27.8804    3.3637 H   0  0  0  0  0  0
  -14.3811  -28.0163    6.1471 H   0  0  0  0  0  0
  -14.7414  -29.7694    4.0109 H   0  0  0  0  0  0
  -13.2655  -30.4436    4.7813 H   0  0  0  0  0  0
  -16.5346  -29.0826    5.6398 H   0  0  0  0  0  0
  -16.8838  -30.4100    6.9613 H   0  0  0  0  0  0
  -12.9044  -27.0795    7.3505 H   0  0  0  0  0  0
  -10.8524  -26.7239    8.2716 H   0  0  0  0  0  0
  -11.2376  -29.1746    8.9271 H   0  0  0  0  0  0
   -8.2479  -28.7946    8.7374 H   0  0  0  0  0  0
   -9.2144  -27.5602    9.6143 H   0  0  0  0  0  0
  -10.9047  -30.1681    6.7001 H   0  0  0  0  0  0
   -9.8444  -30.9151    7.9428 H   0  0  0  0  0  0
   -9.1626  -29.7362    6.7716 H   0  0  0  0  0  0
   -8.3280  -29.2478   11.1272 H   0  0  0  0  0  0
   -9.1560  -30.5410   10.1951 H   0  0  0  0  0  0
  -10.1225  -29.3066   11.0720 H   0  0  0  0  0  0
   -8.4224  -26.6285    8.1299 H   0  0  0  0  0  0
   -7.8435  -26.3497    5.1669 H   0  0  0  0  0  0
   -6.5128  -24.9920    7.6171 H   0  0  0  0  0  0
   -4.8554  -25.4193    5.7556 H   0  0  0  0  0  0
   -5.2179  -23.6753    5.9878 H   0  0  0  0  0  0
   -5.9662  -24.5745    4.6246 H   0  0  0  0  0  0
   -7.4619  -25.0793    9.0259 H   0  0  0  0  0  0
   -6.1851  -22.7131    8.3304 H   0  0  0  0  0  0
   -6.3146  -27.4894    4.1399 H   0  0  0  0  0  0
   -4.7935  -29.3861    5.9601 H   0  0  0  0  0  0
   -5.1346  -29.4079    2.8993 H   0  0  0  0  0  0
   -4.3806  -30.7106    3.8796 H   0  0  0  0  0  0
   -6.7626  -30.5987    5.1109 H   0  0  0  0  0  0
   -7.2536  -29.9987    3.4905 H   0  0  0  0  0  0
   -4.8957  -32.4637    4.7806 H   0  0  0  0  0  0
   -5.5763  -33.8721    3.6928 H   0  0  0  0  0  0
   -1.1566  -26.9227    5.1383 H   0  0  0  0  0  0
    0.6930  -28.5542    6.4227 H   0  0  0  0  0  0
   -0.4859  -27.5741    7.3587 H   0  0  0  0  0  0
   -0.5786  -30.5025    6.5976 H   0  0  0  0  0  0
   -0.9756  -29.7228    8.1664 H   0  0  0  0  0  0
   -3.1261  -29.0716    7.4337 H   0  0  0  0  0  0
   -2.9184  -30.4590    6.3117 H   0  0  0  0  0  0
   -0.0519  -26.6533    3.4179 H   0  0  0  0  0  0
    0.2943  -29.0601    1.6929 H   0  0  0  0  0  0
    1.6461  -26.3962    1.1576 H   0  0  0  0  0  0
   -0.6337  -25.8044    2.0371 H   0  0  0  0  0  0
    1.7701  -28.2178   -0.5556 H   0  0  0  0  0  0
    0.8846  -26.7721   -1.1493 H   0  0  0  0  0  0
   -0.0245  -28.2326   -0.6325 H   0  0  0  0  0  0
    2.5218  -29.1568    0.4052 H   0  0  0  0  0  0
    4.3963  -30.0677    2.4649 H   0  0  0  0  0  0
    5.0310  -29.4629   -0.4831 H   0  0  0  0  0  0
    5.8793  -30.6275    0.5896 H   0  0  0  0  0  0
    3.7630  -31.9512    0.7238 H   0  0  0  0  0  0
    3.0429  -30.8358   -0.4862 H   0  0  0  0  0  0
    2.8341  -31.8074   -2.3723 H   0  0  0  0  0  0
    4.2142  -32.8520   -3.1687 H   0  0  0  0  0  0
    6.8677  -29.4701    2.2192 H   0  0  0  0  0  0
    7.2679  -26.5867    1.6595 H   0  0  0  0  0  0
    6.1269  -26.7350    4.0234 H   0  0  0  0  0  0
    7.7064  -27.3818    4.5834 H   0  0  0  0  0  0
    8.5746  -25.1753    3.3131 H   0  0  0  0  0  0
    6.9260  -24.6245    3.7661 H   0  0  0  0  0  0
    9.9956  -24.2651    4.6242 H   0  0  0  0  0  0
    9.8131  -24.2709    6.5207 H   0  0  0  0  0  0
    9.3177  -26.1850    1.1093 H   0  0  0  0  0  0
   11.1603  -28.5371    1.4998 H   0  0  0  0  0  0
   11.3904  -25.9261   -0.1049 H   0  0  0  0  0  0
   12.6998  -27.1539   -0.0386 H   0  0  0  0  0  0
   11.2195  -27.5272   -2.0474 H   0  0  0  0  0  0
   12.2690  -28.7207    3.3095 H   0  0  0  0  0  0
   12.9058  -26.2156    4.8052 H   0  0  0  0  0  0
   13.8003  -29.1018    5.3003 H   0  0  0  0  0  0
   11.2960  -28.8902    5.2524 H   0  0  0  0  0  0
   15.0627  -27.4067    6.6467 H   0  0  0  0  0  0
   14.0148  -28.4523    7.6642 H   0  0  0  0  0  0
   13.5006  -26.7768    7.2708 H   0  0  0  0  0  0
   16.4477  -25.8078    4.1629 H   0  0  0  0  0  0
  1  2  1  0  0  0
  1 83  1  0  0  0
  1 84  1  0  0  0
  1 85  1  0  0  0
  2  3  1  0  0  0
  2  5  1  0  0  0
  2 86  1  0  0  0
  3  4  2  0  0  0
  3  9  1  0  0  0
  5  6  1  0  0  0
  5 87  1  0  0  0
  5 88  1  0  0  0
  6  7  2  0  0  0
  6  8  1  0  0  0
  8 89  1  0  0  0
  8 90  1  0  0  0
  9 10  1  0  0  0
  9 91  1  0  0  0
 10 11  1  0  0  0
 10 13  1  0  0  0
 10 92  1  0  0  0
 11 12  2  0  0  0
 11 17  1  0  0  0
 13 14  1  0  0  0
 13 15  1  0  0  0
 13 93  1  0  0  0
 14 16  1  0  0  0
 14 94  1  0  0  0
 14 95  1  0  0  0
 15 96  1  0  0  0
 15 97  1  0  0  0
 15 98  1  0  0  0
 16 99  1  0  0  0
 16100  1  0  0  0
 16101  1  0  0  0
 17 18  1  0  0  0
 17102  1  0  0  0
 18 19  1  0  0  0
 18 26  1  0  0  0
 18103  1  0  0  0
 19 20  1  0  0  0
 19 21  1  0  0  0
 19104  1  0  0  0
 20105  1  0  0  0
 20106  1  0  0  0
 20107  1  0  0  0
 21 22  1  0  0  0
 22 23  1  0  0  0
 22 24  1  0  0  0
 22 25  2  0  0  0
 23108  1  0  0  0
 24109  1  0  0  0
 26 27  2  0  0  0
 26 28  1  0  0  0
 28 29  1  0  0  0
 28110  1  0  0  0
 29 30  1  0  0  0
 29 32  1  0  0  0
 29111  1  0  0  0
 30 31  2  0  0  0
 30 37  1  0  0  0
 32 33  1  0  0  0
 32112  1  0  0  0
 32113  1  0  0  0
 33 34  1  0  0  0
 33114  1  0  0  0
 33115  1  0  0  0
 34 35  2  0  0  0
 34 36  1  0  0  0
 36116  1  0  0  0
 36117  1  0  0  0
 37 38  1  0  0  0
 37 43  1  0  0  0
 38 39  1  0  0  0
 38 41  1  0  0  0
 38118  1  0  0  0
 39 40  2  0  0  0
 39 44  1  0  0  0
 41 42  1  0  0  0
 41119  1  0  0  0
 41120  1  0  0  0
 42 43  1  0  0  0
 42121  1  0  0  0
 42122  1  0  0  0
 43123  1  0  0  0
 43124  1  0  0  0
 44 45  1  0  0  0
 44125  1  0  0  0
 45 46  1  0  0  0
 45 48  1  0  0  0
 45126  1  0  0  0
 46 47  2  0  0  0
 46 51  1  0  0  0
 48 49  1  0  0  0
 48 50  1  0  0  0
 48127  1  0  0  0
 49128  1  0  0  0
 50129  1  0  0  0
 50130  1  0  0  0
 50131  1  0  0  0
 51 52  1  0  0  0
 51132  1  0  0  0
 52 53  1  0  0  0
 52 55  1  0  0  0
 52133  1  0  0  0
 53 54  2  0  0  0
 53 60  1  0  0  0
 55 56  1  0  0  0
 55134  1  0  0  0
 55135  1  0  0  0
 56 57  1  0  0  0
 56136  1  0  0  0
 56137  1  0  0  0
 57 58  2  0  0  0
 57 59  1  0  0  0
 59138  1  0  0  0
 59139  1  0  0  0
 60 61  1  0  0  0
 60140  1  0  0  0
 61 62  1  0  0  0
 61 64  1  0  0  0
 61141  1  0  0  0
 62 63  2  0  0  0
 62 69  1  0  0  0
 64 65  1  0  0  0
 64142  1  0  0  0
 64143  1  0  0  0
 65 66  1  0  0  0
 65144  1  0  0  0
 65145  1  0  0  0
 66 67  2  0  0  0
 66 68  1  0  0  0
 68146  1  0  0  0
 68147  1  0  0  0
 69 70  1  0  0  0
 69148  1  0  0  0
 70 71  1  0  0  0
 70 73  1  0  0  0
 70149  1  0  0  0
 71 72  2  0  0  0
 71 75  1  0  0  0
 73 74  1  0  0  0
 73150  1  0  0  0
 73151  1  0  0  0
 74152  1  0  0  0
 75 76  1  0  0  0
 75153  1  0  0  0
 76 77  1  0  0  0
 76 79  1  0  0  0
 76154  1  0  0  0
 77 78  2  0  0  0
 77 82  1  0  0  0
 79 80  1  0  0  0
 79 81  1  0  0  0
 79155  1  0  0  0
 80156  1  0  0  0
 81157  1  0  0  0
 81158  1  0  0  0
 81159  1  0  0  0
 82160  1  0  0  0
M  CHG  1   1   1
M  END
> <s_m_source_file>
../2jqi_ligand.sdf

> <i_m_source_file_index>
1

> <s_epik_input>
Tz1DKFtOSDJdKVtDSDJdW0NASF0oW05IMytdKUMoPU8pW05IXVtDQEBIXShbQ0BASF0oW0NIM10pW0NIMl1bQ0gzXSlDKD1PKVtOSF1bQ0BASF0oW0NAQEhdKFtDSDNdKU9QKD1PKShbT0hdKVtPSF0pQyg9TylbTkhdW0NAQEhdKFtDSDJdW0NIMl1DKD1PKVtOSDJdKUMoPU8pTjFbQ0BASF0oW0NIMl1bQ0gyXVtDSDJdMSlDKD1PKVtOSF1bQ0BASF0oW0NASF0oW09IXSlbQ0gzXSlDKD1PKVtOSF1bQ0BASF0oW0NIMl1bQ0gyXUMoPU8pW05IMl0pQyg9TylbTkhdW0NAQEhdKFtDSDJdW0NIMl1DKD1PKVtOSDJdKUMoPU8pW05IXVtDQEBIXShbQ0gyXVtPSF0pQyg9TylbTkhdW0NASF0oQyg9TylbT0hdKVtDQEhdKFtPSF0pW0NIM10=

> <s_epik_cmdline>
J2VwaWtfYXBwJywgJy1pbWFlJywgJ2xpZ2FuZF9wcm8ubWFlJywgJy1vbWFlJywgJ2xpZ2FuZF9wcmVwLm1hZScsICctbXMnLCAnMScsICctcGgnLCAnNycsICctcGh0JywgJzAuNScsICctbnQn

> <s_epik_pKa_notes>
Molecule size exceeds maximum supported for generating protonation states

$$$$
