2jqk_ligand
                    3D
 Schrodinger Suite 2020-3.
230229  0  0  1  0            999 V2000
    8.7000  -10.2160   -1.8810 N   0  3  0  0  0  0
    7.7540  -10.3470   -0.7770 C   0  0  2  0  0  0
    8.3950   -9.9300    0.5440 C   0  0  0  0  0  0
    7.7250   -9.4170    1.4370 O   0  0  0  0  0  0
    7.2490  -11.7860   -0.6820 C   0  0  0  0  0  0
    8.3770  -12.7990   -0.7280 C   0  0  0  0  0  0
    8.8880  -13.0750   -1.8360 O   0  0  0  0  0  0
    8.7530  -13.3220    0.3430 O   0  0  0  0  0  0
    9.6970  -10.1600    0.6620 N   0  0  0  0  0  0
   10.4340   -9.8170    1.8740 C   0  0  2  0  0  0
   10.6400   -8.3000    1.9670 C   0  0  0  0  0  0
   10.6350   -7.7300    3.0590 O   0  0  0  0  0  0
   11.7810  -10.5280    1.9070 C   0  0  0  0  0  0
   12.5680  -10.4170    0.6110 C   0  0  0  0  0  0
   14.0670  -10.4690    0.8300 C   0  0  0  0  0  0
   14.5180  -10.0910    1.9310 O   0  0  0  0  0  0
   14.7850  -10.8800   -0.1010 O   0  0  0  0  0  0
   10.8270   -7.6630    0.8180 N   0  0  0  0  0  0
   11.0400   -6.2230    0.7720 C   0  0  2  0  0  0
    9.7180   -5.4720    0.9100 C   0  0  0  0  0  0
    9.5990   -4.5560    1.7200 O   0  0  0  0  0  0
   11.7280   -5.8260   -0.5340 C   0  0  0  0  0  0
   13.2390   -5.9770   -0.4950 C   0  0  0  0  0  0
   13.6750   -7.4120   -0.2450 C   0  0  0  0  0  0
   13.6250   -8.2240   -1.1940 O   0  0  0  0  0  0
   14.0630   -7.7190    0.8990 O   0  0  0  0  0  0
    8.7300   -5.8740    0.1190 N   0  0  0  0  0  0
    7.4180   -5.2400    0.1570 C   0  0  2  0  0  0
    6.7730   -5.4030    1.5290 C   0  0  0  0  0  0
    6.2380   -4.4470    2.0920 O   0  0  0  0  0  0
    6.4790   -5.8240   -0.9180 C   0  0  2  0  0  0
    7.1280   -5.7350   -2.2990 C   0  0  0  0  0  0
    5.1410   -5.0960   -0.9100 C   0  0  0  0  0  0
    6.2660   -6.2930   -3.4120 C   0  0  0  0  0  0
    6.8260   -6.6180    2.0630 N   0  0  0  0  0  0
    6.2460   -6.9030    3.3700 C   0  0  2  0  0  0
    6.9070   -6.0570    4.4540 C   0  0  0  0  0  0
    6.2370   -5.5090    5.3230 O   0  0  0  0  0  0
    6.3910   -8.3920    3.7000 C   0  0  0  0  0  0
    5.6210   -8.8150    4.9390 C   0  0  0  0  0  0
    6.3190   -8.4170    6.2240 C   0  0  0  0  0  0
    7.5030   -8.7720    6.3910 O   0  0  0  0  0  0
    5.6820   -7.7450    7.0640 O   0  0  0  0  0  0
    8.2340   -5.9730    4.4000 N   0  0  0  0  0  0
    8.9890   -5.2000    5.3790 C   0  0  2  0  0  0
    8.6660   -3.7170    5.2680 C   0  0  0  0  0  0
    8.6910   -2.9910    6.2620 O   0  0  0  0  0  0
   10.4920   -5.4220    5.1850 C   0  0  0  0  0  0
   11.3140   -5.1330    6.4290 C   0  0  0  0  0  0
   11.1560   -6.2290    7.4670 C   0  0  0  0  0  0
   12.2290   -6.2050    8.4600 N   0  0  0  0  0  0
   13.4850   -6.5490    8.2020 C   0  0  0  0  0  0
   13.8370   -6.9620    6.9870 N   0  0  0  0  0  0
   14.3990   -6.4980    9.1620 N   0  0  0  0  0  0
    8.3610   -3.2720    4.0540 N   0  0  0  0  0  0
    8.0300   -1.8720    3.8140 C   0  0  2  0  0  0
    6.8030   -1.4570    4.6200 C   0  0  0  0  0  0
    6.8010   -0.4130    5.2720 O   0  0  0  0  0  0
    7.7810   -1.6320    2.3240 C   0  0  0  0  0  0
    9.0320   -1.2400    1.5530 C   0  0  0  0  0  0
    9.1310    0.2540    1.3230 C   0  0  0  0  0  0
    9.8140    0.9650    2.0600 O   0  0  0  0  0  0
    8.4460    0.7400    0.2940 N   0  0  0  0  0  0
    5.7620   -2.2820    4.5720 N   0  0  0  0  0  0
    4.5300   -1.9980    5.2990 C   0  0  2  0  0  0
    4.7920   -1.9110    6.7980 C   0  0  0  0  0  0
    4.3520   -0.9710    7.4610 O   0  0  0  0  0  0
    3.4850   -3.0800    5.0140 C   0  0  0  0  0  0
    2.6970   -2.8910    3.7140 C   0  0  0  0  0  0
    3.1930   -3.8530    2.6430 C   0  0  0  0  0  0
    1.2070   -3.0870    3.9580 C   0  0  0  0  0  0
    5.5090   -2.8960    7.3270 N   0  0  0  0  0  0
    5.8300   -2.9320    8.7490 C   0  0  2  0  0  0
    6.6310   -1.6990    9.1560 C   0  0  0  0  0  0
    6.5180   -1.2170   10.2840 O   0  0  0  0  0  0
    6.6160   -4.2000    9.0850 C   0  0  0  0  0  0
    6.3860   -4.7000   10.5020 C   0  0  0  0  0  0
    7.2700   -3.9710   11.5010 C   0  0  0  0  0  0
    8.5020   -4.7810   11.8510 C   0  0  0  0  0  0
    9.3870   -4.9930   10.6710 N   0  3  0  0  0  0
    7.4410   -1.1940    8.2310 N   0  0  0  0  0  0
    8.2610   -0.0190    8.4940 C   0  0  2  0  0  0
    7.4080    1.2440    8.5560 C   0  0  0  0  0  0
    7.4890    2.0130    9.5130 O   0  0  0  0  0  0
    9.3380    0.1220    7.4280 C   0  0  0  0  0  0
    6.5910    1.4500    7.5280 N   0  0  0  0  0  0
    5.7220    2.6190    7.4660 C   0  0  2  0  0  0
    4.6650    2.5710    8.5650 C   0  0  0  0  0  0
    4.3980    3.5740    9.2260 O   0  0  0  0  0  0
    5.0450    2.7050    6.0960 C   0  0  0  0  0  0
    5.8700    3.3960    5.0090 C   0  0  0  0  0  0
    5.5460    2.8140    3.6420 C   0  0  0  0  0  0
    5.6190    4.8970    5.0250 C   0  0  0  0  0  0
    4.0690    1.3990    8.7560 N   0  0  0  0  0  0
    3.0490    1.2430    9.7750 C   0  0  0  0  0  0
    3.6110    0.7150   11.0810 C   0  0  0  0  0  0
    3.5760   -0.4870   11.3400 O   0  0  0  0  0  0
    4.1310    1.6190   11.9070 N   0  0  0  0  0  0
    4.7030    1.2390   13.1920 C   0  0  2  0  0  0
    4.7260    2.4230   14.1540 C   0  0  0  0  0  0
    5.1360    3.5240   13.7880 O   0  0  0  0  0  0
    6.1330    0.6880   13.0290 C   0  0  0  0  0  0
    7.0570    1.7510   12.4530 C   0  0  0  0  0  0
    6.6640    0.1700   14.3590 C   0  0  0  0  0  0
    4.2840    2.1870   15.3850 N   0  0  0  0  0  0
    4.2550    3.2350   16.4000 C   0  0  2  0  0  0
    4.6400    2.6790   17.7670 C   0  0  0  0  0  0
    5.4070    3.3540   18.4850 O   0  0  0  0  0  0
    2.8650    3.8700   16.4670 C   0  0  0  0  0  0
    2.3880    4.3620   15.1150 C   0  0  0  0  0  0
    3.0570    5.2440   14.5350 O   0  0  0  0  0  0
    1.3470    3.8680   14.6360 O   0  0  0  0  0  0
    4.1710    1.5730   18.1080 O   0  0  0  0  0  0
    9.0553   -9.1765   -1.9380 H   0  0  0  0  0  0
    8.2024  -10.4857   -2.8242 H   0  0  0  0  0  0
    9.5552  -10.8871   -1.7126 H   0  0  0  0  0  0
    6.9251   -9.6645   -1.0160 H   0  0  0  0  0  0
    6.7081  -11.9229    0.2660 H   0  0  0  0  0  0
    6.5719  -11.9933   -1.5237 H   0  0  0  0  0  0
    9.7075  -13.8063   -1.8969 H   0  0  0  0  0  0
   10.2204  -10.6231   -0.1875 H   0  0  0  0  0  0
    9.8086  -10.1719    2.7064 H   0  0  0  0  0  0
   12.4040  -10.0963    2.7042 H   0  0  0  0  0  0
   11.6255  -11.5992    2.1027 H   0  0  0  0  0  0
   12.2961  -11.2488   -0.0555 H   0  0  0  0  0  0
   12.3325   -9.4614    0.1197 H   0  0  0  0  0  0
   15.6014  -10.1170    2.1198 H   0  0  0  0  0  0
   10.8186   -8.2478   -0.1136 H   0  0  0  0  0  0
   11.6889   -5.9993    1.6316 H   0  0  0  0  0  0
   11.3554   -6.4599   -1.3521 H   0  0  0  0  0  0
   11.5088   -4.7716   -0.7582 H   0  0  0  0  0  0
   13.6644   -5.6569   -1.4576 H   0  0  0  0  0  0
   13.6491   -5.3531    0.3128 H   0  0  0  0  0  0
   13.9344   -9.2684   -1.0411 H   0  0  0  0  0  0
    8.9192   -6.7053   -0.5761 H   0  0  0  0  0  0
    7.6271   -4.1786   -0.0421 H   0  0  0  0  0  0
    6.2899   -6.8839   -0.6926 H   0  0  0  0  0  0
    7.3339   -4.6817   -2.5402 H   0  0  0  0  0  0
    8.0706   -6.3020   -2.2984 H   0  0  0  0  0  0
    4.6891   -5.1704    0.0901 H   0  0  0  0  0  0
    4.4696   -5.5547   -1.6508 H   0  0  0  0  0  0
    5.2981   -4.0372   -1.1636 H   0  0  0  0  0  0
    6.7963   -6.1950   -4.3707 H   0  0  0  0  0  0
    5.3194   -5.7345   -3.4577 H   0  0  0  0  0  0
    6.0561   -7.3548   -3.2160 H   0  0  0  0  0  0
    7.3221   -7.4188    1.4950 H   0  0  0  0  0  0
    5.1839   -6.6287    3.2880 H   0  0  0  0  0  0
    6.0160   -8.9924    2.8580 H   0  0  0  0  0  0
    7.4513   -8.6273    3.8746 H   0  0  0  0  0  0
    4.6284   -8.3410    4.9334 H   0  0  0  0  0  0
    5.5049   -9.9088    4.9429 H   0  0  0  0  0  0
    6.1636   -7.4422    8.0055 H   0  0  0  0  0  0
    8.7610   -6.5036    3.5933 H   0  0  0  0  0  0
    8.6639   -5.5733    6.3613 H   0  0  0  0  0  0
   10.6748   -6.4703    4.9064 H   0  0  0  0  0  0
   10.8603   -4.7609    4.3867 H   0  0  0  0  0  0
   12.3775   -5.0615    6.1573 H   0  0  0  0  0  0
   10.9845   -4.1823    6.8736 H   0  0  0  0  0  0
   10.1989   -6.1000    7.9937 H   0  0  0  0  0  0
   11.1714   -7.2100    6.9697 H   0  0  0  0  0  0
   12.0166   -5.8880    9.4917 H   0  0  0  0  0  0
   13.0875   -7.0083    6.1832 H   0  0  0  0  0  0
   14.8775   -7.2571    6.7864 H   0  0  0  0  0  0
   14.1194   -6.1582   10.1701 H   0  0  0  0  0  0
    8.3620   -3.9879    3.2188 H   0  0  0  0  0  0
    8.9069   -1.3015    4.1540 H   0  0  0  0  0  0
    7.3871   -2.5510    1.8654 H   0  0  0  0  0  0
    7.0508   -0.8186    2.2006 H   0  0  0  0  0  0
    9.9232   -1.5546    2.1158 H   0  0  0  0  0  0
    9.0264   -1.7332    0.5698 H   0  0  0  0  0  0
    7.8491    0.0653   -0.3372 H   0  0  0  0  0  0
    8.4756    1.8172    0.0731 H   0  0  0  0  0  0
    5.8449   -3.1965    3.9663 H   0  0  0  0  0  0
    4.1871   -1.0212    4.9271 H   0  0  0  0  0  0
    3.9811   -4.0592    4.9426 H   0  0  0  0  0  0
    2.7474   -3.1013    5.8297 H   0  0  0  0  0  0
    2.8541   -1.8638    3.3533 H   0  0  0  0  0  0
    4.2697   -3.6972    2.4804 H   0  0  0  0  0  0
    2.6499   -3.6684    1.7044 H   0  0  0  0  0  0
    3.0177   -4.8884    2.9705 H   0  0  0  0  0  0
    0.8670   -2.3848    4.7334 H   0  0  0  0  0  0
    1.0227   -4.1189    4.2915 H   0  0  0  0  0  0
    0.6549   -2.8989    3.0254 H   0  0  0  0  0  0
    5.8628   -3.6983    6.6628 H   0  0  0  0  0  0
    4.8606   -2.9328    9.2689 H   0  0  0  0  0  0
    6.3197   -5.0075    8.3993 H   0  0  0  0  0  0
    7.6928   -4.0035    8.9765 H   0  0  0  0  0  0
    5.3352   -4.5358   10.7827 H   0  0  0  0  0  0
    6.6157   -5.7745   10.5535 H   0  0  0  0  0  0
    7.5955   -3.0122   11.0712 H   0  0  0  0  0  0
    6.7029   -3.7849   12.4250 H   0  0  0  0  0  0
    9.0809   -4.2529   12.6230 H   0  0  0  0  0  0
    8.1967   -5.7668   12.2319 H   0  0  0  0  0  0
   10.2647   -5.5835   10.9724 H   0  0  0  0  0  0
    9.7169   -4.0190   10.2804 H   0  0  0  0  0  0
    8.8326   -5.5329    9.8892 H   0  0  0  0  0  0
    7.4832   -1.6852    7.2477 H   0  0  0  0  0  0
    8.7231   -0.1965    9.4763 H   0  0  0  0  0  0
    9.9440   -0.7955    7.3954 H   0  0  0  0  0  0
    9.9833    0.9793    7.6700 H   0  0  0  0  0  0
    8.8651    0.2840    6.4482 H   0  0  0  0  0  0
    6.5805    0.7129    6.7115 H   0  0  0  0  0  0
    6.3832    3.4835    7.6258 H   0  0  0  0  0  0
    4.8283    1.6906    5.7298 H   0  0  0  0  0  0
    4.1059    3.2707    6.1859 H   0  0  0  0  0  0
    6.9374    3.2222    5.2103 H   0  0  0  0  0  0
    5.7336    1.7302    3.6511 H   0  0  0  0  0  0
    6.1818    3.2898    2.8809 H   0  0  0  0  0  0
    4.4882    3.0010    3.4052 H   0  0  0  0  0  0
    5.8589    5.2983    6.0207 H   0  0  0  0  0  0
    4.5616    5.0944    4.7951 H   0  0  0  0  0  0
    6.2552    5.3832    4.2707 H   0  0  0  0  0  0
    4.3573    0.5413    8.1305 H   0  0  0  0  0  0
    2.5802    2.2174    9.9767 H   0  0  0  0  0  0
    2.2848    0.5343    9.4234 H   0  0  0  0  0  0
    4.1222    2.6751   11.5996 H   0  0  0  0  0  0
    4.0242    0.4586   13.5664 H   0  0  0  0  0  0
    6.1138   -0.1555   12.3232 H   0  0  0  0  0  0
    6.6523    2.1083   11.4946 H   0  0  0  0  0  0
    8.0560    1.3199   12.2913 H   0  0  0  0  0  0
    7.1306    2.5932   13.1567 H   0  0  0  0  0  0
    5.9798   -0.5955   14.7538 H   0  0  0  0  0  0
    6.7351    1.0024   15.0746 H   0  0  0  0  0  0
    7.6605   -0.2710   14.2092 H   0  0  0  0  0  0
    3.9348    1.1733   15.6309 H   0  0  0  0  0  0
    5.0017    3.9764   16.0794 H   0  0  0  0  0  0
    2.1402    3.1280   16.8332 H   0  0  0  0  0  0
    2.8874    4.7300   17.1525 H   0  0  0  0  0  0
    2.7359    5.6210   13.5528 H   0  0  0  0  0  0
    4.4293    1.1445   19.0876 H   0  0  0  0  0  0
  1  2  1  0  0  0
  1114  1  0  0  0
  1115  1  0  0  0
  1116  1  0  0  0
  2  3  1  0  0  0
  2  5  1  0  0  0
  2117  1  0  0  0
  3  4  2  0  0  0
  3  9  1  0  0  0
  5  6  1  0  0  0
  5118  1  0  0  0
  5119  1  0  0  0
  6  7  1  0  0  0
  6  8  2  0  0  0
  7120  1  0  0  0
  9 10  1  0  0  0
  9121  1  0  0  0
 10 11  1  0  0  0
 10 13  1  0  0  0
 10122  1  0  0  0
 11 12  2  0  0  0
 11 18  1  0  0  0
 13 14  1  0  0  0
 13123  1  0  0  0
 13124  1  0  0  0
 14 15  1  0  0  0
 14125  1  0  0  0
 14126  1  0  0  0
 15 16  1  0  0  0
 15 17  2  0  0  0
 16127  1  0  0  0
 18 19  1  0  0  0
 18128  1  0  0  0
 19 20  1  0  0  0
 19 22  1  0  0  0
 19129  1  0  0  0
 20 21  2  0  0  0
 20 27  1  0  0  0
 22 23  1  0  0  0
 22130  1  0  0  0
 22131  1  0  0  0
 23 24  1  0  0  0
 23132  1  0  0  0
 23133  1  0  0  0
 24 25  1  0  0  0
 24 26  2  0  0  0
 25134  1  0  0  0
 27 28  1  0  0  0
 27135  1  0  0  0
 28 29  1  0  0  0
 28 31  1  0  0  0
 28136  1  0  0  0
 29 30  2  0  0  0
 29 35  1  0  0  0
 31 32  1  0  0  0
 31 33  1  0  0  0
 31137  1  0  0  0
 32 34  1  0  0  0
 32138  1  0  0  0
 32139  1  0  0  0
 33140  1  0  0  0
 33141  1  0  0  0
 33142  1  0  0  0
 34143  1  0  0  0
 34144  1  0  0  0
 34145  1  0  0  0
 35 36  1  0  0  0
 35146  1  0  0  0
 36 37  1  0  0  0
 36 39  1  0  0  0
 36147  1  0  0  0
 37 38  2  0  0  0
 37 44  1  0  0  0
 39 40  1  0  0  0
 39148  1  0  0  0
 39149  1  0  0  0
 40 41  1  0  0  0
 40150  1  0  0  0
 40151  1  0  0  0
 41 42  2  0  0  0
 41 43  1  0  0  0
 43152  1  0  0  0
 44 45  1  0  0  0
 44153  1  0  0  0
 45 46  1  0  0  0
 45 48  1  0  0  0
 45154  1  0  0  0
 46 47  2  0  0  0
 46 55  1  0  0  0
 48 49  1  0  0  0
 48155  1  0  0  0
 48156  1  0  0  0
 49 50  1  0  0  0
 49157  1  0  0  0
 49158  1  0  0  0
 50 51  1  0  0  0
 50159  1  0  0  0
 50160  1  0  0  0
 51 52  1  0  0  0
 51161  1  0  0  0
 52 53  1  0  0  0
 52 54  2  0  0  0
 53162  1  0  0  0
 53163  1  0  0  0
 54164  1  0  0  0
 55 56  1  0  0  0
 55165  1  0  0  0
 56 57  1  0  0  0
 56 59  1  0  0  0
 56166  1  0  0  0
 57 58  2  0  0  0
 57 64  1  0  0  0
 59 60  1  0  0  0
 59167  1  0  0  0
 59168  1  0  0  0
 60 61  1  0  0  0
 60169  1  0  0  0
 60170  1  0  0  0
 61 62  2  0  0  0
 61 63  1  0  0  0
 63171  1  0  0  0
 63172  1  0  0  0
 64 65  1  0  0  0
 64173  1  0  0  0
 65 66  1  0  0  0
 65 68  1  0  0  0
 65174  1  0  0  0
 66 67  2  0  0  0
 66 72  1  0  0  0
 68 69  1  0  0  0
 68175  1  0  0  0
 68176  1  0  0  0
 69 70  1  0  0  0
 69 71  1  0  0  0
 69177  1  0  0  0
 70178  1  0  0  0
 70179  1  0  0  0
 70180  1  0  0  0
 71181  1  0  0  0
 71182  1  0  0  0
 71183  1  0  0  0
 72 73  1  0  0  0
 72184  1  0  0  0
 73 74  1  0  0  0
 73 76  1  0  0  0
 73185  1  0  0  0
 74 75  2  0  0  0
 74 81  1  0  0  0
 76 77  1  0  0  0
 76186  1  0  0  0
 76187  1  0  0  0
 77 78  1  0  0  0
 77188  1  0  0  0
 77189  1  0  0  0
 78 79  1  0  0  0
 78190  1  0  0  0
 78191  1  0  0  0
 79 80  1  0  0  0
 79192  1  0  0  0
 79193  1  0  0  0
 80194  1  0  0  0
 80195  1  0  0  0
 80196  1  0  0  0
 81 82  1  0  0  0
 81197  1  0  0  0
 82 83  1  0  0  0
 82 85  1  0  0  0
 82198  1  0  0  0
 83 84  2  0  0  0
 83 86  1  0  0  0
 85199  1  0  0  0
 85200  1  0  0  0
 85201  1  0  0  0
 86 87  1  0  0  0
 86202  1  0  0  0
 87 88  1  0  0  0
 87 90  1  0  0  0
 87203  1  0  0  0
 88 89  2  0  0  0
 88 94  1  0  0  0
 90 91  1  0  0  0
 90204  1  0  0  0
 90205  1  0  0  0
 91 92  1  0  0  0
 91 93  1  0  0  0
 91206  1  0  0  0
 92207  1  0  0  0
 92208  1  0  0  0
 92209  1  0  0  0
 93210  1  0  0  0
 93211  1  0  0  0
 93212  1  0  0  0
 94 95  1  0  0  0
 94213  1  0  0  0
 95 96  1  0  0  0
 95214  1  0  0  0
 95215  1  0  0  0
 96 97  2  0  0  0
 96 98  1  0  0  0
 98 99  1  0  0  0
 98216  1  0  0  0
 99100  1  0  0  0
 99102  1  0  0  0
 99217  1  0  0  0
100101  2  0  0  0
100105  1  0  0  0
102103  1  0  0  0
102104  1  0  0  0
102218  1  0  0  0
103219  1  0  0  0
103220  1  0  0  0
103221  1  0  0  0
104222  1  0  0  0
104223  1  0  0  0
104224  1  0  0  0
105106  1  0  0  0
105225  1  0  0  0
106107  1  0  0  0
106109  1  0  0  0
106226  1  0  0  0
107108  2  0  0  0
107113  1  0  0  0
109110  1  0  0  0
109227  1  0  0  0
109228  1  0  0  0
110111  1  0  0  0
110112  2  0  0  0
111229  1  0  0  0
113230  1  0  0  0
M  CHG  2   1   1  80   1
M  END
> <s_m_source_file>
../2jqk_ligand.sdf

> <i_m_source_file_index>
1

> <s_epik_input>
W09IXUMoPU8pW0NIMl1bQ0BIXShbTkgzK10pQyg9TylbTkhdW0NAQEhdKFtDSDJdW0NIMl1DKD1PKVtPSF0pQyg9TylbTkhdW0NAQEhdKFtDSDJdW0NIMl1DKD1PKVtPSF0pQyg9TylbTkhdW0NAQEhdKFtDQEBIXShbQ0gzXSlbQ0gyXVtDSDNdKUMoPU8pW05IXVtDQEBIXShbQ0gyXVtDSDJdQyg9TylbT0hdKUMoPU8pW05IXVtDQEBIXShbQ0gyXVtDSDJdW0NIMl1bTkhdL0MoW05IMl0pPU5cW0hdKUMoPU8pW05IXVtDQEBIXShbQ0gyXVtDSDJdQyg9TylbTkgyXSlDKD1PKVtOSF1bQ0BASF0oW0NIMl1bQ0hdKFtDSDNdKVtDSDNdKUMoPU8pW05IXVtDQEBIXShbQ0gyXVtDSDJdW0NIMl1bQ0gyXVtOSDMrXSlDKD1PKVtOSF1bQ0BASF0oW0NIM10pQyg9TylbTkhdW0NAQEhdKFtDSDJdW0NIXShbQ0gzXSlbQ0gzXSlDKD1PKVtOSF1bQ0gyXUMoPU8pW05IXVtDQEBIXShbQ0hdKFtDSDNdKVtDSDNdKUMoPU8pW05IXVtDQEhdKEMoPU8pW09IXSlbQ0gyXUMoPU8pW09IXQ==

> <s_epik_cmdline>
J2VwaWtfYXBwJywgJy1pbWFlJywgJ2xpZ2FuZF9wcm8ubWFlJywgJy1vbWFlJywgJ2xpZ2FuZF9wcmVwLm1hZScsICctbXMnLCAnMScsICctcGgnLCAnNycsICctcGh0JywgJzAuNScsICctbnQn

> <s_epik_pKa_notes>
Molecule size exceeds maximum supported for generating protonation states

> <s_epik_Chemistry_Notes>
This compound has an imine and may undergo hydrolysis.

$$$$
