2jql_ligand
                    3D
 Schrodinger Suite 2020-3.
165165  0  0  1  0            999 V2000
   13.4130  -22.8190   -0.6030 N   0  3  0  0  0  0
   12.0170  -22.9840   -0.1210 C   0  0  2  0  0  0
   11.1470  -23.6620   -1.1760 C   0  0  0  0  0  0
   10.7190  -23.0300   -2.1410 O   0  0  0  0  0  0
   11.4520  -21.6050    0.2210 C   0  0  0  0  0  0
   12.1930  -20.9430    1.3670 C   0  0  0  0  0  0
   12.6370  -19.8000    1.2560 O   0  0  0  0  0  0
   12.3330  -21.6610    2.4750 N   0  0  0  0  0  0
   10.8890  -24.9510   -0.9840 N   0  0  0  0  0  0
   10.0710  -25.7140   -1.9180 C   0  0  2  0  0  0
    8.6830  -25.9790   -1.3430 C   0  0  0  0  0  0
    8.5360  -26.6980   -0.3560 O   0  0  0  0  0  0
   10.7300  -27.0590   -2.2760 C   0  0  2  0  0  0
   12.1950  -26.8470   -2.6620 C   0  0  0  0  0  0
    9.9710  -27.7360   -3.4070 C   0  0  0  0  0  0
   12.3810  -25.9170   -3.8410 C   0  0  0  0  0  0
    7.6670  -25.3910   -1.9680 N   0  0  0  0  0  0
    6.2900  -25.5640   -1.5190 C   0  0  1  0  0  0
    5.6050  -24.2020   -1.2800 C   0  0  1  0  0  0
    4.1560  -24.3850   -0.8470 C   0  0  0  0  0  0
    6.3000  -23.4760   -0.3000 O   0  0  0  0  0  0
    6.5470  -24.1470    1.0890 P   0  0  0  0  0  0
    6.4580  -22.9820    2.1080 O   0  0  0  0  0  0
    8.0110  -24.6510    1.0250 O   0  0  0  0  0  0
    5.5710  -25.2460    1.3850 O   0  0  0  0  0  0
    5.4810  -26.3630   -2.5370 C   0  0  0  0  0  0
    5.7620  -26.3240   -3.7350 O   0  0  0  0  0  0
    4.4770  -27.0850   -2.0520 N   0  0  0  0  0  0
    3.6270  -27.8930   -2.9200 C   0  0  2  0  0  0
    2.8110  -27.0080   -3.8620 C   0  0  0  0  0  0
    2.2040  -26.0280   -3.4310 O   0  0  0  0  0  0
    2.6870  -28.7620   -2.0820 C   0  0  0  0  0  0
    3.3650  -29.4220   -0.8920 C   0  0  0  0  0  0
    2.8450  -30.8220   -0.6280 C   0  0  0  0  0  0
    2.5310  -31.5660   -1.5560 O   0  0  0  0  0  0
    2.7490  -31.1860    0.6460 N   0  0  0  0  0  0
    2.7820  -27.3410   -5.1670 N   0  0  0  0  0  0
    2.0310  -26.5650   -6.1620 C   0  0  2  0  0  0
    0.5570  -26.4320   -5.7970 C   0  0  0  0  0  0
    0.1590  -26.7070   -4.6640 O   0  0  0  0  0  0
    2.1900  -27.3760   -7.4510 C   0  0  0  0  0  0
    3.4210  -28.1880   -7.2450 C   0  0  0  0  0  0
    3.4740  -28.4920   -5.7750 C   0  0  0  0  0  0
   -0.2500  -26.0110   -6.7650 N   0  0  0  0  0  0
   -1.6820  -25.8420   -6.5490 C   0  0  1  0  0  0
   -2.3320  -25.0450   -7.6970 C   0  0  1  0  0  0
   -3.8320  -24.8950   -7.4840 C   0  0  0  0  0  0
   -1.7440  -23.7760   -7.7890 O   0  0  0  0  0  0
   -2.0470  -22.9160   -9.0540 P   0  0  0  0  0  0
   -0.8100  -21.9950   -9.2090 O   0  0  0  0  0  0
   -2.0720  -23.9320  -10.2250 O   0  0  0  0  0  0
   -3.3280  -22.1440   -8.9340 O   0  0  0  0  0  0
   -2.3770  -27.1960   -6.4190 C   0  0  0  0  0  0
   -1.8590  -28.2160   -6.8720 O   0  0  0  0  0  0
   -3.5530  -27.1950   -5.7980 N   0  0  0  0  0  0
   -4.3180  -28.4220   -5.6100 C   0  0  2  0  0  0
   -5.8100  -28.1690   -5.8060 C   0  0  0  0  0  0
   -6.2410  -27.0260   -5.9620 O   0  0  0  0  0  0
   -4.0590  -29.0000   -4.2160 C   0  0  0  0  0  0
   -3.4930  -30.4090   -4.2370 C   0  0  0  0  0  0
   -3.4600  -31.0450   -2.8610 C   0  0  0  0  0  0
   -4.3940  -31.7410   -2.4630 O   0  0  0  0  0  0
   -2.3800  -30.8080   -2.1250 N   0  0  0  0  0  0
   -6.5940  -29.2420   -5.7960 N   0  0  0  0  0  0
   -8.0380  -29.1360   -5.9730 C   0  0  2  0  0  0
   -8.7330  -28.8890   -4.6370 C   0  0  0  0  0  0
   -8.1610  -29.1320   -3.5740 O   0  0  0  0  0  0
   -8.5870  -30.4090   -6.6220 C   0  0  0  0  0  0
   -8.9100  -30.2480   -8.0990 C   0  0  0  0  0  0
   -8.6630  -31.5160   -8.8910 C   0  0  0  0  0  0
   -9.5390  -32.3740   -9.0020 O   0  0  0  0  0  0
   -7.4630  -31.6420   -9.4480 N   0  0  0  0  0  0
   -9.9680  -28.4040   -4.7000 N   0  0  0  0  0  0
  -10.7440  -28.1240   -3.4970 C   0  0  2  0  0  0
  -12.0760  -28.8650   -3.5240 C   0  0  0  0  0  0
  -12.4600  -29.4370   -4.5440 O   0  0  0  0  0  0
  -10.9860  -26.6200   -3.3590 C   0  0  0  0  0  0
   -9.8540  -25.9680   -2.8100 O   0  0  0  0  0  0
  -12.7800  -28.8510   -2.3960 N   0  0  0  0  0  0
  -14.0700  -29.5220   -2.2910 C   0  0  2  0  0  0
  -15.1850  -28.6460   -2.8540 C   0  0  0  0  0  0
  -15.1610  -27.4230   -2.6030 O   0  0  0  0  0  0
  -14.3690  -29.8740   -0.8330 C   0  0  2  0  0  0
  -13.2210  -30.4080   -0.2000 O   0  0  0  0  0  0
  -15.4890  -30.8790   -0.6780 C   0  0  0  0  0  0
  -16.0730  -29.1910   -3.5420 O   0  0  0  0  0  0
   13.8333  -23.8042   -0.8533 H   0  0  0  0  0  0
   14.0203  -22.3509    0.1857 H   0  0  0  0  0  0
   13.4187  -22.1798   -1.4982 H   0  0  0  0  0  0
   12.0461  -23.6293    0.7694 H   0  0  0  0  0  0
   11.5306  -20.9483   -0.6580 H   0  0  0  0  0  0
   10.3957  -21.7034    0.5120 H   0  0  0  0  0  0
   11.9187  -22.6787    2.5269 H   0  0  0  0  0  0
   12.8632  -21.2382    3.3411 H   0  0  0  0  0  0
   11.3098  -25.4414   -0.0938 H   0  0  0  0  0  0
   10.0026  -25.0633   -2.8023 H   0  0  0  0  0  0
   10.6945  -27.7238   -1.4004 H   0  0  0  0  0  0
   12.7392  -26.4118   -1.8108 H   0  0  0  0  0  0
   12.6469  -27.8132   -2.9308 H   0  0  0  0  0  0
    8.9215  -27.8792   -3.1101 H   0  0  0  0  0  0
   10.4279  -28.7133   -3.6217 H   0  0  0  0  0  0
   10.0147  -27.1051   -4.3070 H   0  0  0  0  0  0
   13.4539  -25.8127   -4.0600 H   0  0  0  0  0  0
   11.9583  -24.9305   -3.6000 H   0  0  0  0  0  0
   11.8660  -26.3318   -4.7200 H   0  0  0  0  0  0
    7.8851  -24.7617   -2.8434 H   0  0  0  0  0  0
    6.3796  -26.1276   -0.5786 H   0  0  0  0  0  0
    5.6580  -23.5734   -2.1811 H   0  0  0  0  0  0
    3.6127  -24.9540   -1.6158 H   0  0  0  0  0  0
    3.6845  -23.3995   -0.7185 H   0  0  0  0  0  0
    4.1246  -24.9336    0.1059 H   0  0  0  0  0  0
    7.1207  -22.1100    2.0057 H   0  0  0  0  0  0
    8.8273  -23.9442    0.8149 H   0  0  0  0  0  0
    4.2935  -27.0637   -0.9676 H   0  0  0  0  0  0
    4.3174  -28.5209   -3.5022 H   0  0  0  0  0  0
    1.8669  -28.1425   -1.6900 H   0  0  0  0  0  0
    2.2724  -29.5645   -2.7097 H   0  0  0  0  0  0
    4.4466  -29.4929   -1.0792 H   0  0  0  0  0  0
    3.1880  -28.8198    0.0113 H   0  0  0  0  0  0
    3.0421  -30.4854    1.4418 H   0  0  0  0  0  0
    2.3764  -32.1880    0.9051 H   0  0  0  0  0  0
    2.4284  -25.5405   -6.2120 H   0  0  0  0  0  0
    1.3038  -28.0113   -7.5961 H   0  0  0  0  0  0
    2.2936  -26.6906   -8.3051 H   0  0  0  0  0  0
    3.3553  -29.1109   -7.8399 H   0  0  0  0  0  0
    4.3001  -27.6084   -7.5633 H   0  0  0  0  0  0
    4.5042  -28.5440   -5.3929 H   0  0  0  0  0  0
    2.9402  -29.4187   -5.5174 H   0  0  0  0  0  0
    0.1878  -25.7882   -7.7492 H   0  0  0  0  0  0
   -1.7487  -25.2852   -5.6027 H   0  0  0  0  0  0
   -2.1315  -25.5210   -8.6682 H   0  0  0  0  0  0
   -4.2935  -25.8909   -7.4118 H   0  0  0  0  0  0
   -4.2699  -24.3486   -8.3323 H   0  0  0  0  0  0
   -4.0163  -24.3372   -6.5540 H   0  0  0  0  0  0
    0.1938  -22.4341   -9.3069 H   0  0  0  0  0  0
   -1.1937  -24.5638  -10.4239 H   0  0  0  0  0  0
   -3.9460  -26.2388   -5.4223 H   0  0  0  0  0  0
   -3.9587  -29.1145   -6.3854 H   0  0  0  0  0  0
   -3.3364  -28.3639   -3.6838 H   0  0  0  0  0  0
   -5.0027  -29.0338   -3.6519 H   0  0  0  0  0  0
   -4.1130  -31.0435   -4.8874 H   0  0  0  0  0  0
   -2.4630  -30.3847   -4.6224 H   0  0  0  0  0  0
   -1.5701  -30.1792   -2.5233 H   0  0  0  0  0  0
   -2.2955  -31.2405   -1.1171 H   0  0  0  0  0  0
   -6.1287  -30.2280   -5.6496 H   0  0  0  0  0  0
   -8.1910  -28.2701   -6.6339 H   0  0  0  0  0  0
   -7.8438  -31.2152   -6.5341 H   0  0  0  0  0  0
   -9.5151  -30.7089   -6.1135 H   0  0  0  0  0  0
   -9.9701  -29.9783   -8.2152 H   0  0  0  0  0  0
   -8.2806  -29.4541   -8.5276 H   0  0  0  0  0  0
   -6.7118  -30.8485   -9.3214 H   0  0  0  0  0  0
   -7.2209  -32.5398  -10.0357 H   0  0  0  0  0  0
  -10.4034  -28.2137   -5.6921 H   0  0  0  0  0  0
  -10.1328  -28.4939   -2.6606 H   0  0  0  0  0  0
  -11.1931  -26.1895   -4.3499 H   0  0  0  0  0  0
  -11.8469  -26.4464   -2.6966 H   0  0  0  0  0  0
   -9.8708  -24.8802   -2.6476 H   0  0  0  0  0  0
  -12.3662  -28.3158   -1.5286 H   0  0  0  0  0  0
  -13.9751  -30.4362   -2.8954 H   0  0  0  0  0  0
  -15.9510  -26.7655   -2.9948 H   0  0  0  0  0  0
  -14.6256  -28.9425   -0.3072 H   0  0  0  0  0  0
  -12.2811  -29.8365   -0.1924 H   0  0  0  0  0  0
  -16.3983  -30.4920   -1.1611 H   0  0  0  0  0  0
  -15.6852  -31.0474    0.3912 H   0  0  0  0  0  0
  -15.1979  -31.8283   -1.1513 H   0  0  0  0  0  0
  1  2  1  0  0  0
  1 87  1  0  0  0
  1 88  1  0  0  0
  1 89  1  0  0  0
  2  3  1  0  0  0
  2  5  1  0  0  0
  2 90  1  0  0  0
  3  4  2  0  0  0
  3  9  1  0  0  0
  5  6  1  0  0  0
  5 91  1  0  0  0
  5 92  1  0  0  0
  6  7  2  0  0  0
  6  8  1  0  0  0
  8 93  1  0  0  0
  8 94  1  0  0  0
  9 10  1  0  0  0
  9 95  1  0  0  0
 10 11  1  0  0  0
 10 13  1  0  0  0
 10 96  1  0  0  0
 11 12  2  0  0  0
 11 17  1  0  0  0
 13 14  1  0  0  0
 13 15  1  0  0  0
 13 97  1  0  0  0
 14 16  1  0  0  0
 14 98  1  0  0  0
 14 99  1  0  0  0
 15100  1  0  0  0
 15101  1  0  0  0
 15102  1  0  0  0
 16103  1  0  0  0
 16104  1  0  0  0
 16105  1  0  0  0
 17 18  1  0  0  0
 17106  1  0  0  0
 18 19  1  0  0  0
 18 26  1  0  0  0
 18107  1  0  0  0
 19 20  1  0  0  0
 19 21  1  0  0  0
 19108  1  0  0  0
 20109  1  0  0  0
 20110  1  0  0  0
 20111  1  0  0  0
 21 22  1  0  0  0
 22 23  1  0  0  0
 22 24  1  0  0  0
 22 25  2  0  0  0
 23112  1  0  0  0
 24113  1  0  0  0
 26 27  2  0  0  0
 26 28  1  0  0  0
 28 29  1  0  0  0
 28114  1  0  0  0
 29 30  1  0  0  0
 29 32  1  0  0  0
 29115  1  0  0  0
 30 31  2  0  0  0
 30 37  1  0  0  0
 32 33  1  0  0  0
 32116  1  0  0  0
 32117  1  0  0  0
 33 34  1  0  0  0
 33118  1  0  0  0
 33119  1  0  0  0
 34 35  2  0  0  0
 34 36  1  0  0  0
 36120  1  0  0  0
 36121  1  0  0  0
 37 38  1  0  0  0
 37 43  1  0  0  0
 38 39  1  0  0  0
 38 41  1  0  0  0
 38122  1  0  0  0
 39 40  2  0  0  0
 39 44  1  0  0  0
 41 42  1  0  0  0
 41123  1  0  0  0
 41124  1  0  0  0
 42 43  1  0  0  0
 42125  1  0  0  0
 42126  1  0  0  0
 43127  1  0  0  0
 43128  1  0  0  0
 44 45  1  0  0  0
 44129  1  0  0  0
 45 46  1  0  0  0
 45 53  1  0  0  0
 45130  1  0  0  0
 46 47  1  0  0  0
 46 48  1  0  0  0
 46131  1  0  0  0
 47132  1  0  0  0
 47133  1  0  0  0
 47134  1  0  0  0
 48 49  1  0  0  0
 49 50  1  0  0  0
 49 51  1  0  0  0
 49 52  2  0  0  0
 50135  1  0  0  0
 51136  1  0  0  0
 53 54  2  0  0  0
 53 55  1  0  0  0
 55 56  1  0  0  0
 55137  1  0  0  0
 56 57  1  0  0  0
 56 59  1  0  0  0
 56138  1  0  0  0
 57 58  2  0  0  0
 57 64  1  0  0  0
 59 60  1  0  0  0
 59139  1  0  0  0
 59140  1  0  0  0
 60 61  1  0  0  0
 60141  1  0  0  0
 60142  1  0  0  0
 61 62  2  0  0  0
 61 63  1  0  0  0
 63143  1  0  0  0
 63144  1  0  0  0
 64 65  1  0  0  0
 64145  1  0  0  0
 65 66  1  0  0  0
 65 68  1  0  0  0
 65146  1  0  0  0
 66 67  2  0  0  0
 66 73  1  0  0  0
 68 69  1  0  0  0
 68147  1  0  0  0
 68148  1  0  0  0
 69 70  1  0  0  0
 69149  1  0  0  0
 69150  1  0  0  0
 70 71  2  0  0  0
 70 72  1  0  0  0
 72151  1  0  0  0
 72152  1  0  0  0
 73 74  1  0  0  0
 73153  1  0  0  0
 74 75  1  0  0  0
 74 77  1  0  0  0
 74154  1  0  0  0
 75 76  2  0  0  0
 75 79  1  0  0  0
 77 78  1  0  0  0
 77155  1  0  0  0
 77156  1  0  0  0
 78157  1  0  0  0
 79 80  1  0  0  0
 79158  1  0  0  0
 80 81  1  0  0  0
 80 83  1  0  0  0
 80159  1  0  0  0
 81 82  1  0  0  0
 81 86  2  0  0  0
 82160  1  0  0  0
 83 84  1  0  0  0
 83 85  1  0  0  0
 83161  1  0  0  0
 84162  1  0  0  0
 85163  1  0  0  0
 85164  1  0  0  0
 85165  1  0  0  0
M  CHG  1   1   1
M  END
> <s_m_source_file>
../2jql_ligand.sdf

> <i_m_source_file_index>
1

> <s_epik_input>
Tz1DKFtOSDJdKVtDSDJdW0NASF0oW05IMytdKUMoPU8pW05IXVtDQEBIXShbQ0BASF0oW0NIM10pW0NIMl1bQ0gzXSlDKD1PKVtOSF1bQ0BASF0oW0NAQEhdKFtDSDNdKU9QKD1PKShbT0hdKVtPSF0pQyg9TylbTkhdW0NAQEhdKFtDSDJdW0NIMl1DKD1PKVtOSDJdKUMoPU8pTjFbQ0BASF0oW0NIMl1bQ0gyXVtDSDJdMSlDKD1PKVtOSF1bQ0BASF0oW0NAQEhdKFtDSDNdKU9QKD1PKShbT0hdKVtPSF0pQyg9TylbTkhdW0NAQEhdKFtDSDJdW0NIMl1DKD1PKVtOSDJdKUMoPU8pW05IXVtDQEBIXShbQ0gyXVtDSDJdQyg9TylbTkgyXSlDKD1PKVtOSF1bQ0BASF0oW0NIMl1bT0hdKUMoPU8pW05IXVtDQEhdKEMoPU8pW09IXSlbQ0BIXShbT0hdKVtDSDNd

> <s_epik_cmdline>
J2VwaWtfYXBwJywgJy1pbWFlJywgJ2xpZ2FuZF9wcm8ubWFlJywgJy1vbWFlJywgJ2xpZ2FuZF9wcmVwLm1hZScsICctbXMnLCAnMScsICctcGgnLCAnNycsICctcGh0JywgJzAuNScsICctbnQn

> <s_epik_pKa_notes>
Molecule size exceeds maximum supported for generating protonation states

$$$$
