2jsd_ligand
                    3D
 Schrodinger Suite 2020-3.
 39 39  0  0  1  0            999 V2000
    7.0980   -5.6930    3.6030 C   0  0  0  0  0  0
    6.6160   -6.1160    2.3650 C   0  0  0  0  0  0
    6.0900   -5.1950    1.4600 C   0  0  0  0  0  0
    6.0900   -3.8570    1.7900 C   0  0  0  0  0  0
    6.5660   -3.4290    3.0170 C   0  0  0  0  0  0
    7.0430   -4.3450    3.9500 C   0  0  0  0  0  0
    5.5410   -5.5710    0.2580 O   0  0  0  0  0  0
    6.2410   -6.4310   -0.6560 C   0  0  0  0  0  0
    7.5470   -3.7500    5.5520 S   0  0  0  0  0  0
    7.3280   -2.3080    5.5350 O   0  0  0  0  0  0
    8.9040   -4.1860    5.8440 O   0  0  0  0  0  0
    6.5730   -4.3820    6.7360 N   0  0  3  0  0  0
    6.6020   -5.8470    7.1110 C   0  0  0  0  0  0
    5.3850   -3.5940    7.1700 C   0  0  0  0  0  0
    4.0980   -3.8260    6.4040 C   0  0  0  0  0  0
    4.1690   -3.6450    5.0800 N   0  0  0  0  0  0
    3.4260   -4.2840    4.2810 O   0  0  0  0  0  0
    3.0920   -4.2270    6.9460 O   0  0  0  0  0  0
    7.9320   -6.1400    7.8790 C   0  0  0  0  0  0
    8.8960   -7.0090    7.0530 C   0  0  0  0  0  0
    7.6020   -6.8190    9.2240 C   0  0  0  0  0  0
    7.5183   -6.4179    4.3001 H   0  0  0  0  0  0
    6.6506   -7.1735    2.1030 H   0  0  0  0  0  0
    5.7103   -3.1266    1.0756 H   0  0  0  0  0  0
    6.5673   -2.3653    3.2548 H   0  0  0  0  0  0
    5.6204   -6.6006   -1.5482 H   0  0  0  0  0  0
    6.4502   -7.3936   -0.1665 H   0  0  0  0  0  0
    7.1882   -5.9571   -0.9529 H   0  0  0  0  0  0
    5.7399   -6.0780    7.7540 H   0  0  0  0  0  0
    6.5538   -6.4600    6.1989 H   0  0  0  0  0  0
    5.1540   -3.8271    8.2199 H   0  0  0  0  0  0
    5.6016   -2.5200    7.0720 H   0  0  0  0  0  0
    8.4576   -5.1922    8.0671 H   0  0  0  0  0  0
    9.1173   -6.5066    6.0998 H   0  0  0  0  0  0
    8.4301   -7.9852    6.8534 H   0  0  0  0  0  0
    9.8299   -7.1565    7.6152 H   0  0  0  0  0  0
    6.9127   -6.1815    9.7971 H   0  0  0  0  0  0
    8.5289   -6.9655    9.7979 H   0  0  0  0  0  0
    7.1291   -7.7942    9.0361 H   0  0  0  0  0  0
  1  2  2  0  0  0
  1  6  1  0  0  0
  1 22  1  0  0  0
  2  3  1  0  0  0
  2 23  1  0  0  0
  3  4  2  0  0  0
  3  7  1  0  0  0
  4  5  1  0  0  0
  4 24  1  0  0  0
  5  6  2  0  0  0
  5 25  1  0  0  0
  6  9  1  0  0  0
  7  8  1  0  0  0
  8 26  1  0  0  0
  8 27  1  0  0  0
  8 28  1  0  0  0
  9 10  2  0  0  0
  9 11  2  0  0  0
  9 12  1  0  0  0
 12 13  1  0  0  0
 12 14  1  0  0  0
 13 19  1  0  0  0
 13 29  1  0  0  0
 13 30  1  0  0  0
 14 15  1  0  0  0
 14 31  1  0  0  0
 14 32  1  0  0  0
 15 16  1  0  0  0
 15 18  2  0  0  0
 16 17  2  0  0  0
 19 20  1  0  0  0
 19 21  1  0  0  0
 19 33  1  0  0  0
 20 34  1  0  0  0
 20 35  1  0  0  0
 20 36  1  0  0  0
 21 37  1  0  0  0
 21 38  1  0  0  0
 21 39  1  0  0  0
M  END
> <s_m_source_file>
../2jsd_ligand.sdf

> <i_m_source_file_index>
1

> <s_epik_input>
W0NIM11PYzFbY0hdW2NIXWMoW2NIXVtjSF0xKVMoPU8pKD1PKU4oW0NIMl1bQ0hdKFtDSDNdKVtDSDNdKVtDSDJdQyg9TylOPU8=

> <s_epik_cmdline>
J2VwaWtfYXBwJywgJy1pbWFlJywgJ2xpZ2FuZF9wcm8ubWFlJywgJy1vbWFlJywgJ2xpZ2FuZF9wcmVwLm1hZScsICctbXMnLCAnMScsICctcGgnLCAnNycsICctcGh0JywgJzAuNScsICctbnQn

> <r_lp_tautomer_probability>
1

> <r_epik_Ionization_Penalty>
  0.0000

> <r_epik_Ionization_Penalty_Charging>
  0.0000

> <r_epik_Ionization_Penalty_Neutral>
  0.0000

> <r_epik_State_Penalty>
 -0.0000

> <r_epik_Charging_Adjusted_Penalty>
0

> <i_epik_Tot_Q>
0

> <i_epik_Tot_abs_Q>
0

$$$$
