2jt5_ligand
                    3D
 Schrodinger Suite 2020-3.
 40 41  0  0  1  0            999 V2000
    4.8520   -2.1340    7.1630 C   0  0  0  0  0  0
    5.0980   -0.9580    8.1440 C   0  0  0  0  0  0
    6.9120   -1.8460    9.5530 C   0  0  0  0  0  0
    3.5400   -2.6610    7.1380 N   0  0  0  0  0  0
    3.1530   -3.6060    6.4240 O   0  0  0  0  0  0
    5.8200   -2.5440    6.4710 O   0  0  0  0  0  0
    6.4230   -0.8040    8.6900 N   0  0  3  0  0  0
    7.3380    0.4800    8.3570 S   0  0  0  0  0  0
    7.7510   -2.9330    8.8600 C   0  0  0  0  0  0
    8.7340   -3.4200    9.7420 O   0  0  0  0  0  0
    8.5590    0.4380    9.0860 O   0  0  0  0  0  0
    7.6700    0.3980    6.6820 C   0  0  0  0  0  0
    6.6120    1.6870    8.5240 O   0  0  0  0  0  0
    8.4260   -0.6550    6.1610 C   0  0  0  0  0  0
    8.7090   -0.7280    4.8010 C   0  0  0  0  0  0
    8.2400    0.2630    3.9280 C   0  0  0  0  0  0
    7.4810    1.3220    4.4470 C   0  0  0  0  0  0
    7.2050    1.3820    5.8090 C   0  0  0  0  0  0
    8.5380    0.1920    2.5010 C   0  0  0  0  0  0
    7.8200    0.9710    1.5820 C   0  0  0  0  0  0
    8.1070    0.8970    0.2210 C   0  0  0  0  0  0
    9.1100    0.0440   -0.2390 C   0  0  0  0  0  0
    9.8270   -0.7360    0.6680 C   0  0  0  0  0  0
    9.5430   -0.6650    2.0300 C   0  0  0  0  0  0
    4.8836   -0.0060    7.6363 H   0  0  0  0  0  0
    4.4376   -1.0646    9.0172 H   0  0  0  0  0  0
    7.5523   -1.4065   10.3320 H   0  0  0  0  0  0
    6.0619   -2.3608   10.0244 H   0  0  0  0  0  0
    7.0963   -3.7627    8.5550 H   0  0  0  0  0  0
    8.2413   -2.5073    7.9721 H   0  0  0  0  0  0
    9.4283   -4.2066    9.4116 H   0  0  0  0  0  0
    8.7994   -1.4305    6.8298 H   0  0  0  0  0  0
    9.2978   -1.5591    4.4128 H   0  0  0  0  0  0
    7.1065    2.0998    3.7815 H   0  0  0  0  0  0
    6.6159    2.2112    6.2006 H   0  0  0  0  0  0
    7.0332    1.6379    1.9347 H   0  0  0  0  0  0
    7.5461    1.5075   -0.4866 H   0  0  0  0  0  0
    9.3329   -0.0129   -1.3044 H   0  0  0  0  0  0
   10.6115   -1.4028    0.3103 H   0  0  0  0  0  0
   10.1052   -1.2791    2.7335 H   0  0  0  0  0  0
  1  2  1  0  0  0
  1  4  1  0  0  0
  1  6  2  0  0  0
  2  7  1  0  0  0
  2 25  1  0  0  0
  2 26  1  0  0  0
  3  7  1  0  0  0
  3  9  1  0  0  0
  3 27  1  0  0  0
  3 28  1  0  0  0
  4  5  2  0  0  0
  7  8  1  0  0  0
  8 11  2  0  0  0
  8 12  1  0  0  0
  8 13  2  0  0  0
  9 10  1  0  0  0
  9 29  1  0  0  0
  9 30  1  0  0  0
 10 31  1  0  0  0
 12 14  2  0  0  0
 12 18  1  0  0  0
 14 15  1  0  0  0
 14 32  1  0  0  0
 15 16  2  0  0  0
 15 33  1  0  0  0
 16 17  1  0  0  0
 16 19  1  0  0  0
 17 18  2  0  0  0
 17 34  1  0  0  0
 18 35  1  0  0  0
 19 20  2  0  0  0
 19 24  1  0  0  0
 20 21  1  0  0  0
 20 36  1  0  0  0
 21 22  2  0  0  0
 21 37  1  0  0  0
 22 23  1  0  0  0
 22 38  1  0  0  0
 23 24  2  0  0  0
 23 39  1  0  0  0
 24 40  1  0  0  0
M  END
> <s_m_source_file>
../2jt5_ligand.sdf

> <i_m_source_file_index>
1

> <s_epik_input>
Tz1OQyg9TylbQ0gyXU4oW0NIMl1bQ0gyXVtPSF0pUyg9TykoPU8pYzFbY0hdW2NIXWMoW2NIXVtjSF0xKS1jMltjSF1bY0hdW2NIXVtjSF1bY0hdMg==

> <s_epik_cmdline>
J2VwaWtfYXBwJywgJy1pbWFlJywgJ2xpZ2FuZF9wcm8ubWFlJywgJy1vbWFlJywgJ2xpZ2FuZF9wcmVwLm1hZScsICctbXMnLCAnMScsICctcGgnLCAnNycsICctcGh0JywgJzAuNScsICctbnQn

> <r_lp_tautomer_probability>
1

> <r_epik_Ionization_Penalty>
  0.0000

> <r_epik_Ionization_Penalty_Charging>
  0.0000

> <r_epik_Ionization_Penalty_Neutral>
  0.0000

> <r_epik_State_Penalty>
 -0.0000

> <r_epik_Charging_Adjusted_Penalty>
0

> <i_epik_Tot_Q>
0

> <i_epik_Tot_abs_Q>
0

$$$$
