2jt6_ligand
                    3D
 Schrodinger Suite 2020-3.
 35 36  0  0  1  0            999 V2000
   11.3940    0.0520   -1.5700 C   0  0  0  0  0  0
   11.4410   -0.9730   -0.5830 C   0  0  0  0  0  0
   10.7990   -0.8480    0.6580 C   0  0  0  0  0  0
   10.1130    0.3370    1.0590 C   0  0  0  0  0  0
    8.1800   -0.6010    4.2810 C   0  0  0  0  0  0
    8.8550   -0.6810    3.0540 C   0  0  0  0  0  0
    9.1540    1.6970    3.0210 C   0  0  0  0  0  0
    8.4960    1.8230    4.2480 C   0  0  0  0  0  0
   10.7850    1.2690   -1.1540 C   0  0  0  0  0  0
    7.8510    0.6890    4.8380 C   0  0  0  0  0  0
   10.1770    1.4090    0.1030 C   0  0  0  0  0  0
    5.4980   -2.0410    6.6150 C   0  0  0  0  0  0
    5.7720    0.5180    6.1630 C   0  0  0  0  0  0
    5.9300   -0.6420    7.1120 C   0  0  0  0  0  0
    4.2080   -2.2570    6.5280 N   0  0  0  0  0  0
    6.4120   -2.8490    6.3150 O   0  0  0  0  0  0
    3.4930   -3.2480    6.1500 O   0  0  0  0  0  0
    7.0120    0.9740    5.8020 O   0  0  0  0  0  0
    9.3810    0.4480    2.3670 C   0  0  0  0  0  0
   11.9330   -0.1310   -2.9080 C   0  0  0  0  0  0
   12.3630   -0.2780   -3.9770 N   0  0  0  0  0  0
   11.9950   -1.8865   -0.7991 H   0  0  0  0  0  0
   10.8254   -1.6931    1.3459 H   0  0  0  0  0  0
    7.9044   -1.5116    4.8129 H   0  0  0  0  0  0
    8.9838   -1.6641    2.6013 H   0  0  0  0  0  0
    9.5144    2.6040    2.5357 H   0  0  0  0  0  0
    8.4739    2.7868    4.7567 H   0  0  0  0  0  0
   10.7910    2.1207   -1.8342 H   0  0  0  0  0  0
    9.7350    2.3702    0.3654 H   0  0  0  0  0  0
    5.2243    0.1876    5.2681 H   0  0  0  0  0  0
    5.2114    1.3240    6.6592 H   0  0  0  0  0  0
    5.3410   -0.3705    8.0005 H   0  0  0  0  0  0
    6.9987   -0.6590    7.3718 H   0  0  0  0  0  0
    3.7255   -1.3318    6.8762 H   0  0  0  0  0  0
    2.3957   -3.1750    6.1732 H   0  0  0  0  0  0
  1  2  2  0  0  0
  1  9  1  0  0  0
  1 20  1  0  0  0
  2  3  1  0  0  0
  2 22  1  0  0  0
  3  4  2  0  0  0
  3 23  1  0  0  0
  4 11  1  0  0  0
  4 19  1  0  0  0
  5  6  2  0  0  0
  5 10  1  0  0  0
  5 24  1  0  0  0
  6 19  1  0  0  0
  6 25  1  0  0  0
  7  8  1  0  0  0
  7 19  2  0  0  0
  7 26  1  0  0  0
  8 10  2  0  0  0
  8 27  1  0  0  0
  9 11  2  0  0  0
  9 28  1  0  0  0
 10 18  1  0  0  0
 11 29  1  0  0  0
 12 14  1  0  0  0
 12 15  1  0  0  0
 12 16  2  0  0  0
 13 14  1  0  0  0
 13 18  1  0  0  0
 13 30  1  0  0  0
 13 31  1  0  0  0
 14 32  1  0  0  0
 14 33  1  0  0  0
 15 17  1  0  0  0
 15 34  1  0  0  0
 17 35  1  0  0  0
 20 21  3  0  0  0
M  END
> <s_m_source_file>
../2jt6_ligand.sdf

> <i_m_source_file_index>
1

> <s_epik_input>
TiNDYzFbY0hdW2NIXWMoW2NIXVtjSF0xKS1jKFtjSF1bY0hdMilbY0hdW2NIXWMyT1tDSDJdW0NIMl1DKD1PKVtOSF1bT0hd

> <s_epik_cmdline>
J2VwaWtfYXBwJywgJy1pbWFlJywgJ2xpZ2FuZF9wcm8ubWFlJywgJy1vbWFlJywgJ2xpZ2FuZF9wcmVwLm1hZScsICctbXMnLCAnMScsICctcGgnLCAnNycsICctcGh0JywgJzAuNScsICctbnQn

> <r_lp_tautomer_probability>
1

> <r_epik_Ionization_Penalty>
  0.0070

> <r_epik_Ionization_Penalty_Charging>
  0.0000

> <r_epik_Ionization_Penalty_Neutral>
  0.0070

> <r_epik_State_Penalty>
 -0.0000

> <r_epik_Charging_Adjusted_Penalty>
0

> <i_epik_Tot_Q>
0

> <i_epik_Tot_abs_Q>
0

> <s_epik_Chemistry_Notes>
This compound has a N-S or N-O group and may undergo hydrolysis at high or low pH.

$$$$
