2jup_ligand
                    3D
 Schrodinger Suite 2020-3.
132137  0  0  1  0            999 V2000
   -1.2300   18.4890   -8.4750 N   0  3  0  0  0  0
   -0.1990   18.1660   -7.4590 C   0  0  0  0  0  0
   -0.1870   16.6930   -7.1160 C   0  0  0  0  0  0
   -1.0950   15.9600   -7.5080 O   0  0  0  0  0  0
    0.8370   16.2230   -6.3870 N   0  0  0  0  0  0
    0.9310   14.8280   -5.9720 C   0  0  2  0  0  0
    0.0160   14.5380   -4.7840 C   0  0  0  0  0  0
   -0.2240   15.4140   -3.9520 O   0  0  0  0  0  0
    2.4030   14.6630   -5.5550 C   0  0  0  0  0  0
    3.0660   15.9820   -5.8210 C   0  0  0  0  0  0
    1.9730   17.0070   -5.8970 C   0  0  0  0  0  0
   -0.5110   13.3120   -4.6890 N   0  0  0  0  0  0
   -1.3740   12.9220   -3.5750 C   0  0  2  0  0  0
   -0.5800   12.6110   -2.3060 C   0  0  0  0  0  0
    0.5520   12.1270   -2.3730 O   0  0  0  0  0  0
   -2.0490   11.6530   -4.0950 C   0  0  0  0  0  0
   -1.0790   11.0690   -5.0670 C   0  0  0  0  0  0
   -0.3220   12.2230   -5.6640 C   0  0  0  0  0  0
   -1.1640   12.9020   -1.1530 N   0  0  0  0  0  0
   -0.5600   12.5200    0.1140 C   0  0  2  0  0  0
   -0.8550   11.0530    0.3730 C   0  0  0  0  0  0
   -1.9140   10.5590   -0.0230 O   0  0  0  0  0  0
   -1.0990   13.3730    1.2730 C   0  0  0  0  0  0
   -0.7930   14.8810    1.2170 C   0  0  0  0  0  0
    0.6860   15.1300    0.9670 C   0  0  0  0  0  0
   -1.6410   15.5880    0.1670 C   0  0  0  0  0  0
    0.0560   10.3530    1.0250 N   0  0  0  0  0  0
   -0.1940    8.9620    1.3600 C   0  0  2  0  0  0
   -1.0800    8.9020    2.5970 C   0  0  0  0  0  0
   -1.0030    9.7740    3.4670 O   0  0  0  0  0  0
    1.1190    8.1190    1.5810 C   0  0  2  0  0  0
    2.2010    8.5180    0.5610 C   0  0  0  0  0  0
    0.8280    6.6370    1.4510 C   0  0  0  0  0  0
    2.9470    9.7870    0.8920 C   0  0  0  0  0  0
   -1.9400    7.8880    2.6810 N   0  0  0  0  0  0
   -2.6170    7.5350    3.9250 C   0  0  2  0  0  0
   -1.6060    6.8450    4.8100 C   0  0  0  0  0  0
   -0.6660    6.2770    4.2900 O   0  0  0  0  0  0
   -3.6840    6.5220    3.4730 C   0  0  0  0  0  0
   -3.1340    5.9420    2.2210 C   0  0  0  0  0  0
   -2.3760    7.0480    1.5540 C   0  0  0  0  0  0
   -1.6890    6.9180    6.1320 N   0  0  0  0  0  0
   -0.7840    6.1190    6.9300 C   0  0  2  0  0  0
   -1.2740    4.6810    6.9290 C   0  0  0  0  0  0
   -2.4840    4.4410    6.9520 O   0  0  0  0  0  0
   -0.8980    6.7350    8.3360 C   0  0  0  0  0  0
   -1.7930    7.9350    8.1970 C   0  0  0  0  0  0
   -2.5870    7.7420    6.9340 C   0  0  0  0  0  0
   -0.3690    3.6970    6.9040 N   0  0  0  0  0  0
   -0.7710    2.3030    6.9230 C   0  0  2  0  0  0
   -1.1140    1.8090    8.3260 C   0  0  0  0  0  0
   -0.5450    2.2690    9.3230 O   0  0  0  0  0  0
    0.4310    1.5510    6.3400 C   0  0  0  0  0  0
    1.4910    2.5740    6.0990 C   0  0  0  0  0  0
    1.0920    3.8320    6.8030 C   0  0  0  0  0  0
   -2.0580    0.8670    8.3960 N   0  0  0  0  0  0
   -2.4340    0.1880    9.6360 C   0  0  2  0  0  0
   -1.4110   -0.8740   10.0360 C   0  0  0  0  0  0
   -0.4560   -0.5340   10.7590 O   0  0  0  0  0  0
   -3.7740   -0.4670    9.2820 C   0  0  0  0  0  0
   -3.7210   -0.6700    7.8020 C   0  0  0  0  0  0
   -2.8750    0.4340    7.2550 C   0  0  0  0  0  0
   -1.5580   -2.0410    9.6150 O   0  5  0  0  0  0
   -1.2039   19.5667   -8.6941 H   0  0  0  0  0  0
   -2.2234   18.2173   -8.0885 H   0  0  0  0  0  0
   -1.0273   17.9226   -9.3959 H   0  0  0  0  0  0
    0.7944   18.4377   -7.8455 H   0  0  0  0  0  0
   -0.4016   18.7324   -6.5381 H   0  0  0  0  0  0
    0.6098   14.1759   -6.7976 H   0  0  0  0  0  0
    2.4547   14.4032   -4.4874 H   0  0  0  0  0  0
    2.8651   13.8616   -6.1502 H   0  0  0  0  0  0
    3.7632   16.2136   -5.0023 H   0  0  0  0  0  0
    3.6195   15.9294   -6.7701 H   0  0  0  0  0  0
    2.1947   17.8157   -6.6090 H   0  0  0  0  0  0
    1.7244   17.4396   -4.9167 H   0  0  0  0  0  0
   -2.0553   13.7476   -3.3218 H   0  0  0  0  0  0
   -2.2424   10.9699   -3.2548 H   0  0  0  0  0  0
   -3.0006   11.9162   -4.5800 H   0  0  0  0  0  0
   -0.3986   10.3844   -4.5395 H   0  0  0  0  0  0
   -1.6267   10.5152   -5.8438 H   0  0  0  0  0  0
   -0.7307   12.5284   -6.6385 H   0  0  0  0  0  0
    0.7514   12.0063   -5.7682 H   0  0  0  0  0  0
   -2.1222   13.4422   -1.1648 H   0  0  0  0  0  0
    0.5202   12.6943    0.0006 H   0  0  0  0  0  0
   -2.1953   13.2902    1.3102 H   0  0  0  0  0  0
   -0.6719   13.0149    2.2213 H   0  0  0  0  0  0
   -1.0485   15.3150    2.1950 H   0  0  0  0  0  0
    1.2799   14.6120    1.7345 H   0  0  0  0  0  0
    0.8889   16.2101    1.0134 H   0  0  0  0  0  0
    0.9591   14.7480   -0.0277 H   0  0  0  0  0  0
   -2.7057   15.3957    0.3654 H   0  0  0  0  0  0
   -1.3796   15.2083   -0.8318 H   0  0  0  0  0  0
   -1.4498   16.6704    0.2094 H   0  0  0  0  0  0
    1.0059   10.8262    1.3143 H   0  0  0  0  0  0
   -0.7263    8.5783    0.4771 H   0  0  0  0  0  0
    1.5053    8.2966    2.5955 H   0  0  0  0  0  0
    2.9526    7.7178    0.4919 H   0  0  0  0  0  0
    1.7371    8.6714   -0.4245 H   0  0  0  0  0  0
    0.0550    6.3499    2.1791 H   0  0  0  0  0  0
    1.7467    6.0644    1.6465 H   0  0  0  0  0  0
    0.4712    6.4213    0.4331 H   0  0  0  0  0  0
    3.6941    9.9877    0.1100 H   0  0  0  0  0  0
    3.4532    9.6724    1.8619 H   0  0  0  0  0  0
    2.2376   10.6260    0.9455 H   0  0  0  0  0  0
   -3.0205    8.4122    4.4520 H   0  0  0  0  0  0
   -3.8203    5.7599    4.2544 H   0  0  0  0  0  0
   -4.6363    7.0448    3.3007 H   0  0  0  0  0  0
   -2.4725    5.0983    2.4674 H   0  0  0  0  0  0
   -3.9602    5.5872    1.5874 H   0  0  0  0  0  0
   -3.0079    7.6418    0.8771 H   0  0  0  0  0  0
   -1.4947    6.6826    1.0065 H   0  0  0  0  0  0
    0.2364    6.1346    6.5195 H   0  0  0  0  0  0
   -1.3314    5.9960    9.0260 H   0  0  0  0  0  0
    0.1016    7.0260    8.6910 H   0  0  0  0  0  0
   -2.4586    7.9991    9.0704 H   0  0  0  0  0  0
   -1.1788    8.8455    8.1365 H   0  0  0  0  0  0
   -2.7901    8.6848    6.4050 H   0  0  0  0  0  0
   -3.5316    7.2026    7.0976 H   0  0  0  0  0  0
   -1.6950    2.1946    6.3361 H   0  0  0  0  0  0
    0.7723    0.7917    7.0590 H   0  0  0  0  0  0
    0.1361    1.0602    5.4008 H   0  0  0  0  0  0
    2.4505    2.2075    6.4928 H   0  0  0  0  0  0
    1.5843    2.7578    5.0185 H   0  0  0  0  0  0
    1.3377    4.7371    6.2282 H   0  0  0  0  0  0
    1.5237    3.9099    7.8118 H   0  0  0  0  0  0
   -2.4750    0.9092   10.4656 H   0  0  0  0  0  0
   -3.8695   -1.4211    9.8211 H   0  0  0  0  0  0
   -4.5973    0.2022    9.5724 H   0  0  0  0  0  0
   -3.2773   -1.6523    7.5823 H   0  0  0  0  0  0
   -4.7398   -0.6273    7.3893 H   0  0  0  0  0  0
   -3.4821    1.2787    6.8972 H   0  0  0  0  0  0
   -2.2178    0.0856    6.4446 H   0  0  0  0  0  0
  1  2  1  0  0  0
  1 64  1  0  0  0
  1 65  1  0  0  0
  1 66  1  0  0  0
  2  3  1  0  0  0
  2 67  1  0  0  0
  2 68  1  0  0  0
  3  4  2  0  0  0
  3  5  1  0  0  0
  5  6  1  0  0  0
  5 11  1  0  0  0
  6  7  1  0  0  0
  6  9  1  0  0  0
  6 69  1  0  0  0
  7  8  2  0  0  0
  7 12  1  0  0  0
  9 10  1  0  0  0
  9 70  1  0  0  0
  9 71  1  0  0  0
 10 11  1  0  0  0
 10 72  1  0  0  0
 10 73  1  0  0  0
 11 74  1  0  0  0
 11 75  1  0  0  0
 12 13  1  0  0  0
 12 18  1  0  0  0
 13 14  1  0  0  0
 13 16  1  0  0  0
 13 76  1  0  0  0
 14 15  2  0  0  0
 14 19  1  0  0  0
 16 17  1  0  0  0
 16 77  1  0  0  0
 16 78  1  0  0  0
 17 18  1  0  0  0
 17 79  1  0  0  0
 17 80  1  0  0  0
 18 81  1  0  0  0
 18 82  1  0  0  0
 19 20  1  0  0  0
 19 83  1  0  0  0
 20 21  1  0  0  0
 20 23  1  0  0  0
 20 84  1  0  0  0
 21 22  2  0  0  0
 21 27  1  0  0  0
 23 24  1  0  0  0
 23 85  1  0  0  0
 23 86  1  0  0  0
 24 25  1  0  0  0
 24 26  1  0  0  0
 24 87  1  0  0  0
 25 88  1  0  0  0
 25 89  1  0  0  0
 25 90  1  0  0  0
 26 91  1  0  0  0
 26 92  1  0  0  0
 26 93  1  0  0  0
 27 28  1  0  0  0
 27 94  1  0  0  0
 28 29  1  0  0  0
 28 31  1  0  0  0
 28 95  1  0  0  0
 29 30  2  0  0  0
 29 35  1  0  0  0
 31 32  1  0  0  0
 31 33  1  0  0  0
 31 96  1  0  0  0
 32 34  1  0  0  0
 32 97  1  0  0  0
 32 98  1  0  0  0
 33 99  1  0  0  0
 33100  1  0  0  0
 33101  1  0  0  0
 34102  1  0  0  0
 34103  1  0  0  0
 34104  1  0  0  0
 35 36  1  0  0  0
 35 41  1  0  0  0
 36 37  1  0  0  0
 36 39  1  0  0  0
 36105  1  0  0  0
 37 38  2  0  0  0
 37 42  1  0  0  0
 39 40  1  0  0  0
 39106  1  0  0  0
 39107  1  0  0  0
 40 41  1  0  0  0
 40108  1  0  0  0
 40109  1  0  0  0
 41110  1  0  0  0
 41111  1  0  0  0
 42 43  1  0  0  0
 42 48  1  0  0  0
 43 44  1  0  0  0
 43 46  1  0  0  0
 43112  1  0  0  0
 44 45  2  0  0  0
 44 49  1  0  0  0
 46 47  1  0  0  0
 46113  1  0  0  0
 46114  1  0  0  0
 47 48  1  0  0  0
 47115  1  0  0  0
 47116  1  0  0  0
 48117  1  0  0  0
 48118  1  0  0  0
 49 50  1  0  0  0
 49 55  1  0  0  0
 50 51  1  0  0  0
 50 53  1  0  0  0
 50119  1  0  0  0
 51 52  2  0  0  0
 51 56  1  0  0  0
 53 54  1  0  0  0
 53120  1  0  0  0
 53121  1  0  0  0
 54 55  1  0  0  0
 54122  1  0  0  0
 54123  1  0  0  0
 55124  1  0  0  0
 55125  1  0  0  0
 56 57  1  0  0  0
 56 62  1  0  0  0
 57 58  1  0  0  0
 57 60  1  0  0  0
 57126  1  0  0  0
 58 59  2  0  0  0
 58 63  1  0  0  0
 60 61  1  0  0  0
 60127  1  0  0  0
 60128  1  0  0  0
 61 62  1  0  0  0
 61129  1  0  0  0
 61130  1  0  0  0
 62131  1  0  0  0
 62132  1  0  0  0
M  CHG  2   1   1  63  -1
M  END
> <s_m_source_file>
../2jup_ligand.sdf

> <i_m_source_file_index>
1

> <s_epik_input>
W05IMytdW0NIMl1DKD1PKU4xW0NAQEhdKFtDSDJdW0NIMl1bQ0gyXTEpQyg9TylOMltDQEBIXShbQ0gyXVtDSDJdW0NIMl0yKUMoPU8pW05IXVtDQEBIXShbQ0gyXVtDSF0oW0NIM10pW0NIM10pQyg9TylbTkhdW0NAQEhdKFtDQEBIXShbQ0gzXSlbQ0gyXVtDSDNdKUMoPU8pTjNbQ0BASF0oW0NIMl1bQ0gyXVtDSDJdMylDKD1PKU40W0NAQEhdKFtDSDJdW0NIMl1bQ0gyXTQpQyg9TylONVtDQEBIXShbQ0gyXVtDSDJdW0NIMl01KUMoPU8pTjZbQ0BIXShDKD1PKVtPSF0pW0NIMl1bQ0gyXVtDSDJdNg==

> <s_epik_cmdline>
J2VwaWtfYXBwJywgJy1pbWFlJywgJ2xpZ2FuZF9wcm8ubWFlJywgJy1vbWFlJywgJ2xpZ2FuZF9wcmVwLm1hZScsICctbXMnLCAnMScsICctcGgnLCAnNycsICctcGh0JywgJzAuNScsICctbnQn

> <r_epik_Ionization_Penalty>
  0.1162

> <r_epik_Ionization_Penalty_Charging>
  0.1162

> <r_epik_Ionization_Penalty_Neutral>
  0.0000

> <r_epik_State_Penalty>
  0.1054

> <r_epik_Charging_Adjusted_Penalty>
0.221569228377892

> <i_epik_Tot_Q>
0

> <i_epik_Tot_abs_Q>
2

$$$$
