2k00_ligand
                    3D
 Schrodinger Suite 2020-3.
247250  0  0  1  0            999 V2000
  -20.7740  -15.9980  -10.3320 N   0  3  0  0  0  0
  -20.7280  -15.1930   -9.0880 C   0  0  0  0  0  0
  -19.4570  -15.4250   -8.3010 C   0  0  0  0  0  0
  -19.3070  -16.4570   -7.6440 O   0  0  0  0  0  0
  -18.5370  -14.4740   -8.3690 N   0  0  0  0  0  0
  -17.2890  -14.5640   -7.6290 C   0  0  2  0  0  0
  -17.2040  -13.4290   -6.6030 C   0  0  0  0  0  0
  -17.0030  -12.2720   -6.9710 O   0  0  0  0  0  0
  -16.0980  -14.4930   -8.5900 C   0  0  0  0  0  0
  -14.7510  -14.7220   -7.9180 C   0  0  0  0  0  0
  -14.7200  -16.0410   -7.1400 C   0  0  0  0  0  0
  -15.0350  -17.1890   -7.9910 N   0  0  0  0  0  0
  -14.9450  -18.4570   -7.5930 C   0  0  0  0  0  0
  -14.5770  -18.7380   -6.3480 N   0  0  0  0  0  0
  -15.2330  -19.4420   -8.4390 N   0  0  0  0  0  0
  -17.3700  -13.7530   -5.3250 N   0  0  0  0  0  0
  -17.3260  -12.7490   -4.2760 C   0  0  2  0  0  0
  -15.8870  -12.4860   -3.8410 C   0  0  0  0  0  0
  -15.0070  -13.3260   -4.0380 O   0  0  0  0  0  0
  -18.1640  -13.2150   -3.0830 C   0  0  0  0  0  0
  -17.7550  -14.5010   -2.6480 O   0  0  0  0  0  0
  -15.6530  -11.3180   -3.2630 N   0  0  0  0  0  0
  -14.3440  -10.9730   -2.7270 C   0  0  2  0  0  0
  -14.5200  -10.2210   -1.4160 C   0  0  0  0  0  0
  -13.8410   -9.2360   -1.1380 O   0  0  0  0  0  0
  -13.5150  -10.1560   -3.7370 C   0  0  0  0  0  0
  -14.1210   -8.8180   -4.1630 C   0  0  0  0  0  0
  -15.2690   -8.9980   -5.1610 C   0  0  0  0  0  0
  -15.8120   -7.6690   -5.6990 C   0  0  0  0  0  0
  -15.9660   -6.6490   -4.6290 N   0  3  0  0  0  0
  -15.4430  -10.7300   -0.6130 N   0  0  0  0  0  0
  -15.8080  -10.1200    0.6590 C   0  0  2  0  0  0
  -14.6050   -9.9730    1.5870 C   0  0  0  0  0  0
  -14.2750   -8.8700    2.0170 O   0  0  0  0  0  0
  -16.9010  -10.9460    1.3410 C   0  0  0  0  0  0
  -18.2550  -10.8630    0.6510 C   0  0  0  0  0  0
  -19.2570  -11.8310    1.2350 C   0  0  0  0  0  0
  -19.6530  -11.6480    2.4030 O   0  0  0  0  0  0
  -19.6560  -12.7800    0.5290 O   0  0  0  0  0  0
  -13.9560  -11.0840    1.8930 N   0  0  0  0  0  0
  -12.7970  -11.0650    2.7670 C   0  0  2  0  0  0
  -11.5160  -10.8910    1.9590 C   0  0  0  0  0  0
  -11.3910  -11.4180    0.8500 O   0  0  0  0  0  0
  -12.7450  -12.3500    3.5960 C   0  0  0  0  0  0
  -12.9380  -13.4960    2.7790 O   0  0  0  0  0  0
  -10.5810  -10.1250    2.5060 N   0  0  0  0  0  0
   -9.3040   -9.9260    1.8530 C   0  0  0  0  0  0
   -9.3040   -8.7240    0.9310 C   0  0  0  0  0  0
   -8.4080   -7.8820    1.0000 O   0  0  0  0  0  0
  -10.3150   -8.6440    0.0750 N   0  0  0  0  0  0
  -10.4180   -7.5660   -0.8990 C   0  0  2  0  0  0
  -11.3060   -6.4480   -0.3730 C   0  0  0  0  0  0
  -12.4850   -6.6510   -0.0830 O   0  0  0  0  0  0
  -10.9580   -8.0930   -2.2280 C   0  0  0  0  0  0
  -10.0390   -9.0700   -2.9010 C   0  0  0  0  0  0
  -10.0350  -10.4290   -2.7550 C   0  0  0  0  0  0
   -8.9880   -8.7640   -3.8290 C   0  0  0  0  0  0
   -9.0480  -10.9850   -3.5300 N   0  0  0  0  0  0
   -8.3920   -9.9850   -4.2000 C   0  0  0  0  0  0
   -8.4930   -7.5790   -4.3850 C   0  0  0  0  0  0
   -7.3290  -10.0540   -5.0980 C   0  0  0  0  0  0
   -7.4380   -7.6500   -5.2770 C   0  0  0  0  0  0
   -6.8680   -8.8800   -5.6260 C   0  0  0  0  0  0
  -10.7240   -5.2710   -0.2460 N   0  0  0  0  0  0
  -11.4520   -4.1090    0.2470 C   0  0  2  0  0  0
  -11.6840   -3.1210   -0.8860 C   0  0  0  0  0  0
  -10.7370   -2.6630   -1.5260 O   0  0  0  0  0  0
  -10.7150   -3.4040    1.4110 C   0  0  0  0  0  0
  -11.5380   -2.2330    1.9370 C   0  0  0  0  0  0
  -10.4190   -4.3900    2.5390 C   0  0  0  0  0  0
  -12.9470   -2.8000   -1.1250 N   0  0  0  0  0  0
  -13.3320   -1.9590   -2.2470 C   0  0  2  0  0  0
  -13.4300   -0.4990   -1.8210 C   0  0  0  0  0  0
  -14.3670   -0.1050   -1.1240 O   0  0  0  0  0  0
  -14.6690   -2.4380   -2.8220 C   0  0  0  0  0  0
  -14.6450   -3.8730   -3.3420 C   0  0  0  0  0  0
  -13.9240   -4.0240   -4.6660 C   0  0  0  0  0  0
  -12.7500   -3.6040   -4.7510 O   0  0  0  0  0  0
  -14.5190   -4.5370   -5.6340 O   0  0  0  0  0  0
  -12.4560    0.2990   -2.2370 N   0  0  0  0  0  0
  -12.4430    1.7210   -1.8930 C   0  0  2  0  0  0
  -13.1860    2.5250   -2.9510 C   0  0  0  0  0  0
  -13.3340    2.0770   -4.0880 O   0  0  0  0  0  0
  -11.0160    2.2510   -1.7360 C   0  0  0  0  0  0
  -10.9910    3.6900   -1.2700 C   0  0  0  0  0  0
  -10.1380    4.4660   -1.6760 O   0  0  0  0  0  0
  -11.9180    4.0480   -0.3920 N   0  0  0  0  0  0
  -13.6500    3.7140   -2.5810 N   0  0  0  0  0  0
  -14.5240    4.4770   -3.4510 C   0  0  2  0  0  0
  -13.9720    5.8490   -3.8150 C   0  0  0  0  0  0
  -14.7180    6.7000   -4.3030 O   0  0  0  0  0  0
  -15.8980    4.6380   -2.7960 C   0  0  0  0  0  0
  -16.5590    3.3290   -2.3900 C   0  0  0  0  0  0
  -17.8890    3.5420   -1.6990 C   0  0  0  0  0  0
  -18.9180    3.6680   -2.3950 O   0  0  0  0  0  0
  -17.9140    3.5780   -0.4510 O   0  0  0  0  0  0
  -12.6860    6.0800   -3.6220 N   0  0  0  0  0  0
  -12.1250    7.3710   -4.0430 C   0  0  2  0  0  0
  -11.2350    7.2380   -5.2670 C   0  0  0  0  0  0
  -10.5130    8.1700   -5.6140 O   0  0  0  0  0  0
  -11.3550    8.1360   -2.9390 C   0  0  2  0  0  0
  -10.1670    7.3300   -2.3890 C   0  0  0  0  0  0
  -12.2970    8.5410   -1.8060 C   0  0  0  0  0  0
   -9.4580    8.0140   -1.2250 C   0  0  0  0  0  0
  -11.3150    6.1010   -5.9380 N   0  0  0  0  0  0
  -10.5720    5.9050   -7.1760 C   0  0  2  0  0  0
  -11.2570    6.6620   -8.3090 C   0  0  0  0  0  0
  -12.2270    6.1780   -8.8970 O   0  0  0  0  0  0
  -10.4520    4.4160   -7.5190 C   0  0  0  0  0  0
   -9.6400    4.1460   -8.7640 C   0  0  0  0  0  0
   -8.2830    4.4310   -8.8070 C   0  0  0  0  0  0
  -10.2300    3.6010   -9.8950 C   0  0  0  0  0  0
   -7.5370    4.1830   -9.9390 C   0  0  0  0  0  0
   -9.4910    3.3460  -11.0330 C   0  0  0  0  0  0
   -8.1450    3.6390  -11.0500 C   0  0  0  0  0  0
   -7.4050    3.3940  -12.1850 O   0  0  0  0  0  0
  -10.7780    7.8690   -8.5780 N   0  0  0  0  0  0
  -11.3680    8.7240   -9.5800 C   0  0  2  0  0  0
  -10.9210    8.3470  -11.0020 C   0  0  0  0  0  0
  -11.3150    7.2630  -11.4870 O   0  0  0  0  0  0
  -11.0410   10.1990   -9.2410 C   0  0  0  0  0  0
   -9.5640   10.5820   -9.1250 C   0  0  0  0  0  0
   -8.5260    9.6930   -9.4110 C   0  0  0  0  0  0
   -9.2200   11.8670   -8.7240 C   0  0  0  0  0  0
   -7.2020   10.0780   -9.2980 C   0  0  0  0  0  0
   -7.9010   12.2570   -8.6080 C   0  0  0  0  0  0
   -6.8970   11.3600   -8.8950 C   0  0  0  0  0  0
   -5.5800   11.7480   -8.7700 O   0  0  0  0  0  0
  -10.2170    9.1450  -11.6510 O   0  0  0  0  0  0
  -21.7139  -15.7943  -10.8660 H   0  0  0  0  0  0
  -20.7203  -17.0672  -10.0790 H   0  0  0  0  0  0
  -19.9220  -15.7298  -10.9740 H   0  0  0  0  0  0
  -20.7817  -14.1238   -9.3410 H   0  0  0  0  0  0
  -21.5800  -15.4612   -8.4460 H   0  0  0  0  0  0
  -18.7369  -13.5998   -9.0060 H   0  0  0  0  0  0
  -17.3101  -15.5394   -7.1210 H   0  0  0  0  0  0
  -16.2090  -15.2618   -9.3688 H   0  0  0  0  0  0
  -16.0639  -13.4985   -9.0588 H   0  0  0  0  0  0
  -13.9606  -14.7534   -8.6823 H   0  0  0  0  0  0
  -14.5481  -13.9013   -7.2142 H   0  0  0  0  0  0
  -13.7163  -16.1934   -6.7166 H   0  0  0  0  0  0
  -15.4594  -16.0043   -6.3264 H   0  0  0  0  0  0
  -15.3691  -17.0304   -9.0270 H   0  0  0  0  0  0
  -14.3387  -17.9237   -5.6479 H   0  0  0  0  0  0
  -15.5378  -19.2099   -9.4701 H   0  0  0  0  0  0
  -15.1664  -20.4888   -8.1076 H   0  0  0  0  0  0
  -17.5439  -14.8086   -5.0691 H   0  0  0  0  0  0
  -17.7486  -11.8333   -4.7153 H   0  0  0  0  0  0
  -18.0435  -12.5057   -2.2509 H   0  0  0  0  0  0
  -19.2236  -13.2612   -3.3749 H   0  0  0  0  0  0
  -18.2599  -14.9798   -1.7961 H   0  0  0  0  0  0
  -16.4825  -10.5989   -3.1940 H   0  0  0  0  0  0
  -13.8317  -11.9289   -2.5435 H   0  0  0  0  0  0
  -12.5315   -9.9247   -3.3021 H   0  0  0  0  0  0
  -13.3799  -10.7409   -4.6587 H   0  0  0  0  0  0
  -14.5144   -8.2955   -3.2786 H   0  0  0  0  0  0
  -13.3461   -8.1997   -4.6397 H   0  0  0  0  0  0
  -14.9181   -9.5872   -6.0211 H   0  0  0  0  0  0
  -16.1016   -9.5243   -4.6712 H   0  0  0  0  0  0
  -15.1196   -7.2689   -6.4543 H   0  0  0  0  0  0
  -16.7984   -7.8344   -6.1569 H   0  0  0  0  0  0
  -16.3569   -5.7174   -5.0641 H   0  0  0  0  0  0
  -14.9881   -6.4546   -4.1643 H   0  0  0  0  0  0
  -16.6669   -7.0201   -3.8668 H   0  0  0  0  0  0
  -15.9411  -11.6536   -0.9431 H   0  0  0  0  0  0
  -16.1773   -9.1177    0.3962 H   0  0  0  0  0  0
  -16.6057  -12.0055    1.3537 H   0  0  0  0  0  0
  -17.0385  -10.5913    2.3731 H   0  0  0  0  0  0
  -18.6604   -9.8463    0.7601 H   0  0  0  0  0  0
  -18.1373  -11.0981   -0.4171 H   0  0  0  0  0  0
  -20.3855  -13.4974    0.9331 H   0  0  0  0  0  0
  -14.3109  -12.0357    1.4707 H   0  0  0  0  0  0
  -12.9312  -10.1936    3.4248 H   0  0  0  0  0  0
  -11.7639  -12.4301    4.0870 H   0  0  0  0  0  0
  -13.5363  -12.3260    4.3597 H   0  0  0  0  0  0
  -12.9279  -14.4999    3.2285 H   0  0  0  0  0  0
  -10.7875   -9.6376    3.4703 H   0  0  0  0  0  0
   -8.5241   -9.7695    2.6128 H   0  0  0  0  0  0
   -9.0573  -10.8135    1.2518 H   0  0  0  0  0  0
  -11.0897   -9.4238    0.1163 H   0  0  0  0  0  0
   -9.3930   -7.1893   -1.0313 H   0  0  0  0  0  0
  -11.9161   -8.6056   -2.0570 H   0  0  0  0  0  0
  -11.1104   -7.2525   -2.9210 H   0  0  0  0  0  0
  -10.7168  -10.9899   -2.1158 H   0  0  0  0  0  0
   -8.9311   -6.6168   -4.1198 H   0  0  0  0  0  0
   -6.8809  -11.0097   -5.3699 H   0  0  0  0  0  0
   -7.0441   -6.7331   -5.7153 H   0  0  0  0  0  0
   -6.0392   -8.9023   -6.3336 H   0  0  0  0  0  0
   -9.6633   -5.1789   -0.5225 H   0  0  0  0  0  0
  -12.4073   -4.5204    0.6049 H   0  0  0  0  0  0
   -9.7574   -3.0101    1.0398 H   0  0  0  0  0  0
  -11.7439   -1.5312    1.1154 H   0  0  0  0  0  0
  -10.9758   -1.7160    2.7286 H   0  0  0  0  0  0
  -12.4879   -2.6071    2.3465 H   0  0  0  0  0  0
   -9.8255   -5.2288    2.1464 H   0  0  0  0  0  0
  -11.3652   -4.7712    2.9504 H   0  0  0  0  0  0
   -9.8531   -3.8801    3.3326 H   0  0  0  0  0  0
  -13.7153   -3.1915   -0.4420 H   0  0  0  0  0  0
  -12.5290   -2.0661   -2.9911 H   0  0  0  0  0  0
  -15.4424   -2.3894   -2.0413 H   0  0  0  0  0  0
  -14.9578   -1.7929   -3.6649 H   0  0  0  0  0  0
  -14.1335   -4.5186   -2.6130 H   0  0  0  0  0  0
  -15.6761   -4.2281   -3.4862 H   0  0  0  0  0  0
  -12.1992   -3.6988   -5.6984 H   0  0  0  0  0  0
  -11.6482   -0.1257   -2.8511 H   0  0  0  0  0  0
  -12.9639    1.7893   -0.9266 H   0  0  0  0  0  0
  -10.4781    1.6417   -0.9948 H   0  0  0  0  0  0
  -10.4956    2.1954   -2.7035 H   0  0  0  0  0  0
  -12.6668    3.3167   -0.0538 H   0  0  0  0  0  0
  -11.9381    5.0763   -0.0019 H   0  0  0  0  0  0
  -13.3621    4.1179   -1.5992 H   0  0  0  0  0  0
  -14.5650    3.8694   -4.3671 H   0  0  0  0  0  0
  -15.8003    5.2442   -1.8833 H   0  0  0  0  0  0
  -16.5821    5.1385   -3.4971 H   0  0  0  0  0  0
  -16.7366    2.7149   -3.2851 H   0  0  0  0  0  0
  -15.9003    2.7851   -1.6970 H   0  0  0  0  0  0
  -18.8674    3.7315    0.0758 H   0  0  0  0  0  0
  -12.0373    5.3246   -3.1545 H   0  0  0  0  0  0
  -13.0434    7.9217   -4.2945 H   0  0  0  0  0  0
  -10.9443    9.0500   -3.3928 H   0  0  0  0  0  0
  -10.5216    6.3522   -2.0311 H   0  0  0  0  0  0
   -9.4242    7.1811   -3.1866 H   0  0  0  0  0  0
  -13.1397    9.1159   -2.2176 H   0  0  0  0  0  0
  -11.7511    9.1601   -1.0789 H   0  0  0  0  0  0
  -12.6783    7.6385   -1.3059 H   0  0  0  0  0  0
   -8.6230    7.3847   -0.8835 H   0  0  0  0  0  0
  -10.1685    8.1609   -0.3982 H   0  0  0  0  0  0
   -9.0711    8.9898   -1.5537 H   0  0  0  0  0  0
  -11.9552    5.2962   -5.5475 H   0  0  0  0  0  0
   -9.5683    6.3163   -6.9934 H   0  0  0  0  0  0
   -9.9643    3.8863   -6.6874 H   0  0  0  0  0  0
  -11.4551    3.9956   -7.6834 H   0  0  0  0  0  0
   -7.7980    4.8588   -7.9296 H   0  0  0  0  0  0
  -11.2952    3.3701   -9.8851 H   0  0  0  0  0  0
   -6.4723    4.4157   -9.9556 H   0  0  0  0  0  0
   -9.9696    2.9155  -11.9126 H   0  0  0  0  0  0
   -6.3301    3.6269  -12.2017 H   0  0  0  0  0  0
   -9.9018    8.2125   -8.0085 H   0  0  0  0  0  0
  -12.4491    8.5314   -9.5158 H   0  0  0  0  0  0
  -11.0088    6.9712  -12.5024 H   0  0  0  0  0  0
  -11.4527   10.8547  -10.0223 H   0  0  0  0  0  0
  -11.4879   10.4599   -8.2703 H   0  0  0  0  0  0
   -8.7630    8.6777   -9.7289 H   0  0  0  0  0  0
  -10.0094   12.5832   -8.4959 H   0  0  0  0  0  0
   -6.4044    9.3711   -9.5265 H   0  0  0  0  0  0
   -7.6556   13.2705   -8.2906 H   0  0  0  0  0  0
   -4.7729   11.0361   -8.9978 H   0  0  0  0  0  0
  1  2  1  0  0  0
  1130  1  0  0  0
  1131  1  0  0  0
  1132  1  0  0  0
  2  3  1  0  0  0
  2133  1  0  0  0
  2134  1  0  0  0
  3  4  2  0  0  0
  3  5  1  0  0  0
  5  6  1  0  0  0
  5135  1  0  0  0
  6  7  1  0  0  0
  6  9  1  0  0  0
  6136  1  0  0  0
  7  8  2  0  0  0
  7 16  1  0  0  0
  9 10  1  0  0  0
  9137  1  0  0  0
  9138  1  0  0  0
 10 11  1  0  0  0
 10139  1  0  0  0
 10140  1  0  0  0
 11 12  1  0  0  0
 11141  1  0  0  0
 11142  1  0  0  0
 12 13  1  0  0  0
 12143  1  0  0  0
 13 14  2  0  0  0
 13 15  1  0  0  0
 14144  1  0  0  0
 15145  1  0  0  0
 15146  1  0  0  0
 16 17  1  0  0  0
 16147  1  0  0  0
 17 18  1  0  0  0
 17 20  1  0  0  0
 17148  1  0  0  0
 18 19  2  0  0  0
 18 22  1  0  0  0
 20 21  1  0  0  0
 20149  1  0  0  0
 20150  1  0  0  0
 21151  1  0  0  0
 22 23  1  0  0  0
 22152  1  0  0  0
 23 24  1  0  0  0
 23 26  1  0  0  0
 23153  1  0  0  0
 24 25  2  0  0  0
 24 31  1  0  0  0
 26 27  1  0  0  0
 26154  1  0  0  0
 26155  1  0  0  0
 27 28  1  0  0  0
 27156  1  0  0  0
 27157  1  0  0  0
 28 29  1  0  0  0
 28158  1  0  0  0
 28159  1  0  0  0
 29 30  1  0  0  0
 29160  1  0  0  0
 29161  1  0  0  0
 30162  1  0  0  0
 30163  1  0  0  0
 30164  1  0  0  0
 31 32  1  0  0  0
 31165  1  0  0  0
 32 33  1  0  0  0
 32 35  1  0  0  0
 32166  1  0  0  0
 33 34  2  0  0  0
 33 40  1  0  0  0
 35 36  1  0  0  0
 35167  1  0  0  0
 35168  1  0  0  0
 36 37  1  0  0  0
 36169  1  0  0  0
 36170  1  0  0  0
 37 38  2  0  0  0
 37 39  1  0  0  0
 39171  1  0  0  0
 40 41  1  0  0  0
 40172  1  0  0  0
 41 42  1  0  0  0
 41 44  1  0  0  0
 41173  1  0  0  0
 42 43  2  0  0  0
 42 46  1  0  0  0
 44 45  1  0  0  0
 44174  1  0  0  0
 44175  1  0  0  0
 45176  1  0  0  0
 46 47  1  0  0  0
 46177  1  0  0  0
 47 48  1  0  0  0
 47178  1  0  0  0
 47179  1  0  0  0
 48 49  2  0  0  0
 48 50  1  0  0  0
 50 51  1  0  0  0
 50180  1  0  0  0
 51 52  1  0  0  0
 51 54  1  0  0  0
 51181  1  0  0  0
 52 53  2  0  0  0
 52 64  1  0  0  0
 54 55  1  0  0  0
 54182  1  0  0  0
 54183  1  0  0  0
 55 56  2  0  0  0
 55 57  1  0  0  0
 56 58  1  0  0  0
 56184  1  0  0  0
 57 59  2  0  0  0
 57 60  1  0  0  0
 58 59  1  0  0  0
 59 61  1  0  0  0
 60 62  2  0  0  0
 60185  1  0  0  0
 61 63  2  0  0  0
 61186  1  0  0  0
 62 63  1  0  0  0
 62187  1  0  0  0
 63188  1  0  0  0
 64 65  1  0  0  0
 64189  1  0  0  0
 65 66  1  0  0  0
 65 68  1  0  0  0
 65190  1  0  0  0
 66 67  2  0  0  0
 66 71  1  0  0  0
 68 69  1  0  0  0
 68 70  1  0  0  0
 68191  1  0  0  0
 69192  1  0  0  0
 69193  1  0  0  0
 69194  1  0  0  0
 70195  1  0  0  0
 70196  1  0  0  0
 70197  1  0  0  0
 71 72  1  0  0  0
 71198  1  0  0  0
 72 73  1  0  0  0
 72 75  1  0  0  0
 72199  1  0  0  0
 73 74  2  0  0  0
 73 80  1  0  0  0
 75 76  1  0  0  0
 75200  1  0  0  0
 75201  1  0  0  0
 76 77  1  0  0  0
 76202  1  0  0  0
 76203  1  0  0  0
 77 78  1  0  0  0
 77 79  2  0  0  0
 78204  1  0  0  0
 80 81  1  0  0  0
 80205  1  0  0  0
 81 82  1  0  0  0
 81 84  1  0  0  0
 81206  1  0  0  0
 82 83  2  0  0  0
 82 88  1  0  0  0
 84 85  1  0  0  0
 84207  1  0  0  0
 84208  1  0  0  0
 85 86  2  0  0  0
 85 87  1  0  0  0
 87209  1  0  0  0
 87210  1  0  0  0
 88 89  1  0  0  0
 88211  1  0  0  0
 89 90  1  0  0  0
 89 92  1  0  0  0
 89212  1  0  0  0
 90 91  2  0  0  0
 90 97  1  0  0  0
 92 93  1  0  0  0
 92213  1  0  0  0
 92214  1  0  0  0
 93 94  1  0  0  0
 93215  1  0  0  0
 93216  1  0  0  0
 94 95  2  0  0  0
 94 96  1  0  0  0
 96217  1  0  0  0
 97 98  1  0  0  0
 97218  1  0  0  0
 98 99  1  0  0  0
 98101  1  0  0  0
 98219  1  0  0  0
 99100  2  0  0  0
 99105  1  0  0  0
101102  1  0  0  0
101103  1  0  0  0
101220  1  0  0  0
102104  1  0  0  0
102221  1  0  0  0
102222  1  0  0  0
103223  1  0  0  0
103224  1  0  0  0
103225  1  0  0  0
104226  1  0  0  0
104227  1  0  0  0
104228  1  0  0  0
105106  1  0  0  0
105229  1  0  0  0
106107  1  0  0  0
106109  1  0  0  0
106230  1  0  0  0
107108  2  0  0  0
107117  1  0  0  0
109110  1  0  0  0
109231  1  0  0  0
109232  1  0  0  0
110111  2  0  0  0
110112  1  0  0  0
111113  1  0  0  0
111233  1  0  0  0
112114  2  0  0  0
112234  1  0  0  0
113115  2  0  0  0
113235  1  0  0  0
114115  1  0  0  0
114236  1  0  0  0
115116  1  0  0  0
116237  1  0  0  0
117118  1  0  0  0
117238  1  0  0  0
118119  1  0  0  0
118121  1  0  0  0
118239  1  0  0  0
119120  1  0  0  0
119129  2  0  0  0
120240  1  0  0  0
121122  1  0  0  0
121241  1  0  0  0
121242  1  0  0  0
122123  2  0  0  0
122124  1  0  0  0
123125  1  0  0  0
123243  1  0  0  0
124126  2  0  0  0
124244  1  0  0  0
125127  2  0  0  0
125245  1  0  0  0
126127  1  0  0  0
126246  1  0  0  0
127128  1  0  0  0
128247  1  0  0  0
M  CHG  2   1   1  30   1
M  END
> <s_m_source_file>
../2k00_ligand.sdf

> <i_m_source_file_index>
1

> <s_epik_input>
W0hdL049QyhbTkgyXSlcW05IXVtDSDJdW0NIMl1bQ0gyXVtDQEhdKFtOSF1DKD1PKVtDSDJdW05IMytdKUMoPU8pW05IXVtDQEBIXShbQ0gyXVtPSF0pQyg9TylbTkhdW0NAQEhdKFtDSDJdW0NIMl1bQ0gyXVtDSDJdW05IMytdKUMoPU8pW05IXVtDQEBIXShbQ0gyXVtDSDJdQyg9TylbT0hdKUMoPU8pW05IXVtDQEBIXShbQ0gyXVtPSF0pQyg9TylbTkhdW0NIMl1DKD1PKVtOSF1bQ0BASF0oW0NIMl1jMVtjSF1bbkhdYyhjMTIpW2NIXVtjSF1bY0hdW2NIXTIpQyg9TylbTkhdW0NAQEhdKFtDSF0oW0NIM10pW0NIM10pQyg9TylbTkhdW0NAQEhdKFtDSDJdW0NIMl1DKD1PKVtPSF0pQyg9TylbTkhdW0NAQEhdKFtDSDJdQyg9TylbTkgyXSlDKD1PKVtOSF1bQ0BASF0oW0NIMl1bQ0gyXUMoPU8pW09IXSlDKD1PKVtOSF1bQ0BASF0oW0NAQEhdKFtDSDNdKVtDSDJdW0NIM10pQyg9TylbTkhdW0NAQEhdKFtDSDJdYzNbY0hdW2NIXWMoW09IXSlbY0hdW2NIXTMpQyg9TylbTkhdW0NASF0oQyg9TylbT0hdKVtDSDJdYzRbY0hdW2NIXWMoW09IXSlbY0hdW2NIXTQ=

> <s_epik_cmdline>
J2VwaWtfYXBwJywgJy1pbWFlJywgJ2xpZ2FuZF9wcm8ubWFlJywgJy1vbWFlJywgJ2xpZ2FuZF9wcmVwLm1hZScsICctbXMnLCAnMScsICctcGgnLCAnNycsICctcGh0JywgJzAuNScsICctbnQn

> <s_epik_pKa_notes>
Molecule size exceeds maximum supported for generating protonation states

> <s_epik_Chemistry_Notes>
This compound has an imine and may undergo hydrolysis.

$$$$
