2k0g_ligand
                    3D
 Schrodinger Suite 2020-3.
 33 36  0  0  1  0            999 V2000
   34.1840   -0.6800   -5.9380 P   0  0  1  0  0  0
   35.5910   -0.6960   -6.3990 O   0  0  0  0  0  0
   33.3440    0.3530   -6.8440 O   0  5  0  0  0  0
   33.5600   -2.1500   -6.0980 O   0  0  0  0  0  0
   34.2510   -3.0390   -5.2080 C   0  0  0  0  0  0
   34.0740   -2.5100   -3.7970 C   0  0  1  0  0  0
   34.6390   -3.3080   -2.7590 O   0  0  0  0  0  0
   34.8580   -1.1780   -3.6770 C   0  0  1  0  0  0
   34.1370   -0.1970   -4.3980 O   0  0  0  0  0  0
   34.8880   -0.9870   -2.1500 C   0  0  1  0  0  0
   33.7930   -0.1730   -1.7220 O   0  0  0  0  0  0
   34.7560   -2.4330   -1.6130 C   0  0  2  0  0  0
   35.9450   -2.7850   -0.8330 N   0  0  0  0  0  0
   37.1600   -3.1420   -1.3350 C   0  0  0  0  0  0
   37.9880   -3.3900   -0.3610 N   0  0  0  0  0  0
   37.3580   -3.2020    0.8240 C   0  0  0  0  0  0
   37.7340   -3.3240    2.1730 C   0  0  0  0  0  0
   39.0190   -3.7030    2.5180 N   0  0  0  0  0  0
   36.8270   -3.0610    3.1070 N   0  0  0  0  0  0
   35.6010   -2.6970    2.7870 C   0  0  0  0  0  0
   35.2020   -2.5750    1.5380 N   0  0  0  0  0  0
   36.0400   -2.8180    0.5340 C   0  0  0  0  0  0
   33.8238   -4.0490   -5.2940 H   0  0  0  0  0  0
   35.3179   -3.0683   -5.4742 H   0  0  0  0  0  0
   32.9888   -2.5136   -3.6171 H   0  0  0  0  0  0
   35.8506   -1.0703   -4.1387 H   0  0  0  0  0  0
   35.7500   -0.4226   -1.7646 H   0  0  0  0  0  0
   33.7428    0.8839   -2.0229 H   0  0  0  0  0  0
   33.8852   -2.5914   -0.9599 H   0  0  0  0  0  0
   37.4032   -3.2100   -2.3953 H   0  0  0  0  0  0
   39.7587   -3.9174    1.7326 H   0  0  0  0  0  0
   39.3010   -3.7899    3.5777 H   0  0  0  0  0  0
   34.8904   -2.4891    3.5869 H   0  0  0  0  0  0
  1  2  2  0  0  0
  1  3  1  0  0  0
  1  4  1  0  0  0
  1  9  1  0  0  0
  4  5  1  0  0  0
  5  6  1  0  0  0
  5 23  1  0  0  0
  5 24  1  0  0  0
  6  7  1  0  0  0
  6  8  1  0  0  0
  6 25  1  0  0  0
  7 12  1  0  0  0
  8  9  1  0  0  0
  8 10  1  0  0  0
  8 26  1  0  0  0
 10 11  1  0  0  0
 10 12  1  0  0  0
 10 27  1  0  0  0
 11 28  1  0  0  0
 12 13  1  0  0  0
 12 29  1  0  0  0
 13 14  1  0  0  0
 13 22  1  0  0  0
 14 15  2  0  0  0
 14 30  1  0  0  0
 15 16  1  0  0  0
 16 17  2  0  0  0
 16 22  1  0  0  0
 17 18  1  0  0  0
 17 19  1  0  0  0
 18 31  1  0  0  0
 18 32  1  0  0  0
 19 20  2  0  0  0
 20 21  1  0  0  0
 20 33  1  0  0  0
 21 22  2  0  0  0
M  CHG  1   3  -1
M  END
> <s_m_source_file>
../2k0g_ligand.sdf

> <i_m_source_file_index>
1

> <s_epik_input>
W0NIMl0xT1tQQEBdKD1PKShbT0hdKU9bQ0BIXShbQ0BASF0xMilbQ0BASF0oW09IXSlbQ0BASF0oTzIpbihbY0hdbjMpYyhjMzQpbltjSF1uYzRbTkgyXQ==

> <s_epik_cmdline>
J2VwaWtfYXBwJywgJy1pbWFlJywgJ2xpZ2FuZF9wcm8ubWFlJywgJy1vbWFlJywgJ2xpZ2FuZF9wcmVwLm1hZScsICctbXMnLCAnMScsICctcGgnLCAnNycsICctcGh0JywgJzAuNScsICctbnQn

> <r_lp_tautomer_probability>
1

> <r_epik_Ionization_Penalty>
  0.0008

> <r_epik_Ionization_Penalty_Charging>
  0.0002

> <r_epik_Ionization_Penalty_Neutral>
  0.0005

> <r_epik_State_Penalty>
 -0.0000

> <r_epik_Charging_Adjusted_Penalty>
0.000248221998699987

> <i_epik_Tot_Q>
-1

> <i_epik_Tot_abs_Q>
1

> <s_epik_Chemistry_Notes>
This compound contains an acetal/aminal-like group ( X-CH(R)-Y where X, Y are N, S, or O) that may be acid/base labile, releasing an aldehyde.

$$$$
