2k0x_ligand
                    3D
 Schrodinger Suite 2020-3.
 43 42  0  0  1  0            999 V2000
   -7.6390  -10.4470   -0.8670 O   0  0  0  0  0  0
   -6.7120  -10.9360   -1.9980 P   0  0  0  0  0  0
   -6.1560  -12.3910   -1.9300 O   0  0  0  0  0  0
   -7.4740  -10.7490   -3.3470 O   0  0  0  0  0  0
   -8.6010  -11.6720   -3.5940 C   0  0  0  0  0  0
   -9.3860  -11.3090   -4.8540 C   0  0  0  0  0  0
  -10.0420   -9.9750   -4.5770 C   0  0  0  0  0  0
   -8.4380  -11.2100   -6.0620 C   0  0  0  0  0  0
  -10.4970  -12.4210   -5.1090 C   0  0  2  0  0  0
   -9.9290  -13.7440   -5.1530 O   0  0  0  0  0  0
  -11.3160  -12.2010   -6.3960 C   0  0  0  0  0  0
  -11.6440  -11.0840   -6.8130 O   0  0  0  0  0  0
  -11.6550  -13.3000   -7.0030 N   0  0  0  0  0  0
  -12.4570  -13.3650   -8.2370 C   0  0  0  0  0  0
  -12.4920  -14.7710   -8.8540 C   0  0  0  0  0  0
  -11.2790  -15.1420   -9.7370 C   0  0  0  0  0  0
  -11.1220  -16.2970  -10.1510 O   0  0  0  0  0  0
  -10.4470  -14.1520  -10.0310 N   0  0  0  0  0  0
   -9.2570  -14.2920  -10.8550 C   0  0  0  0  0  0
   -8.2530  -13.1930  -10.5650 C   0  0  0  0  0  0
   -6.8610  -13.1090  -11.7010 S   0  0  0  0  0  0
   -5.5845  -12.7208   -1.0499 H   0  0  0  0  0  0
   -8.2167  -12.6954   -3.7163 H   0  0  0  0  0  0
   -9.2946  -11.6404   -2.7408 H   0  0  0  0  0  0
   -9.2667   -9.2144   -4.4024 H   0  0  0  0  0  0
  -10.6810  -10.0587   -3.6855 H   0  0  0  0  0  0
  -10.6554   -9.6815   -5.4416 H   0  0  0  0  0  0
   -7.6780  -10.4385   -5.8694 H   0  0  0  0  0  0
   -9.0145  -10.9409   -6.9594 H   0  0  0  0  0  0
   -7.9439  -12.1799   -6.2208 H   0  0  0  0  0  0
  -11.1838  -12.4282   -4.2498 H   0  0  0  0  0  0
   -9.3035  -14.1019   -4.3220 H   0  0  0  0  0  0
  -11.2979  -14.2265   -6.5297 H   0  0  0  0  0  0
  -13.4936  -13.0701   -8.0166 H   0  0  0  0  0  0
  -12.0327  -12.6808   -8.9866 H   0  0  0  0  0  0
  -12.5324  -15.5225   -8.0518 H   0  0  0  0  0  0
  -13.3818  -14.8689   -9.4933 H   0  0  0  0  0  0
  -10.7082  -13.1725   -9.6041 H   0  0  0  0  0  0
   -8.7817  -15.2627  -10.6507 H   0  0  0  0  0  0
   -9.5380  -14.2377  -11.9171 H   0  0  0  0  0  0
   -8.7554  -12.2156  -10.6123 H   0  0  0  0  0  0
   -7.8292  -13.3392   -9.5605 H   0  0  0  0  0  0
   -6.0850  -12.3414  -11.5643 H   0  0  0  0  0  0
  1  2  2  0  0  0
  2  3  1  0  0  0
  2  4  1  0  0  0
  3 22  1  0  0  0
  4  5  1  0  0  0
  5  6  1  0  0  0
  5 23  1  0  0  0
  5 24  1  0  0  0
  6  7  1  0  0  0
  6  8  1  0  0  0
  6  9  1  0  0  0
  7 25  1  0  0  0
  7 26  1  0  0  0
  7 27  1  0  0  0
  8 28  1  0  0  0
  8 29  1  0  0  0
  8 30  1  0  0  0
  9 10  1  0  0  0
  9 11  1  0  0  0
  9 31  1  0  0  0
 10 32  1  0  0  0
 11 12  2  0  0  0
 11 13  1  0  0  0
 13 14  1  0  0  0
 13 33  1  0  0  0
 14 15  1  0  0  0
 14 34  1  0  0  0
 14 35  1  0  0  0
 15 16  1  0  0  0
 15 36  1  0  0  0
 15 37  1  0  0  0
 16 17  2  0  0  0
 16 18  1  0  0  0
 18 19  1  0  0  0
 18 38  1  0  0  0
 19 20  1  0  0  0
 19 39  1  0  0  0
 19 40  1  0  0  0
 20 21  1  0  0  0
 20 41  1  0  0  0
 20 42  1  0  0  0
 21 43  1  0  0  0
M  END
> <s_m_source_file>
../2k0x_ligand.sdf

> <i_m_source_file_index>
1

> <s_epik_input>
Tz1bUEhdKFtPSF0pT1tDSDJdQyhbQ0gzXSkoW0NIM10pW0NASF0oW09IXSlDKD1PKVtOSF1bQ0gyXVtDSDJdQyg9TylbTkhdW0NIMl1bQ0gyXVtTSF0=

> <s_epik_cmdline>
J2VwaWtfYXBwJywgJy1pbWFlJywgJ2xpZ2FuZF9wcm8ubWFlJywgJy1vbWFlJywgJ2xpZ2FuZF9wcmVwLm1hZScsICctbXMnLCAnMScsICctcGgnLCAnNycsICctcGh0JywgJzAuNScsICctbnQn

> <r_lp_tautomer_probability>
1

> <r_epik_Ionization_Penalty>
  0.0028

> <r_epik_Ionization_Penalty_Charging>
  0.0000

> <r_epik_Ionization_Penalty_Neutral>
  0.0028

> <r_epik_State_Penalty>
 -0.0000

> <r_epik_Charging_Adjusted_Penalty>
0

> <i_epik_Tot_Q>
0

> <i_epik_Tot_abs_Q>
0

$$$$
