2k1q_ligand
                    3D
 Schrodinger Suite 2020-3.
 84 84  0  0  1  0            999 V2000
   13.2170   -8.6690   -3.9190 C   0  0  0  0  0  0
   12.4550   -9.5590   -4.2380 O   0  0  0  0  0  0
   14.2050   -8.9370   -3.2190 O   0  0  0  0  0  0
   15.2530   -9.1030   -3.8860 C   0  0  0  0  0  0
   15.3930  -10.5750   -4.2990 C   0  0  0  0  0  0
   16.4290  -10.6950   -5.4190 C   0  0  0  0  0  0
   15.8510  -11.4010   -3.0940 C   0  0  0  0  0  0
   12.9800   -7.4270   -4.2400 N   0  0  0  0  0  0
   13.0590   -6.3830   -3.1770 C   0  0  2  0  0  0
   11.7780   -5.5430   -3.1650 C   0  0  0  0  0  0
   11.3360   -5.0560   -4.1890 O   0  0  0  0  0  0
   14.2670   -5.5230   -3.5590 C   0  0  0  0  0  0
   14.4660   -4.4210   -2.5140 C   0  0  0  0  0  0
   15.6730   -3.5630   -2.8980 C   0  0  0  0  0  0
   15.8900   -3.3760   -4.0840 O   0  5  0  0  0  0
   16.3600   -3.1070   -2.0000 O   0  0  0  0  0  0
   11.1820   -5.3730   -2.0120 N   0  0  0  0  0  0
    9.9280   -4.5650   -1.9220 C   0  0  2  0  0  0
   10.2570   -3.0710   -1.9650 C   0  0  0  0  0  0
   11.2550   -2.6320   -1.4250 O   0  0  0  0  0  0
    9.3070   -4.9390   -0.5750 C   0  0  0  0  0  0
    8.4690   -6.2080   -0.7360 C   0  0  0  0  0  0
    9.3890   -7.3930   -1.0410 C   0  0  0  0  0  0
    7.7030   -6.4800    0.5610 C   0  0  0  0  0  0
    9.4240   -2.2900   -2.6040 N   0  0  0  0  0  0
    9.6800   -0.8210   -2.6900 C   0  0  1  0  0  0
    9.9860   -0.5560   -4.1640 C   0  0  0  0  0  0
   11.3370   -1.1760   -4.5230 C   0  0  0  0  0  0
   11.9450   -0.5000   -5.5200 F   0  0  0  0  0  0
   11.2050   -2.4620   -4.9120 F   0  0  0  0  0  0
    8.4410   -0.0370   -2.2490 C   0  0  0  0  0  0
    8.2060    1.0680   -2.7010 O   0  0  0  0  0  0
    7.6520   -0.5980   -1.3680 N   0  0  0  0  0  0
    6.4280    0.1170   -0.8920 C   0  0  0  0  0  0
    6.8390    0.7790    0.4280 C   0  0  0  0  0  0
    8.0270    1.6870    0.1960 C   0  0  0  0  0  0
    9.3450    1.1770    0.3430 C   0  0  0  0  0  0
    9.5560   -0.2640    0.7390 Cl  0  0  0  0  0  0
    7.8280    3.0430   -0.1770 C   0  0  0  0  0  0
   10.4620    2.0240    0.1170 C   0  0  0  0  0  0
    8.9460    3.8920   -0.4030 C   0  0  0  0  0  0
   10.2680    3.3850   -0.2560 C   0  0  0  0  0  0
   11.3650    4.2140   -0.4770 C   0  0  0  0  0  0
   11.1580    5.3750   -0.7960 O   0  0  0  0  0  0
   12.4840    3.7440   -0.3310 O   0  5  0  0  0  0
   15.2149   -8.4780   -4.7904 H   0  0  0  0  0  0
   16.1238   -8.8158   -3.2783 H   0  0  0  0  0  0
   14.4231  -10.9518   -4.6557 H   0  0  0  0  0  0
   16.1020  -10.1022   -6.2860 H   0  0  0  0  0  0
   16.5302  -11.7501   -5.7133 H   0  0  0  0  0  0
   17.3994  -10.3190   -5.0627 H   0  0  0  0  0  0
   15.1077  -11.3162   -2.2875 H   0  0  0  0  0  0
   16.8217  -11.0246   -2.7391 H   0  0  0  0  0  0
   15.9526  -12.4556   -3.3897 H   0  0  0  0  0  0
   12.7257   -7.1431   -5.2719 H   0  0  0  0  0  0
   13.1646   -6.8387   -2.1814 H   0  0  0  0  0  0
   15.1674   -6.1535   -3.6006 H   0  0  0  0  0  0
   14.0942   -5.0650   -4.5441 H   0  0  0  0  0  0
   13.5666   -3.7892   -2.4716 H   0  0  0  0  0  0
   14.6402   -4.8774   -1.5284 H   0  0  0  0  0  0
   11.6089   -5.8286   -1.1064 H   0  0  0  0  0  0
    9.2583   -4.7822   -2.7672 H   0  0  0  0  0  0
   10.1057   -5.1173    0.1601 H   0  0  0  0  0  0
    8.6648   -4.1168   -0.2264 H   0  0  0  0  0  0
    7.7570   -6.0731   -1.5636 H   0  0  0  0  0  0
    9.9402   -7.1989   -1.9729 H   0  0  0  0  0  0
    8.7857   -8.3057   -1.1551 H   0  0  0  0  0  0
   10.1021   -7.5258   -0.2141 H   0  0  0  0  0  0
    7.0415   -5.6292    0.7814 H   0  0  0  0  0  0
    8.4168   -6.6132    1.3873 H   0  0  0  0  0  0
    7.1003   -7.3930    0.4463 H   0  0  0  0  0  0
    8.5308   -2.7214   -3.0795 H   0  0  0  0  0  0
   10.5094   -0.5280   -2.0294 H   0  0  0  0  0  0
    9.1991   -1.0044   -4.7882 H   0  0  0  0  0  0
   10.0214    0.5289   -4.3419 H   0  0  0  0  0  0
   12.0504   -1.1842   -3.6857 H   0  0  0  0  0  0
    7.8914   -1.5982   -0.9777 H   0  0  0  0  0  0
    6.1242    0.8627   -1.6415 H   0  0  0  0  0  0
    5.6138   -0.6079   -0.7450 H   0  0  0  0  0  0
    5.9984    1.3715    0.8184 H   0  0  0  0  0  0
    7.1109    0.0028    1.1584 H   0  0  0  0  0  0
    6.8166    3.4334   -0.2902 H   0  0  0  0  0  0
   11.4724    1.6310    0.2294 H   0  0  0  0  0  0
    8.7906    4.9322   -0.6891 H   0  0  0  0  0  0
  1  2  2  0  0  0
  1  3  1  0  0  0
  1  8  1  0  0  0
  3  4  1  0  0  0
  4  5  1  0  0  0
  4 46  1  0  0  0
  4 47  1  0  0  0
  5  6  1  0  0  0
  5  7  1  0  0  0
  5 48  1  0  0  0
  6 49  1  0  0  0
  6 50  1  0  0  0
  6 51  1  0  0  0
  7 52  1  0  0  0
  7 53  1  0  0  0
  7 54  1  0  0  0
  8  9  1  0  0  0
  8 55  1  0  0  0
  9 10  1  0  0  0
  9 12  1  0  0  0
  9 56  1  0  0  0
 10 11  2  0  0  0
 10 17  1  0  0  0
 12 13  1  0  0  0
 12 57  1  0  0  0
 12 58  1  0  0  0
 13 14  1  0  0  0
 13 59  1  0  0  0
 13 60  1  0  0  0
 14 15  1  0  0  0
 14 16  2  0  0  0
 17 18  1  0  0  0
 17 61  1  0  0  0
 18 19  1  0  0  0
 18 21  1  0  0  0
 18 62  1  0  0  0
 19 20  2  0  0  0
 19 25  1  0  0  0
 21 22  1  0  0  0
 21 63  1  0  0  0
 21 64  1  0  0  0
 22 23  1  0  0  0
 22 24  1  0  0  0
 22 65  1  0  0  0
 23 66  1  0  0  0
 23 67  1  0  0  0
 23 68  1  0  0  0
 24 69  1  0  0  0
 24 70  1  0  0  0
 24 71  1  0  0  0
 25 26  1  0  0  0
 25 72  1  0  0  0
 26 27  1  0  0  0
 26 31  1  0  0  0
 26 73  1  0  0  0
 27 28  1  0  0  0
 27 74  1  0  0  0
 27 75  1  0  0  0
 28 29  1  0  0  0
 28 30  1  0  0  0
 28 76  1  0  0  0
 31 32  2  0  0  0
 31 33  1  0  0  0
 33 34  1  0  0  0
 33 77  1  0  0  0
 34 35  1  0  0  0
 34 78  1  0  0  0
 34 79  1  0  0  0
 35 36  1  0  0  0
 35 80  1  0  0  0
 35 81  1  0  0  0
 36 37  2  0  0  0
 36 39  1  0  0  0
 37 38  1  0  0  0
 37 40  1  0  0  0
 39 41  2  0  0  0
 39 82  1  0  0  0
 40 42  2  0  0  0
 40 83  1  0  0  0
 41 42  1  0  0  0
 41 84  1  0  0  0
 42 43  1  0  0  0
 43 44  2  0  0  0
 43 45  1  0  0  0
M  CHG  2  15  -1  45  -1
M  END
> <s_m_source_file>
../2k1q_ligand.sdf

> <i_m_source_file_index>
1

> <s_epik_input>
W0NIM11bQ0hdKFtDSDNdKVtDSDJdT0MoPU8pW05IXVtDQEBIXShbQ0gyXVtDSDJdQyg9TylbT0hdKUMoPU8pW05IXVtDQEBIXShbQ0gyXVtDSF0oW0NIM10pW0NIM10pQyg9TylbTkhdW0NAQEhdKFtDSDJdW0NIXShGKUYpQyg9TylbTkhdW0NIMl1bQ0gyXWMxYyhDbClbY0hdYyhbY0hdW2NIXTEpQyg9TylbT0hd

> <s_epik_cmdline>
J2VwaWtfYXBwJywgJy1pbWFlJywgJ2xpZ2FuZF9wcm8ubWFlJywgJy1vbWFlJywgJ2xpZ2FuZF9wcmVwLm1hZScsICctbXMnLCAnMScsICctcGgnLCAnNycsICctcGh0JywgJzAuNScsICctbnQn

> <r_lp_tautomer_probability>
1

> <r_epik_Ionization_Penalty>
  0.0022

> <r_epik_Ionization_Penalty_Charging>
  0.0022

> <r_epik_Ionization_Penalty_Neutral>
  0.0000

> <r_epik_State_Penalty>
 -0.0000

> <r_epik_Charging_Adjusted_Penalty>
0.00223213983203253

> <i_epik_Tot_Q>
-2

> <i_epik_Tot_abs_Q>
2

> <s_epik_Chemistry_Notes>
This compound has an ester and may undergo hydrolysis at high or low pH.

$$$$
