2k2r_ligand
                    3D
 Schrodinger Suite 2020-3.
155154  0  0  1  0            999 V2000
   17.8740   -2.6230   -3.7930 N   0  3  0  0  0  0
   17.5650   -1.2280   -4.2170 C   0  0  2  0  0  0
   17.6790   -0.2920   -3.0120 C   0  0  0  0  0  0
   16.9440    0.6670   -2.8860 O   0  0  0  0  0  0
   16.1420   -1.1690   -4.7750 C   0  0  0  0  0  0
   15.1530   -1.6160   -3.6970 C   0  0  0  0  0  0
   15.1440   -2.7940   -3.3800 O   0  0  0  0  0  0
   14.4210   -0.7720   -3.2070 O   0  0  0  0  0  0
   18.5940   -0.5650   -2.1230 N   0  0  0  0  0  0
   18.7550    0.3060   -0.9240 C   0  0  2  0  0  0
   19.2680    1.6810   -1.3570 C   0  0  0  0  0  0
   18.6010    2.6860   -1.2080 O   0  0  0  0  0  0
   19.7620   -0.3460    0.0430 C   0  0  0  0  0  0
   19.5100    0.1200    1.4900 C   0  0  0  0  0  0
   19.4620    1.6500    1.5470 C   0  0  0  0  0  0
   18.1860   -0.4630    2.0260 C   0  0  0  0  0  0
   20.4570    1.7230   -1.8800 N   0  0  0  0  0  0
   21.0490    3.0190   -2.3190 C   0  0  2  0  0  0
   20.0130    3.8490   -3.0830 C   0  0  0  0  0  0
   19.9730    5.0540   -2.9670 O   0  0  0  0  0  0
   22.2470    2.7440   -3.2290 C   0  0  0  0  0  0
   22.8070    4.0690   -3.7520 C   0  0  0  0  0  0
   23.5450    4.7070   -3.0210 O   0  0  0  0  0  0
   22.4880    4.4210   -4.8760 O   0  0  0  0  0  0
   19.1860    3.2230   -3.8730 N   0  0  0  0  0  0
   18.1710    3.9950   -4.6510 C   0  0  2  0  0  0
   17.0520    4.4930   -3.7280 C   0  0  0  0  0  0
   16.6670    5.6460   -3.7700 O   0  0  0  0  0  0
   17.5750    3.0930   -5.7330 C   0  0  0  0  0  0
   16.5200    3.6330   -2.9050 N   0  0  0  0  0  0
   15.4210    4.0470   -1.9910 C   0  0  2  0  0  0
   15.7950    5.3510   -1.2710 C   0  0  0  0  0  0
   14.9690    6.2240   -1.0840 O   0  0  0  0  0  0
   15.1960    2.9260   -0.9600 C   0  0  0  0  0  0
   14.2340    1.8570   -1.5240 C   0  0  0  0  0  0
   14.4880    0.5150   -0.8300 C   0  0  0  0  0  0
   12.7790    2.2760   -1.2740 C   0  0  0  0  0  0
   17.0240    5.4880   -0.8530 N   0  0  0  0  0  0
   17.4300    6.7310   -0.1300 C   0  0  2  0  0  0
   17.8120    7.8170   -1.1400 C   0  0  0  0  0  0
   17.5600    8.9870   -0.9300 O   0  0  0  0  0  0
   18.6230    6.4110    0.7790 C   0  0  0  0  0  0
   18.9430    7.6130    1.6930 C   0  0  0  0  0  0
   18.0060    7.6290    2.9090 C   0  0  0  0  0  0
   20.3900    7.5090    2.1870 C   0  0  0  0  0  0
   18.4110    7.4420   -2.2340 N   0  0  0  0  0  0
   18.8000    8.4550   -3.2540 C   0  0  2  0  0  0
   17.5500    9.1990   -3.7220 C   0  0  0  0  0  0
   17.6310   10.2560   -4.3160 O   0  0  0  0  0  0
   19.4550    7.7580   -4.4480 C   0  0  0  0  0  0
   16.3910    8.6510   -3.4520 N   0  0  0  0  0  0
   15.1140    9.3110   -3.8700 C   0  0  2  0  0  0
   14.4050    9.8790   -2.6370 C   0  0  0  0  0  0
   13.6700   10.8430   -2.7210 O   0  0  0  0  0  0
   14.2100    8.2740   -4.5400 C   0  0  0  0  0  0
   13.0460    8.9800   -5.2370 C   0  0  0  0  0  0
   12.5340    9.9340   -4.6730 O   0  0  0  0  0  0
   12.6850    8.5550   -6.3220 O   0  0  0  0  0  0
   14.6120    9.2840   -1.4920 N   0  0  0  0  0  0
   13.9410    9.7860   -0.2560 C   0  0  2  0  0  0
   14.6880   11.0110    0.2880 C   0  0  0  0  0  0
   14.2470   11.6540    1.2190 O   0  0  0  0  0  0
   13.9350    8.6700    0.8010 C   0  0  0  0  0  0
   12.8640    8.9550    1.8770 C   0  0  0  0  0  0
   11.4950    8.4380    1.4150 C   0  0  0  0  0  0
   13.2440    8.2460    3.1820 C   0  0  0  0  0  0
   15.8170   11.3400   -0.2810 N   0  0  0  0  0  0
   16.5890   12.5160    0.2050 C   0  0  2  0  0  0
   15.6470   13.7090    0.4200 C   0  0  0  0  0  0
   15.9410   14.5230    1.2800 O   0  0  0  0  0  0
   17.6860   12.8750   -0.8090 C   0  0  0  0  0  0
   17.2880   12.3300   -2.1610 C   0  0  0  0  0  0
   18.1080   12.9960   -3.2680 C   0  0  0  0  0  0
   19.0530   13.6940   -2.9410 O   0  0  0  0  0  0
   17.7770   12.7940   -4.4250 O   0  0  0  0  0  0
   14.6510   13.7860   -0.2800 O   0  0  0  0  0  0
   18.8972   -2.6661   -3.3916 H   0  0  0  0  0  0
   17.7911   -3.2963   -4.6589 H   0  0  0  0  0  0
   17.1616   -2.9362   -3.0155 H   0  0  0  0  0  0
   18.2892   -0.9383   -4.9926 H   0  0  0  0  0  0
   15.9104   -0.1379   -5.0804 H   0  0  0  0  0  0
   16.0617   -1.8362   -5.6459 H   0  0  0  0  0  0
   13.6971   -1.0564   -2.4291 H   0  0  0  0  0  0
   19.2472   -1.4395   -2.2593 H   0  0  0  0  0  0
   17.7716    0.4131   -0.4428 H   0  0  0  0  0  0
   19.6568   -1.4401   -0.0009 H   0  0  0  0  0  0
   20.7848   -0.0640   -0.2476 H   0  0  0  0  0  0
   20.3378   -0.2355    2.1212 H   0  0  0  0  0  0
   20.4077    2.0610    1.1640 H   0  0  0  0  0  0
   19.3164    1.9737    2.5882 H   0  0  0  0  0  0
   18.6274    2.0139    0.9298 H   0  0  0  0  0  0
   18.2251   -1.5615    1.9831 H   0  0  0  0  0  0
   17.3499   -0.1015    1.4093 H   0  0  0  0  0  0
   18.0390   -0.1417    3.0677 H   0  0  0  0  0  0
   21.0275    0.7899   -1.9974 H   0  0  0  0  0  0
   21.3637    3.5613   -1.4152 H   0  0  0  0  0  0
   23.0264    2.2163   -2.6597 H   0  0  0  0  0  0
   21.9276    2.1211   -4.0775 H   0  0  0  0  0  0
   22.8710    5.3674   -5.2854 H   0  0  0  0  0  0
   19.2348    2.1281   -3.9671 H   0  0  0  0  0  0
   18.6836    4.8562   -5.1043 H   0  0  0  0  0  0
   18.3773    2.7356   -6.3953 H   0  0  0  0  0  0
   16.8403    3.6624   -6.3213 H   0  0  0  0  0  0
   17.0788    2.2324   -5.2606 H   0  0  0  0  0  0
   16.8879    2.5965   -2.8887 H   0  0  0  0  0  0
   14.5180    4.2141   -2.5966 H   0  0  0  0  0  0
   16.1582    2.4498   -0.7203 H   0  0  0  0  0  0
   14.7595    3.3520   -0.0445 H   0  0  0  0  0  0
   14.4054    1.7523   -2.6055 H   0  0  0  0  0  0
   15.5290    0.2043   -1.0025 H   0  0  0  0  0  0
   13.8059   -0.2445   -1.2397 H   0  0  0  0  0  0
   14.3114    0.6218    0.2505 H   0  0  0  0  0  0
   12.5848    3.2394   -1.7682 H   0  0  0  0  0  0
   12.6074    2.3776   -0.1922 H   0  0  0  0  0  0
   12.1019    1.5113   -1.6824 H   0  0  0  0  0  0
   17.7602    4.6906   -1.0321 H   0  0  0  0  0  0
   16.5771    7.0790    0.4712 H   0  0  0  0  0  0
   18.3831    5.5393    1.4055 H   0  0  0  0  0  0
   19.5050    6.1868    0.1611 H   0  0  0  0  0  0
   18.8062    8.5419    1.1198 H   0  0  0  0  0  0
   16.9631    7.7035    2.5673 H   0  0  0  0  0  0
   18.2460    8.4935    3.5454 H   0  0  0  0  0  0
   18.1376    6.7015    3.4855 H   0  0  0  0  0  0
   21.0720    7.4966    1.3241 H   0  0  0  0  0  0
   20.5141    6.5819    2.7658 H   0  0  0  0  0  0
   20.6224    8.3739    2.8257 H   0  0  0  0  0  0
   18.6296    6.3775   -2.4047 H   0  0  0  0  0  0
   19.5116    9.1536   -2.7897 H   0  0  0  0  0  0
   20.3549    7.2223   -4.1114 H   0  0  0  0  0  0
   19.7354    8.5083   -5.2019 H   0  0  0  0  0  0
   18.7457    7.0423   -4.8891 H   0  0  0  0  0  0
   16.3639    7.6936   -2.9109 H   0  0  0  0  0  0
   15.3551   10.1211   -4.5739 H   0  0  0  0  0  0
   14.7904    7.7069   -5.2827 H   0  0  0  0  0  0
   13.8157    7.5848   -3.7787 H   0  0  0  0  0  0
   11.6946   10.4661   -5.1445 H   0  0  0  0  0  0
   15.2812    8.4126   -1.4393 H   0  0  0  0  0  0
   12.9127   10.0722   -0.5218 H   0  0  0  0  0  0
   13.7103    7.7080    0.3172 H   0  0  0  0  0  0
   14.9223    8.6162    1.2830 H   0  0  0  0  0  0
   12.8051   10.0406    2.0444 H   0  0  0  0  0  0
   11.2107    8.9397    0.4783 H   0  0  0  0  0  0
   10.7424    8.6514    2.1884 H   0  0  0  0  0  0
   11.5507    7.3523    1.2472 H   0  0  0  0  0  0
   14.2247    8.6083    3.5240 H   0  0  0  0  0  0
   13.2941    7.1609    3.0086 H   0  0  0  0  0  0
   12.4859    8.4600    3.9497 H   0  0  0  0  0  0
   16.1964   10.7429   -1.1233 H   0  0  0  0  0  0
   17.0494   12.2354    1.1638 H   0  0  0  0  0  0
   15.2896   15.3905    1.4619 H   0  0  0  0  0  0
   17.7925   13.9685   -0.8621 H   0  0  0  0  0  0
   18.6397   12.4287   -0.4908 H   0  0  0  0  0  0
   17.4673   11.2450   -2.1862 H   0  0  0  0  0  0
   16.2206   12.5294   -2.3370 H   0  0  0  0  0  0
   18.3427   13.2559   -5.2476 H   0  0  0  0  0  0
  1  2  1  0  0  0
  1 77  1  0  0  0
  1 78  1  0  0  0
  1 79  1  0  0  0
  2  3  1  0  0  0
  2  5  1  0  0  0
  2 80  1  0  0  0
  3  4  2  0  0  0
  3  9  1  0  0  0
  5  6  1  0  0  0
  5 81  1  0  0  0
  5 82  1  0  0  0
  6  7  2  0  0  0
  6  8  1  0  0  0
  8 83  1  0  0  0
  9 10  1  0  0  0
  9 84  1  0  0  0
 10 11  1  0  0  0
 10 13  1  0  0  0
 10 85  1  0  0  0
 11 12  2  0  0  0
 11 17  1  0  0  0
 13 14  1  0  0  0
 13 86  1  0  0  0
 13 87  1  0  0  0
 14 15  1  0  0  0
 14 16  1  0  0  0
 14 88  1  0  0  0
 15 89  1  0  0  0
 15 90  1  0  0  0
 15 91  1  0  0  0
 16 92  1  0  0  0
 16 93  1  0  0  0
 16 94  1  0  0  0
 17 18  1  0  0  0
 17 95  1  0  0  0
 18 19  1  0  0  0
 18 21  1  0  0  0
 18 96  1  0  0  0
 19 20  2  0  0  0
 19 25  1  0  0  0
 21 22  1  0  0  0
 21 97  1  0  0  0
 21 98  1  0  0  0
 22 23  2  0  0  0
 22 24  1  0  0  0
 24 99  1  0  0  0
 25 26  1  0  0  0
 25100  1  0  0  0
 26 27  1  0  0  0
 26 29  1  0  0  0
 26101  1  0  0  0
 27 28  2  0  0  0
 27 30  1  0  0  0
 29102  1  0  0  0
 29103  1  0  0  0
 29104  1  0  0  0
 30 31  1  0  0  0
 30105  1  0  0  0
 31 32  1  0  0  0
 31 34  1  0  0  0
 31106  1  0  0  0
 32 33  2  0  0  0
 32 38  1  0  0  0
 34 35  1  0  0  0
 34107  1  0  0  0
 34108  1  0  0  0
 35 36  1  0  0  0
 35 37  1  0  0  0
 35109  1  0  0  0
 36110  1  0  0  0
 36111  1  0  0  0
 36112  1  0  0  0
 37113  1  0  0  0
 37114  1  0  0  0
 37115  1  0  0  0
 38 39  1  0  0  0
 38116  1  0  0  0
 39 40  1  0  0  0
 39 42  1  0  0  0
 39117  1  0  0  0
 40 41  2  0  0  0
 40 46  1  0  0  0
 42 43  1  0  0  0
 42118  1  0  0  0
 42119  1  0  0  0
 43 44  1  0  0  0
 43 45  1  0  0  0
 43120  1  0  0  0
 44121  1  0  0  0
 44122  1  0  0  0
 44123  1  0  0  0
 45124  1  0  0  0
 45125  1  0  0  0
 45126  1  0  0  0
 46 47  1  0  0  0
 46127  1  0  0  0
 47 48  1  0  0  0
 47 50  1  0  0  0
 47128  1  0  0  0
 48 49  2  0  0  0
 48 51  1  0  0  0
 50129  1  0  0  0
 50130  1  0  0  0
 50131  1  0  0  0
 51 52  1  0  0  0
 51132  1  0  0  0
 52 53  1  0  0  0
 52 55  1  0  0  0
 52133  1  0  0  0
 53 54  2  0  0  0
 53 59  1  0  0  0
 55 56  1  0  0  0
 55134  1  0  0  0
 55135  1  0  0  0
 56 57  1  0  0  0
 56 58  2  0  0  0
 57136  1  0  0  0
 59 60  1  0  0  0
 59137  1  0  0  0
 60 61  1  0  0  0
 60 63  1  0  0  0
 60138  1  0  0  0
 61 62  2  0  0  0
 61 67  1  0  0  0
 63 64  1  0  0  0
 63139  1  0  0  0
 63140  1  0  0  0
 64 65  1  0  0  0
 64 66  1  0  0  0
 64141  1  0  0  0
 65142  1  0  0  0
 65143  1  0  0  0
 65144  1  0  0  0
 66145  1  0  0  0
 66146  1  0  0  0
 66147  1  0  0  0
 67 68  1  0  0  0
 67148  1  0  0  0
 68 69  1  0  0  0
 68 71  1  0  0  0
 68149  1  0  0  0
 69 70  1  0  0  0
 69 76  2  0  0  0
 70150  1  0  0  0
 71 72  1  0  0  0
 71151  1  0  0  0
 71152  1  0  0  0
 72 73  1  0  0  0
 72153  1  0  0  0
 72154  1  0  0  0
 73 74  2  0  0  0
 73 75  1  0  0  0
 75155  1  0  0  0
M  CHG  1   1   1
M  END
> <s_m_source_file>
../2k2r_ligand.sdf

> <i_m_source_file_index>
1

> <s_epik_input>
Tz1DKFtPSF0pW0NIMl1bQ0BIXShbTkgzK10pQyg9TylbTkhdW0NAQEhdKFtDSDJdW0NIXShbQ0gzXSlbQ0gzXSlDKD1PKVtOSF1bQ0BASF0oW0NIMl1DKD1PKVtPSF0pQyg9TylbTkhdW0NAQEhdKFtDSDNdKUMoPU8pW05IXVtDQEBIXShbQ0gyXVtDSF0oW0NIM10pW0NIM10pQyg9TylbTkhdW0NAQEhdKFtDSDJdW0NIXShbQ0gzXSlbQ0gzXSlDKD1PKVtOSF1bQ0BASF0oW0NIM10pQyg9TylbTkhdW0NAQEhdKFtDSDJdQyg9TylbT0hdKUMoPU8pW05IXVtDQEBIXShbQ0gyXVtDSF0oW0NIM10pW0NIM10pQyg9TylbTkhdW0NASF0oQyg9TylbT0hdKVtDSDJdW0NIMl1DKD1PKVtPSF0=

> <s_epik_cmdline>
J2VwaWtfYXBwJywgJy1pbWFlJywgJ2xpZ2FuZF9wcm8ubWFlJywgJy1vbWFlJywgJ2xpZ2FuZF9wcmVwLm1hZScsICctbXMnLCAnMScsICctcGgnLCAnNycsICctcGh0JywgJzAuNScsICctbnQn

> <s_epik_pKa_notes>
Molecule size exceeds maximum supported for generating protonation states

$$$$
