2k31_ligand
                    3D
 Schrodinger Suite 2020-3.
 34 37  0  0  1  0            999 V2000
    8.4850    1.8690    3.1570 P   0  0  2  0  0  0
    9.4770    0.9340    3.7960 O   0  0  0  0  0  0
    7.9410    1.6180    1.7690 O   0  5  0  0  0  0
    8.9810    3.4700    3.1840 O   0  0  0  0  0  0
    7.9890    4.4570    2.6770 C   0  0  0  0  0  0
    6.6940    4.3960    3.5760 C   0  0  1  0  0  0
    5.6220    5.1880    3.3240 O   0  0  0  0  0  0
    6.1290    3.0210    3.6410 C   0  0  1  0  0  0
    7.1830    2.0780    4.1460 O   0  0  0  0  0  0
    4.9340    3.2760    4.5210 C   0  0  1  0  0  0
    5.1630    2.8610    5.8860 O   0  0  0  0  0  0
    4.6600    4.7780    4.2980 C   0  0  2  0  0  0
    3.3160    5.0870    3.7620 N   0  0  0  0  0  0
    2.7840    4.9160    2.4930 C   0  0  0  0  0  0
    1.4850    5.3540    2.4750 N   0  0  0  0  0  0
    1.1960    5.7980    3.7240 C   0  0  0  0  0  0
    0.0300    6.4220    4.5420 C   0  0  0  0  0  0
   -1.0780    6.6490    3.9900 O   0  0  0  0  0  0
    0.1840    6.7860    6.0530 N   0  3  0  0  0  0
    1.4280    6.5800    6.8450 C   0  0  0  0  0  0
    1.5650    6.8940    8.1570 N   0  0  0  0  0  0
    2.5140    5.9850    6.0310 N   0  0  0  0  0  0
    2.4080    5.6140    4.5530 C   0  0  0  0  0  0
    8.4220    5.4673    2.7201 H   0  0  0  0  0  0
    7.7287    4.2138    1.6363 H   0  0  0  0  0  0
    6.9944    4.8544    4.5297 H   0  0  0  0  0  0
    5.8276    2.5326    2.7026 H   0  0  0  0  0  0
    4.0576    2.6419    4.3213 H   0  0  0  0  0  0
    5.3641    1.8036    6.1130 H   0  0  0  0  0  0
    4.7387    5.3483    5.2353 H   0  0  0  0  0  0
    3.3174    4.4971    1.6397 H   0  0  0  0  0  0
    0.7209    7.3341    8.7083 H   0  0  0  0  0  0
    2.5202    6.7087    8.6701 H   0  0  0  0  0  0
   -0.6618    7.2258    6.6018 H   0  0  0  0  0  0
  1  2  2  0  0  0
  1  3  1  0  0  0
  1  4  1  0  0  0
  1  9  1  0  0  0
  4  5  1  0  0  0
  5  6  1  0  0  0
  5 24  1  0  0  0
  5 25  1  0  0  0
  6  7  1  0  0  0
  6  8  1  0  0  0
  6 26  1  0  0  0
  7 12  1  0  0  0
  8  9  1  0  0  0
  8 10  1  0  0  0
  8 27  1  0  0  0
 10 11  1  0  0  0
 10 12  1  0  0  0
 10 28  1  0  0  0
 11 29  1  0  0  0
 12 13  1  0  0  0
 12 30  1  0  0  0
 13 14  1  0  0  0
 13 23  1  0  0  0
 14 15  2  0  0  0
 14 31  1  0  0  0
 15 16  1  0  0  0
 16 17  1  0  0  0
 16 23  2  0  0  0
 17 18  2  0  0  0
 17 19  1  0  0  0
 19 20  1  0  0  0
 19 34  1  0  0  0
 20 21  1  0  0  0
 20 22  2  0  0  0
 21 32  1  0  0  0
 21 33  1  0  0  0
 22 23  1  0  0  0
M  CHG  2   3  -1  19   1
M  END
> <s_m_source_file>
../2k31_ligand.sdf

> <i_m_source_file_index>
1

> <s_epik_input>
W0NIMl0xT1tQQF0oPU8pKFtPSF0pT1tDQEhdKFtDQEBIXTEyKVtDQEBIXShbT0hdKVtDQEBIXShPMiluKFtjSF1uMyljKGMzNClbbkhdYyg9TlxbSF0pXFtuSF1jND1P

> <s_epik_cmdline>
J2VwaWtfYXBwJywgJy1pbWFlJywgJ2xpZ2FuZF9wcm8ubWFlJywgJy1vbWFlJywgJ2xpZ2FuZF9wcmVwLm1hZScsICctbXMnLCAnMScsICctcGgnLCAnNycsICctcGh0JywgJzAuNScsICctbnQn

> <r_lp_tautomer_probability>
4.999975000125e-06

> <r_epik_Ionization_Penalty>
  2.3888

> <r_epik_Ionization_Penalty_Charging>
  2.3887

> <r_epik_Ionization_Penalty_Neutral>
  0.0001

> <r_epik_State_Penalty>
  0.2212

> <r_epik_Charging_Adjusted_Penalty>
2.60994165546953

> <i_epik_Tot_Q>
0

> <i_epik_Tot_abs_Q>
2

> <s_epik_Chemistry_Notes>
This compound has an imine and may undergo hydrolysis. This compound contains an acetal/aminal-like group ( X-CH(R)-Y where X, Y are N, S, or O) that may be acid/base labile, releasing an aldehyde.

$$$$
