2k3w_ligand
                    3D
 Schrodinger Suite 2020-3.
192195  0  0  1  0            999 V2000
   16.8720    3.5370   -7.3960 N   0  3  0  0  0  0
   15.6230    3.2370   -6.6890 C   0  0  2  0  0  0
   14.4330    3.6800   -7.5160 C   0  0  0  0  0  0
   14.2350    4.8740   -7.7490 O   0  0  0  0  0  0
   15.6000    3.9580   -5.3390 C   0  0  2  0  0  0
   16.7160    3.4030   -4.4730 C   0  0  0  0  0  0
   14.2570    3.7220   -4.6390 C   0  0  0  0  0  0
   16.8650    4.2490   -3.2240 C   0  0  0  0  0  0
   13.6320    2.7110   -7.9520 N   0  0  0  0  0  0
   12.4450    3.0080   -8.7540 C   0  0  2  0  0  0
   11.2160    2.3860   -8.1230 C   0  0  0  0  0  0
   11.0580    1.1630   -8.1230 O   0  0  0  0  0  0
   12.6150    2.4680  -10.1700 C   0  0  0  0  0  0
   13.7010    3.2660  -10.8900 C   0  0  0  0  0  0
   13.9330    2.6920  -12.2800 C   0  0  0  0  0  0
   13.2410    1.7510  -12.6400 O   0  0  0  0  0  0
   14.7980    3.2010  -12.9800 O   0  0  0  0  0  0
   10.3420    3.2290   -7.5770 N   0  0  0  0  0  0
    9.1280    2.7420   -6.9320 C   0  0  2  0  0  0
    7.9060    2.9660   -7.8230 C   0  0  0  0  0  0
    7.9410    3.7860   -8.7390 O   0  0  0  0  0  0
    8.9140    3.4670   -5.6020 C   0  0  0  0  0  0
   10.1640    3.2960   -4.7070 C   0  0  0  0  0  0
   10.3040    4.4820   -3.7510 C   0  0  0  0  0  0
   10.0460    1.9970   -3.8890 C   0  0  0  0  0  0
    6.8330    2.2630   -7.5610 N   0  0  0  0  0  0
    5.5710    2.4060   -8.3520 C   0  0  2  0  0  0
    4.6560    3.4810   -7.7740 C   0  0  0  0  0  0
    4.8510    3.9380   -6.6490 O   0  0  0  0  0  0
    4.9180    1.0170   -8.2600 C   0  0  0  0  0  0
    5.4890    0.4070   -7.0270 C   0  0  0  0  0  0
    6.9080    0.9370   -6.9230 C   0  0  0  0  0  0
    3.6490    3.8740   -8.5560 N   0  0  0  0  0  0
    2.6920    4.8920   -8.1180 C   0  0  2  0  0  0
    1.3010    4.2880   -7.9890 C   0  0  0  0  0  0
    0.7890    3.6700   -8.9220 O   0  0  0  0  0  0
    2.6580    6.0430   -9.1210 C   0  0  0  0  0  0
    1.7550    7.1550   -8.5830 C   0  0  0  0  0  0
    1.7730    8.3440   -9.5360 C   0  0  0  0  0  0
    2.6550    8.3910  -10.3700 O   0  0  0  0  0  0
    0.9050    9.1920   -9.4090 O   0  0  0  0  0  0
    0.7020    4.4630   -6.8200 N   0  0  0  0  0  0
   -0.6210    3.9160   -6.5720 C   0  0  2  0  0  0
   -1.5940    4.3190   -7.6870 C   0  0  0  0  0  0
   -1.5360    5.4400   -8.1940 O   0  0  0  0  0  0
   -1.1540    4.4110   -5.2080 C   0  0  0  0  0  0
   -0.7450    3.4410   -4.0840 C   0  0  0  0  0  0
   -0.5650    5.7900   -4.9120 C   0  0  0  0  0  0
   -2.4890    3.4350   -8.0570 N   0  0  0  0  0  0
   -3.4950    3.7220   -9.1210 C   0  0  2  0  0  0
   -4.6100    4.6330   -8.6160 C   0  0  0  0  0  0
   -5.3210    4.2940   -7.6690 O   0  0  0  0  0  0
   -4.0340    2.3320   -9.4870 C   0  0  0  0  0  0
   -3.8550    1.5000   -8.2590 C   0  0  0  0  0  0
   -2.6300    2.0590   -7.5420 C   0  0  0  0  0  0
   -4.7640    5.7900   -9.2560 N   0  0  0  0  0  0
   -5.8000    6.7310   -8.8580 C   0  0  2  0  0  0
   -7.1340    6.3240   -9.4610 C   0  0  0  0  0  0
   -7.5320    6.8250  -10.5100 O   0  0  0  0  0  0
   -5.4330    8.1340   -9.3420 C   0  0  0  0  0  0
   -6.5140    9.0220   -9.0790 O   0  0  0  0  0  0
   -7.8270    5.4120   -8.7840 N   0  0  0  0  0  0
   -9.1230    4.9460   -9.2610 C   0  0  2  0  0  0
  -10.2400    5.8560   -8.7490 C   0  0  0  0  0  0
  -10.0400    6.6490   -7.8300 O   0  0  0  0  0  0
   -9.3710    3.5090   -8.7950 C   0  0  0  0  0  0
   -8.5770    2.5420   -9.6750 C   0  0  0  0  0  0
   -8.6860    1.1260   -9.1230 C   0  0  0  0  0  0
   -9.6370    0.4470   -9.4740 O   0  0  0  0  0  0
   -7.8190    0.7420   -8.3570 O   0  0  0  0  0  0
  -11.4300    5.7400   -9.3120 N   0  0  0  0  0  0
  -12.6100    6.5590   -8.8850 C   0  0  2  0  0  0
  -13.4400    5.8500   -7.8150 C   0  0  0  0  0  0
  -14.6600    5.7320   -7.9260 O   0  0  0  0  0  0
  -13.4100    6.7410  -10.1800 C   0  0  0  0  0  0
  -13.0200    5.5800  -11.0400 C   0  0  0  0  0  0
  -11.5700    5.2940  -10.7100 C   0  0  0  0  0  0
  -12.7700    5.3640   -6.7860 N   0  0  0  0  0  0
  -13.4400    4.6480   -5.7070 C   0  0  2  0  0  0
  -13.9000    5.6310   -4.6290 C   0  0  0  0  0  0
  -13.3300    6.7160   -4.4950 O   0  0  0  0  0  0
  -12.5000    3.5730   -5.0970 C   0  0  0  0  0  0
  -11.0900    3.7290   -5.6620 C   0  0  0  0  0  0
  -10.4500    5.0010   -5.0880 C   0  0  0  0  0  0
  -10.2600    2.5100   -5.2770 C   0  0  0  0  0  0
  -14.8900    5.2590   -3.8620 N   0  0  0  0  0  0
  -15.4200    6.1260   -2.7700 C   0  0  2  0  0  0
  -14.3300    6.9620   -2.1150 C   0  0  0  0  0  0
  -13.2500    6.4590   -1.8150 O   0  0  0  0  0  0
  -16.0100    5.1210   -1.7700 C   0  0  0  0  0  0
  -16.3700    3.9110   -2.5780 C   0  0  0  0  0  0
  -15.4300    3.8890   -3.7880 C   0  0  0  0  0  0
  -14.5487    8.2498   -1.8649 O   0  0  0  0  0  0
   17.7266    3.2106   -6.7851 H   0  0  0  0  0  0
   16.9412    4.6202   -7.5744 H   0  0  0  0  0  0
   16.8851    3.0052   -8.3588 H   0  0  0  0  0  0
   15.5962    2.1459   -6.5519 H   0  0  0  0  0  0
   15.7456    5.0374   -5.4932 H   0  0  0  0  0  0
   16.4770    2.3685   -4.1855 H   0  0  0  0  0  0
   17.6601    3.4179   -5.0374 H   0  0  0  0  0  0
   13.4435    4.1222   -5.2619 H   0  0  0  0  0  0
   14.2571    4.2316   -3.6642 H   0  0  0  0  0  0
   14.1066    2.6428   -4.4885 H   0  0  0  0  0  0
   17.6748    3.8425   -2.6003 H   0  0  0  0  0  0
   15.9227    4.2345   -2.6567 H   0  0  0  0  0  0
   17.1057    5.2839   -3.5087 H   0  0  0  0  0  0
   13.8776    1.6693   -7.6979 H   0  0  0  0  0  0
   12.3489    4.1037   -8.7668 H   0  0  0  0  0  0
   12.9061    1.4081  -10.1257 H   0  0  0  0  0  0
   11.6649    2.5648  -10.7159 H   0  0  0  0  0  0
   13.3857    4.3160  -10.9799 H   0  0  0  0  0  0
   14.6374    3.2123  -10.3153 H   0  0  0  0  0  0
   14.9897    2.8088  -13.9897 H   0  0  0  0  0  0
   10.5477    4.3088   -7.6181 H   0  0  0  0  0  0
    9.2944    1.6657   -6.7776 H   0  0  0  0  0  0
    8.7449    4.5374   -5.7910 H   0  0  0  0  0  0
    8.0382    3.0423   -5.0896 H   0  0  0  0  0  0
   11.0578    3.2538   -5.3468 H   0  0  0  0  0  0
   10.3887    5.4127   -4.3313 H   0  0  0  0  0  0
   11.2053    4.3513   -3.1341 H   0  0  0  0  0  0
    9.4187    4.5349   -3.1002 H   0  0  0  0  0  0
    9.9451    1.1411   -4.5726 H   0  0  0  0  0  0
    9.1610    2.0527   -3.2381 H   0  0  0  0  0  0
   10.9476    1.8691   -3.2719 H   0  0  0  0  0  0
    5.7866    2.7280   -9.3815 H   0  0  0  0  0  0
    3.8259    1.1291   -8.1905 H   0  0  0  0  0  0
    5.1702    0.4331   -9.1574 H   0  0  0  0  0  0
    4.8862    0.7063   -6.1569 H   0  0  0  0  0  0
    5.4780   -0.6889   -7.1211 H   0  0  0  0  0  0
    7.6287    0.3087   -7.4669 H   0  0  0  0  0  0
    7.2352    1.0504   -5.8789 H   0  0  0  0  0  0
    3.5468    3.4146   -9.5503 H   0  0  0  0  0  0
    3.0421    5.2443   -7.1365 H   0  0  0  0  0  0
    3.6762    6.4330   -9.2662 H   0  0  0  0  0  0
    2.2637    5.6806  -10.0818 H   0  0  0  0  0  0
    0.7253    6.7790   -8.4913 H   0  0  0  0  0  0
    2.1175    7.4760   -7.5953 H   0  0  0  0  0  0
    0.8861   10.0643  -10.0788 H   0  0  0  0  0  0
    1.2190    5.0306   -6.0323 H   0  0  0  0  0  0
   -0.4828    2.8247   -6.5728 H   0  0  0  0  0  0
   -2.2515    4.4727   -5.2481 H   0  0  0  0  0  0
   -1.1647    2.4450   -4.2885 H   0  0  0  0  0  0
   -1.1302    3.8108   -3.1223 H   0  0  0  0  0  0
    0.3520    3.3744   -4.0384 H   0  0  0  0  0  0
   -0.8521    6.4903   -5.7102 H   0  0  0  0  0  0
    0.5316    5.7178   -4.8644 H   0  0  0  0  0  0
   -0.9507    6.1543   -3.9484 H   0  0  0  0  0  0
   -3.0400    4.2599   -9.9658 H   0  0  0  0  0  0
   -5.0946    2.4122   -9.7675 H   0  0  0  0  0  0
   -3.4604    1.9276  -10.3340 H   0  0  0  0  0  0
   -4.7530    1.5788   -7.6286 H   0  0  0  0  0  0
   -3.7002    0.4497   -8.5470 H   0  0  0  0  0  0
   -1.7218    1.4846   -7.7772 H   0  0  0  0  0  0
   -2.7731    2.0884   -6.4517 H   0  0  0  0  0  0
   -4.0955    6.0307  -10.0957 H   0  0  0  0  0  0
   -5.8510    6.6903   -7.7599 H   0  0  0  0  0  0
   -4.5344    8.4815   -8.8113 H   0  0  0  0  0  0
   -5.2332    8.1083  -10.4234 H   0  0  0  0  0  0
   -6.4349   10.0828   -9.3589 H   0  0  0  0  0  0
   -7.4071    5.0090   -7.8505 H   0  0  0  0  0  0
   -9.0709    4.9920  -10.3588 H   0  0  0  0  0  0
   -9.0478    3.4018   -7.7490 H   0  0  0  0  0  0
  -10.4437    3.2783   -8.8728 H   0  0  0  0  0  0
   -8.9791    2.5634  -10.6986 H   0  0  0  0  0  0
   -7.5194    2.8441   -9.6902 H   0  0  0  0  0  0
   -9.7488   -0.5800   -9.0961 H   0  0  0  0  0  0
  -12.2931    7.5070   -8.4258 H   0  0  0  0  0  0
  -14.4858    6.7339   -9.9505 H   0  0  0  0  0  0
  -13.1408    7.7006  -10.6455 H   0  0  0  0  0  0
  -13.6612    4.7177  -10.8048 H   0  0  0  0  0  0
  -13.1432    5.8504  -12.0991 H   0  0  0  0  0  0
  -10.8787    5.8644  -11.3478 H   0  0  0  0  0  0
  -11.3322    4.2222  -10.7785 H   0  0  0  0  0  0
  -11.6802    5.5104   -6.7554 H   0  0  0  0  0  0
  -14.3165    4.1724   -6.1712 H   0  0  0  0  0  0
  -12.4667    3.6927   -4.0040 H   0  0  0  0  0  0
  -12.8797    2.5708   -5.3446 H   0  0  0  0  0  0
  -11.1332    3.8031   -6.7587 H   0  0  0  0  0  0
  -11.0549    5.8753   -5.3703 H   0  0  0  0  0  0
   -9.4326    5.1134   -5.4909 H   0  0  0  0  0  0
  -10.4040    4.9256   -3.9916 H   0  0  0  0  0  0
  -10.7253    1.6037   -5.6920 H   0  0  0  0  0  0
  -10.2136    2.4294   -4.1809 H   0  0  0  0  0  0
   -9.2422    2.6172   -5.6802 H   0  0  0  0  0  0
  -16.1437    6.8539   -3.1656 H   0  0  0  0  0  0
  -15.2579    4.8817   -1.0038 H   0  0  0  0  0  0
  -16.8967    5.5598   -1.2891 H   0  0  0  0  0  0
  -16.2372    3.0077   -1.9645 H   0  0  0  0  0  0
  -17.4191    3.9842   -2.9005 H   0  0  0  0  0  0
  -15.9663    3.6555   -4.7196 H   0  0  0  0  0  0
  -14.6035    3.1759   -3.6521 H   0  0  0  0  0  0
  -13.7646    8.8591   -1.3917 H   0  0  0  0  0  0
  1  2  1  0  0  0
  1 94  1  0  0  0
  1 95  1  0  0  0
  1 96  1  0  0  0
  2  5  1  0  0  0
  2  3  1  0  0  0
  2 97  1  0  0  0
  3  4  2  0  0  0
  3  9  1  0  0  0
  5  7  1  0  0  0
  5  6  1  0  0  0
  5 98  1  0  0  0
  6  8  1  0  0  0
  6 99  1  0  0  0
  6100  1  0  0  0
  7101  1  0  0  0
  7102  1  0  0  0
  7103  1  0  0  0
  8104  1  0  0  0
  8105  1  0  0  0
  8106  1  0  0  0
  9 10  1  0  0  0
  9107  1  0  0  0
 10 13  1  0  0  0
 10 11  1  0  0  0
 10108  1  0  0  0
 11 12  2  0  0  0
 11 18  1  0  0  0
 13 14  1  0  0  0
 13109  1  0  0  0
 13110  1  0  0  0
 14 15  1  0  0  0
 14111  1  0  0  0
 14112  1  0  0  0
 15 17  1  0  0  0
 15 16  2  0  0  0
 17113  1  0  0  0
 18 19  1  0  0  0
 18114  1  0  0  0
 19 22  1  0  0  0
 19 20  1  0  0  0
 19115  1  0  0  0
 20 21  2  0  0  0
 20 26  1  0  0  0
 22 23  1  0  0  0
 22116  1  0  0  0
 22117  1  0  0  0
 23 24  1  0  0  0
 23 25  1  0  0  0
 23118  1  0  0  0
 24119  1  0  0  0
 24120  1  0  0  0
 24121  1  0  0  0
 25122  1  0  0  0
 25123  1  0  0  0
 25124  1  0  0  0
 26 27  1  0  0  0
 26 32  1  0  0  0
 27 28  1  0  0  0
 27 30  1  0  0  0
 27125  1  0  0  0
 28 29  2  0  0  0
 28 33  1  0  0  0
 30 31  1  0  0  0
 30126  1  0  0  0
 30127  1  0  0  0
 31 32  1  0  0  0
 31128  1  0  0  0
 31129  1  0  0  0
 32130  1  0  0  0
 32131  1  0  0  0
 33 34  1  0  0  0
 33132  1  0  0  0
 34 37  1  0  0  0
 34 35  1  0  0  0
 34133  1  0  0  0
 35 36  2  0  0  0
 35 42  1  0  0  0
 37 38  1  0  0  0
 37134  1  0  0  0
 37135  1  0  0  0
 38 39  1  0  0  0
 38136  1  0  0  0
 38137  1  0  0  0
 39 41  1  0  0  0
 39 40  2  0  0  0
 41138  1  0  0  0
 42 43  1  0  0  0
 42139  1  0  0  0
 43 46  1  0  0  0
 43 44  1  0  0  0
 43140  1  0  0  0
 44 45  2  0  0  0
 44 49  1  0  0  0
 46 48  1  0  0  0
 46 47  1  0  0  0
 46141  1  0  0  0
 47142  1  0  0  0
 47143  1  0  0  0
 47144  1  0  0  0
 48145  1  0  0  0
 48146  1  0  0  0
 48147  1  0  0  0
 49 50  1  0  0  0
 49 55  1  0  0  0
 50 51  1  0  0  0
 50 53  1  0  0  0
 50148  1  0  0  0
 51 52  2  0  0  0
 51 56  1  0  0  0
 53 54  1  0  0  0
 53149  1  0  0  0
 53150  1  0  0  0
 54 55  1  0  0  0
 54151  1  0  0  0
 54152  1  0  0  0
 55153  1  0  0  0
 55154  1  0  0  0
 56 57  1  0  0  0
 56155  1  0  0  0
 57 60  1  0  0  0
 57 58  1  0  0  0
 57156  1  0  0  0
 58 59  2  0  0  0
 58 62  1  0  0  0
 60 61  1  0  0  0
 60157  1  0  0  0
 60158  1  0  0  0
 61159  1  0  0  0
 62 63  1  0  0  0
 62160  1  0  0  0
 63 66  1  0  0  0
 63 64  1  0  0  0
 63161  1  0  0  0
 64 65  2  0  0  0
 64 71  1  0  0  0
 66 67  1  0  0  0
 66162  1  0  0  0
 66163  1  0  0  0
 67 68  1  0  0  0
 67164  1  0  0  0
 67165  1  0  0  0
 68 70  2  0  0  0
 68 69  1  0  0  0
 69166  1  0  0  0
 71 72  1  0  0  0
 71 77  1  0  0  0
 72 73  1  0  0  0
 72 75  1  0  0  0
 72167  1  0  0  0
 73 74  2  0  0  0
 73 78  1  0  0  0
 75 76  1  0  0  0
 75168  1  0  0  0
 75169  1  0  0  0
 76 77  1  0  0  0
 76170  1  0  0  0
 76171  1  0  0  0
 77172  1  0  0  0
 77173  1  0  0  0
 78 79  1  0  0  0
 78174  1  0  0  0
 79 82  1  0  0  0
 79 80  1  0  0  0
 79175  1  0  0  0
 80 81  2  0  0  0
 80 86  1  0  0  0
 82 83  1  0  0  0
 82176  1  0  0  0
 82177  1  0  0  0
 83 84  1  0  0  0
 83 85  1  0  0  0
 83178  1  0  0  0
 84179  1  0  0  0
 84180  1  0  0  0
 84181  1  0  0  0
 85182  1  0  0  0
 85183  1  0  0  0
 85184  1  0  0  0
 86 87  1  0  0  0
 86 92  1  0  0  0
 87 88  1  0  0  0
 87 90  1  0  0  0
 87185  1  0  0  0
 88 89  2  0  0  0
 88 93  1  0  0  0
 90 91  1  0  0  0
 90186  1  0  0  0
 90187  1  0  0  0
 91 92  1  0  0  0
 91188  1  0  0  0
 91189  1  0  0  0
 92190  1  0  0  0
 92191  1  0  0  0
 93192  1  0  0  0
M  CHG  1   1   1
M  END
> <s_m_source_file>
../2k3w_ligand.sdf

> <i_m_source_file_index>
1

> <s_epik_input>
W0NIM11bQ0gyXVtDQEhdKFtDSDNdKVtDQEhdKFtOSDMrXSlDKD1PKVtOSF1bQ0BASF0oW0NIMl1bQ0gyXUMoPU8pW09IXSlDKD1PKVtOSF1bQ0BASF0oW0NIMl1bQ0hdKFtDSDNdKVtDSDNdKUMoPU8pTjFbQ0BASF0oW0NIMl1bQ0gyXVtDSDJdMSlDKD1PKVtOSF1bQ0BASF0oW0NIMl1bQ0gyXUMoPU8pW09IXSlDKD1PKVtOSF1bQ0BASF0oW0NIXShbQ0gzXSlbQ0gzXSlDKD1PKU4yW0NAQEhdKFtDSDJdW0NIMl1bQ0gyXTIpQyg9TylbTkhdW0NAQEhdKFtDSDJdW09IXSlDKD1PKVtOSF1bQ0BASF0oW0NIMl1bQ0gyXUMoPU8pW09IXSlDKD1PKU4zW0NAQEhdKFtDSDJdW0NIMl1bQ0gyXTMpQyg9TylbTkhdW0NAQEhdKFtDSDJdW0NIXShbQ0gzXSlbQ0gzXSlDKD1PKU40W0NASF0oQyg9TylbT0hdKVtDSDJdW0NIMl1bQ0gyXTQ=

> <s_epik_cmdline>
J2VwaWtfYXBwJywgJy1pbWFlJywgJ2xpZ2FuZF9wcm8ubWFlJywgJy1vbWFlJywgJ2xpZ2FuZF9wcmVwLm1hZScsICctbXMnLCAnMScsICctcGgnLCAnNycsICctcGh0JywgJzAuNScsICctbnQn

> <s_epik_pKa_notes>
Molecule size exceeds maximum supported for generating protonation states

$$$$
