2k46_ligand
                    3D
 Schrodinger Suite 2020-3.
 45 46  0  0  1  0            999 V2000
  -16.1360   -6.4720   -3.2400 O   0  0  0  0  0  0
  -18.0500   -6.2190   -4.7560 C   0  0  2  0  0  0
  -18.7610   -5.5860   -3.6750 O   0  0  0  0  0  0
  -16.4940   -6.0750   -4.5570 C   0  0  1  0  0  0
  -16.0250   -4.5850   -4.8330 C   0  0  1  0  0  0
  -14.6040   -4.5310   -4.7880 O   0  0  0  0  0  0
  -16.5120   -4.0560   -6.2360 C   0  0  2  0  0  0
  -16.1710   -2.6790   -6.3640 O   0  0  0  0  0  0
  -18.0750   -4.2390   -6.3830 C   0  0  2  0  0  0
  -18.4470   -5.6600   -6.0810 O   0  0  0  0  0  0
  -18.6000   -3.9220   -7.7920 C   0  0  0  0  0  0
  -18.5180   -4.9100   -8.8080 O   0  0  0  0  0  0
  -22.4510   -5.4180   -2.5600 C   0  0  2  0  0  0
  -23.2030   -5.9040   -3.6620 O   0  0  0  0  0  0
  -21.0760   -4.9020   -3.1260 C   0  0  2  0  0  0
  -21.2240   -4.1290   -4.3120 O   0  0  0  0  0  0
  -20.0680   -6.1210   -3.3000 C   0  0  2  0  0  0
  -19.9310   -6.9870   -1.9810 C   0  0  2  0  0  0
  -19.0680   -8.0980   -2.2070 O   0  0  0  0  0  0
  -21.3690   -7.4490   -1.5280 C   0  0  2  0  0  0
  -22.2940   -6.2930   -1.3670 O   0  0  0  0  0  0
  -21.2640   -8.3230   -0.2720 C   0  0  0  0  0  0
  -20.3580   -7.8160    0.7060 O   0  0  0  0  0  0
  -16.3874   -7.4814   -2.8823 H   0  0  0  0  0  0
  -18.3995   -7.2614   -4.7209 H   0  0  0  0  0  0
  -15.9460   -6.7884   -5.1900 H   0  0  0  0  0  0
  -16.3691   -3.9138   -4.0323 H   0  0  0  0  0  0
  -14.0694   -4.8604   -3.8848 H   0  0  0  0  0  0
  -15.9736   -4.5431   -7.0623 H   0  0  0  0  0  0
  -15.1200   -2.3633   -6.2882 H   0  0  0  0  0  0
  -18.5674   -3.5580   -5.6732 H   0  0  0  0  0  0
  -19.6712   -3.6780   -7.7378 H   0  0  0  0  0  0
  -18.0489   -3.0638   -8.2042 H   0  0  0  0  0  0
  -18.8915   -4.6913   -9.8193 H   0  0  0  0  0  0
  -23.1406   -4.6709   -2.1401 H   0  0  0  0  0  0
  -23.3349   -5.2779   -4.5568 H   0  0  0  0  0  0
  -20.6562   -4.1178   -2.4788 H   0  0  0  0  0  0
  -21.8947   -3.2572   -4.3201 H   0  0  0  0  0  0
  -20.3893   -6.7753   -4.1238 H   0  0  0  0  0  0
  -19.4029   -6.4626   -1.1710 H   0  0  0  0  0  0
  -18.0294   -7.9312   -2.5287 H   0  0  0  0  0  0
  -21.8668   -8.0483   -2.3045 H   0  0  0  0  0  0
  -22.2520   -8.3989    0.2055 H   0  0  0  0  0  0
  -20.9142   -9.3275   -0.5524 H   0  0  0  0  0  0
  -20.2034   -8.3623    1.6481 H   0  0  0  0  0  0
  1  4  1  0  0  0
  1 24  1  0  0  0
  2  3  1  0  0  0
  2  4  1  0  0  0
  2 10  1  0  0  0
  2 25  1  0  0  0
  3 17  1  0  0  0
  4  5  1  0  0  0
  4 26  1  0  0  0
  5  6  1  0  0  0
  5  7  1  0  0  0
  5 27  1  0  0  0
  6 28  1  0  0  0
  7  8  1  0  0  0
  7  9  1  0  0  0
  7 29  1  0  0  0
  8 30  1  0  0  0
  9 10  1  0  0  0
  9 11  1  0  0  0
  9 31  1  0  0  0
 11 12  1  0  0  0
 11 32  1  0  0  0
 11 33  1  0  0  0
 12 34  1  0  0  0
 13 14  1  0  0  0
 13 15  1  0  0  0
 13 21  1  0  0  0
 13 35  1  0  0  0
 14 36  1  0  0  0
 15 16  1  0  0  0
 15 17  1  0  0  0
 15 37  1  0  0  0
 16 38  1  0  0  0
 17 18  1  0  0  0
 17 39  1  0  0  0
 18 19  1  0  0  0
 18 20  1  0  0  0
 18 40  1  0  0  0
 19 41  1  0  0  0
 20 21  1  0  0  0
 20 22  1  0  0  0
 20 42  1  0  0  0
 22 23  1  0  0  0
 22 43  1  0  0  0
 22 44  1  0  0  0
 23 45  1  0  0  0
M  END
> <s_m_source_file>
../2k46_ligand.sdf

> <i_m_source_file_index>
1

> <s_epik_input>
W09IXVtDSDJdW0NAQEhdKE8xKVtDQEBIXShbT0hdKVtDQEhdKFtPSF0pW0NAQEhdKFtPSF0pW0NASF0xT1tDQEhdKFtDQEBIXShbT0hdKVtDQEhdMltPSF0pW0NASF0oW09IXSlbQ0BIXShPMilbQ0gyXVtPSF0=

> <s_epik_cmdline>
J2VwaWtfYXBwJywgJy1pbWFlJywgJ2xpZ2FuZF9wcm8ubWFlJywgJy1vbWFlJywgJ2xpZ2FuZF9wcmVwLm1hZScsICctbXMnLCAnMScsICctcGgnLCAnNycsICctcGh0JywgJzAuNScsICctbnQn

> <r_lp_tautomer_probability>
1

> <r_epik_Ionization_Penalty>
  0.0000

> <r_epik_Ionization_Penalty_Charging>
  0.0000

> <r_epik_Ionization_Penalty_Neutral>
  0.0000

> <r_epik_State_Penalty>
 -0.0000

> <r_epik_Charging_Adjusted_Penalty>
0

> <i_epik_Tot_Q>
0

> <i_epik_Tot_abs_Q>
0

> <s_epik_Chemistry_Notes>
This compound contains an acetal/aminal-like group ( X-CH(R)-Y where X, Y are N, S, or O) that may be acid/base labile, releasing an aldehyde.

$$$$
