2k4i_ligand
                    3D
 Schrodinger Suite 2020-3.
 67 67  0  0  1  0            999 V2000
    9.3890  -12.6880    3.3390 P   0  0  1  0  0  0
    4.1790  -15.4640   -2.3540 P   0  0  0  0  0  0
    7.9910  -14.3370   -3.7880 P   0  0  0  0  0  0
    9.6810  -10.2290    2.9270 C   0  0  0  0  0  0
   10.2150  -10.0500    1.4840 C   0  0  2  0  0  0
    9.2050  -10.4560    0.5750 O   0  0  0  0  0  0
   11.4900  -10.8920    1.2300 C   0  0  0  0  0  0
   12.4290  -10.6350    2.2530 O   0  0  0  0  0  0
    7.6820  -13.3730    1.0530 C   0  0  2  0  0  0
    8.9040  -12.7480    1.7410 O   0  0  0  0  0  0
    6.9420  -14.4810    1.8770 C   0  0  2  0  0  0
    7.7990  -15.5470    2.2760 O   0  0  0  0  0  0
    5.7610  -15.0620    1.0670 C   0  0  2  0  0  0
    5.1320  -16.0700    1.8710 O   0  0  0  0  0  0
    6.2430  -15.6310   -0.3230 C   0  0  1  0  0  0
    5.0450  -16.1440   -1.1020 O   0  0  0  0  0  0
    6.9760  -14.4770   -1.1160 C   0  0  2  0  0  0
    7.4760  -15.0230   -2.3800 O   0  0  0  0  0  0
    8.1610  -13.8710   -0.3230 C   0  0  1  0  0  0
    8.7490  -12.7480   -0.9960 O   0  0  0  0  0  0
    8.1010   -9.5870    0.3950 C   0  0  0  0  0  0
    6.9980   -9.9100    0.7770 O   0  0  0  0  0  0
    8.3090   -8.2180   -0.2740 C   0  0  0  0  0  0
    7.0790   -7.8480   -1.1230 C   0  0  0  0  0  0
    6.7710   -8.9930   -2.1050 C   0  0  0  0  0  0
   13.7950  -10.4220    1.9770 C   0  0  0  0  0  0
   14.2170   -9.6340    1.1520 O   0  0  0  0  0  0
   14.7830  -11.3220    2.7700 C   0  0  0  0  0  0
   16.2450  -11.1680    2.3200 C   0  0  0  0  0  0
   17.0280  -10.2540    3.2790 C   0  0  0  0  0  0
    3.0570  -16.4950   -2.4450 O   0  5  0  0  0  0
    3.7470  -14.1110   -1.8570 O   0  0  0  0  0  0
    5.0610  -15.3430   -3.5860 O   0  5  0  0  0  0
    8.0600  -15.5610   -4.6780 O   0  5  0  0  0  0
    6.9140  -13.3070   -4.0910 O   0  5  0  0  0  0
    9.3380  -13.7590   -3.4190 O   0  0  0  0  0  0
   10.1660  -11.4180    3.5160 O   0  0  0  0  0  0
    8.0650  -12.7140    4.1070 O   0  5  0  0  0  0
   10.2940  -13.8830    3.4870 O   0  0  0  0  0  0
   10.0032   -9.3782    3.5453 H   0  0  0  0  0  0
    8.5821  -10.2734    2.9084 H   0  0  0  0  0  0
   10.4151   -8.9886    1.2757 H   0  0  0  0  0  0
   11.2294  -11.9607    1.2287 H   0  0  0  0  0  0
   11.9219  -10.6187    0.2559 H   0  0  0  0  0  0
    6.9160  -12.5910    0.9446 H   0  0  0  0  0  0
    6.6175  -14.0606    2.8403 H   0  0  0  0  0  0
    8.7026  -15.3347    2.8663 H   0  0  0  0  0  0
    4.9782  -14.3080    0.8974 H   0  0  0  0  0  0
    4.7456  -15.8156    2.8690 H   0  0  0  0  0  0
    6.9163  -16.4912   -0.1936 H   0  0  0  0  0  0
    6.2711  -13.6669   -1.3544 H   0  0  0  0  0  0
    8.9597  -14.6244   -0.2562 H   0  0  0  0  0  0
    9.6018  -12.2206   -0.5437 H   0  0  0  0  0  0
    8.4561   -7.4503    0.4999 H   0  0  0  0  0  0
    9.1957   -8.2583   -0.9237 H   0  0  0  0  0  0
    6.2133   -7.6872   -0.4637 H   0  0  0  0  0  0
    7.2864   -6.9267   -1.6870 H   0  0  0  0  0  0
    5.8923   -8.7292   -2.7118 H   0  0  0  0  0  0
    6.5637   -9.9142   -1.5407 H   0  0  0  0  0  0
    7.6369   -9.1537   -2.7641 H   0  0  0  0  0  0
   14.7373  -11.0639    3.8383 H   0  0  0  0  0  0
   14.5056  -12.3780    2.6357 H   0  0  0  0  0  0
   16.7291  -12.1556    2.3023 H   0  0  0  0  0  0
   16.2741  -10.7273    1.3126 H   0  0  0  0  0  0
   18.0678  -10.1632    2.9318 H   0  0  0  0  0  0
   17.0155  -10.6869    4.2902 H   0  0  0  0  0  0
   16.5604   -9.2586    3.3004 H   0  0  0  0  0  0
  1 10  1  0  0  0
  1 37  1  0  0  0
  1 38  1  0  0  0
  1 39  2  0  0  0
  2 16  1  0  0  0
  2 31  1  0  0  0
  2 32  2  0  0  0
  2 33  1  0  0  0
  3 18  1  0  0  0
  3 34  1  0  0  0
  3 35  1  0  0  0
  3 36  2  0  0  0
  4  5  1  0  0  0
  4 37  1  0  0  0
  4 40  1  0  0  0
  4 41  1  0  0  0
  5  6  1  0  0  0
  5  7  1  0  0  0
  5 42  1  0  0  0
  6 21  1  0  0  0
  7  8  1  0  0  0
  7 43  1  0  0  0
  7 44  1  0  0  0
  8 26  1  0  0  0
  9 10  1  0  0  0
  9 11  1  0  0  0
  9 19  1  0  0  0
  9 45  1  0  0  0
 11 12  1  0  0  0
 11 13  1  0  0  0
 11 46  1  0  0  0
 12 47  1  0  0  0
 13 14  1  0  0  0
 13 15  1  0  0  0
 13 48  1  0  0  0
 14 49  1  0  0  0
 15 16  1  0  0  0
 15 17  1  0  0  0
 15 50  1  0  0  0
 17 18  1  0  0  0
 17 19  1  0  0  0
 17 51  1  0  0  0
 19 20  1  0  0  0
 19 52  1  0  0  0
 20 53  1  0  0  0
 21 22  2  0  0  0
 21 23  1  0  0  0
 23 24  1  0  0  0
 23 54  1  0  0  0
 23 55  1  0  0  0
 24 25  1  0  0  0
 24 56  1  0  0  0
 24 57  1  0  0  0
 25 58  1  0  0  0
 25 59  1  0  0  0
 25 60  1  0  0  0
 26 27  2  0  0  0
 26 28  1  0  0  0
 28 29  1  0  0  0
 28 61  1  0  0  0
 28 62  1  0  0  0
 29 30  1  0  0  0
 29 63  1  0  0  0
 29 64  1  0  0  0
 30 65  1  0  0  0
 30 66  1  0  0  0
 30 67  1  0  0  0
M  CHG  5  31  -1  33  -1  34  -1  35  -1  38  -1
M  END
> <s_m_source_file>
../2k4i_ligand.sdf

> <i_m_source_file_index>
1

> <s_epik_input>
W09IXVAoPU8pKFtPSF0pT1tDQEhdKFtDQEhdMVtPSF0pW0NASF0oT1AoPU8pKFtPSF0pW09IXSlbQ0BASF0oW09IXSlbQ0BASF0oW09IXSlbQ0BIXTFPW1BAXSg9TykoW09IXSlPW0NIMl1bQ0BIXShPQyg9TylbQ0gyXVtDSDJdW0NIM10pW0NIMl1PQyg9TylbQ0gyXVtDSDJdW0NIM10=

> <s_epik_cmdline>
J2VwaWtfYXBwJywgJy1pbWFlJywgJ2xpZ2FuZF9wcm8ubWFlJywgJy1vbWFlJywgJ2xpZ2FuZF9wcmVwLm1hZScsICctbXMnLCAnMScsICctcGgnLCAnNycsICctcGh0JywgJzAuNScsICctbnQn

> <r_epik_Ionization_Penalty>
  0.2341

> <r_epik_Ionization_Penalty_Charging>
  0.2341

> <r_epik_Ionization_Penalty_Neutral>
  0.0000

> <r_epik_State_Penalty>
  0.1968

> <r_epik_Charging_Adjusted_Penalty>
0.430900668465337

> <i_epik_Tot_Q>
-5

> <i_epik_Tot_abs_Q>
5

> <s_epik_Chemistry_Notes>
This compound has an ester and may undergo hydrolysis at high or low pH.

$$$$
