2k7l_ligand
                    3D
 Schrodinger Suite 2020-3.
326327  0  0  1  0            999 V2000
   -2.7210   -5.4690   24.0140 N   0  3  0  0  0  0
   -1.4650   -6.2330   23.7930 C   0  0  2  0  0  0
   -0.5190   -5.4800   22.8630 C   0  0  0  0  0  0
   -0.8550   -4.4130   22.3500 O   0  0  0  0  0  0
   -1.8210   -7.5950   23.1950 C   0  0  0  0  0  0
   -0.9450   -8.7290   23.7010 C   0  0  0  0  0  0
   -1.6460   -9.5910   24.7330 C   0  0  0  0  0  0
   -2.5050  -10.4080   24.3400 O   0  0  0  0  0  0
   -1.3350   -9.4490   25.9340 O   0  0  0  0  0  0
    0.6660   -6.0440   22.6510 N   0  0  0  0  0  0
    1.6620   -5.4260   21.7830 C   0  0  2  0  0  0
    1.1370   -5.2980   20.3570 C   0  0  0  0  0  0
    1.3060   -6.2020   19.5390 O   0  0  0  0  0  0
    2.9550   -6.2440   21.7920 C   0  0  0  0  0  0
    2.7050   -7.7270   21.6020 C   0  0  0  0  0  0
    1.6030   -8.0890   21.1370 O   0  0  0  0  0  0
    3.6100   -8.5270   21.9180 O   0  0  0  0  0  0
    0.5020   -4.1680   20.0650 N   0  0  0  0  0  0
   -0.0460   -3.9190   18.7370 C   0  0  1  0  0  0
   -0.7890   -2.5790   18.7110 C   0  0  1  0  0  0
   -1.1430   -2.1100   17.3120 C   0  0  0  0  0  0
   -1.9890   -2.6950   19.4780 O   0  0  0  0  0  0
   -2.2910   -1.2470   20.1190 P   0  0  0  0  0  0
   -3.7150   -1.1700   20.5150 O   0  0  0  0  0  0
   -1.3630   -1.0310   21.4160 O   0  0  0  0  0  0
   -1.9740   -0.1000   19.0340 O   0  0  0  0  0  0
    1.0660   -3.9100   17.6920 C   0  0  0  0  0  0
    1.5820   -2.8510   17.3350 O   0  0  0  0  0  0
    1.4310   -5.0900   17.2010 N   0  0  0  0  0  0
    2.4750   -5.1980   16.2000 C   0  0  2  0  0  0
    1.8860   -5.1120   14.7940 C   0  0  0  0  0  0
    2.1820   -5.9380   13.9310 O   0  0  0  0  0  0
    3.2340   -6.5150   16.3730 C   0  0  0  0  0  0
    4.6720   -6.4240   15.9040 C   0  0  0  0  0  0
    5.4550   -5.6790   16.5310 O   0  0  0  0  0  0
    5.0170   -7.0990   14.9120 O   0  0  0  0  0  0
    1.0570   -4.0960   14.5710 N   0  0  0  0  0  0
    0.4300   -3.8840   13.2770 C   0  0  2  0  0  0
    1.3400   -3.0730   12.3620 C   0  0  0  0  0  0
    1.3880   -3.2960   11.1540 O   0  0  0  0  0  0
   -0.9130   -3.1700   13.4460 C   0  0  0  0  0  0
   -0.7900   -1.7770   14.0400 C   0  0  0  0  0  0
   -2.1390   -1.1330   14.2980 C   0  0  0  0  0  0
   -3.0400   -1.8280   14.8120 O   0  0  0  0  0  0
   -2.2930    0.0670   13.9850 O   0  0  0  0  0  0
    2.0460   -2.1180   12.9530 N   0  0  0  0  0  0
    2.9480   -1.2530   12.2110 C   0  0  2  0  0  0
    4.3160   -1.9010   12.0180 C   0  0  0  0  0  0
    5.0610   -1.5390   11.1060 O   0  0  0  0  0  0
    3.0970    0.0840   12.9360 C   0  0  0  0  0  0
    2.9510    1.2690   12.0020 C   0  0  0  0  0  0
    1.8020    1.6840   11.7440 O   0  0  0  0  0  0
    3.9860    1.7830   11.5280 O   0  0  0  0  0  0
    4.6450   -2.8520   12.8840 N   0  0  0  0  0  0
    5.9280   -3.5430   12.8160 C   0  0  2  0  0  0
    6.2040   -4.0770   11.4180 C   0  0  0  0  0  0
    7.2370   -3.7790   10.8180 O   0  0  0  0  0  0
    5.9620   -4.6810   13.8220 C   0  0  0  0  0  0
    7.3740   -5.1050   14.1740 C   0  0  0  0  0  0
    8.0210   -5.7670   13.3350 O   0  0  0  0  0  0
    7.8330   -4.7750   15.2880 O   0  0  0  0  0  0
    5.2740   -4.8640   10.9110 N   0  0  0  0  0  0
    5.4000   -5.4470    9.5880 C   0  0  2  0  0  0
    5.0460   -4.4350    8.5040 C   0  0  0  0  0  0
    5.4560   -4.5760    7.3520 O   0  0  0  0  0  0
    4.5010   -6.6770    9.4720 C   0  0  0  0  0  0
    3.1330   -6.4890   10.0510 C   0  0  0  0  0  0
    2.5550   -7.3870   10.9220 N   0  0  0  0  0  0
    2.2270   -5.4980    9.8780 C   0  0  0  0  0  0
    1.3510   -6.9590   11.2590 C   0  0  0  0  0  0
    1.1290   -5.8150   10.6390 N   0  0  0  0  0  0
    4.2830   -3.4130    8.8790 N   0  0  0  0  0  0
    3.8750   -2.3760    7.9380 C   0  0  2  0  0  0
    5.0910   -1.7300    7.2830 C   0  0  0  0  0  0
    5.0440   -1.3230    6.1240 O   0  0  0  0  0  0
    3.0390   -1.3100    8.6480 C   0  0  0  0  0  0
    2.7460   -0.0590    7.8180 C   0  0  0  0  0  0
    1.7540   -0.3730    6.7100 C   0  0  0  0  0  0
    2.2250    1.0570    8.7090 C   0  0  0  0  0  0
    6.1770   -1.6330    8.0320 N   0  0  0  0  0  0
    7.3950   -1.0420    7.5180 C   0  0  2  0  0  0
    8.2330   -2.0840    6.7750 C   0  0  0  0  0  0
    8.9700   -1.7550    5.8460 O   0  0  0  0  0  0
    8.2280   -0.3960    8.6440 C   0  0  2  0  0  0
    7.4400    0.7520    9.2810 C   0  0  0  0  0  0
    9.5640    0.1060    8.1090 C   0  0  0  0  0  0
    8.1740    1.4330   10.4160 C   0  0  0  0  0  0
    8.1150   -3.3430    7.1980 N   0  0  0  0  0  0
    8.8610   -4.4370    6.5810 C   0  0  2  0  0  0
    8.4230   -4.6670    5.1420 C   0  0  0  0  0  0
    9.2500   -4.8470    4.2510 O   0  0  0  0  0  0
    8.7100   -5.7240    7.4150 C   0  0  0  0  0  0
    8.4000   -6.9620    6.5980 C   0  0  0  0  0  0
    7.1460   -7.1400    6.0330 C   0  0  0  0  0  0
    9.3650   -7.9370    6.3760 C   0  0  0  0  0  0
    6.8570   -8.2490    5.2720 C   0  0  0  0  0  0
    9.0820   -9.0560    5.6160 C   0  0  0  0  0  0
    7.8260   -9.2070    5.0650 C   0  0  0  0  0  0
    7.5410  -10.3170    4.3030 O   0  0  0  0  0  0
    7.1240   -4.6610    4.9210 N   0  0  0  0  0  0
    6.5900   -4.8690    3.5850 C   0  0  2  0  0  0
    6.7830   -3.6140    2.7450 C   0  0  0  0  0  0
    6.7110   -3.6530    1.5180 O   0  0  0  0  0  0
    5.1150   -5.3070    3.6380 C   0  0  0  0  0  0
    4.0550   -4.2080    3.4910 C   0  0  0  0  0  0
    4.2500   -3.1380    4.5430 C   0  0  0  0  0  0
    4.0680   -3.6080    2.0930 C   0  0  0  0  0  0
    7.0250   -2.4990    3.4150 N   0  0  0  0  0  0
    7.2300   -1.2400    2.7300 C   0  0  2  0  0  0
    8.4760   -1.2980    1.8460 C   0  0  0  0  0  0
    8.5520   -0.6260    0.8180 O   0  0  0  0  0  0
    7.3390   -0.0980    3.7540 C   0  0  0  0  0  0
    8.7420    0.4700    3.9210 C   0  0  0  0  0  0
    8.8190    1.5220    5.0110 C   0  0  0  0  0  0
    7.7600    2.0680    5.3850 O   0  0  0  0  0  0
    9.9390    1.7990    5.4900 O   0  0  0  0  0  0
    9.4570   -2.0920    2.2690 N   0  0  0  0  0  0
   10.7130   -2.2220    1.5340 C   0  0  2  0  0  0
   10.6190   -3.2190    0.3850 C   0  0  0  0  0  0
   11.1040   -2.9520   -0.7150 O   0  0  0  0  0  0
   11.8560   -2.6030    2.4800 C   0  0  0  0  0  0
   11.5830   -3.8370    3.3230 C   0  0  0  0  0  0
   12.8570   -4.4990    3.8120 C   0  0  0  0  0  0
   13.4310   -5.3110    3.0570 O   0  0  0  0  0  0
   13.2790   -4.2060    4.9510 O   0  0  0  0  0  0
   10.0010   -4.3620    0.6340 N   0  0  0  0  0  0
    9.8570   -5.3880   -0.4040 C   0  0  2  0  0  0
    9.2790   -4.8010   -1.6820 C   0  0  0  0  0  0
    9.5170   -5.3080   -2.7780 O   0  0  0  0  0  0
    8.9810   -6.5780    0.0460 C   0  0  2  0  0  0
    7.7350   -6.0920    0.7790 C   0  0  0  0  0  0
    9.7760   -7.5210    0.9320 C   0  0  0  0  0  0
    6.5060   -6.0290   -0.0950 C   0  0  0  0  0  0
    8.5230   -3.7280   -1.5320 N   0  0  0  0  0  0
    7.9100   -3.0580   -2.6650 C   0  0  2  0  0  0
    8.9340   -2.3260   -3.5040 C   0  0  0  0  0  0
    9.3830   -2.8130   -4.5410 O   0  0  0  0  0  0
    6.8640   -2.0590   -2.1790 C   0  0  0  0  0  0
    6.4780   -0.9830   -3.2030 C   0  0  0  0  0  0
    5.8920   -1.6160   -4.4530 C   0  0  0  0  0  0
    5.5040    0.0090   -2.5900 C   0  0  0  0  0  0
    9.2590   -1.1330   -3.0530 N   0  0  0  0  0  0
   10.1840   -0.2800   -3.7510 C   0  0  2  0  0  0
   11.0690    0.4650   -2.7700 C   0  0  0  0  0  0
   11.5030    1.5870   -3.0300 O   0  0  0  0  0  0
    9.4300    0.7350   -4.6290 C   0  0  0  0  0  0
    8.5590    0.0310   -5.6620 C   0  0  0  0  0  0
    8.5870    1.6570   -3.7620 C   0  0  0  0  0  0
   11.3220   -0.1670   -1.6370 N   0  0  0  0  0  0
   12.1470    0.4340   -0.6050 C   0  0  2  0  0  0
   13.0640   -0.6000    0.0400 C   0  0  0  0  0  0
   13.2610   -0.5990    1.2550 O   0  0  0  0  0  0
   11.2710    1.1050    0.4550 C   0  0  0  0  0  0
   10.6960    2.4380    0.0090 C   0  0  0  0  0  0
   10.3030    3.3010    1.1970 C   0  0  0  0  0  0
   11.4000    4.1600    1.6360 N   0  0  0  0  0  0
   11.4580    4.7360    2.8350 C   0  0  0  0  0  0
   10.4830    4.5480    3.7160 N   0  0  0  0  0  0
   12.4920    5.5020    3.1530 N   0  0  0  0  0  0
   13.6260   -1.4800   -0.7840 N   0  0  0  0  0  0
   14.5240   -2.5200   -0.2970 C   0  0  2  0  0  0
   15.7210   -1.9160    0.4300 C   0  0  0  0  0  0
   16.0230   -2.3730    1.5530 O   0  0  0  0  0  0
   15.0330   -3.4070   -1.4480 C   0  0  0  0  0  0
   13.8860   -4.1910   -2.0660 C   0  0  0  0  0  0
   15.7410   -2.5650   -2.4990 C   0  0  0  0  0  0
   16.3480   -0.9920   -0.1300 O   0  0  0  0  0  0
   -2.4810   -4.4856   24.4444 H   0  0  0  0  0  0
   -3.3706   -6.0239   24.7069 H   0  0  0  0  0  0
   -3.2407   -5.3322   23.0542 H   0  0  0  0  0  0
   -0.9683   -6.3486   24.7677 H   0  0  0  0  0  0
   -2.8617   -7.8458   23.4480 H   0  0  0  0  0  0
   -1.7087   -7.5560   22.1014 H   0  0  0  0  0  0
   -0.6595   -9.3758   22.8583 H   0  0  0  0  0  0
   -0.0396   -8.3130   24.1671 H   0  0  0  0  0  0
   -3.0296  -11.0464   25.0661 H   0  0  0  0  0  0
    0.8873   -6.9997   23.1486 H   0  0  0  0  0  0
    1.8366   -4.4246   22.2033 H   0  0  0  0  0  0
    3.6098   -5.9037   20.9762 H   0  0  0  0  0  0
    3.4684   -6.1078   22.7553 H   0  0  0  0  0  0
    1.3934   -9.1585   20.9882 H   0  0  0  0  0  0
    0.3947   -3.4103   20.8552 H   0  0  0  0  0  0
   -0.7393   -4.7506   18.5427 H   0  0  0  0  0  0
   -0.1581   -1.8111   19.1825 H   0  0  0  0  0  0
   -0.2250   -2.0175   16.7131 H   0  0  0  0  0  0
   -1.6438   -1.1323   17.3688 H   0  0  0  0  0  0
   -1.8168   -2.8403   16.8400 H   0  0  0  0  0  0
   -1.4394   -1.7223   22.2682 H   0  0  0  0  0  0
   -2.5149   -0.0842   18.0763 H   0  0  0  0  0  0
    0.9250   -5.9952   17.5679 H   0  0  0  0  0  0
    3.1418   -4.3412   16.3770 H   0  0  0  0  0  0
    3.2425   -6.7963   17.4364 H   0  0  0  0  0  0
    2.7374   -7.3039   15.7890 H   0  0  0  0  0  0
    6.5047   -5.5928   16.2137 H   0  0  0  0  0  0
    0.8509   -3.4052   15.4018 H   0  0  0  0  0  0
    0.2814   -4.8898   12.8572 H   0  0  0  0  0  0
   -1.3996   -3.0671   12.4648 H   0  0  0  0  0  0
   -1.5587   -3.7570   14.1157 H   0  0  0  0  0  0
   -0.2533   -1.8332   14.9985 H   0  0  0  0  0  0
   -0.2337   -1.1301   13.3457 H   0  0  0  0  0  0
   -3.2600    0.5613   14.1600 H   0  0  0  0  0  0
    1.9323   -1.9914   14.0398 H   0  0  0  0  0  0
    2.4735   -1.1172   11.2280 H   0  0  0  0  0  0
    2.3233    0.1677   13.7134 H   0  0  0  0  0  0
    4.0921    0.1398   13.4015 H   0  0  0  0  0  0
    3.9105    2.6439   10.8475 H   0  0  0  0  0  0
    3.9197   -3.1146   13.6682 H   0  0  0  0  0  0
    6.6822   -2.7826   13.0671 H   0  0  0  0  0  0
    5.4628   -4.3651   14.7499 H   0  0  0  0  0  0
    5.4408   -5.5551   13.4046 H   0  0  0  0  0  0
    9.0480   -6.0889   13.5621 H   0  0  0  0  0  0
    4.3838   -5.0740   11.5221 H   0  0  0  0  0  0
    6.4595   -5.7274    9.4935 H   0  0  0  0  0  0
    4.3712   -6.9376    8.4112 H   0  0  0  0  0  0
    4.9647   -7.5215   10.0029 H   0  0  0  0  0  0
    2.2350   -4.5731    9.2825 H   0  0  0  0  0  0
    0.6596   -7.4642   11.9335 H   0  0  0  0  0  0
    3.9588   -3.3614    9.9289 H   0  0  0  0  0  0
    3.2723   -2.8923    7.1762 H   0  0  0  0  0  0
    2.0649   -1.7359    8.9303 H   0  0  0  0  0  0
    3.5670   -0.9717    9.5518 H   0  0  0  0  0  0
    3.6797    0.2846    7.3488 H   0  0  0  0  0  0
    2.1522   -1.1818    6.0797 H   0  0  0  0  0  0
    1.5938    0.5254    6.0958 H   0  0  0  0  0  0
    0.7981   -0.6898    7.1526 H   0  0  0  0  0  0
    2.9585    1.2660    9.5016 H   0  0  0  0  0  0
    1.2719    0.7486    9.1634 H   0  0  0  0  0  0
    2.0676    1.9639    8.1066 H   0  0  0  0  0  0
    6.1426   -2.0121    9.0640 H   0  0  0  0  0  0
    7.0412   -0.2712    6.8175 H   0  0  0  0  0  0
    8.4424   -1.1513    9.4144 H   0  0  0  0  0  0
    7.2281    1.5177    8.5202 H   0  0  0  0  0  0
    6.4931    0.3661    9.6865 H   0  0  0  0  0  0
   10.1153   -0.7310    7.6558 H   0  0  0  0  0  0
   10.1541    0.5292    8.9352 H   0  0  0  0  0  0
    9.3867    0.8821    7.3499 H   0  0  0  0  0  0
    7.5502    2.2427   10.8225 H   0  0  0  0  0  0
    9.1201    1.8514   10.0420 H   0  0  0  0  0  0
    8.3851    0.6998   11.2083 H   0  0  0  0  0  0
    7.4325   -3.5467    8.0362 H   0  0  0  0  0  0
    9.9096   -4.1048    6.5716 H   0  0  0  0  0  0
    9.6466   -5.9217    7.9570 H   0  0  0  0  0  0
    7.8885   -5.5995    8.1359 H   0  0  0  0  0  0
    6.3748   -6.3869    6.1950 H   0  0  0  0  0  0
   10.3589   -7.8175    6.8073 H   0  0  0  0  0  0
    5.8659   -8.3695    4.8346 H   0  0  0  0  0  0
    9.8469   -9.8152    5.4527 H   0  0  0  0  0  0
    6.5405  -10.4397    3.8626 H   0  0  0  0  0  0
    6.4406   -4.4952    5.7668 H   0  0  0  0  0  0
    7.1851   -5.6845    3.1482 H   0  0  0  0  0  0
    4.9149   -6.0204    2.8250 H   0  0  0  0  0  0
    4.9097   -5.7873    4.6061 H   0  0  0  0  0  0
    3.0621   -4.6551    3.6468 H   0  0  0  0  0  0
    4.2364   -3.5989    5.5417 H   0  0  0  0  0  0
    3.4386   -2.3990    4.4691 H   0  0  0  0  0  0
    5.2168   -2.6383    4.3829 H   0  0  0  0  0  0
    3.9245   -4.4064    1.3500 H   0  0  0  0  0  0
    5.0335   -3.1116    1.9160 H   0  0  0  0  0  0
    3.2553   -2.8723    2.0022 H   0  0  0  0  0  0
    7.0691   -2.5411    4.5133 H   0  0  0  0  0  0
    6.3430   -1.1050    2.0936 H   0  0  0  0  0  0
    6.6917    0.7356    3.4438 H   0  0  0  0  0  0
    7.0214   -0.4605    4.7428 H   0  0  0  0  0  0
    9.4369   -0.3410    4.1845 H   0  0  0  0  0  0
    9.0634    0.9364    2.9780 H   0  0  0  0  0  0
   10.0262    2.5577    6.2817 H   0  0  0  0  0  0
    9.3027   -2.6591    3.1988 H   0  0  0  0  0  0
   10.8789   -1.2217    1.1076 H   0  0  0  0  0  0
   12.7642   -2.8075    1.8940 H   0  0  0  0  0  0
   12.0479   -1.7732    3.1761 H   0  0  0  0  0  0
   10.9880   -3.5548    4.2041 H   0  0  0  0  0  0
   11.0262   -4.5736    2.7252 H   0  0  0  0  0  0
   14.2004   -4.6702    5.3324 H   0  0  0  0  0  0
    9.5916   -4.5362    1.6400 H   0  0  0  0  0  0
   10.8918   -5.7221   -0.5699 H   0  0  0  0  0  0
    8.6572   -7.1365   -0.8447 H   0  0  0  0  0  0
    7.5107   -6.7738    1.6126 H   0  0  0  0  0  0
    7.9116   -5.0795    1.1709 H   0  0  0  0  0  0
   10.6710   -7.8640    0.3923 H   0  0  0  0  0  0
    9.1529   -8.3879    1.1969 H   0  0  0  0  0  0
   10.0799   -6.9941    1.8485 H   0  0  0  0  0  0
    5.6517   -5.6720    0.4989 H   0  0  0  0  0  0
    6.2849   -7.0317   -0.4895 H   0  0  0  0  0  0
    6.6859   -5.3374   -0.9313 H   0  0  0  0  0  0
    8.3633   -3.3440   -0.5136 H   0  0  0  0  0  0
    7.4596   -3.8666   -3.2594 H   0  0  0  0  0  0
    5.9393   -2.5944   -1.9175 H   0  0  0  0  0  0
    7.2452   -1.5311   -1.2925 H   0  0  0  0  0  0
    7.3817   -0.4311   -3.5009 H   0  0  0  0  0  0
    6.6151   -2.3285   -4.8766 H   0  0  0  0  0  0
    5.6732   -0.8320   -5.1929 H   0  0  0  0  0  0
    4.9633   -2.1459   -4.1947 H   0  0  0  0  0  0
    5.9513    0.4524   -1.6882 H   0  0  0  0  0  0
    4.5728   -0.5106   -2.3199 H   0  0  0  0  0  0
    5.2828    0.8033   -3.3181 H   0  0  0  0  0  0
    8.8002   -0.7937   -2.1126 H   0  0  0  0  0  0
   10.7875   -0.9694   -4.3598 H   0  0  0  0  0  0
   10.1651    1.3453   -5.1742 H   0  0  0  0  0  0
    9.1845   -0.6307   -6.2792 H   0  0  0  0  0  0
    8.0734    0.7806   -6.3042 H   0  0  0  0  0  0
    7.7903   -0.5651   -5.1484 H   0  0  0  0  0  0
    9.2313    2.1560   -3.0232 H   0  0  0  0  0  0
    7.8184    1.0681   -3.2400 H   0  0  0  0  0  0
    8.1015    2.4138   -4.3957 H   0  0  0  0  0  0
   10.8931   -1.1684   -1.4845 H   0  0  0  0  0  0
   12.7573    1.1844   -1.1289 H   0  0  0  0  0  0
   10.4248    0.4469    0.7015 H   0  0  0  0  0  0
   11.8677    1.2898    1.3605 H   0  0  0  0  0  0
   11.4471    2.9817   -0.5828 H   0  0  0  0  0  0
    9.8007    2.2638   -0.6059 H   0  0  0  0  0  0
    9.4542    3.9430    0.9190 H   0  0  0  0  0  0
   10.0139    2.6555    2.0395 H   0  0  0  0  0  0
   12.2437    4.3633    0.9601 H   0  0  0  0  0  0
    9.6227    3.9133    3.4572 H   0  0  0  0  0  0
   10.5354    5.0269    4.7049 H   0  0  0  0  0  0
   13.3026    5.6611    2.4266 H   0  0  0  0  0  0
   13.3980   -1.4088   -1.8577 H   0  0  0  0  0  0
   13.9041   -3.1008    0.4019 H   0  0  0  0  0  0
   16.8810   -1.9587    2.1028 H   0  0  0  0  0  0
   15.7595   -4.1312   -1.0510 H   0  0  0  0  0  0
   13.3907   -4.7907   -1.2881 H   0  0  0  0  0  0
   14.2772   -4.8572   -2.8490 H   0  0  0  0  0  0
   13.1604   -3.4922   -2.5079 H   0  0  0  0  0  0
   16.5650   -2.0084   -2.0287 H   0  0  0  0  0  0
   15.0265   -1.8565   -2.9435 H   0  0  0  0  0  0
   16.1433   -3.2214   -3.2846 H   0  0  0  0  0  0
  1  2  1  0  0  0
  1168  1  0  0  0
  1169  1  0  0  0
  1170  1  0  0  0
  2  3  1  0  0  0
  2  5  1  0  0  0
  2171  1  0  0  0
  3  4  2  0  0  0
  3 10  1  0  0  0
  5  6  1  0  0  0
  5172  1  0  0  0
  5173  1  0  0  0
  6  7  1  0  0  0
  6174  1  0  0  0
  6175  1  0  0  0
  7  8  1  0  0  0
  7  9  2  0  0  0
  8176  1  0  0  0
 10 11  1  0  0  0
 10177  1  0  0  0
 11 12  1  0  0  0
 11 14  1  0  0  0
 11178  1  0  0  0
 12 13  2  0  0  0
 12 18  1  0  0  0
 14 15  1  0  0  0
 14179  1  0  0  0
 14180  1  0  0  0
 15 16  1  0  0  0
 15 17  2  0  0  0
 16181  1  0  0  0
 18 19  1  0  0  0
 18182  1  0  0  0
 19 20  1  0  0  0
 19 27  1  0  0  0
 19183  1  0  0  0
 20 21  1  0  0  0
 20 22  1  0  0  0
 20184  1  0  0  0
 21185  1  0  0  0
 21186  1  0  0  0
 21187  1  0  0  0
 22 23  1  0  0  0
 23 24  2  0  0  0
 23 25  1  0  0  0
 23 26  1  0  0  0
 25188  1  0  0  0
 26189  1  0  0  0
 27 28  2  0  0  0
 27 29  1  0  0  0
 29 30  1  0  0  0
 29190  1  0  0  0
 30 31  1  0  0  0
 30 33  1  0  0  0
 30191  1  0  0  0
 31 32  2  0  0  0
 31 37  1  0  0  0
 33 34  1  0  0  0
 33192  1  0  0  0
 33193  1  0  0  0
 34 35  1  0  0  0
 34 36  2  0  0  0
 35194  1  0  0  0
 37 38  1  0  0  0
 37195  1  0  0  0
 38 39  1  0  0  0
 38 41  1  0  0  0
 38196  1  0  0  0
 39 40  2  0  0  0
 39 46  1  0  0  0
 41 42  1  0  0  0
 41197  1  0  0  0
 41198  1  0  0  0
 42 43  1  0  0  0
 42199  1  0  0  0
 42200  1  0  0  0
 43 44  2  0  0  0
 43 45  1  0  0  0
 45201  1  0  0  0
 46 47  1  0  0  0
 46202  1  0  0  0
 47 48  1  0  0  0
 47 50  1  0  0  0
 47203  1  0  0  0
 48 49  2  0  0  0
 48 54  1  0  0  0
 50 51  1  0  0  0
 50204  1  0  0  0
 50205  1  0  0  0
 51 52  2  0  0  0
 51 53  1  0  0  0
 53206  1  0  0  0
 54 55  1  0  0  0
 54207  1  0  0  0
 55 56  1  0  0  0
 55 58  1  0  0  0
 55208  1  0  0  0
 56 57  2  0  0  0
 56 62  1  0  0  0
 58 59  1  0  0  0
 58209  1  0  0  0
 58210  1  0  0  0
 59 60  1  0  0  0
 59 61  2  0  0  0
 60211  1  0  0  0
 62 63  1  0  0  0
 62212  1  0  0  0
 63 64  1  0  0  0
 63 66  1  0  0  0
 63213  1  0  0  0
 64 65  2  0  0  0
 64 72  1  0  0  0
 66 67  1  0  0  0
 66214  1  0  0  0
 66215  1  0  0  0
 67 68  2  0  0  0
 67 69  1  0  0  0
 68 70  1  0  0  0
 69 71  2  0  0  0
 69216  1  0  0  0
 70 71  1  0  0  0
 70217  1  0  0  0
 72 73  1  0  0  0
 72218  1  0  0  0
 73 74  1  0  0  0
 73 76  1  0  0  0
 73219  1  0  0  0
 74 75  2  0  0  0
 74 80  1  0  0  0
 76 77  1  0  0  0
 76220  1  0  0  0
 76221  1  0  0  0
 77 78  1  0  0  0
 77 79  1  0  0  0
 77222  1  0  0  0
 78223  1  0  0  0
 78224  1  0  0  0
 78225  1  0  0  0
 79226  1  0  0  0
 79227  1  0  0  0
 79228  1  0  0  0
 80 81  1  0  0  0
 80229  1  0  0  0
 81 82  1  0  0  0
 81 84  1  0  0  0
 81230  1  0  0  0
 82 83  2  0  0  0
 82 88  1  0  0  0
 84 85  1  0  0  0
 84 86  1  0  0  0
 84231  1  0  0  0
 85 87  1  0  0  0
 85232  1  0  0  0
 85233  1  0  0  0
 86234  1  0  0  0
 86235  1  0  0  0
 86236  1  0  0  0
 87237  1  0  0  0
 87238  1  0  0  0
 87239  1  0  0  0
 88 89  1  0  0  0
 88240  1  0  0  0
 89 90  1  0  0  0
 89 92  1  0  0  0
 89241  1  0  0  0
 90 91  2  0  0  0
 90100  1  0  0  0
 92 93  1  0  0  0
 92242  1  0  0  0
 92243  1  0  0  0
 93 94  2  0  0  0
 93 95  1  0  0  0
 94 96  1  0  0  0
 94244  1  0  0  0
 95 97  2  0  0  0
 95245  1  0  0  0
 96 98  2  0  0  0
 96246  1  0  0  0
 97 98  1  0  0  0
 97247  1  0  0  0
 98 99  1  0  0  0
 99248  1  0  0  0
100101  1  0  0  0
100249  1  0  0  0
101102  1  0  0  0
101104  1  0  0  0
101250  1  0  0  0
102103  2  0  0  0
102108  1  0  0  0
104105  1  0  0  0
104251  1  0  0  0
104252  1  0  0  0
105106  1  0  0  0
105107  1  0  0  0
105253  1  0  0  0
106254  1  0  0  0
106255  1  0  0  0
106256  1  0  0  0
107257  1  0  0  0
107258  1  0  0  0
107259  1  0  0  0
108109  1  0  0  0
108260  1  0  0  0
109110  1  0  0  0
109112  1  0  0  0
109261  1  0  0  0
110111  2  0  0  0
110117  1  0  0  0
112113  1  0  0  0
112262  1  0  0  0
112263  1  0  0  0
113114  1  0  0  0
113264  1  0  0  0
113265  1  0  0  0
114115  2  0  0  0
114116  1  0  0  0
116266  1  0  0  0
117118  1  0  0  0
117267  1  0  0  0
118119  1  0  0  0
118121  1  0  0  0
118268  1  0  0  0
119120  2  0  0  0
119126  1  0  0  0
121122  1  0  0  0
121269  1  0  0  0
121270  1  0  0  0
122123  1  0  0  0
122271  1  0  0  0
122272  1  0  0  0
123124  2  0  0  0
123125  1  0  0  0
125273  1  0  0  0
126127  1  0  0  0
126274  1  0  0  0
127128  1  0  0  0
127130  1  0  0  0
127275  1  0  0  0
128129  2  0  0  0
128134  1  0  0  0
130131  1  0  0  0
130132  1  0  0  0
130276  1  0  0  0
131133  1  0  0  0
131277  1  0  0  0
131278  1  0  0  0
132279  1  0  0  0
132280  1  0  0  0
132281  1  0  0  0
133282  1  0  0  0
133283  1  0  0  0
133284  1  0  0  0
134135  1  0  0  0
134285  1  0  0  0
135136  1  0  0  0
135138  1  0  0  0
135286  1  0  0  0
136137  2  0  0  0
136142  1  0  0  0
138139  1  0  0  0
138287  1  0  0  0
138288  1  0  0  0
139140  1  0  0  0
139141  1  0  0  0
139289  1  0  0  0
140290  1  0  0  0
140291  1  0  0  0
140292  1  0  0  0
141293  1  0  0  0
141294  1  0  0  0
141295  1  0  0  0
142143  1  0  0  0
142296  1  0  0  0
143144  1  0  0  0
143146  1  0  0  0
143297  1  0  0  0
144145  2  0  0  0
144149  1  0  0  0
146147  1  0  0  0
146148  1  0  0  0
146298  1  0  0  0
147299  1  0  0  0
147300  1  0  0  0
147301  1  0  0  0
148302  1  0  0  0
148303  1  0  0  0
148304  1  0  0  0
149150  1  0  0  0
149305  1  0  0  0
150151  1  0  0  0
150153  1  0  0  0
150306  1  0  0  0
151152  2  0  0  0
151160  1  0  0  0
153154  1  0  0  0
153307  1  0  0  0
153308  1  0  0  0
154155  1  0  0  0
154309  1  0  0  0
154310  1  0  0  0
155156  1  0  0  0
155311  1  0  0  0
155312  1  0  0  0
156157  1  0  0  0
156313  1  0  0  0
157158  1  0  0  0
157159  2  0  0  0
158314  1  0  0  0
158315  1  0  0  0
159316  1  0  0  0
160161  1  0  0  0
160317  1  0  0  0
161162  1  0  0  0
161164  1  0  0  0
161318  1  0  0  0
162163  1  0  0  0
162167  2  0  0  0
163319  1  0  0  0
164165  1  0  0  0
164166  1  0  0  0
164320  1  0  0  0
165321  1  0  0  0
165322  1  0  0  0
165323  1  0  0  0
166324  1  0  0  0
166325  1  0  0  0
166326  1  0  0  0
M  CHG  1   1   1
M  END
> <s_m_source_file>
../2k7l_ligand.sdf

> <i_m_source_file_index>
1

> <s_epik_input>
W09IXUMoPU8pW0NIMl1bQ0gyXVtDQEhdKFtOSDMrXSlDKD1PKVtOSF1bQ0BASF0oW0NIMl1DKD1PKVtPSF0pQyg9TylbTkhdW0NAQEhdKFtDQEBIXShbQ0gzXSlPUCg9TykoW09IXSlbT0hdKUMoPU8pW05IXVtDQEBIXShbQ0gyXUMoPU8pW09IXSlDKD1PKVtOSF1bQ0BASF0oW0NIMl1bQ0gyXUMoPU8pW09IXSlDKD1PKVtOSF1bQ0BASF0oW0NIMl1DKD1PKVtPSF0pQyg9TylbTkhdW0NAQEhdKFtDSDJdQyg9TylbT0hdKUMoPU8pW05IXVtDQEBIXShbQ0gyXUMxPU5bQ0gyXU49W0NIXTEpQyg9TylbTkhdW0NAQEhdKFtDSDJdW0NIXShbQ0gzXSlbQ0gzXSlDKD1PKVtOSF1bQ0BASF0oW0NAQEhdKFtDSDNdKVtDSDJdW0NIM10pQyg9TylbTkhdW0NAQEhdKFtDSDJdYzJbY0hdW2NIXWMoW09IXSlbY0hdW2NIXTIpQyg9TylbTkhdW0NAQEhdKFtDSDJdW0NIXShbQ0gzXSlbQ0gzXSlDKD1PKVtOSF1bQ0BASF0oW0NIMl1bQ0gyXUMoPU8pW09IXSlDKD1PKVtOSF1bQ0BASF0oW0NIMl1bQ0gyXUMoPU8pW09IXSlDKD1PKVtOSF1bQ0BASF0oW0NAQEhdKFtDSDNdKVtDSDJdW0NIM10pQyg9TylbTkhdW0NAQEhdKFtDSDJdW0NIXShbQ0gzXSlbQ0gzXSlDKD1PKVtOSF1bQ0BASF0oW0NIXShbQ0gzXSlbQ0gzXSlDKD1PKVtOSF1bQ0BIXShDKD1PKVtOSF1bQ0BIXShDKD1PKVtPSF0pW0NIXShbQ0gzXSlbQ0gzXSlbQ0gyXVtDSDJdW0NIMl1bTkhdL0MoW05IMl0pPU5cW0hd

> <s_epik_cmdline>
J2VwaWtfYXBwJywgJy1pbWFlJywgJ2xpZ2FuZF9wcm8ubWFlJywgJy1vbWFlJywgJ2xpZ2FuZF9wcmVwLm1hZScsICctbXMnLCAnMScsICctcGgnLCAnNycsICctcGh0JywgJzAuNScsICctbnQn

> <s_epik_pKa_notes>
Molecule size exceeds maximum supported for generating protonation states

> <s_epik_Chemistry_Notes>
This compound has an imine and may undergo hydrolysis.

$$$$
