2kaw_ligand
                    3D
 Schrodinger Suite 2020-3.
 43 45  0  0  1  0            999 V2000
    3.2420   -3.7530   -8.5550 C   0  0  0  0  0  0
    2.1680   -2.8740   -8.5960 C   0  0  0  0  0  0
    1.1080   -3.0720   -9.5400 C   0  0  0  0  0  0
   -0.2430   -2.4390   -9.2670 C   0  0  0  0  0  0
   -1.0920   -2.7980   -8.1220 C   0  0  3  0  0  0
   -0.7090   -3.8660   -7.0680 C   0  0  0  0  0  0
    0.3390   -4.7990   -6.9020 C   0  0  0  0  0  0
    0.3390   -5.5940   -5.8080 C   0  0  0  0  0  0
   -0.6770   -5.5080   -4.8480 C   0  0  0  0  0  0
   -0.6430   -6.3150   -3.7770 F   0  0  0  0  0  0
   -1.7160   -4.6030   -4.9960 C   0  0  0  0  0  0
   -1.7230   -3.7950   -6.0980 C   0  0  0  0  0  0
   -2.7070   -2.7140   -6.5400 C   0  0  0  0  0  0
   -3.8850   -2.3260   -5.5870 C   0  0  0  0  0  0
   -5.2500   -2.4510   -6.2570 C   0  0  0  0  0  0
   -5.5080   -1.7020   -7.3170 O   0  5  0  0  0  0
   -6.1260   -3.2140   -5.8220 O   0  0  0  0  0  0
   -2.3630   -2.1310   -7.7110 C   0  0  0  0  0  0
   -3.1020   -1.0600   -8.4160 C   0  0  0  0  0  0
    1.1700   -4.1550  -10.4010 C   0  0  0  0  0  0
    2.2690   -5.0560  -10.3590 C   0  0  0  0  0  0
    3.2980   -4.8570   -9.4500 C   0  0  0  0  0  0
    4.6610   -5.9370   -9.3700 S   0  0  2  0  0  0
    4.2990   -7.2510   -8.9250 O   0  0  0  0  0  0
    5.6750   -5.1820   -8.1330 C   0  0  0  0  0  0
    4.0449   -3.5965   -7.8346 H   0  0  0  0  0  0
    2.1309   -2.0299   -7.9074 H   0  0  0  0  0  0
   -0.1188   -1.3547   -9.1295 H   0  0  0  0  0  0
   -0.9143   -2.6262  -10.1180 H   0  0  0  0  0  0
   -0.9600   -2.6559   -9.2048 H   0  0  0  0  0  0
    1.1343   -4.8767   -7.6434 H   0  0  0  0  0  0
    1.1448   -6.3151   -5.6709 H   0  0  0  0  0  0
   -2.5089   -4.5372   -4.2510 H   0  0  0  0  0  0
   -3.8791   -2.9879   -4.7084 H   0  0  0  0  0  0
   -3.7642   -1.2825   -5.2607 H   0  0  0  0  0  0
   -2.5705   -0.7963   -9.3422 H   0  0  0  0  0  0
   -3.1707   -0.1740   -7.7677 H   0  0  0  0  0  0
   -4.1141   -1.4137   -8.6620 H   0  0  0  0  0  0
    0.3667   -4.3185  -11.1194 H   0  0  0  0  0  0
    2.3032   -5.9046  -11.0422 H   0  0  0  0  0  0
    5.9614   -4.1716   -8.4602 H   0  0  0  0  0  0
    6.5800   -5.7884   -7.9805 H   0  0  0  0  0  0
    5.1141   -5.1165   -7.1890 H   0  0  0  0  0  0
  1  2  2  0  0  0
  1 22  1  0  0  0
  1 26  1  0  0  0
  2  3  1  0  0  0
  2 27  1  0  0  0
  3  4  1  0  0  0
  3 20  2  0  0  0
  4  5  1  0  0  0
  4 28  1  0  0  0
  4 29  1  0  0  0
  5  6  1  0  0  0
  5 18  1  0  0  0
  5 30  1  0  0  0
  6  7  2  0  0  0
  6 12  1  0  0  0
  7  8  1  0  0  0
  7 31  1  0  0  0
  8  9  2  0  0  0
  8 32  1  0  0  0
  9 10  1  0  0  0
  9 11  1  0  0  0
 11 12  2  0  0  0
 11 33  1  0  0  0
 12 13  1  0  0  0
 13 14  1  0  0  0
 13 18  2  0  0  0
 14 15  1  0  0  0
 14 34  1  0  0  0
 14 35  1  0  0  0
 15 16  1  0  0  0
 15 17  2  0  0  0
 18 19  1  0  0  0
 19 36  1  0  0  0
 19 37  1  0  0  0
 19 38  1  0  0  0
 20 21  1  0  0  0
 20 39  1  0  0  0
 21 22  2  0  0  0
 21 40  1  0  0  0
 22 23  1  0  0  0
 23 24  2  0  0  0
 23 25  1  0  0  0
 25 41  1  0  0  0
 25 42  1  0  0  0
 25 43  1  0  0  0
M  CHG  1  16  -1
M  END
> <s_m_source_file>
../2kaw_ligand.sdf

> <i_m_source_file_index>
1

> <s_epik_input>
W2NIXTFbY0hdYyhbU0BdKD1PKVtDSDNdKVtjSF1bY0hdYzFbQ0gyXVtDSF0yQyhbQ0gzXSk9QyhbQ0gyXUMoPU8pW09IXSljKGMyMylbY0hdYyhGKVtjSF1bY0hdMw==

> <s_epik_cmdline>
J2VwaWtfYXBwJywgJy1pbWFlJywgJ2xpZ2FuZF9wcm8ubWFlJywgJy1vbWFlJywgJ2xpZ2FuZF9wcmVwLm1hZScsICctbXMnLCAnMScsICctcGgnLCAnNycsICctcGh0JywgJzAuNScsICctbnQn

> <r_lp_tautomer_probability>
1

> <r_epik_Ionization_Penalty>
  0.0006

> <r_epik_Ionization_Penalty_Charging>
  0.0006

> <r_epik_Ionization_Penalty_Neutral>
  0.0000

> <r_epik_State_Penalty>
 -0.0000

> <r_epik_Charging_Adjusted_Penalty>
0.000613890169450053

> <i_epik_Tot_Q>
-1

> <i_epik_Tot_abs_Q>
1

$$$$
