2kbr_ligand
                    3D
 Schrodinger Suite 2020-3.
306307  0  0  1  0            999 V2000
   -5.6940   12.5670    0.7430 N   0  3  0  0  0  0
   -6.0000   11.1480    0.6320 C   0  0  2  0  0  0
   -4.8540   10.2980    1.1750 C   0  0  0  0  0  0
   -4.3190    9.4360    0.4780 O   0  0  0  0  0  0
   -6.2830   10.7780   -0.8250 C   0  0  0  0  0  0
   -5.1540   11.1790   -1.7530 C   0  0  0  0  0  0
   -3.9830   11.1380   -1.3180 O   0  0  0  0  0  0
   -5.4370   11.5350   -2.9150 O   0  0  0  0  0  0
   -4.4810   10.5490    2.4270 N   0  0  0  0  0  0
   -3.3990    9.8100    3.0650 C   0  0  2  0  0  0
   -3.7200    9.5350    4.5310 C   0  0  0  0  0  0
   -4.2870   10.3810    5.2210 O   0  0  0  0  0  0
   -2.0880   10.5910    2.9560 C   0  0  0  0  0  0
   -2.2100   12.0040    3.4900 C   0  0  0  0  0  0
   -3.0510   12.7660    2.9680 O   0  0  0  0  0  0
   -1.4660   12.3490    4.4320 O   0  0  0  0  0  0
   -3.3500    8.3470    4.9990 N   0  0  0  0  0  0
   -3.5990    7.9610    6.3840 C   0  0  2  0  0  0
   -5.0970    7.9430    6.6840 C   0  0  0  0  0  0
   -5.5470    8.4750    7.6970 O   0  0  0  0  0  0
   -2.8770    8.9180    7.3380 C   0  0  0  0  0  0
   -1.7010    8.2630    8.0330 C   0  0  0  0  0  0
   -1.9270    7.3190    8.8200 O   0  0  0  0  0  0
   -0.5520    8.6910    7.7920 O   0  0  0  0  0  0
   -5.8630    7.3220    5.7920 N   0  0  0  0  0  0
   -7.3100    7.2330    5.9600 C   0  0  2  0  0  0
   -7.8750    6.0400    5.1940 C   0  0  0  0  0  0
   -8.6920    5.2840    5.7190 O   0  0  0  0  0  0
   -7.9800    8.5230    5.4840 C   0  0  0  0  0  0
   -9.4500    8.6190    5.8610 C   0  0  0  0  0  0
   -9.6500    9.4500    7.1180 C   0  0  0  0  0  0
  -11.0130    9.3440    7.6320 N   0  0  0  0  0  0
  -11.3660    9.6720    8.8730 C   0  0  0  0  0  0
  -10.4580   10.1240    9.7320 N   0  0  0  0  0  0
  -12.6270    9.5460    9.2590 N   0  0  0  0  0  0
   -7.4340    5.8790    3.9500 N   0  0  0  0  0  0
   -7.8990    4.7790    3.1120 C   0  0  2  0  0  0
   -7.3040    3.4520    3.5720 C   0  0  0  0  0  0
   -7.9330    2.4010    3.4380 O   0  0  0  0  0  0
   -7.5330    5.0400    1.6500 C   0  0  0  0  0  0
   -8.2810    6.2020    1.0350 C   0  0  0  0  0  0
   -7.8950    7.5110    1.2880 C   0  0  0  0  0  0
   -9.3730    5.9880    0.2040 C   0  0  0  0  0  0
   -8.5760    8.5770    0.7290 C   0  0  0  0  0  0
  -10.0580    7.0480   -0.3590 C   0  0  0  0  0  0
   -9.6570    8.3390   -0.0930 C   0  0  0  0  0  0
  -10.3360    9.3960   -0.6530 O   0  0  0  0  0  0
   -6.0920    3.5030    4.1160 N   0  0  0  0  0  0
   -5.4190    2.3010    4.5950 C   0  0  2  0  0  0
   -6.2400    1.6220    5.6860 C   0  0  0  0  0  0
   -6.5270    0.4270    5.6080 O   0  0  0  0  0  0
   -4.0260    2.6460    5.1260 C   0  0  0  0  0  0
   -2.9660    1.5620    4.9170 C   0  0  0  0  0  0
   -2.1240    1.8690    3.6900 C   0  0  0  0  0  0
   -2.0830    1.4320    6.1510 C   0  0  0  0  0  0
   -6.6180    2.3910    6.7020 N   0  0  0  0  0  0
   -7.4110    1.8670    7.8060 C   0  0  2  0  0  0
   -8.7750    1.3980    7.3140 C   0  0  0  0  0  0
   -9.3500    0.4520    7.8510 O   0  0  0  0  0  0
   -7.5810    2.9310    8.8920 C   0  0  0  0  0  0
   -6.6370    2.7520   10.0700 C   0  0  0  0  0  0
   -6.9280    3.7520   11.1790 C   0  0  0  0  0  0
   -7.7070    3.1550   12.2630 N   0  0  0  0  0  0
   -9.0390    3.1360   12.3020 C   0  0  0  0  0  0
   -9.7500    3.6940   11.3300 N   0  0  0  0  0  0
   -9.6610    2.5620   13.3220 N   0  0  0  0  0  0
   -9.2920    2.0680    6.2880 N   0  0  0  0  0  0
  -10.5900    1.7170    5.7220 C   0  0  2  0  0  0
  -10.6030    0.2630    5.2580 C   0  0  0  0  0  0
  -11.4270   -0.5330    5.7090 O   0  0  0  0  0  0
  -10.9250    2.6440    4.5500 C   0  0  0  0  0  0
  -11.7700    3.8450    4.9470 C   0  0  0  0  0  0
  -13.0540    3.4470    5.6460 C   0  0  0  0  0  0
  -13.9570    2.9120    4.9690 O   0  0  0  0  0  0
  -13.1580    3.6720    6.8700 O   0  0  0  0  0  0
   -9.6850   -0.0760    4.3600 N   0  0  0  0  0  0
   -9.5900   -1.4350    3.8400 C   0  0  2  0  0  0
   -9.0260   -2.3840    4.8930 C   0  0  0  0  0  0
   -9.5070   -3.5060    5.0540 O   0  0  0  0  0  0
   -8.7270   -1.4610    2.5860 C   0  0  0  0  0  0
   -8.0030   -1.9240    5.6060 N   0  0  0  0  0  0
   -7.3690   -2.7270    6.6460 C   0  0  2  0  0  0
   -8.3910   -3.1690    7.6940 C   0  0  0  0  0  0
   -8.5430   -4.3620    7.9660 O   0  0  0  0  0  0
   -6.2250   -1.9400    7.3280 C   0  0  2  0  0  0
   -5.0220   -1.8340    6.3890 C   0  0  0  0  0  0
   -5.8110   -2.5940    8.6410 C   0  0  0  0  0  0
   -3.9330   -0.9200    6.9040 C   0  0  0  0  0  0
   -9.0880   -2.2030    8.2800 N   0  0  0  0  0  0
  -10.0910   -2.4980    9.2940 C   0  0  2  0  0  0
  -11.2580   -3.2670    8.6920 C   0  0  0  0  0  0
  -11.8670   -4.1070    9.3550 O   0  0  0  0  0  0
  -10.5890   -1.2090    9.9480 C   0  0  0  0  0  0
  -10.9440   -1.3710   11.4180 C   0  0  0  0  0  0
  -12.0620   -0.4460   11.8530 C   0  0  0  0  0  0
  -11.9970    0.7670   11.6530 O   0  0  0  0  0  0
  -13.1000   -1.0150   12.4560 N   0  0  0  0  0  0
  -11.5610   -2.9890    7.4260 N   0  0  0  0  0  0
  -12.6510   -3.6770    6.7430 C   0  0  2  0  0  0
  -12.4410   -5.1820    6.8200 C   0  0  0  0  0  0
  -13.3670   -5.9410    7.1050 O   0  0  0  0  0  0
  -12.7440   -3.2290    5.2850 C   0  0  0  0  0  0
  -13.8770   -3.8890    4.5170 C   0  0  0  0  0  0
  -15.0960   -2.9970    4.3980 C   0  0  0  0  0  0
  -14.9290   -1.7590    4.3940 O   0  0  0  0  0  0
  -16.2200   -3.5360    4.3080 O   0  0  0  0  0  0
  -11.2040   -5.6000    6.5900 N   0  0  0  0  0  0
  -10.8570   -7.0110    6.6590 C   0  0  2  0  0  0
  -10.8710   -7.4630    8.1090 C   0  0  0  0  0  0
  -11.2580   -8.5890    8.4170 O   0  0  0  0  0  0
   -9.4840   -7.2620    6.0360 C   0  0  0  0  0  0
   -9.1550   -8.7280    5.8600 C   0  0  0  0  0  0
   -9.9090   -9.5330    5.0160 C   0  0  0  0  0  0
   -8.0910   -9.3060    6.5390 C   0  0  0  0  0  0
   -9.6120  -10.8720    4.8530 C   0  0  0  0  0  0
   -7.7860  -10.6450    6.3810 C   0  0  0  0  0  0
   -8.5490  -11.4240    5.5370 C   0  0  0  0  0  0
   -8.2490  -12.7570    5.3770 O   0  0  0  0  0  0
  -10.4690   -6.5610    9.0040 N   0  0  0  0  0  0
  -10.4640   -6.8630   10.4260 C   0  0  2  0  0  0
  -11.8760   -7.2120   10.8840 C   0  0  0  0  0  0
  -12.0660   -7.9980   11.8120 O   0  0  0  0  0  0
   -9.9320   -5.6710   11.2250 C   0  0  0  0  0  0
   -9.3340   -6.0870   12.5540 C   0  0  0  0  0  0
   -8.6440   -7.1270   12.5960 O   0  0  0  0  0  0
   -9.5550   -5.3720   13.5550 O   0  0  0  0  0  0
  -12.8650   -6.6270   10.2110 N   0  0  0  0  0  0
  -14.2630   -6.8770   10.5300 C   0  0  2  0  0  0
  -14.7400   -8.1700    9.8780 C   0  0  0  0  0  0
  -15.5410   -8.9080   10.4510 O   0  0  0  0  0  0
  -15.1330   -5.7080   10.0640 C   0  0  0  0  0  0
  -14.8050   -4.4170   10.7890 C   0  0  0  0  0  0
  -14.2170   -3.5020   10.2140 O   0  0  0  0  0  0
  -15.1850   -4.3380   12.0590 N   0  0  0  0  0  0
  -14.2410   -8.4400    8.6730 N   0  0  0  0  0  0
  -14.6180   -9.6440    7.9460 C   0  0  2  0  0  0
  -14.0840  -10.8950    8.6410 C   0  0  0  0  0  0
  -14.7420  -11.9350    8.6590 O   0  0  0  0  0  0
  -14.0990   -9.6050    6.4940 C   0  0  2  0  0  0
  -14.6160   -8.3540    5.7820 C   0  0  0  0  0  0
  -14.5200  -10.8590    5.7410 C   0  0  0  0  0  0
  -13.6670   -7.8230    4.7290 C   0  0  0  0  0  0
  -12.8890  -10.7840    9.2100 N   0  0  0  0  0  0
  -12.2660  -11.9050    9.9070 C   0  0  2  0  0  0
  -12.1550  -13.1270    9.0010 C   0  0  0  0  0  0
  -12.3150  -14.2610    9.4510 O   0  0  0  0  0  0
  -13.0510  -12.2470   11.1630 C   0  0  0  0  0  0
  -11.8800  -12.8870    7.7230 N   0  0  0  0  0  0
  -11.7500  -13.9690    6.7540 C   0  0  2  0  0  0
  -10.3020  -14.4400    6.6550 C   0  0  0  0  0  0
  -10.0510  -15.4290    5.9330 O   0  0  0  0  0  0
  -12.2480  -13.5140    5.3810 C   0  0  0  0  0  0
  -13.7030  -13.8640    5.1150 C   0  0  0  0  0  0
  -13.8550  -15.3050    4.6530 C   0  0  0  0  0  0
  -14.3580  -16.2000    5.7730 C   0  0  0  0  0  0
  -14.6500  -17.5790    5.2940 N   0  3  0  0  0  0
   -9.4320  -13.8160    7.2970 O   0  0  0  0  0  0
   -5.4931   12.8175    1.7951 H   0  0  0  0  0  0
   -6.5504   13.1560    0.3829 H   0  0  0  0  0  0
   -4.8074   12.7995    0.1349 H   0  0  0  0  0  0
   -6.8979   10.9952    1.2488 H   0  0  0  0  0  0
   -6.4195    9.6896   -0.9070 H   0  0  0  0  0  0
   -7.1971   11.2886   -1.1621 H   0  0  0  0  0  0
   -3.1439   11.4235   -1.9695 H   0  0  0  0  0  0
   -5.0113   11.3366    2.9824 H   0  0  0  0  0  0
   -3.3288    8.8594    2.5160 H   0  0  0  0  0  0
   -1.3057   10.0765    3.5333 H   0  0  0  0  0  0
   -1.7843   10.6523    1.9005 H   0  0  0  0  0  0
   -3.1616   13.7970    3.3351 H   0  0  0  0  0  0
   -2.8453    7.6483    4.3155 H   0  0  0  0  0  0
   -3.1942    6.9432    6.4846 H   0  0  0  0  0  0
   -2.4988    9.7828    6.7731 H   0  0  0  0  0  0
   -3.5788    9.2637    8.1113 H   0  0  0  0  0  0
   -1.0930    6.8240    9.3391 H   0  0  0  0  0  0
   -5.3826    6.8694    4.9120 H   0  0  0  0  0  0
   -7.4722    7.0907    7.0386 H   0  0  0  0  0  0
   -7.4687    9.3883    5.9310 H   0  0  0  0  0  0
   -7.9169    8.5860    4.3876 H   0  0  0  0  0  0
  -10.0092    9.0906    5.0395 H   0  0  0  0  0  0
   -9.8483    7.6101    6.0438 H   0  0  0  0  0  0
   -8.9595    9.1028    7.9007 H   0  0  0  0  0  0
   -9.4484   10.5079    6.8941 H   0  0  0  0  0  0
  -11.8192    8.9749    6.9810 H   0  0  0  0  0  0
   -9.4092   10.2311    9.4181 H   0  0  0  0  0  0
  -10.7553   10.3910   10.7568 H   0  0  0  0  0  0
  -13.3835    9.1725    8.5532 H   0  0  0  0  0  0
   -6.7017    6.5991    3.5560 H   0  0  0  0  0  0
   -8.9915    4.7530    3.2376 H   0  0  0  0  0  0
   -6.4589    5.2653    1.5755 H   0  0  0  0  0  0
   -7.7629    4.1475    1.0495 H   0  0  0  0  0  0
   -7.0411    7.7019    1.9380 H   0  0  0  0  0  0
   -9.6947    4.9682   -0.0074 H   0  0  0  0  0  0
   -8.2600    9.5992    0.9370 H   0  0  0  0  0  0
  -10.9120    6.8635   -1.0108 H   0  0  0  0  0  0
  -10.0179   10.4277   -0.4423 H   0  0  0  0  0  0
   -5.5966    4.4815    4.2006 H   0  0  0  0  0  0
   -5.3418    1.6374    3.7211 H   0  0  0  0  0  0
   -3.6549    3.5503    4.6214 H   0  0  0  0  0  0
   -4.0811    2.8272    6.2096 H   0  0  0  0  0  0
   -3.4733    0.6000    4.7522 H   0  0  0  0  0  0
   -2.7777    1.9592    2.8099 H   0  0  0  0  0  0
   -1.4015    1.0555    3.5282 H   0  0  0  0  0  0
   -1.5833    2.8145    3.8436 H   0  0  0  0  0  0
   -2.7089    1.2101    7.0280 H   0  0  0  0  0  0
   -1.5421    2.3755    6.3158 H   0  0  0  0  0  0
   -1.3603    0.6165    6.0005 H   0  0  0  0  0  0
   -6.3165    3.4488    6.6949 H   0  0  0  0  0  0
   -6.8433    1.0097    8.1967 H   0  0  0  0  0  0
   -7.3882    3.9258    8.4640 H   0  0  0  0  0  0
   -8.6079    2.8935    9.2846 H   0  0  0  0  0  0
   -6.7500    1.7373   10.4795 H   0  0  0  0  0  0
   -5.5998    2.8985    9.7343 H   0  0  0  0  0  0
   -5.9802    4.1199   11.5989 H   0  0  0  0  0  0
   -7.5003    4.5975   10.7695 H   0  0  0  0  0  0
   -7.1938    2.6840   13.1143 H   0  0  0  0  0  0
   -9.2402    4.1721   10.4805 H   0  0  0  0  0  0
  -10.8490    3.6784   11.3739 H   0  0  0  0  0  0
   -9.0779    2.0977   14.1310 H   0  0  0  0  0  0
   -8.7160    2.9047    5.8659 H   0  0  0  0  0  0
  -11.3149    1.8513    6.5384 H   0  0  0  0  0  0
   -9.9936    3.0287    4.1090 H   0  0  0  0  0  0
  -11.4872    2.0837    3.7884 H   0  0  0  0  0  0
  -11.1966    4.4863    5.6325 H   0  0  0  0  0  0
  -12.0384    4.4180    4.0472 H   0  0  0  0  0  0
  -14.9002    2.6124    5.4492 H   0  0  0  0  0  0
   -8.9859    0.6973    4.0089 H   0  0  0  0  0  0
  -10.6200   -1.7319    3.5933 H   0  0  0  0  0  0
   -9.1466   -0.7725    1.8378 H   0  0  0  0  0  0
   -8.7076   -2.4813    2.1753 H   0  0  0  0  0  0
   -7.7032   -1.1480    2.8389 H   0  0  0  0  0  0
   -7.6359   -0.9088    5.3945 H   0  0  0  0  0  0
   -6.9762   -3.6077    6.1167 H   0  0  0  0  0  0
   -6.5840   -0.9268    7.5617 H   0  0  0  0  0  0
   -4.5769   -2.8302    6.2495 H   0  0  0  0  0  0
   -5.3500   -1.4394    5.4160 H   0  0  0  0  0  0
   -6.6838   -2.6644    9.3068 H   0  0  0  0  0  0
   -5.0303   -1.9870    9.1228 H   0  0  0  0  0  0
   -5.4201   -3.6026    8.4410 H   0  0  0  0  0  0
   -3.1046   -0.8929    6.1808 H   0  0  0  0  0  0
   -3.5646   -1.2965    7.8697 H   0  0  0  0  0  0
   -4.3377    0.0943    7.0362 H   0  0  0  0  0  0
   -8.8944   -1.1613    7.9845 H   0  0  0  0  0  0
   -9.5796   -3.1275   10.0371 H   0  0  0  0  0  0
   -9.8069   -0.4383    9.8816 H   0  0  0  0  0  0
  -11.4932   -0.8596    9.4280 H   0  0  0  0  0  0
  -11.2695   -2.4050   11.6048 H   0  0  0  0  0  0
  -10.0614   -1.1473   12.0352 H   0  0  0  0  0  0
  -13.1155   -2.1035   12.6138 H   0  0  0  0  0  0
  -13.9440   -0.3976   12.7975 H   0  0  0  0  0  0
  -10.9735   -2.2259    6.8944 H   0  0  0  0  0  0
  -13.5715   -3.3956    7.2753 H   0  0  0  0  0  0
  -12.9096   -2.1423    5.2452 H   0  0  0  0  0  0
  -11.8068   -3.4764    4.7649 H   0  0  0  0  0  0
  -13.5367   -4.1339    3.5000 H   0  0  0  0  0  0
  -14.1819   -4.8110    5.0336 H   0  0  0  0  0  0
  -17.1229   -2.9138    4.2204 H   0  0  0  0  0  0
  -10.4329   -4.8554    6.3429 H   0  0  0  0  0  0
  -11.6252   -7.5484    6.0836 H   0  0  0  0  0  0
   -9.4421   -6.7952    5.0408 H   0  0  0  0  0  0
   -8.7046   -6.8263    6.6785 H   0  0  0  0  0  0
  -10.7495   -9.1007    4.4730 H   0  0  0  0  0  0
   -7.4860   -8.6938    7.2078 H   0  0  0  0  0  0
  -10.2147  -11.4895    4.1870 H   0  0  0  0  0  0
   -6.9465  -11.0829    6.9209 H   0  0  0  0  0  0
   -8.8562  -13.3805    4.7043 H   0  0  0  0  0  0
  -10.1371   -5.5737    8.6502 H   0  0  0  0  0  0
   -9.7956   -7.7277   10.5506 H   0  0  0  0  0  0
   -9.1488   -5.1610   10.6449 H   0  0  0  0  0  0
  -10.7542   -4.9689   11.4274 H   0  0  0  0  0  0
   -9.1339   -5.6492   14.5327 H   0  0  0  0  0  0
  -12.6018   -5.9386    9.3944 H   0  0  0  0  0  0
  -14.3019   -6.9730   11.6251 H   0  0  0  0  0  0
  -14.9777   -5.5416    8.9878 H   0  0  0  0  0  0
  -16.1917   -5.9419   10.2498 H   0  0  0  0  0  0
  -15.7085   -5.1830   12.5300 H   0  0  0  0  0  0
  -14.9763   -3.4275   12.6399 H   0  0  0  0  0  0
  -13.5290   -7.7292    8.2282 H   0  0  0  0  0  0
  -15.7177   -9.6378    7.9691 H   0  0  0  0  0  0
  -12.9995   -9.5733    6.5038 H   0  0  0  0  0  0
  -15.5680   -8.5841    5.2813 H   0  0  0  0  0  0
  -14.7734   -7.5518    6.5180 H   0  0  0  0  0  0
  -14.1400  -11.7473    6.2668 H   0  0  0  0  0  0
  -14.1064  -10.8310    4.7221 H   0  0  0  0  0  0
  -15.6179  -10.9048    5.6900 H   0  0  0  0  0  0
  -14.1022   -6.9276    4.2612 H   0  0  0  0  0  0
  -13.5019   -8.5939    3.9619 H   0  0  0  0  0  0
  -12.7073   -7.5616    5.1987 H   0  0  0  0  0  0
  -12.3676   -9.8175    9.1465 H   0  0  0  0  0  0
  -11.2569  -11.5603   10.1770 H   0  0  0  0  0  0
  -13.1220  -11.3565   11.8049 H   0  0  0  0  0  0
  -12.5373  -13.0523   11.7086 H   0  0  0  0  0  0
  -14.0618  -12.5797   10.8844 H   0  0  0  0  0  0
  -11.7499  -11.8429    7.4023 H   0  0  0  0  0  0
  -12.3782  -14.7856    7.1393 H   0  0  0  0  0  0
   -9.0175  -15.7939    5.8400 H   0  0  0  0  0  0
  -12.1530  -12.4211    5.3002 H   0  0  0  0  0  0
  -11.6459  -13.9935    4.5952 H   0  0  0  0  0  0
  -14.2867  -13.7312    6.0379 H   0  0  0  0  0  0
  -14.1016  -13.2035    4.3309 H   0  0  0  0  0  0
  -14.5748  -15.3497    3.8224 H   0  0  0  0  0  0
  -12.8803  -15.6863    4.3145 H   0  0  0  0  0  0
  -13.5943  -16.2643    6.5620 H   0  0  0  0  0  0
  -15.2834  -15.7781    6.1920 H   0  0  0  0  0  0
  -15.0101  -18.1905    6.1345 H   0  0  0  0  0  0
  -13.7332  -18.0258    4.8819 H   0  0  0  0  0  0
  -15.4224  -17.5396    4.5118 H   0  0  0  0  0  0
  1  2  1  0  0  0
  1158  1  0  0  0
  1159  1  0  0  0
  1160  1  0  0  0
  2  3  1  0  0  0
  2  5  1  0  0  0
  2161  1  0  0  0
  3  4  2  0  0  0
  3  9  1  0  0  0
  5  6  1  0  0  0
  5162  1  0  0  0
  5163  1  0  0  0
  6  7  1  0  0  0
  6  8  2  0  0  0
  7164  1  0  0  0
  9 10  1  0  0  0
  9165  1  0  0  0
 10 11  1  0  0  0
 10 13  1  0  0  0
 10166  1  0  0  0
 11 12  2  0  0  0
 11 17  1  0  0  0
 13 14  1  0  0  0
 13167  1  0  0  0
 13168  1  0  0  0
 14 15  1  0  0  0
 14 16  2  0  0  0
 15169  1  0  0  0
 17 18  1  0  0  0
 17170  1  0  0  0
 18 19  1  0  0  0
 18 21  1  0  0  0
 18171  1  0  0  0
 19 20  2  0  0  0
 19 25  1  0  0  0
 21 22  1  0  0  0
 21172  1  0  0  0
 21173  1  0  0  0
 22 23  1  0  0  0
 22 24  2  0  0  0
 23174  1  0  0  0
 25 26  1  0  0  0
 25175  1  0  0  0
 26 27  1  0  0  0
 26 29  1  0  0  0
 26176  1  0  0  0
 27 28  2  0  0  0
 27 36  1  0  0  0
 29 30  1  0  0  0
 29177  1  0  0  0
 29178  1  0  0  0
 30 31  1  0  0  0
 30179  1  0  0  0
 30180  1  0  0  0
 31 32  1  0  0  0
 31181  1  0  0  0
 31182  1  0  0  0
 32 33  1  0  0  0
 32183  1  0  0  0
 33 34  1  0  0  0
 33 35  2  0  0  0
 34184  1  0  0  0
 34185  1  0  0  0
 35186  1  0  0  0
 36 37  1  0  0  0
 36187  1  0  0  0
 37 38  1  0  0  0
 37 40  1  0  0  0
 37188  1  0  0  0
 38 39  2  0  0  0
 38 48  1  0  0  0
 40 41  1  0  0  0
 40189  1  0  0  0
 40190  1  0  0  0
 41 42  2  0  0  0
 41 43  1  0  0  0
 42 44  1  0  0  0
 42191  1  0  0  0
 43 45  2  0  0  0
 43192  1  0  0  0
 44 46  2  0  0  0
 44193  1  0  0  0
 45 46  1  0  0  0
 45194  1  0  0  0
 46 47  1  0  0  0
 47195  1  0  0  0
 48 49  1  0  0  0
 48196  1  0  0  0
 49 50  1  0  0  0
 49 52  1  0  0  0
 49197  1  0  0  0
 50 51  2  0  0  0
 50 56  1  0  0  0
 52 53  1  0  0  0
 52198  1  0  0  0
 52199  1  0  0  0
 53 54  1  0  0  0
 53 55  1  0  0  0
 53200  1  0  0  0
 54201  1  0  0  0
 54202  1  0  0  0
 54203  1  0  0  0
 55204  1  0  0  0
 55205  1  0  0  0
 55206  1  0  0  0
 56 57  1  0  0  0
 56207  1  0  0  0
 57 58  1  0  0  0
 57 60  1  0  0  0
 57208  1  0  0  0
 58 59  2  0  0  0
 58 67  1  0  0  0
 60 61  1  0  0  0
 60209  1  0  0  0
 60210  1  0  0  0
 61 62  1  0  0  0
 61211  1  0  0  0
 61212  1  0  0  0
 62 63  1  0  0  0
 62213  1  0  0  0
 62214  1  0  0  0
 63 64  1  0  0  0
 63215  1  0  0  0
 64 65  1  0  0  0
 64 66  2  0  0  0
 65216  1  0  0  0
 65217  1  0  0  0
 66218  1  0  0  0
 67 68  1  0  0  0
 67219  1  0  0  0
 68 69  1  0  0  0
 68 71  1  0  0  0
 68220  1  0  0  0
 69 70  2  0  0  0
 69 76  1  0  0  0
 71 72  1  0  0  0
 71221  1  0  0  0
 71222  1  0  0  0
 72 73  1  0  0  0
 72223  1  0  0  0
 72224  1  0  0  0
 73 74  1  0  0  0
 73 75  2  0  0  0
 74225  1  0  0  0
 76 77  1  0  0  0
 76226  1  0  0  0
 77 78  1  0  0  0
 77 80  1  0  0  0
 77227  1  0  0  0
 78 79  2  0  0  0
 78 81  1  0  0  0
 80228  1  0  0  0
 80229  1  0  0  0
 80230  1  0  0  0
 81 82  1  0  0  0
 81231  1  0  0  0
 82 83  1  0  0  0
 82 85  1  0  0  0
 82232  1  0  0  0
 83 84  2  0  0  0
 83 89  1  0  0  0
 85 86  1  0  0  0
 85 87  1  0  0  0
 85233  1  0  0  0
 86 88  1  0  0  0
 86234  1  0  0  0
 86235  1  0  0  0
 87236  1  0  0  0
 87237  1  0  0  0
 87238  1  0  0  0
 88239  1  0  0  0
 88240  1  0  0  0
 88241  1  0  0  0
 89 90  1  0  0  0
 89242  1  0  0  0
 90 91  1  0  0  0
 90 93  1  0  0  0
 90243  1  0  0  0
 91 92  2  0  0  0
 91 98  1  0  0  0
 93 94  1  0  0  0
 93244  1  0  0  0
 93245  1  0  0  0
 94 95  1  0  0  0
 94246  1  0  0  0
 94247  1  0  0  0
 95 96  2  0  0  0
 95 97  1  0  0  0
 97248  1  0  0  0
 97249  1  0  0  0
 98 99  1  0  0  0
 98250  1  0  0  0
 99100  1  0  0  0
 99102  1  0  0  0
 99251  1  0  0  0
100101  2  0  0  0
100107  1  0  0  0
102103  1  0  0  0
102252  1  0  0  0
102253  1  0  0  0
103104  1  0  0  0
103254  1  0  0  0
103255  1  0  0  0
104105  2  0  0  0
104106  1  0  0  0
106256  1  0  0  0
107108  1  0  0  0
107257  1  0  0  0
108109  1  0  0  0
108111  1  0  0  0
108258  1  0  0  0
109110  2  0  0  0
109119  1  0  0  0
111112  1  0  0  0
111259  1  0  0  0
111260  1  0  0  0
112113  2  0  0  0
112114  1  0  0  0
113115  1  0  0  0
113261  1  0  0  0
114116  2  0  0  0
114262  1  0  0  0
115117  2  0  0  0
115263  1  0  0  0
116117  1  0  0  0
116264  1  0  0  0
117118  1  0  0  0
118265  1  0  0  0
119120  1  0  0  0
119266  1  0  0  0
120121  1  0  0  0
120123  1  0  0  0
120267  1  0  0  0
121122  2  0  0  0
121127  1  0  0  0
123124  1  0  0  0
123268  1  0  0  0
123269  1  0  0  0
124125  2  0  0  0
124126  1  0  0  0
126270  1  0  0  0
127128  1  0  0  0
127271  1  0  0  0
128129  1  0  0  0
128131  1  0  0  0
128272  1  0  0  0
129130  2  0  0  0
129135  1  0  0  0
131132  1  0  0  0
131273  1  0  0  0
131274  1  0  0  0
132133  2  0  0  0
132134  1  0  0  0
134275  1  0  0  0
134276  1  0  0  0
135136  1  0  0  0
135277  1  0  0  0
136137  1  0  0  0
136139  1  0  0  0
136278  1  0  0  0
137138  2  0  0  0
137143  1  0  0  0
139140  1  0  0  0
139141  1  0  0  0
139279  1  0  0  0
140142  1  0  0  0
140280  1  0  0  0
140281  1  0  0  0
141282  1  0  0  0
141283  1  0  0  0
141284  1  0  0  0
142285  1  0  0  0
142286  1  0  0  0
142287  1  0  0  0
143144  1  0  0  0
143288  1  0  0  0
144145  1  0  0  0
144147  1  0  0  0
144289  1  0  0  0
145146  2  0  0  0
145148  1  0  0  0
147290  1  0  0  0
147291  1  0  0  0
147292  1  0  0  0
148149  1  0  0  0
148293  1  0  0  0
149150  1  0  0  0
149152  1  0  0  0
149294  1  0  0  0
150151  1  0  0  0
150157  2  0  0  0
151295  1  0  0  0
152153  1  0  0  0
152296  1  0  0  0
152297  1  0  0  0
153154  1  0  0  0
153298  1  0  0  0
153299  1  0  0  0
154155  1  0  0  0
154300  1  0  0  0
154301  1  0  0  0
155156  1  0  0  0
155302  1  0  0  0
155303  1  0  0  0
156304  1  0  0  0
156305  1  0  0  0
156306  1  0  0  0
M  CHG  2   1   1 156   1
M  END
> <s_m_source_file>
../2kbr_ligand.sdf

> <i_m_source_file_index>
1

> <s_epik_input>
W09IXUMoPU8pW0NIMl1bQ0BIXShbTkgzK10pQyg9TylbTkhdW0NAQEhdKFtDSDJdQyg9TylbT0hdKUMoPU8pW05IXVtDQEBIXShbQ0gyXUMoPU8pW09IXSlDKD1PKVtOSF1bQ0BASF0oW0NIMl1bQ0gyXVtDSDJdW05IXS9DKFtOSDJdKT1OXFtIXSlDKD1PKVtOSF1bQ0BASF0oW0NIMl1jMVtjSF1bY0hdYyhbT0hdKVtjSF1bY0hdMSlDKD1PKVtOSF1bQ0BASF0oW0NIMl1bQ0hdKFtDSDNdKVtDSDNdKUMoPU8pW05IXVtDQEBIXShbQ0gyXVtDSDJdW0NIMl1bTkhdL0MoW05IMl0pPU5cW0hdKUMoPU8pW05IXVtDQEBIXShbQ0gyXVtDSDJdQyg9TylbT0hdKUMoPU8pW05IXVtDQEBIXShbQ0gzXSlDKD1PKVtOSF1bQ0BASF0oW0NAQEhdKFtDSDNdKVtDSDJdW0NIM10pQyg9TylbTkhdW0NAQEhdKFtDSDJdW0NIMl1DKD1PKVtOSDJdKUMoPU8pW05IXVtDQEBIXShbQ0gyXVtDSDJdQyg9TylbT0hdKUMoPU8pW05IXVtDQEBIXShbQ0gyXWMyW2NIXVtjSF1jKFtPSF0pW2NIXVtjSF0yKUMoPU8pW05IXVtDQEBIXShbQ0gyXUMoPU8pW09IXSlDKD1PKVtOSF1bQ0BASF0oW0NIMl1DKD1PKVtOSDJdKUMoPU8pW05IXVtDQEBIXShbQ0BASF0oW0NIM10pW0NIMl1bQ0gzXSlDKD1PKVtOSF1bQ0BASF0oW0NIM10pQyg9TylbTkhdW0NASF0oQyg9TylbT0hdKVtDSDJdW0NIMl1bQ0gyXVtDSDJdW05IMytd

> <s_epik_cmdline>
J2VwaWtfYXBwJywgJy1pbWFlJywgJ2xpZ2FuZF9wcm8ubWFlJywgJy1vbWFlJywgJ2xpZ2FuZF9wcmVwLm1hZScsICctbXMnLCAnMScsICctcGgnLCAnNycsICctcGh0JywgJzAuNScsICctbnQn

> <s_epik_pKa_notes>
Molecule size exceeds maximum supported for generating protonation states

> <s_epik_Chemistry_Notes>
This compound has an imine and may undergo hydrolysis.

$$$$
