2kbs_ligand
                    3D
 Schrodinger Suite 2020-3.
132132  0  0  1  0            999 V2000
   -4.4240  -13.1550   12.5840 N   0  3  0  0  0  0
   -4.3630  -11.8180   13.1620 C   0  0  2  0  0  0
   -4.1580  -10.7640   12.0770 C   0  0  0  0  0  0
   -3.5330  -11.0300   11.0500 O   0  0  0  0  0  0
   -3.2310  -11.7340   14.1890 C   0  0  2  0  0  0
   -2.0020  -12.1410   13.6150 O   0  0  0  0  0  0
   -3.4730  -12.5870   15.4150 C   0  0  0  0  0  0
   -4.6840   -9.5450   12.2900 N   0  0  0  0  0  0
   -4.5560   -8.4490   11.3250 C   0  0  2  0  0  0
   -3.1030   -8.1770   10.9480 C   0  0  0  0  0  0
   -2.1910   -8.4080   11.7430 O   0  0  0  0  0  0
   -5.1470   -7.2460   12.0630 C   0  0  0  0  0  0
   -6.0670   -7.8360   13.0770 C   0  0  0  0  0  0
   -5.4440   -9.1410   13.4870 C   0  0  0  0  0  0
   -2.8940   -7.6830    9.7320 N   0  0  0  0  0  0
   -1.5530   -7.3770    9.2510 C   0  0  2  0  0  0
   -1.1040   -6.0010    9.7300 C   0  0  0  0  0  0
   -1.9280   -5.1270   10.0010 O   0  0  0  0  0  0
   -1.5100   -7.4390    7.7230 C   0  0  0  0  0  0
   -1.9830   -8.7600    7.1140 C   0  0  0  0  0  0
   -2.6680   -8.5140    5.7770 C   0  0  0  0  0  0
   -0.8130   -9.7180    6.9470 C   0  0  0  0  0  0
    0.2080   -5.8120    9.8310 N   0  0  0  0  0  0
    0.7650   -4.5400   10.2770 C   0  0  2  0  0  0
    0.3840   -3.4140    9.3220 C   0  0  0  0  0  0
    0.2170   -3.6340    8.1230 O   0  0  0  0  0  0
    2.2880   -4.6370   10.3890 C   0  0  0  0  0  0
    2.7610   -5.7590   11.3010 C   0  0  0  0  0  0
    3.7130   -5.2760   12.3760 C   0  0  0  0  0  0
    4.9280   -5.1980   12.1020 O   0  0  0  0  0  0
    3.2430   -4.9740   13.4940 O   0  5  0  0  0  0
    0.2500   -2.2080    9.8620 N   0  0  0  0  0  0
   -0.1090   -1.0470    9.0580 C   0  0  2  0  0  0
    0.7460    0.1620    9.4240 C   0  0  0  0  0  0
    1.2140    0.2830   10.5560 O   0  0  0  0  0  0
   -1.5960   -0.6810    9.2310 C   0  0  2  0  0  0
   -2.4710   -1.9230    9.0580 C   0  0  0  0  0  0
   -1.9950    0.3980    8.2350 C   0  0  0  0  0  0
   -3.9250   -1.6920    9.4140 C   0  0  0  0  0  0
    0.9450    1.0540    8.4600 N   0  0  0  0  0  0
    1.7440    2.2540    8.6820 C   0  0  2  0  0  0
    1.0520    3.4840    8.1040 C   0  0  0  0  0  0
    0.3440    3.3950    7.1020 O   0  0  0  0  0  0
    3.1290    2.0910    8.0550 C   0  0  2  0  0  0
    3.7360    0.8870    8.4850 O   0  0  0  0  0  0
    4.0730    3.2260    8.3880 C   0  0  0  0  0  0
    1.2620    4.6300    8.7420 N   0  0  0  0  0  0
    0.6570    5.8770    8.2900 C   0  0  2  0  0  0
    1.6730    6.7340    7.5400 C   0  0  0  0  0  0
    2.7670    6.9990    8.0380 O   0  0  0  0  0  0
    0.0930    6.6560    9.4840 C   0  0  0  0  0  0
   -1.4190    6.8010    9.4540 C   0  0  0  0  0  0
   -1.8810    8.1800    9.8780 C   0  0  0  0  0  0
   -1.4190    8.6630   10.9320 O   0  0  0  0  0  0
   -2.7060    8.7780    9.1550 O   0  5  0  0  0  0
    1.3030    7.1620    6.3370 N   0  0  0  0  0  0
    2.1800    7.9870    5.5160 C   0  0  2  0  0  0
    1.5320    9.3340    5.2120 C   0  0  0  0  0  0
    0.4140    9.5780    5.7120 O   0  0  0  0  0  0
    2.5220    7.2660    4.2110 C   0  0  0  0  0  0
    2.8470    5.7790    4.3590 C   0  0  0  0  0  0
    3.0080    5.1280    2.9940 C   0  0  0  0  0  0
    4.1050    5.5900    5.1930 C   0  0  0  0  0  0
    2.1470   10.1330    4.4740 O   0  5  0  0  0  0
   -5.2411  -13.1997   11.8489 H   0  0  0  0  0  0
   -4.6069  -13.8909   13.3808 H   0  0  0  0  0  0
   -3.4700  -13.3831   12.0861 H   0  0  0  0  0  0
   -5.3380  -11.6659   13.6480 H   0  0  0  0  0  0
   -3.1173  -10.6801   14.4830 H   0  0  0  0  0  0
   -1.6297  -11.6473   12.7052 H   0  0  0  0  0  0
   -4.4236  -12.2933   15.8842 H   0  0  0  0  0  0
   -2.6505  -12.4418   16.1308 H   0  0  0  0  0  0
   -3.5208  -13.6460   15.1213 H   0  0  0  0  0  0
   -5.0728   -8.7159   10.3914 H   0  0  0  0  0  0
   -4.3365   -6.6703   12.5338 H   0  0  0  0  0  0
   -5.6846   -6.6054   11.3484 H   0  0  0  0  0  0
   -6.1570   -7.1510   13.9329 H   0  0  0  0  0  0
   -7.0582   -7.9918   12.6262 H   0  0  0  0  0  0
   -6.1949   -9.9099   13.7213 H   0  0  0  0  0  0
   -4.7558   -9.0292   14.3378 H   0  0  0  0  0  0
   -3.7647   -7.5059    9.0835 H   0  0  0  0  0  0
   -0.9022   -8.1496    9.6864 H   0  0  0  0  0  0
   -2.1552   -6.6518    7.3058 H   0  0  0  0  0  0
   -0.4764   -7.2866    7.3788 H   0  0  0  0  0  0
   -2.7120   -9.2234    7.7950 H   0  0  0  0  0  0
   -3.5097   -7.8201    5.9185 H   0  0  0  0  0  0
   -3.0422   -9.4674    5.3758 H   0  0  0  0  0  0
   -1.9470   -8.0767    5.0706 H   0  0  0  0  0  0
   -0.3319   -9.8828    7.9224 H   0  0  0  0  0  0
   -0.0830   -9.2866    6.2463 H   0  0  0  0  0  0
   -1.1782  -10.6773    6.5515 H   0  0  0  0  0  0
    0.8780   -6.6440    9.5685 H   0  0  0  0  0  0
    0.3170   -4.3539   11.2642 H   0  0  0  0  0  0
    2.7180   -4.8197    9.3931 H   0  0  0  0  0  0
    2.6867   -3.6949   10.7933 H   0  0  0  0  0  0
    1.8937   -6.2165   11.7996 H   0  0  0  0  0  0
    3.2847   -6.5204   10.7043 H   0  0  0  0  0  0
    0.4171   -2.0976   10.9436 H   0  0  0  0  0  0
    0.1008   -1.3651    8.0261 H   0  0  0  0  0  0
   -1.7567   -0.2819   10.2434 H   0  0  0  0  0  0
   -2.4371   -2.2521    8.0089 H   0  0  0  0  0  0
   -2.0970   -2.7284    9.7072 H   0  0  0  0  0  0
   -1.3549    1.2815    8.3755 H   0  0  0  0  0  0
   -3.0464    0.6772    8.3985 H   0  0  0  0  0  0
   -1.8721    0.0153    7.2111 H   0  0  0  0  0  0
   -4.4911   -2.6235    9.2662 H   0  0  0  0  0  0
   -4.3400   -0.9043    8.7680 H   0  0  0  0  0  0
   -3.9998   -1.3805   10.4663 H   0  0  0  0  0  0
    0.4902    0.8704    7.4754 H   0  0  0  0  0  0
    1.8251    2.3558    9.7743 H   0  0  0  0  0  0
    2.9989    2.0173    6.9652 H   0  0  0  0  0  0
    3.2180   -0.0725    8.3399 H   0  0  0  0  0  0
    3.6287    4.1791    8.0652 H   0  0  0  0  0  0
    5.0295    3.0722    7.8669 H   0  0  0  0  0  0
    4.2469    3.2516    9.4739 H   0  0  0  0  0  0
    1.9099    4.6235    9.6310 H   0  0  0  0  0  0
   -0.1509    5.5797    7.6052 H   0  0  0  0  0  0
    0.3553    6.1367   10.4175 H   0  0  0  0  0  0
    0.5206    7.6694    9.4956 H   0  0  0  0  0  0
   -1.7843    6.6221    8.4320 H   0  0  0  0  0  0
   -1.8713    6.0683   10.1385 H   0  0  0  0  0  0
    0.3074    6.8786    5.9650 H   0  0  0  0  0  0
    3.0867    8.1395    6.1199 H   0  0  0  0  0  0
    1.6689    7.3343    3.5199 H   0  0  0  0  0  0
    3.4041    7.7367    3.7523 H   0  0  0  0  0  0
    2.0119    5.2851    4.8773 H   0  0  0  0  0  0
    2.0895    5.2753    2.4069 H   0  0  0  0  0  0
    3.1933    4.0512    3.1209 H   0  0  0  0  0  0
    3.8576    5.5867    2.4669 H   0  0  0  0  0  0
    3.9691    6.0670    6.1748 H   0  0  0  0  0  0
    4.9599    6.0509    4.6766 H   0  0  0  0  0  0
    4.2957    4.5154    5.3306 H   0  0  0  0  0  0
  1  2  1  0  0  0
  1 65  1  0  0  0
  1 66  1  0  0  0
  1 67  1  0  0  0
  2  3  1  0  0  0
  2  5  1  0  0  0
  2 68  1  0  0  0
  3  4  2  0  0  0
  3  8  1  0  0  0
  5  6  1  0  0  0
  5  7  1  0  0  0
  5 69  1  0  0  0
  6 70  1  0  0  0
  7 71  1  0  0  0
  7 72  1  0  0  0
  7 73  1  0  0  0
  8  9  1  0  0  0
  8 14  1  0  0  0
  9 10  1  0  0  0
  9 12  1  0  0  0
  9 74  1  0  0  0
 10 11  2  0  0  0
 10 15  1  0  0  0
 12 13  1  0  0  0
 12 75  1  0  0  0
 12 76  1  0  0  0
 13 14  1  0  0  0
 13 77  1  0  0  0
 13 78  1  0  0  0
 14 79  1  0  0  0
 14 80  1  0  0  0
 15 16  1  0  0  0
 15 81  1  0  0  0
 16 17  1  0  0  0
 16 19  1  0  0  0
 16 82  1  0  0  0
 17 18  2  0  0  0
 17 23  1  0  0  0
 19 20  1  0  0  0
 19 83  1  0  0  0
 19 84  1  0  0  0
 20 21  1  0  0  0
 20 22  1  0  0  0
 20 85  1  0  0  0
 21 86  1  0  0  0
 21 87  1  0  0  0
 21 88  1  0  0  0
 22 89  1  0  0  0
 22 90  1  0  0  0
 22 91  1  0  0  0
 23 24  1  0  0  0
 23 92  1  0  0  0
 24 25  1  0  0  0
 24 27  1  0  0  0
 24 93  1  0  0  0
 25 26  2  0  0  0
 25 32  1  0  0  0
 27 28  1  0  0  0
 27 94  1  0  0  0
 27 95  1  0  0  0
 28 29  1  0  0  0
 28 96  1  0  0  0
 28 97  1  0  0  0
 29 30  2  0  0  0
 29 31  1  0  0  0
 32 33  1  0  0  0
 32 98  1  0  0  0
 33 34  1  0  0  0
 33 36  1  0  0  0
 33 99  1  0  0  0
 34 35  2  0  0  0
 34 40  1  0  0  0
 36 37  1  0  0  0
 36 38  1  0  0  0
 36100  1  0  0  0
 37 39  1  0  0  0
 37101  1  0  0  0
 37102  1  0  0  0
 38103  1  0  0  0
 38104  1  0  0  0
 38105  1  0  0  0
 39106  1  0  0  0
 39107  1  0  0  0
 39108  1  0  0  0
 40 41  1  0  0  0
 40109  1  0  0  0
 41 42  1  0  0  0
 41 44  1  0  0  0
 41110  1  0  0  0
 42 43  2  0  0  0
 42 47  1  0  0  0
 44 45  1  0  0  0
 44 46  1  0  0  0
 44111  1  0  0  0
 45112  1  0  0  0
 46113  1  0  0  0
 46114  1  0  0  0
 46115  1  0  0  0
 47 48  1  0  0  0
 47116  1  0  0  0
 48 49  1  0  0  0
 48 51  1  0  0  0
 48117  1  0  0  0
 49 50  2  0  0  0
 49 56  1  0  0  0
 51 52  1  0  0  0
 51118  1  0  0  0
 51119  1  0  0  0
 52 53  1  0  0  0
 52120  1  0  0  0
 52121  1  0  0  0
 53 54  2  0  0  0
 53 55  1  0  0  0
 56 57  1  0  0  0
 56122  1  0  0  0
 57 58  1  0  0  0
 57 60  1  0  0  0
 57123  1  0  0  0
 58 59  2  0  0  0
 58 64  1  0  0  0
 60 61  1  0  0  0
 60124  1  0  0  0
 60125  1  0  0  0
 61 62  1  0  0  0
 61 63  1  0  0  0
 61126  1  0  0  0
 62127  1  0  0  0
 62128  1  0  0  0
 62129  1  0  0  0
 63130  1  0  0  0
 63131  1  0  0  0
 63132  1  0  0  0
M  CHG  4   1   1  31  -1  55  -1  64  -1
M  END
> <s_m_source_file>
../2kbs_ligand.sdf

> <i_m_source_file_index>
1

> <s_epik_input>
W09IXVtDQEhdKFtDSDNdKVtDQEhdKFtOSDMrXSlDKD1PKU4xW0NAQEhdKFtDSDJdW0NIMl1bQ0gyXTEpQyg9TylbTkhdW0NAQEhdKFtDSDJdW0NIXShbQ0gzXSlbQ0gzXSlDKD1PKVtOSF1bQ0BASF0oW0NIMl1bQ0gyXUMoPU8pW09IXSlDKD1PKVtOSF1bQ0BASF0oW0NAQEhdKFtDSDNdKVtDSDJdW0NIM10pQyg9TylbTkhdW0NAQEhdKFtDQEhdKFtPSF0pW0NIM10pQyg9TylbTkhdW0NAQEhdKFtDSDJdW0NIMl1DKD1PKVtPSF0pQyg9TylbTkhdW0NASF0oQyg9TylbT0hdKVtDSDJdW0NIXShbQ0gzXSlbQ0gzXQ==

> <s_epik_cmdline>
J2VwaWtfYXBwJywgJy1pbWFlJywgJ2xpZ2FuZF9wcm8ubWFlJywgJy1vbWFlJywgJ2xpZ2FuZF9wcmVwLm1hZScsICctbXMnLCAnMScsICctcGgnLCAnNycsICctcGh0JywgJzAuNScsICctbnQn

> <r_epik_Ionization_Penalty>
  0.0796

> <r_epik_Ionization_Penalty_Charging>
  0.0796

> <r_epik_Ionization_Penalty_Neutral>
  0.0000

> <r_epik_State_Penalty>
  0.0668

> <r_epik_Charging_Adjusted_Penalty>
0.146432338061037

> <i_epik_Tot_Q>
-2

> <i_epik_Tot_abs_Q>
4

$$$$
