2kce_ligand
                    3D
 Schrodinger Suite 2020-3.
 52 54  0  0  1  0            999 V2000
   13.0940   18.6020   30.5360 N   0  0  0  0  0  0
   12.8010   19.4640   31.5350 C   0  0  0  0  0  0
   11.8020   20.5190   31.3570 C   0  0  0  0  0  0
   13.4430   19.3860   32.7110 N   0  0  0  0  0  0
   14.4030   18.4720   32.9150 C   0  0  0  0  0  0
   15.1670   18.5590   34.0480 O   0  0  0  0  0  0
   14.6480   17.4740   31.9680 C   0  0  0  0  0  0
   15.4940   16.3710   32.2210 C   0  0  0  0  0  0
   15.6880   15.3920   31.2150 C   0  0  0  0  0  0
   15.0600   15.5570   29.9710 C   0  0  0  0  0  0
   14.2170   16.6450   29.7290 C   0  0  0  0  0  0
   13.9840   17.6030   30.7270 C   0  0  0  0  0  0
   16.4250   14.1130   31.4490 C   0  0  0  0  0  0
   16.9930   13.9020   32.8000 N   0  0  0  0  0  0
   14.4710   13.3140   35.5600 C   0  0  0  0  0  0
   14.5570   13.3290   33.8690 S   0  0  0  0  0  0
   16.2460   13.6120   33.8800 C   0  0  0  0  0  0
   16.7030   13.7110   35.1820 C   0  0  0  0  0  0
   15.7100   13.5420   36.1210 C   0  0  0  0  0  0
   13.3290   12.8470   36.3170 C   0  0  0  0  0  0
   12.2590   12.6450   35.7390 O   0  0  0  0  0  0
   13.4740   12.6490   37.6230 N   0  0  0  0  0  0
   12.4520   12.0280   38.4830 C   0  0  1  0  0  0
   12.7210   10.5670   38.8180 C   0  0  0  0  0  0
   13.0200    9.5350   37.7700 C   0  0  0  0  0  0
   13.5120    8.2750   38.4730 C   0  0  0  0  0  0
   12.6980    7.5150   38.9970 O   0  0  0  0  0  0
   14.7220    8.0690   38.5800 O   0  5  0  0  0  0
   12.5840   12.7660   39.8120 C   0  0  0  0  0  0
   13.7130   13.0680   40.2230 O   0  5  0  0  0  0
   11.5650   13.0290   40.4470 O   0  0  0  0  0  0
   18.4420   14.0000   32.9350 C   0  0  0  0  0  0
   11.3700   20.4484   30.3478 H   0  0  0  0  0  0
   12.2800   21.5016   31.4833 H   0  0  0  0  0  0
   11.0053   20.3997   32.1061 H   0  0  0  0  0  0
   13.1844   20.0783   33.5258 H   0  0  0  0  0  0
   15.9945   16.2737   33.1844 H   0  0  0  0  0  0
   15.2323   14.8255   29.1815 H   0  0  0  0  0  0
   13.7363   16.7502   28.7564 H   0  0  0  0  0  0
   15.7482   13.2631   31.2768 H   0  0  0  0  0  0
   17.2774   14.0490   30.7567 H   0  0  0  0  0  0
   17.7447   13.9035   35.4389 H   0  0  0  0  0  0
   15.8851   13.5841   37.1960 H   0  0  0  0  0  0
   14.4290   12.9815   38.0559 H   0  0  0  0  0  0
   11.4962   12.0965   37.9429 H   0  0  0  0  0  0
   13.5989   10.4976   39.4771 H   0  0  0  0  0  0
   11.8448   10.1405   39.3283 H   0  0  0  0  0  0
   12.1058    9.3176   37.1982 H   0  0  0  0  0  0
   13.7956    9.9170   37.0900 H   0  0  0  0  0  0
   18.8857   14.2421   31.9580 H   0  0  0  0  0  0
   18.8428   13.0398   33.2919 H   0  0  0  0  0  0
   18.6902   14.7920   33.6569 H   0  0  0  0  0  0
  1  2  2  0  0  0
  1 12  1  0  0  0
  2  3  1  0  0  0
  2  4  1  0  0  0
  3 33  1  0  0  0
  3 34  1  0  0  0
  3 35  1  0  0  0
  4  5  1  0  0  0
  4 36  1  0  0  0
  5  6  2  0  0  0
  5  7  1  0  0  0
  7  8  2  0  0  0
  7 12  1  0  0  0
  8  9  1  0  0  0
  8 37  1  0  0  0
  9 10  2  0  0  0
  9 13  1  0  0  0
 10 11  1  0  0  0
 10 38  1  0  0  0
 11 12  2  0  0  0
 11 39  1  0  0  0
 13 14  1  0  0  0
 13 40  1  0  0  0
 13 41  1  0  0  0
 14 17  1  0  0  0
 14 32  1  0  0  0
 15 16  1  0  0  0
 15 19  2  0  0  0
 15 20  1  0  0  0
 16 17  1  0  0  0
 17 18  2  0  0  0
 18 19  1  0  0  0
 18 42  1  0  0  0
 19 43  1  0  0  0
 20 21  2  0  0  0
 20 22  1  0  0  0
 22 23  1  0  0  0
 22 44  1  0  0  0
 23 24  1  0  0  0
 23 29  1  0  0  0
 23 45  1  0  0  0
 24 25  1  0  0  0
 24 46  1  0  0  0
 24 47  1  0  0  0
 25 26  1  0  0  0
 25 48  1  0  0  0
 25 49  1  0  0  0
 26 27  2  0  0  0
 26 28  1  0  0  0
 29 30  1  0  0  0
 29 31  2  0  0  0
 32 50  1  0  0  0
 32 51  1  0  0  0
 32 52  1  0  0  0
M  CHG  2  28  -1  30  -1
M  END
> <s_m_source_file>
../2kce_ligand.sdf

> <i_m_source_file_index>
1

> <s_epik_input>
Tz1jMVtuSF1jKFtDSDNdKW5jKGMxMilbY0hdW2NIXWMoW2NIXTIpW0NIMl1OKFtDSDNdKWMoW2NIXVtjSF0zKXNjM0MoPU8pW05IXVtDQEhdKEMoPU8pW09IXSlbQ0gyXVtDSDJdQyg9TylbT0hd

> <s_epik_cmdline>
J2VwaWtfYXBwJywgJy1pbWFlJywgJ2xpZ2FuZF9wcm8ubWFlJywgJy1vbWFlJywgJ2xpZ2FuZF9wcmVwLm1hZScsICctbXMnLCAnMScsICctcGgnLCAnNycsICctcGh0JywgJzAuNScsICctbnQn

> <r_lp_tautomer_probability>
1

> <r_epik_Ionization_Penalty>
  0.0043

> <r_epik_Ionization_Penalty_Charging>
  0.0043

> <r_epik_Ionization_Penalty_Neutral>
  0.0000

> <r_epik_State_Penalty>
 -0.0000

> <r_epik_Charging_Adjusted_Penalty>
0.00433191746367378

> <i_epik_Tot_Q>
-2

> <i_epik_Tot_abs_Q>
2

$$$$
