2kdh_ligand
                    3D
 Schrodinger Suite 2020-3.
 51 54  0  0  1  0            999 V2000
    9.7290    8.0200  -10.4520 O   0  0  0  0  0  0
    8.9990    8.9490   -9.7740 C   0  0  0  0  0  0
    7.9120    9.6100  -10.4460 C   0  0  0  0  0  0
    7.6290    9.2950  -11.7470 O   0  0  0  0  0  0
    7.1120   10.6050   -9.7640 C   0  0  0  0  0  0
    6.0910   11.2100  -10.4360 O   0  0  0  0  0  0
    7.4070   10.9400   -8.3900 C   0  0  0  0  0  0
    8.4910   10.2690   -7.7060 C   0  0  0  0  0  0
    8.7190   10.6120   -6.3660 C   0  0  2  0  0  0
    9.9450    9.8100   -4.3260 C   0  0  0  0  0  0
   10.3130    8.7170   -3.4590 C   0  0  0  0  0  0
   11.0250    8.9880   -2.2410 C   0  0  0  0  0  0
   11.3170   10.3370   -1.8390 C   0  0  0  0  0  0
   10.9140   11.4400   -2.6870 C   0  0  0  0  0  0
   10.1670   11.1920   -3.8980 C   0  0  0  0  0  0
    9.4390   11.9810   -6.1990 C   0  0  1  0  0  0
   10.6850   12.5270   -8.1650 C   0  0  0  0  0  0
   11.7280   12.1100   -8.9890 C   0  0  0  0  0  0
   12.2010   12.9950  -10.0380 C   0  0  0  0  0  0
   12.3270   10.8120   -8.7970 C   0  0  0  0  0  0
    9.6290   12.2730   -4.6760 C   0  0  0  0  0  0
    9.3890    9.5430   -5.5730 O   0  0  0  0  0  0
   11.4310    7.9510   -1.4500 O   0  0  0  0  0  0
   11.2420   12.7150   -2.3360 O   0  0  0  0  0  0
    9.2990    9.2780   -8.4010 C   0  0  0  0  0  0
   10.7100   12.0110   -6.8960 O   0  0  0  0  0  0
    9.8220   13.3070   -8.5880 O   0  0  0  0  0  0
   13.3890   10.3790   -9.6690 C   0  0  0  0  0  0
   13.9740    9.1490   -9.5270 O   0  0  0  0  0  0
   13.8560   11.2520  -10.7190 C   0  0  0  0  0  0
   14.8570   10.8430  -11.5490 O   0  0  0  0  0  0
   13.2700   12.5660  -10.9030 C   0  0  0  0  0  0
   13.7520   13.3690  -11.8980 O   0  0  0  0  0  0
    9.4836    7.7841  -11.4980 H   0  0  0  0  0  0
    8.2313    8.5401  -12.2737 H   0  0  0  0  0  0
    5.8843   10.9393  -11.4819 H   0  0  0  0  0  0
    6.8158   11.6946   -7.8712 H   0  0  0  0  0  0
    7.6741   10.6507   -6.0243 H   0  0  0  0  0  0
   10.0526    7.6929   -3.7263 H   0  0  0  0  0  0
   11.8387   10.5287   -0.9014 H   0  0  0  0  0  0
    8.8738   12.7796   -6.7017 H   0  0  0  0  0  0
   11.7499   13.9784  -10.1703 H   0  0  0  0  0  0
   11.9776   10.1613   -7.9954 H   0  0  0  0  0  0
    8.6366   12.5457   -4.2878 H   0  0  0  0  0  0
   10.3001   13.1420   -4.6096 H   0  0  0  0  0  0
   11.2133    6.9145   -1.7473 H   0  0  0  0  0  0
   11.8110   12.9024   -1.4134 H   0  0  0  0  0  0
   10.1258    8.7871   -7.8877 H   0  0  0  0  0  0
   13.6344    8.4667   -8.7338 H   0  0  0  0  0  0
   15.3082    9.8484  -11.4180 H   0  0  0  0  0  0
   13.3217   14.3692  -12.0546 H   0  0  0  0  0  0
  1  2  1  0  0  0
  1 34  1  0  0  0
  2  3  2  0  0  0
  2 25  1  0  0  0
  3  4  1  0  0  0
  3  5  1  0  0  0
  4 35  1  0  0  0
  5  6  1  0  0  0
  5  7  2  0  0  0
  6 36  1  0  0  0
  7  8  1  0  0  0
  7 37  1  0  0  0
  8  9  1  0  0  0
  8 25  2  0  0  0
  9 16  1  0  0  0
  9 22  1  0  0  0
  9 38  1  0  0  0
 10 11  2  0  0  0
 10 15  1  0  0  0
 10 22  1  0  0  0
 11 12  1  0  0  0
 11 39  1  0  0  0
 12 13  2  0  0  0
 12 23  1  0  0  0
 13 14  1  0  0  0
 13 40  1  0  0  0
 14 15  2  0  0  0
 14 24  1  0  0  0
 15 21  1  0  0  0
 16 21  1  0  0  0
 16 26  1  0  0  0
 16 41  1  0  0  0
 17 18  1  0  0  0
 17 26  1  0  0  0
 17 27  2  0  0  0
 18 19  2  0  0  0
 18 20  1  0  0  0
 19 32  1  0  0  0
 19 42  1  0  0  0
 20 28  2  0  0  0
 20 43  1  0  0  0
 21 44  1  0  0  0
 21 45  1  0  0  0
 23 46  1  0  0  0
 24 47  1  0  0  0
 25 48  1  0  0  0
 28 29  1  0  0  0
 28 30  1  0  0  0
 29 49  1  0  0  0
 30 31  1  0  0  0
 30 32  2  0  0  0
 31 50  1  0  0  0
 32 33  1  0  0  0
 33 51  1  0  0  0
M  END
> <s_m_source_file>
../2kdh_ligand.sdf

> <i_m_source_file_index>
1

> <s_epik_input>
W09IXWMxYyhbT0hdKWMoW09IXSlbY0hdYyhbY0hdMSlbQ0BASF0oTzIpW0NAQEhdKFtDSDJdYyhjMjMpYyhbT0hdKVtjSF1jKFtjSF0zKVtPSF0pT0MoPU8pYzRbY0hdYyhbT0hdKWMoW09IXSljKFtjSF00KVtPSF0=

> <s_epik_cmdline>
J2VwaWtfYXBwJywgJy1pbWFlJywgJ2xpZ2FuZF9wcm8ubWFlJywgJy1vbWFlJywgJ2xpZ2FuZF9wcmVwLm1hZScsICctbXMnLCAnMScsICctcGgnLCAnNycsICctcGh0JywgJzAuNScsICctbnQn

> <r_lp_tautomer_probability>
0.999999999957461

> <r_epik_Ionization_Penalty>
  0.1009

> <r_epik_Ionization_Penalty_Charging>
  0.0000

> <r_epik_Ionization_Penalty_Neutral>
  0.1009

> <r_epik_State_Penalty>
  0.0725

> <r_epik_Charging_Adjusted_Penalty>
0.0725101144005985

> <i_epik_Tot_Q>
0

> <i_epik_Tot_abs_Q>
0

> <s_epik_Chemistry_Notes>
This compound has an ester and may undergo hydrolysis at high or low pH.

$$$$
