2ke1_ligand
                    3D
 Schrodinger Suite 2020-3.
170169  0  0  1  0            999 V2000
    0.5420   -1.1410    9.1190 N   0  3  0  0  0  0
    0.9300   -1.2010    7.6910 C   0  0  2  0  0  0
    2.1270   -2.1240    7.5180 C   0  0  0  0  0  0
    2.9300   -2.2750    8.4380 O   0  0  0  0  0  0
    1.2470    0.1950    7.1740 C   0  0  0  0  0  0
    2.2440   -2.7460    6.3480 N   0  0  0  0  0  0
    3.3570   -3.6470    6.0740 C   0  0  2  0  0  0
    4.5880   -2.8270    5.7000 C   0  0  0  0  0  0
    5.0460   -2.8410    4.5580 O   0  0  0  0  0  0
    2.9880   -4.6190    4.9470 C   0  0  0  0  0  0
    3.9360   -5.8030    4.8090 C   0  0  0  0  0  0
    3.5350   -6.7150    3.6600 C   0  0  0  0  0  0
    2.0900   -6.9380    3.5860 N   0  0  0  0  0  0
    1.4060   -7.7320    4.4120 C   0  0  0  0  0  0
    2.0280   -8.3980    5.3740 N   0  0  0  0  0  0
    0.0960   -7.8740    4.2610 N   0  0  0  0  0  0
    5.0950   -2.0900    6.6660 N   0  0  0  0  0  0
    6.1860   -1.1660    6.4360 C   0  0  2  0  0  0
    7.5190   -1.9020    6.2950 C   0  0  0  0  0  0
    7.7760   -2.8900    6.9870 O   0  0  0  0  0  0
    6.2720   -0.1620    7.5940 C   0  0  2  0  0  0
    4.9490    0.1570    8.0430 O   0  0  0  0  0  0
    6.9720    1.1150    7.1650 C   0  0  0  0  0  0
    8.3520   -1.4060    5.3960 N   0  0  0  0  0  0
    9.6660   -1.9780    5.1410 C   0  0  2  0  0  0
   10.7070   -0.8710    5.1510 C   0  0  0  0  0  0
   10.4040    0.2730    4.8230 O   0  0  0  0  0  0
    9.7030   -2.6760    3.7750 C   0  0  0  0  0  0
    8.7090   -3.8140    3.6130 C   0  0  0  0  0  0
    8.5790   -4.2300    2.1530 C   0  0  0  0  0  0
    9.9170   -4.6380    1.5470 C   0  0  0  0  0  0
   10.4830   -5.8620    2.1720 N   0  3  0  0  0  0
   11.9270   -1.2080    5.5290 N   0  0  0  0  0  0
   13.0240   -0.2560    5.4830 C   0  0  2  0  0  0
   14.2160   -0.8710    4.7680 C   0  0  0  0  0  0
   15.1900   -1.2920    5.3960 O   0  0  0  0  0  0
   13.4120    0.2060    6.8910 C   0  0  0  0  0  0
   12.4390    1.2110    7.4900 C   0  0  0  0  0  0
   12.9030    1.7710    8.8210 C   0  0  0  0  0  0
   12.6400    2.9310    9.1400 O   0  0  0  0  0  0
   13.5740    0.9540    9.6180 N   0  0  0  0  0  0
   14.1250   -0.9320    3.4510 N   0  0  0  0  0  0
   15.1770   -1.5130    2.6350 C   0  0  2  0  0  0
   16.2000   -0.4530    2.2360 C   0  0  0  0  0  0
   16.1510    0.6850    2.7130 O   0  0  0  0  0  0
   14.5900   -2.1720    1.3690 C   0  0  2  0  0  0
   13.6830   -1.2660    0.7230 O   0  0  0  0  0  0
   13.8640   -3.4670    1.7090 C   0  0  0  0  0  0
   17.1380   -0.8310    1.3870 N   0  0  0  0  0  0
   18.1090    0.1130    0.8660 C   0  0  2  0  0  0
   17.5120    0.9080   -0.2860 C   0  0  0  0  0  0
   16.8240    0.3500   -1.1430 O   0  0  0  0  0  0
   19.3630   -0.6150    0.4090 C   0  0  0  0  0  0
   17.7560    2.2130   -0.2870 N   0  0  0  0  0  0
   17.3190    3.0710   -1.3810 C   0  0  2  0  0  0
   18.1230    2.7430   -2.6260 C   0  0  0  0  0  0
   19.3130    2.4350   -2.5410 O   0  0  0  0  0  0
   17.5110    4.5470   -1.0240 C   0  0  0  0  0  0
   16.7250    5.0090    0.1930 C   0  0  0  0  0  0
   15.2660    5.2870   -0.1320 C   0  0  0  0  0  0
   15.1100    6.3160   -1.1610 N   0  0  0  0  0  0
   14.6030    7.5280   -0.9360 C   0  0  0  0  0  0
   14.1150    7.8440    0.2610 N   0  0  0  0  0  0
   14.5450    8.4150   -1.9250 N   0  0  0  0  0  0
   17.4720    2.8050   -3.7680 N   0  0  0  0  0  0
   18.1080    2.4880   -5.0330 C   0  0  2  0  0  0
   18.4490    3.7750   -5.7680 C   0  0  0  0  0  0
   19.5090    3.8860   -6.3830 O   0  0  0  0  0  0
   17.1760    1.6310   -5.8920 C   0  0  0  0  0  0
   16.5850    0.4400   -5.1530 C   0  0  0  0  0  0
   17.6610   -0.4750   -4.5860 C   0  0  0  0  0  0
   17.0440   -1.6320   -3.8150 C   0  0  0  0  0  0
   16.2500   -2.5280   -4.6970 N   0  3  0  0  0  0
   17.5340    4.7400   -5.6810 N   0  0  0  0  0  0
   17.6950    6.0500   -6.3000 C   0  0  2  0  0  0
   17.9420    5.9290   -7.8040 C   0  0  0  0  0  0
   19.1120    5.9960   -8.2360 O   0  0  0  0  0  0
   18.8170    6.8320   -5.6110 C   0  0  0  0  0  0
   18.4820    7.0950   -4.2540 O   0  0  0  0  0  0
   16.9550    5.7550   -8.5470 O   0  0  0  0  0  0
    0.3157   -2.1550    9.4804 H   0  0  0  0  0  0
   -0.3483   -0.5047    9.2306 H   0  0  0  0  0  0
    1.3705   -0.7187    9.7066 H   0  0  0  0  0  0
    0.0746   -1.6059    7.1304 H   0  0  0  0  0  0
    0.3692    0.8440    7.3089 H   0  0  0  0  0  0
    1.5024    0.1410    6.1054 H   0  0  0  0  0  0
    2.0985    0.6088    7.7341 H   0  0  0  0  0  0
    1.4780   -2.5684    5.5788 H   0  0  0  0  0  0
    3.5462   -4.2116    6.9989 H   0  0  0  0  0  0
    1.9839   -5.0290    5.1306 H   0  0  0  0  0  0
    2.9959   -4.0853    3.9852 H   0  0  0  0  0  0
    4.9556   -5.4362    4.6197 H   0  0  0  0  0  0
    3.9248   -6.3919    5.7380 H   0  0  0  0  0  0
    3.8536   -6.2664    2.7075 H   0  0  0  0  0  0
    4.0189   -7.6951    3.7837 H   0  0  0  0  0  0
    1.4947   -6.4340    2.8103 H   0  0  0  0  0  0
    3.1143   -8.2863    5.5066 H   0  0  0  0  0  0
   -0.4286   -7.3250    3.4651 H   0  0  0  0  0  0
   -0.4659   -8.5407    4.9316 H   0  0  0  0  0  0
    4.6640   -2.1924    7.6728 H   0  0  0  0  0  0
    5.9366   -0.6672    5.4878 H   0  0  0  0  0  0
    6.8041   -0.6063    8.4481 H   0  0  0  0  0  0
    4.2807   -0.6419    8.3969 H   0  0  0  0  0  0
    7.9887    0.8773    6.8190 H   0  0  0  0  0  0
    7.0275    1.8071    8.0182 H   0  0  0  0  0  0
    6.4070    1.5858    6.3470 H   0  0  0  0  0  0
    8.0165   -0.5247    4.8297 H   0  0  0  0  0  0
    9.8398   -2.7006    5.9520 H   0  0  0  0  0  0
    9.4796   -1.9453    2.9837 H   0  0  0  0  0  0
   10.7030   -3.1028    3.6083 H   0  0  0  0  0  0
    9.0482   -4.6829    4.1961 H   0  0  0  0  0  0
    7.7213   -3.4925    3.9750 H   0  0  0  0  0  0
    7.8942   -5.0873    2.0756 H   0  0  0  0  0  0
    8.1813   -3.3889    1.5661 H   0  0  0  0  0  0
    9.7873   -4.8383    0.4732 H   0  0  0  0  0  0
   10.6445   -3.8242    1.6829 H   0  0  0  0  0  0
   11.4440   -6.1061    1.6957 H   0  0  0  0  0  0
    9.7833   -6.6999    2.0365 H   0  0  0  0  0  0
   10.6405   -5.6858    3.2463 H   0  0  0  0  0  0
   12.1037   -2.2340    5.8842 H   0  0  0  0  0  0
   12.6484    0.6034    4.9083 H   0  0  0  0  0  0
   13.4453   -0.6622    7.5656 H   0  0  0  0  0  0
   14.4020    0.6845    6.8601 H   0  0  0  0  0  0
   12.3143    2.0574    6.7986 H   0  0  0  0  0  0
   11.4657    0.7257    7.6548 H   0  0  0  0  0  0
   13.7887   -0.0755    9.2955 H   0  0  0  0  0  0
   13.9168    1.3047   10.6026 H   0  0  0  0  0  0
   13.2200   -0.5267    2.9748 H   0  0  0  0  0  0
   15.6486   -2.2648    3.2850 H   0  0  0  0  0  0
   15.3862   -2.3775    0.6383 H   0  0  0  0  0  0
   14.0323   -0.2733    0.4026 H   0  0  0  0  0  0
   14.5612   -4.1592    2.2038 H   0  0  0  0  0  0
   13.4838   -3.9276    0.7853 H   0  0  0  0  0  0
   13.0227   -3.2495    2.3835 H   0  0  0  0  0  0
   17.1741   -1.8854    1.0756 H   0  0  0  0  0  0
   18.3502    0.7865    1.7016 H   0  0  0  0  0  0
   19.7834   -1.1848    1.2507 H   0  0  0  0  0  0
   20.1038    0.1173    0.0555 H   0  0  0  0  0  0
   19.1090   -1.3041   -0.4099 H   0  0  0  0  0  0
   18.3023    2.6436    0.5651 H   0  0  0  0  0  0
   16.2514    2.8549   -1.5345 H   0  0  0  0  0  0
   18.5730    4.7373   -0.8098 H   0  0  0  0  0  0
   17.1894    5.1735   -1.8690 H   0  0  0  0  0  0
   16.7581    4.2295    0.9684 H   0  0  0  0  0  0
   17.1685    5.9359    0.5857 H   0  0  0  0  0  0
   14.7899    4.3655   -0.4982 H   0  0  0  0  0  0
   14.7476    5.6321    0.7748 H   0  0  0  0  0  0
   15.4203    6.1102   -2.1961 H   0  0  0  0  0  0
   14.1599    7.1147    1.0833 H   0  0  0  0  0  0
   13.6667    8.8345    0.4282 H   0  0  0  0  0  0
   14.9466    8.1600   -2.9168 H   0  0  0  0  0  0
   16.4148    3.1080   -3.7446 H   0  0  0  0  0  0
   19.0239    1.9304   -4.7874 H   0  0  0  0  0  0
   16.3356    2.2458   -6.2466 H   0  0  0  0  0  0
   17.7321    1.2371   -6.7555 H   0  0  0  0  0  0
   15.9651    0.7977   -4.3176 H   0  0  0  0  0  0
   15.9643   -0.1492   -5.8441 H   0  0  0  0  0  0
   18.2662   -0.8831   -5.4089 H   0  0  0  0  0  0
   18.3074    0.0975   -3.9045 H   0  0  0  0  0  0
   17.8417   -2.2283   -3.3481 H   0  0  0  0  0  0
   16.3762   -1.2380   -3.0347 H   0  0  0  0  0  0
   15.8241   -3.3474   -4.0993 H   0  0  0  0  0  0
   16.9021   -2.9449   -5.4787 H   0  0  0  0  0  0
   15.4365   -1.9545   -5.1654 H   0  0  0  0  0  0
   16.6231    4.5103   -5.1088 H   0  0  0  0  0  0
   16.7357    6.5654   -6.1444 H   0  0  0  0  0  0
   19.3054    5.9106   -9.3155 H   0  0  0  0  0  0
   19.7461    6.2439   -5.6416 H   0  0  0  0  0  0
   18.9711    7.7883   -6.1323 H   0  0  0  0  0  0
   19.1820    7.6502   -3.6123 H   0  0  0  0  0  0
  1  2  1  0  0  0
  1 81  1  0  0  0
  1 82  1  0  0  0
  1 83  1  0  0  0
  2  3  1  0  0  0
  2  5  1  0  0  0
  2 84  1  0  0  0
  3  4  2  0  0  0
  3  6  1  0  0  0
  5 85  1  0  0  0
  5 86  1  0  0  0
  5 87  1  0  0  0
  6  7  1  0  0  0
  6 88  1  0  0  0
  7  8  1  0  0  0
  7 10  1  0  0  0
  7 89  1  0  0  0
  8  9  2  0  0  0
  8 17  1  0  0  0
 10 11  1  0  0  0
 10 90  1  0  0  0
 10 91  1  0  0  0
 11 12  1  0  0  0
 11 92  1  0  0  0
 11 93  1  0  0  0
 12 13  1  0  0  0
 12 94  1  0  0  0
 12 95  1  0  0  0
 13 14  1  0  0  0
 13 96  1  0  0  0
 14 15  2  0  0  0
 14 16  1  0  0  0
 15 97  1  0  0  0
 16 98  1  0  0  0
 16 99  1  0  0  0
 17 18  1  0  0  0
 17100  1  0  0  0
 18 19  1  0  0  0
 18 21  1  0  0  0
 18101  1  0  0  0
 19 20  2  0  0  0
 19 24  1  0  0  0
 21 22  1  0  0  0
 21 23  1  0  0  0
 21102  1  0  0  0
 22103  1  0  0  0
 23104  1  0  0  0
 23105  1  0  0  0
 23106  1  0  0  0
 24 25  1  0  0  0
 24107  1  0  0  0
 25 26  1  0  0  0
 25 28  1  0  0  0
 25108  1  0  0  0
 26 27  2  0  0  0
 26 33  1  0  0  0
 28 29  1  0  0  0
 28109  1  0  0  0
 28110  1  0  0  0
 29 30  1  0  0  0
 29111  1  0  0  0
 29112  1  0  0  0
 30 31  1  0  0  0
 30113  1  0  0  0
 30114  1  0  0  0
 31 32  1  0  0  0
 31115  1  0  0  0
 31116  1  0  0  0
 32117  1  0  0  0
 32118  1  0  0  0
 32119  1  0  0  0
 33 34  1  0  0  0
 33120  1  0  0  0
 34 35  1  0  0  0
 34 37  1  0  0  0
 34121  1  0  0  0
 35 36  2  0  0  0
 35 42  1  0  0  0
 37 38  1  0  0  0
 37122  1  0  0  0
 37123  1  0  0  0
 38 39  1  0  0  0
 38124  1  0  0  0
 38125  1  0  0  0
 39 40  2  0  0  0
 39 41  1  0  0  0
 41126  1  0  0  0
 41127  1  0  0  0
 42 43  1  0  0  0
 42128  1  0  0  0
 43 44  1  0  0  0
 43 46  1  0  0  0
 43129  1  0  0  0
 44 45  2  0  0  0
 44 49  1  0  0  0
 46 47  1  0  0  0
 46 48  1  0  0  0
 46130  1  0  0  0
 47131  1  0  0  0
 48132  1  0  0  0
 48133  1  0  0  0
 48134  1  0  0  0
 49 50  1  0  0  0
 49135  1  0  0  0
 50 51  1  0  0  0
 50 53  1  0  0  0
 50136  1  0  0  0
 51 52  2  0  0  0
 51 54  1  0  0  0
 53137  1  0  0  0
 53138  1  0  0  0
 53139  1  0  0  0
 54 55  1  0  0  0
 54140  1  0  0  0
 55 56  1  0  0  0
 55 58  1  0  0  0
 55141  1  0  0  0
 56 57  2  0  0  0
 56 65  1  0  0  0
 58 59  1  0  0  0
 58142  1  0  0  0
 58143  1  0  0  0
 59 60  1  0  0  0
 59144  1  0  0  0
 59145  1  0  0  0
 60 61  1  0  0  0
 60146  1  0  0  0
 60147  1  0  0  0
 61 62  1  0  0  0
 61148  1  0  0  0
 62 63  1  0  0  0
 62 64  2  0  0  0
 63149  1  0  0  0
 63150  1  0  0  0
 64151  1  0  0  0
 65 66  1  0  0  0
 65152  1  0  0  0
 66 67  1  0  0  0
 66 69  1  0  0  0
 66153  1  0  0  0
 67 68  2  0  0  0
 67 74  1  0  0  0
 69 70  1  0  0  0
 69154  1  0  0  0
 69155  1  0  0  0
 70 71  1  0  0  0
 70156  1  0  0  0
 70157  1  0  0  0
 71 72  1  0  0  0
 71158  1  0  0  0
 71159  1  0  0  0
 72 73  1  0  0  0
 72160  1  0  0  0
 72161  1  0  0  0
 73162  1  0  0  0
 73163  1  0  0  0
 73164  1  0  0  0
 74 75  1  0  0  0
 74165  1  0  0  0
 75 76  1  0  0  0
 75 78  1  0  0  0
 75166  1  0  0  0
 76 77  1  0  0  0
 76 80  2  0  0  0
 77167  1  0  0  0
 78 79  1  0  0  0
 78168  1  0  0  0
 78169  1  0  0  0
 79170  1  0  0  0
M  CHG  3   1   1  32   1  73   1
M  END
> <s_m_source_file>
../2ke1_ligand.sdf

> <i_m_source_file_index>
1

> <s_epik_input>
W0hdL049QyhbTkgyXSlcW05IXVtDSDJdW0NIMl1bQ0gyXVtDQEhdKFtOSF1DKD1PKVtDQEBIXShbTkgzK10pW0NIM10pQyg9TylbTkhdW0NAQEhdKFtDQEhdKFtPSF0pW0NIM10pQyg9TylbTkhdW0NAQEhdKFtDSDJdW0NIMl1bQ0gyXVtDSDJdW05IMytdKUMoPU8pW05IXVtDQEBIXShbQ0gyXVtDSDJdQyg9TylbTkgyXSlDKD1PKVtOSF1bQ0BASF0oW0NASF0oW09IXSlbQ0gzXSlDKD1PKVtOSF1bQ0BASF0oW0NIM10pQyg9TylbTkhdW0NAQEhdKFtDSDJdW0NIMl1bQ0gyXVtOSF0vQyhbTkgyXSk9TlxbSF0pQyg9TylbTkhdW0NASF0oQyg9TylbTkhdW0NASF0oQyg9TylbT0hdKVtDSDJdW09IXSlbQ0gyXVtDSDJdW0NIMl1bQ0gyXVtOSDMrXQ==

> <s_epik_cmdline>
J2VwaWtfYXBwJywgJy1pbWFlJywgJ2xpZ2FuZF9wcm8ubWFlJywgJy1vbWFlJywgJ2xpZ2FuZF9wcmVwLm1hZScsICctbXMnLCAnMScsICctcGgnLCAnNycsICctcGh0JywgJzAuNScsICctbnQn

> <s_epik_pKa_notes>
Molecule size exceeds maximum supported for generating protonation states

> <s_epik_Chemistry_Notes>
This compound has an imine and may undergo hydrolysis.

$$$$
