2kff_ligand
                    3D
 Schrodinger Suite 2020-3.
194197  0  0  1  0            999 V2000
   13.2890   17.7240  -15.8450 N   0  3  0  0  0  0
   12.3710   16.7100  -15.2870 C   0  0  2  0  0  0
   13.1240   15.7750  -14.3490 C   0  0  0  0  0  0
   13.9360   14.9610  -14.7890 O   0  0  0  0  0  0
   11.7120   15.8920  -16.4050 C   0  0  0  0  0  0
   10.8120   16.6950  -17.3080 C   0  0  0  0  0  0
    9.5020   16.9610  -16.9420 C   0  0  0  0  0  0
   11.2760   17.1790  -18.5220 C   0  0  0  0  0  0
    8.6740   17.6990  -17.7660 C   0  0  0  0  0  0
   10.4520   17.9180  -19.3490 C   0  0  0  0  0  0
    9.1490   18.1760  -18.9720 C   0  0  0  0  0  0
   12.8760   15.9240  -13.0590 N   0  0  0  0  0  0
   13.4720   15.0610  -12.0480 C   0  0  2  0  0  0
   12.4380   14.7290  -10.9810 C   0  0  0  0  0  0
   12.1700   13.5560  -10.7140 O   0  0  0  0  0  0
   14.6950   15.7400  -11.4220 C   0  0  0  0  0  0
   15.2790   14.9620  -10.2540 C   0  0  0  0  0  0
   15.2020   13.7340  -10.1970 O   0  0  0  0  0  0
   15.8760   15.6780   -9.3160 N   0  0  0  0  0  0
   11.8530   15.7790  -10.4020 N   0  0  0  0  0  0
   10.8110   15.6560   -9.3810 C   0  0  2  0  0  0
   11.3560   15.1420   -8.0510 C   0  0  0  0  0  0
   12.4190   14.5210   -7.9830 O   0  0  0  0  0  0
    9.6580   14.7630   -9.8570 C   0  0  0  0  0  0
    8.7310   15.4290  -10.8540 C   0  0  0  0  0  0
    7.8330   16.4080  -10.4530 C   0  0  0  0  0  0
    8.7660   15.0840  -12.2010 C   0  0  0  0  0  0
    6.9980   17.0280  -11.3640 C   0  0  0  0  0  0
    7.9330   15.6960  -13.1170 C   0  0  0  0  0  0
    7.0040   16.6360  -12.6730 C   0  0  0  0  0  0
    6.2280   17.2890  -13.6060 O   0  0  0  0  0  0
   10.6150   15.4310   -6.9900 N   0  0  0  0  0  0
   10.9860   15.0150   -5.6470 C   0  0  2  0  0  0
   10.5600   13.5780   -5.4020 C   0  0  0  0  0  0
    9.4100   13.3110   -5.0450 O   0  0  0  0  0  0
   10.3470   15.9230   -4.5870 C   0  0  0  0  0  0
   10.7930   17.3770   -4.6490 C   0  0  0  0  0  0
   10.3450   18.0940   -5.9080 C   0  0  0  0  0  0
    9.2500   17.7730   -6.4120 O   0  0  0  0  0  0
   11.0870   18.9660   -6.4100 O   0  0  0  0  0  0
   11.4780   12.6530   -5.6220 N   0  0  0  0  0  0
   11.1930   11.2460   -5.4110 C   0  0  2  0  0  0
   11.0530   10.9450   -3.9200 C   0  0  0  0  0  0
   11.9910   11.1340   -3.1430 O   0  0  0  0  0  0
   12.2890   10.3760   -6.0380 C   0  0  0  0  0  0
   11.9360    8.9990   -6.0130 O   0  0  0  0  0  0
    9.8720   10.4930   -3.5250 N   0  0  0  0  0  0
    9.6120   10.1470   -2.1390 C   0  0  2  0  0  0
    9.5490    8.6260   -1.9910 C   0  0  0  0  0  0
    9.0010    8.0910   -1.0270 O   0  0  0  0  0  0
    8.2910   10.7810   -1.6580 C   0  0  2  0  0  0
    8.1780   12.1100   -2.1870 O   0  0  0  0  0  0
    8.2280   10.8410   -0.1350 C   0  0  0  0  0  0
   10.1260    7.9330   -2.9640 N   0  0  0  0  0  0
   10.1550    6.4800   -2.9610 C   0  0  2  0  0  0
   11.5060    5.9780   -2.4510 C   0  0  0  0  0  0
   12.5260    6.1230   -3.1270 O   0  0  0  0  0  0
    9.8900    5.9410   -4.3680 C   0  0  0  0  0  0
    9.8660    4.4270   -4.4110 C   0  0  0  0  0  0
   10.8950    3.7810   -4.5920 O   0  0  0  0  0  0
    8.6910    3.8490   -4.2430 N   0  0  0  0  0  0
   11.5230    5.3730   -1.2510 N   0  0  0  0  0  0
   12.7550    4.9030   -0.5940 C   0  0  2  0  0  0
   13.3380    3.6520   -1.2440 C   0  0  0  0  0  0
   14.3950    3.1650   -0.8430 O   0  0  0  0  0  0
   12.3040    4.5890    0.8430 C   0  0  0  0  0  0
   10.9090    5.1170    0.9610 C   0  0  0  0  0  0
   10.3440    5.1030   -0.4250 C   0  0  0  0  0  0
   12.6490    3.1330   -2.2450 N   0  0  0  0  0  0
   13.1090    1.9390   -2.9350 C   0  0  2  0  0  0
   13.9690    2.3040   -4.1340 C   0  0  0  0  0  0
   14.7310    1.4800   -4.6280 O   0  0  0  0  0  0
   11.9220    1.0800   -3.3790 C   0  0  0  0  0  0
   11.1620    0.4830   -2.2340 C   0  0  0  0  0  0
   11.6020   -0.6830   -1.6420 C   0  0  0  0  0  0
   10.0070    1.0830   -1.7590 C   0  0  0  0  0  0
   10.9050   -1.2490   -0.5940 C   0  0  0  0  0  0
    9.3040    0.5260   -0.7110 C   0  0  0  0  0  0
    9.7550   -0.6040   -0.1060 C   0  0  0  0  0  0
   13.8430    3.5370   -4.6040 N   0  0  0  0  0  0
   14.6310    3.9830   -5.7390 C   0  0  2  0  0  0
   15.6100    5.0860   -5.3320 C   0  0  0  0  0  0
   16.7690    5.0520   -5.7410 O   0  0  0  0  0  0
   13.7360    4.4480   -6.9210 C   0  0  2  0  0  0
   14.5460    4.7900   -8.0560 O   0  0  0  0  0  0
   12.8710    5.6420   -6.5410 C   0  0  0  0  0  0
   15.1340    6.0400   -4.5100 N   0  0  0  0  0  0
   15.9450    7.1670   -4.0180 C   0  0  2  0  0  0
   16.4000    8.0980   -5.1500 C   0  0  0  0  0  0
   15.9630    9.2490   -5.2280 O   0  0  0  0  0  0
   17.1450    6.6660   -3.2220 C   0  0  0  0  0  0
   17.2690    7.5760   -6.0140 N   0  0  0  0  0  0
   17.8340    8.3070   -7.1450 C   0  0  2  0  0  0
   18.6930    9.4760   -6.6610 C   0  0  0  0  0  0
   19.7540    9.2200   -6.0620 O   0  0  0  0  0  0
   16.7340    8.8140   -8.0810 C   0  0  0  0  0  0
   17.1820    8.9040   -9.5310 C   0  0  0  0  0  0
   16.3640    9.9200  -10.3170 C   0  0  0  0  0  0
   17.0350   11.2880  -10.3310 C   0  0  0  0  0  0
   17.1160   11.9050   -8.9750 N   0  3  0  0  0  0
   18.3160   10.6450   -6.9050 O   0  0  0  0  0  0
   13.7471   18.2952  -15.0241 H   0  0  0  0  0  0
   12.7269   18.4075  -16.4983 H   0  0  0  0  0  0
   14.0766   17.2243  -16.4281 H   0  0  0  0  0  0
   11.6055   17.2690  -14.7288 H   0  0  0  0  0  0
   12.4909   15.4447  -17.0400 H   0  0  0  0  0  0
   11.0972   15.0945  -15.9623 H   0  0  0  0  0  0
    9.1205   16.5837  -15.9932 H   0  0  0  0  0  0
   12.3022   16.9741  -18.8271 H   0  0  0  0  0  0
    7.6469   17.9045  -17.4645 H   0  0  0  0  0  0
   10.8303   18.2971  -20.2984 H   0  0  0  0  0  0
    8.4963   18.7552  -19.6251 H   0  0  0  0  0  0
   12.1937   16.7329  -12.7588 H   0  0  0  0  0  0
   13.7813   14.1414  -12.5663 H   0  0  0  0  0  0
   15.4850   15.8438  -12.1804 H   0  0  0  0  0  0
   14.4112   16.7354  -11.0496 H   0  0  0  0  0  0
   15.9223   16.7733   -9.4061 H   0  0  0  0  0  0
   16.3262   15.1782   -8.4456 H   0  0  0  0  0  0
   12.1898   16.7745  -10.7270 H   0  0  0  0  0  0
   10.4614   16.6903   -9.2465 H   0  0  0  0  0  0
   10.0665   13.8654  -10.3442 H   0  0  0  0  0  0
    9.0448   14.4647   -8.9939 H   0  0  0  0  0  0
    7.7851   16.6930   -9.4020 H   0  0  0  0  0  0
    9.4629   14.3173  -12.5395 H   0  0  0  0  0  0
    6.3350   17.8294  -11.0381 H   0  0  0  0  0  0
    8.0012   15.4467  -14.1759 H   0  0  0  0  0  0
    5.4879   18.0350  -13.2807 H   0  0  0  0  0  0
    9.6915   16.0061   -7.1522 H   0  0  0  0  0  0
   12.0822   15.1013   -5.6180 H   0  0  0  0  0  0
    9.2540   15.9183   -4.7109 H   0  0  0  0  0  0
   10.6038   15.5524   -3.5837 H   0  0  0  0  0  0
   10.3757   17.9254   -3.7916 H   0  0  0  0  0  0
   11.8914   17.4254   -4.6157 H   0  0  0  0  0  0
   10.7751   19.4943   -7.3231 H   0  0  0  0  0  0
   12.4729   12.9663   -5.9713 H   0  0  0  0  0  0
   10.2330   11.0634   -5.9161 H   0  0  0  0  0  0
   12.4429   10.6779   -7.0845 H   0  0  0  0  0  0
   13.2263   10.5063   -5.4772 H   0  0  0  0  0  0
   12.6235    8.2474   -6.4283 H   0  0  0  0  0  0
    9.0777   10.3823   -4.2778 H   0  0  0  0  0  0
   10.4593   10.5548   -1.5683 H   0  0  0  0  0  0
    7.4309   10.2138   -2.0434 H   0  0  0  0  0  0
    8.2024   12.2730   -3.2746 H   0  0  0  0  0  0
    8.3142    9.8243    0.2759 H   0  0  0  0  0  0
    7.2691   11.2818    0.1752 H   0  0  0  0  0  0
    9.0553   11.4602    0.2421 H   0  0  0  0  0  0
   10.5916    8.4907   -3.7900 H   0  0  0  0  0  0
    9.3521    6.1670   -2.2773 H   0  0  0  0  0  0
    8.9151    6.3065   -4.7230 H   0  0  0  0  0  0
   10.6816    6.2877   -5.0486 H   0  0  0  0  0  0
    7.7932    4.4642   -4.0836 H   0  0  0  0  0  0
    8.6098    2.7522   -4.2625 H   0  0  0  0  0  0
   13.5319    5.6763   -0.6858 H   0  0  0  0  0  0
   12.3330    3.5017    1.0070 H   0  0  0  0  0  0
   12.9788    5.0854    1.5559 H   0  0  0  0  0  0
   10.3276    4.4694    1.6338 H   0  0  0  0  0  0
   10.9367    6.1383    1.3686 H   0  0  0  0  0  0
    9.5938    5.8908   -0.5881 H   0  0  0  0  0  0
    9.9176    4.1277   -0.7023 H   0  0  0  0  0  0
   11.7125    3.6203   -2.5539 H   0  0  0  0  0  0
   13.7185    1.3969   -2.1970 H   0  0  0  0  0  0
   11.2189    1.6971   -3.9576 H   0  0  0  0  0  0
   12.2833    0.2509   -4.0052 H   0  0  0  0  0  0
   12.5105   -1.1626   -2.0062 H   0  0  0  0  0  0
    9.6501    2.0048   -2.2183 H   0  0  0  0  0  0
   11.2422   -2.1854   -0.1496 H   0  0  0  0  0  0
    8.3822    0.9946   -0.3665 H   0  0  0  0  0  0
    9.2260   -1.0098    0.7563 H   0  0  0  0  0  0
   13.1315    4.2250   -4.1240 H   0  0  0  0  0  0
   15.1952    3.0838   -6.0275 H   0  0  0  0  0  0
   13.0883    3.6221   -7.2503 H   0  0  0  0  0  0
   15.2413    4.0497   -8.4786 H   0  0  0  0  0  0
   12.2493    5.3824   -5.6714 H   0  0  0  0  0  0
   12.2227    5.9096   -7.3884 H   0  0  0  0  0  0
   13.5160    6.4965   -6.2886 H   0  0  0  0  0  0
   14.0807    5.9467   -4.2068 H   0  0  0  0  0  0
   15.2686    7.7256   -3.3544 H   0  0  0  0  0  0
   16.7991    6.0014   -2.4166 H   0  0  0  0  0  0
   17.6795    7.5229   -2.7861 H   0  0  0  0  0  0
   17.8221    6.1123   -3.8890 H   0  0  0  0  0  0
   17.5573    6.5295   -5.8362 H   0  0  0  0  0  0
   18.4603    7.5726   -7.6726 H   0  0  0  0  0  0
   15.8732    8.1304   -8.0393 H   0  0  0  0  0  0
   16.4191    9.8197   -7.7658 H   0  0  0  0  0  0
   18.2383    9.2084   -9.5702 H   0  0  0  0  0  0
   17.0654    7.9219  -10.0125 H   0  0  0  0  0  0
   16.2531    9.5764  -11.3561 H   0  0  0  0  0  0
   15.3701   10.0249   -9.8575 H   0  0  0  0  0  0
   18.0601   11.1896  -10.7175 H   0  0  0  0  0  0
   16.4633   11.9702  -10.9774 H   0  0  0  0  0  0
   17.6075   12.8864   -9.0475 H   0  0  0  0  0  0
   17.6985   11.2514   -8.3090 H   0  0  0  0  0  0
   16.1017   12.0320   -8.5688 H   0  0  0  0  0  0
   18.9196   11.4997   -6.5656 H   0  0  0  0  0  0
  1  2  1  0  0  0
  1102  1  0  0  0
  1103  1  0  0  0
  1104  1  0  0  0
  2  3  1  0  0  0
  2  5  1  0  0  0
  2105  1  0  0  0
  3  4  2  0  0  0
  3 12  1  0  0  0
  5  6  1  0  0  0
  5106  1  0  0  0
  5107  1  0  0  0
  6  7  2  0  0  0
  6  8  1  0  0  0
  7  9  1  0  0  0
  7108  1  0  0  0
  8 10  2  0  0  0
  8109  1  0  0  0
  9 11  2  0  0  0
  9110  1  0  0  0
 10 11  1  0  0  0
 10111  1  0  0  0
 11112  1  0  0  0
 12 13  1  0  0  0
 12113  1  0  0  0
 13 14  1  0  0  0
 13 16  1  0  0  0
 13114  1  0  0  0
 14 15  2  0  0  0
 14 20  1  0  0  0
 16 17  1  0  0  0
 16115  1  0  0  0
 16116  1  0  0  0
 17 18  2  0  0  0
 17 19  1  0  0  0
 19117  1  0  0  0
 19118  1  0  0  0
 20 21  1  0  0  0
 20119  1  0  0  0
 21 22  1  0  0  0
 21 24  1  0  0  0
 21120  1  0  0  0
 22 23  2  0  0  0
 22 32  1  0  0  0
 24 25  1  0  0  0
 24121  1  0  0  0
 24122  1  0  0  0
 25 26  2  0  0  0
 25 27  1  0  0  0
 26 28  1  0  0  0
 26123  1  0  0  0
 27 29  2  0  0  0
 27124  1  0  0  0
 28 30  2  0  0  0
 28125  1  0  0  0
 29 30  1  0  0  0
 29126  1  0  0  0
 30 31  1  0  0  0
 31127  1  0  0  0
 32 33  1  0  0  0
 32128  1  0  0  0
 33 34  1  0  0  0
 33 36  1  0  0  0
 33129  1  0  0  0
 34 35  2  0  0  0
 34 41  1  0  0  0
 36 37  1  0  0  0
 36130  1  0  0  0
 36131  1  0  0  0
 37 38  1  0  0  0
 37132  1  0  0  0
 37133  1  0  0  0
 38 39  2  0  0  0
 38 40  1  0  0  0
 40134  1  0  0  0
 41 42  1  0  0  0
 41135  1  0  0  0
 42 43  1  0  0  0
 42 45  1  0  0  0
 42136  1  0  0  0
 43 44  2  0  0  0
 43 47  1  0  0  0
 45 46  1  0  0  0
 45137  1  0  0  0
 45138  1  0  0  0
 46139  1  0  0  0
 47 48  1  0  0  0
 47140  1  0  0  0
 48 49  1  0  0  0
 48 51  1  0  0  0
 48141  1  0  0  0
 49 50  2  0  0  0
 49 54  1  0  0  0
 51 52  1  0  0  0
 51 53  1  0  0  0
 51142  1  0  0  0
 52143  1  0  0  0
 53144  1  0  0  0
 53145  1  0  0  0
 53146  1  0  0  0
 54 55  1  0  0  0
 54147  1  0  0  0
 55 56  1  0  0  0
 55 58  1  0  0  0
 55148  1  0  0  0
 56 57  2  0  0  0
 56 62  1  0  0  0
 58 59  1  0  0  0
 58149  1  0  0  0
 58150  1  0  0  0
 59 60  2  0  0  0
 59 61  1  0  0  0
 61151  1  0  0  0
 61152  1  0  0  0
 62 63  1  0  0  0
 62 68  1  0  0  0
 63 64  1  0  0  0
 63 66  1  0  0  0
 63153  1  0  0  0
 64 65  2  0  0  0
 64 69  1  0  0  0
 66 67  1  0  0  0
 66154  1  0  0  0
 66155  1  0  0  0
 67 68  1  0  0  0
 67156  1  0  0  0
 67157  1  0  0  0
 68158  1  0  0  0
 68159  1  0  0  0
 69 70  1  0  0  0
 69160  1  0  0  0
 70 71  1  0  0  0
 70 73  1  0  0  0
 70161  1  0  0  0
 71 72  2  0  0  0
 71 80  1  0  0  0
 73 74  1  0  0  0
 73162  1  0  0  0
 73163  1  0  0  0
 74 75  2  0  0  0
 74 76  1  0  0  0
 75 77  1  0  0  0
 75164  1  0  0  0
 76 78  2  0  0  0
 76165  1  0  0  0
 77 79  2  0  0  0
 77166  1  0  0  0
 78 79  1  0  0  0
 78167  1  0  0  0
 79168  1  0  0  0
 80 81  1  0  0  0
 80169  1  0  0  0
 81 82  1  0  0  0
 81 84  1  0  0  0
 81170  1  0  0  0
 82 83  2  0  0  0
 82 87  1  0  0  0
 84 85  1  0  0  0
 84 86  1  0  0  0
 84171  1  0  0  0
 85172  1  0  0  0
 86173  1  0  0  0
 86174  1  0  0  0
 86175  1  0  0  0
 87 88  1  0  0  0
 87176  1  0  0  0
 88 89  1  0  0  0
 88 91  1  0  0  0
 88177  1  0  0  0
 89 90  2  0  0  0
 89 92  1  0  0  0
 91178  1  0  0  0
 91179  1  0  0  0
 91180  1  0  0  0
 92 93  1  0  0  0
 92181  1  0  0  0
 93 94  1  0  0  0
 93 96  1  0  0  0
 93182  1  0  0  0
 94 95  2  0  0  0
 94101  1  0  0  0
 96 97  1  0  0  0
 96183  1  0  0  0
 96184  1  0  0  0
 97 98  1  0  0  0
 97185  1  0  0  0
 97186  1  0  0  0
 98 99  1  0  0  0
 98187  1  0  0  0
 98188  1  0  0  0
 99100  1  0  0  0
 99189  1  0  0  0
 99190  1  0  0  0
100191  1  0  0  0
100192  1  0  0  0
100193  1  0  0  0
101194  1  0  0  0
M  CHG  2   1   1 100   1
M  END
> <s_m_source_file>
../2kff_ligand.sdf

> <i_m_source_file_index>
1

> <s_epik_input>
W2NIXTFbY0hdW2NIXVtjSF1bY0hdYzFbQ0gyXVtDQEhdKFtOSDMrXSlDKD1PKVtOSF1bQ0BASF0oW0NIMl1DKD1PKVtOSDJdKUMoPU8pW05IXVtDQEBIXShbQ0gyXWMyW2NIXVtjSF1jKFtPSF0pW2NIXVtjSF0yKUMoPU8pW05IXVtDQEBIXShbQ0gyXVtDSDJdQyg9TylbT0hdKUMoPU8pW05IXVtDQEBIXShbQ0gyXVtPSF0pQyg9TylbTkhdW0NAQEhdKFtDQEhdKFtPSF0pW0NIM10pQyg9TylbTkhdW0NAQEhdKFtDSDJdQyg9TylbTkgyXSlDKD1PKU4zW0NAQEhdKFtDSDJdW0NIMl1bQ0gyXTMpQyg9TylbTkhdW0NAQEhdKFtDSDJdYzRbY0hdW2NIXVtjSF1bY0hdW2NIXTQpQyg9TylbTkhdW0NAQEhdKFtDQEhdKFtPSF0pW0NIM10pQyg9TylbTkhdW0NAQEhdKFtDSDNdKUMoPU8pW05IXVtDQEhdKEMoPU8pW09IXSlbQ0gyXVtDSDJdW0NIMl1bQ0gyXVtOSDMrXQ==

> <s_epik_cmdline>
J2VwaWtfYXBwJywgJy1pbWFlJywgJ2xpZ2FuZF9wcm8ubWFlJywgJy1vbWFlJywgJ2xpZ2FuZF9wcmVwLm1hZScsICctbXMnLCAnMScsICctcGgnLCAnNycsICctcGh0JywgJzAuNScsICctbnQn

> <s_epik_pKa_notes>
Molecule size exceeds maximum supported for generating protonation states

$$$$
