2kfg_ligand
                    3D
 Schrodinger Suite 2020-3.
193196  0  0  1  0            999 V2000
   -0.3970   23.1650    2.5180 N   0  3  0  0  0  0
    0.3530   23.1250    3.7900 C   0  0  2  0  0  0
    1.8100   22.7710    3.5240 C   0  0  0  0  0  0
    2.2070   22.6110    2.3710 O   0  0  0  0  0  0
   -0.2720   22.1000    4.7400 C   0  0  0  0  0  0
   -1.6830   22.4300    5.1390 C   0  0  0  0  0  0
   -1.9340   23.2760    6.2070 C   0  0  0  0  0  0
   -2.7560   21.8860    4.4530 C   0  0  0  0  0  0
   -3.2270   23.5760    6.5830 C   0  0  0  0  0  0
   -4.0530   22.1840    4.8240 C   0  0  0  0  0  0
   -4.2940   23.0470    5.8600 C   0  0  0  0  0  0
    2.6020   22.6570    4.5850 N   0  0  0  0  0  0
    4.0280   22.3660    4.4440 C   0  0  2  0  0  0
    4.2570   20.8860    4.1740 C   0  0  0  0  0  0
    4.3810   20.0890    5.1080 O   0  0  0  0  0  0
    4.8150   22.7930    5.6890 C   0  0  0  0  0  0
    4.7110   24.2790    5.9760 C   0  0  0  0  0  0
    4.4870   25.0890    5.0760 O   0  0  0  0  0  0
    4.8880   24.6500    7.2320 N   0  0  0  0  0  0
    4.3130   20.5480    2.8830 N   0  0  0  0  0  0
    4.4840   19.1720    2.3900 C   0  0  2  0  0  0
    3.6210   18.1460    3.1410 C   0  0  0  0  0  0
    2.6530   18.4950    3.8200 O   0  0  0  0  0  0
    5.9720   18.7460    2.3660 C   0  0  0  0  0  0
    6.7270   18.8690    3.6780 C   0  0  0  0  0  0
    6.6440   17.8820    4.6540 C   0  0  0  0  0  0
    7.5460   19.9660    3.9280 C   0  0  0  0  0  0
    7.3500   17.9890    5.8400 C   0  0  0  0  0  0
    8.2510   20.0780    5.1100 C   0  0  0  0  0  0
    8.1520   19.0880    6.0610 C   0  0  0  0  0  0
    8.8670   19.1940    7.2330 O   0  0  0  0  0  0
    3.9530   16.8740    2.9670 N   0  0  0  0  0  0
    3.1840   15.7780    3.5460 C   0  0  2  0  0  0
    4.0710   14.5480    3.6990 C   0  0  0  0  0  0
    3.5880   13.4200    3.8190 O   0  0  0  0  0  0
    1.9980   15.4620    2.6320 C   0  0  0  0  0  0
    2.4160   15.1520    1.2010 C   0  0  0  0  0  0
    1.2430   15.0450    0.2610 C   0  0  0  0  0  0
    0.6480   13.9520    0.1680 O   0  0  0  0  0  0
    0.9220   16.0520   -0.4030 O   0  0  0  0  0  0
    5.3720   14.7820    3.7130 N   0  0  0  0  0  0
    6.3450   13.7080    3.6500 C   0  0  2  0  0  0
    6.7750   13.2460    5.0390 C   0  0  0  0  0  0
    7.2640   14.0350    5.8480 O   0  0  0  0  0  0
    7.5560   14.1780    2.8550 C   0  0  0  0  0  0
    7.1460   14.8780    1.6900 O   0  0  0  0  0  0
    6.5590   11.9700    5.3060 N   0  0  0  0  0  0
    7.0460   11.3390    6.5210 C   0  0  2  0  0  0
    7.5440    9.9370    6.1790 C   0  0  0  0  0  0
    7.8180    9.1150    7.0560 O   0  0  0  0  0  0
    5.9420   11.2740    7.6090 C   0  0  2  0  0  0
    6.4690   10.7340    8.8290 O   0  0  0  0  0  0
    4.7550   10.4330    7.1510 C   0  0  0  0  0  0
    7.6890    9.6940    4.8810 N   0  0  0  0  0  0
    8.0070    8.3720    4.3680 C   0  0  2  0  0  0
    9.5190    8.1390    4.3290 C   0  0  0  0  0  0
   10.3070    9.0740    4.1640 O   0  0  0  0  0  0
    7.4190    8.2070    2.9650 C   0  0  0  0  0  0
    8.0290    9.1790    1.9800 C   0  0  0  0  0  0
    9.0600    8.8390    1.3690 O   0  0  0  0  0  0
    7.4950   10.3000    1.8440 O   0  0  0  0  0  0
    9.9350    6.8720    4.4670 N   0  0  0  0  0  0
   11.3510    6.4820    4.5010 C   0  0  2  0  0  0
   12.0750    6.6600    3.1650 C   0  0  0  0  0  0
   13.2550    6.3280    3.0480 O   0  0  0  0  0  0
   11.3080    5.0010    4.8810 C   0  0  0  0  0  0
    9.9630    4.5330    4.4490 C   0  0  0  0  0  0
    9.0420    5.7070    4.6150 C   0  0  0  0  0  0
   11.3690    7.1350    2.1540 N   0  0  0  0  0  0
   11.9420    7.2610    0.8220 C   0  0  2  0  0  0
   12.4120    8.6880    0.5610 C   0  0  0  0  0  0
   13.5240    8.9050    0.0810 O   0  0  0  0  0  0
   10.9150    6.8360   -0.2310 C   0  0  0  0  0  0
   10.2930    5.5050    0.0780 C   0  0  0  0  0  0
   11.0340    4.3400   -0.0200 C   0  0  0  0  0  0
    8.9770    5.4240    0.5010 C   0  0  0  0  0  0
   10.4710    3.1190    0.2930 C   0  0  0  0  0  0
    8.4140    4.2080    0.8210 C   0  0  0  0  0  0
    9.1610    3.0530    0.7150 C   0  0  0  0  0  0
   11.5840    9.6610    0.9080 N   0  0  0  0  0  0
   11.8850   11.0530    0.5920 C   0  0  2  0  0  0
   12.6880   11.7360    1.7000 C   0  0  0  0  0  0
   12.6750   12.9610    1.8270 O   0  0  0  0  0  0
   10.5980   11.8560    0.3230 C   0  0  2  0  0  0
    9.7360   11.8210    1.4690 O   0  0  0  0  0  0
    9.8600   11.3070   -0.8850 C   0  0  0  0  0  0
   13.4190   10.9460    2.4710 N   0  0  0  0  0  0
   14.1810   11.4680    3.5980 C   0  0  2  0  0  0
   15.6470   11.6820    3.2320 C   0  0  0  0  0  0
   16.4520   12.0940    4.0710 O   0  0  0  0  0  0
   14.0620   10.5290    4.7880 C   0  0  0  0  0  0
   15.9960   11.4040    1.9840 N   0  0  0  0  0  0
   17.3690   11.5560    1.5230 C   0  0  2  0  0  0
   17.4170   12.1840    0.1360 C   0  0  0  0  0  0
   17.8720   13.3410    0.0280 O   0  0  0  0  0  0
   18.0960   10.2070    1.5290 C   0  0  0  0  0  0
   18.8090    9.9100    2.8400 C   0  0  0  0  0  0
   19.4180    8.5170    2.8530 C   0  0  0  0  0  0
   20.4250    8.3570    3.9800 C   0  0  0  0  0  0
   19.8480    8.7160    5.3020 N   0  3  0  0  0  0
   16.9820   11.5330   -0.8330 O   0  0  0  0  0  0
    0.0616   23.9044    1.8450 H   0  0  0  0  0  0
   -1.4412   23.4481    2.7168 H   0  0  0  0  0  0
   -0.3699   22.1722    2.0450 H   0  0  0  0  0  0
    0.2914   24.1306    4.2316 H   0  0  0  0  0  0
   -0.2908   21.1134    4.2540 H   0  0  0  0  0  0
    0.3249   22.0431    5.6622 H   0  0  0  0  0  0
   -1.0992   23.7101    6.7572 H   0  0  0  0  0  0
   -2.5755   21.2162    3.6122 H   0  0  0  0  0  0
   -3.4127   24.2229    7.4404 H   0  0  0  0  0  0
   -4.8880   21.7304    4.2900 H   0  0  0  0  0  0
   -5.3175   23.3191    6.1180 H   0  0  0  0  0  0
    2.1634   22.7865    5.5854 H   0  0  0  0  0  0
    4.3474   22.9596    3.5747 H   0  0  0  0  0  0
    4.4302   22.2555    6.5682 H   0  0  0  0  0  0
    5.8796   22.5536    5.5498 H   0  0  0  0  0  0
    5.0860   23.8940    8.0061 H   0  0  0  0  0  0
    4.8373   25.7148    7.5033 H   0  0  0  0  0  0
    4.2217   21.3804    2.1697 H   0  0  0  0  0  0
    4.1010   19.2361    1.3608 H   0  0  0  0  0  0
    6.0460   17.6886    2.0719 H   0  0  0  0  0  0
    6.5196   19.3672    1.6419 H   0  0  0  0  0  0
    6.0129   17.0100    4.4825 H   0  0  0  0  0  0
    7.6326   20.7512    3.1770 H   0  0  0  0  0  0
    7.2720   17.2075    6.5958 H   0  0  0  0  0  0
    8.8836   20.9473    5.2893 H   0  0  0  0  0  0
    8.7916   18.4057    7.9965 H   0  0  0  0  0  0
    4.8450   16.6595    2.3601 H   0  0  0  0  0  0
    2.8369   16.1103    4.5355 H   0  0  0  0  0  0
    1.4594   14.5850    3.0202 H   0  0  0  0  0  0
    1.3180   16.3261    2.6017 H   0  0  0  0  0  0
    3.0728   15.9523    0.8294 H   0  0  0  0  0  0
    2.9555   14.1937    1.1760 H   0  0  0  0  0  0
    0.0702   16.0043   -1.0974 H   0  0  0  0  0  0
    5.7096   15.8271    3.7745 H   0  0  0  0  0  0
    5.8316   12.8764    3.1451 H   0  0  0  0  0  0
    8.1660   14.8485    3.4782 H   0  0  0  0  0  0
    8.1581   13.3076    2.5551 H   0  0  0  0  0  0
    7.8992   15.2871    1.0006 H   0  0  0  0  0  0
    5.9892   11.3822    4.5713 H   0  0  0  0  0  0
    7.8730   11.9716    6.8759 H   0  0  0  0  0  0
    5.5997   12.2887    7.8604 H   0  0  0  0  0  0
    7.3337   11.2112    9.3134 H   0  0  0  0  0  0
    4.3512   10.8475    6.2155 H   0  0  0  0  0  0
    3.9743   10.4481    7.9258 H   0  0  0  0  0  0
    5.0834    9.3969    6.9814 H   0  0  0  0  0  0
    7.5597   10.5371    4.1864 H   0  0  0  0  0  0
    7.5452    7.6679    5.0759 H   0  0  0  0  0  0
    7.6110    7.1855    2.6048 H   0  0  0  0  0  0
    6.3342    8.3860    2.9987 H   0  0  0  0  0  0
    7.9166   11.0277    1.1349 H   0  0  0  0  0  0
   11.8780    7.1366    5.2108 H   0  0  0  0  0  0
   12.1128    4.4645    4.3570 H   0  0  0  0  0  0
   11.4450    4.8971    5.9675 H   0  0  0  0  0  0
   10.0075    4.2087    3.3988 H   0  0  0  0  0  0
    9.6482    3.6890    5.0803 H   0  0  0  0  0  0
    8.5701    5.7306    5.6083 H   0  0  0  0  0  0
    8.2637    5.7406    3.8384 H   0  0  0  0  0  0
   10.3273    7.4382    2.3356 H   0  0  0  0  0  0
   12.8113    6.5871    0.8082 H   0  0  0  0  0  0
   10.1094    7.5834   -0.2800 H   0  0  0  0  0  0
   11.4058    6.7610   -1.2126 H   0  0  0  0  0  0
   12.0725    4.3871   -0.3476 H   0  0  0  0  0  0
    8.3799    6.3323    0.5817 H   0  0  0  0  0  0
   11.0625    2.2076    0.2063 H   0  0  0  0  0  0
    7.3785    4.1585    1.1579 H   0  0  0  0  0  0
    8.7157    2.0899    0.9646 H   0  0  0  0  0  0
   10.6570    9.4064    1.4427 H   0  0  0  0  0  0
   12.5019   10.9791   -0.3157 H   0  0  0  0  0  0
   10.8376   12.9178    0.1645 H   0  0  0  0  0  0
   10.1002   12.1814    2.4424 H   0  0  0  0  0  0
   10.5222   11.3345   -1.7629 H   0  0  0  0  0  0
    8.9677   11.9202   -1.0794 H   0  0  0  0  0  0
    9.5554   10.2686   -0.6878 H   0  0  0  0  0  0
   13.4419    9.8702    2.2427 H   0  0  0  0  0  0
   13.7247   12.4406    3.8343 H   0  0  0  0  0  0
   13.0003   10.3863    5.0377 H   0  0  0  0  0  0
   14.5866   10.9634    5.6517 H   0  0  0  0  0  0
   14.5131    9.5580    4.5354 H   0  0  0  0  0  0
   15.2188   11.0507    1.2903 H   0  0  0  0  0  0
   17.8381   12.2409    2.2447 H   0  0  0  0  0  0
   17.9204   13.8230   -0.9596 H   0  0  0  0  0  0
   17.3701    9.3985    1.3575 H   0  0  0  0  0  0
   18.8533   10.1950    0.7313 H   0  0  0  0  0  0
   19.6176   10.6402    2.9912 H   0  0  0  0  0  0
   18.0920    9.9796    3.6713 H   0  0  0  0  0  0
   18.6221    7.7702    2.9900 H   0  0  0  0  0  0
   19.9330    8.3330    1.8986 H   0  0  0  0  0  0
   20.7606    7.3105    4.0260 H   0  0  0  0  0  0
   21.2895    9.0115    3.7949 H   0  0  0  0  0  0
   20.6114    8.5848    6.0831 H   0  0  0  0  0  0
   18.9884    8.0639    5.5161 H   0  0  0  0  0  0
   19.5173    9.7650    5.2851 H   0  0  0  0  0  0
  1  2  1  0  0  0
  1102  1  0  0  0
  1103  1  0  0  0
  1104  1  0  0  0
  2  3  1  0  0  0
  2  5  1  0  0  0
  2105  1  0  0  0
  3  4  2  0  0  0
  3 12  1  0  0  0
  5  6  1  0  0  0
  5106  1  0  0  0
  5107  1  0  0  0
  6  7  2  0  0  0
  6  8  1  0  0  0
  7  9  1  0  0  0
  7108  1  0  0  0
  8 10  2  0  0  0
  8109  1  0  0  0
  9 11  2  0  0  0
  9110  1  0  0  0
 10 11  1  0  0  0
 10111  1  0  0  0
 11112  1  0  0  0
 12 13  1  0  0  0
 12113  1  0  0  0
 13 14  1  0  0  0
 13 16  1  0  0  0
 13114  1  0  0  0
 14 15  2  0  0  0
 14 20  1  0  0  0
 16 17  1  0  0  0
 16115  1  0  0  0
 16116  1  0  0  0
 17 18  2  0  0  0
 17 19  1  0  0  0
 19117  1  0  0  0
 19118  1  0  0  0
 20 21  1  0  0  0
 20119  1  0  0  0
 21 22  1  0  0  0
 21 24  1  0  0  0
 21120  1  0  0  0
 22 23  2  0  0  0
 22 32  1  0  0  0
 24 25  1  0  0  0
 24121  1  0  0  0
 24122  1  0  0  0
 25 26  2  0  0  0
 25 27  1  0  0  0
 26 28  1  0  0  0
 26123  1  0  0  0
 27 29  2  0  0  0
 27124  1  0  0  0
 28 30  2  0  0  0
 28125  1  0  0  0
 29 30  1  0  0  0
 29126  1  0  0  0
 30 31  1  0  0  0
 31127  1  0  0  0
 32 33  1  0  0  0
 32128  1  0  0  0
 33 34  1  0  0  0
 33 36  1  0  0  0
 33129  1  0  0  0
 34 35  2  0  0  0
 34 41  1  0  0  0
 36 37  1  0  0  0
 36130  1  0  0  0
 36131  1  0  0  0
 37 38  1  0  0  0
 37132  1  0  0  0
 37133  1  0  0  0
 38 39  2  0  0  0
 38 40  1  0  0  0
 40134  1  0  0  0
 41 42  1  0  0  0
 41135  1  0  0  0
 42 43  1  0  0  0
 42 45  1  0  0  0
 42136  1  0  0  0
 43 44  2  0  0  0
 43 47  1  0  0  0
 45 46  1  0  0  0
 45137  1  0  0  0
 45138  1  0  0  0
 46139  1  0  0  0
 47 48  1  0  0  0
 47140  1  0  0  0
 48 49  1  0  0  0
 48 51  1  0  0  0
 48141  1  0  0  0
 49 50  2  0  0  0
 49 54  1  0  0  0
 51 52  1  0  0  0
 51 53  1  0  0  0
 51142  1  0  0  0
 52143  1  0  0  0
 53144  1  0  0  0
 53145  1  0  0  0
 53146  1  0  0  0
 54 55  1  0  0  0
 54147  1  0  0  0
 55 56  1  0  0  0
 55 58  1  0  0  0
 55148  1  0  0  0
 56 57  2  0  0  0
 56 62  1  0  0  0
 58 59  1  0  0  0
 58149  1  0  0  0
 58150  1  0  0  0
 59 60  2  0  0  0
 59 61  1  0  0  0
 61151  1  0  0  0
 62 63  1  0  0  0
 62 68  1  0  0  0
 63 64  1  0  0  0
 63 66  1  0  0  0
 63152  1  0  0  0
 64 65  2  0  0  0
 64 69  1  0  0  0
 66 67  1  0  0  0
 66153  1  0  0  0
 66154  1  0  0  0
 67 68  1  0  0  0
 67155  1  0  0  0
 67156  1  0  0  0
 68157  1  0  0  0
 68158  1  0  0  0
 69 70  1  0  0  0
 69159  1  0  0  0
 70 71  1  0  0  0
 70 73  1  0  0  0
 70160  1  0  0  0
 71 72  2  0  0  0
 71 80  1  0  0  0
 73 74  1  0  0  0
 73161  1  0  0  0
 73162  1  0  0  0
 74 75  2  0  0  0
 74 76  1  0  0  0
 75 77  1  0  0  0
 75163  1  0  0  0
 76 78  2  0  0  0
 76164  1  0  0  0
 77 79  2  0  0  0
 77165  1  0  0  0
 78 79  1  0  0  0
 78166  1  0  0  0
 79167  1  0  0  0
 80 81  1  0  0  0
 80168  1  0  0  0
 81 82  1  0  0  0
 81 84  1  0  0  0
 81169  1  0  0  0
 82 83  2  0  0  0
 82 87  1  0  0  0
 84 85  1  0  0  0
 84 86  1  0  0  0
 84170  1  0  0  0
 85171  1  0  0  0
 86172  1  0  0  0
 86173  1  0  0  0
 86174  1  0  0  0
 87 88  1  0  0  0
 87175  1  0  0  0
 88 89  1  0  0  0
 88 91  1  0  0  0
 88176  1  0  0  0
 89 90  2  0  0  0
 89 92  1  0  0  0
 91177  1  0  0  0
 91178  1  0  0  0
 91179  1  0  0  0
 92 93  1  0  0  0
 92180  1  0  0  0
 93 94  1  0  0  0
 93 96  1  0  0  0
 93181  1  0  0  0
 94 95  1  0  0  0
 94101  2  0  0  0
 95182  1  0  0  0
 96 97  1  0  0  0
 96183  1  0  0  0
 96184  1  0  0  0
 97 98  1  0  0  0
 97185  1  0  0  0
 97186  1  0  0  0
 98 99  1  0  0  0
 98187  1  0  0  0
 98188  1  0  0  0
 99100  1  0  0  0
 99189  1  0  0  0
 99190  1  0  0  0
100191  1  0  0  0
100192  1  0  0  0
100193  1  0  0  0
M  CHG  2   1   1 100   1
M  END
> <s_m_source_file>
../2kfg_ligand.sdf

> <i_m_source_file_index>
1

> <s_epik_input>
W2NIXTFbY0hdW2NIXVtjSF1bY0hdYzFbQ0gyXVtDQEhdKFtOSDMrXSlDKD1PKVtOSF1bQ0BASF0oW0NIMl1DKD1PKVtOSDJdKUMoPU8pW05IXVtDQEBIXShbQ0gyXWMyW2NIXVtjSF1jKFtPSF0pW2NIXVtjSF0yKUMoPU8pW05IXVtDQEBIXShbQ0gyXVtDSDJdQyg9TylbT0hdKUMoPU8pW05IXVtDQEBIXShbQ0gyXVtPSF0pQyg9TylbTkhdW0NAQEhdKFtDQEhdKFtPSF0pW0NIM10pQyg9TylbTkhdW0NAQEhdKFtDSDJdQyg9TylbT0hdKUMoPU8pTjNbQ0BASF0oW0NIMl1bQ0gyXVtDSDJdMylDKD1PKVtOSF1bQ0BASF0oW0NIMl1jNFtjSF1bY0hdW2NIXVtjSF1bY0hdNClDKD1PKVtOSF1bQ0BASF0oW0NASF0oW09IXSlbQ0gzXSlDKD1PKVtOSF1bQ0BASF0oW0NIM10pQyg9TylbTkhdW0NASF0oQyg9TylbT0hdKVtDSDJdW0NIMl1bQ0gyXVtDSDJdW05IMytd

> <s_epik_cmdline>
J2VwaWtfYXBwJywgJy1pbWFlJywgJ2xpZ2FuZF9wcm8ubWFlJywgJy1vbWFlJywgJ2xpZ2FuZF9wcmVwLm1hZScsICctbXMnLCAnMScsICctcGgnLCAnNycsICctcGh0JywgJzAuNScsICctbnQn

> <s_epik_pKa_notes>
Molecule size exceeds maximum supported for generating protonation states

$$$$
