2kfh_ligand
                    3D
 Schrodinger Suite 2020-3.
187190  0  0  1  0            999 V2000
   22.1820   12.4340    5.7720 N   0  3  0  0  0  0
   20.8050   12.5850    6.2860 C   0  0  2  0  0  0
   19.7940   12.0530    5.2750 C   0  0  0  0  0  0
   19.7590   12.4960    4.1260 O   0  0  0  0  0  0
   20.5280   14.0610    6.5850 C   0  0  0  0  0  0
   19.2090   14.3160    7.2620 C   0  0  0  0  0  0
   19.0530   14.0700    8.6190 C   0  0  0  0  0  0
   18.1310   14.8080    6.5460 C   0  0  0  0  0  0
   17.8450   14.3080    9.2460 C   0  0  0  0  0  0
   16.9200   15.0490    7.1690 C   0  0  0  0  0  0
   16.7760   14.7980    8.5200 C   0  0  0  0  0  0
   18.9860   11.0940    5.7040 N   0  0  0  0  0  0
   17.9700   10.5050    4.8400 C   0  0  2  0  0  0
   16.8190   11.4790    4.5970 C   0  0  0  0  0  0
   16.2940   12.0910    5.5310 O   0  0  0  0  0  0
   17.4370    9.1990    5.4420 C   0  0  0  0  0  0
   16.4270    8.5250    4.5330 C   0  0  0  0  0  0
   15.2240    8.7580    4.6370 O   0  0  0  0  0  0
   16.9130    7.6850    3.6360 N   0  0  0  0  0  0
   16.4350   11.6160    3.3340 N   0  0  0  0  0  0
   15.3830   12.5410    2.9430 C   0  0  2  0  0  0
   14.6820   12.0260    1.6860 C   0  0  0  0  0  0
   15.3360   11.5090    0.7790 O   0  0  0  0  0  0
   15.9920   13.9290    2.6980 C   0  0  0  0  0  0
   14.9840   15.0290    2.4240 C   0  0  0  0  0  0
   14.2260   15.5790    3.4530 C   0  0  0  0  0  0
   14.8040   15.5270    1.1380 C   0  0  0  0  0  0
   13.3160   16.5900    3.2060 C   0  0  0  0  0  0
   13.8970   16.5430    0.8870 C   0  0  0  0  0  0
   13.1570   17.0680    1.9240 C   0  0  0  0  0  0
   12.2600   18.0850    1.6810 O   0  0  0  0  0  0
   13.3620   12.1500    1.6400 N   0  0  0  0  0  0
   12.5910   11.6720    0.4970 C   0  0  2  0  0  0
   11.8410   12.8190   -0.1770 C   0  0  0  0  0  0
   11.9500   13.9730    0.2410 O   0  0  0  0  0  0
   11.6350   10.5430    0.9280 C   0  0  0  0  0  0
   10.6900   10.8970    2.0700 C   0  0  0  0  0  0
    9.5000   11.7250    1.6270 C   0  0  0  0  0  0
    8.8670   11.3570    0.6140 O   0  0  0  0  0  0
    9.1800   12.7280    2.3010 O   0  0  0  0  0  0
   11.1040   12.5040   -1.2320 N   0  0  0  0  0  0
   10.3780   13.5160   -1.9860 C   0  0  2  0  0  0
    8.8820   13.2190   -2.0030 C   0  0  0  0  0  0
    8.0620   14.0350   -1.5770 O   0  0  0  0  0  0
   10.9230   13.5810   -3.4150 C   0  0  0  0  0  0
   10.9320   12.2950   -4.0190 O   0  0  0  0  0  0
    8.5440   12.0470   -2.5120 N   0  0  0  0  0  0
    7.1630   11.6030   -2.6110 C   0  0  2  0  0  0
    7.0800   10.1300   -2.2490 C   0  0  0  0  0  0
    6.2310    9.3900   -2.7520 O   0  0  0  0  0  0
    6.6250   11.8160   -4.0400 C   0  0  2  0  0  0
    7.6690   11.5750   -4.9930 O   0  0  0  0  0  0
    6.0780   13.2250   -4.2200 C   0  0  0  0  0  0
    7.9560    9.7200   -1.3500 N   0  0  0  0  0  0
    8.1140    8.3230   -1.0510 C   0  0  0  0  0  0
    9.5760    7.9450   -1.0070 C   0  0  0  0  0  0
   10.4140    8.6390   -1.5830 O   0  0  0  0  0  0
    9.9110    6.8430   -0.3350 N   0  0  0  0  0  0
   11.2980    6.3980   -0.1600 C   0  0  2  0  0  0
   11.8900    5.8210   -1.4480 C   0  0  0  0  0  0
   13.0410    5.3800   -1.4740 O   0  0  0  0  0  0
   11.1760    5.3280    0.9290 C   0  0  0  0  0  0
    9.8090    4.7720    0.7440 C   0  0  0  0  0  0
    8.9550    5.9340    0.3230 C   0  0  0  0  0  0
   11.0800    5.7910   -2.5000 N   0  0  0  0  0  0
   11.5050    5.2390   -3.7850 C   0  0  2  0  0  0
   11.7470    6.3290   -4.8300 C   0  0  0  0  0  0
   12.6920    6.2420   -5.6110 O   0  0  0  0  0  0
   10.4580    4.2570   -4.3130 C   0  0  0  0  0  0
   10.1520    3.1530   -3.3500 C   0  0  0  0  0  0
   11.1400    2.2730   -2.9430 C   0  0  0  0  0  0
    8.8670    2.9900   -2.8600 C   0  0  0  0  0  0
   10.8520    1.2510   -2.0640 C   0  0  0  0  0  0
    8.5730    1.9680   -1.9820 C   0  0  0  0  0  0
    9.6020    1.1190   -1.5490 C   0  0  0  0  0  0
   10.9030    7.3520   -4.8260 N   0  0  0  0  0  0
   10.8950    8.3590   -5.8830 C   0  0  2  0  0  0
   11.8740    9.4980   -5.6080 C   0  0  0  0  0  0
   11.7250   10.6040   -6.1340 O   0  0  0  0  0  0
    9.4750    8.9240   -6.0610 C   0  0  2  0  0  0
    8.8640    9.1280   -4.7800 O   0  0  0  0  0  0
    8.6230    7.9820   -6.8940 C   0  0  0  0  0  0
   12.8900    9.2210   -4.8070 N   0  0  0  0  0  0
   13.9070   10.2120   -4.5060 C   0  0  2  0  0  0
   14.8080   10.4370   -5.7170 C   0  0  0  0  0  0
   15.1150    9.4970   -6.4530 O   0  0  0  0  0  0
   14.7250    9.7790   -3.3030 C   0  0  0  0  0  0
   15.2170   11.6820   -5.9250 N   0  0  0  0  0  0
   16.0730   12.0260   -7.0510 C   0  0  2  0  0  0
   17.5370   11.8790   -6.6620 C   0  0  0  0  0  0
   18.1230   10.8100   -6.9390 O   0  0  0  0  0  0
   15.7980   13.4580   -7.5220 C   0  0  0  0  0  0
   14.3460   13.7200   -7.8910 C   0  0  0  0  0  0
   13.8920   12.8840   -9.0760 C   0  0  0  0  0  0
   12.4670   13.2320   -9.4800 C   0  0  0  0  0  0
   12.3420   14.6500   -9.9150 N   0  3  0  0  0  0
   18.0910   12.8240   -6.0620 O   0  0  0  0  0  0
   22.3791   11.3732    5.5578 H   0  0  0  0  0  0
   22.8966   12.7947    6.5265 H   0  0  0  0  0  0
   22.2954   13.0217    4.8491 H   0  0  0  0  0  0
   20.7381   11.9887    7.2079 H   0  0  0  0  0  0
   21.3125   14.4542    7.2483 H   0  0  0  0  0  0
   20.5234   14.6311    5.6443 H   0  0  0  0  0  0
   19.8931   13.6846    9.1967 H   0  0  0  0  0  0
   18.2379   15.0076    5.4798 H   0  0  0  0  0  0
   17.7353   14.1095   10.3121 H   0  0  0  0  0  0
   16.0791   15.4370    6.5941 H   0  0  0  0  0  0
   15.8217   14.9860    9.0120 H   0  0  0  0  0  0
   19.0966   10.7437    6.7409 H   0  0  0  0  0  0
   18.4885   10.3055    3.8906 H   0  0  0  0  0  0
   18.2725    8.5020    5.6036 H   0  0  0  0  0  0
   16.9459    9.4118    6.4030 H   0  0  0  0  0  0
   17.9971    7.5074    3.5794 H   0  0  0  0  0  0
   16.2334    7.1634    2.9460 H   0  0  0  0  0  0
   16.9392   11.0028    2.5726 H   0  0  0  0  0  0
   14.6643   12.5799    3.7748 H   0  0  0  0  0  0
   16.5656   14.2393    3.5839 H   0  0  0  0  0  0
   16.6598   13.8875    1.8249 H   0  0  0  0  0  0
   14.3516   15.2069    4.4698 H   0  0  0  0  0  0
   15.3856   15.1113    0.3152 H   0  0  0  0  0  0
   12.7267   17.0072    4.0225 H   0  0  0  0  0  0
   13.7692   16.9254   -0.1257 H   0  0  0  0  0  0
   11.6682   18.5056    2.5074 H   0  0  0  0  0  0
   12.8493   12.6257    2.4891 H   0  0  0  0  0  0
   13.3313   11.2793   -0.2156 H   0  0  0  0  0  0
   11.0029   10.2525    0.0759 H   0  0  0  0  0  0
   12.2208    9.6743    1.2629 H   0  0  0  0  0  0
   10.3011    9.9735    2.5237 H   0  0  0  0  0  0
   11.2340   11.4778    2.8295 H   0  0  0  0  0  0
    8.3199   13.3430    1.9976 H   0  0  0  0  0  0
   11.0485   11.4478   -1.5342 H   0  0  0  0  0  0
   10.5497   14.4655   -1.4578 H   0  0  0  0  0  0
   10.2904   14.2484   -4.0187 H   0  0  0  0  0  0
   11.9524   13.9683   -3.3976 H   0  0  0  0  0  0
   11.2968   12.1740   -5.0497 H   0  0  0  0  0  0
    9.3573   11.3980   -2.8688 H   0  0  0  0  0  0
    6.5969   12.2109   -1.8899 H   0  0  0  0  0  0
    5.8339   11.0860   -4.2663 H   0  0  0  0  0  0
    8.1837   10.6030   -5.0110 H   0  0  0  0  0  0
    5.2779   13.4041   -3.4867 H   0  0  0  0  0  0
    5.6742   13.3344   -5.2373 H   0  0  0  0  0  0
    6.8866   13.9547   -4.0660 H   0  0  0  0  0  0
    8.5703   10.4674   -0.8266 H   0  0  0  0  0  0
    7.6619    8.1041   -0.0724 H   0  0  0  0  0  0
    7.6162    7.7233   -1.8273 H   0  0  0  0  0  0
   11.9457    7.2470    0.1042 H   0  0  0  0  0  0
   11.9548    4.5652    0.7824 H   0  0  0  0  0  0
   11.3012    5.7946    1.9172 H   0  0  0  0  0  0
    9.8327    3.9904   -0.0297 H   0  0  0  0  0  0
    9.4579    4.3388    1.6922 H   0  0  0  0  0  0
    8.4927    6.4459    1.1799 H   0  0  0  0  0  0
    8.1740    5.6414   -0.3943 H   0  0  0  0  0  0
   10.0641    6.1968   -2.3847 H   0  0  0  0  0  0
   12.4543    4.7296   -3.5627 H   0  0  0  0  0  0
    9.5194    4.7945   -4.5136 H   0  0  0  0  0  0
   10.8230    3.7968   -5.2431 H   0  0  0  0  0  0
   12.1556    2.3894   -3.3213 H   0  0  0  0  0  0
    8.0798    3.6766   -3.1715 H   0  0  0  0  0  0
   11.6321    0.5445   -1.7805 H   0  0  0  0  0  0
    7.5524    1.8217   -1.6285 H   0  0  0  0  0  0
    9.3988    0.3538   -0.7998 H   0  0  0  0  0  0
   10.1926    7.4270   -3.9895 H   0  0  0  0  0  0
   11.2314    7.8175   -6.7795 H   0  0  0  0  0  0
    9.5077    9.9151   -6.5371 H   0  0  0  0  0  0
    9.3440    9.7854   -4.0401 H   0  0  0  0  0  0
    9.0969    7.8297   -7.8749 H   0  0  0  0  0  0
    7.6231    8.4187   -7.0336 H   0  0  0  0  0  0
    8.5321    7.0155   -6.3766 H   0  0  0  0  0  0
   12.9544    8.2153   -4.3660 H   0  0  0  0  0  0
   13.3645   11.1386   -4.2672 H   0  0  0  0  0  0
   14.0575    9.6225   -2.4428 H   0  0  0  0  0  0
   15.4603   10.5600   -3.0593 H   0  0  0  0  0  0
   15.2500    8.8407   -3.5351 H   0  0  0  0  0  0
   14.8935   12.4631   -5.2213 H   0  0  0  0  0  0
   15.8194   11.3094   -7.8461 H   0  0  0  0  0  0
   19.1811   10.6769   -6.6693 H   0  0  0  0  0  0
   16.0618   14.1644   -6.7211 H   0  0  0  0  0  0
   16.4036   13.6730   -8.4148 H   0  0  0  0  0  0
   13.7003   13.4758   -7.0346 H   0  0  0  0  0  0
   14.2202   14.7806   -8.1543 H   0  0  0  0  0  0
   14.5557   13.0717   -9.9329 H   0  0  0  0  0  0
   13.9308   11.8177   -8.8088 H   0  0  0  0  0  0
   12.1549   12.5875  -10.3150 H   0  0  0  0  0  0
   11.7943   13.0745   -8.6240 H   0  0  0  0  0  0
   11.2990   14.8565  -10.1968 H   0  0  0  0  0  0
   12.9976   14.8272  -10.7803 H   0  0  0  0  0  0
   12.6371   15.3142   -9.0893 H   0  0  0  0  0  0
  1  2  1  0  0  0
  1 98  1  0  0  0
  1 99  1  0  0  0
  1100  1  0  0  0
  2  3  1  0  0  0
  2  5  1  0  0  0
  2101  1  0  0  0
  3  4  2  0  0  0
  3 12  1  0  0  0
  5  6  1  0  0  0
  5102  1  0  0  0
  5103  1  0  0  0
  6  7  2  0  0  0
  6  8  1  0  0  0
  7  9  1  0  0  0
  7104  1  0  0  0
  8 10  2  0  0  0
  8105  1  0  0  0
  9 11  2  0  0  0
  9106  1  0  0  0
 10 11  1  0  0  0
 10107  1  0  0  0
 11108  1  0  0  0
 12 13  1  0  0  0
 12109  1  0  0  0
 13 14  1  0  0  0
 13 16  1  0  0  0
 13110  1  0  0  0
 14 15  2  0  0  0
 14 20  1  0  0  0
 16 17  1  0  0  0
 16111  1  0  0  0
 16112  1  0  0  0
 17 18  2  0  0  0
 17 19  1  0  0  0
 19113  1  0  0  0
 19114  1  0  0  0
 20 21  1  0  0  0
 20115  1  0  0  0
 21 22  1  0  0  0
 21 24  1  0  0  0
 21116  1  0  0  0
 22 23  2  0  0  0
 22 32  1  0  0  0
 24 25  1  0  0  0
 24117  1  0  0  0
 24118  1  0  0  0
 25 26  2  0  0  0
 25 27  1  0  0  0
 26 28  1  0  0  0
 26119  1  0  0  0
 27 29  2  0  0  0
 27120  1  0  0  0
 28 30  2  0  0  0
 28121  1  0  0  0
 29 30  1  0  0  0
 29122  1  0  0  0
 30 31  1  0  0  0
 31123  1  0  0  0
 32 33  1  0  0  0
 32124  1  0  0  0
 33 34  1  0  0  0
 33 36  1  0  0  0
 33125  1  0  0  0
 34 35  2  0  0  0
 34 41  1  0  0  0
 36 37  1  0  0  0
 36126  1  0  0  0
 36127  1  0  0  0
 37 38  1  0  0  0
 37128  1  0  0  0
 37129  1  0  0  0
 38 39  2  0  0  0
 38 40  1  0  0  0
 40130  1  0  0  0
 41 42  1  0  0  0
 41131  1  0  0  0
 42 43  1  0  0  0
 42 45  1  0  0  0
 42132  1  0  0  0
 43 44  2  0  0  0
 43 47  1  0  0  0
 45 46  1  0  0  0
 45133  1  0  0  0
 45134  1  0  0  0
 46135  1  0  0  0
 47 48  1  0  0  0
 47136  1  0  0  0
 48 49  1  0  0  0
 48 51  1  0  0  0
 48137  1  0  0  0
 49 50  2  0  0  0
 49 54  1  0  0  0
 51 52  1  0  0  0
 51 53  1  0  0  0
 51138  1  0  0  0
 52139  1  0  0  0
 53140  1  0  0  0
 53141  1  0  0  0
 53142  1  0  0  0
 54 55  1  0  0  0
 54143  1  0  0  0
 55 56  1  0  0  0
 55144  1  0  0  0
 55145  1  0  0  0
 56 57  2  0  0  0
 56 58  1  0  0  0
 58 59  1  0  0  0
 58 64  1  0  0  0
 59 60  1  0  0  0
 59 62  1  0  0  0
 59146  1  0  0  0
 60 61  2  0  0  0
 60 65  1  0  0  0
 62 63  1  0  0  0
 62147  1  0  0  0
 62148  1  0  0  0
 63 64  1  0  0  0
 63149  1  0  0  0
 63150  1  0  0  0
 64151  1  0  0  0
 64152  1  0  0  0
 65 66  1  0  0  0
 65153  1  0  0  0
 66 67  1  0  0  0
 66 69  1  0  0  0
 66154  1  0  0  0
 67 68  2  0  0  0
 67 76  1  0  0  0
 69 70  1  0  0  0
 69155  1  0  0  0
 69156  1  0  0  0
 70 71  2  0  0  0
 70 72  1  0  0  0
 71 73  1  0  0  0
 71157  1  0  0  0
 72 74  2  0  0  0
 72158  1  0  0  0
 73 75  2  0  0  0
 73159  1  0  0  0
 74 75  1  0  0  0
 74160  1  0  0  0
 75161  1  0  0  0
 76 77  1  0  0  0
 76162  1  0  0  0
 77 78  1  0  0  0
 77 80  1  0  0  0
 77163  1  0  0  0
 78 79  2  0  0  0
 78 83  1  0  0  0
 80 81  1  0  0  0
 80 82  1  0  0  0
 80164  1  0  0  0
 81165  1  0  0  0
 82166  1  0  0  0
 82167  1  0  0  0
 82168  1  0  0  0
 83 84  1  0  0  0
 83169  1  0  0  0
 84 85  1  0  0  0
 84 87  1  0  0  0
 84170  1  0  0  0
 85 86  2  0  0  0
 85 88  1  0  0  0
 87171  1  0  0  0
 87172  1  0  0  0
 87173  1  0  0  0
 88 89  1  0  0  0
 88174  1  0  0  0
 89 90  1  0  0  0
 89 92  1  0  0  0
 89175  1  0  0  0
 90 91  1  0  0  0
 90 97  2  0  0  0
 91176  1  0  0  0
 92 93  1  0  0  0
 92177  1  0  0  0
 92178  1  0  0  0
 93 94  1  0  0  0
 93179  1  0  0  0
 93180  1  0  0  0
 94 95  1  0  0  0
 94181  1  0  0  0
 94182  1  0  0  0
 95 96  1  0  0  0
 95183  1  0  0  0
 95184  1  0  0  0
 96185  1  0  0  0
 96186  1  0  0  0
 96187  1  0  0  0
M  CHG  2   1   1  96   1
M  END
> <s_m_source_file>
../2kfh_ligand.sdf

> <i_m_source_file_index>
1

> <s_epik_input>
W2NIXTFbY0hdW2NIXVtjSF1bY0hdYzFbQ0gyXVtDQEhdKFtOSDMrXSlDKD1PKVtOSF1bQ0BASF0oW0NIMl1DKD1PKVtOSDJdKUMoPU8pW05IXVtDQEBIXShbQ0gyXWMyW2NIXVtjSF1jKFtPSF0pW2NIXVtjSF0yKUMoPU8pW05IXVtDQEBIXShbQ0gyXVtDSDJdQyg9TylbT0hdKUMoPU8pW05IXVtDQEBIXShbQ0gyXVtPSF0pQyg9TylbTkhdW0NAQEhdKFtDQEhdKFtPSF0pW0NIM10pQyg9TylbTkhdW0NIMl1DKD1PKU4zW0NAQEhdKFtDSDJdW0NIMl1bQ0gyXTMpQyg9TylbTkhdW0NAQEhdKFtDSDJdYzRbY0hdW2NIXVtjSF1bY0hdW2NIXTQpQyg9TylbTkhdW0NAQEhdKFtDQEhdKFtPSF0pW0NIM10pQyg9TylbTkhdW0NAQEhdKFtDSDNdKUMoPU8pW05IXVtDQEhdKEMoPU8pW09IXSlbQ0gyXVtDSDJdW0NIMl1bQ0gyXVtOSDMrXQ==

> <s_epik_cmdline>
J2VwaWtfYXBwJywgJy1pbWFlJywgJ2xpZ2FuZF9wcm8ubWFlJywgJy1vbWFlJywgJ2xpZ2FuZF9wcmVwLm1hZScsICctbXMnLCAnMScsICctcGgnLCAnNycsICctcGh0JywgJzAuNScsICctbnQn

> <s_epik_pKa_notes>
Molecule size exceeds maximum supported for generating protonation states

$$$$
