2kfx_ligand
                    3D
 Schrodinger Suite 2020-3.
 44 45  0  0  1  0            999 V2000
   80.5120    3.5460   -4.6840 S   0  0  0  0  0  0
   81.1220    3.1440   -5.9080 O   0  0  0  0  0  0
   80.0010    4.8940   -4.6240 O   0  0  0  0  0  0
   79.1720    2.4680   -4.4240 N   0  0  3  0  0  0
   83.5310    3.0740   -1.0900 C   0  0  0  0  0  0
   82.7070    4.2620   -1.2390 C   0  0  0  0  0  0
   81.7800    4.3970   -2.3630 C   0  0  0  0  0  0
   81.6580    3.3380   -3.3570 C   0  0  0  0  0  0
   82.4730    2.1370   -3.2400 C   0  0  0  0  0  0
   83.4330    2.0030   -2.0750 C   0  0  0  0  0  0
   85.3400    0.5440   -0.6480 Cl  0  0  0  0  0  0
   84.2360    0.7930   -1.9530 C   0  0  0  0  0  0
   84.1160   -0.2700   -2.9400 C   0  0  0  0  0  0
   83.1880   -0.1340   -4.0650 C   0  0  0  0  0  0
   82.3690    1.0600   -4.2180 C   0  0  0  0  0  0
   77.8860    3.0730   -4.0850 C   0  0  0  0  0  0
   77.4570    2.8470   -2.6360 C   0  0  0  0  0  0
   79.2170    2.8360   -0.8560 C   0  0  0  0  0  0
   78.2960    3.7170   -1.7000 C   0  0  0  0  0  0
   79.2490    3.3530    0.5860 C   0  0  0  0  0  0
   80.6500    3.1660    1.1770 C   0  0  0  0  0  0
   81.2660    4.4210    1.5760 N   0  3  0  0  0  0
   79.3054    1.3790   -4.3449 H   0  0  0  0  0  0
   84.2174    2.9842   -0.2480 H   0  0  0  0  0  0
   82.7806    5.0631   -0.5035 H   0  0  0  0  0  0
   81.1747    5.2985   -2.4579 H   0  0  0  0  0  0
   84.7199   -1.1720   -2.8414 H   0  0  0  0  0  0
   83.1095   -0.9374   -4.7974 H   0  0  0  0  0  0
   81.6816    1.1486   -5.0592 H   0  0  0  0  0  0
   77.9395    4.1604   -4.2424 H   0  0  0  0  0  0
   77.1002    2.6479   -4.7267 H   0  0  0  0  0  0
   76.3956    3.1126   -2.5222 H   0  0  0  0  0  0
   77.6005    1.7889   -2.3719 H   0  0  0  0  0  0
   78.8432    1.8015   -0.8638 H   0  0  0  0  0  0
   80.2338    2.8616   -1.2748 H   0  0  0  0  0  0
   78.9054    4.4134   -2.2947 H   0  0  0  0  0  0
   77.6308    4.2876   -1.0352 H   0  0  0  0  0  0
   78.9903    4.4221    0.5980 H   0  0  0  0  0  0
   78.5220    2.7930    1.1925 H   0  0  0  0  0  0
   80.5894    2.5236    2.0679 H   0  0  0  0  0  0
   81.3037    2.6942    0.4286 H   0  0  0  0  0  0
   82.2654    4.2233    1.9909 H   0  0  0  0  0  0
   80.6422    4.9093    2.3392 H   0  0  0  0  0  0
   81.3565    5.0799    0.6998 H   0  0  0  0  0  0
  1  2  2  0  0  0
  1  3  2  0  0  0
  1  4  1  0  0  0
  1  8  1  0  0  0
  4 16  1  0  0  0
  4 23  1  0  0  0
  5  6  2  0  0  0
  5 10  1  0  0  0
  5 24  1  0  0  0
  6  7  1  0  0  0
  6 25  1  0  0  0
  7  8  2  0  0  0
  7 26  1  0  0  0
  8  9  1  0  0  0
  9 10  2  0  0  0
  9 15  1  0  0  0
 10 12  1  0  0  0
 11 12  1  0  0  0
 12 13  2  0  0  0
 13 14  1  0  0  0
 13 27  1  0  0  0
 14 15  2  0  0  0
 14 28  1  0  0  0
 15 29  1  0  0  0
 16 17  1  0  0  0
 16 30  1  0  0  0
 16 31  1  0  0  0
 17 19  1  0  0  0
 17 32  1  0  0  0
 17 33  1  0  0  0
 18 19  1  0  0  0
 18 20  1  0  0  0
 18 34  1  0  0  0
 18 35  1  0  0  0
 19 36  1  0  0  0
 19 37  1  0  0  0
 20 21  1  0  0  0
 20 38  1  0  0  0
 20 39  1  0  0  0
 21 22  1  0  0  0
 21 40  1  0  0  0
 21 41  1  0  0  0
 22 42  1  0  0  0
 22 43  1  0  0  0
 22 44  1  0  0  0
M  CHG  1  22   1
M  END
> <s_m_source_file>
../2kfx_ligand.sdf

> <i_m_source_file_index>
1

> <s_epik_input>
W05IMytdW0NIMl1bQ0gyXVtDSDJdW0NIMl1bQ0gyXVtDSDJdW05IXVMoPU8pKD1PKWMxW2NIXVtjSF1bY0hdYyhjMTIpYyhDbClbY0hdW2NIXVtjSF0y

> <s_epik_cmdline>
J2VwaWtfYXBwJywgJy1pbWFlJywgJ2xpZ2FuZF9wcm8ubWFlJywgJy1vbWFlJywgJ2xpZ2FuZF9wcmVwLm1hZScsICctbXMnLCAnMScsICctcGgnLCAnNycsICctcGh0JywgJzAuNScsICctbnQn

> <r_lp_tautomer_probability>
1

> <r_epik_Ionization_Penalty>
  0.0004

> <r_epik_Ionization_Penalty_Charging>
  0.0004

> <r_epik_Ionization_Penalty_Neutral>
  0.0000

> <r_epik_State_Penalty>
 -0.0000

> <r_epik_Charging_Adjusted_Penalty>
0.000375685438507565

> <i_epik_Tot_Q>
1

> <i_epik_Tot_abs_Q>
1

$$$$
