2kgi_ligand
                    3D
 Schrodinger Suite 2020-3.
168167  0  0  1  0            999 V2000
    2.9830   10.2390   -2.9570 N   0  3  0  0  0  0
    2.7280    8.9560   -3.6650 C   0  0  2  0  0  0
    1.3040    8.8880   -4.1840 C   0  0  0  0  0  0
    0.5290    9.8600   -4.1300 O   0  0  0  0  0  0
    2.9780    7.7500   -2.7540 C   0  0  0  0  0  0
    0.9780    7.7620   -4.7130 N   0  0  0  0  0  0
   -0.3270    7.4670   -5.1800 C   0  0  2  0  0  0
   -0.9500    6.4730   -4.2130 C   0  0  0  0  0  0
   -0.4580    5.3650   -4.0490 O   0  0  0  0  0  0
   -0.2140    6.9210   -6.5980 C   0  0  0  0  0  0
    0.2220    7.9850   -7.6090 C   0  0  0  0  0  0
    0.7300    7.3830   -8.9150 C   0  0  0  0  0  0
    2.0690    6.7870   -8.7400 N   0  0  0  0  0  0
    2.6540    5.9250   -9.5680 C   0  0  0  0  0  0
    2.0190    5.4650  -10.6330 N   0  0  0  0  0  0
    3.8810    5.5180   -9.3160 N   0  0  0  0  0  0
   -1.9730    6.8920   -3.5270 N   0  0  0  0  0  0
   -2.6030    6.0670   -2.5240 C   0  0  2  0  0  0
   -3.9910    5.6230   -2.9500 C   0  0  0  0  0  0
   -4.5140    6.0820   -3.9810 O   0  0  0  0  0  0
   -2.6740    6.8070   -1.1580 C   0  0  2  0  0  0
   -3.2940    8.1130   -1.2990 O   0  0  0  0  0  0
   -1.2850    6.9480   -0.5830 C   0  0  0  0  0  0
   -4.5750    4.7200   -2.1760 N   0  0  0  0  0  0
   -5.9360    4.2280   -2.4300 C   0  0  1  0  0  0
   -5.9670    3.3130   -3.6490 C   0  0  0  0  0  0
   -5.0520    2.1640   -3.4980 C   0  0  0  0  0  0
   -4.9210    1.3310   -4.7290 C   0  0  0  0  0  0
   -6.1710    0.5820   -5.0970 C   0  0  0  0  0  0
   -5.9730   -0.2440   -6.3570 N   0  3  0  0  0  0
   -6.4380    3.4620   -1.2440 C   0  0  0  0  0  0
   -5.6600    3.1080   -0.3470 O   0  0  0  0  0  0
   -4.8130   -1.1570   -6.2170 C   0  0  0  0  0  0
   -5.7510    0.6870   -7.5230 C   0  0  0  0  0  0
   -7.1510   -1.0830   -6.5910 C   0  0  0  0  0  0
   -7.7140    3.1930   -1.2540 N   0  0  0  0  0  0
   -8.3510    2.4400   -0.2200 C   0  0  2  0  0  0
   -9.4170    1.5720   -0.8680 C   0  0  0  0  0  0
  -10.3550    2.0830   -1.4780 O   0  0  0  0  0  0
   -8.9660    3.3820    0.8160 C   0  0  0  0  0  0
   -9.5400    2.6780    2.0340 C   0  0  0  0  0  0
  -10.1020    3.6510    3.0380 C   0  0  0  0  0  0
  -11.2910    3.9890    3.0030 O   0  0  0  0  0  0
   -9.2630    4.1370    3.9070 N   0  0  0  0  0  0
   -9.2500    0.2820   -0.7730 N   0  0  0  0  0  0
  -10.1870   -0.6440   -1.3760 C   0  0  2  0  0  0
  -11.2700   -1.0110   -0.3650 C   0  0  0  0  0  0
  -10.9550   -1.3830    0.7830 O   0  0  0  0  0  0
   -9.4600   -1.9240   -1.8460 C   0  0  2  0  0  0
   -8.7630   -2.4950   -0.7230 O   0  0  0  0  0  0
   -8.4570   -1.6140   -2.9740 C   0  0  0  0  0  0
  -12.5160   -0.9110   -0.7750 N   0  0  0  0  0  0
  -13.6230   -1.2170    0.0970 C   0  0  2  0  0  0
  -14.2360   -2.5620   -0.2630 C   0  0  0  0  0  0
  -14.7710   -2.7490   -1.3470 O   0  0  0  0  0  0
  -14.6710   -0.1020    0.0870 C   0  0  0  0  0  0
  -14.1470   -3.4730    0.6520 N   0  0  0  0  0  0
  -14.6060   -4.8240    0.5080 C   0  0  2  0  0  0
  -15.8060   -5.0680    1.4000 C   0  0  0  0  0  0
  -15.8820   -4.5360    2.5080 O   0  0  0  0  0  0
  -13.4800   -5.7730    0.9180 C   0  0  0  0  0  0
  -12.2630   -5.7160    0.0200 C   0  0  0  0  0  0
  -12.5840   -6.2810   -1.3440 C   0  0  0  0  0  0
  -12.9970   -7.6950   -1.2330 N   0  0  0  0  0  0
  -13.4760   -8.4410   -2.2300 C   0  0  0  0  0  0
  -13.6280   -7.9270   -3.4450 N   0  0  0  0  0  0
  -13.8070   -9.7120   -2.0050 N   0  0  0  0  0  0
  -16.7490   -5.8540    0.8900 N   0  0  0  0  0  0
  -17.9450   -6.2960    1.6410 C   0  0  2  0  0  0
  -18.6570   -5.1320    2.3600 C   0  0  0  0  0  0
  -17.5690   -7.4130    2.6440 C   0  0  0  0  0  0
  -16.9050   -8.6360    2.0110 C   0  0  0  0  0  0
  -17.8040   -9.3210    0.9850 C   0  0  0  0  0  0
  -17.0900  -10.5030    0.3320 C   0  0  0  0  0  0
  -17.9420  -11.1780   -0.6770 N   0  3  0  0  0  0
    2.7935   11.0793   -3.6411 H   0  0  0  0  0  0
    4.0295   10.2698   -2.6195 H   0  0  0  0  0  0
    2.3146   10.3167   -2.0868 H   0  0  0  0  0  0
    3.4332    8.9491   -4.5091 H   0  0  0  0  0  0
    4.0083    7.7875   -2.3706 H   0  0  0  0  0  0
    2.8333    6.8219   -3.3264 H   0  0  0  0  0  0
    2.2719    7.7747   -1.9109 H   0  0  0  0  0  0
    1.7747    7.0079   -4.7940 H   0  0  0  0  0  0
   -0.9190    8.3941   -5.1919 H   0  0  0  0  0  0
    0.5295    6.1106   -6.6207 H   0  0  0  0  0  0
   -1.1910    6.5313   -6.9198 H   0  0  0  0  0  0
   -0.6321    8.6357   -7.8478 H   0  0  0  0  0  0
    1.0340    8.5892   -7.1783 H   0  0  0  0  0  0
    0.0367    6.5979   -9.2510 H   0  0  0  0  0  0
    0.7925    8.1695   -9.6815 H   0  0  0  0  0  0
    2.6767    7.0483   -7.8611 H   0  0  0  0  0  0
    0.9941    5.8005  -10.8498 H   0  0  0  0  0  0
    2.5158    4.7469  -11.3020 H   0  0  0  0  0  0
    4.4153    5.8963   -8.4320 H   0  0  0  0  0  0
   -2.3566    7.9032   -3.7276 H   0  0  0  0  0  0
   -1.9496    5.1835   -2.4743 H   0  0  0  0  0  0
   -3.3156    6.2670   -0.4461 H   0  0  0  0  0  0
   -4.3129    8.1972   -1.7049 H   0  0  0  0  0  0
   -0.8274    5.9529   -0.4816 H   0  0  0  0  0  0
   -1.3443    7.4268    0.4055 H   0  0  0  0  0  0
   -0.6715    7.5670   -1.2541 H   0  0  0  0  0  0
   -4.0032    4.3377   -1.3176 H   0  0  0  0  0  0
   -6.5574    5.1204   -2.5959 H   0  0  0  0  0  0
   -6.9866    2.9252   -3.7905 H   0  0  0  0  0  0
   -5.6634    3.8803   -4.5412 H   0  0  0  0  0  0
   -4.0459    2.5277   -3.2419 H   0  0  0  0  0  0
   -5.4190    1.5059   -2.6966 H   0  0  0  0  0  0
   -4.6662    1.9761   -5.5828 H   0  0  0  0  0  0
   -4.1264    0.5843   -4.5836 H   0  0  0  0  0  0
   -6.4476   -0.0956   -4.2758 H   0  0  0  0  0  0
   -6.9882    1.2968   -5.2736 H   0  0  0  0  0  0
   -3.9016   -0.5673   -6.0391 H   0  0  0  0  0  0
   -4.6953   -1.7444   -7.1395 H   0  0  0  0  0  0
   -4.9815   -1.8365   -5.3686 H   0  0  0  0  0  0
   -4.8641    1.3090   -7.3318 H   0  0  0  0  0  0
   -6.6321    1.3334   -7.6490 H   0  0  0  0  0  0
   -5.5949    0.0974   -8.4384 H   0  0  0  0  0  0
   -7.2988   -1.7551   -5.7328 H   0  0  0  0  0  0
   -7.0008   -1.6799   -7.5027 H   0  0  0  0  0  0
   -8.0379   -0.4439   -6.7132 H   0  0  0  0  0  0
   -8.3037    3.5710   -2.1021 H   0  0  0  0  0  0
   -7.5752    1.8254    0.2601 H   0  0  0  0  0  0
   -8.1972    4.0800    1.1789 H   0  0  0  0  0  0
   -9.7874    3.9492    0.3539 H   0  0  0  0  0  0
  -10.3502    2.0035    1.7197 H   0  0  0  0  0  0
   -8.7484    2.0951    2.5276 H   0  0  0  0  0  0
   -8.2134    3.8077    3.9019 H   0  0  0  0  0  0
   -9.6037    4.8768    4.6463 H   0  0  0  0  0  0
   -8.3775   -0.0991   -0.2221 H   0  0  0  0  0  0
  -10.6212   -0.1051   -2.2310 H   0  0  0  0  0  0
  -10.1814   -2.6795   -2.1907 H   0  0  0  0  0  0
   -9.3193   -2.7820    0.1815 H   0  0  0  0  0  0
   -8.9919   -1.1780   -3.8306 H   0  0  0  0  0  0
   -7.9588   -2.5433   -3.2873 H   0  0  0  0  0  0
   -7.7044   -0.8994   -2.6093 H   0  0  0  0  0  0
  -12.7039   -0.5855   -1.8088 H   0  0  0  0  0  0
  -13.1756   -1.2784    1.1000 H   0  0  0  0  0  0
  -14.1930    0.8529    0.3511 H   0  0  0  0  0  0
  -15.4587   -0.3326    0.8194 H   0  0  0  0  0  0
  -15.1146   -0.0248   -0.9166 H   0  0  0  0  0  0
  -13.6797   -3.1483    1.5934 H   0  0  0  0  0  0
  -14.8875   -4.9395   -0.5491 H   0  0  0  0  0  0
  -13.1427   -5.5240    1.9350 H   0  0  0  0  0  0
  -13.8481   -6.8094    0.8973 H   0  0  0  0  0  0
  -11.9398   -4.6707   -0.0936 H   0  0  0  0  0  0
  -11.4490   -6.3049    0.4678 H   0  0  0  0  0  0
  -13.4036   -5.7034   -1.7965 H   0  0  0  0  0  0
  -11.6930   -6.2179   -1.9860 H   0  0  0  0  0  0
  -12.9205   -8.2162   -0.2673 H   0  0  0  0  0  0
  -13.3564   -6.8784   -3.6365 H   0  0  0  0  0  0
  -13.6832  -10.1431   -1.0006 H   0  0  0  0  0  0
  -14.2040  -10.3302   -2.8237 H   0  0  0  0  0  0
  -16.6030   -6.1770   -0.1513 H   0  0  0  0  0  0
  -18.6274   -6.6840    0.8705 H   0  0  0  0  0  0
  -18.9141   -4.3517    1.6286 H   0  0  0  0  0  0
  -17.9893   -4.7109    3.1260 H   0  0  0  0  0  0
  -19.5754   -5.5033    2.8382 H   0  0  0  0  0  0
  -16.8634   -7.0152    3.3882 H   0  0  0  0  0  0
  -18.4766   -7.7694    3.1531 H   0  0  0  0  0  0
  -15.9805   -8.3282    1.5005 H   0  0  0  0  0  0
  -16.6643   -9.3693    2.7947 H   0  0  0  0  0  0
  -18.7132   -9.6898    1.4824 H   0  0  0  0  0  0
  -18.0814   -8.6005    0.2014 H   0  0  0  0  0  0
  -16.1780  -10.1483   -0.1704 H   0  0  0  0  0  0
  -16.8209  -11.2402    1.1028 H   0  0  0  0  0  0
  -17.3892  -12.0197   -1.1196 H   0  0  0  0  0  0
  -18.2129  -10.4615   -1.4665 H   0  0  0  0  0  0
  -18.8558  -11.5533   -0.1932 H   0  0  0  0  0  0
  1  2  1  0  0  0
  1 76  1  0  0  0
  1 77  1  0  0  0
  1 78  1  0  0  0
  2  3  1  0  0  0
  2  5  1  0  0  0
  2 79  1  0  0  0
  3  4  2  0  0  0
  3  6  1  0  0  0
  5 80  1  0  0  0
  5 81  1  0  0  0
  5 82  1  0  0  0
  6  7  1  0  0  0
  6 83  1  0  0  0
  7  8  1  0  0  0
  7 10  1  0  0  0
  7 84  1  0  0  0
  8  9  2  0  0  0
  8 17  1  0  0  0
 10 11  1  0  0  0
 10 85  1  0  0  0
 10 86  1  0  0  0
 11 12  1  0  0  0
 11 87  1  0  0  0
 11 88  1  0  0  0
 12 13  1  0  0  0
 12 89  1  0  0  0
 12 90  1  0  0  0
 13 14  1  0  0  0
 13 91  1  0  0  0
 14 15  1  0  0  0
 14 16  2  0  0  0
 15 92  1  0  0  0
 15 93  1  0  0  0
 16 94  1  0  0  0
 17 18  1  0  0  0
 17 95  1  0  0  0
 18 19  1  0  0  0
 18 21  1  0  0  0
 18 96  1  0  0  0
 19 20  2  0  0  0
 19 24  1  0  0  0
 21 22  1  0  0  0
 21 23  1  0  0  0
 21 97  1  0  0  0
 22 98  1  0  0  0
 23 99  1  0  0  0
 23100  1  0  0  0
 23101  1  0  0  0
 24 25  1  0  0  0
 24102  1  0  0  0
 25 26  1  0  0  0
 25 31  1  0  0  0
 25103  1  0  0  0
 26 27  1  0  0  0
 26104  1  0  0  0
 26105  1  0  0  0
 27 28  1  0  0  0
 27106  1  0  0  0
 27107  1  0  0  0
 28 29  1  0  0  0
 28108  1  0  0  0
 28109  1  0  0  0
 29 30  1  0  0  0
 29110  1  0  0  0
 29111  1  0  0  0
 30 33  1  0  0  0
 30 34  1  0  0  0
 30 35  1  0  0  0
 31 32  2  0  0  0
 31 36  1  0  0  0
 33112  1  0  0  0
 33113  1  0  0  0
 33114  1  0  0  0
 34115  1  0  0  0
 34116  1  0  0  0
 34117  1  0  0  0
 35118  1  0  0  0
 35119  1  0  0  0
 35120  1  0  0  0
 36 37  1  0  0  0
 36121  1  0  0  0
 37 38  1  0  0  0
 37 40  1  0  0  0
 37122  1  0  0  0
 38 39  2  0  0  0
 38 45  1  0  0  0
 40 41  1  0  0  0
 40123  1  0  0  0
 40124  1  0  0  0
 41 42  1  0  0  0
 41125  1  0  0  0
 41126  1  0  0  0
 42 43  2  0  0  0
 42 44  1  0  0  0
 44127  1  0  0  0
 44128  1  0  0  0
 45 46  1  0  0  0
 45129  1  0  0  0
 46 47  1  0  0  0
 46 49  1  0  0  0
 46130  1  0  0  0
 47 48  2  0  0  0
 47 52  1  0  0  0
 49 50  1  0  0  0
 49 51  1  0  0  0
 49131  1  0  0  0
 50132  1  0  0  0
 51133  1  0  0  0
 51134  1  0  0  0
 51135  1  0  0  0
 52 53  1  0  0  0
 52136  1  0  0  0
 53 54  1  0  0  0
 53 56  1  0  0  0
 53137  1  0  0  0
 54 55  2  0  0  0
 54 57  1  0  0  0
 56138  1  0  0  0
 56139  1  0  0  0
 56140  1  0  0  0
 57 58  1  0  0  0
 57141  1  0  0  0
 58 59  1  0  0  0
 58 61  1  0  0  0
 58142  1  0  0  0
 59 60  2  0  0  0
 59 68  1  0  0  0
 61 62  1  0  0  0
 61143  1  0  0  0
 61144  1  0  0  0
 62 63  1  0  0  0
 62145  1  0  0  0
 62146  1  0  0  0
 63 64  1  0  0  0
 63147  1  0  0  0
 63148  1  0  0  0
 64 65  1  0  0  0
 64149  1  0  0  0
 65 66  2  0  0  0
 65 67  1  0  0  0
 66150  1  0  0  0
 67151  1  0  0  0
 67152  1  0  0  0
 68 69  1  0  0  0
 68153  1  0  0  0
 69 70  1  0  0  0
 69 71  1  0  0  0
 69154  1  0  0  0
 70155  1  0  0  0
 70156  1  0  0  0
 70157  1  0  0  0
 71 72  1  0  0  0
 71158  1  0  0  0
 71159  1  0  0  0
 72 73  1  0  0  0
 72160  1  0  0  0
 72161  1  0  0  0
 73 74  1  0  0  0
 73162  1  0  0  0
 73163  1  0  0  0
 74 75  1  0  0  0
 74164  1  0  0  0
 74165  1  0  0  0
 75166  1  0  0  0
 75167  1  0  0  0
 75168  1  0  0  0
M  CHG  3   1   1  30   1  75   1
M  END
> <s_m_source_file>
../2kgi_ligand.sdf

> <i_m_source_file_index>
1

> <s_epik_input>
W0hdL049QyhbTkgyXSlcW05IXVtDSDJdW0NIMl1bQ0gyXVtDQEhdKFtOSF1DKD1PKVtDQEBIXShbTkgzK10pW0NIM10pQyg9TylbTkhdW0NAQEhdKFtDQEhdKFtPSF0pW0NIM10pQyg9TylbTkhdW0NAQEhdKFtDSDJdW0NIMl1bQ0gyXVtDSDJdW04rXShbQ0gzXSkoW0NIM10pW0NIM10pQyg9TylbTkhdW0NAQEhdKFtDSDJdW0NIMl1DKD1PKVtOSDJdKUMoPU8pW05IXVtDQEBIXShbQ0BIXShbT0hdKVtDSDNdKUMoPU8pW05IXVtDQEBIXShbQ0gzXSlDKD1PKVtOSF1bQ0BASF0oW0NIMl1bQ0gyXVtDSDJdW05IXS9DKD1OXFtIXSlbTkgyXSlDKD1PKVtOSF1bQ0BIXShbQ0gzXSlbQ0gyXVtDSDJdW0NIMl1bQ0gyXVtOSDMrXQ==

> <s_epik_cmdline>
J2VwaWtfYXBwJywgJy1pbWFlJywgJ2xpZ2FuZF9wcm8ubWFlJywgJy1vbWFlJywgJ2xpZ2FuZF9wcmVwLm1hZScsICctbXMnLCAnMScsICctcGgnLCAnNycsICctcGh0JywgJzAuNScsICctbnQn

> <s_epik_pKa_notes>
Molecule size exceeds maximum supported for generating protonation states

> <s_epik_Chemistry_Notes>
This compound has an imine and may undergo hydrolysis.

$$$$
