2khh_ligand
                    3D
 Schrodinger Suite 2020-3.
124125  0  0  1  0            999 V2000
   -0.4320  -47.0680   17.6060 N   0  3  0  0  0  0
   -1.6150  -47.9700   17.6950 C   0  0  2  0  0  0
   -2.5950  -47.6310   16.5770 C   0  0  0  0  0  0
   -2.3930  -46.6730   15.8300 O   0  0  0  0  0  0
   -2.2910  -47.7860   19.0550 C   0  0  0  0  0  0
   -2.5960  -46.3100   19.2900 C   0  0  0  0  0  0
   -1.7230  -45.6160   19.7830 O   0  0  0  0  0  0
   -3.6990  -45.8960   18.9730 O   0  5  0  0  0  0
   -3.6570  -48.4220   16.4670 N   0  0  0  0  0  0
   -4.6630  -48.1960   15.4360 C   0  0  2  0  0  0
   -5.9490  -48.9450   15.7700 C   0  0  0  0  0  0
   -6.2140  -49.2570   16.9310 O   0  0  0  0  0  0
   -4.1350  -48.6630   14.0790 C   0  0  0  0  0  0
   -5.1500  -48.5000   13.0980 O   0  0  0  0  0  0
   -6.7460  -49.2300   14.7440 N   0  0  0  0  0  0
   -8.0030  -49.9440   14.9400 C   0  0  0  0  0  0
   -9.1260  -48.9800   15.3100 C   0  0  0  0  0  0
  -10.2910  -49.3690   15.3870 O   0  0  0  0  0  0
   -8.7680  -47.7200   15.5370 N   0  0  0  0  0  0
   -9.7550  -46.7100   15.8970 C   0  0  2  0  0  0
  -10.6160  -46.3450   14.6860 C   0  0  0  0  0  0
  -10.2030  -46.5370   13.5420 O   0  0  0  0  0  0
   -9.0520  -45.4590   16.4310 C   0  0  0  0  0  0
  -10.0830  -44.4080   16.7430 C   0  0  0  0  0  0
  -10.4930  -43.5120   15.7500 C   0  0  0  0  0  0
  -10.6410  -44.3330   18.0270 C   0  0  0  0  0  0
  -11.4510  -42.5520   16.0400 C   0  0  0  0  0  0
  -11.6080  -43.3630   18.3130 C   0  0  0  0  0  0
  -12.0130  -42.4730   17.3160 C   0  0  0  0  0  0
  -11.8160  -45.8230   14.9450 N   0  0  0  0  0  0
  -12.7290  -45.4420   13.8650 C   0  0  2  0  0  0
  -13.4410  -44.1300   14.1950 C   0  0  0  0  0  0
  -13.6230  -43.7910   15.3640 O   0  0  0  0  0  0
  -13.7660  -46.5440   13.6490 C   0  0  0  0  0  0
  -13.1050  -47.7990   13.5560 O   0  0  0  0  0  0
  -13.8410  -43.3970   13.1540 N   0  0  0  0  0  0
  -14.5300  -42.1180   13.3420 C   0  0  2  0  0  0
  -15.9670  -42.1890   12.8300 C   0  0  0  0  0  0
  -16.8100  -42.8770   13.4050 O   0  0  0  0  0  0
  -13.7820  -41.0080   12.5970 C   0  0  0  0  0  0
  -12.5580  -40.6170   13.3840 C   0  0  0  0  0  0
  -12.6820  -39.7890   14.5070 C   0  0  0  0  0  0
  -11.3010  -41.0940   12.9980 C   0  0  0  0  0  0
  -11.5440  -39.4390   15.2450 C   0  0  0  0  0  0
  -10.1620  -40.7490   13.7340 C   0  0  0  0  0  0
  -10.2810  -39.9210   14.8600 C   0  0  0  0  0  0
  -16.2350  -41.4600   11.7470 N   0  0  0  0  0  0
  -17.5680  -41.4250   11.1560 C   0  0  0  0  0  0
  -18.2640  -42.7780   11.2760 C   0  0  0  0  0  0
  -17.6900  -43.8140   10.9420 O   0  0  0  0  0  0
  -19.5040  -42.7580   11.7560 N   0  0  0  0  0  0
  -20.2720  -43.9880   11.9190 C   0  0  2  0  0  0
  -20.0810  -44.9060   10.7160 C   0  0  0  0  0  0
  -20.7640  -44.7670    9.7020 O   0  0  0  0  0  0
  -21.7570  -43.6570   12.0790 C   0  0  0  0  0  0
  -21.9140  -42.6820   13.1020 O   0  0  0  0  0  0
  -19.1480  -45.8450   10.8380 N   0  0  0  0  0  0
  -18.8730  -46.7830    9.7550 C   0  0  2  0  0  0
  -19.8660  -47.9410    9.7850 C   0  0  0  0  0  0
  -20.2880  -48.3050   10.8700 O   0  0  0  0  0  0
  -17.4470  -47.3260    9.8860 C   0  0  0  0  0  0
  -17.0100  -47.9470    8.5580 C   0  0  0  0  0  0
  -15.6370  -48.6020    8.7260 C   0  0  0  0  0  0
  -15.0170  -48.8510    7.3500 C   0  0  0  0  0  0
  -15.9270  -49.7110    6.5440 N   0  3  0  0  0  0
  -20.1910  -48.4450    8.7220 O   0  5  0  0  0  0
    0.0559  -47.1985   16.6288 H   0  0  0  0  0  0
    0.2796  -47.3164   18.4072 H   0  0  0  0  0  0
   -0.7583  -46.0233   17.7163 H   0  0  0  0  0  0
   -1.2703  -49.0086   17.5835 H   0  0  0  0  0  0
   -3.2303  -48.3579   19.0779 H   0  0  0  0  0  0
   -1.6217  -48.1483   19.8492 H   0  0  0  0  0  0
   -3.7697  -49.2594   17.1713 H   0  0  0  0  0  0
   -4.8494  -47.1119   15.4300 H   0  0  0  0  0  0
   -3.2555  -48.0633   13.8017 H   0  0  0  0  0  0
   -3.8506  -49.7238   14.1415 H   0  0  0  0  0  0
   -4.9556  -48.7835   12.0531 H   0  0  0  0  0  0
   -6.4428  -48.9174   13.7339 H   0  0  0  0  0  0
   -8.2771  -50.4656   14.0111 H   0  0  0  0  0  0
   -7.8855  -50.6774   15.7514 H   0  0  0  0  0  0
   -7.7066  -47.4450   15.4491 H   0  0  0  0  0  0
  -10.3798  -47.1668   16.6786 H   0  0  0  0  0  0
   -8.4953  -45.7132   17.3450 H   0  0  0  0  0  0
   -8.3542  -45.0778   15.6708 H   0  0  0  0  0  0
  -10.0607  -43.5682   14.7510 H   0  0  0  0  0  0
  -10.3217  -45.0299   18.8019 H   0  0  0  0  0  0
  -11.7679  -41.8534   15.2656 H   0  0  0  0  0  0
  -12.0436  -43.3023   19.3103 H   0  0  0  0  0  0
  -12.7674  -41.7170   17.5336 H   0  0  0  0  0  0
  -12.1150  -45.6805   15.9939 H   0  0  0  0  0  0
  -12.1024  -45.3138   12.9701 H   0  0  0  0  0  0
  -14.4671  -46.5589   14.4965 H   0  0  0  0  0  0
  -14.3195  -46.3494   12.7186 H   0  0  0  0  0  0
  -13.6890  -48.7179   13.3992 H   0  0  0  0  0  0
  -13.6436  -43.7714   12.1387 H   0  0  0  0  0  0
  -14.5300  -41.9378   14.4271 H   0  0  0  0  0  0
  -13.4803  -41.3719   11.6038 H   0  0  0  0  0  0
  -14.4408  -40.1346   12.4829 H   0  0  0  0  0  0
  -13.6622  -39.4177   14.8061 H   0  0  0  0  0  0
  -11.2085  -41.7359   12.1219 H   0  0  0  0  0  0
  -11.6379  -38.7929   16.1178 H   0  0  0  0  0  0
   -9.1836  -41.1232   13.4327 H   0  0  0  0  0  0
   -9.3954  -39.6518   15.4356 H   0  0  0  0  0  0
  -15.4189  -40.8746   11.2984 H   0  0  0  0  0  0
  -18.1787  -40.6704   11.6733 H   0  0  0  0  0  0
  -17.4898  -41.1653   10.0900 H   0  0  0  0  0  0
  -19.9493  -41.7908   12.0322 H   0  0  0  0  0  0
  -19.8769  -44.4710   12.8249 H   0  0  0  0  0  0
  -22.1488  -43.2615   11.1303 H   0  0  0  0  0  0
  -22.3086  -44.5688   12.3517 H   0  0  0  0  0  0
  -22.9177  -42.3154   13.3630 H   0  0  0  0  0  0
  -18.5787  -45.9070   11.7772 H   0  0  0  0  0  0
  -18.9914  -46.2112    8.8228 H   0  0  0  0  0  0
  -16.7642  -46.5040   10.1472 H   0  0  0  0  0  0
  -17.4173  -48.0920   10.6749 H   0  0  0  0  0  0
  -17.7429  -48.7073    8.2500 H   0  0  0  0  0  0
  -16.9497  -47.1630    7.7888 H   0  0  0  0  0  0
  -14.9820  -47.9366    9.3076 H   0  0  0  0  0  0
  -15.7499  -49.5596    9.2553 H   0  0  0  0  0  0
  -14.8690  -47.8902    6.8353 H   0  0  0  0  0  0
  -14.0470  -49.3555    7.4707 H   0  0  0  0  0  0
  -15.4812  -49.8901    5.5545 H   0  0  0  0  0  0
  -16.8970  -49.2064    6.4233 H   0  0  0  0  0  0
  -16.0750  -50.6717    7.0588 H   0  0  0  0  0  0
  1  2  1  0  0  0
  1 67  1  0  0  0
  1 68  1  0  0  0
  1 69  1  0  0  0
  2  3  1  0  0  0
  2  5  1  0  0  0
  2 70  1  0  0  0
  3  4  2  0  0  0
  3  9  1  0  0  0
  5  6  1  0  0  0
  5 71  1  0  0  0
  5 72  1  0  0  0
  6  7  2  0  0  0
  6  8  1  0  0  0
  9 10  1  0  0  0
  9 73  1  0  0  0
 10 11  1  0  0  0
 10 13  1  0  0  0
 10 74  1  0  0  0
 11 12  2  0  0  0
 11 15  1  0  0  0
 13 14  1  0  0  0
 13 75  1  0  0  0
 13 76  1  0  0  0
 14 77  1  0  0  0
 15 16  1  0  0  0
 15 78  1  0  0  0
 16 17  1  0  0  0
 16 79  1  0  0  0
 16 80  1  0  0  0
 17 18  2  0  0  0
 17 19  1  0  0  0
 19 20  1  0  0  0
 19 81  1  0  0  0
 20 21  1  0  0  0
 20 23  1  0  0  0
 20 82  1  0  0  0
 21 22  2  0  0  0
 21 30  1  0  0  0
 23 24  1  0  0  0
 23 83  1  0  0  0
 23 84  1  0  0  0
 24 25  2  0  0  0
 24 26  1  0  0  0
 25 27  1  0  0  0
 25 85  1  0  0  0
 26 28  2  0  0  0
 26 86  1  0  0  0
 27 29  2  0  0  0
 27 87  1  0  0  0
 28 29  1  0  0  0
 28 88  1  0  0  0
 29 89  1  0  0  0
 30 31  1  0  0  0
 30 90  1  0  0  0
 31 32  1  0  0  0
 31 34  1  0  0  0
 31 91  1  0  0  0
 32 33  2  0  0  0
 32 36  1  0  0  0
 34 35  1  0  0  0
 34 92  1  0  0  0
 34 93  1  0  0  0
 35 94  1  0  0  0
 36 37  1  0  0  0
 36 95  1  0  0  0
 37 38  1  0  0  0
 37 40  1  0  0  0
 37 96  1  0  0  0
 38 39  2  0  0  0
 38 47  1  0  0  0
 40 41  1  0  0  0
 40 97  1  0  0  0
 40 98  1  0  0  0
 41 42  2  0  0  0
 41 43  1  0  0  0
 42 44  1  0  0  0
 42 99  1  0  0  0
 43 45  2  0  0  0
 43100  1  0  0  0
 44 46  2  0  0  0
 44101  1  0  0  0
 45 46  1  0  0  0
 45102  1  0  0  0
 46103  1  0  0  0
 47 48  1  0  0  0
 47104  1  0  0  0
 48 49  1  0  0  0
 48105  1  0  0  0
 48106  1  0  0  0
 49 50  2  0  0  0
 49 51  1  0  0  0
 51 52  1  0  0  0
 51107  1  0  0  0
 52 53  1  0  0  0
 52 55  1  0  0  0
 52108  1  0  0  0
 53 54  2  0  0  0
 53 57  1  0  0  0
 55 56  1  0  0  0
 55109  1  0  0  0
 55110  1  0  0  0
 56111  1  0  0  0
 57 58  1  0  0  0
 57112  1  0  0  0
 58 59  1  0  0  0
 58 61  1  0  0  0
 58113  1  0  0  0
 59 60  2  0  0  0
 59 66  1  0  0  0
 61 62  1  0  0  0
 61114  1  0  0  0
 61115  1  0  0  0
 62 63  1  0  0  0
 62116  1  0  0  0
 62117  1  0  0  0
 63 64  1  0  0  0
 63118  1  0  0  0
 63119  1  0  0  0
 64 65  1  0  0  0
 64120  1  0  0  0
 64121  1  0  0  0
 65122  1  0  0  0
 65123  1  0  0  0
 65124  1  0  0  0
M  CHG  4   1   1   8  -1  65   1  66  -1
M  END
> <s_m_source_file>
../2khh_ligand.sdf

> <i_m_source_file_index>
1

> <s_epik_input>
Tz1DKFtPSF0pW0NIMl1bQ0BIXShbTkgzK10pQyg9TylbTkhdW0NAQEhdKFtDSDJdW09IXSlDKD1PKVtOSF1bQ0gyXUMoPU8pW05IXVtDQEBIXShbQ0gyXWMxW2NIXVtjSF1bY0hdW2NIXVtjSF0xKUMoPU8pW05IXVtDQEBIXShbQ0gyXVtPSF0pQyg9TylbTkhdW0NAQEhdKFtDSDJdYzJbY0hdW2NIXVtjSF1bY0hdW2NIXTIpQyg9TylbTkhdW0NIMl1DKD1PKVtOSF1bQ0BASF0oW0NIMl1bT0hdKUMoPU8pW05IXVtDQEhdKEMoPU8pW09IXSlbQ0gyXVtDSDJdW0NIMl1bQ0gyXVtOSDMrXQ==

> <s_epik_cmdline>
J2VwaWtfYXBwJywgJy1pbWFlJywgJ2xpZ2FuZF9wcm8ubWFlJywgJy1vbWFlJywgJ2xpZ2FuZF9wcmVwLm1hZScsICctbXMnLCAnMScsICctcGgnLCAnNycsICctcGh0JywgJzAuNScsICctbnQn

> <r_epik_Ionization_Penalty>
  0.0221

> <r_epik_Ionization_Penalty_Charging>
  0.0221

> <r_epik_Ionization_Penalty_Neutral>
  0.0000

> <r_epik_State_Penalty>
  0.0173

> <r_epik_Charging_Adjusted_Penalty>
0.0394097445886149

> <i_epik_Tot_Q>
0

> <i_epik_Tot_abs_Q>
4

$$$$
