2kmx_ligand
                    3D
 Schrodinger Suite 2020-3.
 43 45  0  0  1  0            999 V2000
  -14.1720   -4.4680  -10.8710 P   0  0  0  0  0  0
  -13.4770   -4.8410  -12.1150 O   0  5  0  0  0  0
  -14.6850   -5.6020  -10.1120 O   0  0  0  0  0  0
  -15.0960   -3.3420  -11.0080 O   0  5  0  0  0  0
  -12.6800   -4.0890   -8.5670 P   0  0  2  0  0  0
  -11.7020   -5.2020   -8.5790 O   0  0  0  0  0  0
  -13.8710   -4.2270   -7.6880 O   0  5  0  0  0  0
  -13.0870   -3.8630  -10.0230 O   0  0  0  0  0  0
  -12.5450   -1.4120   -8.2630 P   0  0  2  0  0  0
  -14.0220   -1.4380   -8.2620 O   0  5  0  0  0  0
  -11.8490   -0.7180   -9.3620 O   0  0  0  0  0  0
  -11.9390   -2.8150   -8.1570 O   0  0  0  0  0  0
  -12.1100   -0.7310   -6.9000 O   0  0  0  0  0  0
  -10.8070   -0.1870   -6.7460 C   0  0  0  0  0  0
  -10.3970   -0.1110   -5.2740 C   0  0  1  0  0  0
  -10.1840   -1.4260   -4.7790 O   0  0  0  0  0  0
   -9.0550    0.6160   -5.1070 C   0  0  1  0  0  0
   -9.1990    2.0140   -4.8800 O   0  0  0  0  0  0
   -8.3860   -0.1600   -3.9560 C   0  0  1  0  0  0
   -8.1530    0.5410   -2.7490 O   0  0  0  0  0  0
   -9.3440   -1.3230   -3.6480 C   0  0  2  0  0  0
   -8.6220   -2.5960   -3.3680 N   0  0  0  0  0  0
   -8.7960   -3.8460   -3.9240 C   0  0  0  0  0  0
   -8.0230   -4.7780   -3.4180 N   0  0  0  0  0  0
   -7.2530   -4.0760   -2.4720 C   0  0  0  0  0  0
   -6.1850   -4.4010   -1.5920 C   0  0  0  0  0  0
   -5.6320   -5.5870   -1.4580 N   0  0  0  0  0  0
   -5.6080   -3.4680   -0.8460 N   0  0  0  0  0  0
   -6.0680   -2.2360   -0.9220 C   0  0  0  0  0  0
   -7.0520   -1.7700   -1.6810 N   0  0  0  0  0  0
   -7.6130   -2.7530   -2.4420 C   0  0  0  0  0  0
  -10.0803   -0.8203   -7.2759 H   0  0  0  0  0  0
  -10.7821    0.8295   -7.1656 H   0  0  0  0  0  0
  -11.2086    0.3597   -4.6998 H   0  0  0  0  0  0
   -8.4414    0.6949   -6.0165 H   0  0  0  0  0  0
   -9.6657    2.6504   -5.6463 H   0  0  0  0  0  0
   -7.3461   -0.3942   -4.2275 H   0  0  0  0  0  0
   -7.4895    1.4184   -2.7418 H   0  0  0  0  0  0
   -9.9825   -1.1611   -2.7670 H   0  0  0  0  0  0
   -9.5161   -4.0435   -4.7181 H   0  0  0  0  0  0
   -6.0232   -6.4437   -2.0264 H   0  0  0  0  0  0
   -4.7783   -5.7221   -0.7776 H   0  0  0  0  0  0
   -5.5774   -1.5054   -0.2789 H   0  0  0  0  0  0
  1  2  1  0  0  0
  1  3  2  0  0  0
  1  4  1  0  0  0
  1  8  1  0  0  0
  5  6  2  0  0  0
  5  7  1  0  0  0
  5  8  1  0  0  0
  5 12  1  0  0  0
  9 10  1  0  0  0
  9 11  2  0  0  0
  9 12  1  0  0  0
  9 13  1  0  0  0
 13 14  1  0  0  0
 14 15  1  0  0  0
 14 32  1  0  0  0
 14 33  1  0  0  0
 15 16  1  0  0  0
 15 17  1  0  0  0
 15 34  1  0  0  0
 16 21  1  0  0  0
 17 18  1  0  0  0
 17 19  1  0  0  0
 17 35  1  0  0  0
 18 36  1  0  0  0
 19 20  1  0  0  0
 19 21  1  0  0  0
 19 37  1  0  0  0
 20 38  1  0  0  0
 21 22  1  0  0  0
 21 39  1  0  0  0
 22 23  1  0  0  0
 22 31  1  0  0  0
 23 24  2  0  0  0
 23 40  1  0  0  0
 24 25  1  0  0  0
 25 26  2  0  0  0
 25 31  1  0  0  0
 26 27  1  0  0  0
 26 28  1  0  0  0
 27 41  1  0  0  0
 27 42  1  0  0  0
 28 29  2  0  0  0
 29 30  1  0  0  0
 29 43  1  0  0  0
 30 31  2  0  0  0
M  CHG  4   2  -1   4  -1   7  -1  10  -1
M  END
> <s_m_source_file>
../2kmx_ligand.sdf

> <i_m_source_file_index>
1

> <s_epik_input>
W09IXVAoPU8pKFtPSF0pT1tQQF0oPU8pKFtPSF0pT1tQQEBdKD1PKShbT0hdKU9bQ0gyXVtDQEhdMU9bQ0BIXShbQ0BIXShbT0hdKVtDQEBIXTFbT0hdKW4oW2NIXW4yKWMoYzIzKW5bY0hdbmMzW05IMl0=

> <s_epik_cmdline>
J2VwaWtfYXBwJywgJy1pbWFlJywgJ2xpZ2FuZF9wcm8ubWFlJywgJy1vbWFlJywgJ2xpZ2FuZF9wcmVwLm1hZScsICctbXMnLCAnMScsICctcGgnLCAnNycsICctcGh0JywgJzAuNScsICctbnQn

> <r_lp_tautomer_probability>
0.999997216410988

> <r_epik_Ionization_Penalty>
  0.0818

> <r_epik_Ionization_Penalty_Charging>
  0.0813

> <r_epik_Ionization_Penalty_Neutral>
  0.0004

> <r_epik_State_Penalty>
  0.0708

> <r_epik_Charging_Adjusted_Penalty>
0.152157994418768

> <i_epik_Tot_Q>
-4

> <i_epik_Tot_abs_Q>
4

> <s_epik_Chemistry_Notes>
This compound contains an acetal/aminal-like group ( X-CH(R)-Y where X, Y are N, S, or O) that may be acid/base labile, releasing an aldehyde.

$$$$
