2knh_ligand
                    3D
 Schrodinger Suite 2020-3.
278279  0  0  1  0            999 V2000
   21.7610   -3.1200    5.9180 N   0  3  0  0  0  0
   22.2650   -2.6070    4.6390 C   0  0  2  0  0  0
   21.4820   -1.3640    4.1800 C   0  0  0  0  0  0
   20.5560   -0.9180    4.8560 O   0  0  0  0  0  0
   22.2280   -3.7070    3.5470 C   0  0  2  0  0  0
   23.1670   -3.3530    2.3860 C   0  0  0  0  0  0
   20.8070   -3.9350    3.0460 C   0  0  0  0  0  0
   24.1260   -4.4620    2.0110 C   0  0  0  0  0  0
   21.8640   -0.7970    3.0350 N   0  0  0  0  0  0
   21.1850    0.3840    2.5330 C   0  0  0  0  0  0
   20.6270    0.1860    1.1350 C   0  0  0  0  0  0
   20.2670   -0.9300    0.7570 O   0  0  0  0  0  0
   20.5520    1.2700    0.3680 N   0  0  0  0  0  0
   20.0300    1.2130   -0.9950 C   0  0  2  0  0  0
   18.5800    0.7460   -0.9970 C   0  0  0  0  0  0
   18.2950   -0.4120   -0.6910 O   0  0  0  0  0  0
   20.8780    0.2770   -1.8600 C   0  0  2  0  0  0
   22.2590    0.4120   -1.5580 O   0  0  0  0  0  0
   20.7070    0.5220   -3.3440 C   0  0  0  0  0  0
   17.6690    1.6540   -1.3400 N   0  0  0  0  0  0
   16.2430    1.3420   -1.3790 C   0  0  2  0  0  0
   15.8240    0.5460   -0.1460 C   0  0  0  0  0  0
   15.0900   -0.4370   -0.2470 O   0  0  0  0  0  0
   15.8980    0.5620   -2.6520 C   0  0  0  0  0  0
   16.5350   -0.8140   -2.6860 C   0  0  0  0  0  0
   15.9150   -1.7700   -2.1740 O   0  0  0  0  0  0
   17.6550   -0.9360   -3.2250 O   0  0  0  0  0  0
   16.2980    0.9770    1.0180 N   0  0  0  0  0  0
   15.9740    0.3020    2.2660 C   0  0  2  0  0  0
   14.4690    0.2600    2.4760 C   0  0  0  0  0  0
   13.9250   -0.7420    2.9360 O   0  0  0  0  0  0
   16.6430    1.0020    3.4500 C   0  0  0  0  0  0
   17.8250    0.2350    4.0170 C   0  0  0  0  0  0
   17.4260   -0.5890    5.2330 C   0  0  0  0  0  0
   17.8970    0.0610    6.5250 C   0  0  0  0  0  0
   18.2350   -0.9490    7.5660 N   0  3  0  0  0  0
   13.8010    1.3560    2.1380 N   0  0  0  0  0  0
   12.3600    1.4370    2.2970 C   0  0  2  0  0  0
   11.6530    0.4420    1.3830 C   0  0  0  0  0  0
   10.5560   -0.0160    1.6900 O   0  0  0  0  0  0
   11.8660    2.8620    2.0340 C   0  0  0  0  0  0
   11.8530    3.2590    0.5690 C   0  0  0  0  0  0
   13.0390    4.1190    0.1860 C   0  0  0  0  0  0
   14.1030    3.5530   -0.1390 O   0  0  0  0  0  0
   12.9050    5.3610    0.2130 O   0  0  0  0  0  0
   12.2830    0.1060    0.2610 N   0  0  0  0  0  0
   11.6910   -0.8380   -0.6760 C   0  0  2  0  0  0
   12.0710   -2.2730   -0.3170 C   0  0  0  0  0  0
   11.3040   -3.2080   -0.5430 O   0  0  0  0  0  0
   12.1430   -0.5140   -2.1020 C   0  0  0  0  0  0
   11.0140   -0.1720   -3.0690 C   0  0  0  0  0  0
   10.0400   -1.3350   -3.1600 C   0  0  0  0  0  0
   10.3030    1.1000   -2.6260 C   0  0  0  0  0  0
   13.2620   -2.4370    0.2360 N   0  0  0  0  0  0
   13.7580   -3.7530    0.6280 C   0  0  2  0  0  0
   13.1770   -4.2020    1.9650 C   0  0  0  0  0  0
   12.8660   -5.3760    2.1480 O   0  0  0  0  0  0
   15.2860   -3.7550    0.6860 C   0  0  0  0  0  0
   15.8320   -4.5140   -0.3790 O   0  0  0  0  0  0
   13.0410   -3.2640    2.9040 N   0  0  0  0  0  0
   12.5010   -3.5790    4.2290 C   0  0  2  0  0  0
   11.0310   -3.9840    4.1540 C   0  0  0  0  0  0
   10.4100   -4.2760    5.1760 O   0  0  0  0  0  0
   12.6530   -2.3800    5.1700 C   0  0  0  0  0  0
   13.3700   -2.7430    6.4550 C   0  0  0  0  0  0
   13.1510   -3.8660    6.9600 O   0  0  0  0  0  0
   14.1500   -1.9070    6.9560 O   0  0  0  0  0  0
   10.4800   -4.0050    2.9460 N   0  0  0  0  0  0
    9.0890   -4.3770    2.7550 C   0  0  2  0  0  0
    8.9280   -5.3300    1.5720 C   0  0  0  0  0  0
    8.0820   -6.2150    1.6090 O   0  0  0  0  0  0
    8.2390   -3.1310    2.5490 C   0  0  0  0  0  0
    8.6450   -1.9240    3.3790 C   0  0  0  0  0  0
    8.0360   -0.6630    2.7910 C   0  0  0  0  0  0
    8.2160   -2.1160    4.8230 C   0  0  0  0  0  0
    9.7450   -5.1500    0.5300 N   0  0  0  0  0  0
    9.6800   -6.0140   -0.6490 C   0  0  2  0  0  0
   10.8610   -6.9760   -0.6740 C   0  0  0  0  0  0
   11.9300   -6.6790   -0.1430 O   0  0  0  0  0  0
    9.6610   -5.1890   -1.9470 C   0  0  0  0  0  0
    8.4910   -5.4870   -2.8990 C   0  0  0  0  0  0
    8.4730   -4.5100   -4.0620 C   0  0  0  0  0  0
    8.5610   -6.9190   -3.4160 C   0  0  0  0  0  0
   10.6590   -8.1290   -1.3030 N   0  0  0  0  0  0
   11.7050   -9.1380   -1.4100 C   0  0  2  0  0  0
   12.0950   -9.6790   -0.0380 C   0  0  0  0  0  0
   12.1170   -8.9470    0.9520 O   0  0  0  0  0  0
   12.9290   -8.5530   -2.1190 C   0  0  0  0  0  0
   12.9050   -8.8180   -3.6120 C   0  0  0  0  0  0
   12.3180   -7.9990   -4.3510 O   0  0  0  0  0  0
   13.4700   -9.8450   -4.0410 O   0  0  0  0  0  0
   12.4020  -10.9720    0.0080 N   0  0  0  0  0  0
   12.7930  -11.6300    1.2500 C   0  0  2  0  0  0
   13.5930  -12.8990    0.9610 C   0  0  0  0  0  0
   14.5540  -13.2100    1.6650 O   0  0  0  0  0  0
   11.5570  -11.9690    2.0870 C   0  0  0  0  0  0
   10.5660  -12.8390    1.3710 C   0  0  0  0  0  0
    9.7290  -12.3080    0.4030 C   0  0  0  0  0  0
   10.4710  -14.1900    1.6630 C   0  0  0  0  0  0
    8.8170  -13.1070   -0.2580 C   0  0  0  0  0  0
    9.5590  -14.9940    1.0050 C   0  0  0  0  0  0
    8.7330  -14.4510    0.0430 C   0  0  0  0  0  0
   13.1910  -13.6240   -0.0790 N   0  0  0  0  0  0
   13.8730  -14.8560   -0.4600 C   0  0  2  0  0  0
   15.1640  -14.5500   -1.2120 C   0  0  0  0  0  0
   16.1750  -15.2250   -1.0280 O   0  0  0  0  0  0
   12.9610  -15.7270   -1.3280 C   0  0  0  0  0  0
   12.6010  -15.0580   -2.5250 O   0  0  0  0  0  0
   15.1260  -13.5230   -2.0550 N   0  0  0  0  0  0
   16.2980  -13.1290   -2.8270 C   0  0  2  0  0  0
   17.4540  -12.7200   -1.9160 C   0  0  0  0  0  0
   18.5960  -12.6150   -2.3620 O   0  0  0  0  0  0
   15.9450  -12.0010   -3.7860 C   0  0  0  0  0  0
   17.1550  -12.4870   -0.6380 N   0  0  0  0  0  0
   18.1780  -12.0900    0.3220 C   0  0  2  0  0  0
   18.5690  -13.2610    1.2220 C   0  0  0  0  0  0
   19.7200  -13.3780    1.6410 O   0  0  0  0  0  0
   17.6820  -10.9170    1.1710 C   0  0  0  0  0  0
   18.6040   -9.7110    1.1320 C   0  0  0  0  0  0
   20.1010   -9.9500    2.1090 S   0  0  0  0  0  0
   21.1600  -10.7700    0.9200 C   0  0  0  0  0  0
   17.6050  -14.1260    1.5170 N   0  0  0  0  0  0
   17.8560  -15.2830    2.3690 C   0  0  2  0  0  0
   18.0720  -16.5440    1.5340 C   0  0  0  0  0  0
   17.8170  -17.6560    1.9950 O   0  0  0  0  0  0
   16.6930  -15.4860    3.3420 C   0  0  0  0  0  0
   17.1290  -15.6720    4.7680 C   0  0  0  0  0  0
   17.4150  -16.9370    5.2590 C   0  0  0  0  0  0
   17.2530  -14.5840    5.6170 C   0  0  0  0  0  0
   17.8160  -17.1120    6.5710 C   0  0  0  0  0  0
   17.6540  -14.7530    6.9300 C   0  0  0  0  0  0
   17.9360  -16.0190    7.4070 C   0  0  0  0  0  0
   18.5470  -16.3640    0.3040 N   0  0  0  0  0  0
   18.7990  -17.4890   -0.5910 C   0  0  2  0  0  0
   20.0350  -17.2370   -1.4490 C   0  0  0  0  0  0
   20.3010  -16.1050   -1.8550 O   0  0  0  0  0  0
   17.5850  -17.7390   -1.4880 C   0  0  0  0  0  0
   17.4040  -19.1240   -1.7270 O   0  0  0  0  0  0
   20.7910  -18.1610   -1.7530 O   0  0  0  0  0  0
   21.7980   -2.3214    6.6735 H   0  0  0  0  0  0
   22.3852   -3.9643    6.2460 H   0  0  0  0  0  0
   20.7220   -3.4589    5.7933 H   0  0  0  0  0  0
   23.3043   -2.3166    4.8525 H   0  0  0  0  0  0
   22.5719   -4.6545    3.9875 H   0  0  0  0  0  0
   22.5717   -3.1216    1.4904 H   0  0  0  0  0  0
   23.7739   -2.4772    2.6592 H   0  0  0  0  0  0
   20.1548   -4.1867    3.8953 H   0  0  0  0  0  0
   20.8020   -4.7629    2.3218 H   0  0  0  0  0  0
   20.4386   -3.0199    2.5593 H   0  0  0  0  0  0
   24.7607   -4.1311    1.1757 H   0  0  0  0  0  0
   23.5561   -5.3527    1.7079 H   0  0  0  0  0  0
   24.7583   -4.7083    2.8768 H   0  0  0  0  0  0
   22.7015   -1.2319    2.4698 H   0  0  0  0  0  0
   20.3465    0.6357    3.1990 H   0  0  0  0  0  0
   21.8915    1.2264    2.4986 H   0  0  0  0  0  0
   20.8962    2.2277    0.7855 H   0  0  0  0  0  0
   20.0913    2.2435   -1.3748 H   0  0  0  0  0  0
   20.5938   -0.7561   -1.6111 H   0  0  0  0  0  0
   22.6123    0.2737   -0.5255 H   0  0  0  0  0  0
   19.6445    0.4245   -3.6117 H   0  0  0  0  0  0
   21.2964   -0.2161   -3.9078 H   0  0  0  0  0  0
   21.0558    1.5356   -3.5909 H   0  0  0  0  0  0
   18.0182    2.6645   -1.5988 H   0  0  0  0  0  0
   15.7326    2.3164   -1.3782 H   0  0  0  0  0  0
   14.8079    0.4303   -2.7172 H   0  0  0  0  0  0
   16.2532    1.1195   -3.5312 H   0  0  0  0  0  0
   16.3535   -2.7788   -2.1846 H   0  0  0  0  0  0
   16.9483    1.8642    1.0253 H   0  0  0  0  0  0
   16.3664   -0.7195    2.1541 H   0  0  0  0  0  0
   17.0120    1.9883    3.1321 H   0  0  0  0  0  0
   15.9119    1.1284    4.2621 H   0  0  0  0  0  0
   18.2216   -0.4468    3.2502 H   0  0  0  0  0  0
   18.6105    0.9431    4.3196 H   0  0  0  0  0  0
   16.3306   -0.6824    5.2692 H   0  0  0  0  0  0
   17.8771   -1.5897    5.1619 H   0  0  0  0  0  0
   18.7956    0.6634    6.3260 H   0  0  0  0  0  0
   17.1013    0.7093    6.9206 H   0  0  0  0  0  0
   18.5695   -0.4359    8.4797 H   0  0  0  0  0  0
   19.0398   -1.6014    7.1963 H   0  0  0  0  0  0
   17.3453   -1.5556    7.7909 H   0  0  0  0  0  0
   14.3585    2.2126    1.7311 H   0  0  0  0  0  0
   12.1716    1.1631    3.3456 H   0  0  0  0  0  0
   10.8357    2.9671    2.4047 H   0  0  0  0  0  0
   12.5181    3.5782    2.5553 H   0  0  0  0  0  0
   11.8770    2.3543   -0.0563 H   0  0  0  0  0  0
   10.9385    3.8305    0.3520 H   0  0  0  0  0  0
   13.7491    6.0113   -0.0601 H   0  0  0  0  0  0
   13.2650    0.5523    0.0455 H   0  0  0  0  0  0
   10.6030   -0.7104   -0.5767 H   0  0  0  0  0  0
   12.8188    0.3538   -2.0842 H   0  0  0  0  0  0
   12.6710   -1.3812   -2.5253 H   0  0  0  0  0  0
   11.4357    0.0047   -4.0695 H   0  0  0  0  0  0
   10.5777   -2.2393   -3.4812 H   0  0  0  0  0  0
    9.2527   -1.0976   -3.8906 H   0  0  0  0  0  0
    9.5846   -1.5099   -2.1741 H   0  0  0  0  0  0
   11.0288    1.9246   -2.5683 H   0  0  0  0  0  0
    9.8493    0.9409   -1.6366 H   0  0  0  0  0  0
    9.5174    1.3532   -3.3532 H   0  0  0  0  0  0
   13.8839   -1.5442    0.3979 H   0  0  0  0  0  0
   13.4034   -4.4331   -0.1605 H   0  0  0  0  0  0
   15.6571   -2.7223    0.6105 H   0  0  0  0  0  0
   15.6162   -4.1945    1.6388 H   0  0  0  0  0  0
   16.9227   -4.6148   -0.4799 H   0  0  0  0  0  0
   13.3452   -2.2344    2.6646 H   0  0  0  0  0  0
   13.0993   -4.4319    4.5820 H   0  0  0  0  0  0
   13.2327   -1.5913    4.6682 H   0  0  0  0  0  0
   11.6579   -1.9923    5.4336 H   0  0  0  0  0  0
   13.6566   -4.1579    7.8923 H   0  0  0  0  0  0
   11.1005   -3.7328    2.0795 H   0  0  0  0  0  0
    8.7950   -4.8914    3.6818 H   0  0  0  0  0  0
    8.2950   -2.8190    1.4957 H   0  0  0  0  0  0
    7.1938   -3.3527    2.8106 H   0  0  0  0  0  0
    9.7398   -1.8194    3.3593 H   0  0  0  0  0  0
    8.3634   -0.5501    1.7469 H   0  0  0  0  0  0
    8.3647    0.2095    3.3747 H   0  0  0  0  0  0
    6.9389   -0.7351    2.8255 H   0  0  0  0  0  0
    8.6711   -3.0347    5.2216 H   0  0  0  0  0  0
    7.1202   -2.1985    4.8721 H   0  0  0  0  0  0
    8.5459   -1.2539    5.4212 H   0  0  0  0  0  0
   10.4780   -4.3309    0.5719 H   0  0  0  0  0  0
    8.7384   -6.5719   -0.5385 H   0  0  0  0  0  0
    9.5975   -4.1189   -1.7004 H   0  0  0  0  0  0
   10.5826   -5.3799   -2.5164 H   0  0  0  0  0  0
    7.5517   -5.3663   -2.3394 H   0  0  0  0  0  0
    8.4224   -3.4812   -3.6759 H   0  0  0  0  0  0
    7.5946   -4.7082   -4.6937 H   0  0  0  0  0  0
    9.3890   -4.6332   -4.6585 H   0  0  0  0  0  0
    8.5734   -7.6159   -2.5650 H   0  0  0  0  0  0
    9.4772   -7.0498   -4.0105 H   0  0  0  0  0  0
    7.6829   -7.1248   -4.0457 H   0  0  0  0  0  0
    9.6706   -8.3120   -1.7497 H   0  0  0  0  0  0
   11.2659   -9.9521   -2.0053 H   0  0  0  0  0  0
   12.9563   -7.4642   -1.9650 H   0  0  0  0  0  0
   13.8429   -9.0048   -1.7058 H   0  0  0  0  0  0
   12.2841   -8.1648   -5.4379 H   0  0  0  0  0  0
   12.3544  -11.5477   -0.9281 H   0  0  0  0  0  0
   13.4256  -10.9033    1.7808 H   0  0  0  0  0  0
   11.8660  -12.5040    2.9971 H   0  0  0  0  0  0
   11.0372  -11.0406    2.3661 H   0  0  0  0  0  0
    9.7911  -11.2472    0.1603 H   0  0  0  0  0  0
   11.1232  -14.6242    2.4207 H   0  0  0  0  0  0
    8.1639  -12.6763   -1.0170 H   0  0  0  0  0  0
    9.4928  -16.0550    1.2459 H   0  0  0  0  0  0
    8.0145  -15.0830   -0.4790 H   0  0  0  0  0  0
   12.3225  -13.2749   -0.6567 H   0  0  0  0  0  0
   14.1046  -15.3657    0.4869 H   0  0  0  0  0  0
   13.4845  -16.6582   -1.5902 H   0  0  0  0  0  0
   12.0436  -15.9666   -0.7704 H   0  0  0  0  0  0
   11.9465  -15.5540   -3.2568 H   0  0  0  0  0  0
   14.1834  -12.9664   -2.1634 H   0  0  0  0  0  0
   16.5874  -14.0255   -3.3949 H   0  0  0  0  0  0
   15.1119  -12.3159   -4.4316 H   0  0  0  0  0  0
   16.8202  -11.7609   -4.4076 H   0  0  0  0  0  0
   15.6478  -11.1111   -3.2118 H   0  0  0  0  0  0
   16.1102  -12.6001   -0.3131 H   0  0  0  0  0  0
   19.0444  -11.7866   -0.2840 H   0  0  0  0  0  0
   16.6968  -10.5911    0.8062 H   0  0  0  0  0  0
   17.5977  -11.2341    2.2209 H   0  0  0  0  0  0
   18.9069   -9.5145    0.0929 H   0  0  0  0  0  0
   18.0762   -8.8329    1.5324 H   0  0  0  0  0  0
   22.1341  -10.9851    1.3836 H   0  0  0  0  0  0
   21.3057  -10.1168    0.0470 H   0  0  0  0  0  0
   20.6907  -11.7117    0.5992 H   0  0  0  0  0  0
   16.6000  -13.9550    1.1037 H   0  0  0  0  0  0
   18.7788  -15.0465    2.9190 H   0  0  0  0  0  0
   16.0322  -14.6071    3.3120 H   0  0  0  0  0  0
   16.1246  -16.3821    3.0522 H   0  0  0  0  0  0
   17.3227  -17.8030    4.6036 H   0  0  0  0  0  0
   17.0320  -13.5832    5.2459 H   0  0  0  0  0  0
   18.0372  -18.1116    6.9450 H   0  0  0  0  0  0
   17.7474  -13.8887    7.5876 H   0  0  0  0  0  0
   18.2526  -16.1548    8.4411 H   0  0  0  0  0  0
   18.7501  -15.3368   -0.0331 H   0  0  0  0  0  0
   18.9752  -18.3522    0.0677 H   0  0  0  0  0  0
   16.6813  -17.3451   -1.0000 H   0  0  0  0  0  0
   17.7314  -17.2316   -2.4530 H   0  0  0  0  0  0
   16.5705  -19.4692   -2.3564 H   0  0  0  0  0  0
   21.6786  -17.9644   -2.3723 H   0  0  0  0  0  0
  1  2  1  0  0  0
  1140  1  0  0  0
  1141  1  0  0  0
  1142  1  0  0  0
  2  3  1  0  0  0
  2  5  1  0  0  0
  2143  1  0  0  0
  3  4  2  0  0  0
  3  9  1  0  0  0
  5  6  1  0  0  0
  5  7  1  0  0  0
  5144  1  0  0  0
  6  8  1  0  0  0
  6145  1  0  0  0
  6146  1  0  0  0
  7147  1  0  0  0
  7148  1  0  0  0
  7149  1  0  0  0
  8150  1  0  0  0
  8151  1  0  0  0
  8152  1  0  0  0
  9 10  1  0  0  0
  9153  1  0  0  0
 10 11  1  0  0  0
 10154  1  0  0  0
 10155  1  0  0  0
 11 12  2  0  0  0
 11 13  1  0  0  0
 13 14  1  0  0  0
 13156  1  0  0  0
 14 15  1  0  0  0
 14 17  1  0  0  0
 14157  1  0  0  0
 15 16  2  0  0  0
 15 20  1  0  0  0
 17 18  1  0  0  0
 17 19  1  0  0  0
 17158  1  0  0  0
 18159  1  0  0  0
 19160  1  0  0  0
 19161  1  0  0  0
 19162  1  0  0  0
 20 21  1  0  0  0
 20163  1  0  0  0
 21 22  1  0  0  0
 21 24  1  0  0  0
 21164  1  0  0  0
 22 23  2  0  0  0
 22 28  1  0  0  0
 24 25  1  0  0  0
 24165  1  0  0  0
 24166  1  0  0  0
 25 26  1  0  0  0
 25 27  2  0  0  0
 26167  1  0  0  0
 28 29  1  0  0  0
 28168  1  0  0  0
 29 30  1  0  0  0
 29 32  1  0  0  0
 29169  1  0  0  0
 30 31  2  0  0  0
 30 37  1  0  0  0
 32 33  1  0  0  0
 32170  1  0  0  0
 32171  1  0  0  0
 33 34  1  0  0  0
 33172  1  0  0  0
 33173  1  0  0  0
 34 35  1  0  0  0
 34174  1  0  0  0
 34175  1  0  0  0
 35 36  1  0  0  0
 35176  1  0  0  0
 35177  1  0  0  0
 36178  1  0  0  0
 36179  1  0  0  0
 36180  1  0  0  0
 37 38  1  0  0  0
 37181  1  0  0  0
 38 39  1  0  0  0
 38 41  1  0  0  0
 38182  1  0  0  0
 39 40  2  0  0  0
 39 46  1  0  0  0
 41 42  1  0  0  0
 41183  1  0  0  0
 41184  1  0  0  0
 42 43  1  0  0  0
 42185  1  0  0  0
 42186  1  0  0  0
 43 44  2  0  0  0
 43 45  1  0  0  0
 45187  1  0  0  0
 46 47  1  0  0  0
 46188  1  0  0  0
 47 48  1  0  0  0
 47 50  1  0  0  0
 47189  1  0  0  0
 48 49  2  0  0  0
 48 54  1  0  0  0
 50 51  1  0  0  0
 50190  1  0  0  0
 50191  1  0  0  0
 51 52  1  0  0  0
 51 53  1  0  0  0
 51192  1  0  0  0
 52193  1  0  0  0
 52194  1  0  0  0
 52195  1  0  0  0
 53196  1  0  0  0
 53197  1  0  0  0
 53198  1  0  0  0
 54 55  1  0  0  0
 54199  1  0  0  0
 55 56  1  0  0  0
 55 58  1  0  0  0
 55200  1  0  0  0
 56 57  2  0  0  0
 56 60  1  0  0  0
 58 59  1  0  0  0
 58201  1  0  0  0
 58202  1  0  0  0
 59203  1  0  0  0
 60 61  1  0  0  0
 60204  1  0  0  0
 61 62  1  0  0  0
 61 64  1  0  0  0
 61205  1  0  0  0
 62 63  2  0  0  0
 62 68  1  0  0  0
 64 65  1  0  0  0
 64206  1  0  0  0
 64207  1  0  0  0
 65 66  1  0  0  0
 65 67  2  0  0  0
 66208  1  0  0  0
 68 69  1  0  0  0
 68209  1  0  0  0
 69 70  1  0  0  0
 69 72  1  0  0  0
 69210  1  0  0  0
 70 71  2  0  0  0
 70 76  1  0  0  0
 72 73  1  0  0  0
 72211  1  0  0  0
 72212  1  0  0  0
 73 74  1  0  0  0
 73 75  1  0  0  0
 73213  1  0  0  0
 74214  1  0  0  0
 74215  1  0  0  0
 74216  1  0  0  0
 75217  1  0  0  0
 75218  1  0  0  0
 75219  1  0  0  0
 76 77  1  0  0  0
 76220  1  0  0  0
 77 78  1  0  0  0
 77 80  1  0  0  0
 77221  1  0  0  0
 78 79  2  0  0  0
 78 84  1  0  0  0
 80 81  1  0  0  0
 80222  1  0  0  0
 80223  1  0  0  0
 81 82  1  0  0  0
 81 83  1  0  0  0
 81224  1  0  0  0
 82225  1  0  0  0
 82226  1  0  0  0
 82227  1  0  0  0
 83228  1  0  0  0
 83229  1  0  0  0
 83230  1  0  0  0
 84 85  1  0  0  0
 84231  1  0  0  0
 85 86  1  0  0  0
 85 88  1  0  0  0
 85232  1  0  0  0
 86 87  2  0  0  0
 86 92  1  0  0  0
 88 89  1  0  0  0
 88233  1  0  0  0
 88234  1  0  0  0
 89 90  1  0  0  0
 89 91  2  0  0  0
 90235  1  0  0  0
 92 93  1  0  0  0
 92236  1  0  0  0
 93 94  1  0  0  0
 93 96  1  0  0  0
 93237  1  0  0  0
 94 95  2  0  0  0
 94103  1  0  0  0
 96 97  1  0  0  0
 96238  1  0  0  0
 96239  1  0  0  0
 97 98  2  0  0  0
 97 99  1  0  0  0
 98100  1  0  0  0
 98240  1  0  0  0
 99101  2  0  0  0
 99241  1  0  0  0
100102  2  0  0  0
100242  1  0  0  0
101102  1  0  0  0
101243  1  0  0  0
102244  1  0  0  0
103104  1  0  0  0
103245  1  0  0  0
104105  1  0  0  0
104107  1  0  0  0
104246  1  0  0  0
105106  2  0  0  0
105109  1  0  0  0
107108  1  0  0  0
107247  1  0  0  0
107248  1  0  0  0
108249  1  0  0  0
109110  1  0  0  0
109250  1  0  0  0
110111  1  0  0  0
110113  1  0  0  0
110251  1  0  0  0
111112  2  0  0  0
111114  1  0  0  0
113252  1  0  0  0
113253  1  0  0  0
113254  1  0  0  0
114115  1  0  0  0
114255  1  0  0  0
115116  1  0  0  0
115118  1  0  0  0
115256  1  0  0  0
116117  2  0  0  0
116122  1  0  0  0
118119  1  0  0  0
118257  1  0  0  0
118258  1  0  0  0
119120  1  0  0  0
119259  1  0  0  0
119260  1  0  0  0
120121  1  0  0  0
121261  1  0  0  0
121262  1  0  0  0
121263  1  0  0  0
122123  1  0  0  0
122264  1  0  0  0
123124  1  0  0  0
123126  1  0  0  0
123265  1  0  0  0
124125  2  0  0  0
124133  1  0  0  0
126127  1  0  0  0
126266  1  0  0  0
126267  1  0  0  0
127128  2  0  0  0
127129  1  0  0  0
128130  1  0  0  0
128268  1  0  0  0
129131  2  0  0  0
129269  1  0  0  0
130132  2  0  0  0
130270  1  0  0  0
131132  1  0  0  0
131271  1  0  0  0
132272  1  0  0  0
133134  1  0  0  0
133273  1  0  0  0
134135  1  0  0  0
134137  1  0  0  0
134274  1  0  0  0
135136  2  0  0  0
135139  1  0  0  0
137138  1  0  0  0
137275  1  0  0  0
137276  1  0  0  0
138277  1  0  0  0
139278  1  0  0  0
M  CHG  2   1   1  36   1
M  END
> <s_m_source_file>
../2knh_ligand.sdf

> <i_m_source_file_index>
1

> <s_epik_input>
W0NIM11bQ0gyXVtDQEhdKFtDSDNdKVtDQEhdKFtOSDMrXSlDKD1PKVtOSF1bQ0gyXUMoPU8pW05IXVtDQEBIXShbQ0BIXShbT0hdKVtDSDNdKUMoPU8pW05IXVtDQEBIXShbQ0gyXUMoPU8pW09IXSlDKD1PKVtOSF1bQ0BASF0oW0NIMl1bQ0gyXVtDSDJdW0NIMl1bTkgzK10pQyg9TylbTkhdW0NAQEhdKFtDSDJdW0NIMl1DKD1PKVtPSF0pQyg9TylbTkhdW0NAQEhdKFtDSDJdW0NIXShbQ0gzXSlbQ0gzXSlDKD1PKVtOSF1bQ0BASF0oW0NIMl1bT0hdKUMoPU8pW05IXVtDQEBIXShbQ0gyXUMoPU8pW09IXSlDKD1PKVtOSF1bQ0BASF0oW0NIMl1bQ0hdKFtDSDNdKVtDSDNdKUMoPU8pW05IXVtDQEBIXShbQ0gyXVtDSF0oW0NIM10pW0NIM10pQyg9TylbTkhdW0NAQEhdKFtDSDJdQyg9TylbT0hdKUMoPU8pW05IXVtDQEBIXShbQ0gyXWMxW2NIXVtjSF1bY0hdW2NIXVtjSF0xKUMoPU8pW05IXVtDQEBIXShbQ0gyXVtPSF0pQyg9TylbTkhdW0NAQEhdKFtDSDNdKUMoPU8pW05IXVtDQEBIXShbQ0gyXVtDSDJdU1tDSDNdKUMoPU8pW05IXVtDQEhdKEMoPU8pW05IXVtDQEhdKEMoPU8pW09IXSlbQ0gyXVtPSF0pW0NIMl1jMltjSF1bY0hdW2NIXVtjSF1bY0hdMg==

> <s_epik_cmdline>
J2VwaWtfYXBwJywgJy1pbWFlJywgJ2xpZ2FuZF9wcm8ubWFlJywgJy1vbWFlJywgJ2xpZ2FuZF9wcmVwLm1hZScsICctbXMnLCAnMScsICctcGgnLCAnNycsICctcGh0JywgJzAuNScsICctbnQn

> <s_epik_pKa_notes>
Molecule size exceeds maximum supported for generating protonation states

$$$$
