2ko7_ligand
                    3D
 Schrodinger Suite 2020-3.
 55 56  0  0  1  0            999 V2000
  -20.4790   -5.5900    0.5820 N   0  0  0  0  0  0
  -19.6720   -3.0570   -4.7800 O   0  0  0  0  0  0
  -20.9490   -4.9820   -0.5520 C   0  0  0  0  0  0
  -22.1330   -4.9760   -0.8240 O   0  0  0  0  0  0
  -19.9800   -4.3080   -1.5080 C   0  0  0  0  0  0
  -18.7760   -6.1170    1.9680 O   0  0  0  0  0  0
  -18.7500   -3.7590   -0.7720 C   0  0  0  0  0  0
  -23.2840   -7.7310    0.8910 O   0  0  0  0  0  0
  -18.1330   -4.8860    0.0720 C   0  0  0  0  0  0
  -21.1990   -8.2570    0.1680 O   0  0  0  0  0  0
  -19.1600   -5.5690    0.9530 C   0  0  0  0  0  0
  -17.7540   -2.9930   -1.7000 C   0  0  0  0  0  0
  -18.2390   -1.8700   -2.6700 C   0  0  2  0  0  0
  -17.6610   -1.8810   -4.1300 C   0  0  1  0  0  0
  -18.1370   -0.5800   -2.0560 O   0  0  0  0  0  0
  -18.5620   -2.6640   -5.0890 C   0  0  0  0  0  0
  -18.0390   -2.7760   -6.5170 C   0  0  2  0  0  0
  -17.7770   -1.3640   -7.0970 C   0  0  0  0  0  0
  -16.8730   -0.5040   -6.1820 C   0  0  1  0  0  0
  -17.4480   -0.4640   -4.7450 C   0  0  0  0  0  0
  -21.4520   -6.2780    1.4710 C   0  0  0  0  0  0
  -20.9270   -8.0020   -1.2290 C   0  0  0  0  0  0
  -21.1170   -9.3180   -1.9990 C   0  0  0  0  0  0
  -19.0100   -3.5490   -7.4390 C   0  0  0  0  0  0
  -15.3980   -0.9720   -6.2140 C   0  0  0  0  0  0
  -22.0950   -7.4860    0.8220 C   0  0  0  0  0  0
  -19.6391   -5.0364   -2.2585 H   0  0  0  0  0  0
  -20.4850   -3.4710   -2.0124 H   0  0  0  0  0  0
  -19.0783   -2.9791   -0.0692 H   0  0  0  0  0  0
  -17.6949   -5.6445   -0.5933 H   0  0  0  0  0  0
  -17.3482   -4.4704    0.7211 H   0  0  0  0  0  0
  -16.9985   -2.4824   -1.0848 H   0  0  0  0  0  0
  -17.2571   -3.7070   -2.3733 H   0  0  0  0  0  0
  -19.3233   -2.0152   -2.7854 H   0  0  0  0  0  0
  -16.6840   -2.3788   -4.0420 H   0  0  0  0  0  0
  -18.5044   -0.4285   -1.0303 H   0  0  0  0  0  0
  -17.1010   -3.3478   -6.4607 H   0  0  0  0  0  0
  -17.2797   -1.4554   -8.0739 H   0  0  0  0  0  0
  -18.7335   -0.8351   -7.2206 H   0  0  0  0  0  0
  -16.8698    0.5241   -6.5731 H   0  0  0  0  0  0
  -18.4109    0.0661   -4.7868 H   0  0  0  0  0  0
  -16.7432    0.1046   -4.1205 H   0  0  0  0  0  0
  -20.9380   -6.6215    2.3808 H   0  0  0  0  0  0
  -22.2557   -5.5789    1.7457 H   0  0  0  0  0  0
  -21.6240   -7.2385   -1.6048 H   0  0  0  0  0  0
  -19.8936   -7.6423   -1.3417 H   0  0  0  0  0  0
  -20.9153   -9.1502   -3.0673 H   0  0  0  0  0  0
  -22.1510   -9.6710   -1.8721 H   0  0  0  0  0  0
  -20.4206  -10.0749   -1.6089 H   0  0  0  0  0  0
  -19.1922   -4.5505   -7.0222 H   0  0  0  0  0  0
  -18.5666   -3.6440   -8.4412 H   0  0  0  0  0  0
  -19.9620   -3.0024   -7.5095 H   0  0  0  0  0  0
  -15.0392   -0.9827   -7.2538 H   0  0  0  0  0  0
  -15.3254   -1.9847   -5.7906 H   0  0  0  0  0  0
  -14.7812   -0.2813   -5.6203 H   0  0  0  0  0  0
  1  3  1  0  0  0
  1 11  1  0  0  0
  1 21  1  0  0  0
  2 16  2  0  0  0
  3  4  2  0  0  0
  3  5  1  0  0  0
  5  7  1  0  0  0
  5 27  1  0  0  0
  5 28  1  0  0  0
  6 11  2  0  0  0
  7  9  1  0  0  0
  7 12  1  0  0  0
  7 29  1  0  0  0
  8 26  2  0  0  0
  9 11  1  0  0  0
  9 30  1  0  0  0
  9 31  1  0  0  0
 10 22  1  0  0  0
 10 26  1  0  0  0
 12 13  1  0  0  0
 12 32  1  0  0  0
 12 33  1  0  0  0
 13 14  1  0  0  0
 13 15  1  0  0  0
 13 34  1  0  0  0
 14 16  1  0  0  0
 14 20  1  0  0  0
 14 35  1  0  0  0
 15 36  1  0  0  0
 16 17  1  0  0  0
 17 18  1  0  0  0
 17 24  1  0  0  0
 17 37  1  0  0  0
 18 19  1  0  0  0
 18 38  1  0  0  0
 18 39  1  0  0  0
 19 20  1  0  0  0
 19 25  1  0  0  0
 19 40  1  0  0  0
 20 41  1  0  0  0
 20 42  1  0  0  0
 21 26  1  0  0  0
 21 43  1  0  0  0
 21 44  1  0  0  0
 22 23  1  0  0  0
 22 45  1  0  0  0
 22 46  1  0  0  0
 23 47  1  0  0  0
 23 48  1  0  0  0
 23 49  1  0  0  0
 24 50  1  0  0  0
 24 51  1  0  0  0
 24 52  1  0  0  0
 25 53  1  0  0  0
 25 54  1  0  0  0
 25 55  1  0  0  0
M  END
> <s_m_source_file>
../2ko7_ligand.sdf

> <i_m_source_file_index>
1

> <s_epik_input>
W0NIM11bQ0gyXU9DKD1PKVtDSDJdTjFDKD1PKVtDSDJdW0NIXShbQ0gyXUMxPU8pW0NIMl1bQ0BASF0oW09IXSlbQ0BIXTJDKD1PKVtDQEBIXShbQ0gzXSlbQ0gyXVtDQEBIXShbQ0gyXTIpW0NIM10=

> <s_epik_cmdline>
J2VwaWtfYXBwJywgJy1pbWFlJywgJ2xpZ2FuZF9wcm8ubWFlJywgJy1vbWFlJywgJ2xpZ2FuZF9wcmVwLm1hZScsICctbXMnLCAnMScsICctcGgnLCAnNycsICctcGh0JywgJzAuNScsICctbnQn

> <r_lp_tautomer_probability>
1

> <r_epik_Ionization_Penalty>
  0.0000

> <r_epik_Ionization_Penalty_Charging>
  0.0000

> <r_epik_Ionization_Penalty_Neutral>
  0.0000

> <r_epik_State_Penalty>
 -0.0000

> <r_epik_Charging_Adjusted_Penalty>
0

> <i_epik_Tot_Q>
0

> <i_epik_Tot_abs_Q>
0

> <s_epik_Chemistry_Notes>
This compound has an ester and may undergo hydrolysis at high or low pH.

$$$$
