2koh_ligand
                    3D
 Schrodinger Suite 2020-3.
257258  0  0  1  0            999 V2000
   -5.1990   -6.7800   34.2150 N   0  3  0  0  0  0
   -4.6340   -5.6440   33.4880 C   0  0  2  0  0  0
   -3.4180   -6.0880   32.6990 C   0  0  0  0  0  0
   -2.9130   -5.3750   31.8270 O   0  0  0  0  0  0
   -4.2550   -4.5100   34.4500 C   0  0  0  0  0  0
   -5.4340   -3.9390   35.2250 C   0  0  0  0  0  0
   -4.9570   -2.6010   36.3400 S   0  0  0  0  0  0
   -6.5400   -2.2040   37.0760 C   0  0  0  0  0  0
   -2.9440   -7.2620   33.0120 N   0  0  0  0  0  0
   -1.8200   -7.8360   32.3140 C   0  0  2  0  0  0
   -2.3070   -8.9360   31.4050 C   0  0  0  0  0  0
   -3.4620   -9.3700   31.5210 O   0  0  0  0  0  0
   -0.7310   -8.3890   33.2720 C   0  0  0  0  0  0
    0.0750   -7.3860   34.1320 C   0  0  0  0  0  0
   -0.7910   -6.6600   35.1510 C   0  0  0  0  0  0
    1.2290   -8.0940   34.8180 C   0  0  0  0  0  0
   -1.4430   -9.3590   30.5060 N   0  0  0  0  0  0
   -1.7130  -10.4350   29.5630 C   0  0  2  0  0  0
   -2.8450  -10.1070   28.5970 C   0  0  0  0  0  0
   -4.0120  -10.4530   28.8190 O   0  0  0  0  0  0
   -1.9240  -11.7870   30.2560 C   0  0  0  0  0  0
   -2.5050   -9.3950   27.5730 N   0  0  0  0  0  0
   -3.4130   -9.0680   26.5180 C   0  0  2  0  0  0
   -2.7630   -9.5450   25.2600 C   0  0  0  0  0  0
   -1.5600   -9.3020   25.0580 O   0  0  0  0  0  0
   -3.6610   -7.5820   26.4670 C   0  0  0  0  0  0
   -4.7430   -7.1660   25.4950 C   0  0  0  0  0  0
   -5.0110   -5.6930   25.5270 C   0  0  0  0  0  0
   -5.8430   -5.2560   26.3420 O   0  0  0  0  0  0
   -4.4030   -4.9430   24.7330 O   0  0  0  0  0  0
   -3.5280  -10.2110   24.4250 N   0  0  0  0  0  0
   -2.9880  -10.9490   23.2690 C   0  0  2  0  0  0
   -2.0270  -12.0280   23.7950 C   0  0  0  0  0  0
   -2.0330  -12.3520   25.0050 O   0  0  0  0  0  0
   -2.2570  -10.0330   22.2300 C   0  0  0  0  0  0
   -3.1060   -9.0920   21.3430 C   0  0  0  0  0  0
   -3.8390   -8.0430   22.1450 C   0  0  0  0  0  0
   -2.2360   -8.4380   20.2790 C   0  0  0  0  0  0
   -1.2380  -12.5980   22.9330 N   0  0  0  0  0  0
   -0.2650  -13.5520   23.3540 C   0  0  2  0  0  0
    0.8090  -13.5970   22.3200 C   0  0  0  0  0  0
    0.5730  -14.0120   21.1760 O   0  0  0  0  0  0
   -0.8880  -14.9300   23.5770 C   0  0  0  0  0  0
    0.0570  -15.9230   24.2000 C   0  0  0  0  0  0
    0.3380  -15.8730   25.5590 C   0  0  0  0  0  0
    0.6620  -16.9080   23.4440 C   0  0  0  0  0  0
    1.1950  -16.7790   26.1410 C   0  0  0  0  0  0
    1.5190  -17.8160   24.0220 C   0  0  0  0  0  0
    1.7830  -17.7470   25.3650 C   0  0  0  0  0  0
    2.6370  -18.6630   25.9400 O   0  0  0  0  0  0
    1.9470  -13.1310   22.6890 N   0  0  0  0  0  0
    3.0310  -13.0490   21.7930 C   0  0  0  0  0  0
    3.9420  -11.9430   22.2040 C   0  0  0  0  0  0
    3.4980  -10.9940   22.8670 O   0  0  0  0  0  0
    5.1900  -12.0450   21.8620 N   0  0  0  0  0  0
    6.1310  -11.0290   22.1930 C   0  0  2  0  0  0
    6.1050   -9.9560   21.1090 C   0  0  0  0  0  0
    6.8390  -10.0250   20.1180 O   0  0  0  0  0  0
    7.5190  -11.6390   22.3530 C   0  0  0  0  0  0
    7.4870  -12.6950   23.3180 O   0  0  0  0  0  0
    5.1960   -9.0210   21.2630 N   0  0  0  0  0  0
    4.9970   -7.9830   20.2970 C   0  0  2  0  0  0
    4.8190   -6.6800   21.0310 C   0  0  0  0  0  0
    4.1050   -6.6290   22.0340 O   0  0  0  0  0  0
    3.7030   -8.2300   19.4740 C   0  0  0  0  0  0
    3.6190   -9.5830   18.7950 C   0  0  0  0  0  0
    4.0700   -9.7290   17.6340 O   0  0  0  0  0  0
    3.0790  -10.5200   19.4040 O   0  0  0  0  0  0
    5.4710   -5.6160   20.5860 N   0  0  0  0  0  0
    5.2720   -4.2900   21.1450 C   0  0  2  0  0  0
    4.2150   -3.5310   20.3370 C   0  0  0  0  0  0
    3.9880   -2.3380   20.5480 O   0  0  0  0  0  0
    6.6440   -3.6480   20.9490 C   0  0  0  0  0  0
    7.1750   -4.2600   19.6870 C   0  0  0  0  0  0
    6.5060   -5.6120   19.5340 C   0  0  0  0  0  0
    3.5590   -4.2730   19.4260 N   0  0  0  0  0  0
    2.6040   -3.7430   18.4610 C   0  0  2  0  0  0
    3.2580   -2.6870   17.5880 C   0  0  0  0  0  0
    3.3400   -1.5260   17.9650 O   0  0  0  0  0  0
    1.2950   -3.1940   19.0990 C   0  0  0  0  0  0
    0.3430   -4.2310   19.7240 C   0  0  0  0  0  0
    0.9160   -4.9910   20.9080 C   0  0  0  0  0  0
    1.5140   -6.0590   20.7560 O   0  0  0  0  0  0
    0.7440   -4.4520   22.0820 N   0  0  0  0  0  0
    3.7720   -3.1010   16.4510 N   0  0  0  0  0  0
    4.4190   -2.1770   15.5470 C   0  0  2  0  0  0
    3.4060   -1.2730   14.8630 C   0  0  0  0  0  0
    2.6620   -1.6760   13.9660 O   0  0  0  0  0  0
    5.3500   -2.8980   14.5740 C   0  0  0  0  0  0
    4.6990   -3.9850   13.7930 C   0  0  0  0  0  0
    5.7090   -4.7930   13.0370 C   0  0  0  0  0  0
    6.4300   -5.5760   13.6850 O   0  0  0  0  0  0
    5.7860   -4.7000   11.8120 O   0  0  0  0  0  0
    3.3790   -0.0750   15.3390 N   0  0  0  0  0  0
    2.4680    0.9610   14.9100 C   0  0  2  0  0  0
    3.2230    1.9780   14.0730 C   0  0  0  0  0  0
    4.4340    2.1830   14.2690 O   0  0  0  0  0  0
    1.9260    1.6730   16.1510 C   0  0  0  0  0  0
    1.1690    0.7930   17.1240 C   0  0  0  0  0  0
    1.0030    1.4490   18.4880 C   0  0  0  0  0  0
    2.0030    1.5660   19.2160 O   0  0  0  0  0  0
   -0.1200    1.8200   18.8590 O   0  0  0  0  0  0
    2.5370    2.5890   13.1580 N   0  0  0  0  0  0
    3.0850    3.6150   12.3470 C   0  0  2  0  0  0
    1.9880    4.6800   12.2170 C   0  0  0  0  0  0
    0.8410    4.3520   11.9540 O   0  0  0  0  0  0
    3.4530    3.0100   10.9730 C   0  0  0  0  0  0
    4.4850    3.7470   10.1250 C   0  0  0  0  0  0
    4.0650    5.1560    9.7740 C   0  0  0  0  0  0
    5.8140    3.7160   10.8270 C   0  0  0  0  0  0
    2.3180    5.9180   12.4420 N   0  0  0  0  0  0
    1.3180    6.9740   12.3520 C   0  0  2  0  0  0
    1.5620    7.8080   11.1200 C   0  0  0  0  0  0
    2.6740    8.3180   10.9060 O   0  0  0  0  0  0
    1.2440    7.9230   13.6190 C   0  0  2  0  0  0
    0.8700    7.1590   14.9170 C   0  0  0  0  0  0
    0.2450    9.0780   13.3930 C   0  0  0  0  0  0
    1.9290    6.2110   15.4540 C   0  0  0  0  0  0
    0.5630    7.9520   10.3180 N   0  0  0  0  0  0
    0.6620    8.7470    9.1600 C   0  0  2  0  0  0
   -0.2440    9.9480    9.3070 C   0  0  0  0  0  0
    0.2470   11.0030    9.7200 O   0  0  0  0  0  0
    0.4130    7.9610    7.8320 C   0  0  2  0  0  0
   -0.9070    7.1880    7.8500 C   0  0  0  0  0  0
    1.5760    7.0130    7.5470 C   0  0  0  0  0  0
   -1.2460    6.5720    6.5150 C   0  0  0  0  0  0
   -1.4340    9.8440    9.0630 O   0  0  0  0  0  0
   -5.4614   -7.5768   33.5035 H   0  0  0  0  0  0
   -6.1021   -6.4578   34.7541 H   0  0  0  0  0  0
   -4.4585   -7.1599   34.9343 H   0  0  0  0  0  0
   -5.4215   -5.3030   32.7999 H   0  0  0  0  0  0
   -3.5298   -4.8826   35.1884 H   0  0  0  0  0  0
   -3.8069   -3.6815   33.8818 H   0  0  0  0  0  0
   -6.1775   -3.5394   34.5196 H   0  0  0  0  0  0
   -5.8937   -4.7335   35.8312 H   0  0  0  0  0  0
   -6.4132   -1.3840   37.7982 H   0  0  0  0  0  0
   -6.9364   -3.0902   37.5932 H   0  0  0  0  0  0
   -7.2429   -1.8939   36.2888 H   0  0  0  0  0  0
   -3.4241   -7.8168   33.8315 H   0  0  0  0  0  0
   -1.4134   -6.9956   31.7322 H   0  0  0  0  0  0
   -1.1946   -9.0724   33.9986 H   0  0  0  0  0  0
    0.0278   -8.9325   32.6899 H   0  0  0  0  0  0
    0.4828   -6.6106   33.4668 H   0  0  0  0  0  0
   -1.6199   -6.1545   34.6339 H   0  0  0  0  0  0
   -0.1827   -5.9147   35.6845 H   0  0  0  0  0  0
   -1.1963   -7.3859   35.8712 H   0  0  0  0  0  0
    1.8414   -8.6115   34.0649 H   0  0  0  0  0  0
    0.8342   -8.8274   35.5365 H   0  0  0  0  0  0
    1.8478   -7.3562   35.3498 H   0  0  0  0  0  0
   -0.4690   -8.8480   30.4933 H   0  0  0  0  0  0
   -0.7807  -10.4802   28.9809 H   0  0  0  0  0  0
   -1.0862  -11.9823   30.9416 H   0  0  0  0  0  0
   -1.9716  -12.5836   29.4989 H   0  0  0  0  0  0
   -2.8655  -11.7647   30.8245 H   0  0  0  0  0  0
   -1.4657   -9.0368   27.5349 H   0  0  0  0  0  0
   -4.3746   -9.5686   26.7044 H   0  0  0  0  0  0
   -3.9677   -7.2271   27.4620 H   0  0  0  0  0  0
   -2.7383   -7.0665   26.1622 H   0  0  0  0  0  0
   -4.4386   -7.4316   24.4719 H   0  0  0  0  0  0
   -5.6800   -7.6851   25.7452 H   0  0  0  0  0  0
   -4.5911   -3.8593   24.7467 H   0  0  0  0  0  0
   -4.6113  -10.2038   24.6156 H   0  0  0  0  0  0
   -3.8685  -11.3885   22.7775 H   0  0  0  0  0  0
   -1.5592   -9.3654   22.7568 H   0  0  0  0  0  0
   -1.6988  -10.6589   21.5182 H   0  0  0  0  0  0
   -3.8840   -9.6933   20.8498 H   0  0  0  0  0  0
   -4.4616   -8.5334   22.9078 H   0  0  0  0  0  0
   -4.4790   -7.4501   21.4750 H   0  0  0  0  0  0
   -3.1102   -7.3815   22.6363 H   0  0  0  0  0  0
   -1.7107   -9.2161   19.7058 H   0  0  0  0  0  0
   -1.4999   -7.7784   20.7618 H   0  0  0  0  0  0
   -2.8687   -7.8469   19.6005 H   0  0  0  0  0  0
   -1.3274  -12.3368   21.8682 H   0  0  0  0  0  0
    0.1400  -13.1881   24.3098 H   0  0  0  0  0  0
   -1.7554  -14.8361   24.2469 H   0  0  0  0  0  0
   -1.2133  -15.3459   22.6120 H   0  0  0  0  0  0
   -0.1278  -15.1036   26.1748 H   0  0  0  0  0  0
    0.4577  -16.9668   22.3749 H   0  0  0  0  0  0
    1.4052  -16.7285   27.2093 H   0  0  0  0  0  0
    1.9872  -18.5890   23.4127 H   0  0  0  0  0  0
    2.8529  -18.6128   27.0174 H   0  0  0  0  0  0
    2.0659  -12.7919   23.7286 H   0  0  0  0  0  0
    3.5854  -13.9990   21.8003 H   0  0  0  0  0  0
    2.6541  -12.8522   20.7785 H   0  0  0  0  0  0
    5.5160  -12.9367   21.3065 H   0  0  0  0  0  0
    5.8082  -10.6050   23.1553 H   0  0  0  0  0  0
    7.8549  -12.0443   21.3871 H   0  0  0  0  0  0
    8.2233  -10.8644   22.6905 H   0  0  0  0  0  0
    8.4068  -13.2481   23.5588 H   0  0  0  0  0  0
    4.5763   -9.0532   22.1713 H   0  0  0  0  0  0
    5.9028   -7.9958   19.6730 H   0  0  0  0  0  0
    2.8277   -8.1569   20.1362 H   0  0  0  0  0  0
    3.6248   -7.4746   18.6782 H   0  0  0  0  0  0
    4.0099  -10.7099   17.1399 H   0  0  0  0  0  0
    4.9287   -4.3401   22.1889 H   0  0  0  0  0  0
    6.5289   -2.5579   20.8570 H   0  0  0  0  0  0
    7.2832   -3.8775   21.8143 H   0  0  0  0  0  0
    6.9342   -3.6085   18.8340 H   0  0  0  0  0  0
    8.2664   -4.3731   19.7653 H   0  0  0  0  0  0
    7.2057   -6.4434   19.7049 H   0  0  0  0  0  0
    6.0290   -5.7305   18.5499 H   0  0  0  0  0  0
    3.7854   -5.3493   19.4415 H   0  0  0  0  0  0
    2.3566   -4.6297   17.8589 H   0  0  0  0  0  0
    1.5475   -2.4938   19.9089 H   0  0  0  0  0  0
    0.7050   -2.6705   18.3323 H   0  0  0  0  0  0
   -0.5659   -3.7253   20.0822 H   0  0  0  0  0  0
    0.0709   -4.9818   18.9675 H   0  0  0  0  0  0
    0.2047   -3.4978   22.1755 H   0  0  0  0  0  0
    1.1381   -4.9512   22.9795 H   0  0  0  0  0  0
    3.7043   -4.1678   16.1916 H   0  0  0  0  0  0
    5.0437   -1.5420   16.1923 H   0  0  0  0  0  0
    5.7510   -2.1762   13.8473 H   0  0  0  0  0  0
    6.1800   -3.3561   15.1319 H   0  0  0  0  0  0
    4.1572   -4.6543   14.4774 H   0  0  0  0  0  0
    3.9923   -3.5466   13.0731 H   0  0  0  0  0  0
    7.1836   -6.1867   13.1662 H   0  0  0  0  0  0
    4.1181    0.1340   16.1264 H   0  0  0  0  0  0
    1.6761    0.4727   14.3231 H   0  0  0  0  0  0
    2.7612    2.1144   16.7145 H   0  0  0  0  0  0
    1.2306    2.4678   15.8433 H   0  0  0  0  0  0
    0.1665    0.5815   16.7236 H   0  0  0  0  0  0
    1.7144   -0.1518   17.2647 H   0  0  0  0  0  0
    1.9105    2.0362   20.2061 H   0  0  0  0  0  0
    1.4893    2.2821   13.0234 H   0  0  0  0  0  0
    3.9859    4.0143   12.8359 H   0  0  0  0  0  0
    3.8656    2.0003   11.1156 H   0  0  0  0  0  0
    2.5521    2.9525   10.3445 H   0  0  0  0  0  0
    4.5841    3.2305    9.1589 H   0  0  0  0  0  0
    3.0908    5.1318    9.2637 H   0  0  0  0  0  0
    4.8161    5.6076    9.1092 H   0  0  0  0  0  0
    3.9825    5.7539   10.6937 H   0  0  0  0  0  0
    6.0798    2.6750   11.0629 H   0  0  0  0  0  0
    5.7505    4.2983   11.7581 H   0  0  0  0  0  0
    6.5840    4.1520   10.1736 H   0  0  0  0  0  0
    3.3579    6.1659   12.7013 H   0  0  0  0  0  0
    0.3875    6.3958   12.2526 H   0  0  0  0  0  0
    2.2452    8.3531   13.7693 H   0  0  0  0  0  0
    0.6669    7.8809   15.7217 H   0  0  0  0  0  0
   -0.0270    6.5482   14.7374 H   0  0  0  0  0  0
    0.5115    9.6184   12.4727 H   0  0  0  0  0  0
    0.2836    9.7688   14.2482 H   0  0  0  0  0  0
   -0.7719    8.6697   13.2971 H   0  0  0  0  0  0
    1.5580    5.7277   16.3698 H   0  0  0  0  0  0
    2.8448    6.7759   15.6826 H   0  0  0  0  0  0
    2.1509    5.4431   14.6983 H   0  0  0  0  0  0
   -0.3808    7.4385   10.5536 H   0  0  0  0  0  0
    1.7146    9.0660    9.1793 H   0  0  0  0  0  0
   -0.3858   11.8950    9.8380 H   0  0  0  0  0  0
    0.3416    8.6867    7.0085 H   0  0  0  0  0  0
   -0.8455    6.3746    8.5879 H   0  0  0  0  0  0
   -1.7270    7.8688    8.1223 H   0  0  0  0  0  0
    2.5180    7.5810    7.5369 H   0  0  0  0  0  0
    1.4266    6.5332    6.5685 H   0  0  0  0  0  0
    1.6211    6.2421    8.3304 H   0  0  0  0  0  0
   -2.2015    6.0325    6.5922 H   0  0  0  0  0  0
   -0.4511    5.8701    6.2226 H   0  0  0  0  0  0
   -1.3325    7.3644    5.7570 H   0  0  0  0  0  0
  1  2  1  0  0  0
  1128  1  0  0  0
  1129  1  0  0  0
  1130  1  0  0  0
  2  3  1  0  0  0
  2  5  1  0  0  0
  2131  1  0  0  0
  3  4  2  0  0  0
  3  9  1  0  0  0
  5  6  1  0  0  0
  5132  1  0  0  0
  5133  1  0  0  0
  6  7  1  0  0  0
  6134  1  0  0  0
  6135  1  0  0  0
  7  8  1  0  0  0
  8136  1  0  0  0
  8137  1  0  0  0
  8138  1  0  0  0
  9 10  1  0  0  0
  9139  1  0  0  0
 10 11  1  0  0  0
 10 13  1  0  0  0
 10140  1  0  0  0
 11 12  2  0  0  0
 11 17  1  0  0  0
 13 14  1  0  0  0
 13141  1  0  0  0
 13142  1  0  0  0
 14 15  1  0  0  0
 14 16  1  0  0  0
 14143  1  0  0  0
 15144  1  0  0  0
 15145  1  0  0  0
 15146  1  0  0  0
 16147  1  0  0  0
 16148  1  0  0  0
 16149  1  0  0  0
 17 18  1  0  0  0
 17150  1  0  0  0
 18 19  1  0  0  0
 18 21  1  0  0  0
 18151  1  0  0  0
 19 20  2  0  0  0
 19 22  1  0  0  0
 21152  1  0  0  0
 21153  1  0  0  0
 21154  1  0  0  0
 22 23  1  0  0  0
 22155  1  0  0  0
 23 24  1  0  0  0
 23 26  1  0  0  0
 23156  1  0  0  0
 24 25  2  0  0  0
 24 31  1  0  0  0
 26 27  1  0  0  0
 26157  1  0  0  0
 26158  1  0  0  0
 27 28  1  0  0  0
 27159  1  0  0  0
 27160  1  0  0  0
 28 29  2  0  0  0
 28 30  1  0  0  0
 30161  1  0  0  0
 31 32  1  0  0  0
 31162  1  0  0  0
 32 33  1  0  0  0
 32 35  1  0  0  0
 32163  1  0  0  0
 33 34  2  0  0  0
 33 39  1  0  0  0
 35 36  1  0  0  0
 35164  1  0  0  0
 35165  1  0  0  0
 36 37  1  0  0  0
 36 38  1  0  0  0
 36166  1  0  0  0
 37167  1  0  0  0
 37168  1  0  0  0
 37169  1  0  0  0
 38170  1  0  0  0
 38171  1  0  0  0
 38172  1  0  0  0
 39 40  1  0  0  0
 39173  1  0  0  0
 40 41  1  0  0  0
 40 43  1  0  0  0
 40174  1  0  0  0
 41 42  2  0  0  0
 41 51  1  0  0  0
 43 44  1  0  0  0
 43175  1  0  0  0
 43176  1  0  0  0
 44 45  2  0  0  0
 44 46  1  0  0  0
 45 47  1  0  0  0
 45177  1  0  0  0
 46 48  2  0  0  0
 46178  1  0  0  0
 47 49  2  0  0  0
 47179  1  0  0  0
 48 49  1  0  0  0
 48180  1  0  0  0
 49 50  1  0  0  0
 50181  1  0  0  0
 51 52  1  0  0  0
 51182  1  0  0  0
 52 53  1  0  0  0
 52183  1  0  0  0
 52184  1  0  0  0
 53 54  2  0  0  0
 53 55  1  0  0  0
 55 56  1  0  0  0
 55185  1  0  0  0
 56 57  1  0  0  0
 56 59  1  0  0  0
 56186  1  0  0  0
 57 58  2  0  0  0
 57 61  1  0  0  0
 59 60  1  0  0  0
 59187  1  0  0  0
 59188  1  0  0  0
 60189  1  0  0  0
 61 62  1  0  0  0
 61190  1  0  0  0
 62 63  1  0  0  0
 62 65  1  0  0  0
 62191  1  0  0  0
 63 64  2  0  0  0
 63 69  1  0  0  0
 65 66  1  0  0  0
 65192  1  0  0  0
 65193  1  0  0  0
 66 67  1  0  0  0
 66 68  2  0  0  0
 67194  1  0  0  0
 69 70  1  0  0  0
 69 75  1  0  0  0
 70 71  1  0  0  0
 70 73  1  0  0  0
 70195  1  0  0  0
 71 72  2  0  0  0
 71 76  1  0  0  0
 73 74  1  0  0  0
 73196  1  0  0  0
 73197  1  0  0  0
 74 75  1  0  0  0
 74198  1  0  0  0
 74199  1  0  0  0
 75200  1  0  0  0
 75201  1  0  0  0
 76 77  1  0  0  0
 76202  1  0  0  0
 77 78  1  0  0  0
 77 80  1  0  0  0
 77203  1  0  0  0
 78 79  2  0  0  0
 78 85  1  0  0  0
 80 81  1  0  0  0
 80204  1  0  0  0
 80205  1  0  0  0
 81 82  1  0  0  0
 81206  1  0  0  0
 81207  1  0  0  0
 82 83  2  0  0  0
 82 84  1  0  0  0
 84208  1  0  0  0
 84209  1  0  0  0
 85 86  1  0  0  0
 85210  1  0  0  0
 86 87  1  0  0  0
 86 89  1  0  0  0
 86211  1  0  0  0
 87 88  2  0  0  0
 87 94  1  0  0  0
 89 90  1  0  0  0
 89212  1  0  0  0
 89213  1  0  0  0
 90 91  1  0  0  0
 90214  1  0  0  0
 90215  1  0  0  0
 91 92  1  0  0  0
 91 93  2  0  0  0
 92216  1  0  0  0
 94 95  1  0  0  0
 94217  1  0  0  0
 95 96  1  0  0  0
 95 98  1  0  0  0
 95218  1  0  0  0
 96 97  2  0  0  0
 96103  1  0  0  0
 98 99  1  0  0  0
 98219  1  0  0  0
 98220  1  0  0  0
 99100  1  0  0  0
 99221  1  0  0  0
 99222  1  0  0  0
100101  1  0  0  0
100102  2  0  0  0
101223  1  0  0  0
103104  1  0  0  0
103224  1  0  0  0
104105  1  0  0  0
104107  1  0  0  0
104225  1  0  0  0
105106  2  0  0  0
105111  1  0  0  0
107108  1  0  0  0
107226  1  0  0  0
107227  1  0  0  0
108109  1  0  0  0
108110  1  0  0  0
108228  1  0  0  0
109229  1  0  0  0
109230  1  0  0  0
109231  1  0  0  0
110232  1  0  0  0
110233  1  0  0  0
110234  1  0  0  0
111112  1  0  0  0
111235  1  0  0  0
112113  1  0  0  0
112115  1  0  0  0
112236  1  0  0  0
113114  2  0  0  0
113119  1  0  0  0
115116  1  0  0  0
115117  1  0  0  0
115237  1  0  0  0
116118  1  0  0  0
116238  1  0  0  0
116239  1  0  0  0
117240  1  0  0  0
117241  1  0  0  0
117242  1  0  0  0
118243  1  0  0  0
118244  1  0  0  0
118245  1  0  0  0
119120  1  0  0  0
119246  1  0  0  0
120121  1  0  0  0
120123  1  0  0  0
120247  1  0  0  0
121122  1  0  0  0
121127  2  0  0  0
122248  1  0  0  0
123124  1  0  0  0
123125  1  0  0  0
123249  1  0  0  0
124126  1  0  0  0
124250  1  0  0  0
124251  1  0  0  0
125252  1  0  0  0
125253  1  0  0  0
125254  1  0  0  0
126255  1  0  0  0
126256  1  0  0  0
126257  1  0  0  0
M  CHG  1   1   1
M  END
> <s_m_source_file>
../2koh_ligand.sdf

> <i_m_source_file_index>
1

> <s_epik_input>
W0NIM11TW0NIMl1bQ0gyXVtDQEhdKFtOSDMrXSlDKD1PKVtOSF1bQ0BASF0oW0NIMl1bQ0hdKFtDSDNdKVtDSDNdKUMoPU8pW05IXVtDQEBIXShbQ0gzXSlDKD1PKVtOSF1bQ0BASF0oW0NIMl1bQ0gyXUMoPU8pW09IXSlDKD1PKVtOSF1bQ0BASF0oW0NIMl1bQ0hdKFtDSDNdKVtDSDNdKUMoPU8pW05IXVtDQEBIXShbQ0gyXWMxW2NIXVtjSF1jKFtPSF0pW2NIXVtjSF0xKUMoPU8pW05IXVtDSDJdQyg9TylbTkhdW0NAQEhdKFtDSDJdW09IXSlDKD1PKVtOSF1bQ0BASF0oW0NIMl1DKD1PKVtPSF0pQyg9TylOMltDQEBIXShbQ0gyXVtDSDJdW0NIMl0yKUMoPU8pW05IXVtDQEBIXShbQ0gyXVtDSDJdQyg9TylbTkgyXSlDKD1PKVtOSF1bQ0BASF0oW0NIMl1bQ0gyXUMoPU8pW09IXSlDKD1PKVtOSF1bQ0BASF0oW0NIMl1bQ0gyXUMoPU8pW09IXSlDKD1PKVtOSF1bQ0BASF0oW0NIMl1bQ0hdKFtDSDNdKVtDSDNdKUMoPU8pW05IXVtDQEBIXShbQ0BASF0oW0NIM10pW0NIMl1bQ0gzXSlDKD1PKVtOSF1bQ0BIXShDKD1PKVtPSF0pW0NAQEhdKFtDSDNdKVtDSDJdW0NIM10=

> <s_epik_cmdline>
J2VwaWtfYXBwJywgJy1pbWFlJywgJ2xpZ2FuZF9wcm8ubWFlJywgJy1vbWFlJywgJ2xpZ2FuZF9wcmVwLm1hZScsICctbXMnLCAnMScsICctcGgnLCAnNycsICctcGh0JywgJzAuNScsICctbnQn

> <s_epik_pKa_notes>
Molecule size exceeds maximum supported for generating protonation states

$$$$
