2kpl_ligand
                    3D
 Schrodinger Suite 2020-3.
195194  0  0  1  0            999 V2000
  131.3240   13.7970    3.3150 N   0  3  0  0  0  0
  131.9940   14.1920    2.0830 C   0  0  2  0  0  0
  131.1860   13.7080    0.8810 C   0  0  0  0  0  0
  130.7330   14.5140    0.0620 O   0  0  0  0  0  0
  133.4140   13.6110    2.0340 C   0  0  0  0  0  0
  134.3040   14.1590    0.9110 C   0  0  0  0  0  0
  134.6980   15.6300    1.1330 C   0  0  0  0  0  0
  133.5640   16.5760    1.0550 N   0  0  0  0  0  0
  133.2490   17.4780    2.0050 C   0  0  0  0  0  0
  133.9070   17.5000    3.1540 N   0  0  0  0  0  0
  132.2620   18.3420    1.7990 N   0  0  0  0  0  0
  131.0060   12.4040    0.7800 N   0  0  0  0  0  0
  130.2460   11.8120   -0.2850 C   0  0  2  0  0  0
  128.7640   11.7370    0.1060 C   0  0  0  0  0  0
  128.4310   11.6010    1.2920 O   0  0  0  0  0  0
  130.8520   10.4460   -0.5900 C   0  0  0  0  0  0
  131.3590    9.8410    0.5990 O   0  0  0  0  0  0
  127.8900   11.8490   -0.8750 N   0  0  0  0  0  0
  126.4740   11.9200   -0.6130 C   0  0  2  0  0  0
  125.7370   10.7530   -1.2920 C   0  0  0  0  0  0
  125.0950    9.9480   -0.6210 O   0  0  0  0  0  0
  125.9380   13.2820   -1.0900 C   0  0  0  0  0  0
  124.6460   13.5730   -0.5700 O   0  0  0  0  0  0
  125.8580   10.6310   -2.6080 N   0  0  0  0  0  0
  125.1720    9.5680   -3.3240 C   0  0  2  0  0  0
  125.8700    8.2260   -3.1570 C   0  0  0  0  0  0
  126.7210    7.8420   -3.9720 O   0  0  0  0  0  0
  124.9820    9.8820   -4.8200 C   0  0  0  0  0  0
  123.9970   10.9980   -5.1410 C   0  0  0  0  0  0
  122.5920   10.6900   -4.6240 C   0  0  0  0  0  0
  122.0390    9.4150   -5.1260 N   0  0  0  0  0  0
  120.8190    8.9460   -4.7880 C   0  0  0  0  0  0
  119.9540    9.7330   -4.1610 N   0  0  0  0  0  0
  120.4550    7.7160   -5.1270 N   0  0  0  0  0  0
  125.5360    7.5580   -2.0910 N   0  0  0  0  0  0
  125.9690    6.2300   -1.8320 C   0  0  2  0  0  0
  124.9910    5.5650   -0.8780 C   0  0  0  0  0  0
  124.8010    5.9960    0.2650 O   0  0  0  0  0  0
  127.4580    6.1340   -1.3390 C   0  0  2  0  0  0
  127.8530    4.7660   -1.1260 O   0  0  0  0  0  0
  127.7380    6.9400   -0.0960 C   0  0  0  0  0  0
  124.3150    4.5780   -1.3870 N   0  0  0  0  0  0
  123.3350    3.8530   -0.6270 C   0  0  2  0  0  0
  123.9600    2.9310    0.4110 C   0  0  0  0  0  0
  124.7920    2.0830    0.0860 O   0  0  0  0  0  0
  122.3130    3.1700   -1.5400 C   0  0  0  0  0  0
  122.8330    2.5120   -2.7960 C   0  0  0  0  0  0
  121.6550    2.0710   -3.6600 C   0  0  0  0  0  0
  120.6980    3.1800   -3.8830 N   0  0  0  0  0  0
  119.5080    3.0900   -4.5070 C   0  0  0  0  0  0
  119.1500    1.9750   -5.1360 N   0  0  0  0  0  0
  118.6820    4.1180   -4.4970 N   0  0  0  0  0  0
  123.5360    3.1030    1.6660 N   0  0  0  0  0  0
  124.1630    2.4340    2.8050 C   0  0  2  0  0  0
  123.5410    1.0940    3.0880 C   0  0  0  0  0  0
  122.3270    0.9290    2.9730 O   0  0  0  0  0  0
  124.0360    3.2960    4.0560 C   0  0  0  0  0  0
  124.5570    4.7020    3.8970 C   0  0  0  0  0  0
  126.0290    4.7350    3.5330 C   0  0  0  0  0  0
  126.4850    6.1060    3.3310 N   0  0  0  0  0  0
  127.7600    6.5170    3.4010 C   0  0  0  0  0  0
  128.7340    5.6560    3.6640 N   0  0  0  0  0  0
  128.0520    7.7850    3.1980 N   0  0  0  0  0  0
  124.3790    0.1620    3.4720 N   0  0  0  0  0  0
  123.9760   -1.1760    3.8180 C   0  0  2  0  0  0
  123.3730   -1.1670    5.2110 C   0  0  0  0  0  0
  124.0650   -0.9190    6.2070 O   0  0  0  0  0  0
  125.1930   -2.0930    3.8140 C   0  0  0  0  0  0
  124.8790   -3.5690    4.0000 C   0  0  0  0  0  0
  124.2570   -4.1900    2.7820 C   0  0  0  0  0  0
  125.0020   -4.4500    1.8140 O   0  0  0  0  0  0
  123.0370   -4.4740    2.7700 O   0  0  0  0  0  0
  122.1190   -1.3810    5.2710 N   0  0  0  0  0  0
  121.4080   -1.4620    6.4960 C   0  0  2  0  0  0
  120.8750   -2.8930    6.5960 C   0  0  0  0  0  0
  119.8260   -3.2110    6.0670 O   0  0  0  0  0  0
  120.2330   -0.4370    6.4940 C   0  0  2  0  0  0
  120.7260    0.8400    6.0080 O   0  0  0  0  0  0
  119.6490   -0.2460    7.9110 C   0  0  0  0  0  0
  121.6560   -3.7720    7.1620 N   0  0  0  0  0  0
  121.2270   -5.1460    7.3170 C   0  0  2  0  0  0
  120.2440   -5.2730    8.4670 C   0  0  0  0  0  0
  120.5850   -5.0390    9.6300 O   0  0  0  0  0  0
  122.4100   -6.1430    7.4390 C   0  0  0  0  0  0
  123.3500   -5.9800    8.6260 C   0  0  0  0  0  0
  124.1740   -4.7020    8.5780 C   0  0  0  0  0  0
  124.4880   -4.1870    7.5070 O   0  0  0  0  0  0
  124.5380   -4.1880    9.7140 N   0  0  0  0  0  0
  119.0270   -5.6120    8.1530 N   0  0  0  0  0  0
  118.0020   -5.6570    9.1450 C   0  0  2  0  0  0
  117.4680   -7.0460    9.2880 C   0  0  0  0  0  0
  116.8990   -7.3680   10.3530 O   0  0  0  0  0  0
  116.8440   -4.6750    8.8670 C   0  0  0  0  0  0
  117.3590   -3.2840    8.7380 C   0  0  0  0  0  0
  116.0850   -5.0400    7.6240 C   0  0  0  0  0  0
  117.6400   -7.8350    8.3530 O   0  0  0  0  0  0
  130.3094   14.2216    3.3329 H   0  0  0  0  0  0
  131.8935   14.1715    4.1784 H   0  0  0  0  0  0
  131.2633   12.6998    3.3638 H   0  0  0  0  0  0
  132.0377   15.2910    2.0973 H   0  0  0  0  0  0
  133.9322   13.8290    2.9795 H   0  0  0  0  0  0
  133.3598   12.5221    1.8882 H   0  0  0  0  0  0
  135.2290   13.5664    0.8541 H   0  0  0  0  0  0
  133.7673   14.0939   -0.0470 H   0  0  0  0  0  0
  135.1462   15.7429    2.1312 H   0  0  0  0  0  0
  135.4269   15.9340    0.3673 H   0  0  0  0  0  0
  132.9062   16.5745    0.1734 H   0  0  0  0  0  0
  134.7259   16.7876    3.3325 H   0  0  0  0  0  0
  131.7105   18.3303    0.8473 H   0  0  0  0  0  0
  131.9959   19.0695    2.5800 H   0  0  0  0  0  0
  131.4634   11.7655    1.5502 H   0  0  0  0  0  0
  130.3349   12.4628   -1.1673 H   0  0  0  0  0  0
  130.0807    9.7906   -1.0208 H   0  0  0  0  0  0
  131.6768   10.5629   -1.3084 H   0  0  0  0  0  0
  131.8309    8.8485    0.5529 H   0  0  0  0  0  0
  128.2605   11.8881   -1.9100 H   0  0  0  0  0  0
  126.3640   11.8247    0.4773 H   0  0  0  0  0  0
  126.6214   14.0797   -0.7635 H   0  0  0  0  0  0
  125.8691   13.2849   -2.1878 H   0  0  0  0  0  0
  124.1470   14.5172   -0.8334 H   0  0  0  0  0  0
  126.4871   11.3471   -3.1571 H   0  0  0  0  0  0
  124.1938    9.5393   -2.8218 H   0  0  0  0  0  0
  125.9450   10.1862   -5.2560 H   0  0  0  0  0  0
  124.6116    8.9855   -5.3387 H   0  0  0  0  0  0
  124.3373   11.9333   -4.6726 H   0  0  0  0  0  0
  123.9391   11.1337   -6.2311 H   0  0  0  0  0  0
  122.6107   10.6283   -3.5259 H   0  0  0  0  0  0
  121.9035   11.4897   -4.9346 H   0  0  0  0  0  0
  122.6297    8.7922   -5.8138 H   0  0  0  0  0  0
  120.2463   10.7544   -3.8758 H   0  0  0  0  0  0
  118.9446    9.3640   -3.9264 H   0  0  0  0  0  0
  121.1649    7.0560   -5.6470 H   0  0  0  0  0  0
  124.8838    8.0741   -1.3711 H   0  0  0  0  0  0
  125.9039    5.7570   -2.8230 H   0  0  0  0  0  0
  128.1241    6.5153   -2.1270 H   0  0  0  0  0  0
  127.7232    4.0248   -1.9283 H   0  0  0  0  0  0
  127.4356    7.9847   -0.2606 H   0  0  0  0  0  0
  128.8135    6.9011    0.1317 H   0  0  0  0  0  0
  127.1692    6.5222    0.7477 H   0  0  0  0  0  0
  124.5127    4.3033   -2.4336 H   0  0  0  0  0  0
  122.8144    4.6388   -0.0600 H   0  0  0  0  0  0
  121.8001    2.3717   -0.9836 H   0  0  0  0  0  0
  121.5751    3.9103   -1.8828 H   0  0  0  0  0  0
  123.4521    3.2284   -3.3559 H   0  0  0  0  0  0
  123.4401    1.6352   -2.5263 H   0  0  0  0  0  0
  122.0252    1.7295   -4.6379 H   0  0  0  0  0  0
  121.1226    1.2475   -3.1615 H   0  0  0  0  0  0
  120.9356    4.1922   -3.5237 H   0  0  0  0  0  0
  119.8295    1.1101   -5.1520 H   0  0  0  0  0  0
  118.1742    1.9172   -5.6405 H   0  0  0  0  0  0
  118.9659    5.0466   -3.9802 H   0  0  0  0  0  0
  122.6818    3.7774    1.8262 H   0  0  0  0  0  0
  125.2110    2.2885    2.5042 H   0  0  0  0  0  0
  122.9763    3.3760    4.3401 H   0  0  0  0  0  0
  124.6022    2.8344    4.8784 H   0  0  0  0  0  0
  123.9980    5.2120    3.0986 H   0  0  0  0  0  0
  124.4284    5.2498    4.8422 H   0  0  0  0  0  0
  126.6176    4.2827    4.3447 H   0  0  0  0  0  0
  126.1898    4.1685    2.6039 H   0  0  0  0  0  0
  125.7583    6.8990    3.1006 H   0  0  0  0  0  0
  128.4990    4.5951    3.8348 H   0  0  0  0  0  0
  129.7768    6.0029    3.7113 H   0  0  0  0  0  0
  127.2504    8.5058    2.9793 H   0  0  0  0  0  0
  125.4401    0.4473    3.5229 H   0  0  0  0  0  0
  123.2395   -1.4874    3.0626 H   0  0  0  0  0  0
  125.7195   -1.9993    2.8527 H   0  0  0  0  0  0
  125.8702   -1.8071    4.6323 H   0  0  0  0  0  0
  125.8075   -4.1166    4.2192 H   0  0  0  0  0  0
  124.1749   -3.6916    4.8362 H   0  0  0  0  0  0
  122.5869   -4.9287    1.8752 H   0  0  0  0  0  0
  121.5863   -1.5051    4.3166 H   0  0  0  0  0  0
  122.1204   -1.2298    7.3013 H   0  0  0  0  0  0
  119.4366   -0.7625    5.8085 H   0  0  0  0  0  0
  121.1821    0.9095    5.0094 H   0  0  0  0  0  0
  119.2735   -1.2096    8.2857 H   0  0  0  0  0  0
  118.8231    0.4795    7.8724 H   0  0  0  0  0  0
  120.4346    0.1281    8.5840 H   0  0  0  0  0  0
  122.6477   -3.4614    7.5227 H   0  0  0  0  0  0
  120.6972   -5.3566    6.3762 H   0  0  0  0  0  0
  122.0189   -7.1681    7.5176 H   0  0  0  0  0  0
  123.0508   -6.0623    6.5486 H   0  0  0  0  0  0
  122.7646   -5.9590    9.5571 H   0  0  0  0  0  0
  124.0543   -6.8245    8.6547 H   0  0  0  0  0  0
  124.2418   -4.6715   10.6566 H   0  0  0  0  0  0
  125.1425   -3.2692    9.7335 H   0  0  0  0  0  0
  118.7930   -5.8656    7.1085 H   0  0  0  0  0  0
  118.5420   -5.3639   10.0574 H   0  0  0  0  0  0
  116.4994   -8.3853   10.4773 H   0  0  0  0  0  0
  116.1391   -4.7089    9.7108 H   0  0  0  0  0  0
  117.9157   -3.0134    9.6473 H   0  0  0  0  0  0
  116.5149   -2.5914    8.6051 H   0  0  0  0  0  0
  118.0269   -3.2197    7.8663 H   0  0  0  0  0  0
  115.7030   -6.0674    7.7161 H   0  0  0  0  0  0
  116.7540   -4.9741    6.7533 H   0  0  0  0  0  0
  115.2420   -4.3458    7.4921 H   0  0  0  0  0  0
  1  2  1  0  0  0
  1 97  1  0  0  0
  1 98  1  0  0  0
  1 99  1  0  0  0
  2  3  1  0  0  0
  2  5  1  0  0  0
  2100  1  0  0  0
  3  4  2  0  0  0
  3 12  1  0  0  0
  5  6  1  0  0  0
  5101  1  0  0  0
  5102  1  0  0  0
  6  7  1  0  0  0
  6103  1  0  0  0
  6104  1  0  0  0
  7  8  1  0  0  0
  7105  1  0  0  0
  7106  1  0  0  0
  8  9  1  0  0  0
  8107  1  0  0  0
  9 10  2  0  0  0
  9 11  1  0  0  0
 10108  1  0  0  0
 11109  1  0  0  0
 11110  1  0  0  0
 12 13  1  0  0  0
 12111  1  0  0  0
 13 14  1  0  0  0
 13 16  1  0  0  0
 13112  1  0  0  0
 14 15  2  0  0  0
 14 18  1  0  0  0
 16 17  1  0  0  0
 16113  1  0  0  0
 16114  1  0  0  0
 17115  1  0  0  0
 18 19  1  0  0  0
 18116  1  0  0  0
 19 20  1  0  0  0
 19 22  1  0  0  0
 19117  1  0  0  0
 20 21  2  0  0  0
 20 24  1  0  0  0
 22 23  1  0  0  0
 22118  1  0  0  0
 22119  1  0  0  0
 23120  1  0  0  0
 24 25  1  0  0  0
 24121  1  0  0  0
 25 26  1  0  0  0
 25 28  1  0  0  0
 25122  1  0  0  0
 26 27  2  0  0  0
 26 35  1  0  0  0
 28 29  1  0  0  0
 28123  1  0  0  0
 28124  1  0  0  0
 29 30  1  0  0  0
 29125  1  0  0  0
 29126  1  0  0  0
 30 31  1  0  0  0
 30127  1  0  0  0
 30128  1  0  0  0
 31 32  1  0  0  0
 31129  1  0  0  0
 32 33  1  0  0  0
 32 34  2  0  0  0
 33130  1  0  0  0
 33131  1  0  0  0
 34132  1  0  0  0
 35 36  1  0  0  0
 35133  1  0  0  0
 36 37  1  0  0  0
 36 39  1  0  0  0
 36134  1  0  0  0
 37 38  2  0  0  0
 37 42  1  0  0  0
 39 40  1  0  0  0
 39 41  1  0  0  0
 39135  1  0  0  0
 40136  1  0  0  0
 41137  1  0  0  0
 41138  1  0  0  0
 41139  1  0  0  0
 42 43  1  0  0  0
 42140  1  0  0  0
 43 44  1  0  0  0
 43 46  1  0  0  0
 43141  1  0  0  0
 44 45  2  0  0  0
 44 53  1  0  0  0
 46 47  1  0  0  0
 46142  1  0  0  0
 46143  1  0  0  0
 47 48  1  0  0  0
 47144  1  0  0  0
 47145  1  0  0  0
 48 49  1  0  0  0
 48146  1  0  0  0
 48147  1  0  0  0
 49 50  1  0  0  0
 49148  1  0  0  0
 50 51  1  0  0  0
 50 52  2  0  0  0
 51149  1  0  0  0
 51150  1  0  0  0
 52151  1  0  0  0
 53 54  1  0  0  0
 53152  1  0  0  0
 54 55  1  0  0  0
 54 57  1  0  0  0
 54153  1  0  0  0
 55 56  2  0  0  0
 55 64  1  0  0  0
 57 58  1  0  0  0
 57154  1  0  0  0
 57155  1  0  0  0
 58 59  1  0  0  0
 58156  1  0  0  0
 58157  1  0  0  0
 59 60  1  0  0  0
 59158  1  0  0  0
 59159  1  0  0  0
 60 61  1  0  0  0
 60160  1  0  0  0
 61 62  1  0  0  0
 61 63  2  0  0  0
 62161  1  0  0  0
 62162  1  0  0  0
 63163  1  0  0  0
 64 65  1  0  0  0
 64164  1  0  0  0
 65 66  1  0  0  0
 65 68  1  0  0  0
 65165  1  0  0  0
 66 67  2  0  0  0
 66 73  1  0  0  0
 68 69  1  0  0  0
 68166  1  0  0  0
 68167  1  0  0  0
 69 70  1  0  0  0
 69168  1  0  0  0
 69169  1  0  0  0
 70 71  2  0  0  0
 70 72  1  0  0  0
 72170  1  0  0  0
 73 74  1  0  0  0
 73171  1  0  0  0
 74 75  1  0  0  0
 74 77  1  0  0  0
 74172  1  0  0  0
 75 76  2  0  0  0
 75 80  1  0  0  0
 77 78  1  0  0  0
 77 79  1  0  0  0
 77173  1  0  0  0
 78174  1  0  0  0
 79175  1  0  0  0
 79176  1  0  0  0
 79177  1  0  0  0
 80 81  1  0  0  0
 80178  1  0  0  0
 81 82  1  0  0  0
 81 84  1  0  0  0
 81179  1  0  0  0
 82 83  2  0  0  0
 82 89  1  0  0  0
 84 85  1  0  0  0
 84180  1  0  0  0
 84181  1  0  0  0
 85 86  1  0  0  0
 85182  1  0  0  0
 85183  1  0  0  0
 86 87  2  0  0  0
 86 88  1  0  0  0
 88184  1  0  0  0
 88185  1  0  0  0
 89 90  1  0  0  0
 89186  1  0  0  0
 90 91  1  0  0  0
 90 93  1  0  0  0
 90187  1  0  0  0
 91 92  1  0  0  0
 91 96  2  0  0  0
 92188  1  0  0  0
 93 94  1  0  0  0
 93 95  1  0  0  0
 93189  1  0  0  0
 94190  1  0  0  0
 94191  1  0  0  0
 94192  1  0  0  0
 95193  1  0  0  0
 95194  1  0  0  0
 95195  1  0  0  0
M  CHG  1   1   1
M  END
> <s_m_source_file>
../2kpl_ligand.sdf

> <i_m_source_file_index>
1

> <s_epik_input>
W0hdL049QyhbTkgyXSlcW05IXVtDSDJdW0NIMl1bQ0gyXVtDQEhdKFtOSDMrXSlDKD1PKVtOSF1bQ0BASF0oW0NIMl1bT0hdKUMoPU8pW05IXVtDQEBIXShbQ0gyXVtPSF0pQyg9TylbTkhdW0NAQEhdKFtDSDJdW0NIMl1bQ0gyXVtOSF0vQyhbTkgyXSk9TlxbSF0pQyg9TylbTkhdW0NAQEhdKFtDQEhdKFtPSF0pW0NIM10pQyg9TylbTkhdW0NAQEhdKFtDSDJdW0NIMl1bQ0gyXVtOSF0vQyhbTkgyXSk9TlxbSF0pQyg9TylbTkhdW0NAQEhdKFtDSDJdW0NIMl1bQ0gyXVtOSF0vQyhbTkgyXSk9TlxbSF0pQyg9TylbTkhdW0NAQEhdKFtDSDJdW0NIMl1DKD1PKVtPSF0pQyg9TylbTkhdW0NAQEhdKFtDQEhdKFtPSF0pW0NIM10pQyg9TylbTkhdW0NAQEhdKFtDSDJdW0NIMl1DKD1PKVtOSDJdKUMoPU8pW05IXVtDQEhdKEMoPU8pW09IXSlbQ0hdKFtDSDNdKVtDSDNd

> <s_epik_cmdline>
J2VwaWtfYXBwJywgJy1pbWFlJywgJ2xpZ2FuZF9wcm8ubWFlJywgJy1vbWFlJywgJ2xpZ2FuZF9wcmVwLm1hZScsICctbXMnLCAnMScsICctcGgnLCAnNycsICctcGh0JywgJzAuNScsICctbnQn

> <s_epik_pKa_notes>
Molecule size exceeds maximum supported for generating protonation states

> <s_epik_Chemistry_Notes>
This compound has an imine and may undergo hydrolysis.

$$$$
