2krd_ligand
                    3D
 Schrodinger Suite 2020-3.
261260  0  0  1  0            999 V2000
   63.7500    4.3720    6.3960 N   0  3  0  0  0  0
   63.8210    3.1640    5.5160 C   0  0  2  0  0  0
   64.9630    3.3190    4.4880 C   0  0  0  0  0  0
   66.1230    3.4400    4.8740 O   0  0  0  0  0  0
   62.4500    2.9340    4.8510 C   0  0  0  0  0  0
   61.5710    2.0980    5.7970 C   0  0  0  0  0  0
   60.1360    2.0160    5.2680 C   0  0  0  0  0  0
   59.4330    3.2670    5.5410 N   0  0  0  0  0  0
   58.1110    3.3510    5.5450 C   0  0  0  0  0  0
   57.3880    2.3120    5.2750 N   0  0  0  0  0  0
   57.5440    4.4700    5.8400 N   0  0  0  0  0  0
   64.6370    3.3010    3.1880 N   0  0  0  0  0  0
   65.6640    3.4140    2.1360 C   0  0  2  0  0  0
   66.3880    4.7640    2.2020 C   0  0  0  0  0  0
   67.6080    4.8290    2.0450 O   0  0  0  0  0  0
   65.0390    3.2040    0.7390 C   0  0  2  0  0  0
   66.1120    3.3660   -0.3570 C   0  0  0  0  0  0
   63.9050    4.2090    0.5040 C   0  0  0  0  0  0
   65.5730    2.8390   -1.6930 C   0  0  0  0  0  0
   65.6220    5.8300    2.4500 N   0  0  0  0  0  0
   66.1710    7.1880    2.5520 C   0  0  2  0  0  0
   65.5820    7.9260    3.7650 C   0  0  0  0  0  0
   65.3300    7.3180    4.8050 O   0  0  0  0  0  0
   65.8930    7.9760    1.2630 C   0  0  0  0  0  0
   66.0430    7.1200    0.1330 O   0  0  0  0  0  0
   65.3290    9.2330    3.6090 N   0  0  0  0  0  0
   64.7490   10.0550    4.6810 C   0  0  2  0  0  0
   63.4170    9.4700    5.1560 C   0  0  0  0  0  0
   63.0060    9.6830    6.3000 O   0  0  0  0  0  0
   64.5350   11.4900    4.1840 C   0  0  0  0  0  0
   62.7640    8.7220    4.2650 N   0  0  0  0  0  0
   61.4820    8.0680    4.5520 C   0  0  2  0  0  0
   60.2960    9.0250    4.3740 C   0  0  0  0  0  0
   59.6120    9.3820    5.3360 O   0  0  0  0  0  0
   61.4830    7.4210    5.9550 C   0  0  0  0  0  0
   60.6470    6.1470    5.9610 C   0  0  0  0  0  0
   59.5540    6.1720    5.4220 O   0  0  0  0  0  0
   61.1130    5.1630    6.5040 O   0  0  0  0  0  0
   60.0330    9.3930    3.1140 N   0  0  0  0  0  0
   58.9110   10.2710    2.7690 C   0  0  2  0  0  0
   57.5660    9.6400    3.1530 C   0  0  0  0  0  0
   56.5560   10.3350    3.2860 O   0  0  0  0  0  0
   58.9280   10.6030    1.2730 C   0  0  0  0  0  0
   57.5630    8.3160    3.3000 N   0  0  0  0  0  0
   56.3520    7.5650    3.6260 C   0  0  2  0  0  0
   55.7530    7.9450    4.9720 C   0  0  0  0  0  0
   54.5360    7.8930    5.1500 O   0  0  0  0  0  0
   56.5560    6.0600    3.4930 C   0  0  0  0  0  0
   56.4640    5.6910    2.0120 C   0  0  0  0  0  0
   56.5960    3.9020    1.8000 S   0  0  0  0  0  0
   55.8850    3.8390    0.1340 C   0  0  0  0  0  0
   56.5960    8.3040    5.9190 N   0  0  0  0  0  0
   56.1160    8.6980    7.2370 C   0  0  2  0  0  0
   55.2000    9.9300    7.1080 C   0  0  0  0  0  0
   54.1440    9.9980    7.7390 O   0  0  0  0  0  0
   57.3120    9.0200    8.1430 C   0  0  0  0  0  0
   58.0110    7.7180    8.5510 C   0  0  0  0  0  0
   59.4680    8.1010    9.5540 S   0  0  0  0  0  0
   58.5930    8.6770   11.0270 C   0  0  0  0  0  0
   55.5950   10.8640    6.2340 N   0  0  0  0  0  0
   54.8000   12.0740    5.9310 C   0  0  2  0  0  0
   53.7610   11.8260    4.8250 C   0  0  0  0  0  0
   52.9580   12.7060    4.5150 O   0  0  0  0  0  0
   55.7290   13.2160    5.5120 C   0  0  0  0  0  0
   56.8170   13.4110    6.5770 C   0  0  0  0  0  0
   58.1730   13.0160    6.0130 C   0  0  0  0  0  0
   58.3920   11.8550    5.6790 O   0  0  0  0  0  0
   59.0970   13.9170    5.8770 N   0  0  0  0  0  0
   53.9160   10.7100    4.1230 N   0  0  0  0  0  0
   53.1440   10.4140    2.9080 C   0  0  2  0  0  0
   51.6260   10.4020    3.1040 C   0  0  0  0  0  0
   50.8810   10.5310    2.1280 O   0  0  0  0  0  0
   53.5790    9.0850    2.3240 C   0  0  0  0  0  0
   51.1630   10.1580    4.3240 N   0  0  0  0  0  0
   49.7200   10.0080    4.5530 C   0  0  2  0  0  0
   48.9790   11.2810    4.1740 C   0  0  0  0  0  0
   47.9930   11.2310    3.4430 O   0  0  0  0  0  0
   49.4370    9.6350    6.0140 C   0  0  0  0  0  0
   49.9660    8.2190    6.2880 C   0  0  0  0  0  0
   49.7830    7.8630    7.7650 C   0  0  0  0  0  0
   49.2230    7.2070    5.4070 C   0  0  0  0  0  0
   49.5630   12.4140    4.5390 N   0  0  0  0  0  0
   49.0730   13.7400    4.1410 C   0  0  2  0  0  0
   47.5770   13.9660    4.4800 C   0  0  0  0  0  0
   47.2510   14.8250    5.3020 O   0  0  0  0  0  0
   49.3470   13.9700    2.6390 C   0  0  0  0  0  0
   50.8670   14.1090    2.3960 C   0  0  0  0  0  0
   51.1790   13.9810    0.8930 C   0  0  0  0  0  0
   51.3530   15.4790    2.8960 C   0  0  0  0  0  0
   46.6810   13.1910    3.8520 N   0  0  0  0  0  0
   45.2300   13.3110    4.0930 C   0  0  0  0  0  0
   44.6260   11.9780    4.5360 C   0  0  0  0  0  0
   45.1120   10.9120    4.1560 O   0  0  0  0  0  0
   43.5960   12.0430    5.3890 N   0  0  0  0  0  0
   42.9870   10.8280    5.9390 C   0  0  2  0  0  0
   41.5140   11.0190    6.3330 C   0  0  0  0  0  0
   41.0760   12.1240    6.6610 O   0  0  0  0  0  0
   43.7890   10.3480    7.1490 C   0  0  0  0  0  0
   40.7900    9.8970    6.3630 N   0  0  0  0  0  0
   39.3870    9.8350    6.7910 C   0  0  2  0  0  0
   39.1670    8.7920    7.8880 C   0  0  0  0  0  0
   39.9420    7.8440    8.0230 O   0  0  0  0  0  0
   38.4450    9.5470    5.6120 C   0  0  0  0  0  0
   38.0170   10.8460    4.9230 C   0  0  0  0  0  0
   37.1060   10.5030    3.7370 C   0  0  0  0  0  0
   36.2860   11.6570    3.3650 N   0  0  0  0  0  0
   36.7700   12.7210    2.7450 C   0  0  0  0  0  0
   38.0220   12.7880    2.4280 N   0  0  0  0  0  0
   35.9850   13.7010    2.4600 N   0  0  0  0  0  0
   38.0850    8.9880    8.6540 N   0  0  0  0  0  0
   37.6750    8.0960    9.7520 C   0  0  2  0  0  0
   38.1710    8.6080   11.0980 C   0  0  0  0  0  0
   37.4460    8.5570   12.0900 O   0  0  0  0  0  0
   38.1190    6.6400    9.5170 C   0  0  0  0  0  0
   39.3860    9.1520   11.1020 N   0  0  0  0  0  0
   39.9960    9.7410   12.3010 C   0  0  2  0  0  0
   41.3500   10.3890   11.9690 C   0  0  0  0  0  0
   42.1060   10.6550   12.8910 O   0  0  0  0  0  0
   40.1460    8.6880   13.4280 C   0  0  0  0  0  0
   39.0930    8.9280   14.5300 C   0  0  0  0  0  0
   39.3850   10.2500   15.2640 C   0  0  0  0  0  0
   38.3170   10.4840   16.3390 C   0  0  0  0  0  0
   38.6110   11.7490   17.0730 N   0  3  0  0  0  0
   41.6050   10.6190   10.7970 O   0  0  0  0  0  0
   64.7281    4.5373    6.8714 H   0  0  0  0  0  0
   62.9867    4.2156    7.1725 H   0  0  0  0  0  0
   63.4830    5.2511    5.7911 H   0  0  0  0  0  0
   64.0523    2.2903    6.1430 H   0  0  0  0  0  0
   61.9692    3.9042    4.6571 H   0  0  0  0  0  0
   62.5887    2.3972    3.9010 H   0  0  0  0  0  0
   61.9808    1.0801    5.8745 H   0  0  0  0  0  0
   61.5574    2.5646    6.7930 H   0  0  0  0  0  0
   60.1550    1.8400    4.1823 H   0  0  0  0  0  0
   59.6089    1.1879    5.7645 H   0  0  0  0  0  0
   60.0033    4.1834    5.7532 H   0  0  0  0  0  0
   57.8709    1.3563    5.0231 H   0  0  0  0  0  0
   56.2906    2.3846    5.2975 H   0  0  0  0  0  0
   58.1575    5.3537    6.0696 H   0  0  0  0  0  0
   63.5768    3.1992    2.9130 H   0  0  0  0  0  0
   66.3869    2.6139    2.3534 H   0  0  0  0  0  0
   64.6225    2.1871    0.6903 H   0  0  0  0  0  0
   66.3701    4.4300   -0.4630 H   0  0  0  0  0  0
   67.0108    2.7968   -0.0772 H   0  0  0  0  0  0
   63.1419    4.0905    1.2873 H   0  0  0  0  0  0
   63.4509    4.0257   -0.4810 H   0  0  0  0  0  0
   64.3087    5.2317    0.5371 H   0  0  0  0  0  0
   66.3419    2.9569   -2.4707 H   0  0  0  0  0  0
   64.6750    3.4077   -1.9760 H   0  0  0  0  0  0
   65.3156    1.7745   -1.5902 H   0  0  0  0  0  0
   64.5426    5.6620    2.5793 H   0  0  0  0  0  0
   67.2549    7.0594    2.6883 H   0  0  0  0  0  0
   64.8660    8.3693    1.2880 H   0  0  0  0  0  0
   66.6039    8.8117    1.1836 H   0  0  0  0  0  0
   65.8817    7.5145   -0.8811 H   0  0  0  0  0  0
   65.5711    9.6877    2.6371 H   0  0  0  0  0  0
   65.4769   10.0339    5.5054 H   0  0  0  0  0  0
   65.4943   11.9070    3.8435 H   0  0  0  0  0  0
   64.1375   12.1065    5.0037 H   0  0  0  0  0  0
   63.8198   11.4857    3.3483 H   0  0  0  0  0  0
   63.2311    8.6064    3.2758 H   0  0  0  0  0  0
   61.4029    7.2817    3.7869 H   0  0  0  0  0  0
   62.5148    7.1706    6.2425 H   0  0  0  0  0  0
   61.0602    8.1272    6.6848 H   0  0  0  0  0  0
   58.9263    5.2688    5.4092 H   0  0  0  0  0  0
   60.6958    9.0111    2.3235 H   0  0  0  0  0  0
   59.0706   11.1828    3.3632 H   0  0  0  0  0  0
   59.8956   11.0544    1.0086 H   0  0  0  0  0  0
   58.1183   11.3120    1.0455 H   0  0  0  0  0  0
   58.7823    9.6809    0.6911 H   0  0  0  0  0  0
   58.5186    7.7877    3.1667 H   0  0  0  0  0  0
   55.6407    7.8910    2.8528 H   0  0  0  0  0  0
   57.5457    5.7878    3.8884 H   0  0  0  0  0  0
   55.7762    5.5326    4.0619 H   0  0  0  0  0  0
   55.4979    6.0293    1.6092 H   0  0  0  0  0  0
   57.2819    6.1785    1.4611 H   0  0  0  0  0  0
   55.8640    2.7965   -0.2165 H   0  0  0  0  0  0
   56.4991    4.4435   -0.5498 H   0  0  0  0  0  0
   54.8605    4.2388    0.1572 H   0  0  0  0  0  0
   57.6748    8.3037    5.7040 H   0  0  0  0  0  0
   55.5544    7.8408    7.6368 H   0  0  0  0  0  0
   58.0213    9.6617    7.5997 H   0  0  0  0  0  0
   56.9592    9.5440    9.0436 H   0  0  0  0  0  0
   57.3169    7.0970    9.1363 H   0  0  0  0  0  0
   58.3215    7.1703    7.6490 H   0  0  0  0  0  0
   59.3230    8.9721   11.7952 H   0  0  0  0  0  0
   57.9580    7.8675   11.4163 H   0  0  0  0  0  0
   57.9655    9.5419   10.7660 H   0  0  0  0  0  0
   56.5596   10.6996    5.7315 H   0  0  0  0  0  0
   54.2753   12.3160    6.8670 H   0  0  0  0  0  0
   56.2000   12.9708    4.5486 H   0  0  0  0  0  0
   55.1467   14.1437    5.4099 H   0  0  0  0  0  0
   56.8458   14.4673    6.8826 H   0  0  0  0  0  0
   56.5914   12.7824    7.4511 H   0  0  0  0  0  0
   58.8996   14.9568    6.1766 H   0  0  0  0  0  0
   60.0776   13.6409    5.4621 H   0  0  0  0  0  0
   54.6630    9.9903    4.4890 H   0  0  0  0  0  0
   53.3940   11.2540    2.2432 H   0  0  0  0  0  0
   54.6696    9.0869    2.1805 H   0  0  0  0  0  0
   53.0820    8.9300    1.3550 H   0  0  0  0  0  0
   53.3012    8.2734    3.0126 H   0  0  0  0  0  0
   51.8657   10.0682    5.1655 H   0  0  0  0  0  0
   49.3946    9.1924    3.8905 H   0  0  0  0  0  0
   49.9407   10.3515    6.6795 H   0  0  0  0  0  0
   48.3527    9.6648    6.1966 H   0  0  0  0  0  0
   51.0395    8.1836    6.0504 H   0  0  0  0  0  0
   50.3193    8.5943    8.3876 H   0  0  0  0  0  0
   50.1858    6.8567    7.9522 H   0  0  0  0  0  0
   48.7124    7.8822    8.0168 H   0  0  0  0  0  0
   49.3609    7.4718    4.3483 H   0  0  0  0  0  0
   48.1509    7.2245    5.6528 H   0  0  0  0  0  0
   49.6243    6.1990    5.5881 H   0  0  0  0  0  0
   50.4582   12.3257    5.1721 H   0  0  0  0  0  0
   49.6606   14.4383    4.7551 H   0  0  0  0  0  0
   48.9642   13.1157    2.0614 H   0  0  0  0  0  0
   48.8418   14.8903    2.3108 H   0  0  0  0  0  0
   51.3889   13.3117    2.9454 H   0  0  0  0  0  0
   50.8335   13.0022    0.5289 H   0  0  0  0  0  0
   52.2640   14.0688    0.7350 H   0  0  0  0  0  0
   50.6623   14.7805    0.3419 H   0  0  0  0  0  0
   51.1330   15.5767    3.9693 H   0  0  0  0  0  0
   50.8360   16.2761    2.3417 H   0  0  0  0  0  0
   52.4378   15.5644    2.7348 H   0  0  0  0  0  0
   47.0600   12.4464    3.1365 H   0  0  0  0  0  0
   45.0498   14.0554    4.8825 H   0  0  0  0  0  0
   44.7296   13.6303    3.1669 H   0  0  0  0  0  0
   43.2074   13.0313    5.6758 H   0  0  0  0  0  0
   43.0356   10.1027    5.1134 H   0  0  0  0  0  0
   44.8420   10.2132    6.8609 H   0  0  0  0  0  0
   43.3802    9.3902    7.5033 H   0  0  0  0  0  0
   43.7217   11.0953    7.9533 H   0  0  0  0  0  0
   41.3077    8.9815    6.0408 H   0  0  0  0  0  0
   39.1961   10.8402    7.1950 H   0  0  0  0  0  0
   38.9608    8.9110    4.8775 H   0  0  0  0  0  0
   37.5465    9.0291    5.9786 H   0  0  0  0  0  0
   37.4724   11.4787    5.6393 H   0  0  0  0  0  0
   38.9083   11.3817    4.5644 H   0  0  0  0  0  0
   37.7222   10.2112    2.8738 H   0  0  0  0  0  0
   36.4432    9.6696    4.0128 H   0  0  0  0  0  0
   35.2115   11.6669    3.6002 H   0  0  0  0  0  0
   38.6960   11.9529    2.6697 H   0  0  0  0  0  0
   38.4129   13.6800    1.9167 H   0  0  0  0  0  0
   34.9194   13.6480    2.7279 H   0  0  0  0  0  0
   37.4883    9.8819    8.4196 H   0  0  0  0  0  0
   36.5759    8.1383    9.7414 H   0  0  0  0  0  0
   37.7480    6.2967    8.5400 H   0  0  0  0  0  0
   37.7086    5.9988   10.3110 H   0  0  0  0  0  0
   39.2175    6.5847    9.5321 H   0  0  0  0  0  0
   39.9374    9.1472   10.1502 H   0  0  0  0  0  0
   39.2919   10.5239   12.6192 H   0  0  0  0  0  0
   43.0819   11.1191   12.6856 H   0  0  0  0  0  0
   40.0043    7.6806   13.0097 H   0  0  0  0  0  0
   41.1508    8.7638   13.8693 H   0  0  0  0  0  0
   38.0926    8.9812   14.0758 H   0  0  0  0  0  0
   39.1238    8.0997   15.2532 H   0  0  0  0  0  0
   40.3763   10.1952   15.7376 H   0  0  0  0  0  0
   39.3684   11.0809   14.5434 H   0  0  0  0  0  0
   37.3282   10.5600   15.8631 H   0  0  0  0  0  0
   38.3192    9.6425   17.0474 H   0  0  0  0  0  0
   37.8428   11.9131   17.8430 H   0  0  0  0  0  0
   38.6080   12.5921   16.3664 H   0  0  0  0  0  0
   39.5990   11.6745   17.5508 H   0  0  0  0  0  0
  1  2  1  0  0  0
  1125  1  0  0  0
  1126  1  0  0  0
  1127  1  0  0  0
  2  3  1  0  0  0
  2  5  1  0  0  0
  2128  1  0  0  0
  3  4  2  0  0  0
  3 12  1  0  0  0
  5  6  1  0  0  0
  5129  1  0  0  0
  5130  1  0  0  0
  6  7  1  0  0  0
  6131  1  0  0  0
  6132  1  0  0  0
  7  8  1  0  0  0
  7133  1  0  0  0
  7134  1  0  0  0
  8  9  1  0  0  0
  8135  1  0  0  0
  9 10  1  0  0  0
  9 11  2  0  0  0
 10136  1  0  0  0
 10137  1  0  0  0
 11138  1  0  0  0
 12 13  1  0  0  0
 12139  1  0  0  0
 13 14  1  0  0  0
 13 16  1  0  0  0
 13140  1  0  0  0
 14 15  2  0  0  0
 14 20  1  0  0  0
 16 17  1  0  0  0
 16 18  1  0  0  0
 16141  1  0  0  0
 17 19  1  0  0  0
 17142  1  0  0  0
 17143  1  0  0  0
 18144  1  0  0  0
 18145  1  0  0  0
 18146  1  0  0  0
 19147  1  0  0  0
 19148  1  0  0  0
 19149  1  0  0  0
 20 21  1  0  0  0
 20150  1  0  0  0
 21 22  1  0  0  0
 21 24  1  0  0  0
 21151  1  0  0  0
 22 23  2  0  0  0
 22 26  1  0  0  0
 24 25  1  0  0  0
 24152  1  0  0  0
 24153  1  0  0  0
 25154  1  0  0  0
 26 27  1  0  0  0
 26155  1  0  0  0
 27 28  1  0  0  0
 27 30  1  0  0  0
 27156  1  0  0  0
 28 29  2  0  0  0
 28 31  1  0  0  0
 30157  1  0  0  0
 30158  1  0  0  0
 30159  1  0  0  0
 31 32  1  0  0  0
 31160  1  0  0  0
 32 33  1  0  0  0
 32 35  1  0  0  0
 32161  1  0  0  0
 33 34  2  0  0  0
 33 39  1  0  0  0
 35 36  1  0  0  0
 35162  1  0  0  0
 35163  1  0  0  0
 36 37  1  0  0  0
 36 38  2  0  0  0
 37164  1  0  0  0
 39 40  1  0  0  0
 39165  1  0  0  0
 40 41  1  0  0  0
 40 43  1  0  0  0
 40166  1  0  0  0
 41 42  2  0  0  0
 41 44  1  0  0  0
 43167  1  0  0  0
 43168  1  0  0  0
 43169  1  0  0  0
 44 45  1  0  0  0
 44170  1  0  0  0
 45 46  1  0  0  0
 45 48  1  0  0  0
 45171  1  0  0  0
 46 47  2  0  0  0
 46 52  1  0  0  0
 48 49  1  0  0  0
 48172  1  0  0  0
 48173  1  0  0  0
 49 50  1  0  0  0
 49174  1  0  0  0
 49175  1  0  0  0
 50 51  1  0  0  0
 51176  1  0  0  0
 51177  1  0  0  0
 51178  1  0  0  0
 52 53  1  0  0  0
 52179  1  0  0  0
 53 54  1  0  0  0
 53 56  1  0  0  0
 53180  1  0  0  0
 54 55  2  0  0  0
 54 60  1  0  0  0
 56 57  1  0  0  0
 56181  1  0  0  0
 56182  1  0  0  0
 57 58  1  0  0  0
 57183  1  0  0  0
 57184  1  0  0  0
 58 59  1  0  0  0
 59185  1  0  0  0
 59186  1  0  0  0
 59187  1  0  0  0
 60 61  1  0  0  0
 60188  1  0  0  0
 61 62  1  0  0  0
 61 64  1  0  0  0
 61189  1  0  0  0
 62 63  2  0  0  0
 62 69  1  0  0  0
 64 65  1  0  0  0
 64190  1  0  0  0
 64191  1  0  0  0
 65 66  1  0  0  0
 65192  1  0  0  0
 65193  1  0  0  0
 66 67  2  0  0  0
 66 68  1  0  0  0
 68194  1  0  0  0
 68195  1  0  0  0
 69 70  1  0  0  0
 69196  1  0  0  0
 70 71  1  0  0  0
 70 73  1  0  0  0
 70197  1  0  0  0
 71 72  2  0  0  0
 71 74  1  0  0  0
 73198  1  0  0  0
 73199  1  0  0  0
 73200  1  0  0  0
 74 75  1  0  0  0
 74201  1  0  0  0
 75 76  1  0  0  0
 75 78  1  0  0  0
 75202  1  0  0  0
 76 77  2  0  0  0
 76 82  1  0  0  0
 78 79  1  0  0  0
 78203  1  0  0  0
 78204  1  0  0  0
 79 80  1  0  0  0
 79 81  1  0  0  0
 79205  1  0  0  0
 80206  1  0  0  0
 80207  1  0  0  0
 80208  1  0  0  0
 81209  1  0  0  0
 81210  1  0  0  0
 81211  1  0  0  0
 82 83  1  0  0  0
 82212  1  0  0  0
 83 84  1  0  0  0
 83 86  1  0  0  0
 83213  1  0  0  0
 84 85  2  0  0  0
 84 90  1  0  0  0
 86 87  1  0  0  0
 86214  1  0  0  0
 86215  1  0  0  0
 87 88  1  0  0  0
 87 89  1  0  0  0
 87216  1  0  0  0
 88217  1  0  0  0
 88218  1  0  0  0
 88219  1  0  0  0
 89220  1  0  0  0
 89221  1  0  0  0
 89222  1  0  0  0
 90 91  1  0  0  0
 90223  1  0  0  0
 91 92  1  0  0  0
 91224  1  0  0  0
 91225  1  0  0  0
 92 93  2  0  0  0
 92 94  1  0  0  0
 94 95  1  0  0  0
 94226  1  0  0  0
 95 96  1  0  0  0
 95 98  1  0  0  0
 95227  1  0  0  0
 96 97  2  0  0  0
 96 99  1  0  0  0
 98228  1  0  0  0
 98229  1  0  0  0
 98230  1  0  0  0
 99100  1  0  0  0
 99231  1  0  0  0
100101  1  0  0  0
100103  1  0  0  0
100232  1  0  0  0
101102  2  0  0  0
101110  1  0  0  0
103104  1  0  0  0
103233  1  0  0  0
103234  1  0  0  0
104105  1  0  0  0
104235  1  0  0  0
104236  1  0  0  0
105106  1  0  0  0
105237  1  0  0  0
105238  1  0  0  0
106107  1  0  0  0
106239  1  0  0  0
107108  1  0  0  0
107109  2  0  0  0
108240  1  0  0  0
108241  1  0  0  0
109242  1  0  0  0
110111  1  0  0  0
110243  1  0  0  0
111112  1  0  0  0
111114  1  0  0  0
111244  1  0  0  0
112113  2  0  0  0
112115  1  0  0  0
114245  1  0  0  0
114246  1  0  0  0
114247  1  0  0  0
115116  1  0  0  0
115248  1  0  0  0
116117  1  0  0  0
116119  1  0  0  0
116249  1  0  0  0
117118  1  0  0  0
117124  2  0  0  0
118250  1  0  0  0
119120  1  0  0  0
119251  1  0  0  0
119252  1  0  0  0
120121  1  0  0  0
120253  1  0  0  0
120254  1  0  0  0
121122  1  0  0  0
121255  1  0  0  0
121256  1  0  0  0
122123  1  0  0  0
122257  1  0  0  0
122258  1  0  0  0
123259  1  0  0  0
123260  1  0  0  0
123261  1  0  0  0
M  CHG  2   1   1 123   1
M  END
> <s_m_source_file>
../2krd_ligand.sdf

> <i_m_source_file_index>
1

> <s_epik_input>
W0hdL049QyhbTkgyXSlcW05IXVtDSDJdW0NIMl1bQ0gyXVtDQEhdKFtOSDMrXSlDKD1PKVtOSF1bQ0BASF0oW0NAQEhdKFtDSDNdKVtDSDJdW0NIM10pQyg9TylbTkhdW0NAQEhdKFtDSDJdW09IXSlDKD1PKVtOSF1bQ0BASF0oW0NIM10pQyg9TylbTkhdW0NAQEhdKFtDSDJdQyg9TylbT0hdKUMoPU8pW05IXVtDQEBIXShbQ0gzXSlDKD1PKVtOSF1bQ0BASF0oW0NIMl1bQ0gyXVNbQ0gzXSlDKD1PKVtOSF1bQ0BASF0oW0NIMl1bQ0gyXVNbQ0gzXSlDKD1PKVtOSF1bQ0BASF0oW0NIMl1bQ0gyXUMoPU8pW05IMl0pQyg9TylbTkhdW0NAQEhdKFtDSDNdKUMoPU8pW05IXVtDQEBIXShbQ0gyXVtDSF0oW0NIM10pW0NIM10pQyg9TylbTkhdW0NAQEhdKFtDSDJdW0NIXShbQ0gzXSlbQ0gzXSlDKD1PKVtOSF1bQ0gyXUMoPU8pW05IXVtDQEBIXShbQ0gzXSlDKD1PKVtOSF1bQ0BASF0oW0NIMl1bQ0gyXVtDSDJdW05IXS9DKFtOSDJdKT1OXFtIXSlDKD1PKVtOSF1bQ0BASF0oW0NIM10pQyg9TylbTkhdW0NASF0oQyg9TylbT0hdKVtDSDJdW0NIMl1bQ0gyXVtDSDJdW05IMytd

> <s_epik_cmdline>
J2VwaWtfYXBwJywgJy1pbWFlJywgJ2xpZ2FuZF9wcm8ubWFlJywgJy1vbWFlJywgJ2xpZ2FuZF9wcmVwLm1hZScsICctbXMnLCAnMScsICctcGgnLCAnNycsICctcGh0JywgJzAuNScsICctbnQn

> <s_epik_pKa_notes>
Molecule size exceeds maximum supported for generating protonation states

> <s_epik_Chemistry_Notes>
This compound has an imine and may undergo hydrolysis.

$$$$
