2ks9_ligand
                    3D
 Schrodinger Suite 2020-3.
194197  0  0  1  0            999 V2000
  -10.6570  -21.4070  -25.1150 N   0  3  0  0  0  0
  -11.4320  -21.0000  -26.3220 C   0  0  2  0  0  0
  -12.5610  -20.0670  -25.8930 C   0  0  0  0  0  0
  -13.7310  -20.3090  -26.1780 O   0  0  0  0  0  0
  -11.9790  -22.2690  -27.0120 C   0  0  0  0  0  0
  -12.2510  -22.0580  -28.5240 C   0  0  0  0  0  0
  -13.4970  -22.8210  -28.9980 C   0  0  0  0  0  0
  -14.6830  -21.9890  -28.8240 N   0  0  0  0  0  0
  -15.8480  -22.3310  -29.3630 C   0  0  0  0  0  0
  -15.9470  -23.4300  -30.0600 N   0  0  0  0  0  0
  -16.8940  -21.5670  -29.1960 N   0  0  0  0  0  0
  -12.2330  -18.9970  -25.2220 N   0  0  0  0  0  0
  -13.2480  -18.0040  -24.7700 C   0  0  2  0  0  0
  -13.8650  -17.3000  -25.9710 C   0  0  0  0  0  0
  -13.1730  -17.0070  -26.9460 O   0  0  0  0  0  0
  -12.4430  -17.0360  -23.8890 C   0  0  0  0  0  0
  -11.0410  -17.1460  -24.3920 C   0  0  0  0  0  0
  -10.8700  -18.6030  -24.8270 C   0  0  0  0  0  0
  -15.1610  -17.0300  -25.9120 N   0  0  0  0  0  0
  -15.8120  -16.3610  -27.0260 C   0  0  2  0  0  0
  -15.2340  -14.9520  -27.1880 C   0  0  0  0  0  0
  -14.9140  -14.2990  -26.1940 O   0  0  0  0  0  0
  -17.3220  -16.2780  -26.7850 C   0  0  0  0  0  0
  -17.8770  -17.6760  -26.4930 C   0  0  0  0  0  0
  -18.5010  -17.7040  -25.0910 C   0  0  0  0  0  0
  -18.7070  -16.2720  -24.5880 C   0  0  0  0  0  0
  -20.1560  -16.0360  -24.3350 N   0  3  0  0  0  0
  -15.0780  -14.4680  -28.3970 N   0  0  0  0  0  0
  -14.5100  -13.1080  -28.6460 C   0  0  2  0  0  0
  -15.4530  -12.0060  -28.1730 C   0  0  0  0  0  0
  -16.6730  -12.1770  -28.1780 O   0  0  0  0  0  0
  -14.3200  -13.0750  -30.1680 C   0  0  0  0  0  0
  -15.3700  -13.9960  -30.6820 C   0  0  0  0  0  0
  -15.4380  -15.1340  -29.6650 C   0  0  0  0  0  0
  -14.8880  -10.8730  -27.7740 N   0  0  0  0  0  0
  -15.7010   -9.7580  -27.3170 C   0  0  2  0  0  0
  -16.4470   -9.1320  -28.4910 C   0  0  0  0  0  0
  -15.8560   -8.8550  -29.5350 O   0  0  0  0  0  0
  -14.8180   -8.7080  -26.6380 C   0  0  0  0  0  0
  -15.0820   -7.3310  -27.2550 C   0  0  0  0  0  0
  -15.8230   -6.4460  -26.2580 C   0  0  0  0  0  0
  -16.8940   -5.9240  -26.5670 O   0  0  0  0  0  0
  -15.3150   -6.2470  -25.0730 N   0  0  0  0  0  0
  -17.7490   -8.9150  -28.3160 N   0  0  0  0  0  0
  -18.5770   -8.3220  -29.3720 C   0  0  2  0  0  0
  -18.8390   -6.8470  -29.0870 C   0  0  0  0  0  0
  -19.4910   -6.5020  -28.1010 O   0  0  0  0  0  0
  -19.9110   -9.0660  -29.4590 C   0  0  0  0  0  0
  -19.6940  -10.5470  -29.1410 C   0  0  0  0  0  0
  -19.8890  -11.3830  -30.4000 C   0  0  0  0  0  0
  -19.1230  -11.2570  -31.3550 O   0  0  0  0  0  0
  -20.8760  -12.2360  -30.4610 N   0  0  0  0  0  0
  -18.3340   -5.9840  -29.9610 N   0  0  0  0  0  0
  -18.5260   -4.5470  -29.8000 C   0  0  2  0  0  0
  -20.0060   -4.1950  -29.9000 C   0  0  0  0  0  0
  -20.5170   -3.3820  -29.1290 O   0  0  0  0  0  0
  -17.7430   -3.7920  -30.8760 C   0  0  0  0  0  0
  -17.5000   -2.3740  -30.4210 C   0  0  0  0  0  0
  -18.4560   -1.3840  -30.6740 C   0  0  0  0  0  0
  -16.3160   -2.0480  -29.7460 C   0  0  0  0  0  0
  -18.2300   -0.0680  -30.2530 C   0  0  0  0  0  0
  -16.0910   -0.7330  -29.3240 C   0  0  0  0  0  0
  -17.0480    0.2580  -29.5780 C   0  0  0  0  0  0
  -20.6870   -4.8130  -30.8590 N   0  0  0  0  0  0
  -22.1090   -4.5660  -31.0620 C   0  0  2  0  0  0
  -22.9150   -5.0430  -29.8590 C   0  0  0  0  0  0
  -23.9110   -4.4260  -29.4800 O   0  0  0  0  0  0
  -22.5910   -5.2860  -32.3230 C   0  0  0  0  0  0
  -23.6260   -4.4340  -33.0220 C   0  0  0  0  0  0
  -23.9430   -3.1670  -32.5210 C   0  0  0  0  0  0
  -24.2670   -4.9150  -34.1690 C   0  0  0  0  0  0
  -24.9010   -2.3780  -33.1690 C   0  0  0  0  0  0
  -25.2260   -4.1270  -34.8170 C   0  0  0  0  0  0
  -25.5430   -2.8590  -34.3160 C   0  0  0  0  0  0
  -22.4800   -6.1490  -29.2670 N   0  0  0  0  0  0
  -23.1690   -6.7050  -28.1090 C   0  0  0  0  0  0
  -23.1990   -5.7030  -26.9630 C   0  0  0  0  0  0
  -24.1520   -5.6630  -26.1850 O   0  0  0  0  0  0
  -22.1500   -4.8920  -26.8610 N   0  0  0  0  0  0
  -22.0750   -3.8920  -25.8020 C   0  0  2  0  0  0
  -23.1310   -2.8150  -26.0210 C   0  0  0  0  0  0
  -23.2670   -2.2790  -27.1210 O   0  0  0  0  0  0
  -20.6720   -3.2640  -25.7760 C   0  0  0  0  0  0
  -19.9780   -3.5310  -24.4080 C   0  0  0  0  0  0
  -18.4580   -3.6460  -24.6020 C   0  0  0  0  0  0
  -20.2660   -2.3790  -23.4250 C   0  0  0  0  0  0
  -23.8780   -2.5020  -24.9650 N   0  0  0  0  0  0
  -24.9280   -1.4860  -25.0460 C   0  0  2  0  0  0
  -24.3760   -0.1140  -24.6710 C   0  0  0  0  0  0
  -24.2770    0.7230  -25.5530 O   0  0  0  0  0  0
  -26.0750   -1.8500  -24.1010 C   0  0  0  0  0  0
  -26.9690   -2.9020  -24.7610 C   0  0  0  0  0  0
  -26.9010   -4.4370  -23.8010 S   0  0  0  0  0  0
  -28.1190   -3.9900  -22.5370 C   0  0  0  0  0  0
  -24.0610    0.0770  -23.5090 O   0  0  0  0  0  0
  -10.2615  -20.5112  -24.6139 H   0  0  0  0  0  0
   -9.8224  -22.0567  -25.4171 H   0  0  0  0  0  0
  -11.3154  -21.9534  -24.4236 H   0  0  0  0  0  0
  -10.7726  -20.4562  -27.0144 H   0  0  0  0  0  0
  -11.2480  -23.0848  -26.9118 H   0  0  0  0  0  0
  -12.9262  -22.5651  -26.5374 H   0  0  0  0  0  0
  -12.4084  -20.9875  -28.7223 H   0  0  0  0  0  0
  -11.3882  -22.4156  -29.1052 H   0  0  0  0  0  0
  -13.3866  -23.0785  -30.0617 H   0  0  0  0  0  0
  -13.6096  -23.7422  -28.4075 H   0  0  0  0  0  0
  -14.6221  -21.0601  -28.2379 H   0  0  0  0  0  0
  -15.0659  -24.0734  -30.2006 H   0  0  0  0  0  0
  -16.8104  -20.6408  -28.6085 H   0  0  0  0  0  0
  -17.8586  -21.8497  -29.6428 H   0  0  0  0  0  0
  -14.0842  -18.4760  -24.2334 H   0  0  0  0  0  0
  -12.8409  -16.0171  -24.0055 H   0  0  0  0  0  0
  -12.5254  -17.3436  -22.8361 H   0  0  0  0  0  0
  -10.8998  -16.4570  -25.2377 H   0  0  0  0  0  0
  -10.3404  -16.8847  -23.5852 H   0  0  0  0  0  0
  -10.5244  -19.2499  -24.0072 H   0  0  0  0  0  0
  -10.1936  -18.7093  -25.6879 H   0  0  0  0  0  0
  -15.7440  -17.3110  -25.0225 H   0  0  0  0  0  0
  -15.6026  -16.9742  -27.9149 H   0  0  0  0  0  0
  -17.5206  -15.6205  -25.9258 H   0  0  0  0  0  0
  -17.8143  -15.8703  -27.6802 H   0  0  0  0  0  0
  -18.6453  -17.9286  -27.2386 H   0  0  0  0  0  0
  -17.0613  -18.4122  -26.5433 H   0  0  0  0  0  0
  -19.4722  -18.2189  -25.1321 H   0  0  0  0  0  0
  -17.8311  -18.2393  -24.4021 H   0  0  0  0  0  0
  -18.1441  -16.1269  -23.6542 H   0  0  0  0  0  0
  -18.3476  -15.5615  -25.3469 H   0  0  0  0  0  0
  -20.3024  -15.0073  -23.9739 H   0  0  0  0  0  0
  -20.5160  -16.7459  -23.5757 H   0  0  0  0  0  0
  -20.7195  -16.1805  -25.2686 H   0  0  0  0  0  0
  -13.5789  -12.9494  -28.0821 H   0  0  0  0  0  0
  -14.4567  -12.0461  -30.5323 H   0  0  0  0  0  0
  -13.3064  -13.4211  -30.4186 H   0  0  0  0  0  0
  -16.3272  -13.4584  -30.7516 H   0  0  0  0  0  0
  -15.0814  -14.3613  -31.6786 H   0  0  0  0  0  0
  -14.7140  -15.9345  -29.8771 H   0  0  0  0  0  0
  -16.4464  -15.5649  -29.5794 H   0  0  0  0  0  0
  -13.7918  -10.7834  -27.7919 H   0  0  0  0  0  0
  -16.4181  -10.1815  -26.5984 H   0  0  0  0  0  0
  -15.0482   -8.6751  -25.5629 H   0  0  0  0  0  0
  -13.7596   -8.9727  -26.7784 H   0  0  0  0  0  0
  -14.1246   -6.8572  -27.5176 H   0  0  0  0  0  0
  -15.6946   -7.4466  -28.1613 H   0  0  0  0  0  0
  -14.3577   -6.7147  -24.7994 H   0  0  0  0  0  0
  -15.8439   -5.6115  -24.3475 H   0  0  0  0  0  0
  -18.2016   -9.1915  -27.3523 H   0  0  0  0  0  0
  -18.0050   -8.4248  -30.3060 H   0  0  0  0  0  0
  -20.6184   -8.6363  -28.7345 H   0  0  0  0  0  0
  -20.3208   -8.9664  -30.4749 H   0  0  0  0  0  0
  -18.6718  -10.6948  -28.7626 H   0  0  0  0  0  0
  -20.4177  -10.8679  -28.3772 H   0  0  0  0  0  0
  -21.5600  -12.3477  -29.6068 H   0  0  0  0  0  0
  -21.0234  -12.8428  -31.3666 H   0  0  0  0  0  0
  -17.7624   -6.3699  -30.8180 H   0  0  0  0  0  0
  -18.1473   -4.2995  -28.7973 H   0  0  0  0  0  0
  -16.7783   -4.2924  -31.0465 H   0  0  0  0  0  0
  -18.3214   -3.7824  -31.8116 H   0  0  0  0  0  0
  -19.3770   -1.6375  -31.1990 H   0  0  0  0  0  0
  -15.5705   -2.8186  -29.5497 H   0  0  0  0  0  0
  -18.9748    0.7029  -30.4510 H   0  0  0  0  0  0
  -15.1708   -0.4796  -28.7975 H   0  0  0  0  0  0
  -16.8722    1.2825  -29.2501 H   0  0  0  0  0  0
  -20.1543   -5.5243  -31.5072 H   0  0  0  0  0  0
  -22.2101   -3.4761  -31.1714 H   0  0  0  0  0  0
  -21.7383   -5.4556  -32.9970 H   0  0  0  0  0  0
  -23.0369   -6.2525  -32.0456 H   0  0  0  0  0  0
  -23.4443   -2.7941  -31.6264 H   0  0  0  0  0  0
  -24.0199   -5.9028  -34.5579 H   0  0  0  0  0  0
  -25.1468   -1.3897  -32.7805 H   0  0  0  0  0  0
  -25.7253   -4.5007  -35.7109 H   0  0  0  0  0  0
  -26.2903   -2.2457  -34.8195 H   0  0  0  0  0  0
  -21.5834   -6.6468  -29.6649 H   0  0  0  0  0  0
  -24.2033   -6.9585  -28.3846 H   0  0  0  0  0  0
  -22.6464   -7.6124  -27.7721 H   0  0  0  0  0  0
  -21.3314   -4.9835  -27.5901 H   0  0  0  0  0  0
  -22.2796   -4.4223  -24.8602 H   0  0  0  0  0  0
  -20.0595   -3.7017  -26.5780 H   0  0  0  0  0  0
  -20.7536   -2.1777  -25.9284 H   0  0  0  0  0  0
  -20.3661   -4.4717  -23.9903 H   0  0  0  0  0  0
  -18.2387   -4.4655  -25.3022 H   0  0  0  0  0  0
  -17.9794   -3.8533  -23.6335 H   0  0  0  0  0  0
  -18.0679   -2.7015  -25.0091 H   0  0  0  0  0  0
  -21.3521   -2.2859  -23.2773 H   0  0  0  0  0  0
  -19.8699   -1.4387  -23.8360 H   0  0  0  0  0  0
  -19.7815   -2.5904  -22.4603 H   0  0  0  0  0  0
  -23.6918   -3.0261  -24.0160 H   0  0  0  0  0  0
  -25.2678   -1.4800  -26.0922 H   0  0  0  0  0  0
  -23.8832    1.7234  -25.3202 H   0  0  0  0  0  0
  -25.6640   -2.2549  -23.1645 H   0  0  0  0  0  0
  -26.6692   -0.9506  -23.8820 H   0  0  0  0  0  0
  -28.0053   -2.5344  -24.7933 H   0  0  0  0  0  0
  -26.6157   -3.0931  -25.7850 H   0  0  0  0  0  0
  -28.2309   -4.8214  -21.8254 H   0  0  0  0  0  0
  -29.0873   -3.7853  -23.0171 H   0  0  0  0  0  0
  -27.7784   -3.0919  -22.0010 H   0  0  0  0  0  0
  1  2  1  0  0  0
  1 96  1  0  0  0
  1 97  1  0  0  0
  1 98  1  0  0  0
  2  3  1  0  0  0
  2  5  1  0  0  0
  2 99  1  0  0  0
  3  4  2  0  0  0
  3 12  1  0  0  0
  5  6  1  0  0  0
  5100  1  0  0  0
  5101  1  0  0  0
  6  7  1  0  0  0
  6102  1  0  0  0
  6103  1  0  0  0
  7  8  1  0  0  0
  7104  1  0  0  0
  7105  1  0  0  0
  8  9  1  0  0  0
  8106  1  0  0  0
  9 10  2  0  0  0
  9 11  1  0  0  0
 10107  1  0  0  0
 11108  1  0  0  0
 11109  1  0  0  0
 12 13  1  0  0  0
 12 18  1  0  0  0
 13 14  1  0  0  0
 13 16  1  0  0  0
 13110  1  0  0  0
 14 15  2  0  0  0
 14 19  1  0  0  0
 16 17  1  0  0  0
 16111  1  0  0  0
 16112  1  0  0  0
 17 18  1  0  0  0
 17113  1  0  0  0
 17114  1  0  0  0
 18115  1  0  0  0
 18116  1  0  0  0
 19 20  1  0  0  0
 19117  1  0  0  0
 20 21  1  0  0  0
 20 23  1  0  0  0
 20118  1  0  0  0
 21 22  2  0  0  0
 21 28  1  0  0  0
 23 24  1  0  0  0
 23119  1  0  0  0
 23120  1  0  0  0
 24 25  1  0  0  0
 24121  1  0  0  0
 24122  1  0  0  0
 25 26  1  0  0  0
 25123  1  0  0  0
 25124  1  0  0  0
 26 27  1  0  0  0
 26125  1  0  0  0
 26126  1  0  0  0
 27127  1  0  0  0
 27128  1  0  0  0
 27129  1  0  0  0
 28 29  1  0  0  0
 28 34  1  0  0  0
 29 30  1  0  0  0
 29 32  1  0  0  0
 29130  1  0  0  0
 30 31  2  0  0  0
 30 35  1  0  0  0
 32 33  1  0  0  0
 32131  1  0  0  0
 32132  1  0  0  0
 33 34  1  0  0  0
 33133  1  0  0  0
 33134  1  0  0  0
 34135  1  0  0  0
 34136  1  0  0  0
 35 36  1  0  0  0
 35137  1  0  0  0
 36 37  1  0  0  0
 36 39  1  0  0  0
 36138  1  0  0  0
 37 38  2  0  0  0
 37 44  1  0  0  0
 39 40  1  0  0  0
 39139  1  0  0  0
 39140  1  0  0  0
 40 41  1  0  0  0
 40141  1  0  0  0
 40142  1  0  0  0
 41 42  2  0  0  0
 41 43  1  0  0  0
 43143  1  0  0  0
 43144  1  0  0  0
 44 45  1  0  0  0
 44145  1  0  0  0
 45 46  1  0  0  0
 45 48  1  0  0  0
 45146  1  0  0  0
 46 47  2  0  0  0
 46 53  1  0  0  0
 48 49  1  0  0  0
 48147  1  0  0  0
 48148  1  0  0  0
 49 50  1  0  0  0
 49149  1  0  0  0
 49150  1  0  0  0
 50 51  2  0  0  0
 50 52  1  0  0  0
 52151  1  0  0  0
 52152  1  0  0  0
 53 54  1  0  0  0
 53153  1  0  0  0
 54 55  1  0  0  0
 54 57  1  0  0  0
 54154  1  0  0  0
 55 56  2  0  0  0
 55 64  1  0  0  0
 57 58  1  0  0  0
 57155  1  0  0  0
 57156  1  0  0  0
 58 59  2  0  0  0
 58 60  1  0  0  0
 59 61  1  0  0  0
 59157  1  0  0  0
 60 62  2  0  0  0
 60158  1  0  0  0
 61 63  2  0  0  0
 61159  1  0  0  0
 62 63  1  0  0  0
 62160  1  0  0  0
 63161  1  0  0  0
 64 65  1  0  0  0
 64162  1  0  0  0
 65 66  1  0  0  0
 65 68  1  0  0  0
 65163  1  0  0  0
 66 67  2  0  0  0
 66 75  1  0  0  0
 68 69  1  0  0  0
 68164  1  0  0  0
 68165  1  0  0  0
 69 70  2  0  0  0
 69 71  1  0  0  0
 70 72  1  0  0  0
 70166  1  0  0  0
 71 73  2  0  0  0
 71167  1  0  0  0
 72 74  2  0  0  0
 72168  1  0  0  0
 73 74  1  0  0  0
 73169  1  0  0  0
 74170  1  0  0  0
 75 76  1  0  0  0
 75171  1  0  0  0
 76 77  1  0  0  0
 76172  1  0  0  0
 76173  1  0  0  0
 77 78  2  0  0  0
 77 79  1  0  0  0
 79 80  1  0  0  0
 79174  1  0  0  0
 80 81  1  0  0  0
 80 83  1  0  0  0
 80175  1  0  0  0
 81 82  2  0  0  0
 81 87  1  0  0  0
 83 84  1  0  0  0
 83176  1  0  0  0
 83177  1  0  0  0
 84 85  1  0  0  0
 84 86  1  0  0  0
 84178  1  0  0  0
 85179  1  0  0  0
 85180  1  0  0  0
 85181  1  0  0  0
 86182  1  0  0  0
 86183  1  0  0  0
 86184  1  0  0  0
 87 88  1  0  0  0
 87185  1  0  0  0
 88 89  1  0  0  0
 88 91  1  0  0  0
 88186  1  0  0  0
 89 90  1  0  0  0
 89 95  2  0  0  0
 90187  1  0  0  0
 91 92  1  0  0  0
 91188  1  0  0  0
 91189  1  0  0  0
 92 93  1  0  0  0
 92190  1  0  0  0
 92191  1  0  0  0
 93 94  1  0  0  0
 94192  1  0  0  0
 94193  1  0  0  0
 94194  1  0  0  0
M  CHG  2   1   1  27   1
M  END
> <s_m_source_file>
../2ks9_ligand.sdf

> <i_m_source_file_index>
1

> <s_epik_input>
W0hdL049QyhbTkgyXSlcW05IXVtDSDJdW0NIMl1bQ0gyXVtDQEhdKFtOSDMrXSlDKD1PKU4xW0NAQEhdKFtDSDJdW0NIMl1bQ0gyXTEpQyg9TylbTkhdW0NAQEhdKFtDSDJdW0NIMl1bQ0gyXVtDSDJdW05IMytdKUMoPU8pTjJbQ0BASF0oW0NIMl1bQ0gyXVtDSDJdMilDKD1PKVtOSF1bQ0BASF0oW0NIMl1bQ0gyXUMoPU8pW05IMl0pQyg9TylbTkhdW0NAQEhdKFtDSDJdW0NIMl1DKD1PKVtOSDJdKUMoPU8pW05IXVtDQEBIXShbQ0gyXWMzW2NIXVtjSF1bY0hdW2NIXVtjSF0zKUMoPU8pW05IXVtDQEBIXShbQ0gyXWM0W2NIXVtjSF1bY0hdW2NIXVtjSF00KUMoPU8pW05IXVtDSDJdQyg9TylbTkhdW0NAQEhdKFtDSDJdW0NIXShbQ0gzXSlbQ0gzXSlDKD1PKVtOSF1bQ0BIXShDKD1PKVtPSF0pW0NIMl1bQ0gyXVNbQ0gzXQ==

> <s_epik_cmdline>
J2VwaWtfYXBwJywgJy1pbWFlJywgJ2xpZ2FuZF9wcm8ubWFlJywgJy1vbWFlJywgJ2xpZ2FuZF9wcmVwLm1hZScsICctbXMnLCAnMScsICctcGgnLCAnNycsICctcGh0JywgJzAuNScsICctbnQn

> <s_epik_pKa_notes>
Molecule size exceeds maximum supported for generating protonation states

> <s_epik_Chemistry_Notes>
This compound has an imine and may undergo hydrolysis.

$$$$
