2ksa_ligand
                    3D
 Schrodinger Suite 2020-3.
194197  0  0  1  0            999 V2000
  -23.0160  -15.9410  -26.3650 N   0  3  0  0  0  0
  -22.4480  -14.9550  -27.3260 C   0  0  2  0  0  0
  -22.9260  -13.5500  -26.9330 C   0  0  0  0  0  0
  -24.1090  -13.3640  -26.6490 O   0  0  0  0  0  0
  -22.9410  -15.2990  -28.7360 C   0  0  0  0  0  0
  -23.3700  -14.0230  -29.4620 C   0  0  0  0  0  0
  -22.4580  -13.7960  -30.6700 C   0  0  0  0  0  0
  -22.3220  -12.3690  -30.9390 N   0  0  0  0  0  0
  -22.2800  -11.9070  -32.1850 C   0  0  0  0  0  0
  -22.3610  -12.7340  -33.1900 N   0  0  0  0  0  0
  -22.1580  -10.6260  -32.4010 N   0  0  0  0  0  0
  -22.0580  -12.5560  -26.9000 N   0  0  0  0  0  0
  -22.4660  -11.1680  -26.5170 C   0  0  2  0  0  0
  -23.4030  -10.5440  -27.5520 C   0  0  0  0  0  0
  -23.2550  -10.7710  -28.7530 O   0  0  0  0  0  0
  -21.1360  -10.4050  -26.4140 C   0  0  0  0  0  0
  -20.1960  -11.1530  -27.3020 C   0  0  0  0  0  0
  -20.6170  -12.6210  -27.2240 C   0  0  0  0  0  0
  -24.3610   -9.7550  -27.0780 N   0  0  0  0  0  0
  -25.3110   -9.1030  -27.9730 C   0  0  2  0  0  0
  -24.5980   -7.9960  -28.7790 C   0  0  0  0  0  0
  -23.9170   -7.1580  -28.1910 O   0  0  0  0  0  0
  -26.4570   -8.5110  -27.1470 C   0  0  0  0  0  0
  -26.6420   -9.3040  -25.8350 C   0  0  0  0  0  0
  -26.4370   -8.3750  -24.6370 C   0  0  0  0  0  0
  -27.6410   -8.4610  -23.6940 C   0  0  0  0  0  0
  -27.1630   -8.6670  -22.2970 N   0  3  0  0  0  0
  -24.6970   -7.9850  -30.1000 N   0  0  0  0  0  0
  -23.9940   -6.9650  -30.9540 C   0  0  2  0  0  0
  -24.5410   -5.5350  -30.8210 C   0  0  0  0  0  0
  -23.8630   -4.5780  -31.1900 O   0  0  0  0  0  0
  -24.1780   -7.5010  -32.3840 C   0  0  0  0  0  0
  -25.4270   -8.3160  -32.3350 C   0  0  0  0  0  0
  -25.4890   -8.9200  -30.9300 C   0  0  0  0  0  0
  -25.7670   -5.3890  -30.3340 N   0  0  0  0  0  0
  -26.3710   -4.0560  -30.2180 C   0  0  2  0  0  0
  -25.5260   -3.1250  -29.3400 C   0  0  0  0  0  0
  -25.3990   -1.9360  -29.6330 O   0  0  0  0  0  0
  -27.8200   -4.1350  -29.6740 C   0  0  0  0  0  0
  -28.6820   -2.9820  -30.2060 C   0  0  0  0  0  0
  -29.2290   -2.1430  -29.0560 C   0  0  0  0  0  0
  -30.3760   -2.3250  -28.6480 O   0  0  0  0  0  0
  -28.4830   -1.2240  -28.5110 N   0  0  0  0  0  0
  -24.9620   -3.6620  -28.2720 N   0  0  0  0  0  0
  -24.1440   -2.8650  -27.3670 C   0  0  2  0  0  0
  -22.8180   -2.5020  -28.0240 C   0  0  0  0  0  0
  -22.0580   -1.6890  -27.5010 O   0  0  0  0  0  0
  -23.8930   -3.6480  -26.0720 C   0  0  0  0  0  0
  -24.7560   -3.0760  -24.9400 C   0  0  0  0  0  0
  -25.9000   -4.0270  -24.6150 C   0  0  0  0  0  0
  -25.9950   -5.1120  -25.1890 O   0  0  0  0  0  0
  -26.7750   -3.6780  -23.7160 N   0  0  0  0  0  0
  -22.5380   -3.1230  -29.1620 N   0  0  0  0  0  0
  -21.2900   -2.8670  -29.8610 C   0  0  2  0  0  0
  -21.1720   -1.3880  -30.2080 C   0  0  0  0  0  0
  -20.1290   -0.7680  -29.9960 O   0  0  0  0  0  0
  -21.2290   -3.6890  -31.1470 C   0  0  0  0  0  0
  -20.7530   -5.0870  -30.8300 C   0  0  0  0  0  0
  -20.9870   -5.6330  -29.5610 C   0  0  0  0  0  0
  -20.0830   -5.8380  -31.8030 C   0  0  0  0  0  0
  -20.5470   -6.9300  -29.2660 C   0  0  0  0  0  0
  -19.6450   -7.1350  -31.5070 C   0  0  0  0  0  0
  -19.8770   -7.6800  -30.2400 C   0  0  0  0  0  0
  -22.2510   -0.8310  -30.7420 N   0  0  0  0  0  0
  -22.2750    0.5760  -31.1190 C   0  0  2  0  0  0
  -22.0560    1.4550  -29.9060 C   0  0  0  0  0  0
  -21.2260    2.3640  -29.9220 O   0  0  0  0  0  0
  -23.6310    0.9110  -31.7200 C   0  0  0  0  0  0
  -23.6730    2.3720  -32.0970 C   0  0  0  0  0  0
  -22.6110    2.9420  -32.8110 C   0  0  0  0  0  0
  -24.7730    3.1570  -31.7340 C   0  0  0  0  0  0
  -22.6490    4.2970  -33.1590 C   0  0  0  0  0  0
  -24.8110    4.5130  -32.0850 C   0  0  0  0  0  0
  -23.7500    5.0820  -32.7970 C   0  0  0  0  0  0
  -22.8100    1.1700  -28.8540 N   0  0  0  0  0  0
  -22.7110    1.9260  -27.6150 C   0  0  0  0  0  0
  -22.2970    1.0060  -26.4840 C   0  0  0  0  0  0
  -23.1250    0.5710  -25.6830 O   0  0  0  0  0  0
  -21.0110    0.6970  -26.4370 N   0  0  0  0  0  0
  -20.4960   -0.1930  -25.4110 C   0  0  2  0  0  0
  -20.7390    0.4050  -24.0250 C   0  0  0  0  0  0
  -21.1210   -0.3030  -23.0920 O   0  0  0  0  0  0
  -18.9900   -0.4340  -25.6210 C   0  0  0  0  0  0
  -18.7530   -1.8420  -26.2300 C   0  0  0  0  0  0
  -17.6460   -1.7820  -27.2920 C   0  0  0  0  0  0
  -18.3390   -2.8370  -25.1290 C   0  0  0  0  0  0
  -20.5170    1.7080  -23.9010 N   0  0  0  0  0  0
  -20.7170    2.3890  -22.6280 C   0  0  2  0  0  0
  -22.1540    2.2160  -22.1490 C   0  0  0  0  0  0
  -22.9920    3.0040  -22.5550 O   0  0  0  0  0  0
  -20.4010    3.8780  -22.7760 C   0  0  0  0  0  0
  -20.2520    4.5100  -21.3900 C   0  0  0  0  0  0
  -18.6770    5.3970  -21.3010 S   0  0  0  0  0  0
  -18.2400    5.2600  -23.0520 C   0  0  0  0  0  0
  -22.3960    1.2980  -21.3840 O   0  0  0  0  0  0
  -22.6688  -15.7041  -25.3485 H   0  0  0  0  0  0
  -22.6842  -16.9533  -26.6392 H   0  0  0  0  0  0
  -24.1145  -15.8938  -26.3976 H   0  0  0  0  0  0
  -21.3500  -15.0085  -27.2860 H   0  0  0  0  0  0
  -22.1300  -15.7827  -29.3002 H   0  0  0  0  0  0
  -23.7991  -15.9839  -28.6675 H   0  0  0  0  0  0
  -24.4111  -14.1267  -29.8015 H   0  0  0  0  0  0
  -23.2916  -13.1668  -28.7759 H   0  0  0  0  0  0
  -21.4639  -14.2193  -30.4636 H   0  0  0  0  0  0
  -22.8901  -14.2888  -31.5534 H   0  0  0  0  0  0
  -22.2524  -11.6561  -30.1042 H   0  0  0  0  0  0
  -22.4638  -13.8138  -33.0068 H   0  0  0  0  0  0
  -22.0898   -9.9292  -31.5526 H   0  0  0  0  0  0
  -22.1234  -10.2428  -33.4315 H   0  0  0  0  0  0
  -23.0382  -11.1673  -25.5776 H   0  0  0  0  0  0
  -21.2804   -9.3690  -26.7543 H   0  0  0  0  0  0
  -20.7943  -10.4033  -25.3684 H   0  0  0  0  0  0
  -20.2799  -10.7704  -28.3299 H   0  0  0  0  0  0
  -19.1653  -11.0164  -26.9429 H   0  0  0  0  0  0
  -20.0865  -13.1650  -26.4286 H   0  0  0  0  0  0
  -20.4797  -13.1453  -28.1812 H   0  0  0  0  0  0
  -24.4311   -9.5968  -25.9917 H   0  0  0  0  0  0
  -25.6944   -9.8793  -28.6515 H   0  0  0  0  0  0
  -26.2294   -7.4629  -26.9025 H   0  0  0  0  0  0
  -27.3899   -8.5577  -27.7279 H   0  0  0  0  0  0
  -27.6580   -9.7241  -25.8007 H   0  0  0  0  0  0
  -25.9060  -10.1205  -25.7931 H   0  0  0  0  0  0
  -25.5292   -8.6739  -24.0924 H   0  0  0  0  0  0
  -26.3281   -7.3391  -24.9907 H   0  0  0  0  0  0
  -28.2183   -7.5264  -23.7504 H   0  0  0  0  0  0
  -28.2802   -9.3053  -23.9915 H   0  0  0  0  0  0
  -28.0271   -8.7289  -21.6192 H   0  0  0  0  0  0
  -26.5237   -7.8226  -22.0000 H   0  0  0  0  0  0
  -26.5855   -9.6015  -22.2411 H   0  0  0  0  0  0
  -22.9467   -6.8730  -30.6305 H   0  0  0  0  0  0
  -24.2720   -6.6567  -33.0828 H   0  0  0  0  0  0
  -23.3062   -8.1115  -32.6618 H   0  0  0  0  0  0
  -26.2953   -7.6681  -32.5255 H   0  0  0  0  0  0
  -25.3816   -9.1031  -33.1021 H   0  0  0  0  0  0
  -25.0346   -9.9210  -30.8898 H   0  0  0  0  0  0
  -26.5187   -8.9691  -30.5461 H   0  0  0  0  0  0
  -26.3312   -6.2781  -30.0159 H   0  0  0  0  0  0
  -26.3710   -3.6758  -31.2502 H   0  0  0  0  0  0
  -28.2775   -5.0854  -29.9861 H   0  0  0  0  0  0
  -27.8028   -4.0797  -28.5755 H   0  0  0  0  0  0
  -28.0721   -2.3383  -30.8570 H   0  0  0  0  0  0
  -29.5261   -3.3903  -30.7811 H   0  0  0  0  0  0
  -27.4579   -1.0605  -28.8748 H   0  0  0  0  0  0
  -28.8784   -0.6117  -27.6871 H   0  0  0  0  0  0
  -25.1200   -4.7321  -28.0724 H   0  0  0  0  0  0
  -24.7163   -1.9474  -27.1657 H   0  0  0  0  0  0
  -24.1525   -4.7057  -26.2269 H   0  0  0  0  0  0
  -22.8315   -3.5677  -25.7948 H   0  0  0  0  0  0
  -24.1373   -2.9383  -24.0410 H   0  0  0  0  0  0
  -25.1724   -2.1064  -25.2505 H   0  0  0  0  0  0
  -26.6836   -2.7070  -23.2073 H   0  0  0  0  0  0
  -27.6056   -4.3542  -23.4652 H   0  0  0  0  0  0
  -23.2634   -3.8389  -29.5759 H   0  0  0  0  0  0
  -20.4928   -3.1660  -29.1645 H   0  0  0  0  0  0
  -22.2305   -3.7368  -31.5994 H   0  0  0  0  0  0
  -20.5303   -3.2152  -31.8522 H   0  0  0  0  0  0
  -21.5108   -5.0493  -28.8041 H   0  0  0  0  0  0
  -19.9023   -5.4136  -32.7906 H   0  0  0  0  0  0
  -20.7263   -7.3551  -28.2784 H   0  0  0  0  0  0
  -19.1231   -7.7199  -32.2644 H   0  0  0  0  0  0
  -19.5359   -8.6895  -30.0107 H   0  0  0  0  0  0
  -23.1415   -1.4576  -30.8983 H   0  0  0  0  0  0
  -21.4596    0.7174  -31.8436 H   0  0  0  0  0  0
  -23.7956    0.2976  -32.6182 H   0  0  0  0  0  0
  -24.4205    0.7015  -30.9832 H   0  0  0  0  0  0
  -21.7550    2.3301  -33.0955 H   0  0  0  0  0  0
  -25.5997    2.7140  -31.1786 H   0  0  0  0  0  0
  -21.8213    4.7411  -33.7119 H   0  0  0  0  0  0
  -25.6679    5.1248  -31.8030 H   0  0  0  0  0  0
  -23.7805    6.1368  -33.0700 H   0  0  0  0  0  0
  -23.5245    0.3376  -28.9348 H   0  0  0  0  0  0
  -21.9602    2.7217  -27.7300 H   0  0  0  0  0  0
  -23.6875    2.3745  -27.3801 H   0  0  0  0  0  0
  -20.3295    1.1234  -27.1878 H   0  0  0  0  0  0
  -21.0588   -1.1313  -25.5239 H   0  0  0  0  0  0
  -18.5890    0.3272  -26.3064 H   0  0  0  0  0  0
  -18.4697   -0.3674  -24.6541 H   0  0  0  0  0  0
  -19.6859   -2.1857  -26.7008 H   0  0  0  0  0  0
  -17.9341   -1.0732  -28.0823 H   0  0  0  0  0  0
  -17.5033   -2.7810  -27.7297 H   0  0  0  0  0  0
  -16.7075   -1.4488  -26.8249 H   0  0  0  0  0  0
  -19.1275   -2.8858  -24.3636 H   0  0  0  0  0  0
  -17.3991   -2.5016  -24.6663 H   0  0  0  0  0  0
  -18.1948   -3.8339  -25.5711 H   0  0  0  0  0  0
  -20.1764    2.2745  -24.7802 H   0  0  0  0  0  0
  -20.0243    1.9114  -21.9195 H   0  0  0  0  0  0
  -24.0388    2.9095  -22.2304 H   0  0  0  0  0  0
  -19.4624    3.9997  -23.3366 H   0  0  0  0  0  0
  -21.2191    4.3743  -23.3186 H   0  0  0  0  0  0
  -21.0801    5.2130  -21.2166 H   0  0  0  0  0  0
  -20.2737    3.7216  -20.6232 H   0  0  0  0  0  0
  -17.2734    5.7545  -23.2284 H   0  0  0  0  0  0
  -19.0164    5.7441  -23.6626 H   0  0  0  0  0  0
  -18.1646    4.1981  -23.3291 H   0  0  0  0  0  0
  1  2  1  0  0  0
  1 96  1  0  0  0
  1 97  1  0  0  0
  1 98  1  0  0  0
  2  3  1  0  0  0
  2  5  1  0  0  0
  2 99  1  0  0  0
  3  4  2  0  0  0
  3 12  1  0  0  0
  5  6  1  0  0  0
  5100  1  0  0  0
  5101  1  0  0  0
  6  7  1  0  0  0
  6102  1  0  0  0
  6103  1  0  0  0
  7  8  1  0  0  0
  7104  1  0  0  0
  7105  1  0  0  0
  8  9  1  0  0  0
  8106  1  0  0  0
  9 10  2  0  0  0
  9 11  1  0  0  0
 10107  1  0  0  0
 11108  1  0  0  0
 11109  1  0  0  0
 12 13  1  0  0  0
 12 18  1  0  0  0
 13 14  1  0  0  0
 13 16  1  0  0  0
 13110  1  0  0  0
 14 15  2  0  0  0
 14 19  1  0  0  0
 16 17  1  0  0  0
 16111  1  0  0  0
 16112  1  0  0  0
 17 18  1  0  0  0
 17113  1  0  0  0
 17114  1  0  0  0
 18115  1  0  0  0
 18116  1  0  0  0
 19 20  1  0  0  0
 19117  1  0  0  0
 20 21  1  0  0  0
 20 23  1  0  0  0
 20118  1  0  0  0
 21 22  2  0  0  0
 21 28  1  0  0  0
 23 24  1  0  0  0
 23119  1  0  0  0
 23120  1  0  0  0
 24 25  1  0  0  0
 24121  1  0  0  0
 24122  1  0  0  0
 25 26  1  0  0  0
 25123  1  0  0  0
 25124  1  0  0  0
 26 27  1  0  0  0
 26125  1  0  0  0
 26126  1  0  0  0
 27127  1  0  0  0
 27128  1  0  0  0
 27129  1  0  0  0
 28 29  1  0  0  0
 28 34  1  0  0  0
 29 30  1  0  0  0
 29 32  1  0  0  0
 29130  1  0  0  0
 30 31  2  0  0  0
 30 35  1  0  0  0
 32 33  1  0  0  0
 32131  1  0  0  0
 32132  1  0  0  0
 33 34  1  0  0  0
 33133  1  0  0  0
 33134  1  0  0  0
 34135  1  0  0  0
 34136  1  0  0  0
 35 36  1  0  0  0
 35137  1  0  0  0
 36 37  1  0  0  0
 36 39  1  0  0  0
 36138  1  0  0  0
 37 38  2  0  0  0
 37 44  1  0  0  0
 39 40  1  0  0  0
 39139  1  0  0  0
 39140  1  0  0  0
 40 41  1  0  0  0
 40141  1  0  0  0
 40142  1  0  0  0
 41 42  2  0  0  0
 41 43  1  0  0  0
 43143  1  0  0  0
 43144  1  0  0  0
 44 45  1  0  0  0
 44145  1  0  0  0
 45 46  1  0  0  0
 45 48  1  0  0  0
 45146  1  0  0  0
 46 47  2  0  0  0
 46 53  1  0  0  0
 48 49  1  0  0  0
 48147  1  0  0  0
 48148  1  0  0  0
 49 50  1  0  0  0
 49149  1  0  0  0
 49150  1  0  0  0
 50 51  2  0  0  0
 50 52  1  0  0  0
 52151  1  0  0  0
 52152  1  0  0  0
 53 54  1  0  0  0
 53153  1  0  0  0
 54 55  1  0  0  0
 54 57  1  0  0  0
 54154  1  0  0  0
 55 56  2  0  0  0
 55 64  1  0  0  0
 57 58  1  0  0  0
 57155  1  0  0  0
 57156  1  0  0  0
 58 59  2  0  0  0
 58 60  1  0  0  0
 59 61  1  0  0  0
 59157  1  0  0  0
 60 62  2  0  0  0
 60158  1  0  0  0
 61 63  2  0  0  0
 61159  1  0  0  0
 62 63  1  0  0  0
 62160  1  0  0  0
 63161  1  0  0  0
 64 65  1  0  0  0
 64162  1  0  0  0
 65 66  1  0  0  0
 65 68  1  0  0  0
 65163  1  0  0  0
 66 67  2  0  0  0
 66 75  1  0  0  0
 68 69  1  0  0  0
 68164  1  0  0  0
 68165  1  0  0  0
 69 70  2  0  0  0
 69 71  1  0  0  0
 70 72  1  0  0  0
 70166  1  0  0  0
 71 73  2  0  0  0
 71167  1  0  0  0
 72 74  2  0  0  0
 72168  1  0  0  0
 73 74  1  0  0  0
 73169  1  0  0  0
 74170  1  0  0  0
 75 76  1  0  0  0
 75171  1  0  0  0
 76 77  1  0  0  0
 76172  1  0  0  0
 76173  1  0  0  0
 77 78  2  0  0  0
 77 79  1  0  0  0
 79 80  1  0  0  0
 79174  1  0  0  0
 80 81  1  0  0  0
 80 83  1  0  0  0
 80175  1  0  0  0
 81 82  2  0  0  0
 81 87  1  0  0  0
 83 84  1  0  0  0
 83176  1  0  0  0
 83177  1  0  0  0
 84 85  1  0  0  0
 84 86  1  0  0  0
 84178  1  0  0  0
 85179  1  0  0  0
 85180  1  0  0  0
 85181  1  0  0  0
 86182  1  0  0  0
 86183  1  0  0  0
 86184  1  0  0  0
 87 88  1  0  0  0
 87185  1  0  0  0
 88 89  1  0  0  0
 88 91  1  0  0  0
 88186  1  0  0  0
 89 90  1  0  0  0
 89 95  2  0  0  0
 90187  1  0  0  0
 91 92  1  0  0  0
 91188  1  0  0  0
 91189  1  0  0  0
 92 93  1  0  0  0
 92190  1  0  0  0
 92191  1  0  0  0
 93 94  1  0  0  0
 94192  1  0  0  0
 94193  1  0  0  0
 94194  1  0  0  0
M  CHG  2   1   1  27   1
M  END
> <s_m_source_file>
../2ksa_ligand.sdf

> <i_m_source_file_index>
1

> <s_epik_input>
W0hdL049QyhbTkgyXSlcW05IXVtDSDJdW0NIMl1bQ0gyXVtDQEhdKFtOSDMrXSlDKD1PKU4xW0NAQEhdKFtDSDJdW0NIMl1bQ0gyXTEpQyg9TylbTkhdW0NAQEhdKFtDSDJdW0NIMl1bQ0gyXVtDSDJdW05IMytdKUMoPU8pTjJbQ0BASF0oW0NIMl1bQ0gyXVtDSDJdMilDKD1PKVtOSF1bQ0BASF0oW0NIMl1bQ0gyXUMoPU8pW05IMl0pQyg9TylbTkhdW0NAQEhdKFtDSDJdW0NIMl1DKD1PKVtOSDJdKUMoPU8pW05IXVtDQEBIXShbQ0gyXWMzW2NIXVtjSF1bY0hdW2NIXVtjSF0zKUMoPU8pW05IXVtDQEBIXShbQ0gyXWM0W2NIXVtjSF1bY0hdW2NIXVtjSF00KUMoPU8pW05IXVtDSDJdQyg9TylbTkhdW0NAQEhdKFtDSDJdW0NIXShbQ0gzXSlbQ0gzXSlDKD1PKVtOSF1bQ0BIXShDKD1PKVtPSF0pW0NIMl1bQ0gyXVNbQ0gzXQ==

> <s_epik_cmdline>
J2VwaWtfYXBwJywgJy1pbWFlJywgJ2xpZ2FuZF9wcm8ubWFlJywgJy1vbWFlJywgJ2xpZ2FuZF9wcmVwLm1hZScsICctbXMnLCAnMScsICctcGgnLCAnNycsICctcGh0JywgJzAuNScsICctbnQn

> <s_epik_pKa_notes>
Molecule size exceeds maximum supported for generating protonation states

> <s_epik_Chemistry_Notes>
This compound has an imine and may undergo hydrolysis.

$$$$
