2ksb_ligand
                    3D
 Schrodinger Suite 2020-3.
194197  0  0  1  0            999 V2000
  -25.6130   -6.3870  -23.8660 N   0  3  0  0  0  0
  -24.8600   -7.5930  -23.4160 C   0  0  2  0  0  0
  -23.3720   -7.3920  -23.7390 C   0  0  0  0  0  0
  -23.0160   -6.5440  -24.5570 O   0  0  0  0  0  0
  -25.4330   -8.8360  -24.1410 C   0  0  0  0  0  0
  -25.9640   -9.8740  -23.1380 C   0  0  0  0  0  0
  -25.5540  -11.2750  -23.6030 C   0  0  0  0  0  0
  -26.7330  -12.0600  -23.9500 N   0  0  0  0  0  0
  -27.0390  -12.3180  -25.2180 C   0  0  0  0  0  0
  -26.2900  -11.8490  -26.1790 N   0  0  0  0  0  0
  -28.0910  -13.0350  -25.5010 N   0  0  0  0  0  0
  -22.5100   -8.1380  -23.0960 N   0  0  0  0  0  0
  -21.0280   -8.0330  -23.2930 C   0  0  2  0  0  0
  -20.5570   -8.4650  -24.6890 C   0  0  0  0  0  0
  -19.4590   -8.1020  -25.1130 O   0  0  0  0  0  0
  -20.4530   -8.9470  -22.1940 C   0  0  0  0  0  0
  -21.5390   -9.9280  -21.8990 C   0  0  0  0  0  0
  -22.8520   -9.1760  -22.1060 C   0  0  0  0  0  0
  -21.3740   -9.2450  -25.3980 N   0  0  0  0  0  0
  -20.9980   -9.7190  -26.7380 C   0  0  2  0  0  0
  -21.2970   -8.6650  -27.8190 C   0  0  0  0  0  0
  -20.4030   -8.3000  -28.5800 O   0  0  0  0  0  0
  -21.7040  -11.0620  -27.0860 C   0  0  0  0  0  0
  -20.9510  -11.7750  -28.2090 C   0  0  0  0  0  0
  -20.1960  -13.0010  -27.6570 C   0  0  0  0  0  0
  -18.6890  -12.7250  -27.6530 C   0  0  0  0  0  0
  -18.0510  -13.4490  -28.7880 N   0  3  0  0  0  0
  -22.5170   -8.1840  -27.9230 N   0  0  0  0  0  0
  -22.8800   -7.1760  -28.9580 C   0  0  2  0  0  0
  -22.0660   -5.8900  -28.8100 C   0  0  0  0  0  0
  -21.8250   -5.1810  -29.7860 O   0  0  0  0  0  0
  -24.3860   -6.9310  -28.7350 C   0  0  0  0  0  0
  -24.6530   -7.3870  -27.3410 C   0  0  0  0  0  0
  -23.6740   -8.5280  -27.0850 C   0  0  0  0  0  0
  -21.6360   -5.6030  -27.5820 N   0  0  0  0  0  0
  -20.8390   -4.4070  -27.3100 C   0  0  2  0  0  0
  -19.3590   -4.7410  -27.3410 C   0  0  0  0  0  0
  -18.6130   -4.3930  -26.4300 O   0  0  0  0  0  0
  -21.2110   -3.8220  -25.9420 C   0  0  0  0  0  0
  -22.5720   -3.1280  -26.0320 C   0  0  0  0  0  0
  -23.0560   -2.7560  -24.6340 C   0  0  0  0  0  0
  -23.6690   -3.5750  -23.9510 O   0  0  0  0  0  0
  -22.8160   -1.5590  -24.1640 N   0  0  0  0  0  0
  -18.9390   -5.3900  -28.4150 N   0  0  0  0  0  0
  -17.5390   -5.7380  -28.5800 C   0  0  2  0  0  0
  -16.8160   -4.5300  -29.1480 C   0  0  0  0  0  0
  -15.7070   -4.6320  -29.6730 O   0  0  0  0  0  0
  -17.3930   -6.9470  -29.5190 C   0  0  0  0  0  0
  -16.3760   -7.9440  -28.9470 C   0  0  0  0  0  0
  -16.8900   -8.5430  -27.6420 C   0  0  0  0  0  0
  -16.4490   -8.1480  -26.5610 O   0  0  0  0  0  0
  -17.8000   -9.4760  -27.6780 N   0  0  0  0  0  0
  -17.4780   -3.3820  -29.0340 N   0  0  0  0  0  0
  -16.9320   -2.1350  -29.5330 C   0  0  2  0  0  0
  -15.8400   -1.6140  -28.6050 C   0  0  0  0  0  0
  -15.5220   -0.4250  -28.6130 O   0  0  0  0  0  0
  -18.0360   -1.0820  -29.6580 C   0  0  0  0  0  0
  -18.9240   -1.4120  -30.8380 C   0  0  0  0  0  0
  -18.4960   -1.1180  -32.1390 C   0  0  0  0  0  0
  -20.1740   -2.0130  -30.6340 C   0  0  0  0  0  0
  -19.3150   -1.4240  -33.2320 C   0  0  0  0  0  0
  -20.9910   -2.3210  -31.7270 C   0  0  0  0  0  0
  -20.5620   -2.0250  -33.0270 C   0  0  0  0  0  0
  -15.2710   -2.5080  -27.8020 N   0  0  0  0  0  0
  -14.2190   -2.1190  -26.8720 C   0  0  2  0  0  0
  -12.9110   -1.8900  -27.6200 C   0  0  0  0  0  0
  -11.8500   -1.7580  -27.0120 O   0  0  0  0  0  0
  -14.0100   -3.2060  -25.8160 C   0  0  0  0  0  0
  -15.3160   -3.4930  -25.1100 C   0  0  0  0  0  0
  -16.2480   -2.4670  -24.9070 C   0  0  0  0  0  0
  -15.6000   -4.7900  -24.6660 C   0  0  0  0  0  0
  -17.4590   -2.7350  -24.2580 C   0  0  0  0  0  0
  -16.8120   -5.0600  -24.0170 C   0  0  0  0  0  0
  -17.7400   -4.0320  -23.8140 C   0  0  0  0  0  0
  -12.9920   -1.8500  -28.9450 N   0  0  0  0  0  0
  -11.8060   -1.6410  -29.7660 C   0  0  0  0  0  0
  -11.1180   -0.3280  -29.4090 C   0  0  0  0  0  0
  -10.0020   -0.0610  -29.8550 O   0  0  0  0  0  0
  -11.7900    0.4940  -28.6050 N   0  0  0  0  0  0
  -11.2270    1.7790  -28.2010 C   0  0  2  0  0  0
  -10.0500    1.5790  -27.2520 C   0  0  0  0  0  0
   -9.0260    2.2510  -27.3700 O   0  0  0  0  0  0
  -12.2990    2.6190  -27.5010 C   0  0  0  0  0  0
  -12.1140    4.1070  -27.8340 C   0  0  0  0  0  0
  -13.1440    4.5100  -28.8950 C   0  0  0  0  0  0
  -12.3050    4.9730  -26.5720 C   0  0  0  0  0  0
  -10.2000    0.6500  -26.3120 N   0  0  0  0  0  0
   -9.1410    0.3700  -25.3460 C   0  0  2  0  0  0
   -8.1350   -0.6150  -25.9320 C   0  0  0  0  0  0
   -8.3310   -1.0310  -27.0610 O   0  0  0  0  0  0
   -9.7360   -0.2040  -24.0600 C   0  0  0  0  0  0
  -10.9030    0.6700  -23.5970 C   0  0  0  0  0  0
  -10.2760    2.0860  -22.6530 S   0  0  0  0  0  0
  -11.4290    3.3400  -23.2730 C   0  0  0  0  0  0
   -7.1840   -0.9420  -25.2400 O   0  0  0  0  0  0
  -25.2156   -5.4959  -23.3580 H   0  0  0  0  0  0
  -26.6780   -6.5061  -23.6180 H   0  0  0  0  0  0
  -25.5008   -6.2695  -24.9539 H   0  0  0  0  0  0
  -24.9776   -7.7120  -22.3288 H   0  0  0  0  0  0
  -26.2608   -8.5287  -24.7970 H   0  0  0  0  0  0
  -24.6421   -9.3057  -24.7442 H   0  0  0  0  0  0
  -25.5379   -9.6745  -22.1437 H   0  0  0  0  0  0
  -27.0608   -9.8070  -23.0871 H   0  0  0  0  0  0
  -24.9052  -11.1925  -24.4875 H   0  0  0  0  0  0
  -25.0091  -11.7848  -22.7948 H   0  0  0  0  0  0
  -27.3871  -12.4501  -23.1563 H   0  0  0  0  0  0
  -25.4028  -11.2443  -25.9396 H   0  0  0  0  0  0
  -26.5461  -12.0585  -27.2281 H   0  0  0  0  0  0
  -28.7217  -13.4299  -24.6908 H   0  0  0  0  0  0
  -20.7121   -6.9818  -23.2206 H   0  0  0  0  0  0
  -19.5468   -9.4454  -22.5686 H   0  0  0  0  0  0
  -20.2005   -8.3432  -21.3099 H   0  0  0  0  0  0
  -21.4576  -10.7828  -22.5865 H   0  0  0  0  0  0
  -21.4423  -10.2812  -20.8618 H   0  0  0  0  0  0
  -23.2081   -8.6979  -21.1816 H   0  0  0  0  0  0
  -23.6431   -9.8236  -22.5120 H   0  0  0  0  0  0
  -22.3431   -9.5331  -24.9645 H   0  0  0  0  0  0
  -19.9100   -9.8648  -26.6679 H   0  0  0  0  0  0
  -21.7218  -11.7082  -26.1960 H   0  0  0  0  0  0
  -22.7346  -10.8604  -27.4134 H   0  0  0  0  0  0
  -21.6660  -12.1099  -28.9749 H   0  0  0  0  0  0
  -20.2263  -11.0824  -28.6619 H   0  0  0  0  0  0
  -20.5307  -13.2055  -26.6293 H   0  0  0  0  0  0
  -20.4036  -13.8755  -28.2911 H   0  0  0  0  0  0
  -18.5139  -11.6445  -27.7614 H   0  0  0  0  0  0
  -18.2549  -13.0735  -26.7042 H   0  0  0  0  0  0
  -16.9688  -13.2519  -28.7866 H   0  0  0  0  0  0
  -18.4860  -13.1003  -29.7362 H   0  0  0  0  0  0
  -18.2271  -14.5293  -28.6791 H   0  0  0  0  0  0
  -22.6444   -7.5506  -29.9650 H   0  0  0  0  0  0
  -24.6057   -5.8604  -28.8596 H   0  0  0  0  0  0
  -24.9645   -7.5118  -29.4685 H   0  0  0  0  0  0
  -24.4858   -6.5526  -26.6439 H   0  0  0  0  0  0
  -25.6954   -7.7288  -27.2603 H   0  0  0  0  0  0
  -24.0767   -9.5026  -27.3981 H   0  0  0  0  0  0
  -23.3609   -8.5819  -26.0319 H   0  0  0  0  0  0
  -21.8937   -6.2903  -26.7627 H   0  0  0  0  0  0
  -21.0737   -3.6937  -28.1138 H   0  0  0  0  0  0
  -21.2623   -4.6314  -25.1988 H   0  0  0  0  0  0
  -20.4480   -3.0911  -25.6360 H   0  0  0  0  0  0
  -22.4789   -2.2156  -26.6393 H   0  0  0  0  0  0
  -23.2997   -3.8072  -26.5000 H   0  0  0  0  0  0
  -22.2677   -0.8276  -24.7759 H   0  0  0  0  0  0
  -23.1625   -1.2839  -23.1569 H   0  0  0  0  0  0
  -19.6694   -5.6661  -29.1898 H   0  0  0  0  0  0
  -17.1455   -5.9951  -27.5855 H   0  0  0  0  0  0
  -18.3665   -7.4478  -29.6260 H   0  0  0  0  0  0
  -17.0461   -6.6054  -30.5054 H   0  0  0  0  0  0
  -16.2105   -8.7551  -29.6714 H   0  0  0  0  0  0
  -15.4250   -7.4266  -28.7522 H   0  0  0  0  0  0
  -18.1911   -9.8258  -28.6448 H   0  0  0  0  0  0
  -18.1767   -9.9133  -26.7416 H   0  0  0  0  0  0
  -18.4639   -3.3946  -28.5463 H   0  0  0  0  0  0
  -16.5098   -2.3824  -30.5182 H   0  0  0  0  0  0
  -18.6397   -1.0728  -28.7385 H   0  0  0  0  0  0
  -17.5824   -0.0913  -29.8087 H   0  0  0  0  0  0
  -17.5246   -0.6506  -32.3003 H   0  0  0  0  0  0
  -20.5098   -2.2406  -29.6223 H   0  0  0  0  0  0
  -18.9812   -1.1940  -34.2438 H   0  0  0  0  0  0
  -21.9612   -2.7912  -31.5669 H   0  0  0  0  0  0
  -21.1993   -2.2627  -33.8788 H   0  0  0  0  0  0
  -15.6057   -3.5549  -27.8472 H   0  0  0  0  0  0
  -14.5672   -1.1853  -26.4063 H   0  0  0  0  0  0
  -13.6499   -4.1248  -26.3019 H   0  0  0  0  0  0
  -13.2666   -2.8647  -25.0806 H   0  0  0  0  0  0
  -16.0297   -1.4575  -25.2553 H   0  0  0  0  0  0
  -14.8776   -5.5905  -24.8254 H   0  0  0  0  0  0
  -18.1818   -1.9348  -24.0988 H   0  0  0  0  0  0
  -17.0320   -6.0698  -23.6705 H   0  0  0  0  0  0
  -18.6830   -4.2420  -23.3093 H   0  0  0  0  0  0
  -13.9752   -1.9778  -29.4214 H   0  0  0  0  0  0
  -11.0971   -2.4661  -29.6029 H   0  0  0  0  0  0
  -12.0951   -1.6104  -30.8269 H   0  0  0  0  0  0
  -12.7843    0.1915  -28.2446 H   0  0  0  0  0  0
  -10.8855    2.2600  -29.1294 H   0  0  0  0  0  0
  -13.2953    2.2972  -27.8385 H   0  0  0  0  0  0
  -12.2189    2.4825  -26.4124 H   0  0  0  0  0  0
  -11.0964    4.2655  -28.2205 H   0  0  0  0  0  0
  -13.0058    3.8912  -29.7938 H   0  0  0  0  0  0
  -13.0070    5.5700  -29.1550 H   0  0  0  0  0  0
  -14.1584    4.3581  -28.4976 H   0  0  0  0  0  0
  -11.5648    4.6820  -25.8121 H   0  0  0  0  0  0
  -13.3189    4.8213  -26.1732 H   0  0  0  0  0  0
  -12.1675    6.0333  -26.8307 H   0  0  0  0  0  0
  -11.1446    0.0878  -26.2710 H   0  0  0  0  0  0
   -8.6522    1.3348  -25.1453 H   0  0  0  0  0  0
  -10.0976   -1.2258  -24.2475 H   0  0  0  0  0  0
   -8.9639   -0.2263  -23.2768 H   0  0  0  0  0  0
  -11.4579    1.0352  -24.4737 H   0  0  0  0  0  0
  -11.5746    0.0770  -22.9589 H   0  0  0  0  0  0
  -11.2052    4.3086  -22.8021 H   0  0  0  0  0  0
  -12.4597    3.0430  -23.0290 H   0  0  0  0  0  0
  -11.3217    3.4292  -24.3641 H   0  0  0  0  0  0
   -6.4382   -1.6505  -25.6296 H   0  0  0  0  0  0
  1  2  1  0  0  0
  1 96  1  0  0  0
  1 97  1  0  0  0
  1 98  1  0  0  0
  2  3  1  0  0  0
  2  5  1  0  0  0
  2 99  1  0  0  0
  3  4  2  0  0  0
  3 12  1  0  0  0
  5  6  1  0  0  0
  5100  1  0  0  0
  5101  1  0  0  0
  6  7  1  0  0  0
  6102  1  0  0  0
  6103  1  0  0  0
  7  8  1  0  0  0
  7104  1  0  0  0
  7105  1  0  0  0
  8  9  1  0  0  0
  8106  1  0  0  0
  9 10  1  0  0  0
  9 11  2  0  0  0
 10107  1  0  0  0
 10108  1  0  0  0
 11109  1  0  0  0
 12 13  1  0  0  0
 12 18  1  0  0  0
 13 14  1  0  0  0
 13 16  1  0  0  0
 13110  1  0  0  0
 14 15  2  0  0  0
 14 19  1  0  0  0
 16 17  1  0  0  0
 16111  1  0  0  0
 16112  1  0  0  0
 17 18  1  0  0  0
 17113  1  0  0  0
 17114  1  0  0  0
 18115  1  0  0  0
 18116  1  0  0  0
 19 20  1  0  0  0
 19117  1  0  0  0
 20 21  1  0  0  0
 20 23  1  0  0  0
 20118  1  0  0  0
 21 22  2  0  0  0
 21 28  1  0  0  0
 23 24  1  0  0  0
 23119  1  0  0  0
 23120  1  0  0  0
 24 25  1  0  0  0
 24121  1  0  0  0
 24122  1  0  0  0
 25 26  1  0  0  0
 25123  1  0  0  0
 25124  1  0  0  0
 26 27  1  0  0  0
 26125  1  0  0  0
 26126  1  0  0  0
 27127  1  0  0  0
 27128  1  0  0  0
 27129  1  0  0  0
 28 29  1  0  0  0
 28 34  1  0  0  0
 29 30  1  0  0  0
 29 32  1  0  0  0
 29130  1  0  0  0
 30 31  2  0  0  0
 30 35  1  0  0  0
 32 33  1  0  0  0
 32131  1  0  0  0
 32132  1  0  0  0
 33 34  1  0  0  0
 33133  1  0  0  0
 33134  1  0  0  0
 34135  1  0  0  0
 34136  1  0  0  0
 35 36  1  0  0  0
 35137  1  0  0  0
 36 37  1  0  0  0
 36 39  1  0  0  0
 36138  1  0  0  0
 37 38  2  0  0  0
 37 44  1  0  0  0
 39 40  1  0  0  0
 39139  1  0  0  0
 39140  1  0  0  0
 40 41  1  0  0  0
 40141  1  0  0  0
 40142  1  0  0  0
 41 42  2  0  0  0
 41 43  1  0  0  0
 43143  1  0  0  0
 43144  1  0  0  0
 44 45  1  0  0  0
 44145  1  0  0  0
 45 46  1  0  0  0
 45 48  1  0  0  0
 45146  1  0  0  0
 46 47  2  0  0  0
 46 53  1  0  0  0
 48 49  1  0  0  0
 48147  1  0  0  0
 48148  1  0  0  0
 49 50  1  0  0  0
 49149  1  0  0  0
 49150  1  0  0  0
 50 51  2  0  0  0
 50 52  1  0  0  0
 52151  1  0  0  0
 52152  1  0  0  0
 53 54  1  0  0  0
 53153  1  0  0  0
 54 55  1  0  0  0
 54 57  1  0  0  0
 54154  1  0  0  0
 55 56  2  0  0  0
 55 64  1  0  0  0
 57 58  1  0  0  0
 57155  1  0  0  0
 57156  1  0  0  0
 58 59  2  0  0  0
 58 60  1  0  0  0
 59 61  1  0  0  0
 59157  1  0  0  0
 60 62  2  0  0  0
 60158  1  0  0  0
 61 63  2  0  0  0
 61159  1  0  0  0
 62 63  1  0  0  0
 62160  1  0  0  0
 63161  1  0  0  0
 64 65  1  0  0  0
 64162  1  0  0  0
 65 66  1  0  0  0
 65 68  1  0  0  0
 65163  1  0  0  0
 66 67  2  0  0  0
 66 75  1  0  0  0
 68 69  1  0  0  0
 68164  1  0  0  0
 68165  1  0  0  0
 69 70  2  0  0  0
 69 71  1  0  0  0
 70 72  1  0  0  0
 70166  1  0  0  0
 71 73  2  0  0  0
 71167  1  0  0  0
 72 74  2  0  0  0
 72168  1  0  0  0
 73 74  1  0  0  0
 73169  1  0  0  0
 74170  1  0  0  0
 75 76  1  0  0  0
 75171  1  0  0  0
 76 77  1  0  0  0
 76172  1  0  0  0
 76173  1  0  0  0
 77 78  2  0  0  0
 77 79  1  0  0  0
 79 80  1  0  0  0
 79174  1  0  0  0
 80 81  1  0  0  0
 80 83  1  0  0  0
 80175  1  0  0  0
 81 82  2  0  0  0
 81 87  1  0  0  0
 83 84  1  0  0  0
 83176  1  0  0  0
 83177  1  0  0  0
 84 85  1  0  0  0
 84 86  1  0  0  0
 84178  1  0  0  0
 85179  1  0  0  0
 85180  1  0  0  0
 85181  1  0  0  0
 86182  1  0  0  0
 86183  1  0  0  0
 86184  1  0  0  0
 87 88  1  0  0  0
 87185  1  0  0  0
 88 89  1  0  0  0
 88 91  1  0  0  0
 88186  1  0  0  0
 89 90  2  0  0  0
 89 95  1  0  0  0
 91 92  1  0  0  0
 91187  1  0  0  0
 91188  1  0  0  0
 92 93  1  0  0  0
 92189  1  0  0  0
 92190  1  0  0  0
 93 94  1  0  0  0
 94191  1  0  0  0
 94192  1  0  0  0
 94193  1  0  0  0
 95194  1  0  0  0
M  CHG  2   1   1  27   1
M  END
> <s_m_source_file>
../2ksb_ligand.sdf

> <i_m_source_file_index>
1

> <s_epik_input>
W0hdL049QyhbTkgyXSlcW05IXVtDSDJdW0NIMl1bQ0gyXVtDQEhdKFtOSDMrXSlDKD1PKU4xW0NAQEhdKFtDSDJdW0NIMl1bQ0gyXTEpQyg9TylbTkhdW0NAQEhdKFtDSDJdW0NIMl1bQ0gyXVtDSDJdW05IMytdKUMoPU8pTjJbQ0BASF0oW0NIMl1bQ0gyXVtDSDJdMilDKD1PKVtOSF1bQ0BASF0oW0NIMl1bQ0gyXUMoPU8pW05IMl0pQyg9TylbTkhdW0NAQEhdKFtDSDJdW0NIMl1DKD1PKVtOSDJdKUMoPU8pW05IXVtDQEBIXShbQ0gyXWMzW2NIXVtjSF1bY0hdW2NIXVtjSF0zKUMoPU8pW05IXVtDQEBIXShbQ0gyXWM0W2NIXVtjSF1bY0hdW2NIXVtjSF00KUMoPU8pW05IXVtDSDJdQyg9TylbTkhdW0NAQEhdKFtDSDJdW0NIXShbQ0gzXSlbQ0gzXSlDKD1PKVtOSF1bQ0BIXShDKD1PKVtPSF0pW0NIMl1bQ0gyXVNbQ0gzXQ==

> <s_epik_cmdline>
J2VwaWtfYXBwJywgJy1pbWFlJywgJ2xpZ2FuZF9wcm8ubWFlJywgJy1vbWFlJywgJ2xpZ2FuZF9wcmVwLm1hZScsICctbXMnLCAnMScsICctcGgnLCAnNycsICctcGh0JywgJzAuNScsICctbnQn

> <s_epik_pKa_notes>
Molecule size exceeds maximum supported for generating protonation states

> <s_epik_Chemistry_Notes>
This compound has an imine and may undergo hydrolysis.

$$$$
