2ksp_ligand
                    3D
 Schrodinger Suite 2020-3.
248251  0  0  1  0            999 V2000
    8.6790   19.4830    4.9350 N   0  3  0  0  0  0
    7.5390   18.5600    5.1330 C   0  0  2  0  0  0
    7.1430   17.8790    3.8240 C   0  0  0  0  0  0
    6.3180   16.9620    3.8190 O   0  0  0  0  0  0
    6.3240   19.3010    5.7160 C   0  0  0  0  0  0
    5.6130   20.2880    4.7780 C   0  0  0  0  0  0
    4.2670   20.6700    5.3640 C   0  0  0  0  0  0
    6.4500   21.5410    4.5470 C   0  0  0  0  0  0
    7.7180   18.3170    2.7090 N   0  0  0  0  0  0
    7.3480   17.7610    1.4160 C   0  0  2  0  0  0
    8.1300   16.4950    1.1120 C   0  0  0  0  0  0
    7.6190   15.5910    0.4540 O   0  0  0  0  0  0
    7.5170   18.7950    0.3080 C   0  0  0  0  0  0
    6.4530   19.8740    0.3670 C   0  0  0  0  0  0
    5.0640   19.2820    0.4870 C   0  0  0  0  0  0
    4.5690   18.7080   -0.5010 O   0  0  0  0  0  0
    4.4450   19.4230    1.5610 O   0  0  0  0  0  0
    9.3560   16.4260    1.5990 N   0  0  0  0  0  0
   10.1210   15.1980    1.5120 C   0  0  2  0  0  0
    9.5340   14.1980    2.5030 C   0  0  0  0  0  0
    9.7050   14.3470    3.7140 O   0  0  0  0  0  0
   11.5940   15.4680    1.8250 C   0  0  0  0  0  0
   12.0890   16.5500    1.0490 O   0  0  0  0  0  0
    8.8090   13.2080    1.9950 N   0  0  0  0  0  0
    8.0860   12.2860    2.8550 C   0  0  2  0  0  0
    8.9840   11.1290    3.2980 C   0  0  0  0  0  0
    9.2930   10.2270    2.5180 O   0  0  0  0  0  0
    6.8350   11.7630    2.1380 C   0  0  0  0  0  0
    5.8280   12.8540    1.7690 C   0  0  0  0  0  0
    5.2820   13.5640    3.0040 C   0  0  0  0  0  0
    4.1590   14.5420    2.6610 C   0  0  0  0  0  0
    4.6390   15.7020    1.8620 N   0  3  0  0  0  0
    9.3950   11.1310    4.5760 N   0  0  0  0  0  0
   10.3660   10.1800    5.1090 C   0  0  2  0  0  0
    9.7300    8.8690    5.5600 C   0  0  0  0  0  0
   10.3490    8.0760    6.2710 O   0  0  0  0  0  0
   10.9670   10.9210    6.3130 C   0  0  0  0  0  0
   10.1430   12.1620    6.5120 C   0  0  0  0  0  0
    8.9460   12.0560    5.6130 C   0  0  0  0  0  0
    8.5010    8.6390    5.1280 N   0  0  0  0  0  0
    7.7650    7.4450    5.5140 C   0  0  2  0  0  0
    7.8530    6.4070    4.4100 C   0  0  0  0  0  0
    7.2680    5.3280    4.5000 O   0  0  0  0  0  0
    6.3000    7.7840    5.7920 C   0  0  0  0  0  0
    6.1180    8.8670    6.8260 C   0  0  0  0  0  0
    6.0400    8.5600    8.1770 C   0  0  0  0  0  0
    6.0270   10.1980    6.4480 C   0  0  0  0  0  0
    5.8720    9.5500    9.1230 C   0  0  0  0  0  0
    5.8620   11.1950    7.3890 C   0  0  0  0  0  0
    5.7850   10.8650    8.7250 C   0  0  0  0  0  0
    5.6160   11.8500    9.6680 O   0  0  0  0  0  0
    8.5930    6.7520    3.3710 N   0  0  0  0  0  0
    8.7120    5.9090    2.1990 C   0  0  2  0  0  0
   10.1520    5.4190    2.0590 C   0  0  0  0  0  0
   11.0730    6.2200    1.9000 O   0  0  0  0  0  0
    8.2830    6.7000    0.9590 C   0  0  0  0  0  0
    8.1280    5.8440   -0.2870 C   0  0  0  0  0  0
    8.7130    4.7730   -0.4060 O   0  0  0  0  0  0
    7.3570    6.3330   -1.2440 N   0  0  0  0  0  0
   10.3630    4.0920    2.1290 N   0  0  0  0  0  0
   11.6960    3.4870    2.0040 C   0  0  2  0  0  0
   12.2340    3.5420    0.5750 C   0  0  0  0  0  0
   13.3380    3.0860    0.2970 O   0  0  0  0  0  0
   11.4690    2.0370    2.4320 C   0  0  0  0  0  0
   10.0390    1.7720    2.1210 C   0  0  0  0  0  0
    9.3210    3.0740    2.3540 C   0  0  0  0  0  0
   11.4290    4.0570   -0.3350 N   0  0  0  0  0  0
   11.8590    4.2570   -1.7050 C   0  0  2  0  0  0
   12.0510    5.7430   -1.9590 C   0  0  0  0  0  0
   12.3150    6.1730   -3.0810 O   0  0  0  0  0  0
   10.8270    3.6740   -2.6670 C   0  0  0  0  0  0
   10.3940    2.2950   -2.2770 C   0  0  0  0  0  0
   11.2520    1.2230   -2.4220 C   0  0  0  0  0  0
    9.1300    2.0720   -1.7550 C   0  0  0  0  0  0
   10.8620   -0.0480   -2.0550 C   0  0  0  0  0  0
    8.7330    0.8040   -1.3860 C   0  0  0  0  0  0
    9.6010   -0.2570   -1.5360 C   0  0  0  0  0  0
   11.9180    6.5110   -0.8910 N   0  0  0  0  0  0
   12.0120    7.9570   -0.9540 C   0  0  2  0  0  0
   12.9960    8.4260    0.1160 C   0  0  0  0  0  0
   13.0350    9.5980    0.4910 O   0  0  0  0  0  0
   10.6120    8.5420   -0.7280 C   0  0  0  0  0  0
   10.4150    9.9740   -1.2020 C   0  0  0  0  0  0
    8.9550   10.3930   -1.1470 C   0  0  0  0  0  0
    8.0780    9.5990   -1.5450 O   0  0  0  0  0  0
    8.6720   11.5320   -0.6970 O   0  0  0  0  0  0
   13.7990    7.4820    0.5960 N   0  0  0  0  0  0
   14.7670    7.7540    1.6480 C   0  0  2  0  0  0
   16.0040    8.4740    1.0980 C   0  0  0  0  0  0
   16.9930    7.8460    0.7240 O   0  0  0  0  0  0
   15.1450    6.4560    2.3900 C   0  0  0  0  0  0
   15.3710    5.2550    1.4790 C   0  0  0  0  0  0
   15.6460    3.9600    2.2370 C   0  0  0  0  0  0
   14.7070    3.3900    2.8450 O   0  0  0  0  0  0
   16.7960    3.4790    2.1970 O   0  0  0  0  0  0
   15.9010    9.8110    1.0460 N   0  0  0  0  0  0
   16.9730   10.7040    0.5890 C   0  0  2  0  0  0
   17.1730   10.6190   -0.9280 C   0  0  0  0  0  0
   16.9370    9.5840   -1.5460 O   0  0  0  0  0  0
   18.2820   10.4370    1.3430 C   0  0  0  0  0  0
   18.1240   10.5460    2.8510 C   0  0  0  0  0  0
   19.4440   10.5080    3.5900 C   0  0  0  0  0  0
   20.1180    9.4590    3.5730 O   0  0  0  0  0  0
   19.8030   11.5240    4.2180 O   0  0  0  0  0  0
   17.5890   11.7290   -1.5290 N   0  0  0  0  0  0
   17.6700   11.8100   -2.9810 C   0  0  2  0  0  0
   19.1200   11.7390   -3.4630 C   0  0  0  0  0  0
   19.5520   10.7270   -4.0150 O   0  0  0  0  0  0
   17.0090   13.1010   -3.4780 C   0  0  0  0  0  0
   16.7610   13.1180   -4.9780 C   0  0  0  0  0  0
   16.2320   14.4470   -5.4750 C   0  0  0  0  0  0
   15.1000   14.8160   -5.0950 O   0  0  0  0  0  0
   16.9430   15.1320   -6.2390 O   0  0  0  0  0  0
   19.8670   12.8150   -3.2550 N   0  0  0  0  0  0
   21.2510   12.8820   -3.7230 C   0  0  2  0  0  0
   22.2000   13.0340   -2.5440 C   0  0  0  0  0  0
   23.3730   12.6600   -2.6150 O   0  0  0  0  0  0
   21.4280   14.0600   -4.6770 C   0  0  0  0  0  0
   20.4240   14.0860   -5.8170 C   0  0  0  0  0  0
   20.7450   15.1520   -6.8390 C   0  0  0  0  0  0
   20.5100   16.3460   -6.5560 O   0  0  0  0  0  0
   21.2560   14.7990   -7.9220 O   0  0  0  0  0  0
   21.6690   13.5950   -1.4740 N   0  0  0  0  0  0
   22.4070   13.8220   -0.2440 C   0  0  2  0  0  0
   21.4700   13.6310    0.9270 C   0  0  0  0  0  0
   21.7490   12.7680    1.7810 O   0  0  0  0  0  0
   22.9980   15.2370   -0.2010 C   0  0  0  0  0  0
   24.3820   15.3250   -0.8100 C   0  0  0  0  0  0
   24.4890   15.5830   -2.0280 O   0  0  0  0  0  0
   25.3740   15.1700   -0.0640 O   0  0  0  0  0  0
   20.4280   14.3230    0.9570 O   0  0  0  0  0  0
    9.5322   18.9278    4.5181 H   0  0  0  0  0  0
    8.9655   19.9243    5.9010 H   0  0  0  0  0  0
    8.3865   20.2828    4.2388 H   0  0  0  0  0  0
    7.9016   17.8033    5.8443 H   0  0  0  0  0  0
    5.5603   18.5702    6.0204 H   0  0  0  0  0  0
    6.6383   19.8889    6.5910 H   0  0  0  0  0  0
    5.4608   19.7999    3.8040 H   0  0  0  0  0  0
    3.6678   19.7623    5.5284 H   0  0  0  0  0  0
    3.7391   21.3365    4.6661 H   0  0  0  0  0  0
    4.4181   21.1882    6.3224 H   0  0  0  0  0  0
    7.4244   21.2579    4.1222 H   0  0  0  0  0  0
    6.6043   22.0605    5.5043 H   0  0  0  0  0  0
    5.9252   22.2087    3.8479 H   0  0  0  0  0  0
    8.4804   19.1076    2.7699 H   0  0  0  0  0  0
    6.2837   17.5000    1.5119 H   0  0  0  0  0  0
    8.5004   19.2783    0.4044 H   0  0  0  0  0  0
    7.4470   18.2982   -0.6709 H   0  0  0  0  0  0
    6.6322   20.5183    1.2403 H   0  0  0  0  0  0
    6.4939   20.4799   -0.5502 H   0  0  0  0  0  0
    3.4348   19.0022    1.6729 H   0  0  0  0  0  0
    9.7953   17.3151    2.0749 H   0  0  0  0  0  0
   10.0312   14.8285    0.4798 H   0  0  0  0  0  0
   11.7024   15.7193    2.8904 H   0  0  0  0  0  0
   12.1877   14.5703    1.5978 H   0  0  0  0  0  0
   13.1357   16.8706    1.1569 H   0  0  0  0  0  0
    8.7616   13.0927    0.9021 H   0  0  0  0  0  0
    7.7980   12.8760    3.7376 H   0  0  0  0  0  0
    7.1299   11.2637    1.2033 H   0  0  0  0  0  0
    6.3128   11.0455    2.7880 H   0  0  0  0  0  0
    6.3170   13.6029    1.1287 H   0  0  0  0  0  0
    4.9825   12.4046    1.2276 H   0  0  0  0  0  0
    4.8823   12.8195    3.7082 H   0  0  0  0  0  0
    6.0908   14.1303    3.4890 H   0  0  0  0  0  0
    3.3869   14.0226    2.0744 H   0  0  0  0  0  0
    3.7148   14.9304    3.5893 H   0  0  0  0  0  0
    3.7940   16.3716    1.6436 H   0  0  0  0  0  0
    5.0749   15.3420    0.9184 H   0  0  0  0  0  0
    5.4028   16.2498    2.4334 H   0  0  0  0  0  0
   11.0779    9.9104    4.3150 H   0  0  0  0  0  0
   10.9212   10.2743    7.2017 H   0  0  0  0  0  0
   12.0152   11.1774    6.0998 H   0  0  0  0  0  0
    9.8293   12.2290    7.5642 H   0  0  0  0  0  0
   10.7430   13.0463    6.2513 H   0  0  0  0  0  0
    8.6755   13.0183    5.1538 H   0  0  0  0  0  0
    8.0685   11.6347    6.1253 H   0  0  0  0  0  0
    8.0367    9.3793    4.4599 H   0  0  0  0  0  0
    8.2487    7.0715    6.4286 H   0  0  0  0  0  0
    5.8216    8.1311    4.8643 H   0  0  0  0  0  0
    5.7795    6.8874    6.1596 H   0  0  0  0  0  0
    6.1126    7.5202    8.4958 H   0  0  0  0  0  0
    6.0866   10.4613    5.3920 H   0  0  0  0  0  0
    5.8085    9.2923   10.1802 H   0  0  0  0  0  0
    5.7930   12.2371    7.0770 H   0  0  0  0  0  0
    5.5546   11.5861   10.7341 H   0  0  0  0  0  0
    9.1281    7.7121    3.4145 H   0  0  0  0  0  0
    8.0425    5.0503    2.3551 H   0  0  0  0  0  0
    7.3123    7.1813    1.1489 H   0  0  0  0  0  0
    9.0366    7.4697    0.7362 H   0  0  0  0  0  0
    6.8479    7.2976   -1.1011 H   0  0  0  0  0  0
    7.2249    5.7751   -2.1828 H   0  0  0  0  0  0
   12.4163    4.0438    2.6214 H   0  0  0  0  0  0
   12.1402    1.3773    1.8626 H   0  0  0  0  0  0
   11.6794    1.9347    3.5068 H   0  0  0  0  0  0
    9.9456    1.4464    1.0745 H   0  0  0  0  0  0
    9.6594    0.9822    2.7860 H   0  0  0  0  0  0
    8.9388    3.1614    3.3818 H   0  0  0  0  0  0
    8.4970    3.2291    1.6420 H   0  0  0  0  0  0
   10.4092    4.3368   -0.0322 H   0  0  0  0  0  0
   12.8160    3.7272   -1.8210 H   0  0  0  0  0  0
    9.9349    4.3174   -2.6818 H   0  0  0  0  0  0
   11.2572    3.6205   -3.6780 H   0  0  0  0  0  0
   12.2494    1.3831   -2.8314 H   0  0  0  0  0  0
    8.4416    2.9085   -1.6347 H   0  0  0  0  0  0
   11.5489   -0.8858   -2.1748 H   0  0  0  0  0  0
    7.7359    0.6408   -0.9769 H   0  0  0  0  0  0
    9.2908   -1.2605   -1.2446 H   0  0  0  0  0  0
   11.7294    6.0135    0.0718 H   0  0  0  0  0  0
   12.3851    8.2438   -1.9483 H   0  0  0  0  0  0
    9.8693    7.9332   -1.2644 H   0  0  0  0  0  0
   10.3819    8.5374    0.3477 H   0  0  0  0  0  0
   10.9934   10.6553   -0.5607 H   0  0  0  0  0  0
   10.7612   10.0669   -2.2419 H   0  0  0  0  0  0
    7.6228   11.8585   -0.6469 H   0  0  0  0  0  0
   13.7157    6.4698    0.1735 H   0  0  0  0  0  0
   14.2480    8.4358    2.3378 H   0  0  0  0  0  0
   16.0775    6.6132    2.9520 H   0  0  0  0  0  0
   14.3385    6.1837    3.0867 H   0  0  0  0  0  0
   14.4766    5.0908    0.8601 H   0  0  0  0  0  0
   16.2371    5.4461    0.8283 H   0  0  0  0  0  0
   14.8946    2.4558    3.3946 H   0  0  0  0  0  0
   14.9384   10.2302    1.3741 H   0  0  0  0  0  0
   16.6181   11.7151    0.8375 H   0  0  0  0  0  0
   18.6362    9.4210    1.1142 H   0  0  0  0  0  0
   19.0412   11.1691    1.0303 H   0  0  0  0  0  0
   17.6298   11.4966    3.1001 H   0  0  0  0  0  0
   17.5127    9.7080    3.2172 H   0  0  0  0  0  0
   20.7579   11.5242    4.7641 H   0  0  0  0  0  0
   17.8744   12.5946   -0.9131 H   0  0  0  0  0  0
   17.1224   10.9290   -3.3469 H   0  0  0  0  0  0
   16.0354   13.2288   -2.9822 H   0  0  0  0  0  0
   17.6561   13.9587   -3.2419 H   0  0  0  0  0  0
   17.7033   12.9142   -5.5077 H   0  0  0  0  0  0
   16.0209   12.3462   -5.2361 H   0  0  0  0  0  0
   14.6902   15.7768   -5.4399 H   0  0  0  0  0  0
   19.4259   13.6680   -2.7185 H   0  0  0  0  0  0
   21.4449   11.9327   -4.2439 H   0  0  0  0  0  0
   21.3135   15.0023   -4.1212 H   0  0  0  0  0  0
   22.4307   14.0196   -5.1275 H   0  0  0  0  0  0
   20.4248   13.1122   -6.3285 H   0  0  0  0  0  0
   19.4198   14.2891   -5.4166 H   0  0  0  0  0  0
   20.7356   17.1386   -7.2846 H   0  0  0  0  0  0
   20.6133   13.8957   -1.5455 H   0  0  0  0  0  0
   23.2166   13.0774   -0.2321 H   0  0  0  0  0  0
   22.3453   15.9241   -0.7595 H   0  0  0  0  0  0
   23.0734   15.5713    0.8443 H   0  0  0  0  0  0
   26.3902   15.2290   -0.4809 H   0  0  0  0  0  0
   19.7196   14.2146    1.7916 H   0  0  0  0  0  0
  1  2  1  0  0  0
  1132  1  0  0  0
  1133  1  0  0  0
  1134  1  0  0  0
  2  3  1  0  0  0
  2  5  1  0  0  0
  2135  1  0  0  0
  3  4  2  0  0  0
  3  9  1  0  0  0
  5  6  1  0  0  0
  5136  1  0  0  0
  5137  1  0  0  0
  6  7  1  0  0  0
  6  8  1  0  0  0
  6138  1  0  0  0
  7139  1  0  0  0
  7140  1  0  0  0
  7141  1  0  0  0
  8142  1  0  0  0
  8143  1  0  0  0
  8144  1  0  0  0
  9 10  1  0  0  0
  9145  1  0  0  0
 10 11  1  0  0  0
 10 13  1  0  0  0
 10146  1  0  0  0
 11 12  2  0  0  0
 11 18  1  0  0  0
 13 14  1  0  0  0
 13147  1  0  0  0
 13148  1  0  0  0
 14 15  1  0  0  0
 14149  1  0  0  0
 14150  1  0  0  0
 15 16  2  0  0  0
 15 17  1  0  0  0
 17151  1  0  0  0
 18 19  1  0  0  0
 18152  1  0  0  0
 19 20  1  0  0  0
 19 22  1  0  0  0
 19153  1  0  0  0
 20 21  2  0  0  0
 20 24  1  0  0  0
 22 23  1  0  0  0
 22154  1  0  0  0
 22155  1  0  0  0
 23156  1  0  0  0
 24 25  1  0  0  0
 24157  1  0  0  0
 25 26  1  0  0  0
 25 28  1  0  0  0
 25158  1  0  0  0
 26 27  2  0  0  0
 26 33  1  0  0  0
 28 29  1  0  0  0
 28159  1  0  0  0
 28160  1  0  0  0
 29 30  1  0  0  0
 29161  1  0  0  0
 29162  1  0  0  0
 30 31  1  0  0  0
 30163  1  0  0  0
 30164  1  0  0  0
 31 32  1  0  0  0
 31165  1  0  0  0
 31166  1  0  0  0
 32167  1  0  0  0
 32168  1  0  0  0
 32169  1  0  0  0
 33 34  1  0  0  0
 33 39  1  0  0  0
 34 35  1  0  0  0
 34 37  1  0  0  0
 34170  1  0  0  0
 35 36  2  0  0  0
 35 40  1  0  0  0
 37 38  1  0  0  0
 37171  1  0  0  0
 37172  1  0  0  0
 38 39  1  0  0  0
 38173  1  0  0  0
 38174  1  0  0  0
 39175  1  0  0  0
 39176  1  0  0  0
 40 41  1  0  0  0
 40177  1  0  0  0
 41 42  1  0  0  0
 41 44  1  0  0  0
 41178  1  0  0  0
 42 43  2  0  0  0
 42 52  1  0  0  0
 44 45  1  0  0  0
 44179  1  0  0  0
 44180  1  0  0  0
 45 46  2  0  0  0
 45 47  1  0  0  0
 46 48  1  0  0  0
 46181  1  0  0  0
 47 49  2  0  0  0
 47182  1  0  0  0
 48 50  2  0  0  0
 48183  1  0  0  0
 49 50  1  0  0  0
 49184  1  0  0  0
 50 51  1  0  0  0
 51185  1  0  0  0
 52 53  1  0  0  0
 52186  1  0  0  0
 53 54  1  0  0  0
 53 56  1  0  0  0
 53187  1  0  0  0
 54 55  2  0  0  0
 54 60  1  0  0  0
 56 57  1  0  0  0
 56188  1  0  0  0
 56189  1  0  0  0
 57 58  2  0  0  0
 57 59  1  0  0  0
 59190  1  0  0  0
 59191  1  0  0  0
 60 61  1  0  0  0
 60 66  1  0  0  0
 61 62  1  0  0  0
 61 64  1  0  0  0
 61192  1  0  0  0
 62 63  2  0  0  0
 62 67  1  0  0  0
 64 65  1  0  0  0
 64193  1  0  0  0
 64194  1  0  0  0
 65 66  1  0  0  0
 65195  1  0  0  0
 65196  1  0  0  0
 66197  1  0  0  0
 66198  1  0  0  0
 67 68  1  0  0  0
 67199  1  0  0  0
 68 69  1  0  0  0
 68 71  1  0  0  0
 68200  1  0  0  0
 69 70  2  0  0  0
 69 78  1  0  0  0
 71 72  1  0  0  0
 71201  1  0  0  0
 71202  1  0  0  0
 72 73  2  0  0  0
 72 74  1  0  0  0
 73 75  1  0  0  0
 73203  1  0  0  0
 74 76  2  0  0  0
 74204  1  0  0  0
 75 77  2  0  0  0
 75205  1  0  0  0
 76 77  1  0  0  0
 76206  1  0  0  0
 77207  1  0  0  0
 78 79  1  0  0  0
 78208  1  0  0  0
 79 80  1  0  0  0
 79 82  1  0  0  0
 79209  1  0  0  0
 80 81  2  0  0  0
 80 87  1  0  0  0
 82 83  1  0  0  0
 82210  1  0  0  0
 82211  1  0  0  0
 83 84  1  0  0  0
 83212  1  0  0  0
 83213  1  0  0  0
 84 85  2  0  0  0
 84 86  1  0  0  0
 86214  1  0  0  0
 87 88  1  0  0  0
 87215  1  0  0  0
 88 89  1  0  0  0
 88 91  1  0  0  0
 88216  1  0  0  0
 89 90  2  0  0  0
 89 96  1  0  0  0
 91 92  1  0  0  0
 91217  1  0  0  0
 91218  1  0  0  0
 92 93  1  0  0  0
 92219  1  0  0  0
 92220  1  0  0  0
 93 94  1  0  0  0
 93 95  2  0  0  0
 94221  1  0  0  0
 96 97  1  0  0  0
 96222  1  0  0  0
 97 98  1  0  0  0
 97100  1  0  0  0
 97223  1  0  0  0
 98 99  2  0  0  0
 98105  1  0  0  0
100101  1  0  0  0
100224  1  0  0  0
100225  1  0  0  0
101102  1  0  0  0
101226  1  0  0  0
101227  1  0  0  0
102103  2  0  0  0
102104  1  0  0  0
104228  1  0  0  0
105106  1  0  0  0
105229  1  0  0  0
106107  1  0  0  0
106109  1  0  0  0
106230  1  0  0  0
107108  2  0  0  0
107114  1  0  0  0
109110  1  0  0  0
109231  1  0  0  0
109232  1  0  0  0
110111  1  0  0  0
110233  1  0  0  0
110234  1  0  0  0
111112  1  0  0  0
111113  2  0  0  0
112235  1  0  0  0
114115  1  0  0  0
114236  1  0  0  0
115116  1  0  0  0
115118  1  0  0  0
115237  1  0  0  0
116117  2  0  0  0
116123  1  0  0  0
118119  1  0  0  0
118238  1  0  0  0
118239  1  0  0  0
119120  1  0  0  0
119240  1  0  0  0
119241  1  0  0  0
120121  1  0  0  0
120122  2  0  0  0
121242  1  0  0  0
123124  1  0  0  0
123243  1  0  0  0
124125  1  0  0  0
124127  1  0  0  0
124244  1  0  0  0
125126  2  0  0  0
125131  1  0  0  0
127128  1  0  0  0
127245  1  0  0  0
127246  1  0  0  0
128129  2  0  0  0
128130  1  0  0  0
130247  1  0  0  0
131248  1  0  0  0
M  CHG  2   1   1  32   1
M  END
> <s_m_source_file>
../2ksp_ligand.sdf

> <i_m_source_file_index>
1

> <s_epik_input>
W0NIM11bQ0hdKFtDSDNdKVtDSDJdW0NASF0oW05IMytdKUMoPU8pW05IXVtDQEBIXShbQ0gyXVtDSDJdQyg9TylbT0hdKUMoPU8pW05IXVtDQEBIXShbQ0gyXVtPSF0pQyg9TylbTkhdW0NAQEhdKFtDSDJdW0NIMl1bQ0gyXVtDSDJdW05IMytdKUMoPU8pTjFbQ0BASF0oW0NIMl1bQ0gyXVtDSDJdMSlDKD1PKVtOSF1bQ0BASF0oW0NIMl1jMltjSF1bY0hdYyhbT0hdKVtjSF1bY0hdMilDKD1PKVtOSF1bQ0BASF0oW0NIMl1DKD1PKVtOSDJdKUMoPU8pTjNbQ0BASF0oW0NIMl1bQ0gyXVtDSDJdMylDKD1PKVtOSF1bQ0BASF0oW0NIMl1jNFtjSF1bY0hdW2NIXVtjSF1bY0hdNClDKD1PKVtOSF1bQ0BASF0oW0NIMl1bQ0gyXUMoPU8pW09IXSlDKD1PKVtOSF1bQ0BASF0oW0NIMl1bQ0gyXUMoPU8pW09IXSlDKD1PKVtOSF1bQ0BASF0oW0NIMl1bQ0gyXUMoPU8pW09IXSlDKD1PKVtOSF1bQ0BASF0oW0NIMl1bQ0gyXUMoPU8pW09IXSlDKD1PKVtOSF1bQ0BASF0oW0NIMl1bQ0gyXUMoPU8pW09IXSlDKD1PKVtOSF1bQ0BIXShDKD1PKVtPSF0pW0NIMl1DKD1PKVtPSF0=

> <s_epik_cmdline>
J2VwaWtfYXBwJywgJy1pbWFlJywgJ2xpZ2FuZF9wcm8ubWFlJywgJy1vbWFlJywgJ2xpZ2FuZF9wcmVwLm1hZScsICctbXMnLCAnMScsICctcGgnLCAnNycsICctcGh0JywgJzAuNScsICctbnQn

> <s_epik_pKa_notes>
Molecule size exceeds maximum supported for generating protonation states

$$$$
