2kup_ligand
                    3D
 Schrodinger Suite 2020-3.
320325  0  0  1  0            999 V2000
  -21.9410   -6.0980    3.1550 N   0  3  0  0  0  0
  -20.9310   -5.1710    3.7390 C   0  0  2  0  0  0
  -21.3180   -4.8180    5.1810 C   0  0  0  0  0  0
  -22.0950   -3.8910    5.4150 O   0  0  0  0  0  0
  -20.7280   -3.8900    2.8830 C   0  0  0  0  0  0
  -19.7140   -3.9660    1.7200 C   0  0  0  0  0  0
  -18.2940   -4.2440    2.2080 C   0  0  0  0  0  0
  -20.0440   -5.0230    0.6670 C   0  0  0  0  0  0
  -20.7880   -5.5610    6.1560 N   0  0  0  0  0  0
  -21.0290   -5.3310    7.5860 C   0  0  2  0  0  0
  -20.1730   -4.1710    8.1120 C   0  0  0  0  0  0
  -18.9600   -4.1580    7.8980 O   0  0  0  0  0  0
  -20.7310   -6.6260    8.3510 C   0  0  0  0  0  0
  -21.2520   -6.6320    9.7750 C   0  0  0  0  0  0
  -20.4850   -6.0850   10.8240 C   0  0  0  0  0  0
  -22.5180   -7.1820   10.0500 C   0  0  0  0  0  0
  -20.9940   -6.0750   12.1360 C   0  0  0  0  0  0
  -23.0200   -7.1830   11.3630 C   0  0  0  0  0  0
  -22.2610   -6.6230   12.4060 C   0  0  0  0  0  0
  -20.7980   -3.2230    8.8230 N   0  0  0  0  0  0
  -20.1190   -2.0950    9.4740 C   0  0  2  0  0  0
  -19.7360   -2.4830   10.9090 C   0  0  0  0  0  0
  -20.6090   -2.6230   11.7710 O   0  0  0  0  0  0
  -21.0170   -0.8410    9.4800 C   0  0  0  0  0  0
  -21.1430   -0.1070    8.1340 C   0  0  0  0  0  0
  -21.9970   -0.8280    7.0820 C   0  0  0  0  0  0
  -22.2420    0.0480    5.9200 N   0  0  0  0  0  0
  -22.9620   -0.2470    4.8450 C   0  0  0  0  0  0
  -23.4530   -1.4520    4.6390 N   0  0  0  0  0  0
  -23.1980    0.6850    3.9470 N   0  0  0  0  0  0
  -18.4390   -2.6590   11.1780 N   0  0  0  0  0  0
  -17.9130   -2.9750   12.5140 C   0  0  2  0  0  0
  -17.9200   -1.7690   13.4620 C   0  0  0  0  0  0
  -17.8780   -0.6120   13.0340 O   0  0  0  0  0  0
  -16.4880   -3.5440   12.3930 C   0  0  0  0  0  0
  -16.4100   -5.0110   11.9540 C   0  0  0  0  0  0
  -14.9380   -5.3720   11.7510 C   0  0  0  0  0  0
  -16.9830   -5.9560   13.0110 C   0  0  0  0  0  0
  -17.9250   -2.0720   14.7660 N   0  0  0  0  0  0
  -17.9220   -1.0900   15.8640 C   0  0  2  0  0  0
  -16.5320   -0.5010   16.1590 C   0  0  0  0  0  0
  -16.4270    0.6060   16.6880 O   0  0  0  0  0  0
  -18.4670   -1.7500   17.1430 C   0  0  0  0  0  0
  -19.9130   -2.2550   16.9980 C   0  0  0  0  0  0
  -20.4450   -2.8280   18.3180 C   0  0  0  0  0  0
  -19.7500   -4.0720   18.7040 N   0  0  0  0  0  0
  -19.6130   -4.5530   19.9340 C   0  0  0  0  0  0
  -20.0340   -3.9010   20.9990 N   0  0  0  0  0  0
  -19.0460   -5.7250   20.1090 N   0  0  0  0  0  0
  -15.4690   -1.2320   15.8170 N   0  0  0  0  0  0
  -14.0580   -0.8910   16.0560 C   0  0  2  0  0  0
  -13.1180   -1.7220   15.1540 C   0  0  0  0  0  0
  -13.5590   -2.6660   14.4890 O   0  0  0  0  0  0
  -13.7190   -1.0630   17.5500 C   0  0  0  0  0  0
  -13.4550   -2.4880   17.9640 C   0  0  0  0  0  0
  -12.2000   -3.0000   18.2990 N   0  0  0  0  0  0
  -14.3740   -3.4940   18.0230 C   0  0  0  0  0  0
  -12.3940   -4.3040   18.5520 C   0  0  0  0  0  0
  -13.6900   -4.6310   18.3950 N   0  0  0  0  0  0
  -11.8270   -1.3740   15.1100 N   0  0  0  0  0  0
  -10.8650   -2.0130   14.2090 C   0  0  2  0  0  0
  -10.3690   -3.3620   14.7830 C   0  0  0  0  0  0
   -9.8630   -3.3780   15.9090 O   0  0  0  0  0  0
   -9.7250   -1.0230   13.9060 C   0  0  0  0  0  0
   -8.9840   -1.3340   12.6240 C   0  0  0  0  0  0
   -9.6970   -1.4140   11.4140 C   0  0  0  0  0  0
   -7.5920   -1.5360   12.6240 C   0  0  0  0  0  0
   -9.0370   -1.7500   10.2270 C   0  0  0  0  0  0
   -6.9260   -1.8450   11.4270 C   0  0  0  0  0  0
   -7.6510   -1.9640   10.2300 C   0  0  0  0  0  0
  -10.4890   -4.4900   14.0450 N   0  0  0  0  0  0
  -10.2060   -5.8340   14.5560 C   0  0  2  0  0  0
   -8.7070   -6.1970   14.5550 C   0  0  0  0  0  0
   -8.3620   -7.3430   14.8420 O   0  0  0  0  0  0
  -11.0140   -6.7680   13.6480 C   0  0  0  0  0  0
  -10.9220   -6.0670   12.2970 C   0  0  0  0  0  0
  -11.0190   -4.5940   12.6880 C   0  0  0  0  0  0
   -7.8160   -5.2520   14.2280 N   0  0  0  0  0  0
   -6.3880   -5.4850   14.0070 C   0  0  2  0  0  0
   -5.5100   -4.5330   14.8420 C   0  0  0  0  0  0
   -5.7290   -3.3180   14.8500 O   0  0  0  0  0  0
   -6.1570   -5.3410   12.4970 C   0  0  0  0  0  0
   -4.4050   -5.5900   12.1380 S   0  0  0  0  0  0
   -4.5020   -5.0870   15.5320 N   0  0  0  0  0  0
   -3.5670   -4.3480   16.3990 C   0  0  0  0  0  0
   -2.2590   -3.9110   15.7240 C   0  0  0  0  0  0
   -1.5830   -3.0220   16.2420 O   0  0  0  0  0  0
   -1.9040   -4.5030   14.5780 N   0  0  0  0  0  0
   -0.6840   -4.2030   13.8110 C   0  0  2  0  0  0
   -1.0470   -3.5660   12.4600 C   0  0  0  0  0  0
   -1.6390   -4.2220   11.6030 O   0  0  0  0  0  0
    0.1290   -5.4950   13.6100 C   0  0  0  0  0  0
    0.7340   -6.0160   14.9130 C   0  0  0  0  0  0
    1.3760   -5.2890   15.6620 O   0  0  0  0  0  0
    0.5560   -7.2890   15.2200 N   0  0  0  0  0  0
   -0.7100   -2.2900   12.2620 N   0  0  0  0  0  0
   -1.1810   -1.4960   11.1200 C   0  0  2  0  0  0
   -0.2240   -0.3480   10.7860 C   0  0  0  0  0  0
    0.2430    0.3800   11.6590 O   0  0  0  0  0  0
   -2.6320   -1.0080   11.3550 C   0  0  0  0  0  0
   -2.8260   -0.1840   12.6390 C   0  0  0  0  0  0
   -3.1400   -0.1950   10.1640 C   0  0  0  0  0  0
    0.0470   -0.2130    9.4890 N   0  0  0  0  0  0
    0.7710    0.8830    8.8510 C   0  0  2  0  0  0
   -0.2170    1.9540    8.3470 C   0  0  0  0  0  0
   -1.0900    1.6880    7.5210 O   0  0  0  0  0  0
    1.6960    0.3520    7.7290 C   0  0  0  0  0  0
    1.1430   -0.7350    6.7940 C   0  0  0  0  0  0
    0.0270   -1.2240    6.9110 O   0  0  0  0  0  0
    1.9480   -1.1960    5.8520 N   0  0  0  0  0  0
   -0.0820    3.1840    8.8530 N   0  0  0  0  0  0
   -0.9090    4.3280    8.4500 C   0  0  2  0  0  0
   -0.3410    4.9720    7.1710 C   0  0  0  0  0  0
    0.7540    5.5430    7.1840 O   0  0  0  0  0  0
   -1.0030    5.3270    9.6110 C   0  0  0  0  0  0
   -1.5540    4.7360   10.8980 C   0  0  0  0  0  0
   -2.9230    4.4200   10.9950 C   0  0  0  0  0  0
   -0.7030    4.4880   11.9920 C   0  0  0  0  0  0
   -3.4430    3.8560   12.1750 C   0  0  0  0  0  0
   -1.2150    3.9270   13.1790 C   0  0  0  0  0  0
   -2.5900    3.6080   13.2730 C   0  0  0  0  0  0
   -3.0970    3.0700   14.4170 O   0  0  0  0  0  0
   -1.0720    4.8420    6.0580 N   0  0  0  0  0  0
   -0.6180    5.2410    4.7180 C   0  0  0  0  0  0
   -0.9100    6.7070    4.4150 C   0  0  0  0  0  0
    0.0090    7.5170    4.2880 O   0  0  0  0  0  0
   -2.1950    7.0450    4.2940 N   0  0  0  0  0  0
   -2.6650    8.3730    3.8850 C   0  0  2  0  0  0
   -3.0650    9.2220    5.1060 C   0  0  0  0  0  0
   -3.9570    8.8550    5.8730 O   0  0  0  0  0  0
   -3.8160    8.2180    2.8710 C   0  0  0  0  0  0
   -3.3700    7.7170    1.5040 C   0  0  0  0  0  0
   -3.0160    6.3660    1.3230 C   0  0  0  0  0  0
   -3.3010    8.6000    0.4080 C   0  0  0  0  0  0
   -2.5920    5.9030    0.0640 C   0  0  0  0  0  0
   -2.8760    8.1440   -0.8540 C   0  0  0  0  0  0
   -2.5240    6.7870   -1.0330 C   0  0  0  0  0  0
   -2.1480    6.3230   -2.2570 O   0  0  0  0  0  0
   -2.4130   10.3780    5.2710 N   0  0  0  0  0  0
   -2.6210   11.3290    6.3760 C   0  0  2  0  0  0
   -3.6150   12.4570    6.0110 C   0  0  0  0  0  0
   -3.5300   13.5700    6.5320 O   0  0  0  0  0  0
   -1.2540   11.8450    6.8790 C   0  0  0  0  0  0
   -0.4370   12.6270    5.8320 C   0  0  0  0  0  0
    0.7970   13.2930    6.4470 C   0  0  0  0  0  0
    0.8510   14.5030    6.6420 O   0  0  0  0  0  0
    1.8330   12.5450    6.7760 N   0  0  0  0  0  0
   -4.5490   12.1800    5.0950 N   0  0  0  0  0  0
   -5.5380   13.1210    4.5600 C   0  0  2  0  0  0
   -6.9540   12.5260    4.7110 C   0  0  0  0  0  0
   -7.1210   11.3030    4.7150 O   0  0  0  0  0  0
   -5.1570   13.4330    3.1000 C   0  0  0  0  0  0
   -5.9210   14.6260    2.5040 C   0  0  0  0  0  0
   -5.4000   14.9830    1.1080 C   0  0  0  0  0  0
   -5.8720   14.4920    0.0900 O   0  0  0  0  0  0
   -4.3970   15.8340    1.0000 N   0  0  0  0  0  0
   -7.9630   13.3920    4.8850 N   0  0  0  0  0  0
   -9.3440   13.0330    5.2580 C   0  0  2  0  0  0
  -10.0570   12.1340    4.2290 C   0  0  0  0  0  0
  -10.1360   12.5110    3.0400 O   0  0  0  0  0  0
  -10.1160   14.3350    5.5510 C   0  0  0  0  0  0
  -11.4520   14.1390    6.2970 C   0  0  0  0  0  0
  -12.6210   13.6350    5.4410 C   0  0  0  0  0  0
  -13.2540   12.6250    5.7260 O   0  0  0  0  0  0
  -12.9980   14.3420    4.3930 N   0  0  0  0  0  0
  -10.5430   11.0450    4.6030 O   0  0  0  0  0  0
  -22.0427   -6.9831    3.8002 H   0  0  0  0  0  0
  -21.6149   -6.4108    2.1521 H   0  0  0  0  0  0
  -22.9109   -5.5843    3.0816 H   0  0  0  0  0  0
  -19.9845   -5.7315    3.7374 H   0  0  0  0  0  0
  -21.6834   -3.6039    2.4190 H   0  0  0  0  0  0
  -20.3733   -3.0714    3.5265 H   0  0  0  0  0  0
  -19.7739   -2.9739    1.2488 H   0  0  0  0  0  0
  -18.0165   -3.5016    2.9708 H   0  0  0  0  0  0
  -17.5956   -4.1778    1.3607 H   0  0  0  0  0  0
  -18.2471   -5.2528    2.6440 H   0  0  0  0  0  0
  -21.0634   -4.8574    0.2882 H   0  0  0  0  0  0
  -19.9788   -6.0237    1.1190 H   0  0  0  0  0  0
  -19.3274   -4.9487   -0.1642 H   0  0  0  0  0  0
  -20.1365   -6.3867    5.8339 H   0  0  0  0  0  0
  -22.0883   -5.0538    7.6915 H   0  0  0  0  0  0
  -21.1974   -7.4752    7.8301 H   0  0  0  0  0  0
  -19.6430   -6.7798    8.4018 H   0  0  0  0  0  0
  -19.4982   -5.6700   10.6189 H   0  0  0  0  0  0
  -23.1116   -7.6089    9.2416 H   0  0  0  0  0  0
  -20.4052   -5.6417   12.9445 H   0  0  0  0  0  0
  -23.9973   -7.6177   11.5726 H   0  0  0  0  0  0
  -22.6541   -6.6136   13.4226 H   0  0  0  0  0  0
  -21.8900   -3.3282    8.9033 H   0  0  0  0  0  0
  -19.2166   -1.8970    8.8769 H   0  0  0  0  0  0
  -22.0385   -1.1229    9.7752 H   0  0  0  0  0  0
  -20.6177   -0.1075   10.1959 H   0  0  0  0  0  0
  -21.6055    0.8779    8.2954 H   0  0  0  0  0  0
  -20.1438    0.0249    7.6933 H   0  0  0  0  0  0
  -21.4722   -1.7326    6.7410 H   0  0  0  0  0  0
  -22.9636   -1.1099    7.5249 H   0  0  0  0  0  0
  -21.8070    1.0579    5.8912 H   0  0  0  0  0  0
  -23.2725   -2.2521    5.3719 H   0  0  0  0  0  0
  -24.0434   -1.6580    3.7341 H   0  0  0  0  0  0
  -22.8012    1.7008    4.0912 H   0  0  0  0  0  0
  -17.7505   -2.5542   10.3265 H   0  0  0  0  0  0
  -18.6133   -3.7232   12.9136 H   0  0  0  0  0  0
  -15.9230   -2.9627   11.6495 H   0  0  0  0  0  0
  -15.9837   -3.4803   13.3685 H   0  0  0  0  0  0
  -16.9964   -5.1260   11.0305 H   0  0  0  0  0  0
  -14.4983   -4.7064   10.9936 H   0  0  0  0  0  0
  -14.8598   -6.4155   11.4119 H   0  0  0  0  0  0
  -14.3970   -5.2537   12.7015 H   0  0  0  0  0  0
  -18.0441   -5.7189   13.1782 H   0  0  0  0  0  0
  -16.4272   -5.8335   13.9523 H   0  0  0  0  0  0
  -16.8899   -6.9953   12.6628 H   0  0  0  0  0  0
  -17.9318   -3.1487   14.9911 H   0  0  0  0  0  0
  -18.5698   -0.2799   15.4978 H   0  0  0  0  0  0
  -17.8390   -2.6140   17.4059 H   0  0  0  0  0  0
  -18.4515   -1.0213   17.9669 H   0  0  0  0  0  0
  -20.5635   -1.4219   16.6935 H   0  0  0  0  0  0
  -19.9501   -3.0468   16.2353 H   0  0  0  0  0  0
  -20.3005   -2.0914   19.1221 H   0  0  0  0  0  0
  -21.5169   -3.0525   18.2147 H   0  0  0  0  0  0
  -19.2806   -4.7015   17.9337 H   0  0  0  0  0  0
  -20.5132   -2.9171   20.8878 H   0  0  0  0  0  0
  -19.9062   -4.3406   21.9992 H   0  0  0  0  0  0
  -18.6834   -6.2956   19.2413 H   0  0  0  0  0  0
  -15.7292   -2.1724   15.3092 H   0  0  0  0  0  0
  -13.9540    0.1681   15.7778 H   0  0  0  0  0  0
  -12.8145   -0.4847   17.7897 H   0  0  0  0  0  0
  -14.5588   -0.7000   18.1607 H   0  0  0  0  0  0
  -15.4579   -3.5390   17.8408 H   0  0  0  0  0  0
  -11.6096   -5.0021   18.8444 H   0  0  0  0  0  0
  -11.4975   -0.5725   15.7875 H   0  0  0  0  0  0
  -11.4020   -2.2361   13.2753 H   0  0  0  0  0  0
  -10.1368   -0.0074   13.8114 H   0  0  0  0  0  0
   -8.9915   -1.0464   14.7254 H   0  0  0  0  0  0
  -10.7683   -1.2134   11.4011 H   0  0  0  0  0  0
   -7.0297   -1.4526   13.5540 H   0  0  0  0  0  0
   -9.6006   -1.8455    9.2989 H   0  0  0  0  0  0
   -5.8460   -1.9925   11.4268 H   0  0  0  0  0  0
   -7.1369   -2.2224    9.3042 H   0  0  0  0  0  0
  -10.5096   -5.8690   15.6127 H   0  0  0  0  0  0
  -10.5523   -7.7664   13.6451 H   0  0  0  0  0  0
  -12.0454   -6.8421   14.0230 H   0  0  0  0  0  0
   -9.9656   -6.3209   11.8166 H   0  0  0  0  0  0
  -11.7531   -6.3960   11.6558 H   0  0  0  0  0  0
  -12.0643   -4.2517   12.6754 H   0  0  0  0  0  0
  -10.4198   -3.9671   12.0113 H   0  0  0  0  0  0
   -8.2297   -4.2377   14.1278 H   0  0  0  0  0  0
   -6.1444   -6.5001   14.3538 H   0  0  0  0  0  0
   -6.7542   -6.0936   11.9613 H   0  0  0  0  0  0
   -6.4606   -4.3343   12.1740 H   0  0  0  0  0  0
   -4.0413   -5.5254   11.1019 H   0  0  0  0  0  0
   -4.3997   -6.1760   15.4149 H   0  0  0  0  0  0
   -4.0528   -3.4314   16.7649 H   0  0  0  0  0  0
   -3.2833   -4.9790   17.2542 H   0  0  0  0  0  0
   -2.6071   -5.2677   14.2161 H   0  0  0  0  0  0
   -0.1024   -3.4817   14.4039 H   0  0  0  0  0  0
   -0.5251   -6.2803   13.2032 H   0  0  0  0  0  0
    0.9533   -5.3039   12.9071 H   0  0  0  0  0  0
   -0.0203   -7.9415   14.5476 H   0  0  0  0  0  0
    0.9841   -7.6961   16.1479 H   0  0  0  0  0  0
   -0.0433   -1.8360   13.0099 H   0  0  0  0  0  0
   -1.1621   -2.1869   10.2642 H   0  0  0  0  0  0
   -3.2295   -1.9246   11.4683 H   0  0  0  0  0  0
   -2.4633   -0.7604   13.5029 H   0  0  0  0  0  0
   -3.8943    0.0423   12.7715 H   0  0  0  0  0  0
   -2.2591    0.7554   12.5609 H   0  0  0  0  0  0
   -3.0057   -0.7759    9.2396 H   0  0  0  0  0  0
   -2.5723    0.7445   10.0925 H   0  0  0  0  0  0
   -4.2074    0.0313   10.3031 H   0  0  0  0  0  0
   -0.3393   -1.0444    8.8812 H   0  0  0  0  0  0
    1.3983    1.3262    9.6385 H   0  0  0  0  0  0
    1.9816    1.1819    7.0659 H   0  0  0  0  0  0
    2.5997   -0.0877    8.1762 H   0  0  0  0  0  0
    2.9546   -0.7692    5.7314 H   0  0  0  0  0  0
    1.6111   -2.0064    5.1888 H   0  0  0  0  0  0
    0.7028    3.3132    9.6129 H   0  0  0  0  0  0
   -1.9152    3.9421    8.2296 H   0  0  0  0  0  0
   -0.0010    5.7194    9.8391 H   0  0  0  0  0  0
   -1.6662    6.1575    9.3273 H   0  0  0  0  0  0
   -3.5843    4.6135   10.1505 H   0  0  0  0  0  0
    0.3571    4.7312   11.9204 H   0  0  0  0  0  0
   -4.5030    3.6108   12.2414 H   0  0  0  0  0  0
   -0.5523    3.7391   14.0238 H   0  0  0  0  0  0
   -4.1673    2.8247   14.4821 H   0  0  0  0  0  0
   -2.0723    4.4045    6.1922 H   0  0  0  0  0  0
    0.4685    5.0886    4.6385 H   0  0  0  0  0  0
   -1.1303    4.6300    3.9602 H   0  0  0  0  0  0
   -2.9211    6.2513    4.5238 H   0  0  0  0  0  0
   -1.8135    8.8724    3.3998 H   0  0  0  0  0  0
   -4.5511    7.4971    3.2582 H   0  0  0  0  0  0
   -4.3034    9.1922    2.7178 H   0  0  0  0  0  0
   -3.0709    5.6746    2.1638 H   0  0  0  0  0  0
   -3.5793    9.6457    0.5387 H   0  0  0  0  0  0
   -2.3149    4.8567   -0.0643 H   0  0  0  0  0  0
   -2.8184    8.8373   -1.6931 H   0  0  0  0  0  0
   -1.8762    5.2647   -2.3843 H   0  0  0  0  0  0
   -1.6680   10.5951    4.4914 H   0  0  0  0  0  0
   -3.1037   10.7532    7.1794 H   0  0  0  0  0  0
   -1.4089   12.5219    7.7321 H   0  0  0  0  0  0
   -0.6341   10.9930    7.1948 H   0  0  0  0  0  0
   -0.0985   11.9394    5.0429 H   0  0  0  0  0  0
   -1.0660   13.4129    5.3885 H   0  0  0  0  0  0
    1.8022   11.4583    6.6083 H   0  0  0  0  0  0
    2.7275   13.0081    7.2180 H   0  0  0  0  0  0
   -4.5335   11.1384    4.7416 H   0  0  0  0  0  0
   -5.5031   14.0502    5.1476 H   0  0  0  0  0  0
   -4.0843   13.6698    3.0436 H   0  0  0  0  0  0
   -5.3729   12.5578    2.4696 H   0  0  0  0  0  0
   -6.9889   14.3745    2.4241 H   0  0  0  0  0  0
   -5.7987   15.5029    3.1568 H   0  0  0  0  0  0
   -3.9594   16.2857    1.9025 H   0  0  0  0  0  0
   -3.9987   16.0915    0.0075 H   0  0  0  0  0  0
   -7.6926   14.4463    4.7260 H   0  0  0  0  0  0
   -9.2592   12.4119    6.1619 H   0  0  0  0  0  0
  -10.6421   11.8793    2.2952 H   0  0  0  0  0  0
   -9.4971   14.9955    6.1761 H   0  0  0  0  0  0
  -10.3524   14.8422    4.6040 H   0  0  0  0  0  0
  -11.3176   13.4016    7.1021 H   0  0  0  0  0  0
  -11.7753   15.0979    6.7283 H   0  0  0  0  0  0
  -12.4463   15.2526    4.1165 H   0  0  0  0  0  0
  -13.8641   14.0210    3.7957 H   0  0  0  0  0  0
  1  2  1  0  0  0
  1167  1  0  0  0
  1168  1  0  0  0
  1169  1  0  0  0
  2  3  1  0  0  0
  2  5  1  0  0  0
  2170  1  0  0  0
  3  4  2  0  0  0
  3  9  1  0  0  0
  5  6  1  0  0  0
  5171  1  0  0  0
  5172  1  0  0  0
  6  7  1  0  0  0
  6  8  1  0  0  0
  6173  1  0  0  0
  7174  1  0  0  0
  7175  1  0  0  0
  7176  1  0  0  0
  8177  1  0  0  0
  8178  1  0  0  0
  8179  1  0  0  0
  9 10  1  0  0  0
  9180  1  0  0  0
 10 11  1  0  0  0
 10 13  1  0  0  0
 10181  1  0  0  0
 11 12  2  0  0  0
 11 20  1  0  0  0
 13 14  1  0  0  0
 13182  1  0  0  0
 13183  1  0  0  0
 14 15  2  0  0  0
 14 16  1  0  0  0
 15 17  1  0  0  0
 15184  1  0  0  0
 16 18  2  0  0  0
 16185  1  0  0  0
 17 19  2  0  0  0
 17186  1  0  0  0
 18 19  1  0  0  0
 18187  1  0  0  0
 19188  1  0  0  0
 20 21  1  0  0  0
 20189  1  0  0  0
 21 22  1  0  0  0
 21 24  1  0  0  0
 21190  1  0  0  0
 22 23  2  0  0  0
 22 31  1  0  0  0
 24 25  1  0  0  0
 24191  1  0  0  0
 24192  1  0  0  0
 25 26  1  0  0  0
 25193  1  0  0  0
 25194  1  0  0  0
 26 27  1  0  0  0
 26195  1  0  0  0
 26196  1  0  0  0
 27 28  1  0  0  0
 27197  1  0  0  0
 28 29  1  0  0  0
 28 30  2  0  0  0
 29198  1  0  0  0
 29199  1  0  0  0
 30200  1  0  0  0
 31 32  1  0  0  0
 31201  1  0  0  0
 32 33  1  0  0  0
 32 35  1  0  0  0
 32202  1  0  0  0
 33 34  2  0  0  0
 33 39  1  0  0  0
 35 36  1  0  0  0
 35203  1  0  0  0
 35204  1  0  0  0
 36 37  1  0  0  0
 36 38  1  0  0  0
 36205  1  0  0  0
 37206  1  0  0  0
 37207  1  0  0  0
 37208  1  0  0  0
 38209  1  0  0  0
 38210  1  0  0  0
 38211  1  0  0  0
 39 40  1  0  0  0
 39212  1  0  0  0
 40 41  1  0  0  0
 40 43  1  0  0  0
 40213  1  0  0  0
 41 42  2  0  0  0
 41 50  1  0  0  0
 43 44  1  0  0  0
 43214  1  0  0  0
 43215  1  0  0  0
 44 45  1  0  0  0
 44216  1  0  0  0
 44217  1  0  0  0
 45 46  1  0  0  0
 45218  1  0  0  0
 45219  1  0  0  0
 46 47  1  0  0  0
 46220  1  0  0  0
 47 48  1  0  0  0
 47 49  2  0  0  0
 48221  1  0  0  0
 48222  1  0  0  0
 49223  1  0  0  0
 50 51  1  0  0  0
 50224  1  0  0  0
 51 52  1  0  0  0
 51 54  1  0  0  0
 51225  1  0  0  0
 52 53  2  0  0  0
 52 60  1  0  0  0
 54 55  1  0  0  0
 54226  1  0  0  0
 54227  1  0  0  0
 55 56  2  0  0  0
 55 57  1  0  0  0
 56 58  1  0  0  0
 57 59  2  0  0  0
 57228  1  0  0  0
 58 59  1  0  0  0
 58229  1  0  0  0
 60 61  1  0  0  0
 60230  1  0  0  0
 61 62  1  0  0  0
 61 64  1  0  0  0
 61231  1  0  0  0
 62 63  2  0  0  0
 62 71  1  0  0  0
 64 65  1  0  0  0
 64232  1  0  0  0
 64233  1  0  0  0
 65 66  2  0  0  0
 65 67  1  0  0  0
 66 68  1  0  0  0
 66234  1  0  0  0
 67 69  2  0  0  0
 67235  1  0  0  0
 68 70  2  0  0  0
 68236  1  0  0  0
 69 70  1  0  0  0
 69237  1  0  0  0
 70238  1  0  0  0
 71 72  1  0  0  0
 71 77  1  0  0  0
 72 73  1  0  0  0
 72 75  1  0  0  0
 72239  1  0  0  0
 73 74  2  0  0  0
 73 78  1  0  0  0
 75 76  1  0  0  0
 75240  1  0  0  0
 75241  1  0  0  0
 76 77  1  0  0  0
 76242  1  0  0  0
 76243  1  0  0  0
 77244  1  0  0  0
 77245  1  0  0  0
 78 79  1  0  0  0
 78246  1  0  0  0
 79 80  1  0  0  0
 79 82  1  0  0  0
 79247  1  0  0  0
 80 81  2  0  0  0
 80 84  1  0  0  0
 82 83  1  0  0  0
 82248  1  0  0  0
 82249  1  0  0  0
 83250  1  0  0  0
 84 85  1  0  0  0
 84251  1  0  0  0
 85 86  1  0  0  0
 85252  1  0  0  0
 85253  1  0  0  0
 86 87  2  0  0  0
 86 88  1  0  0  0
 88 89  1  0  0  0
 88254  1  0  0  0
 89 90  1  0  0  0
 89 92  1  0  0  0
 89255  1  0  0  0
 90 91  2  0  0  0
 90 96  1  0  0  0
 92 93  1  0  0  0
 92256  1  0  0  0
 92257  1  0  0  0
 93 94  2  0  0  0
 93 95  1  0  0  0
 95258  1  0  0  0
 95259  1  0  0  0
 96 97  1  0  0  0
 96260  1  0  0  0
 97 98  1  0  0  0
 97100  1  0  0  0
 97261  1  0  0  0
 98 99  2  0  0  0
 98103  1  0  0  0
100101  1  0  0  0
100102  1  0  0  0
100262  1  0  0  0
101263  1  0  0  0
101264  1  0  0  0
101265  1  0  0  0
102266  1  0  0  0
102267  1  0  0  0
102268  1  0  0  0
103104  1  0  0  0
103269  1  0  0  0
104105  1  0  0  0
104107  1  0  0  0
104270  1  0  0  0
105106  2  0  0  0
105111  1  0  0  0
107108  1  0  0  0
107271  1  0  0  0
107272  1  0  0  0
108109  2  0  0  0
108110  1  0  0  0
110273  1  0  0  0
110274  1  0  0  0
111112  1  0  0  0
111275  1  0  0  0
112113  1  0  0  0
112115  1  0  0  0
112276  1  0  0  0
113114  2  0  0  0
113123  1  0  0  0
115116  1  0  0  0
115277  1  0  0  0
115278  1  0  0  0
116117  2  0  0  0
116118  1  0  0  0
117119  1  0  0  0
117279  1  0  0  0
118120  2  0  0  0
118280  1  0  0  0
119121  2  0  0  0
119281  1  0  0  0
120121  1  0  0  0
120282  1  0  0  0
121122  1  0  0  0
122283  1  0  0  0
123124  1  0  0  0
123284  1  0  0  0
124125  1  0  0  0
124285  1  0  0  0
124286  1  0  0  0
125126  2  0  0  0
125127  1  0  0  0
127128  1  0  0  0
127287  1  0  0  0
128129  1  0  0  0
128131  1  0  0  0
128288  1  0  0  0
129130  2  0  0  0
129139  1  0  0  0
131132  1  0  0  0
131289  1  0  0  0
131290  1  0  0  0
132133  2  0  0  0
132134  1  0  0  0
133135  1  0  0  0
133291  1  0  0  0
134136  2  0  0  0
134292  1  0  0  0
135137  2  0  0  0
135293  1  0  0  0
136137  1  0  0  0
136294  1  0  0  0
137138  1  0  0  0
138295  1  0  0  0
139140  1  0  0  0
139296  1  0  0  0
140141  1  0  0  0
140143  1  0  0  0
140297  1  0  0  0
141142  2  0  0  0
141148  1  0  0  0
143144  1  0  0  0
143298  1  0  0  0
143299  1  0  0  0
144145  1  0  0  0
144300  1  0  0  0
144301  1  0  0  0
145146  2  0  0  0
145147  1  0  0  0
147302  1  0  0  0
147303  1  0  0  0
148149  1  0  0  0
148304  1  0  0  0
149150  1  0  0  0
149152  1  0  0  0
149305  1  0  0  0
150151  2  0  0  0
150157  1  0  0  0
152153  1  0  0  0
152306  1  0  0  0
152307  1  0  0  0
153154  1  0  0  0
153308  1  0  0  0
153309  1  0  0  0
154155  2  0  0  0
154156  1  0  0  0
156310  1  0  0  0
156311  1  0  0  0
157158  1  0  0  0
157312  1  0  0  0
158159  1  0  0  0
158161  1  0  0  0
158313  1  0  0  0
159160  1  0  0  0
159166  2  0  0  0
160314  1  0  0  0
161162  1  0  0  0
161315  1  0  0  0
161316  1  0  0  0
162163  1  0  0  0
162317  1  0  0  0
162318  1  0  0  0
163164  2  0  0  0
163165  1  0  0  0
165319  1  0  0  0
165320  1  0  0  0
M  CHG  1   1   1
M  END
> <s_m_source_file>
../2kup_ligand.sdf

> <i_m_source_file_index>
1

> <s_epik_input>
W2NIXTFbY0hdW2NIXVtjSF1bY0hdYzFbQ0gyXVtDQEhdKFtOSF1DKD1PKVtDQEBIXShbTkgzK10pW0NIMl1bQ0hdKFtDSDNdKVtDSDNdKUMoPU8pW05IXVtDQEBIXShbQ0gyXVtDSDJdW0NIMl1bTkhdL0MoW05IMl0pPU5cW0hdKUMoPU8pW05IXVtDQEBIXShbQ0gyXVtDSF0oW0NIM10pW0NIM10pQyg9TylbTkhdW0NAQEhdKFtDSDJdW0NIMl1bQ0gyXVtOSF0vQyhbTkgyXSk9TlxbSF0pQyg9TylbTkhdW0NAQEhdKFtDSDJdQzI9TltDSDJdTj1bQ0hdMilDKD1PKVtOSF1bQ0BASF0oW0NIMl1jM1tjSF1bY0hdW2NIXVtjSF1bY0hdMylDKD1PKU40W0NAQEhdKFtDSDJdW0NIMl1bQ0gyXTQpQyg9TylbTkhdW0NAQEhdKFtDSDJdW1NIXSlDKD1PKVtOSF1bQ0gyXUMoPU8pW05IXVtDQEBIXShbQ0gyXUMoPU8pW05IMl0pQyg9TylbTkhdW0NAQEhdKFtDSF0oW0NIM10pW0NIM10pQyg9TylbTkhdW0NAQEhdKFtDSDJdQyg9TylbTkgyXSlDKD1PKVtOSF1bQ0BASF0oW0NIMl1jNVtjSF1bY0hdYyhbT0hdKVtjSF1bY0hdNSlDKD1PKVtOSF1bQ0gyXUMoPU8pW05IXVtDQEBIXShbQ0gyXWM2W2NIXVtjSF1jKFtPSF0pW2NIXVtjSF02KUMoPU8pW05IXVtDQEBIXShbQ0gyXVtDSDJdQyg9TylbTkgyXSlDKD1PKVtOSF1bQ0BASF0oW0NIMl1bQ0gyXUMoPU8pW05IMl0pQyg9TylbTkhdW0NASF0oQyg9TylbT0hdKVtDSDJdW0NIMl1DKD1PKVtOSDJd

> <s_epik_cmdline>
J2VwaWtfYXBwJywgJy1pbWFlJywgJ2xpZ2FuZF9wcm8ubWFlJywgJy1vbWFlJywgJ2xpZ2FuZF9wcmVwLm1hZScsICctbXMnLCAnMScsICctcGgnLCAnNycsICctcGh0JywgJzAuNScsICctbnQn

> <s_epik_pKa_notes>
Molecule size exceeds maximum supported for generating protonation states

> <s_epik_Chemistry_Notes>
This compound has an imine and may undergo hydrolysis.

$$$$
