2kwn_ligand
                    3D
 Schrodinger Suite 2020-3.
251251  0  0  1  0            999 V2000
    4.2530   -4.1230   17.9790 N   0  3  0  0  0  0
    4.9610   -5.3920   18.3050 C   0  0  0  0  0  0
    4.0150   -6.5690   18.4370 C   0  0  0  0  0  0
    4.4480   -7.7210   18.4750 O   0  0  0  0  0  0
    2.7180   -6.2810   18.5080 N   0  0  0  0  0  0
    1.7070   -7.3250   18.6370 C   0  0  2  0  0  0
    1.1530   -7.7200   17.2720 C   0  0  0  0  0  0
    1.2440   -6.9570   16.3090 O   0  0  0  0  0  0
    0.5680   -6.8530   19.5440 C   0  0  0  0  0  0
    0.9720   -6.5300   20.9840 C   0  0  0  0  0  0
   -0.2110   -5.9640   21.7540 C   0  0  0  0  0  0
    1.5150   -7.7710   21.6790 C   0  0  0  0  0  0
    0.5780   -8.9170   17.1970 N   0  0  0  0  0  0
    0.0170   -9.3960   15.9460 C   0  0  0  0  0  0
   -1.4890   -9.2370   15.8850 C   0  0  0  0  0  0
   -2.1800  -10.0430   15.2610 O   0  0  0  0  0  0
   -2.0000   -8.1960   16.5350 N   0  0  0  0  0  0
   -3.4350   -7.9340   16.5510 C   0  0  2  0  0  0
   -3.9170   -7.4550   15.1840 C   0  0  0  0  0  0
   -4.9160   -7.9500   14.6630 O   0  0  0  0  0  0
   -3.7750   -6.8990   17.6270 C   0  0  0  0  0  0
   -2.9560   -5.6220   17.5330 C   0  0  0  0  0  0
   -3.2930   -4.6600   18.6620 C   0  0  0  0  0  0
   -2.4810   -3.3790   18.5670 C   0  0  0  0  0  0
   -1.0190   -3.6360   18.6820 N   0  3  0  0  0  0
   -3.1990   -6.4940   14.6070 N   0  0  0  0  0  0
   -3.5690   -5.9700   13.3030 C   0  0  0  0  0  0
   -4.9250   -5.2890   13.3070 C   0  0  0  0  0  0
   -5.9620   -5.9540   13.3420 O   0  0  0  0  0  0
   -4.9170   -3.9600   13.2640 N   0  0  0  0  0  0
   -6.1590   -3.2090   13.2630 C   0  0  0  0  0  0
   -6.9990   -3.4770   12.0280 C   0  0  0  0  0  0
   -8.2140   -3.2840   12.0430 O   0  0  0  0  0  0
   -6.3470   -3.9220   10.9580 N   0  0  0  0  0  0
   -7.0390   -4.2180    9.7090 C   0  0  2  0  0  0
   -6.4070   -5.4160    9.0040 C   0  0  0  0  0  0
   -6.8170   -6.5570    9.2180 O   0  0  0  0  0  0
   -7.0370   -2.9980    8.8000 C   0  0  0  0  0  0
   -4.6950   -4.5110    1.1420 O   0  0  0  0  0  0
   -5.5190   -5.3260    0.7260 C   0  0  0  0  0  0
   -6.0150   -5.1710   -0.7140 C   0  0  0  0  0  0
   -6.2550   -6.0460    1.5650 N   0  0  0  0  0  0
   -6.5460   -5.5900    2.9180 C   0  0  0  0  0  0
   -5.8320   -6.4120    3.9810 C   0  0  0  0  0  0
   -6.2360   -5.9740    5.3830 C   0  0  0  0  0  0
   -5.6670   -6.9010    6.4480 C   0  0  0  0  0  0
   -4.7170   -6.2120    7.4370 C   0  0  2  0  0  0
   -5.4070   -5.1500    8.1650 N   0  0  0  0  0  0
   -3.4990   -5.6720    6.6950 C   0  0  0  0  0  0
   -2.4230   -6.2700    6.7430 O   0  0  0  0  0  0
   -3.6710   -4.5400    6.0130 N   0  0  0  0  0  0
   -2.5850   -3.9320    5.2470 C   0  0  2  0  0  0
   -2.0540   -4.9130    4.2080 C   0  0  0  0  0  0
   -2.4510   -6.0790    4.1700 O   0  0  0  0  0  0
   -1.4460   -3.4840    6.1800 C   0  0  0  0  0  0
   -0.2200   -2.8980    5.4690 C   0  0  0  0  0  0
   -0.4880   -1.5030    4.9120 C   0  0  0  0  0  0
   -1.2080   -0.6620    5.8630 N   0  0  0  0  0  0
   -0.6080    0.1150    6.7610 C   0  0  0  0  0  0
    0.7150    0.1410    6.8410 N   0  0  0  0  0  0
   -1.3330    0.8640    7.5800 N   0  0  0  0  0  0
   -1.1780   -4.4210    3.3540 N   0  0  0  0  0  0
   -0.5590   -5.2260    2.3220 C   0  0  2  0  0  0
    0.2670   -6.3670    2.9350 C   0  0  0  0  0  0
   -0.1620   -7.0090    3.8950 O   0  0  0  0  0  0
    0.3320   -4.3220    1.4720 C   0  0  0  0  0  0
   -0.3130   -3.0310    1.0990 C   0  0  0  0  0  0
   -0.0050   -1.8320    1.6990 N   0  0  0  0  0  0
   -1.2590   -2.7590    0.1770 C   0  0  0  0  0  0
   -0.7380   -0.8760    1.1640 C   0  0  0  0  0  0
   -1.5090   -1.4110    0.2370 N   0  0  0  0  0  0
    1.4410   -6.6200    2.3460 N   0  0  0  0  0  0
    2.3720   -7.6530    2.8100 C   0  0  2  0  0  0
    2.0530   -9.0580    2.2970 C   0  0  0  0  0  0
    2.9480   -9.8960    2.2180 O   0  0  0  0  0  0
    2.4560   -7.6340    4.3270 C   0  0  0  0  0  0
    3.8730   -7.7260    4.8660 C   0  0  0  0  0  0
    4.0710   -8.9760    5.7050 C   0  0  0  0  0  0
    4.5650  -10.0980    4.9120 N   0  0  0  0  0  0
    5.7230  -10.7100    5.1430 C   0  0  0  0  0  0
    6.5150  -10.2930    6.1240 N   0  0  0  0  0  0
    6.0940  -11.7360    4.3900 N   0  0  0  0  0  0
    0.7950   -9.3080    1.9590 N   0  0  0  0  0  0
    0.3620  -10.6070    1.4270 C   0  0  2  0  0  0
    0.9380  -11.7930    2.2090 C   0  0  0  0  0  0
    2.1050  -12.1590    2.0600 O   0  0  0  0  0  0
    0.7000  -10.7210   -0.0740 C   0  0  0  0  0  0
    2.1690  -10.9010   -0.4120 C   0  0  0  0  0  0
    2.3880  -10.7600   -1.9090 C   0  0  0  0  0  0
    3.8430  -10.9420   -2.2860 C   0  0  0  0  0  0
    4.0190  -11.1030   -3.7560 N   0  3  0  0  0  0
    0.0990  -12.3970    3.0430 N   0  0  0  0  0  0
    0.5070  -13.5490    3.8370 C   0  0  2  0  0  0
   -0.1580  -14.8230    3.3110 C   0  0  0  0  0  0
   -1.1630  -15.2890    3.8500 O   0  0  0  0  0  0
    0.1790  -13.3470    5.3340 C   0  0  0  0  0  0
   -1.2830  -12.9700    5.5280 C   0  0  0  0  0  0
    0.5320  -14.5910    6.1390 C   0  0  0  0  0  0
    0.4130  -15.3760    2.2430 N   0  0  0  0  0  0
   -0.1180  -16.5880    1.6240 C   0  0  2  0  0  0
   -1.5630  -16.3780    1.1790 C   0  0  0  0  0  0
   -2.4990  -16.6350    1.9360 O   0  0  0  0  0  0
   -0.0270  -17.7720    2.5910 C   0  0  0  0  0  0
   -0.5430  -19.1050    2.0400 C   0  0  0  0  0  0
    0.2080  -19.4900    0.7740 C   0  0  0  0  0  0
   -0.4150  -20.1990    3.0880 C   0  0  0  0  0  0
   -1.7310  -15.9100   -0.0570 N   0  0  0  0  0  0
   -3.0570  -15.6540   -0.6140 C   0  0  2  0  0  0
   -3.8200  -14.6430    0.2370 C   0  0  0  0  0  0
   -4.5430  -15.0710    1.1610 O   0  0  0  0  0  0
   -3.8580  -16.9540   -0.7260 C   0  0  0  0  0  0
   -3.3030  -17.9270   -1.7530 C   0  0  0  0  0  0
   -4.1860  -19.1570   -1.8860 C   0  0  0  0  0  0
   -4.3190  -19.8730   -0.6210 N   0  0  0  0  0  0
   -5.2140  -20.8330   -0.4060 C   0  0  0  0  0  0
   -6.0510  -21.1940   -1.3710 N   0  0  0  0  0  0
   -5.2730  -21.4330    0.7750 N   0  0  0  0  0  0
   -3.6850  -13.4290   -0.0270 O   0  0  0  0  0  0
    4.9847   -3.3060   17.8953 H   0  0  0  0  0  0
    3.5325   -3.8897   18.7768 H   0  0  0  0  0  0
    3.7188   -4.2361   17.0241 H   0  0  0  0  0  0
    5.6815   -5.6253   17.5072 H   0  0  0  0  0  0
    5.4952   -5.2790   19.2599 H   0  0  0  0  0  0
    2.4153   -5.2243   18.4671 H   0  0  0  0  0  0
    2.2289   -8.1828   19.0862 H   0  0  0  0  0  0
    0.1259   -5.9349   19.1298 H   0  0  0  0  0  0
   -0.2020   -7.6363   19.6034 H   0  0  0  0  0  0
    1.7670   -5.7700   20.9650 H   0  0  0  0  0  0
   -0.5899   -5.0693   21.2383 H   0  0  0  0  0  0
    0.1092   -5.6931   22.7709 H   0  0  0  0  0  0
   -1.0079   -6.7202   21.8097 H   0  0  0  0  0  0
    2.3688   -8.1663   21.1092 H   0  0  0  0  0  0
    0.7257   -8.5352   21.7343 H   0  0  0  0  0  0
    1.8428   -7.5081   22.6956 H   0  0  0  0  0  0
    0.5305   -9.5465   18.0978 H   0  0  0  0  0  0
    0.4509   -8.8295   15.1089 H   0  0  0  0  0  0
    0.2493  -10.4644   15.8252 H   0  0  0  0  0  0
   -1.3123   -7.5242   17.0695 H   0  0  0  0  0  0
   -3.9074   -8.8988   16.7876 H   0  0  0  0  0  0
   -4.8339   -6.6140   17.5401 H   0  0  0  0  0  0
   -3.5920   -7.3308   18.6220 H   0  0  0  0  0  0
   -1.8855   -5.8678   17.5927 H   0  0  0  0  0  0
   -3.1646   -5.1222   16.5756 H   0  0  0  0  0  0
   -4.3604   -4.3986   18.6146 H   0  0  0  0  0  0
   -3.0752   -5.1381   19.6284 H   0  0  0  0  0  0
   -2.6697   -2.8964   17.5967 H   0  0  0  0  0  0
   -2.7750   -2.6975   19.3788 H   0  0  0  0  0  0
   -0.4725   -2.6842   18.6081 H   0  0  0  0  0  0
   -0.6996   -4.3063   17.8704 H   0  0  0  0  0  0
   -0.8048   -4.1074   19.6525 H   0  0  0  0  0  0
   -2.3163   -6.0964   15.1292 H   0  0  0  0  0  0
   -2.8220   -5.2300   12.9798 H   0  0  0  0  0  0
   -3.6084   -6.7934   12.5747 H   0  0  0  0  0  0
   -3.9538   -3.4300   13.2289 H   0  0  0  0  0  0
   -6.7555   -3.4857   14.1449 H   0  0  0  0  0  0
   -5.9364   -2.1322   13.2941 H   0  0  0  0  0  0
   -5.2589   -4.0657   11.0313 H   0  0  0  0  0  0
   -8.0723   -4.4658    9.9934 H   0  0  0  0  0  0
   -7.4958   -2.1479    9.3262 H   0  0  0  0  0  0
   -7.6122   -3.2188    7.8887 H   0  0  0  0  0  0
   -6.0016   -2.7452    8.5279 H   0  0  0  0  0  0
   -5.3042   -4.5529   -1.2821 H   0  0  0  0  0  0
   -7.0023   -4.6859   -0.7115 H   0  0  0  0  0  0
   -6.0949   -6.1628   -1.1830 H   0  0  0  0  0  0
   -6.6484   -7.0112    1.2133 H   0  0  0  0  0  0
   -6.2251   -4.5437    3.0293 H   0  0  0  0  0  0
   -7.6275   -5.6637    3.1052 H   0  0  0  0  0  0
   -6.0904   -7.4741    3.8581 H   0  0  0  0  0  0
   -4.7447   -6.2844    3.8742 H   0  0  0  0  0  0
   -5.8604   -4.9576    5.5721 H   0  0  0  0  0  0
   -7.3327   -5.9812    5.4677 H   0  0  0  0  0  0
   -6.4902   -7.3317    7.0370 H   0  0  0  0  0  0
   -5.0995   -7.7100    5.9648 H   0  0  0  0  0  0
   -4.3902   -6.9190    8.2137 H   0  0  0  0  0  0
   -5.1039   -4.1017    8.0266 H   0  0  0  0  0  0
   -4.6617   -4.0625    6.0368 H   0  0  0  0  0  0
   -3.0306   -3.0614    4.7434 H   0  0  0  0  0  0
   -1.8165   -2.7056    6.8633 H   0  0  0  0  0  0
   -1.0901   -4.3455    6.7641 H   0  0  0  0  0  0
    0.6167   -2.8270    6.1795 H   0  0  0  0  0  0
    0.0650   -3.5512    4.6311 H   0  0  0  0  0  0
    0.4679   -1.0126    4.6759 H   0  0  0  0  0  0
   -1.0945   -1.5835    3.9978 H   0  0  0  0  0  0
   -2.3079   -0.6481    5.8620 H   0  0  0  0  0  0
    1.3193   -0.4794    6.1628 H   0  0  0  0  0  0
    1.2085    0.7829    7.5856 H   0  0  0  0  0  0
   -2.4310    0.8446    7.5161 H   0  0  0  0  0  0
   -0.9223   -3.3552    3.4476 H   0  0  0  0  0  0
   -1.3808   -5.6511    1.7270 H   0  0  0  0  0  0
    1.2494   -4.0824    2.0296 H   0  0  0  0  0  0
    0.5954   -4.8401    0.5381 H   0  0  0  0  0  0
   -1.8046   -3.3881   -0.5417 H   0  0  0  0  0  0
   -0.7115    0.1780    1.4407 H   0  0  0  0  0  0
    1.6941   -6.0049    1.4699 H   0  0  0  0  0  0
    3.3345   -7.3616    2.3642 H   0  0  0  0  0  0
    2.0236   -6.6964    4.7064 H   0  0  0  0  0  0
    1.8960   -8.4879    4.7360 H   0  0  0  0  0  0
    4.5834   -7.7548    4.0267 H   0  0  0  0  0  0
    4.0838   -6.8484    5.4949 H   0  0  0  0  0  0
    4.8021   -8.7713    6.5010 H   0  0  0  0  0  0
    3.1118   -9.2712    6.1553 H   0  0  0  0  0  0
    3.9693  -10.4811    4.0704 H   0  0  0  0  0  0
    6.2117   -9.4421    6.7517 H   0  0  0  0  0  0
    7.4743  -10.7985    6.3089 H   0  0  0  0  0  0
    5.4416  -12.0853    3.5762 H   0  0  0  0  0  0
    0.0643   -8.4964    2.0906 H   0  0  0  0  0  0
   -0.7276  -10.6062    1.5783 H   0  0  0  0  0  0
    0.1788  -11.5899   -0.5022 H   0  0  0  0  0  0
    0.3764   -9.8068   -0.5932 H   0  0  0  0  0  0
    2.7619  -10.1361    0.1108 H   0  0  0  0  0  0
    2.4986  -11.9011   -0.0940 H   0  0  0  0  0  0
    1.7969  -11.5211   -2.4393 H   0  0  0  0  0  0
    2.0708   -9.7579   -2.2332 H   0  0  0  0  0  0
    4.4180  -10.0611   -1.9644 H   0  0  0  0  0  0
    4.2405  -11.8402   -1.7908 H   0  0  0  0  0  0
    5.0870  -11.2320   -3.9854 H   0  0  0  0  0  0
    3.6388  -10.2084   -4.2709 H   0  0  0  0  0  0
    3.4612  -11.9875   -4.0974 H   0  0  0  0  0  0
   -0.9262  -12.0070    3.1261 H   0  0  0  0  0  0
    1.5966  -13.6112    3.6993 H   0  0  0  0  0  0
    0.7864  -12.5157    5.7213 H   0  0  0  0  0  0
   -1.5112  -12.0706    4.9373 H   0  0  0  0  0  0
   -1.4711  -12.7670    6.5926 H   0  0  0  0  0  0
   -1.9231  -13.8000    5.1943 H   0  0  0  0  0  0
    1.5915  -14.8412    5.9814 H   0  0  0  0  0  0
   -0.0963  -15.4316    5.8093 H   0  0  0  0  0  0
    0.3557  -14.3985    7.2076 H   0  0  0  0  0  0
    1.3099  -14.8936    1.8272 H   0  0  0  0  0  0
    0.5165  -16.7715    0.7444 H   0  0  0  0  0  0
    1.0237  -17.9353    2.8728 H   0  0  0  0  0  0
   -0.6190  -17.5555    3.4925 H   0  0  0  0  0  0
   -1.6074  -18.9936    1.7859 H   0  0  0  0  0  0
    0.1046  -18.6881    0.0281 H   0  0  0  0  0  0
   -0.2101  -20.4235    0.3692 H   0  0  0  0  0  0
    1.2724  -19.6367    1.0094 H   0  0  0  0  0  0
   -0.9632  -19.9039    3.9949 H   0  0  0  0  0  0
    0.6467  -20.3489    3.3338 H   0  0  0  0  0  0
   -0.8359  -21.1356    2.6936 H   0  0  0  0  0  0
   -0.8333  -15.7161   -0.6624 H   0  0  0  0  0  0
   -2.8734  -15.2336   -1.6138 H   0  0  0  0  0  0
   -3.8588  -17.4690    0.2460 H   0  0  0  0  0  0
   -4.8927  -16.7231   -1.0195 H   0  0  0  0  0  0
   -3.2448  -17.4316   -2.7334 H   0  0  0  0  0  0
   -2.2977  -18.2508   -1.4456 H   0  0  0  0  0  0
   -5.1903  -18.8534   -2.2164 H   0  0  0  0  0  0
   -3.7488  -19.8440   -2.6255 H   0  0  0  0  0  0
   -3.6562  -19.6280    0.2220 H   0  0  0  0  0  0
   -6.0055  -20.6989   -2.3522 H   0  0  0  0  0  0
   -6.7901  -21.9882   -1.1894 H   0  0  0  0  0  0
   -4.5813  -21.1370    1.5775 H   0  0  0  0  0  0
   -4.2209  -12.6741    0.5670 H   0  0  0  0  0  0
  1  2  1  0  0  0
  1119  1  0  0  0
  1120  1  0  0  0
  1121  1  0  0  0
  2  3  1  0  0  0
  2122  1  0  0  0
  2123  1  0  0  0
  3  4  2  0  0  0
  3  5  1  0  0  0
  5  6  1  0  0  0
  5124  1  0  0  0
  6  7  1  0  0  0
  6  9  1  0  0  0
  6125  1  0  0  0
  7  8  2  0  0  0
  7 13  1  0  0  0
  9 10  1  0  0  0
  9126  1  0  0  0
  9127  1  0  0  0
 10 11  1  0  0  0
 10 12  1  0  0  0
 10128  1  0  0  0
 11129  1  0  0  0
 11130  1  0  0  0
 11131  1  0  0  0
 12132  1  0  0  0
 12133  1  0  0  0
 12134  1  0  0  0
 13 14  1  0  0  0
 13135  1  0  0  0
 14 15  1  0  0  0
 14136  1  0  0  0
 14137  1  0  0  0
 15 16  2  0  0  0
 15 17  1  0  0  0
 17 18  1  0  0  0
 17138  1  0  0  0
 18 19  1  0  0  0
 18 21  1  0  0  0
 18139  1  0  0  0
 19 20  2  0  0  0
 19 26  1  0  0  0
 21 22  1  0  0  0
 21140  1  0  0  0
 21141  1  0  0  0
 22 23  1  0  0  0
 22142  1  0  0  0
 22143  1  0  0  0
 23 24  1  0  0  0
 23144  1  0  0  0
 23145  1  0  0  0
 24 25  1  0  0  0
 24146  1  0  0  0
 24147  1  0  0  0
 25148  1  0  0  0
 25149  1  0  0  0
 25150  1  0  0  0
 26 27  1  0  0  0
 26151  1  0  0  0
 27 28  1  0  0  0
 27152  1  0  0  0
 27153  1  0  0  0
 28 29  2  0  0  0
 28 30  1  0  0  0
 30 31  1  0  0  0
 30154  1  0  0  0
 31 32  1  0  0  0
 31155  1  0  0  0
 31156  1  0  0  0
 32 33  2  0  0  0
 32 34  1  0  0  0
 34 35  1  0  0  0
 34157  1  0  0  0
 35 36  1  0  0  0
 35 38  1  0  0  0
 35158  1  0  0  0
 36 37  2  0  0  0
 36 48  1  0  0  0
 38159  1  0  0  0
 38160  1  0  0  0
 38161  1  0  0  0
 39 40  2  0  0  0
 40 41  1  0  0  0
 40 42  1  0  0  0
 41162  1  0  0  0
 41163  1  0  0  0
 41164  1  0  0  0
 42 43  1  0  0  0
 42165  1  0  0  0
 43 44  1  0  0  0
 43166  1  0  0  0
 43167  1  0  0  0
 44 45  1  0  0  0
 44168  1  0  0  0
 44169  1  0  0  0
 45 46  1  0  0  0
 45170  1  0  0  0
 45171  1  0  0  0
 46 47  1  0  0  0
 46172  1  0  0  0
 46173  1  0  0  0
 47 48  1  0  0  0
 47 49  1  0  0  0
 47174  1  0  0  0
 48175  1  0  0  0
 49 50  2  0  0  0
 49 51  1  0  0  0
 51 52  1  0  0  0
 51176  1  0  0  0
 52 53  1  0  0  0
 52 55  1  0  0  0
 52177  1  0  0  0
 53 54  2  0  0  0
 53 62  1  0  0  0
 55 56  1  0  0  0
 55178  1  0  0  0
 55179  1  0  0  0
 56 57  1  0  0  0
 56180  1  0  0  0
 56181  1  0  0  0
 57 58  1  0  0  0
 57182  1  0  0  0
 57183  1  0  0  0
 58 59  1  0  0  0
 58184  1  0  0  0
 59 60  1  0  0  0
 59 61  2  0  0  0
 60185  1  0  0  0
 60186  1  0  0  0
 61187  1  0  0  0
 62 63  1  0  0  0
 62188  1  0  0  0
 63 64  1  0  0  0
 63 66  1  0  0  0
 63189  1  0  0  0
 64 65  2  0  0  0
 64 72  1  0  0  0
 66 67  1  0  0  0
 66190  1  0  0  0
 66191  1  0  0  0
 67 68  2  0  0  0
 67 69  1  0  0  0
 68 70  1  0  0  0
 69 71  2  0  0  0
 69192  1  0  0  0
 70 71  1  0  0  0
 70193  1  0  0  0
 72 73  1  0  0  0
 72194  1  0  0  0
 73 74  1  0  0  0
 73 76  1  0  0  0
 73195  1  0  0  0
 74 75  2  0  0  0
 74 83  1  0  0  0
 76 77  1  0  0  0
 76196  1  0  0  0
 76197  1  0  0  0
 77 78  1  0  0  0
 77198  1  0  0  0
 77199  1  0  0  0
 78 79  1  0  0  0
 78200  1  0  0  0
 78201  1  0  0  0
 79 80  1  0  0  0
 79202  1  0  0  0
 80 81  1  0  0  0
 80 82  2  0  0  0
 81203  1  0  0  0
 81204  1  0  0  0
 82205  1  0  0  0
 83 84  1  0  0  0
 83206  1  0  0  0
 84 85  1  0  0  0
 84 87  1  0  0  0
 84207  1  0  0  0
 85 86  2  0  0  0
 85 92  1  0  0  0
 87 88  1  0  0  0
 87208  1  0  0  0
 87209  1  0  0  0
 88 89  1  0  0  0
 88210  1  0  0  0
 88211  1  0  0  0
 89 90  1  0  0  0
 89212  1  0  0  0
 89213  1  0  0  0
 90 91  1  0  0  0
 90214  1  0  0  0
 90215  1  0  0  0
 91216  1  0  0  0
 91217  1  0  0  0
 91218  1  0  0  0
 92 93  1  0  0  0
 92219  1  0  0  0
 93 94  1  0  0  0
 93 96  1  0  0  0
 93220  1  0  0  0
 94 95  2  0  0  0
 94 99  1  0  0  0
 96 97  1  0  0  0
 96 98  1  0  0  0
 96221  1  0  0  0
 97222  1  0  0  0
 97223  1  0  0  0
 97224  1  0  0  0
 98225  1  0  0  0
 98226  1  0  0  0
 98227  1  0  0  0
 99100  1  0  0  0
 99228  1  0  0  0
100101  1  0  0  0
100103  1  0  0  0
100229  1  0  0  0
101102  2  0  0  0
101107  1  0  0  0
103104  1  0  0  0
103230  1  0  0  0
103231  1  0  0  0
104105  1  0  0  0
104106  1  0  0  0
104232  1  0  0  0
105233  1  0  0  0
105234  1  0  0  0
105235  1  0  0  0
106236  1  0  0  0
106237  1  0  0  0
106238  1  0  0  0
107108  1  0  0  0
107239  1  0  0  0
108109  1  0  0  0
108111  1  0  0  0
108240  1  0  0  0
109110  2  0  0  0
109118  1  0  0  0
111112  1  0  0  0
111241  1  0  0  0
111242  1  0  0  0
112113  1  0  0  0
112243  1  0  0  0
112244  1  0  0  0
113114  1  0  0  0
113245  1  0  0  0
113246  1  0  0  0
114115  1  0  0  0
114247  1  0  0  0
115116  1  0  0  0
115117  2  0  0  0
116248  1  0  0  0
116249  1  0  0  0
117250  1  0  0  0
118251  1  0  0  0
M  CHG  3   1   1  25   1  91   1
M  END
> <s_m_source_file>
../2kwn_ligand.sdf

> <i_m_source_file_index>
1

> <s_epik_input>
W05IMytdW0NIMl1DKD1PKVtOSF1bQ0BASF0oW0NIMl1bQ0hdKFtDSDNdKVtDSDNdKUMoPU8pW05IXVtDSDJdQyg9TylbTkhdW0NAQEhdKFtDSDJdW0NIMl1bQ0gyXVtDSDJdW05IMytdKUMoPU8pW05IXVtDSDJdQyg9TylbTkhdW0NIMl1DKD1PKVtOSF1bQ0BASF0oW0NIM10pQyg9TylbTkhdW0NAQEhdKFtDSDJdW0NIMl1bQ0gyXVtDSDJdW05IXUMoPU8pW0NIM10pQyg9TylbTkhdW0NAQEhdKFtDSDJdW0NIMl1bQ0gyXVtOSF0vQyhbTkgyXSk9TlxbSF0pQyg9TylbTkhdW0NAQEhdKFtDSDJdQzE9TltDSDJdTj1bQ0hdMSlDKD1PKVtOSF1bQ0BASF0oW0NIMl1bQ0gyXVtDSDJdW05IXS9DKFtOSDJdKT1OXFtIXSlDKD1PKVtOSF1bQ0BASF0oW0NIMl1bQ0gyXVtDSDJdW0NIMl1bTkgzK10pQyg9TylbTkhdW0NAQEhdKFtDSF0oW0NIM10pW0NIM10pQyg9TylbTkhdW0NAQEhdKFtDSDJdW0NIXShbQ0gzXSlbQ0gzXSlDKD1PKVtOSF1bQ0BIXShDKD1PKVtPSF0pW0NIMl1bQ0gyXVtDSDJdW05IXS9DKFtOSDJdKT1OXFtIXQ==

> <s_epik_cmdline>
J2VwaWtfYXBwJywgJy1pbWFlJywgJ2xpZ2FuZF9wcm8ubWFlJywgJy1vbWFlJywgJ2xpZ2FuZF9wcmVwLm1hZScsICctbXMnLCAnMScsICctcGgnLCAnNycsICctcGh0JywgJzAuNScsICctbnQn

> <s_epik_pKa_notes>
Molecule size exceeds maximum supported for generating protonation states

> <s_epik_Chemistry_Notes>
This compound has an imine and may undergo hydrolysis.

$$$$
