2l0i_ligand
                    3D
 Schrodinger Suite 2020-3.
127130  0  0  1  0            999 V2000
    1.7680  -12.4180   13.6010 N   0  3  0  0  0  0
    1.7620  -11.3760   14.6570 C   0  0  2  0  0  0
    0.6610  -10.3330   14.4490 C   0  0  0  0  0  0
    0.3230   -9.6030   15.3830 O   0  0  0  0  0  0
    3.1240  -10.7240   14.6930 C   0  0  0  0  0  0
    4.0000  -11.8080   14.1850 C   0  0  0  0  0  0
    3.1780  -12.5610   13.1580 C   0  0  0  0  0  0
    0.1180  -10.2590   13.2300 N   0  0  0  0  0  0
   -0.9650   -9.3280   12.8930 C   0  0  2  0  0  0
   -0.4840   -7.8760   12.8060 C   0  0  0  0  0  0
    0.0780   -7.3200   13.7530 O   0  0  0  0  0  0
   -2.1230   -9.4550   13.8930 C   0  0  0  0  0  0
   -2.6120  -10.7890   13.9360 O   0  0  0  0  0  0
   -0.7260   -7.2610   11.6570 N   0  0  0  0  0  0
   -0.3270   -5.8780   11.4160 C   0  0  2  0  0  0
   -1.5470   -4.9650   11.3400 C   0  0  0  0  0  0
   -2.4810   -5.2380   10.5810 O   0  0  0  0  0  0
    0.4620   -5.7950   10.1020 C   0  0  0  0  0  0
    0.8400   -4.3870    9.6790 C   0  0  0  0  0  0
   -0.0360   -3.5940    8.9410 C   0  0  0  0  0  0
    2.0770   -3.8570   10.0080 C   0  0  0  0  0  0
    0.3140   -2.3170    8.5480 C   0  0  0  0  0  0
    2.4350   -2.5810    9.6170 C   0  0  0  0  0  0
    1.5480   -1.8130    8.8890 C   0  0  0  0  0  0
    1.9010   -0.5430    8.4970 O   0  0  0  0  0  0
   -1.5350   -3.8840   12.1120 N   0  0  0  0  0  0
   -2.6310   -2.9310   12.0990 C   0  0  1  0  0  0
   -3.3500   -2.9340   13.4450 C   0  0  0  0  0  0
   -4.7400   -2.6500   13.2930 O   0  0  0  0  0  0
   -2.0710   -1.5510   11.7890 C   0  0  0  0  0  0
   -0.9610   -1.2460   12.2030 O   0  0  0  0  0  0
   -5.3770   -1.3430   13.9730 P   0  0  0  0  0  0
   -4.5970   -0.2050   13.4820 O   0  0  0  0  0  0
   -5.3340   -1.3000   15.4480 O   0  5  0  0  0  0
   -6.8020   -1.0750   13.6500 O   0  5  0  0  0  0
   -2.8140   -0.7140   11.0400 N   0  0  0  0  0  0
   -2.3720    0.6430   10.6600 C   0  0  2  0  0  0
   -1.8730    1.4950   11.8290 C   0  0  0  0  0  0
   -0.9660    2.3120   11.6610 O   0  0  0  0  0  0
   -3.6300    1.2670   10.0570 C   0  0  0  0  0  0
   -4.3980    0.1100    9.5260 C   0  0  0  0  0  0
   -4.1420   -1.0270   10.4760 C   0  0  0  0  0  0
   -2.4580    1.3100   13.0040 N   0  0  0  0  0  0
   -2.0530    2.0760   14.1760 C   0  0  2  0  0  0
   -0.7460    1.5410   14.7700 C   0  0  0  0  0  0
   -0.0920    2.2160   15.5640 O   0  0  0  0  0  0
   -3.1520    2.0700   15.2580 C   0  0  2  0  0  0
   -4.4500    2.0590   14.6430 O   0  0  0  0  0  0
   -3.0350    3.2920   16.1570 C   0  0  0  0  0  0
   -0.3580    0.3360   14.3660 N   0  0  0  0  0  0
    0.8680   -0.2830   14.8560 C   0  0  2  0  0  0
    1.7130   -0.7760   13.6800 C   0  0  0  0  0  0
    1.7050   -1.9650   13.3430 O   0  0  0  0  0  0
    0.5340   -1.4410   15.8030 C   0  0  0  0  0  0
   -0.3430   -1.0140   16.8380 O   0  0  0  0  0  0
    2.4250    0.1480   13.0220 N   0  0  0  0  0  0
    3.2640   -0.1580   11.8710 C   0  0  2  0  0  0
    4.6780   -0.6050   12.2460 C   0  0  0  0  0  0
    5.2720   -1.4400   11.5660 O   0  0  0  0  0  0
    3.3140    1.1740   11.1020 C   0  0  0  0  0  0
    2.5940    2.1800   11.9500 C   0  0  0  0  0  0
    2.4490    1.5760   13.3180 C   0  0  0  0  0  0
    5.2250   -0.0470   13.3150 N   0  0  0  0  0  0
    6.5720   -0.3950   13.7420 C   0  0  2  0  0  0
    6.5570   -0.9120   15.1720 C   0  0  0  0  0  0
    6.6130   -2.1430   15.3580 O   0  0  0  0  0  0
    7.4920    0.8230   13.6290 C   0  0  0  0  0  0
    7.2610    1.5200   12.4130 O   0  0  0  0  0  0
    6.4840   -0.0830   16.1000 O   0  5  0  0  0  0
    1.3886  -13.3632   14.0165 H   0  0  0  0  0  0
    1.1245  -12.0993   12.7677 H   0  0  0  0  0  0
    1.5546  -11.8832   15.6108 H   0  0  0  0  0  0
    3.1216   -9.8339   14.0467 H   0  0  0  0  0  0
    3.3612  -10.4269   15.7252 H   0  0  0  0  0  0
    4.9001  -11.3691   13.7299 H   0  0  0  0  0  0
    4.2930  -12.4636   15.0183 H   0  0  0  0  0  0
    3.4471  -13.6272   13.1298 H   0  0  0  0  0  0
    3.2926  -12.1272   12.1537 H   0  0  0  0  0  0
    0.5189  -10.9374   12.4625 H   0  0  0  0  0  0
   -1.2905   -9.6439   11.8909 H   0  0  0  0  0  0
   -1.7727   -9.1743   14.8972 H   0  0  0  0  0  0
   -2.9433   -8.7873   13.5909 H   0  0  0  0  0  0
   -3.4452  -11.0480   14.6058 H   0  0  0  0  0  0
   -1.2459   -7.8284   10.8710 H   0  0  0  0  0  0
    0.2944   -5.5883   12.2762 H   0  0  0  0  0  0
    1.4002   -6.3605   10.2014 H   0  0  0  0  0  0
   -0.1390   -6.2223    9.2858 H   0  0  0  0  0  0
   -1.0150   -3.9884    8.6689 H   0  0  0  0  0  0
    2.7802   -4.4571   10.5854 H   0  0  0  0  0  0
   -0.3842   -1.7113    7.9703 H   0  0  0  0  0  0
    3.4141   -2.1821    9.8823 H   0  0  0  0  0  0
    1.1952    0.0697    7.9170 H   0  0  0  0  0  0
   -0.6701   -3.7185   12.7712 H   0  0  0  0  0  0
   -3.3326   -3.2485   11.3135 H   0  0  0  0  0  0
   -3.2451   -3.9232   13.9145 H   0  0  0  0  0  0
   -2.9068   -2.1688   14.0992 H   0  0  0  0  0  0
   -1.5105    0.5576    9.9814 H   0  0  0  0  0  0
   -4.1847    1.8040   10.8406 H   0  0  0  0  0  0
   -3.3449    1.9712    9.2615 H   0  0  0  0  0  0
   -5.4674    0.3652    9.4900 H   0  0  0  0  0  0
   -4.0443   -0.1309    8.5127 H   0  0  0  0  0  0
   -4.1027   -1.9995    9.9635 H   0  0  0  0  0  0
   -4.8840   -1.0696   11.2869 H   0  0  0  0  0  0
   -3.2617    0.5634   13.0857 H   0  0  0  0  0  0
   -1.8998    3.0923   13.7841 H   0  0  0  0  0  0
   -3.0901    1.1516   15.8602 H   0  0  0  0  0  0
   -4.7251    1.2473   13.9535 H   0  0  0  0  0  0
   -2.0423    3.3051   16.6306 H   0  0  0  0  0  0
   -3.8118    3.2507   16.9348 H   0  0  0  0  0  0
   -3.1664    4.2036   15.5555 H   0  0  0  0  0  0
   -0.9911   -0.1963   13.6409 H   0  0  0  0  0  0
    1.4116    0.5016   15.4027 H   0  0  0  0  0  0
    0.0462   -2.2484   15.2371 H   0  0  0  0  0  0
    1.4603   -1.8207   16.2589 H   0  0  0  0  0  0
   -0.6798   -1.7288   17.6033 H   0  0  0  0  0  0
    2.8186   -1.0068   11.3315 H   0  0  0  0  0  0
    4.3624    1.4683   10.9463 H   0  0  0  0  0  0
    2.8184    1.0536   10.1274 H   0  0  0  0  0  0
    3.1813    3.1090   11.9950 H   0  0  0  0  0  0
    1.6076    2.3907   11.5111 H   0  0  0  0  0  0
    1.5117    1.8627   13.8173 H   0  0  0  0  0  0
    3.2996    1.7993   13.9788 H   0  0  0  0  0  0
    4.6415    0.6921   13.8835 H   0  0  0  0  0  0
    6.9085   -1.1936   13.0645 H   0  0  0  0  0  0
    7.3014    1.5057   14.4702 H   0  0  0  0  0  0
    8.5412    0.4936   13.6545 H   0  0  0  0  0  0
    7.8433    2.4230   12.1775 H   0  0  0  0  0  0
  1  2  1  0  0  0
  1  7  1  0  0  0
  1 70  1  0  0  0
  1 71  1  0  0  0
  2  3  1  0  0  0
  2  5  1  0  0  0
  2 72  1  0  0  0
  3  4  2  0  0  0
  3  8  1  0  0  0
  5  6  1  0  0  0
  5 73  1  0  0  0
  5 74  1  0  0  0
  6  7  1  0  0  0
  6 75  1  0  0  0
  6 76  1  0  0  0
  7 77  1  0  0  0
  7 78  1  0  0  0
  8  9  1  0  0  0
  8 79  1  0  0  0
  9 10  1  0  0  0
  9 12  1  0  0  0
  9 80  1  0  0  0
 10 11  2  0  0  0
 10 14  1  0  0  0
 12 13  1  0  0  0
 12 81  1  0  0  0
 12 82  1  0  0  0
 13 83  1  0  0  0
 14 15  1  0  0  0
 14 84  1  0  0  0
 15 16  1  0  0  0
 15 18  1  0  0  0
 15 85  1  0  0  0
 16 17  2  0  0  0
 16 26  1  0  0  0
 18 19  1  0  0  0
 18 86  1  0  0  0
 18 87  1  0  0  0
 19 20  2  0  0  0
 19 21  1  0  0  0
 20 22  1  0  0  0
 20 88  1  0  0  0
 21 23  2  0  0  0
 21 89  1  0  0  0
 22 24  2  0  0  0
 22 90  1  0  0  0
 23 24  1  0  0  0
 23 91  1  0  0  0
 24 25  1  0  0  0
 25 92  1  0  0  0
 26 27  1  0  0  0
 26 93  1  0  0  0
 27 28  1  0  0  0
 27 30  1  0  0  0
 27 94  1  0  0  0
 28 29  1  0  0  0
 28 95  1  0  0  0
 28 96  1  0  0  0
 29 32  1  0  0  0
 30 31  2  0  0  0
 30 36  1  0  0  0
 32 33  2  0  0  0
 32 34  1  0  0  0
 32 35  1  0  0  0
 36 37  1  0  0  0
 36 42  1  0  0  0
 37 38  1  0  0  0
 37 40  1  0  0  0
 37 97  1  0  0  0
 38 39  2  0  0  0
 38 43  1  0  0  0
 40 41  1  0  0  0
 40 98  1  0  0  0
 40 99  1  0  0  0
 41 42  1  0  0  0
 41100  1  0  0  0
 41101  1  0  0  0
 42102  1  0  0  0
 42103  1  0  0  0
 43 44  1  0  0  0
 43104  1  0  0  0
 44 45  1  0  0  0
 44 47  1  0  0  0
 44105  1  0  0  0
 45 46  2  0  0  0
 45 50  1  0  0  0
 47 48  1  0  0  0
 47 49  1  0  0  0
 47106  1  0  0  0
 48107  1  0  0  0
 49108  1  0  0  0
 49109  1  0  0  0
 49110  1  0  0  0
 50 51  1  0  0  0
 50111  1  0  0  0
 51 52  1  0  0  0
 51 54  1  0  0  0
 51112  1  0  0  0
 52 53  2  0  0  0
 52 56  1  0  0  0
 54 55  1  0  0  0
 54113  1  0  0  0
 54114  1  0  0  0
 55115  1  0  0  0
 56 57  1  0  0  0
 56 62  1  0  0  0
 57 58  1  0  0  0
 57 60  1  0  0  0
 57116  1  0  0  0
 58 59  2  0  0  0
 58 63  1  0  0  0
 60 61  1  0  0  0
 60117  1  0  0  0
 60118  1  0  0  0
 61 62  1  0  0  0
 61119  1  0  0  0
 61120  1  0  0  0
 62121  1  0  0  0
 62122  1  0  0  0
 63 64  1  0  0  0
 63123  1  0  0  0
 64 65  1  0  0  0
 64 67  1  0  0  0
 64124  1  0  0  0
 65 66  2  0  0  0
 65 69  1  0  0  0
 67 68  1  0  0  0
 67125  1  0  0  0
 67126  1  0  0  0
 68127  1  0  0  0
M  CHG  4   1   1  34  -1  35  -1  69  -1
M  END
> <s_m_source_file>
../2l0i_ligand.sdf

> <i_m_source_file_index>
1

> <s_epik_input>
W0NIMl0xW0NIMl1bQ0gyXVtOSDIrXVtDQEBIXTFDKD1PKVtOSF1bQ0BASF0oW0NIMl1bT0hdKUMoPU8pW05IXVtDQEBIXShbQ0gyXWMyW2NIXVtjSF1jKFtPSF0pW2NIXVtjSF0yKUMoPU8pW05IXVtDQEBIXShbQ0gyXU9QKD1PKShbT0hdKVtPSF0pQyg9TylOM1tDQEBIXShbQ0gyXVtDSDJdW0NIMl0zKUMoPU8pW05IXVtDQEBIXShbQ0BIXShbT0hdKVtDSDNdKUMoPU8pW05IXVtDQEBIXShbQ0gyXVtPSF0pQyg9TylONFtDQEBIXShbQ0gyXVtDSDJdW0NIMl00KUMoPU8pW05IXVtDQEhdKEMoPU8pW09IXSlbQ0gyXVtPSF0=

> <s_epik_cmdline>
J2VwaWtfYXBwJywgJy1pbWFlJywgJ2xpZ2FuZF9wcm8ubWFlJywgJy1vbWFlJywgJ2xpZ2FuZF9wcmVwLm1hZScsICctbXMnLCAnMScsICctcGgnLCAnNycsICctcGh0JywgJzAuNScsICctbnQn

> <r_lp_tautomer_probability>
1

> <r_epik_Ionization_Penalty>
  0.1236

> <r_epik_Ionization_Penalty_Charging>
  0.1227

> <r_epik_Ionization_Penalty_Neutral>
  0.0009

> <r_epik_State_Penalty>
 -0.0000

> <r_epik_Charging_Adjusted_Penalty>
0.122694786288672

> <i_epik_Tot_Q>
-2

> <i_epik_Tot_abs_Q>
4

$$$$
