2l11_ligand
                    3D
 Schrodinger Suite 2020-3.
239238  0  0  1  0            999 V2000
   14.6370    3.0670  -19.4190 N   0  3  0  0  0  0
   14.9500    4.5180  -19.4260 C   0  0  2  0  0  0
   14.4490    5.2030  -18.1410 C   0  0  0  0  0  0
   14.9700    6.2520  -17.7450 O   0  0  0  0  0  0
   14.3680    5.1840  -20.6830 C   0  0  0  0  0  0
   13.4280    4.6070  -17.5020 N   0  0  0  0  0  0
   12.8390    5.1240  -16.2540 C   0  0  2  0  0  0
   13.4360    4.3950  -15.0410 C   0  0  0  0  0  0
   13.1150    3.2300  -14.7750 O   0  0  0  0  0  0
   11.2970    4.9720  -16.3030 C   0  0  0  0  0  0
   10.6310    5.7240  -17.4790 C   0  0  0  0  0  0
   10.9610    7.2290  -17.4800 C   0  0  0  0  0  0
   10.3320    7.9380  -18.6070 N   0  0  0  0  0  0
    9.7420    9.1380  -18.5300 C   0  0  0  0  0  0
    9.5890    9.7600  -17.3560 N   0  0  0  0  0  0
    9.2790    9.6980  -19.6340 N   0  0  0  0  0  0
   14.3380    5.0930  -14.3410 N   0  0  0  0  0  0
   15.0320    4.5740  -13.1590 C   0  0  2  0  0  0
   14.1800    4.8000  -11.8970 C   0  0  0  0  0  0
   14.2770    5.8400  -11.2330 O   0  0  0  0  0  0
   16.4520    5.2250  -13.0160 C   0  0  2  0  0  0
   16.3440    6.6670  -12.9790 O   0  0  0  0  0  0
   17.3710    4.8150  -14.1780 C   0  0  0  0  0  0
   13.2840    3.8400  -11.6200 N   0  0  0  0  0  0
   12.4500    3.8430  -10.4130 C   0  0  2  0  0  0
   13.0420    2.8990   -9.3660 C   0  0  0  0  0  0
   13.3810    1.7470   -9.6710 O   0  0  0  0  0  0
   10.9950    3.4250  -10.7370 C   0  0  0  0  0  0
   10.2120    4.4440  -11.5900 C   0  0  0  0  0  0
    8.7230    4.0550  -11.7330 C   0  0  0  0  0  0
    7.9070    5.0890  -12.5190 C   0  0  0  0  0  0
    6.4730    4.7080  -12.6310 N   0  3  0  0  0  0
   13.1670    3.3970   -8.1390 N   0  0  0  0  0  0
   13.5980    2.6220   -6.9760 C   0  0  2  0  0  0
   12.5200    2.7240   -5.8920 C   0  0  0  0  0  0
   11.9650    3.8020   -5.6670 O   0  0  0  0  0  0
   14.9580    3.1540   -6.4660 C   0  0  0  0  0  0
   16.1630    2.8850   -7.3970 C   0  0  0  0  0  0
   16.5450    1.4050   -7.4800 C   0  0  0  0  0  0
   17.3540    0.9160   -6.6870 O   0  0  0  0  0  0
   15.9680    0.6790   -8.4310 N   0  0  0  0  0  0
   12.2170    1.6010   -5.2310 N   0  0  0  0  0  0
   11.1390    1.5140   -4.2360 C   0  0  2  0  0  0
   11.6890    1.6510   -2.8060 C   0  0  0  0  0  0
   12.8250    1.2470   -2.5160 O   0  0  0  0  0  0
   10.3590    0.1680   -4.4030 C   0  0  2  0  0  0
   11.2840   -0.9340   -4.4310 O   0  0  0  0  0  0
    9.5160    0.1470   -5.6930 C   0  0  0  0  0  0
   10.8680    2.2510   -1.9260 N   0  0  0  0  0  0
   11.1730    2.4240   -0.4990 C   0  0  2  0  0  0
    9.8730    2.4520    0.3110 C   0  0  0  0  0  0
    8.8490    2.9820   -0.1390 O   0  0  0  0  0  0
   11.9840    3.7040   -0.2590 C   0  0  0  0  0  0
    9.9260    1.8780    1.5120 N   0  0  0  0  0  0
    8.7800    1.7650    2.4240 C   0  0  2  0  0  0
    8.9720    2.7570    3.5810 C   0  0  0  0  0  0
   10.0570    2.8120    4.1680 O   0  0  0  0  0  0
    8.7090    0.3010    2.9400 C   0  0  0  0  0  0
    8.5400   -0.7580    1.8190 C   0  0  0  0  0  0
    8.7600   -2.2060    2.3020 C   0  0  0  0  0  0
    7.8820   -2.5670    3.4400 N   0  0  0  0  0  0
    7.1990   -3.7150    3.5610 C   0  0  0  0  0  0
    7.2050   -4.6200    2.5860 N   0  0  0  0  0  0
    6.5030   -3.9480    4.6600 N   0  0  0  0  0  0
    7.9410    3.5620    3.8910 N   0  0  0  0  0  0
    8.0200    4.5310    4.9920 C   0  0  1  0  0  0
    6.9850    5.6760    4.8280 C   0  0  0  0  0  0
    7.3240    6.6500    3.6730 C   0  0  0  0  0  0
    6.4580    7.9330    3.6770 C   0  0  0  0  0  0
    6.9770    8.9780    2.6560 C   0  0  0  0  0  0
    6.2440   10.3320    2.6850 N   0  3  0  0  0  0
    7.8780    3.8270    6.3470 C   0  0  0  0  0  0
    6.8980    3.1130    6.5960 O   0  0  0  0  0  0
    6.9190   11.2850    1.6890 C   0  0  0  0  0  0
    4.7800   10.1400    2.2910 C   0  0  0  0  0  0
    6.3230   10.9430    4.0830 C   0  0  0  0  0  0
    8.9040    4.0240    7.1910 N   0  0  0  0  0  0
    8.9870    3.4770    8.5420 C   0  0  2  0  0  0
    8.0010    4.2050    9.4700 C   0  0  0  0  0  0
    8.3490    5.2030   10.1230 O   0  0  0  0  0  0
   10.4470    3.5880    9.0550 C   0  0  0  0  0  0
   10.6150    2.9570   10.3160 O   0  0  0  0  0  0
    6.7470    3.7300    9.4560 N   0  0  0  0  0  0
    5.6900    4.2210   10.3310 C   0  0  2  0  0  0
    5.8730    3.5950   11.7250 C   0  0  0  0  0  0
    5.3320    2.5240   12.0180 O   0  0  0  0  0  0
    4.2740    3.9120    9.7150 C   0  0  2  0  0  0
    4.1690    2.5210    9.3520 O   0  0  0  0  0  0
    3.9960    4.7670    8.4660 C   0  0  0  0  0  0
    6.7030    4.2540   12.5490 N   0  0  0  0  0  0
    7.1440    3.7140   13.8370 C   0  0  0  0  0  0
    8.5590    3.1530   13.7510 C   0  0  0  0  0  0
    9.3200    3.5230   12.8490 O   0  0  0  0  0  0
    8.9000    2.2380   14.6750 N   0  0  0  0  0  0
   10.2400    1.6530   14.7450 C   0  0  0  0  0  0
   10.2720    0.5170   15.7550 C   0  0  0  0  0  0
   10.1010    0.7570   16.9570 O   0  0  0  0  0  0
   10.4660   -0.7260   15.2690 N   0  0  0  0  0  0
   10.4380   -1.9330   16.1170 C   0  0  2  0  0  0
   11.7200   -2.0210   16.9760 C   0  0  0  0  0  0
   12.7450   -2.5610   16.5420 O   0  0  0  0  0  0
   10.2540   -3.2090   15.2350 C   0  0  0  0  0  0
   10.0420   -4.5600   15.9950 C   0  0  0  0  0  0
    8.6000   -4.7920   16.5480 C   0  0  0  0  0  0
    8.2510   -3.9660   17.8020 C   0  0  0  0  0  0
    6.8880   -4.2620   18.3020 N   0  3  0  0  0  0
   11.6630   -1.4070   18.1670 N   0  0  0  0  0  0
   12.7250   -1.4800   19.1720 C   0  0  2  0  0  0
   12.3280   -2.5360   20.2330 C   0  0  0  0  0  0
   12.7580   -3.7000   20.1210 O   0  0  0  0  0  0
   12.9640   -0.0780   19.7820 C   0  0  0  0  0  0
   11.5460   -2.2110   21.1480 O   0  0  0  0  0  0
   15.0596    2.6051  -18.5145 H   0  0  0  0  0  0
   15.0735    2.5934  -20.3107 H   0  0  0  0  0  0
   13.5459    2.9272  -19.4266 H   0  0  0  0  0  0
   16.0468    4.5966  -19.4535 H   0  0  0  0  0  0
   14.7465    4.6700  -21.5789 H   0  0  0  0  0  0
   14.6707    6.2411  -20.7114 H   0  0  0  0  0  0
   13.2703    5.1174  -20.6583 H   0  0  0  0  0  0
   13.0319    3.6874  -17.9574 H   0  0  0  0  0  0
   13.1100    6.1882  -16.1901 H   0  0  0  0  0  0
   11.0366    3.9084  -16.4072 H   0  0  0  0  0  0
   10.8599    5.3673  -15.3742 H   0  0  0  0  0  0
   10.9821    5.2999  -18.4313 H   0  0  0  0  0  0
    9.5383    5.6171  -17.4108 H   0  0  0  0  0  0
   10.5991    7.6843  -16.5464 H   0  0  0  0  0  0
   12.0498    7.3656  -17.5565 H   0  0  0  0  0  0
   10.3238    7.4820  -19.6080 H   0  0  0  0  0  0
    9.9727    9.2977  -16.4345 H   0  0  0  0  0  0
    9.0794   10.7339  -17.3118 H   0  0  0  0  0  0
    9.4025    9.1901  -20.6019 H   0  0  0  0  0  0
   14.5483    6.1116  -14.6992 H   0  0  0  0  0  0
   15.1297    3.4921  -13.3318 H   0  0  0  0  0  0
   16.9117    4.9374  -12.0589 H   0  0  0  0  0  0
   15.7245    7.1526  -12.2106 H   0  0  0  0  0  0
   17.4556    3.7187  -14.2093 H   0  0  0  0  0  0
   18.3680    5.2556  -14.0300 H   0  0  0  0  0  0
   16.9470    5.1773  -15.1262 H   0  0  0  0  0  0
   13.1911    3.0230  -12.3507 H   0  0  0  0  0  0
   12.4720    4.8795  -10.0455 H   0  0  0  0  0  0
   11.0015    2.4777  -11.2961 H   0  0  0  0  0  0
   10.4339    3.2939   -9.8000 H   0  0  0  0  0  0
   10.2644    5.4355  -11.1166 H   0  0  0  0  0  0
   10.6523    4.4947  -12.5967 H   0  0  0  0  0  0
    8.6443    3.0942  -12.2628 H   0  0  0  0  0  0
    8.2710    3.9613  -10.7346 H   0  0  0  0  0  0
    7.9625    6.0630  -12.0108 H   0  0  0  0  0  0
    8.3156    5.1823  -13.5360 H   0  0  0  0  0  0
    5.9325    5.4781  -13.2008 H   0  0  0  0  0  0
    6.0367    4.6225  -11.6249 H   0  0  0  0  0  0
    6.3898    3.7418  -13.1501 H   0  0  0  0  0  0
   12.9221    4.4637   -8.0290 H   0  0  0  0  0  0
   13.7087    1.5754   -7.2961 H   0  0  0  0  0  0
   14.9000    4.2449   -6.3373 H   0  0  0  0  0  0
   15.1974    2.6832   -5.5011 H   0  0  0  0  0  0
   15.9218    3.2226   -8.4157 H   0  0  0  0  0  0
   17.0417    3.4338   -7.0273 H   0  0  0  0  0  0
   15.2509    1.1471   -9.1215 H   0  0  0  0  0  0
   16.2072   -0.3903   -8.5281 H   0  0  0  0  0  0
   12.8226    0.7130   -5.4648 H   0  0  0  0  0  0
   10.4875    2.3760   -4.4419 H   0  0  0  0  0  0
    9.7074   -0.0006   -3.5329 H   0  0  0  0  0  0
   11.9782   -1.0909   -3.5922 H   0  0  0  0  0  0
    8.8054    0.9866   -5.6804 H   0  0  0  0  0  0
    8.9620   -0.8014   -5.7535 H   0  0  0  0  0  0
   10.1789    0.2408   -6.5658 H   0  0  0  0  0  0
    9.9170    2.6237   -2.3343 H   0  0  0  0  0  0
   11.7814    1.5543   -0.2101 H   0  0  0  0  0  0
   12.9123    3.6657   -0.8479 H   0  0  0  0  0  0
   12.2309    3.7866    0.8097 H   0  0  0  0  0  0
   11.3903    4.5774   -0.5668 H   0  0  0  0  0  0
   10.9056    1.4739    1.8070 H   0  0  0  0  0  0
    7.8637    2.0246    1.8736 H   0  0  0  0  0  0
    9.6363    0.0568    3.4789 H   0  0  0  0  0  0
    7.8508    0.1929    3.6195 H   0  0  0  0  0  0
    7.5208   -0.6989    1.4094 H   0  0  0  0  0  0
    9.2688   -0.5638    1.0182 H   0  0  0  0  0  0
    8.5486   -2.9034    1.4780 H   0  0  0  0  0  0
    9.8033   -2.3292    2.6282 H   0  0  0  0  0  0
    7.7501   -1.8655    4.2770 H   0  0  0  0  0  0
    7.7813   -4.4351    1.6675 H   0  0  0  0  0  0
    6.6337   -5.5533    2.6983 H   0  0  0  0  0  0
    6.4919   -3.2057    5.4717 H   0  0  0  0  0  0
    7.0202    3.4809    3.2947 H   0  0  0  0  0  0
    9.0318    4.9564    4.9195 H   0  0  0  0  0  0
    5.9939    5.2472    4.6185 H   0  0  0  0  0  0
    6.9407    6.2658    5.7554 H   0  0  0  0  0  0
    8.3760    6.9612    3.7527 H   0  0  0  0  0  0
    7.1629    6.1456    2.7088 H   0  0  0  0  0  0
    5.4213    7.6765    3.4133 H   0  0  0  0  0  0
    6.4799    8.3871    4.6787 H   0  0  0  0  0  0
    8.0382    9.1888    2.8544 H   0  0  0  0  0  0
    6.8666    8.5806    1.6363 H   0  0  0  0  0  0
    6.8681   10.8548    0.6779 H   0  0  0  0  0  0
    7.9718   11.4278    1.9741 H   0  0  0  0  0  0
    6.4009   12.2553    1.7012 H   0  0  0  0  0  0
    4.7259    9.7000    1.2843 H   0  0  0  0  0  0
    4.2689   11.1140    2.2935 H   0  0  0  0  0  0
    4.2915    9.4677    3.0117 H   0  0  0  0  0  0
    7.3776   11.0801    4.3641 H   0  0  0  0  0  0
    5.8355   10.2712    4.8048 H   0  0  0  0  0  0
    5.8128   11.9175    4.0866 H   0  0  0  0  0  0
    9.7209    4.6478    6.7990 H   0  0  0  0  0  0
    8.6889    2.4204    8.4734 H   0  0  0  0  0  0
   11.1259    3.1064    8.3359 H   0  0  0  0  0  0
   10.7185    4.6486    9.1619 H   0  0  0  0  0  0
   11.6010    2.9563   10.8037 H   0  0  0  0  0  0
    6.5352    2.9270    8.7346 H   0  0  0  0  0  0
    5.8244    5.3102   10.4051 H   0  0  0  0  0  0
    3.4919    4.0839   10.4691 H   0  0  0  0  0  0
    4.3338    1.7409   10.1098 H   0  0  0  0  0  0
    4.0724    5.8329    8.7269 H   0  0  0  0  0  0
    2.9837    4.5525    8.0927 H   0  0  0  0  0  0
    4.7331    4.5267    7.6857 H   0  0  0  0  0  0
    7.0534    5.2428   12.2182 H   0  0  0  0  0  0
    7.1310    4.5127   14.5932 H   0  0  0  0  0  0
    6.4663    2.9048   14.1467 H   0  0  0  0  0  0
    8.1277    1.9316   15.3959 H   0  0  0  0  0  0
   10.5209    1.2607   13.7565 H   0  0  0  0  0  0
   10.9614    2.4247   15.0517 H   0  0  0  0  0  0
   10.6515   -0.8171   14.1886 H   0  0  0  0  0  0
    9.5732   -1.8124   16.7860 H   0  0  0  0  0  0
    9.3708   -3.0853   14.5910 H   0  0  0  0  0  0
   11.1468   -3.3539   14.6090 H   0  0  0  0  0  0
   10.2565   -5.3995   15.3173 H   0  0  0  0  0  0
   10.7202   -4.6045   16.8599 H   0  0  0  0  0  0
    7.8637   -4.5245   15.7758 H   0  0  0  0  0  0
    8.4776   -5.8507   16.8202 H   0  0  0  0  0  0
    8.9678   -4.1963   18.6039 H   0  0  0  0  0  0
    8.3024   -2.8940   17.5610 H   0  0  0  0  0  0
    6.6842   -3.6516   19.1941 H   0  0  0  0  0  0
    6.8167   -5.3282   18.5630 H   0  0  0  0  0  0
    6.1513   -4.0259   17.5200 H   0  0  0  0  0  0
   10.7531   -0.8231   18.3698 H   0  0  0  0  0  0
   13.6494   -1.7975   18.6674 H   0  0  0  0  0  0
   13.2417    0.6265   18.9842 H   0  0  0  0  0  0
   13.7766   -0.1335   20.5214 H   0  0  0  0  0  0
   12.0436    0.2695   20.2741 H   0  0  0  0  0  0
   11.2538   -2.9488   21.9097 H   0  0  0  0  0  0
  1  2  1  0  0  0
  1113  1  0  0  0
  1114  1  0  0  0
  1115  1  0  0  0
  2  3  1  0  0  0
  2  5  1  0  0  0
  2116  1  0  0  0
  3  4  2  0  0  0
  3  6  1  0  0  0
  5117  1  0  0  0
  5118  1  0  0  0
  5119  1  0  0  0
  6  7  1  0  0  0
  6120  1  0  0  0
  7  8  1  0  0  0
  7 10  1  0  0  0
  7121  1  0  0  0
  8  9  2  0  0  0
  8 17  1  0  0  0
 10 11  1  0  0  0
 10122  1  0  0  0
 10123  1  0  0  0
 11 12  1  0  0  0
 11124  1  0  0  0
 11125  1  0  0  0
 12 13  1  0  0  0
 12126  1  0  0  0
 12127  1  0  0  0
 13 14  1  0  0  0
 13128  1  0  0  0
 14 15  1  0  0  0
 14 16  2  0  0  0
 15129  1  0  0  0
 15130  1  0  0  0
 16131  1  0  0  0
 17 18  1  0  0  0
 17132  1  0  0  0
 18 19  1  0  0  0
 18 21  1  0  0  0
 18133  1  0  0  0
 19 20  2  0  0  0
 19 24  1  0  0  0
 21 22  1  0  0  0
 21 23  1  0  0  0
 21134  1  0  0  0
 22135  1  0  0  0
 23136  1  0  0  0
 23137  1  0  0  0
 23138  1  0  0  0
 24 25  1  0  0  0
 24139  1  0  0  0
 25 26  1  0  0  0
 25 28  1  0  0  0
 25140  1  0  0  0
 26 27  2  0  0  0
 26 33  1  0  0  0
 28 29  1  0  0  0
 28141  1  0  0  0
 28142  1  0  0  0
 29 30  1  0  0  0
 29143  1  0  0  0
 29144  1  0  0  0
 30 31  1  0  0  0
 30145  1  0  0  0
 30146  1  0  0  0
 31 32  1  0  0  0
 31147  1  0  0  0
 31148  1  0  0  0
 32149  1  0  0  0
 32150  1  0  0  0
 32151  1  0  0  0
 33 34  1  0  0  0
 33152  1  0  0  0
 34 35  1  0  0  0
 34 37  1  0  0  0
 34153  1  0  0  0
 35 36  2  0  0  0
 35 42  1  0  0  0
 37 38  1  0  0  0
 37154  1  0  0  0
 37155  1  0  0  0
 38 39  1  0  0  0
 38156  1  0  0  0
 38157  1  0  0  0
 39 40  2  0  0  0
 39 41  1  0  0  0
 41158  1  0  0  0
 41159  1  0  0  0
 42 43  1  0  0  0
 42160  1  0  0  0
 43 44  1  0  0  0
 43 46  1  0  0  0
 43161  1  0  0  0
 44 45  2  0  0  0
 44 49  1  0  0  0
 46 47  1  0  0  0
 46 48  1  0  0  0
 46162  1  0  0  0
 47163  1  0  0  0
 48164  1  0  0  0
 48165  1  0  0  0
 48166  1  0  0  0
 49 50  1  0  0  0
 49167  1  0  0  0
 50 51  1  0  0  0
 50 53  1  0  0  0
 50168  1  0  0  0
 51 52  2  0  0  0
 51 54  1  0  0  0
 53169  1  0  0  0
 53170  1  0  0  0
 53171  1  0  0  0
 54 55  1  0  0  0
 54172  1  0  0  0
 55 56  1  0  0  0
 55 58  1  0  0  0
 55173  1  0  0  0
 56 57  2  0  0  0
 56 65  1  0  0  0
 58 59  1  0  0  0
 58174  1  0  0  0
 58175  1  0  0  0
 59 60  1  0  0  0
 59176  1  0  0  0
 59177  1  0  0  0
 60 61  1  0  0  0
 60178  1  0  0  0
 60179  1  0  0  0
 61 62  1  0  0  0
 61180  1  0  0  0
 62 63  1  0  0  0
 62 64  2  0  0  0
 63181  1  0  0  0
 63182  1  0  0  0
 64183  1  0  0  0
 65 66  1  0  0  0
 65184  1  0  0  0
 66 67  1  0  0  0
 66 72  1  0  0  0
 66185  1  0  0  0
 67 68  1  0  0  0
 67186  1  0  0  0
 67187  1  0  0  0
 68 69  1  0  0  0
 68188  1  0  0  0
 68189  1  0  0  0
 69 70  1  0  0  0
 69190  1  0  0  0
 69191  1  0  0  0
 70 71  1  0  0  0
 70192  1  0  0  0
 70193  1  0  0  0
 71 74  1  0  0  0
 71 75  1  0  0  0
 71 76  1  0  0  0
 72 73  2  0  0  0
 72 77  1  0  0  0
 74194  1  0  0  0
 74195  1  0  0  0
 74196  1  0  0  0
 75197  1  0  0  0
 75198  1  0  0  0
 75199  1  0  0  0
 76200  1  0  0  0
 76201  1  0  0  0
 76202  1  0  0  0
 77 78  1  0  0  0
 77203  1  0  0  0
 78 79  1  0  0  0
 78 81  1  0  0  0
 78204  1  0  0  0
 79 80  2  0  0  0
 79 83  1  0  0  0
 81 82  1  0  0  0
 81205  1  0  0  0
 81206  1  0  0  0
 82207  1  0  0  0
 83 84  1  0  0  0
 83208  1  0  0  0
 84 85  1  0  0  0
 84 87  1  0  0  0
 84209  1  0  0  0
 85 86  2  0  0  0
 85 90  1  0  0  0
 87 88  1  0  0  0
 87 89  1  0  0  0
 87210  1  0  0  0
 88211  1  0  0  0
 89212  1  0  0  0
 89213  1  0  0  0
 89214  1  0  0  0
 90 91  1  0  0  0
 90215  1  0  0  0
 91 92  1  0  0  0
 91216  1  0  0  0
 91217  1  0  0  0
 92 93  2  0  0  0
 92 94  1  0  0  0
 94 95  1  0  0  0
 94218  1  0  0  0
 95 96  1  0  0  0
 95219  1  0  0  0
 95220  1  0  0  0
 96 97  2  0  0  0
 96 98  1  0  0  0
 98 99  1  0  0  0
 98221  1  0  0  0
 99100  1  0  0  0
 99102  1  0  0  0
 99222  1  0  0  0
100101  2  0  0  0
100107  1  0  0  0
102103  1  0  0  0
102223  1  0  0  0
102224  1  0  0  0
103104  1  0  0  0
103225  1  0  0  0
103226  1  0  0  0
104105  1  0  0  0
104227  1  0  0  0
104228  1  0  0  0
105106  1  0  0  0
105229  1  0  0  0
105230  1  0  0  0
106231  1  0  0  0
106232  1  0  0  0
106233  1  0  0  0
107108  1  0  0  0
107234  1  0  0  0
108109  1  0  0  0
108111  1  0  0  0
108235  1  0  0  0
109110  2  0  0  0
109112  1  0  0  0
111236  1  0  0  0
111237  1  0  0  0
111238  1  0  0  0
112239  1  0  0  0
M  CHG  4   1   1  32   1  71   1 106   1
M  END
> <s_m_source_file>
../2l11_ligand.sdf

> <i_m_source_file_index>
1

> <s_epik_input>
W0hdL049QyhbTkgyXSlcW05IXVtDSDJdW0NIMl1bQ0gyXVtDQEhdKFtOSF1DKD1PKVtDQEBIXShbTkgzK10pW0NIM10pQyg9TylbTkhdW0NAQEhdKFtDQEhdKFtPSF0pW0NIM10pQyg9TylbTkhdW0NAQEhdKFtDSDJdW0NIMl1bQ0gyXVtDSDJdW05IMytdKUMoPU8pW05IXVtDQEBIXShbQ0gyXVtDSDJdQyg9TylbTkgyXSlDKD1PKVtOSF1bQ0BASF0oW0NASF0oW09IXSlbQ0gzXSlDKD1PKVtOSF1bQ0BASF0oW0NIM10pQyg9TylbTkhdW0NAQEhdKFtDSDJdW0NIMl1bQ0gyXVtOSF0vQyhbTkgyXSk9TlxbSF0pQyg9TylbTkhdW0NAQEhdKFtDSDJdW0NIMl1bQ0gyXVtDSDJdW04rXShbQ0gzXSkoW0NIM10pW0NIM10pQyg9TylbTkhdW0NAQEhdKFtDSDJdW09IXSlDKD1PKVtOSF1bQ0BASF0oW0NASF0oW09IXSlbQ0gzXSlDKD1PKVtOSF1bQ0gyXUMoPU8pW05IXVtDSDJdQyg9TylbTkhdW0NASF0oQyg9TylbTkhdW0NAQEhdKFtDSDNdKUMoPU8pW09IXSlbQ0gyXVtDSDJdW0NIMl1bQ0gyXVtOSDMrXQ==

> <s_epik_cmdline>
J2VwaWtfYXBwJywgJy1pbWFlJywgJ2xpZ2FuZF9wcm8ubWFlJywgJy1vbWFlJywgJ2xpZ2FuZF9wcmVwLm1hZScsICctbXMnLCAnMScsICctcGgnLCAnNycsICctcGh0JywgJzAuNScsICctbnQn

> <s_epik_pKa_notes>
Molecule size exceeds maximum supported for generating protonation states

> <s_epik_Chemistry_Notes>
This compound has an imine and may undergo hydrolysis.

$$$$
