2l1r_ligand
                    3D
 Schrodinger Suite 2020-3.
 28 29  0  0  1  0            999 V2000
   59.7710   11.3050   -1.3200 O   0  5  0  0  0  0
   60.0150    9.4230   -0.1670 O   0  0  0  0  0  0
   56.2250    1.1560   -0.4550 C   0  0  0  0  0  0
   57.0950    6.5680   -2.9860 C   0  0  0  0  0  0
   58.1650    6.5560   -0.7640 C   0  0  0  0  0  0
   56.8890    5.1730   -2.8990 C   0  0  0  0  0  0
   57.9650    5.1630   -0.6690 C   0  0  0  0  0  0
   56.4110    2.5580   -0.5510 C   0  0  0  0  0  0
   57.4520    0.8170   -2.5460 C   0  0  0  0  0  0
   59.1620    9.2310   -2.3760 C   0  0  0  0  0  0
   57.8790    8.6070   -2.1270 O   0  0  0  0  0  0
   59.6920   10.0570   -1.1920 C   0  0  0  0  0  0
   56.7450    0.3080   -1.4500 C   0  0  0  0  0  0
   57.7330    7.2570   -1.9150 C   0  0  0  0  0  0
   57.6440    2.2160   -2.6510 C   0  0  0  0  0  0
   57.3270    4.4690   -1.7380 C   0  0  0  0  0  0
   57.1240    3.0800   -1.6490 C   0  0  0  0  0  0
   56.5580   -1.0350   -1.3410 F   0  0  0  0  0  0
   58.3370    2.6900   -3.7320 F   0  0  0  0  0  0
   55.6793    0.7350    0.3894 H   0  0  0  0  0  0
   56.7668    7.1152   -3.8697 H   0  0  0  0  0  0
   58.6526    7.0929    0.0496 H   0  0  0  0  0  0
   56.3990    4.6386   -3.7129 H   0  0  0  0  0  0
   58.2963    4.6206    0.2165 H   0  0  0  0  0  0
   56.0084    3.2227    0.2133 H   0  0  0  0  0  0
   57.8490    0.1459   -3.3076 H   0  0  0  0  0  0
   59.9109    8.4553   -2.5935 H   0  0  0  0  0  0
   59.0781    9.9112   -3.2364 H   0  0  0  0  0  0
  1 12  1  0  0  0
  2 12  2  0  0  0
  3  8  2  0  0  0
  3 13  1  0  0  0
  3 20  1  0  0  0
  4  6  2  0  0  0
  4 14  1  0  0  0
  4 21  1  0  0  0
  5  7  1  0  0  0
  5 14  2  0  0  0
  5 22  1  0  0  0
  6 16  1  0  0  0
  6 23  1  0  0  0
  7 16  2  0  0  0
  7 24  1  0  0  0
  8 17  1  0  0  0
  8 25  1  0  0  0
  9 13  2  0  0  0
  9 15  1  0  0  0
  9 26  1  0  0  0
 10 11  1  0  0  0
 10 12  1  0  0  0
 10 27  1  0  0  0
 10 28  1  0  0  0
 11 14  1  0  0  0
 13 18  1  0  0  0
 15 17  2  0  0  0
 15 19  1  0  0  0
 16 17  1  0  0  0
M  CHG  1   1  -1
M  END
> <s_m_source_file>
../2l1r_ligand.sdf

> <i_m_source_file_index>
1

> <s_epik_input>
W09IXUMoPU8pW0NIMl1PYzFbY0hdW2NIXWMoW2NIXVtjSF0xKS1jKGMoRilbY0hdMilbY0hdW2NIXWMyRg==

> <s_epik_cmdline>
J2VwaWtfYXBwJywgJy1pbWFlJywgJ2xpZ2FuZF9wcm8ubWFlJywgJy1vbWFlJywgJ2xpZ2FuZF9wcmVwLm1hZScsICctbXMnLCAnMScsICctcGgnLCAnNycsICctcGh0JywgJzAuNScsICctbnQn

> <r_lp_tautomer_probability>
1

> <r_epik_Ionization_Penalty>
  0.0001

> <r_epik_Ionization_Penalty_Charging>
  0.0001

> <r_epik_Ionization_Penalty_Neutral>
  0.0000

> <r_epik_State_Penalty>
 -0.0000

> <r_epik_Charging_Adjusted_Penalty>
8.0750705688672e-05

> <i_epik_Tot_Q>
-1

> <i_epik_Tot_abs_Q>
1

$$$$
