2l3r_ligand
                    3D
 Schrodinger Suite 2020-3.
193192  0  0  1  0            999 V2000
   21.1650    3.3760   -1.4110 N   0  3  0  0  0  0
   21.3580    3.3660    0.0520 C   0  0  2  0  0  0
   20.7680    4.6400    0.6660 C   0  0  0  0  0  0
   21.2510    5.7380    0.3560 O   0  0  0  0  0  0
   22.8460    3.1970    0.4030 C   0  0  0  0  0  0
   19.7090    4.4820    1.5170 N   0  0  0  0  0  0
   19.0930    5.6010    2.2880 C   0  0  2  0  0  0
   18.4440    6.6820    1.3790 C   0  0  0  0  0  0
   18.1240    7.7840    1.8450 O   0  0  0  0  0  0
   20.1780    6.2170    3.2360 C   0  0  0  0  0  0
   19.6690    6.8070    4.5720 C   0  0  0  0  0  0
   20.7610    6.7780    5.6550 C   0  0  0  0  0  0
   21.2830    5.4050    5.8220 N   0  0  0  0  0  0
   22.4040    5.0480    6.4600 C   0  0  0  0  0  0
   23.1800    5.9420    7.0560 N   0  0  0  0  0  0
   22.7540    3.7750    6.4630 N   0  0  0  0  0  0
   18.2140    6.3480    0.0990 N   0  0  0  0  0  0
   17.7290    7.3060   -0.9160 C   0  0  2  0  0  0
   16.5680    6.6640   -1.7020 C   0  0  0  0  0  0
   16.4870    5.4310   -1.7860 O   0  0  0  0  0  0
   18.8930    7.7250   -1.8910 C   0  0  2  0  0  0
   20.0980    7.9550   -1.1460 O   0  0  0  0  0  0
   18.5680    9.0080   -2.6760 C   0  0  0  0  0  0
   15.6780    7.4980   -2.2820 N   0  0  0  0  0  0
   14.4640    7.0210   -2.9700 C   0  0  2  0  0  0
   14.2590    7.7460   -4.3160 C   0  0  0  0  0  0
   13.8730    8.9200   -4.3490 O   0  0  0  0  0  0
   13.2180    7.2000   -2.0490 C   0  0  0  0  0  0
   11.8760    6.7630   -2.6840 C   0  0  0  0  0  0
   10.6490    7.1650   -1.8320 C   0  0  0  0  0  0
    9.3210    6.9300   -2.5760 C   0  0  0  0  0  0
    8.1850    7.5320   -1.8480 N   0  3  0  0  0  0
   14.5570    7.0420   -5.4240 N   0  0  0  0  0  0
   14.2630    7.5110   -6.7960 C   0  0  2  0  0  0
   13.1430    6.6450   -7.3990 C   0  0  0  0  0  0
   13.0340    5.4560   -7.0980 O   0  0  0  0  0  0
   15.5230    7.4550   -7.7240 C   0  0  0  0  0  0
   16.5630    8.5830   -7.5420 C   0  0  0  0  0  0
   17.2310    8.5990   -6.1750 C   0  0  0  0  0  0
   16.7830    9.2930   -5.2660 O   0  0  0  0  0  0
   18.2920    7.8220   -6.0110 N   0  0  0  0  0  0
   12.3200    7.2650   -8.2470 N   0  0  0  0  0  0
   11.2860    6.5820   -9.0470 C   0  0  2  0  0  0
   11.8120    6.3400  -10.4840 C   0  0  0  0  0  0
   12.8700    6.8770  -10.8420 O   0  0  0  0  0  0
    9.9930    7.4580   -9.0680 C   0  0  2  0  0  0
   10.3210    8.7880   -9.5010 O   0  0  0  0  0  0
    9.2970    7.5250   -7.6880 C   0  0  0  0  0  0
   11.0910    5.5330  -11.3000 N   0  0  0  0  0  0
   11.5020    5.2350  -12.6980 C   0  0  2  0  0  0
   10.3580    4.5740  -13.4840 C   0  0  0  0  0  0
    9.8360    3.5540  -13.0240 O   0  0  0  0  0  0
   12.7490    4.3110  -12.7240 C   0  0  0  0  0  0
    9.9900    5.1690  -14.6580 N   0  0  0  0  0  0
    9.0610    4.5670  -15.6690 C   0  0  2  0  0  0
    7.5750    4.5970  -15.1990 C   0  0  0  0  0  0
    7.2920    4.8260  -14.0330 O   0  0  0  0  0  0
    9.5430    3.1100  -16.0230 C   0  0  0  0  0  0
    8.7150    2.3260  -17.0700 C   0  0  0  0  0  0
    9.3010    0.9320  -17.3600 C   0  0  0  0  0  0
    8.5010    0.1820  -18.3480 N   0  0  0  0  0  0
    8.8690   -0.9700  -18.9440 C   0  0  0  0  0  0
   10.0650   -1.5130  -18.7140 N   0  0  0  0  0  0
    8.0330   -1.5600  -19.7870 N   0  0  0  0  0  0
    6.6250    4.4480  -16.1500 N   0  0  0  0  0  0
    5.2030    4.1260  -15.8480 C   0  0  1  0  0  0
    4.2520    5.3710  -15.8640 C   0  0  0  0  0  0
    4.4000    6.3520  -14.6770 C   0  0  0  0  0  0
    3.0390    6.9890  -14.2370 C   0  0  0  0  0  0
    3.0870    7.7670  -12.8880 C   0  0  0  0  0  0
    2.8500    6.9360  -11.5840 N   0  3  0  0  0  0
    4.6620    3.0860  -16.8440 C   0  0  0  0  0  0
    5.0850    3.0390  -18.0100 O   0  0  0  0  0  0
    1.4290    6.3590  -11.6080 C   0  0  0  0  0  0
    3.0090    7.8500  -10.3930 C   0  0  0  0  0  0
    3.8510    5.7940  -11.4720 C   0  0  0  0  0  0
    3.7260    2.2600  -16.3440 N   0  0  0  0  0  0
    2.8690    1.3780  -17.1610 C   0  0  2  0  0  0
    1.4620    1.9980  -17.3220 C   0  0  0  0  0  0
    0.5840    1.4070  -17.9610 O   0  0  0  0  0  0
    2.7920   -0.0160  -16.4930 C   0  0  0  0  0  0
    2.4930    0.0920  -15.1130 O   0  0  0  0  0  0
    1.2720    3.1920  -16.7270 N   0  0  0  0  0  0
   -0.0010    3.9210  -16.7210 C   0  0  2  0  0  0
   -0.2920    4.4960  -18.1350 C   0  0  0  0  0  0
   -1.2320    4.0250  -18.8070 O   0  0  0  0  0  0
    0.0420    5.0770  -15.6570 C   0  0  2  0  0  0
    0.7220    4.6150  -14.4810 O   0  0  0  0  0  0
   -1.3660    5.5660  -15.2630 C   0  0  0  0  0  0
    0.4760    5.3770  -18.5910 O   0  0  0  0  0  0
   20.0958    3.4976   -1.6389 H   0  0  0  0  0  0
   21.5246    2.4267   -1.8348 H   0  0  0  0  0  0
   21.7308    4.2111   -1.8498 H   0  0  0  0  0  0
   20.8080    2.4962    0.4405 H   0  0  0  0  0  0
   23.2284    2.2734   -0.0560 H   0  0  0  0  0  0
   22.9606    3.1382    1.4954 H   0  0  0  0  0  0
   23.4130    4.0585    0.0206 H   0  0  0  0  0  0
   19.3118    3.4611    1.6170 H   0  0  0  0  0  0
   18.2699    5.1488    2.8607 H   0  0  0  0  0  0
   20.9098    5.4421    3.5081 H   0  0  0  0  0  0
   20.6916    7.0409    2.7189 H   0  0  0  0  0  0
   19.3602    7.8514    4.4176 H   0  0  0  0  0  0
   18.8100    6.2196    4.9286 H   0  0  0  0  0  0
   21.5868    7.4424    5.3609 H   0  0  0  0  0  0
   20.3382    7.1198    6.6113 H   0  0  0  0  0  0
   20.7328    4.5521    5.3980 H   0  0  0  0  0  0
   22.8945    7.0043    7.0573 H   0  0  0  0  0  0
   24.1095    5.6217    7.5493 H   0  0  0  0  0  0
   22.1147    3.0277    5.9703 H   0  0  0  0  0  0
   18.4050    5.3012   -0.1797 H   0  0  0  0  0  0
   17.3662    8.1840   -0.3614 H   0  0  0  0  0  0
   19.1060    6.9046   -2.5922 H   0  0  0  0  0  0
   20.5119    7.1586   -0.5100 H   0  0  0  0  0  0
   17.6462    8.8585   -3.2574 H   0  0  0  0  0  0
   19.3986    9.2404   -3.3588 H   0  0  0  0  0  0
   18.4269    9.8422   -1.9730 H   0  0  0  0  0  0
   15.8904    8.5758   -2.2252 H   0  0  0  0  0  0
   14.6469    5.9555   -3.1729 H   0  0  0  0  0  0
   13.3478    6.6003   -1.1360 H   0  0  0  0  0  0
   13.1111    8.2609   -1.7788 H   0  0  0  0  0  0
   11.7672    7.2342   -3.6720 H   0  0  0  0  0  0
   11.8625    5.6688   -2.7962 H   0  0  0  0  0  0
   10.6329    6.5683   -0.9080 H   0  0  0  0  0  0
   10.7134    8.2332   -1.5776 H   0  0  0  0  0  0
    9.3759    7.3840   -3.5765 H   0  0  0  0  0  0
    9.1414    5.8491   -2.6732 H   0  0  0  0  0  0
    7.2540    7.3471   -2.4038 H   0  0  0  0  0  0
    8.3449    8.6160   -1.7507 H   0  0  0  0  0  0
    8.1104    7.0811   -0.8474 H   0  0  0  0  0  0
   15.0453    6.0687   -5.2683 H   0  0  0  0  0  0
   13.9373    8.5549   -6.6767 H   0  0  0  0  0  0
   16.0658    6.5144   -7.5490 H   0  0  0  0  0  0
   15.2060    7.5051   -8.7761 H   0  0  0  0  0  0
   17.3611    8.4701   -8.2905 H   0  0  0  0  0  0
   16.0725    9.5587   -7.6735 H   0  0  0  0  0  0
   18.6638    7.2146   -6.8494 H   0  0  0  0  0  0
   18.8009    7.7844   -5.0365 H   0  0  0  0  0  0
   12.4489    8.3543   -8.3295 H   0  0  0  0  0  0
   11.0897    5.6138   -8.5633 H   0  0  0  0  0  0
    9.2848    7.0591   -9.8091 H   0  0  0  0  0  0
   10.8244    8.9436  -10.4666 H   0  0  0  0  0  0
    9.0450    6.5075   -7.3547 H   0  0  0  0  0  0
    8.3770    8.1224   -7.7700 H   0  0  0  0  0  0
    9.9741    7.9928   -6.9582 H   0  0  0  0  0  0
   10.1696    5.0921  -10.8917 H   0  0  0  0  0  0
   11.7361    6.2132  -13.1434 H   0  0  0  0  0  0
   13.5676    4.7839  -12.1616 H   0  0  0  0  0  0
   13.0646    4.1503  -13.7654 H   0  0  0  0  0  0
   12.4985    3.3440  -12.2634 H   0  0  0  0  0  0
   10.4292    6.1615  -14.8370 H   0  0  0  0  0  0
    9.1200    5.2158  -16.5553 H   0  0  0  0  0  0
   10.5653    3.1500  -16.4271 H   0  0  0  0  0  0
    9.5317    2.4893  -15.1149 H   0  0  0  0  0  0
    7.6881    2.1916  -16.6994 H   0  0  0  0  0  0
    8.6930    2.8878  -18.0154 H   0  0  0  0  0  0
   10.3209    1.0386  -17.7581 H   0  0  0  0  0  0
    9.3300    0.3456  -16.4298 H   0  0  0  0  0  0
    7.5135    0.5571  -18.6548 H   0  0  0  0  0  0
   10.7637   -1.0289  -18.0158 H   0  0  0  0  0  0
   10.3529   -2.4450  -19.2225 H   0  0  0  0  0  0
    7.0448   -1.1177  -19.9815 H   0  0  0  0  0  0
    6.9501    4.5775  -17.1929 H   0  0  0  0  0  0
    5.2573    3.7170  -14.8283 H   0  0  0  0  0  0
    4.4365    5.9617  -16.7734 H   0  0  0  0  0  0
    3.2053    5.0330  -15.8524 H   0  0  0  0  0  0
    4.8150    5.8179  -13.8095 H   0  0  0  0  0  0
    5.0764    7.1717  -14.9609 H   0  0  0  0  0  0
    2.7040    7.7037  -15.0031 H   0  0  0  0  0  0
    2.2846    6.1972  -14.1194 H   0  0  0  0  0  0
    4.0766    8.2321  -12.7680 H   0  0  0  0  0  0
    2.3123    8.5480  -12.8873 H   0  0  0  0  0  0
    0.7013    7.1799  -11.6889 H   0  0  0  0  0  0
    1.2459    5.7967  -10.6805 H   0  0  0  0  0  0
    1.3208    5.6867  -12.4719 H   0  0  0  0  0  0
    2.2885    8.6778  -10.4674 H   0  0  0  0  0  0
    4.0318    8.2545  -10.3752 H   0  0  0  0  0  0
    2.8226    7.2836   -9.4687 H   0  0  0  0  0  0
    3.7407    5.1236  -12.3371 H   0  0  0  0  0  0
    3.6631    5.2313  -10.5457 H   0  0  0  0  0  0
    4.8723    6.2022  -11.4523 H   0  0  0  0  0  0
    3.6203    2.2692  -15.2491 H   0  0  0  0  0  0
    3.3385    1.2971  -18.1525 H   0  0  0  0  0  0
    2.0037   -0.6114  -16.9768 H   0  0  0  0  0  0
    3.7587   -0.5292  -16.6030 H   0  0  0  0  0  0
    2.4042   -0.8149  -14.4969 H   0  0  0  0  0  0
    2.1519    3.6176  -16.2223 H   0  0  0  0  0  0
   -0.7644    3.1747  -16.4559 H   0  0  0  0  0  0
    0.6238    5.9289  -16.0388 H   0  0  0  0  0  0
    1.7474    4.2239  -14.5565 H   0  0  0  0  0  0
   -1.8946    5.9222  -16.1595 H   0  0  0  0  0  0
   -1.2789    6.3884  -14.5377 H   0  0  0  0  0  0
   -1.9291    4.7363  -14.8107 H   0  0  0  0  0  0
    0.2942    5.8020  -19.5892 H   0  0  0  0  0  0
  1  2  1  0  0  0
  1 91  1  0  0  0
  1 92  1  0  0  0
  1 93  1  0  0  0
  2  3  1  0  0  0
  2  5  1  0  0  0
  2 94  1  0  0  0
  3  4  2  0  0  0
  3  6  1  0  0  0
  5 95  1  0  0  0
  5 96  1  0  0  0
  5 97  1  0  0  0
  6  7  1  0  0  0
  6 98  1  0  0  0
  7  8  1  0  0  0
  7 10  1  0  0  0
  7 99  1  0  0  0
  8  9  2  0  0  0
  8 17  1  0  0  0
 10 11  1  0  0  0
 10100  1  0  0  0
 10101  1  0  0  0
 11 12  1  0  0  0
 11102  1  0  0  0
 11103  1  0  0  0
 12 13  1  0  0  0
 12104  1  0  0  0
 12105  1  0  0  0
 13 14  1  0  0  0
 13106  1  0  0  0
 14 15  1  0  0  0
 14 16  2  0  0  0
 15107  1  0  0  0
 15108  1  0  0  0
 16109  1  0  0  0
 17 18  1  0  0  0
 17110  1  0  0  0
 18 19  1  0  0  0
 18 21  1  0  0  0
 18111  1  0  0  0
 19 20  2  0  0  0
 19 24  1  0  0  0
 21 22  1  0  0  0
 21 23  1  0  0  0
 21112  1  0  0  0
 22113  1  0  0  0
 23114  1  0  0  0
 23115  1  0  0  0
 23116  1  0  0  0
 24 25  1  0  0  0
 24117  1  0  0  0
 25 26  1  0  0  0
 25 28  1  0  0  0
 25118  1  0  0  0
 26 27  2  0  0  0
 26 33  1  0  0  0
 28 29  1  0  0  0
 28119  1  0  0  0
 28120  1  0  0  0
 29 30  1  0  0  0
 29121  1  0  0  0
 29122  1  0  0  0
 30 31  1  0  0  0
 30123  1  0  0  0
 30124  1  0  0  0
 31 32  1  0  0  0
 31125  1  0  0  0
 31126  1  0  0  0
 32127  1  0  0  0
 32128  1  0  0  0
 32129  1  0  0  0
 33 34  1  0  0  0
 33130  1  0  0  0
 34 35  1  0  0  0
 34 37  1  0  0  0
 34131  1  0  0  0
 35 36  2  0  0  0
 35 42  1  0  0  0
 37 38  1  0  0  0
 37132  1  0  0  0
 37133  1  0  0  0
 38 39  1  0  0  0
 38134  1  0  0  0
 38135  1  0  0  0
 39 40  2  0  0  0
 39 41  1  0  0  0
 41136  1  0  0  0
 41137  1  0  0  0
 42 43  1  0  0  0
 42138  1  0  0  0
 43 44  1  0  0  0
 43 46  1  0  0  0
 43139  1  0  0  0
 44 45  2  0  0  0
 44 49  1  0  0  0
 46 47  1  0  0  0
 46 48  1  0  0  0
 46140  1  0  0  0
 47141  1  0  0  0
 48142  1  0  0  0
 48143  1  0  0  0
 48144  1  0  0  0
 49 50  1  0  0  0
 49145  1  0  0  0
 50 51  1  0  0  0
 50 53  1  0  0  0
 50146  1  0  0  0
 51 52  2  0  0  0
 51 54  1  0  0  0
 53147  1  0  0  0
 53148  1  0  0  0
 53149  1  0  0  0
 54 55  1  0  0  0
 54150  1  0  0  0
 55 56  1  0  0  0
 55 58  1  0  0  0
 55151  1  0  0  0
 56 57  2  0  0  0
 56 65  1  0  0  0
 58 59  1  0  0  0
 58152  1  0  0  0
 58153  1  0  0  0
 59 60  1  0  0  0
 59154  1  0  0  0
 59155  1  0  0  0
 60 61  1  0  0  0
 60156  1  0  0  0
 60157  1  0  0  0
 61 62  1  0  0  0
 61158  1  0  0  0
 62 63  1  0  0  0
 62 64  2  0  0  0
 63159  1  0  0  0
 63160  1  0  0  0
 64161  1  0  0  0
 65 66  1  0  0  0
 65162  1  0  0  0
 66 67  1  0  0  0
 66 72  1  0  0  0
 66163  1  0  0  0
 67 68  1  0  0  0
 67164  1  0  0  0
 67165  1  0  0  0
 68 69  1  0  0  0
 68166  1  0  0  0
 68167  1  0  0  0
 69 70  1  0  0  0
 69168  1  0  0  0
 69169  1  0  0  0
 70 71  1  0  0  0
 70170  1  0  0  0
 70171  1  0  0  0
 71 74  1  0  0  0
 71 75  1  0  0  0
 71 76  1  0  0  0
 72 73  2  0  0  0
 72 77  1  0  0  0
 74172  1  0  0  0
 74173  1  0  0  0
 74174  1  0  0  0
 75175  1  0  0  0
 75176  1  0  0  0
 75177  1  0  0  0
 76178  1  0  0  0
 76179  1  0  0  0
 76180  1  0  0  0
 77 78  1  0  0  0
 77181  1  0  0  0
 78 79  1  0  0  0
 78 81  1  0  0  0
 78182  1  0  0  0
 79 80  2  0  0  0
 79 83  1  0  0  0
 81 82  1  0  0  0
 81183  1  0  0  0
 81184  1  0  0  0
 82185  1  0  0  0
 83 84  1  0  0  0
 83186  1  0  0  0
 84 85  1  0  0  0
 84 87  1  0  0  0
 84187  1  0  0  0
 85 86  2  0  0  0
 85 90  1  0  0  0
 87 88  1  0  0  0
 87 89  1  0  0  0
 87188  1  0  0  0
 88189  1  0  0  0
 89190  1  0  0  0
 89191  1  0  0  0
 89192  1  0  0  0
 90193  1  0  0  0
M  CHG  3   1   1  32   1  71   1
M  END
> <s_m_source_file>
../2l3r_ligand.sdf

> <i_m_source_file_index>
1

> <s_epik_input>
W0hdL049QyhbTkgyXSlcW05IXVtDSDJdW0NIMl1bQ0gyXVtDQEhdKFtOSF1DKD1PKVtDQEBIXShbTkgzK10pW0NIM10pQyg9TylbTkhdW0NAQEhdKFtDQEhdKFtPSF0pW0NIM10pQyg9TylbTkhdW0NAQEhdKFtDSDJdW0NIMl1bQ0gyXVtDSDJdW05IMytdKUMoPU8pW05IXVtDQEBIXShbQ0gyXVtDSDJdQyg9TylbTkgyXSlDKD1PKVtOSF1bQ0BASF0oW0NASF0oW09IXSlbQ0gzXSlDKD1PKVtOSF1bQ0BASF0oW0NIM10pQyg9TylbTkhdW0NAQEhdKFtDSDJdW0NIMl1bQ0gyXVtOSF0vQyhbTkgyXSk9TlxbSF0pQyg9TylbTkhdW0NAQEhdKFtDSDJdW0NIMl1bQ0gyXVtDSDJdW04rXShbQ0gzXSkoW0NIM10pW0NIM10pQyg9TylbTkhdW0NAQEhdKFtDSDJdW09IXSlDKD1PKVtOSF1bQ0BIXShDKD1PKVtPSF0pW0NASF0oW09IXSlbQ0gzXQ==

> <s_epik_cmdline>
J2VwaWtfYXBwJywgJy1pbWFlJywgJ2xpZ2FuZF9wcm8ubWFlJywgJy1vbWFlJywgJ2xpZ2FuZF9wcmVwLm1hZScsICctbXMnLCAnMScsICctcGgnLCAnNycsICctcGh0JywgJzAuNScsICctbnQn

> <s_epik_pKa_notes>
Molecule size exceeds maximum supported for generating protonation states

> <s_epik_Chemistry_Notes>
This compound has an imine and may undergo hydrolysis.

$$$$
