2l65_ligand
                    3D
 Schrodinger Suite 2020-3.
164170  0  0  1  0            999 V2000
   23.1080   -6.2690   -0.6270 C   0  0  2  0  0  0
   22.5550   -7.0190    0.5870 C   0  0  1  0  0  0
   21.0460   -6.7980    0.6930 C   0  0  2  0  0  0
   20.7440   -5.2990    0.6900 C   0  0  1  0  0  0
   21.4080   -4.6310   -0.5160 C   0  0  1  0  0  0
   21.1370   -3.1270   -0.4740 C   0  0  0  0  0  0
   24.5240   -6.4600   -0.6990 O   0  0  0  0  0  0
   22.8140   -8.4190    0.4460 O   0  0  0  0  0  0
   20.5440   -7.4030    1.8880 O   0  0  0  0  0  0
   19.2920   -5.0830    0.6570 N   0  3  0  0  0  0
   22.8230   -4.8690   -0.4990 O   0  0  0  0  0  0
   17.7580   -4.9100   -1.0080 C   0  0  2  0  0  0
   17.3840   -5.5690   -2.3360 C   0  0  0  0  0  0
   16.2550   -4.7660   -2.9840 C   0  0  1  0  0  0
   15.0850   -4.6440   -2.0040 C   0  0  1  0  0  0
   15.5760   -4.0670   -0.6750 C   0  0  1  0  0  0
   14.4090   -4.0110    0.3130 C   0  0  0  0  0  0
   18.8150   -5.6500   -0.3910 O   0  0  0  0  0  0
   16.7310   -3.4570   -3.3040 O   0  0  0  0  0  0
   16.6220   -4.8920   -0.1340 O   0  0  0  0  0  0
   13.7520   -3.6010   -2.7060 S   0  0  0  0  0  0
    9.1690   -5.2450   -4.0260 C   0  0  0  0  0  0
    8.2910   -4.3800   -3.3900 C   0  0  0  0  0  0
    8.7080   -3.6540   -2.2770 C   0  0  0  0  0  0
   10.0120   -3.7920   -1.8100 C   0  0  0  0  0  0
   10.8890   -4.6580   -2.4490 C   0  0  0  0  0  0
   10.4680   -5.3870   -3.5550 C   0  0  0  0  0  0
   12.3210   -4.8170   -1.9330 C   0  0  0  0  0  0
   11.4350   -6.3450   -4.2470 C   0  0  0  0  0  0
    7.1520   -3.5480   -0.6190 C   0  0  0  0  0  0
    9.8020   -1.7960   -0.6930 C   0  0  0  0  0  0
    7.8360   -2.8250   -1.6450 O   0  0  0  0  0  0
   10.4390   -3.0750   -0.7340 O   0  0  0  0  0  0
   12.8100   -5.1110   -0.8450 O   0  0  0  0  0  0
    8.5370   -6.3290   -5.7020 I   0  0  0  0  0  0
    6.2470   -2.6170   -4.3950 C   0  0  2  0  0  0
    5.7430   -2.7610   -5.8320 C   0  0  1  0  0  0
    4.7280   -3.9020   -5.9160 C   0  0  1  0  0  0
    3.6230   -3.6370   -4.8910 C   0  0  2  0  0  0
    4.2250   -3.4430   -3.4970 C   0  0  2  0  0  0
    3.1090   -3.1450   -2.4970 C   0  0  0  0  0  0
    5.2210   -4.2450   -8.1770 C   0  0  0  0  0  0
    6.8770   -3.8370   -3.9950 O   0  0  0  0  0  0
    5.1140   -1.5390   -6.2300 O   0  0  0  0  0  0
    4.1750   -4.0030   -7.2350 O   0  0  0  0  0  0
    2.7270   -4.7520   -4.8670 O   0  0  0  0  0  0
    5.1450   -2.3400   -3.5170 O   0  0  0  0  0  0
   23.2140   -9.2320    1.4460 C   0  0  1  0  0  0
   22.9280  -10.7350    1.4590 C   0  0  0  0  0  0
   23.6480  -11.3890    0.2790 C   0  0  1  0  0  0
   25.1360  -11.0570    0.3850 C   0  0  2  0  0  0
   25.3270   -9.5400    0.4450 C   0  0  0  0  0  0
   27.2890  -11.3350   -0.6840 C   0  0  0  0  0  0
   27.5560   -9.8560   -0.9670 C   0  0  0  0  0  0
   22.0640  -13.1110    0.2000 C   0  0  0  0  0  0
   23.4580  -12.8110    0.3180 O   0  0  0  0  0  0
   25.8470  -11.6160   -0.7740 N   0  3  0  0  0  0
   24.6260   -9.0020    1.5770 O   0  0  0  0  0  0
   25.3710   -6.5980   -2.4400 C   0  0  1  0  0  0
   24.3260   -5.8320   -3.1270 C   0  0  0  0  0  0
   23.5510   -5.0830   -3.7070 C   0  0  0  0  0  0
   22.7890   -4.0760   -4.3790 C   0  0  0  0  0  0
   23.4320   -2.8440   -4.3820 C   0  0  0  0  0  0
   24.7010   -2.8650   -3.7170 C   0  0  0  0  0  0
   25.7570   -3.0010   -3.1120 C   0  0  0  0  0  0
   26.9830   -3.2760   -2.3510 C   0  0  2  0  0  0
   28.1900   -3.3890   -3.2850 C   0  0  0  0  0  0
   28.1060   -4.7060   -4.0610 C   0  0  0  0  0  0
   27.5750   -5.8670   -3.5080 C   0  0  1  0  0  0
   26.6280   -5.7270   -2.4980 C   0  0  1  0  0  0
   26.8030   -4.6300   -1.6620 C   0  0  2  0  0  0
   26.7310   -4.6780   -0.1310 C   0  0  0  0  0  0
   27.5590   -5.8390    0.4200 C   0  0  0  0  0  0
   31.1540   -6.7820    1.2060 C   0  0  0  0  0  0
   28.7250   -7.3180   -4.9320 C   0  0  0  0  0  0
   29.8850   -8.6680   -6.3690 C   0  0  0  0  0  0
   27.2040   -2.2420   -1.3890 O   0  0  0  0  0  0
   28.4600   -4.6960   -5.2400 O   0  0  0  0  0  0
   29.4460   -6.4550   -5.4310 O   0  0  0  0  0  0
   28.8960   -8.6050   -5.3390 O   0  0  0  0  0  0
   27.8290   -7.0860   -3.9750 N   0  0  0  0  0  0
   27.5050   -5.9550    2.2450 S   0  0  0  0  0  0
   28.7300   -7.5290    2.6740 S   0  0  0  0  0  0
   30.5690   -6.6740    2.8840 S   0  0  0  0  0  0
   22.6752   -6.6127   -1.5781 H   0  0  0  0  0  0
   23.0684   -6.7030    1.5071 H   0  0  0  0  0  0
   20.5146   -7.3053   -0.1257 H   0  0  0  0  0  0
   21.1093   -4.8368    1.6189 H   0  0  0  0  0  0
   21.0511   -5.0757   -1.4567 H   0  0  0  0  0  0
   20.0515   -2.9495   -0.4872 H   0  0  0  0  0  0
   21.5977   -2.6468   -1.3499 H   0  0  0  0  0  0
   21.5668   -2.7025    0.4453 H   0  0  0  0  0  0
   20.6753   -8.4823    2.0551 H   0  0  0  0  0  0
   18.8359   -5.5191    1.5580 H   0  0  0  0  0  0
   19.0825   -4.0036    0.6258 H   0  0  0  0  0  0
   18.0987   -3.8713   -1.1306 H   0  0  0  0  0  0
   18.2614   -5.5807   -2.9994 H   0  0  0  0  0  0
   17.0496   -6.6007   -2.1521 H   0  0  0  0  0  0
   15.9391   -5.2220   -3.9339 H   0  0  0  0  0  0
   14.8557   -5.6912   -1.7572 H   0  0  0  0  0  0
   16.0272   -3.0747   -0.8224 H   0  0  0  0  0  0
   13.6085   -3.3799   -0.1005 H   0  0  0  0  0  0
   14.7558   -3.5857    1.2663 H   0  0  0  0  0  0
   14.0238   -5.0272    0.4834 H   0  0  0  0  0  0
   17.5749   -3.3332   -3.9986 H   0  0  0  0  0  0
   10.9280   -6.8287   -5.0949 H   0  0  0  0  0  0
   11.7659   -7.1122   -3.5315 H   0  0  0  0  0  0
   12.3076   -5.7842   -4.6130 H   0  0  0  0  0  0
    6.4459   -2.8779   -0.1068 H   0  0  0  0  0  0
    7.8828   -3.9346    0.1066 H   0  0  0  0  0  0
    6.6010   -4.3879   -1.0674 H   0  0  0  0  0  0
   10.1613   -1.2353    0.1825 H   0  0  0  0  0  0
    8.7128   -1.9311   -0.6202 H   0  0  0  0  0  0
   10.0418   -1.2374   -1.6098 H   0  0  0  0  0  0
    6.9776   -1.8033   -4.2760 H   0  0  0  0  0  0
    6.5767   -2.9256   -6.5304 H   0  0  0  0  0  0
    5.2092   -4.8786   -5.7588 H   0  0  0  0  0  0
    3.0241   -2.7612   -5.1812 H   0  0  0  0  0  0
    4.8083   -4.3252   -3.1944 H   0  0  0  0  0  0
    2.4006   -3.9862   -2.4768 H   0  0  0  0  0  0
    2.5812   -2.2283   -2.7990 H   0  0  0  0  0  0
    3.5418   -3.0059   -1.4953 H   0  0  0  0  0  0
    4.7937   -4.3220   -9.1877 H   0  0  0  0  0  0
    5.7331   -5.1848   -7.9229 H   0  0  0  0  0  0
    5.9418   -3.4146   -8.1459 H   0  0  0  0  0  0
    5.6884   -0.6009   -6.2349 H   0  0  0  0  0  0
    2.1941   -5.0492   -5.7823 H   0  0  0  0  0  0
   22.5556   -8.8149    2.2222 H   0  0  0  0  0  0
   23.2914  -11.1692    2.4021 H   0  0  0  0  0  0
   21.8444  -10.9028    1.3716 H   0  0  0  0  0  0
   23.2269  -11.0714   -0.6863 H   0  0  0  0  0  0
   25.5718  -11.5226    1.2812 H   0  0  0  0  0  0
   26.3983   -9.3088    0.5390 H   0  0  0  0  0  0
   24.9329   -9.0841   -0.4752 H   0  0  0  0  0  0
   27.8233  -11.9517   -1.4217 H   0  0  0  0  0  0
   27.6425  -11.5845    0.3273 H   0  0  0  0  0  0
   28.6358   -9.6584   -0.8969 H   0  0  0  0  0  0
   27.0217   -9.2393   -0.2293 H   0  0  0  0  0  0
   27.2025   -9.6066   -1.9783 H   0  0  0  0  0  0
   21.9197  -14.2011    0.2300 H   0  0  0  0  0  0
   21.6836  -12.7169   -0.7539 H   0  0  0  0  0  0
   21.5170  -12.6456    1.0332 H   0  0  0  0  0  0
   25.6981  -12.7054   -0.8049 H   0  0  0  0  0  0
   25.4538  -11.1658   -1.6974 H   0  0  0  0  0  0
   25.6986   -7.5138   -2.9539 H   0  0  0  0  0  0
   21.8059   -4.1845   -4.8605 H   0  0  0  0  0  0
   22.9577   -1.9772   -4.8655 H   0  0  0  0  0  0
   28.1882   -2.5448   -3.9902 H   0  0  0  0  0  0
   29.1160   -3.3691   -2.6916 H   0  0  0  0  0  0
   28.5550   -6.3630   -3.4475 H   0  0  0  0  0  0
   27.3792   -6.2056   -1.8525 H   0  0  0  0  0  0
   27.1387   -5.6771   -1.6921 H   0  0  0  0  0  0
   27.1222   -3.7374    0.2841 H   0  0  0  0  0  0
   25.6851   -4.8104    0.1829 H   0  0  0  0  0  0
   27.1766   -6.7872    0.0141 H   0  0  0  0  0  0
   28.6110   -5.7116    0.1249 H   0  0  0  0  0  0
   32.1642   -6.3515    1.1415 H   0  0  0  0  0  0
   30.4748   -6.2244    0.5443 H   0  0  0  0  0  0
   31.1844   -7.8368    0.8955 H   0  0  0  0  0  0
   30.0144   -9.7122   -6.6896 H   0  0  0  0  0  0
   30.8403   -8.2815   -5.9842 H   0  0  0  0  0  0
   29.5614   -8.0588   -7.2258 H   0  0  0  0  0  0
   27.3530   -1.2041   -1.7215 H   0  0  0  0  0  0
   27.2889   -7.9541   -3.5691 H   0  0  0  0  0  0
  1  2  1  0  0  0
  1  7  1  0  0  0
  1 11  1  0  0  0
  1 85  1  0  0  0
  2  3  1  0  0  0
  2  8  1  0  0  0
  2 86  1  0  0  0
  3  4  1  0  0  0
  3  9  1  0  0  0
  3 87  1  0  0  0
  4  5  1  0  0  0
  4 10  1  0  0  0
  4 88  1  0  0  0
  5  6  1  0  0  0
  5 11  1  0  0  0
  5 89  1  0  0  0
  6 90  1  0  0  0
  6 91  1  0  0  0
  6 92  1  0  0  0
  7 59  1  0  0  0
  8 48  1  0  0  0
  9 93  1  0  0  0
 10 18  1  0  0  0
 10 94  1  0  0  0
 10 95  1  0  0  0
 12 13  1  0  0  0
 12 18  1  0  0  0
 12 20  1  0  0  0
 12 96  1  0  0  0
 13 14  1  0  0  0
 13 97  1  0  0  0
 13 98  1  0  0  0
 14 15  1  0  0  0
 14 19  1  0  0  0
 14 99  1  0  0  0
 15 16  1  0  0  0
 15 21  1  0  0  0
 15100  1  0  0  0
 16 17  1  0  0  0
 16 20  1  0  0  0
 16101  1  0  0  0
 17102  1  0  0  0
 17103  1  0  0  0
 17104  1  0  0  0
 19105  1  0  0  0
 21 28  1  0  0  0
 22 23  2  0  0  0
 22 27  1  0  0  0
 22 35  1  0  0  0
 23 24  1  0  0  0
 23 43  1  0  0  0
 24 25  2  0  0  0
 24 32  1  0  0  0
 25 26  1  0  0  0
 25 33  1  0  0  0
 26 27  2  0  0  0
 26 28  1  0  0  0
 27 29  1  0  0  0
 28 34  2  0  0  0
 29106  1  0  0  0
 29107  1  0  0  0
 29108  1  0  0  0
 30 32  1  0  0  0
 30109  1  0  0  0
 30110  1  0  0  0
 30111  1  0  0  0
 31 33  1  0  0  0
 31112  1  0  0  0
 31113  1  0  0  0
 31114  1  0  0  0
 36 37  1  0  0  0
 36 43  1  0  0  0
 36 47  1  0  0  0
 36115  1  0  0  0
 37 38  1  0  0  0
 37 44  1  0  0  0
 37116  1  0  0  0
 38 39  1  0  0  0
 38 45  1  0  0  0
 38117  1  0  0  0
 39 40  1  0  0  0
 39 46  1  0  0  0
 39118  1  0  0  0
 40 41  1  0  0  0
 40 47  1  0  0  0
 40119  1  0  0  0
 41120  1  0  0  0
 41121  1  0  0  0
 41122  1  0  0  0
 42 45  1  0  0  0
 42123  1  0  0  0
 42124  1  0  0  0
 42125  1  0  0  0
 44126  1  0  0  0
 46127  1  0  0  0
 48 49  1  0  0  0
 48 58  1  0  0  0
 48128  1  0  0  0
 49 50  1  0  0  0
 49129  1  0  0  0
 49130  1  0  0  0
 50 51  1  0  0  0
 50 56  1  0  0  0
 50131  1  0  0  0
 51 52  1  0  0  0
 51 57  1  0  0  0
 51132  1  0  0  0
 52 58  1  0  0  0
 52133  1  0  0  0
 52134  1  0  0  0
 53 54  1  0  0  0
 53 57  1  0  0  0
 53135  1  0  0  0
 53136  1  0  0  0
 54137  1  0  0  0
 54138  1  0  0  0
 54139  1  0  0  0
 55 56  1  0  0  0
 55140  1  0  0  0
 55141  1  0  0  0
 55142  1  0  0  0
 57143  1  0  0  0
 57144  1  0  0  0
 59 60  1  0  0  0
 59 70  1  0  0  0
 59145  1  0  0  0
 60 61  3  0  0  0
 61 62  1  0  0  0
 62 63  2  0  0  0
 62146  1  0  0  0
 63 64  1  0  0  0
 63147  1  0  0  0
 64 65  3  0  0  0
 65 66  1  0  0  0
 66 67  1  0  0  0
 66 71  1  0  0  0
 66 77  1  0  0  0
 67 68  1  0  0  0
 67148  1  0  0  0
 67149  1  0  0  0
 68 69  1  0  0  0
 68 78  2  0  0  0
 69 70  1  0  0  0
 69 81  1  0  0  0
 69150  1  0  0  0
 70 71  1  0  0  0
 70151  1  0  0  0
 71 72  1  0  0  0
 71152  1  0  0  0
 72 73  1  0  0  0
 72153  1  0  0  0
 72154  1  0  0  0
 73 82  1  0  0  0
 73155  1  0  0  0
 73156  1  0  0  0
 74 84  1  0  0  0
 74157  1  0  0  0
 74158  1  0  0  0
 74159  1  0  0  0
 75 79  2  0  0  0
 75 80  1  0  0  0
 75 81  1  0  0  0
 76 80  1  0  0  0
 76160  1  0  0  0
 76161  1  0  0  0
 76162  1  0  0  0
 77163  1  0  0  0
 81164  1  0  0  0
 82 83  1  0  0  0
 83 84  1  0  0  0
M  CHG  2  10   1  57   1
M  END
> <s_m_source_file>
../2l65_ligand.sdf

> <i_m_source_file_index>
1

> <s_epik_input>
W0NIM11TU1NbQ0gyXVtDSDJdW0NASF0xW0NASF0oW0NASF0oQyg9TylbQ0gyXTIpW05IXUMoPU8pT1tDSDNdKVtDQEhdKEMjQy9bQ0hdPVtDSF1cQyNDW0NAQF0xMltPSF0pT1tDQEhdM1tDQEhdKE9bQ0BIXTRbQ0gyXVtDQEhdKE9bQ0gzXSlbQ0BIXShbQ0gyXU80KVtOSDIrXVtDSDJdW0NIM10pW0NAQEhdKFtPSF0pW0NAQEhdKFtDQEhdKE8zKVtDSDNdKVtOSDIrXU9bQ0BIXTVbQ0gyXVtDQEhdKFtPSF0pW0NAQEhdKFtDQEhdKE81KVtDSDNdKVNDKD1PKWMoYzZbQ0gzXSljKE9bQ0gzXSljKE9bQ0gzXSljKGM2SSlPW0NASF03W0NASF0oW09IXSlbQ0BIXShPW0NIM10pW0NAQEhdKFtPSF0pW0NAQEhdKE83KVtDSDNd

> <s_epik_cmdline>
J2VwaWtfYXBwJywgJy1pbWFlJywgJ2xpZ2FuZF9wcm8ubWFlJywgJy1vbWFlJywgJ2xpZ2FuZF9wcmVwLm1hZScsICctbXMnLCAnMScsICctcGgnLCAnNycsICctcGh0JywgJzAuNScsICctbnQn

> <s_epik_pKa_notes>
Molecule size exceeds maximum supported for generating protonation states

> <s_epik_Chemistry_Notes>
This compound has an ester and may undergo hydrolysis at high or low pH. This compound contains an acetal/aminal-like group ( X-CH(R)-Y where X, Y are N, S, or O) that may be acid/base labile, releasing an aldehyde. This compound has a N-S or N-O group and may undergo hydrolysis at high or low pH.

$$$$
