2l6e_ligand
                    3D
 Schrodinger Suite 2020-3.
263266  0  0  1  0            999 V2000
   -3.8910    2.7880   -5.2740 N   0  3  0  0  0  0
   -3.2130    2.3000   -4.0490 C   0  0  2  0  0  0
   -2.2720    3.3780   -3.5490 C   0  0  0  0  0  0
   -1.0870    3.1530   -3.3070 O   0  0  0  0  0  0
   -2.4440    0.9870   -4.3160 C   0  0  2  0  0  0
   -3.3220    0.0420   -5.1320 C   0  0  0  0  0  0
   -2.0300    0.3250   -3.0070 C   0  0  0  0  0  0
   -4.6710   -0.2300   -4.4920 C   0  0  0  0  0  0
   -2.8250    4.5650   -3.4110 N   0  0  0  0  0  0
   -2.0510    5.7320   -3.0680 C   0  0  2  0  0  0
   -2.3730    6.1600   -1.6360 C   0  0  0  0  0  0
   -3.1010    5.4550   -0.9330 O   0  0  0  0  0  0
   -2.3250    6.8870   -4.0730 C   0  0  2  0  0  0
   -3.1240    7.9190   -3.4780 O   0  0  0  0  0  0
   -3.0590    6.3910   -5.3130 C   0  0  0  0  0  0
   -1.8240    7.2870   -1.1970 N   0  0  0  0  0  0
   -2.1560    7.8410    0.1110 C   0  0  2  0  0  0
   -3.6680    8.0040    0.2340 C   0  0  0  0  0  0
   -4.2280    7.8700    1.3240 O   0  0  0  0  0  0
   -1.4570    9.1880    0.3110 C   0  0  0  0  0  0
   -1.6430    9.7620    1.6860 C   0  0  0  0  0  0
   -1.2700    9.0350    2.8040 C   0  0  0  0  0  0
   -2.1930   11.0220    1.8630 C   0  0  0  0  0  0
   -1.4390    9.5490    4.0700 C   0  0  0  0  0  0
   -2.3650   11.5420    3.1320 C   0  0  0  0  0  0
   -1.9870   10.8020    4.2360 C   0  0  0  0  0  0
   -6.3660    7.1270   -0.3760 C   0  0  0  0  0  0
   -4.3130    8.2950   -0.9000 N   0  0  0  0  0  0
   -7.0800    7.1570    0.6260 O   0  0  0  0  0  0
   -5.7840    8.4160   -0.9840 C   0  0  1  0  0  0
   -6.1990    8.5140   -2.4660 C   0  0  0  0  0  0
   -8.7530    8.7740   -2.2140 C   0  0  0  0  0  0
   -8.8210    7.3900   -2.2640 C   0  0  0  0  0  0
   -7.4410    9.3860   -2.7120 C   0  0  0  0  0  0
   -6.2530    9.6540   -0.2220 C   0  0  0  0  0  0
   -6.0120    5.9960   -0.9930 N   0  0  0  0  0  0
   -6.5210    4.6870   -0.5870 C   0  0  2  0  0  0
   -6.2080    4.4130    0.8780 C   0  0  0  0  0  0
   -7.0000    3.7930    1.5850 O   0  0  0  0  0  0
   -5.9280    3.5800   -1.4620 C   0  0  0  0  0  0
   -6.3020    3.7260   -2.9250 C   0  0  0  0  0  0
   -5.4840    4.2740   -3.6970 O   0  0  0  0  0  0
   -7.4050    3.2880   -3.3120 O   0  0  0  0  0  0
   -5.0490    4.8850    1.3250 N   0  0  0  0  0  0
   -4.6550    4.7570    2.7230 C   0  0  2  0  0  0
   -5.6540    5.4790    3.6260 C   0  0  0  0  0  0
   -6.1100    4.9340    4.6350 O   0  0  0  0  0  0
   -3.2520    5.3340    2.9400 C   0  0  0  0  0  0
   -2.2260    4.3540    3.5120 C   0  0  0  0  0  0
   -2.8070    3.6250    4.7100 C   0  0  0  0  0  0
   -1.7660    3.3700    2.4430 C   0  0  0  0  0  0
   -5.9890    6.7060    3.2500 N   0  0  0  0  0  0
   -6.9590    7.5070    3.9880 C   0  0  2  0  0  0
   -8.3160    6.8160    4.0500 C   0  0  0  0  0  0
   -8.8770    6.6540    5.1340 O   0  0  0  0  0  0
   -7.1040    8.8970    3.3580 C   0  0  0  0  0  0
   -5.9780    9.8870    3.6920 C   0  0  0  0  0  0
   -6.1100   11.1520    2.8630 C   0  0  0  0  0  0
   -5.9950   10.2410    5.1730 C   0  0  0  0  0  0
  -10.1540    4.4400    3.6180 C   0  0  0  0  0  0
   -8.8250    6.3900    2.8860 N   0  0  0  0  0  0
  -11.1950    4.0080    4.1020 O   0  0  0  0  0  0
  -10.1550    5.7310    2.7860 C   0  0  1  0  0  0
  -10.4980    5.3800    1.3330 C   0  0  0  0  0  0
   -9.9770    7.3590   -0.1470 C   0  0  0  0  0  0
   -9.4310    6.6890   -1.2320 C   0  0  0  0  0  0
  -11.0630    6.5680    0.5540 C   0  0  0  0  0  0
  -11.2290    6.6690    3.3210 C   0  0  0  0  0  0
   -8.9900    3.8330    3.7700 N   0  0  0  0  0  0
   -8.8700    2.5950    4.5340 C   0  0  2  0  0  0
   -9.0790    2.8430    6.0250 C   0  0  0  0  0  0
   -9.7840    2.0960    6.6940 O   0  0  0  0  0  0
   -7.5050    1.9400    4.2980 C   0  0  0  0  0  0
   -7.2290    0.7640    5.2130 C   0  0  0  0  0  0
   -7.8110   -0.4780    4.9850 C   0  0  0  0  0  0
   -6.3940    0.9060    6.3140 C   0  0  0  0  0  0
   -7.5650   -1.5440    5.8300 C   0  0  0  0  0  0
   -6.1450   -0.1540    7.1630 C   0  0  0  0  0  0
   -6.7320   -1.3770    6.9150 C   0  0  0  0  0  0
   -6.4860   -2.4370    7.7590 O   0  0  0  0  0  0
   -8.4280    3.8640    6.5540 N   0  0  0  0  0  0
   -8.5920    4.2170    7.9580 C   0  0  2  0  0  0
   -9.9480    4.8680    8.2210 C   0  0  0  0  0  0
  -10.5630    4.6380    9.2650 O   0  0  0  0  0  0
   -7.4470    5.1170    8.4210 C   0  0  0  0  0  0
   -6.1620    4.3540    8.6600 C   0  0  0  0  0  0
   -5.2570    4.1260    7.6330 C   0  0  0  0  0  0
   -5.8670    3.8440    9.9180 C   0  0  0  0  0  0
   -4.0920    3.4170    7.8540 C   0  0  0  0  0  0
   -4.7060    3.1330   10.1440 C   0  0  0  0  0  0
   -3.8220    2.9220    9.1090 C   0  0  0  0  0  0
   -2.6690    2.2100    9.3280 O   0  0  0  0  0  0
  -10.4090    5.6760    7.2740 N   0  0  0  0  0  0
  -11.6620    6.3870    7.4470 C   0  0  0  0  0  0
  -12.8860    5.5190    7.2030 C   0  0  0  0  0  0
  -13.8520    5.5690    7.9680 O   0  0  0  0  0  0
  -12.8510    4.7280    6.1390 N   0  0  0  0  0  0
  -13.9690    3.8720    5.7730 C   0  0  2  0  0  0
  -13.4760    2.4380    5.6490 C   0  0  0  0  0  0
  -12.4480    2.0870    6.2110 O   0  0  0  0  0  0
  -14.5830    4.3250    4.4440 C   0  0  0  0  0  0
  -14.9010    5.8090    4.3840 C   0  0  0  0  0  0
  -15.8730    6.1250    3.2610 C   0  0  0  0  0  0
  -17.2640    5.5780    3.5610 C   0  0  0  0  0  0
  -17.8740    6.2310    4.7530 N   0  3  0  0  0  0
  -14.2150    1.6110    4.9280 N   0  0  0  0  0  0
  -13.8170    0.2230    4.7260 C   0  0  2  0  0  0
  -14.1850   -0.2730    3.3340 C   0  0  0  0  0  0
  -14.6280   -1.4110    3.1810 O   0  0  0  0  0  0
  -14.4470   -0.6840    5.7860 C   0  0  0  0  0  0
  -13.6980   -0.6830    7.1070 C   0  0  0  0  0  0
  -14.3640   -1.5750    8.1350 C   0  0  0  0  0  0
  -13.5000   -1.7270    9.3770 C   0  0  0  0  0  0
  -13.1470   -0.4170    9.9850 N   0  3  0  0  0  0
  -14.0160    0.5930    2.3340 N   0  0  0  0  0  0
  -14.1860    0.2170    0.9310 C   0  0  2  0  0  0
  -14.0060    1.4390    0.0390 C   0  0  0  0  0  0
  -14.9390    2.2650   -0.0370 O   0  0  0  0  0  0
  -15.5590   -0.4170    0.6660 C   0  0  0  0  0  0
  -15.5830   -1.3000   -0.5730 C   0  0  0  0  0  0
  -14.5710   -2.4350   -0.4610 C   0  0  0  0  0  0
  -14.8990   -3.3590    0.7040 C   0  0  0  0  0  0
  -13.7960   -4.3090    1.0000 N   0  3  0  0  0  0
  -12.9320    1.5720   -0.5780 O   0  0  0  0  0  0
   -4.4274    3.7216   -5.0490 H   0  0  0  0  0  0
   -4.6064    2.0293   -5.6241 H   0  0  0  0  0  0
   -3.1421    2.9751   -6.0577 H   0  0  0  0  0  0
   -3.9939    2.1086   -3.2983 H   0  0  0  0  0  0
   -1.5263    1.2058   -4.8816 H   0  0  0  0  0  0
   -3.5089    0.4798   -6.1237 H   0  0  0  0  0  0
   -2.8105   -0.9249   -5.2485 H   0  0  0  0  0  0
   -1.3985    1.0166   -2.4300 H   0  0  0  0  0  0
   -1.4650   -0.5936   -3.2234 H   0  0  0  0  0  0
   -2.9278    0.0743   -2.4229 H   0  0  0  0  0  0
   -5.2483   -0.9149   -5.1305 H   0  0  0  0  0  0
   -5.2204    0.7162   -4.3784 H   0  0  0  0  0  0
   -4.5220   -0.6884   -3.5033 H   0  0  0  0  0  0
   -3.9107    4.6510   -3.5655 H   0  0  0  0  0  0
   -1.0003    5.4129   -3.1324 H   0  0  0  0  0  0
   -1.3688    7.3571   -4.3464 H   0  0  0  0  0  0
   -2.7799    8.4219   -2.5622 H   0  0  0  0  0  0
   -2.4703    5.5961   -5.7941 H   0  0  0  0  0  0
   -3.1937    7.2250   -6.0175 H   0  0  0  0  0  0
   -4.0428    5.9939   -5.0224 H   0  0  0  0  0  0
   -1.1028    7.8046   -1.8466 H   0  0  0  0  0  0
   -1.7922    7.1180    0.8559 H   0  0  0  0  0  0
   -0.3758    9.0677    0.1483 H   0  0  0  0  0  0
   -1.8568    9.9188   -0.4074 H   0  0  0  0  0  0
   -0.8368    8.0425    2.6801 H   0  0  0  0  0  0
   -2.4924   11.6078    0.9939 H   0  0  0  0  0  0
   -1.1395    8.9650    4.9403 H   0  0  0  0  0  0
   -2.7980   12.5339    3.2616 H   0  0  0  0  0  0
   -2.1224   11.2095    5.2379 H   0  0  0  0  0  0
   -3.6965    8.4467   -1.7983 H   0  0  0  0  0  0
   -5.3752    8.9511   -3.0493 H   0  0  0  0  0  0
   -6.4272    7.5088   -2.8501 H   0  0  0  0  0  0
   -9.5522    9.2031   -2.8363 H   0  0  0  0  0  0
   -8.8778    9.1099   -1.1740 H   0  0  0  0  0  0
   -8.3926    6.8473   -3.1195 H   0  0  0  0  0  0
   -7.3205   10.3497   -2.1955 H   0  0  0  0  0  0
   -7.5583    9.5608   -3.7917 H   0  0  0  0  0  0
   -5.9510    9.5717    0.8325 H   0  0  0  0  0  0
   -7.3486    9.7300   -0.2849 H   0  0  0  0  0  0
   -5.7971   10.5517   -0.6650 H   0  0  0  0  0  0
   -5.3099    6.0758   -1.8360 H   0  0  0  0  0  0
   -7.6104    4.7424   -0.7287 H   0  0  0  0  0  0
   -4.8306    3.6047   -1.3909 H   0  0  0  0  0  0
   -6.2959    2.6027   -1.1163 H   0  0  0  0  0  0
   -5.7286    4.3933   -4.7628 H   0  0  0  0  0  0
   -4.3796    5.3833    0.6083 H   0  0  0  0  0  0
   -4.6626    3.6773    2.9333 H   0  0  0  0  0  0
   -2.8475    5.6855    1.9794 H   0  0  0  0  0  0
   -3.3070    6.1766    3.6450 H   0  0  0  0  0  0
   -1.3446    4.9173    3.8524 H   0  0  0  0  0  0
   -3.1300    4.3580    5.4639 H   0  0  0  0  0  0
   -2.0415    2.9653    5.1444 H   0  0  0  0  0  0
   -3.6705    3.0235    4.3898 H   0  0  0  0  0  0
   -1.3504    3.9245    1.5887 H   0  0  0  0  0  0
   -2.6223    2.7668    2.1071 H   0  0  0  0  0  0
   -0.9932    2.7085    2.8617 H   0  0  0  0  0  0
   -5.5088    7.1160    2.3493 H   0  0  0  0  0  0
   -6.5451    7.5864    5.0041 H   0  0  0  0  0  0
   -7.1232    8.8027    2.2622 H   0  0  0  0  0  0
   -8.0404    9.3599    3.7027 H   0  0  0  0  0  0
   -5.0153    9.4121    3.4519 H   0  0  0  0  0  0
   -6.0974   10.8928    1.7940 H   0  0  0  0  0  0
   -5.2702   11.8263    3.0868 H   0  0  0  0  0  0
   -7.0581   11.6534    3.1076 H   0  0  0  0  0  0
   -5.8992    9.3225    5.7706 H   0  0  0  0  0  0
   -6.9430   10.7416    5.4194 H   0  0  0  0  0  0
   -5.1551   10.9146    5.3986 H   0  0  0  0  0  0
   -8.2181    6.5440    1.9816 H   0  0  0  0  0  0
   -9.5900    5.0392    0.8140 H   0  0  0  0  0  0
  -11.2517    4.5790    1.3174 H   0  0  0  0  0  0
   -9.1877    7.5675    0.5902 H   0  0  0  0  0  0
  -10.4210    8.3064   -0.4866 H   0  0  0  0  0  0
   -9.4849    5.5910   -1.2696 H   0  0  0  0  0  0
  -11.7681    6.2047   -0.2081 H   0  0  0  0  0  0
  -11.5869    7.2442    1.2456 H   0  0  0  0  0  0
  -10.9994    6.9322    4.3641 H   0  0  0  0  0  0
  -12.2079    6.1693    3.2758 H   0  0  0  0  0  0
  -11.2553    7.5830    2.7095 H   0  0  0  0  0  0
   -8.0993    4.2811    3.3053 H   0  0  0  0  0  0
   -9.6748    1.9494    4.1526 H   0  0  0  0  0  0
   -7.4495    1.5707    3.2633 H   0  0  0  0  0  0
   -6.7090    2.6804    4.4662 H   0  0  0  0  0  0
   -8.4706   -0.6130    4.1278 H   0  0  0  0  0  0
   -5.9272    1.8711    6.5111 H   0  0  0  0  0  0
   -8.0278   -2.5122    5.6390 H   0  0  0  0  0  0
   -5.4887   -0.0250    8.0237 H   0  0  0  0  0  0
   -6.9521   -3.4143    7.5649 H   0  0  0  0  0  0
   -7.7527    4.4514    5.9145 H   0  0  0  0  0  0
   -8.5545    3.2602    8.4995 H   0  0  0  0  0  0
   -7.2473    5.8800    7.6542 H   0  0  0  0  0  0
   -7.7260    5.6094    9.3642 H   0  0  0  0  0  0
   -5.4687    4.5125    6.6360 H   0  0  0  0  0  0
   -6.5638    4.0081   10.7400 H   0  0  0  0  0  0
   -3.3896    3.2505    7.0373 H   0  0  0  0  0  0
   -4.4895    2.7401   11.1374 H   0  0  0  0  0  0
   -1.9620    2.0406    8.5025 H   0  0  0  0  0  0
   -9.8278    5.8030    6.3488 H   0  0  0  0  0  0
  -11.7275    6.7693    8.4763 H   0  0  0  0  0  0
  -11.7069    7.2284    6.7398 H   0  0  0  0  0  0
  -11.9382    4.7330    5.5252 H   0  0  0  0  0  0
  -14.7099    3.9649    6.5808 H   0  0  0  0  0  0
  -13.8820    4.1100    3.6241 H   0  0  0  0  0  0
  -15.5253    3.7841    4.2721 H   0  0  0  0  0  0
  -15.3534    6.1258    5.3353 H   0  0  0  0  0  0
  -13.9742    6.3760    4.2120 H   0  0  0  0  0  0
  -15.9458    7.2153    3.1350 H   0  0  0  0  0  0
  -15.5130    5.6711    2.3259 H   0  0  0  0  0  0
  -17.9218    5.7553    2.6974 H   0  0  0  0  0  0
  -17.1988    4.4975    3.7565 H   0  0  0  0  0  0
  -18.8732    5.8073    4.9320 H   0  0  0  0  0  0
  -17.9611    7.3128    4.5740 H   0  0  0  0  0  0
  -17.2380    6.0550    5.6331 H   0  0  0  0  0  0
  -15.1449    1.9877    4.4771 H   0  0  0  0  0  0
  -12.7218    0.2348    4.8280 H   0  0  0  0  0  0
  -15.4750   -0.3501    5.9902 H   0  0  0  0  0  0
  -14.4644   -1.7206    5.4182 H   0  0  0  0  0  0
  -12.6726   -1.0477    6.9473 H   0  0  0  0  0  0
  -13.6648    0.3404    7.5089 H   0  0  0  0  0  0
  -15.3284   -1.1365    8.4311 H   0  0  0  0  0  0
  -14.5322   -2.5719    7.7015 H   0  0  0  0  0  0
  -14.0423   -2.3165   10.1310 H   0  0  0  0  0  0
  -12.5647   -2.2418    9.1123 H   0  0  0  0  0  0
  -12.5241   -0.5825   10.8764 H   0  0  0  0  0  0
  -14.0667    0.1130   10.2736 H   0  0  0  0  0  0
  -12.5891    0.1877    9.2548 H   0  0  0  0  0  0
  -13.7383    1.6243    2.5973 H   0  0  0  0  0  0
  -13.3974   -0.5261    0.7414 H   0  0  0  0  0  0
  -14.8345    3.1558   -0.6739 H   0  0  0  0  0  0
  -15.8462   -1.0418    1.5246 H   0  0  0  0  0  0
  -16.3077    0.3761    0.5230 H   0  0  0  0  0  0
  -16.5861   -1.7350   -0.6938 H   0  0  0  0  0  0
  -15.3362   -0.6960   -1.4586 H   0  0  0  0  0  0
  -14.5792   -3.0264   -1.3885 H   0  0  0  0  0  0
  -13.5664   -2.0162   -0.3021 H   0  0  0  0  0  0
  -15.0825   -2.7589    1.6075 H   0  0  0  0  0  0
  -15.7981   -3.9458    0.4647 H   0  0  0  0  0  0
  -14.0823   -4.9511    1.8461 H   0  0  0  0  0  0
  -12.8867   -3.7462    1.2580 H   0  0  0  0  0  0
  -13.6023   -4.9331    0.1152 H   0  0  0  0  0  0
  1  2  1  0  0  0
  1125  1  0  0  0
  1126  1  0  0  0
  1127  1  0  0  0
  2  3  1  0  0  0
  2  5  1  0  0  0
  2128  1  0  0  0
  3  4  2  0  0  0
  3  9  1  0  0  0
  5  6  1  0  0  0
  5  7  1  0  0  0
  5129  1  0  0  0
  6  8  1  0  0  0
  6130  1  0  0  0
  6131  1  0  0  0
  7132  1  0  0  0
  7133  1  0  0  0
  7134  1  0  0  0
  8135  1  0  0  0
  8136  1  0  0  0
  8137  1  0  0  0
  9 10  1  0  0  0
  9138  1  0  0  0
 10 11  1  0  0  0
 10 13  1  0  0  0
 10139  1  0  0  0
 11 12  2  0  0  0
 11 16  1  0  0  0
 13 14  1  0  0  0
 13 15  1  0  0  0
 13140  1  0  0  0
 14141  1  0  0  0
 15142  1  0  0  0
 15143  1  0  0  0
 15144  1  0  0  0
 16 17  1  0  0  0
 16145  1  0  0  0
 17 18  1  0  0  0
 17 20  1  0  0  0
 17146  1  0  0  0
 18 19  2  0  0  0
 18 28  1  0  0  0
 20 21  1  0  0  0
 20147  1  0  0  0
 20148  1  0  0  0
 21 22  2  0  0  0
 21 23  1  0  0  0
 22 24  1  0  0  0
 22149  1  0  0  0
 23 25  2  0  0  0
 23150  1  0  0  0
 24 26  2  0  0  0
 24151  1  0  0  0
 25 26  1  0  0  0
 25152  1  0  0  0
 26153  1  0  0  0
 27 29  2  0  0  0
 27 30  1  0  0  0
 27 36  1  0  0  0
 28 30  1  0  0  0
 28154  1  0  0  0
 30 31  1  0  0  0
 30 35  1  0  0  0
 31 34  1  0  0  0
 31155  1  0  0  0
 31156  1  0  0  0
 32 33  1  0  0  0
 32 34  1  0  0  0
 32157  1  0  0  0
 32158  1  0  0  0
 33 66  2  0  0  0
 33159  1  0  0  0
 34160  1  0  0  0
 34161  1  0  0  0
 35162  1  0  0  0
 35163  1  0  0  0
 35164  1  0  0  0
 36 37  1  0  0  0
 36165  1  0  0  0
 37 38  1  0  0  0
 37 40  1  0  0  0
 37166  1  0  0  0
 38 39  2  0  0  0
 38 44  1  0  0  0
 40 41  1  0  0  0
 40167  1  0  0  0
 40168  1  0  0  0
 41 42  1  0  0  0
 41 43  2  0  0  0
 42169  1  0  0  0
 44 45  1  0  0  0
 44170  1  0  0  0
 45 46  1  0  0  0
 45 48  1  0  0  0
 45171  1  0  0  0
 46 47  2  0  0  0
 46 52  1  0  0  0
 48 49  1  0  0  0
 48172  1  0  0  0
 48173  1  0  0  0
 49 50  1  0  0  0
 49 51  1  0  0  0
 49174  1  0  0  0
 50175  1  0  0  0
 50176  1  0  0  0
 50177  1  0  0  0
 51178  1  0  0  0
 51179  1  0  0  0
 51180  1  0  0  0
 52 53  1  0  0  0
 52181  1  0  0  0
 53 54  1  0  0  0
 53 56  1  0  0  0
 53182  1  0  0  0
 54 55  2  0  0  0
 54 61  1  0  0  0
 56 57  1  0  0  0
 56183  1  0  0  0
 56184  1  0  0  0
 57 58  1  0  0  0
 57 59  1  0  0  0
 57185  1  0  0  0
 58186  1  0  0  0
 58187  1  0  0  0
 58188  1  0  0  0
 59189  1  0  0  0
 59190  1  0  0  0
 59191  1  0  0  0
 60 62  2  0  0  0
 60 63  1  0  0  0
 60 69  1  0  0  0
 61 63  1  0  0  0
 61192  1  0  0  0
 63 64  1  0  0  0
 63 68  1  0  0  0
 64 67  1  0  0  0
 64193  1  0  0  0
 64194  1  0  0  0
 65 66  1  0  0  0
 65 67  1  0  0  0
 65195  1  0  0  0
 65196  1  0  0  0
 66197  1  0  0  0
 67198  1  0  0  0
 67199  1  0  0  0
 68200  1  0  0  0
 68201  1  0  0  0
 68202  1  0  0  0
 69 70  1  0  0  0
 69203  1  0  0  0
 70 71  1  0  0  0
 70 73  1  0  0  0
 70204  1  0  0  0
 71 72  2  0  0  0
 71 81  1  0  0  0
 73 74  1  0  0  0
 73205  1  0  0  0
 73206  1  0  0  0
 74 75  2  0  0  0
 74 76  1  0  0  0
 75 77  1  0  0  0
 75207  1  0  0  0
 76 78  2  0  0  0
 76208  1  0  0  0
 77 79  2  0  0  0
 77209  1  0  0  0
 78 79  1  0  0  0
 78210  1  0  0  0
 79 80  1  0  0  0
 80211  1  0  0  0
 81 82  1  0  0  0
 81212  1  0  0  0
 82 83  1  0  0  0
 82 85  1  0  0  0
 82213  1  0  0  0
 83 84  2  0  0  0
 83 93  1  0  0  0
 85 86  1  0  0  0
 85214  1  0  0  0
 85215  1  0  0  0
 86 87  2  0  0  0
 86 88  1  0  0  0
 87 89  1  0  0  0
 87216  1  0  0  0
 88 90  2  0  0  0
 88217  1  0  0  0
 89 91  2  0  0  0
 89218  1  0  0  0
 90 91  1  0  0  0
 90219  1  0  0  0
 91 92  1  0  0  0
 92220  1  0  0  0
 93 94  1  0  0  0
 93221  1  0  0  0
 94 95  1  0  0  0
 94222  1  0  0  0
 94223  1  0  0  0
 95 96  2  0  0  0
 95 97  1  0  0  0
 97 98  1  0  0  0
 97224  1  0  0  0
 98 99  1  0  0  0
 98101  1  0  0  0
 98225  1  0  0  0
 99100  2  0  0  0
 99106  1  0  0  0
101102  1  0  0  0
101226  1  0  0  0
101227  1  0  0  0
102103  1  0  0  0
102228  1  0  0  0
102229  1  0  0  0
103104  1  0  0  0
103230  1  0  0  0
103231  1  0  0  0
104105  1  0  0  0
104232  1  0  0  0
104233  1  0  0  0
105234  1  0  0  0
105235  1  0  0  0
105236  1  0  0  0
106107  1  0  0  0
106237  1  0  0  0
107108  1  0  0  0
107110  1  0  0  0
107238  1  0  0  0
108109  2  0  0  0
108115  1  0  0  0
110111  1  0  0  0
110239  1  0  0  0
110240  1  0  0  0
111112  1  0  0  0
111241  1  0  0  0
111242  1  0  0  0
112113  1  0  0  0
112243  1  0  0  0
112244  1  0  0  0
113114  1  0  0  0
113245  1  0  0  0
113246  1  0  0  0
114247  1  0  0  0
114248  1  0  0  0
114249  1  0  0  0
115116  1  0  0  0
115250  1  0  0  0
116117  1  0  0  0
116119  1  0  0  0
116251  1  0  0  0
117118  1  0  0  0
117124  2  0  0  0
118252  1  0  0  0
119120  1  0  0  0
119253  1  0  0  0
119254  1  0  0  0
120121  1  0  0  0
120255  1  0  0  0
120256  1  0  0  0
121122  1  0  0  0
121257  1  0  0  0
121258  1  0  0  0
122123  1  0  0  0
122259  1  0  0  0
122260  1  0  0  0
123261  1  0  0  0
123262  1  0  0  0
123263  1  0  0  0
M  CHG  4   1   1 105   1 114   1 123   1
M  END
> <s_m_source_file>
../2l6e_ligand.sdf

> <i_m_source_file_index>
1

> <s_epik_input>
W0NIM11bQ0gyXVtDQEhdKFtDSDNdKVtDQEhdKFtOSDMrXSlDKD1PKVtOSF1bQ0BASF0oW0NASF0oW09IXSlbQ0gzXSlDKD1PKVtOSF1bQ0BASF0oW0NIMl1jMVtjSF1bY0hdW2NIXVtjSF1bY0hdMSlDKD1PKVtOSF1bQ0BdMihbQ0gzXSlDKD1PKVtOSF1bQ0BASF0oW0NIMl1DKD1PKVtPSF0pQyg9TylbTkhdW0NAQEhdKFtDSDJdW0NIXShbQ0gzXSlbQ0gzXSlDKD1PKVtOSF1bQ0BASF0oW0NIMl1bQ0hdKFtDSDNdKVtDSDNdKUMoPU8pW05IXVtDQEBdKFtDSDNdKShbQ0gyXVtDSDJdW0NIMl0vW0NIXT1bQ0hdXFtDSDJdW0NIMl1bQ0gyXTIpQyg9TylbTkhdW0NAQEhdKFtDSDJdYzNbY0hdW2NIXWMoW09IXSlbY0hdW2NIXTMpQyg9TylbTkhdW0NAQEhdKFtDSDJdYzRbY0hdW2NIXWMoW09IXSlbY0hdW2NIXTQpQyg9TylbTkhdW0NIMl1DKD1PKVtOSF1bQ0BASF0oW0NIMl1bQ0gyXVtDSDJdW0NIMl1bTkgzK10pQyg9TylbTkhdW0NAQEhdKFtDSDJdW0NIMl1bQ0gyXVtDSDJdW05IMytdKUMoPU8pW05IXVtDQEhdKEMoPU8pW09IXSlbQ0gyXVtDSDJdW0NIMl1bQ0gyXVtOSDMrXQ==

> <s_epik_cmdline>
J2VwaWtfYXBwJywgJy1pbWFlJywgJ2xpZ2FuZF9wcm8ubWFlJywgJy1vbWFlJywgJ2xpZ2FuZF9wcmVwLm1hZScsICctbXMnLCAnMScsICctcGgnLCAnNycsICctcGh0JywgJzAuNScsICctbnQn

> <s_epik_pKa_notes>
Molecule size exceeds maximum supported for generating protonation states

$$$$
