2l6j_ligand
                    3D
 Schrodinger Suite 2020-3.
 78 77  0  0  1  0            999 V2000
   -3.1820    3.2310  -12.1860 N   0  3  0  0  0  0
   -1.8630    3.8760  -12.0590 C   0  0  2  0  0  0
   -1.2750    3.5140  -10.7090 C   0  0  0  0  0  0
   -1.8260    3.9060   -9.6840 O   0  0  0  0  0  0
   -1.9150    5.4020  -12.2330 C   0  0  0  0  0  0
   -2.2660    5.8260  -13.6630 C   0  0  0  0  0  0
   -4.0160    5.6850  -14.1100 S   0  0  0  0  0  0
   -3.9800    6.4900  -15.7340 C   0  0  0  0  0  0
   -0.1870    2.7440  -10.6990 N   0  0  0  0  0  0
    0.4100    2.1860   -9.4800 C   0  0  2  0  0  0
    1.7530    2.8420   -9.1410 C   0  0  0  0  0  0
    2.5090    3.2580  -10.0200 O   0  0  0  0  0  0
    0.5590    0.6560   -9.5540 C   0  0  0  0  0  0
   -0.7570   -0.1000   -9.7960 C   0  0  0  0  0  0
   -1.0930   -0.1810  -11.2870 C   0  0  0  0  0  0
   -0.4520   -0.9890  -12.0080 O   0  5  0  0  0  0
   -1.9490    0.5920  -11.7710 O   0  0  0  0  0  0
    2.0600    2.9110   -7.8480 N   0  0  0  0  0  0
    3.2710    3.5110   -7.2940 C   0  0  2  0  0  0
    3.6280    2.7930   -5.9900 C   0  0  0  0  0  0
    2.9650    3.0100   -4.9760 O   0  0  0  0  0  0
    2.9920    4.9990   -7.0330 C   0  0  0  0  0  0
    4.1310    5.7590   -6.3370 C   0  0  0  0  0  0
    3.6760    7.1780   -5.9820 C   0  0  0  0  0  0
    2.8760    7.3430   -5.0330 O   0  0  0  0  0  0
    4.0920    8.1370   -6.6740 O   0  5  0  0  0  0
    4.7000    2.0000   -6.0060 N   0  0  0  0  0  0
    5.2790    1.2920   -4.8490 C   0  0  2  0  0  0
    4.3830    0.1950   -4.2410 C   0  0  0  0  0  0
    3.1840    0.3590   -4.0110 O   0  0  0  0  0  0
    5.8350    2.3110   -3.8320 C   0  0  0  0  0  0
    6.3210    1.6690   -2.5420 C   0  0  0  0  0  0
    7.0360    3.0540   -4.4310 C   0  0  0  0  0  0
    4.9730   -0.9770   -3.9970 N   0  0  0  0  0  0
    4.2980   -2.2510   -3.6980 C   0  0  2  0  0  0
    3.7800   -2.3640   -2.2600 C   0  0  0  0  0  0
    2.5520   -2.5700   -2.0960 O   0  5  0  0  0  0
    5.2310   -3.4220   -4.0770 C   0  0  0  0  0  0
    5.4840   -3.5550   -5.5870 C   0  0  0  0  0  0
    6.6700   -3.7030   -5.9980 O   0  5  0  0  0  0
    4.4920   -3.5610   -6.3600 O   0  0  0  0  0  0
    4.5850   -2.2590   -1.3080 O   0  0  0  0  0  0
   -3.0734    2.1447  -12.0514 H   0  0  0  0  0  0
   -3.5964    3.4373  -13.1838 H   0  0  0  0  0  0
   -3.8606    3.6297  -11.4175 H   0  0  0  0  0  0
   -1.2513    3.4706  -12.8785 H   0  0  0  0  0  0
   -2.6785    5.8218  -11.5616 H   0  0  0  0  0  0
   -0.9333    5.8328  -11.9867 H   0  0  0  0  0  0
   -1.9919    6.8811  -13.8103 H   0  0  0  0  0  0
   -1.7116    5.2000  -14.3776 H   0  0  0  0  0  0
   -4.9923    6.4928  -16.1644 H   0  0  0  0  0  0
   -3.2996    5.9401  -16.4008 H   0  0  0  0  0  0
   -3.6262    7.5255  -15.6221 H   0  0  0  0  0  0
    0.2657    2.5335  -11.6792 H   0  0  0  0  0  0
   -0.3216    2.4443   -8.7002 H   0  0  0  0  0  0
    1.2361    0.3931  -10.3801 H   0  0  0  0  0  0
    0.9740    0.2817   -8.6065 H   0  0  0  0  0  0
   -0.6692   -1.1238   -9.4034 H   0  0  0  0  0  0
   -1.5787    0.4205   -9.2823 H   0  0  0  0  0  0
    1.3101    2.4663   -7.1772 H   0  0  0  0  0  0
    4.0867    3.3886   -8.0218 H   0  0  0  0  0  0
    2.8090    5.5110   -7.9893 H   0  0  0  0  0  0
    2.1061    5.0984   -6.3885 H   0  0  0  0  0  0
    4.4156    5.2297   -5.4157 H   0  0  0  0  0  0
    4.9990    5.8158   -7.0103 H   0  0  0  0  0  0
    5.1595    1.8970   -7.0001 H   0  0  0  0  0  0
    6.1155    0.7186   -5.2750 H   0  0  0  0  0  0
    5.0015    2.9875   -3.5918 H   0  0  0  0  0  0
    5.4922    1.1205   -2.0705 H   0  0  0  0  0  0
    6.6806    2.4504   -1.8564 H   0  0  0  0  0  0
    7.1417    0.9717   -2.7660 H   0  0  0  0  0  0
    6.7353    3.5388   -5.3715 H   0  0  0  0  0  0
    7.8475    2.3386   -4.6303 H   0  0  0  0  0  0
    7.3864    3.8173   -3.7207 H   0  0  0  0  0  0
    6.0714   -0.9322   -4.0351 H   0  0  0  0  0  0
    3.3957   -2.2427   -4.3271 H   0  0  0  0  0  0
    6.2096   -3.2819   -3.5947 H   0  0  0  0  0  0
    4.7870   -4.3693   -3.7373 H   0  0  0  0  0  0
  1  2  1  0  0  0
  1 43  1  0  0  0
  1 44  1  0  0  0
  1 45  1  0  0  0
  2  3  1  0  0  0
  2  5  1  0  0  0
  2 46  1  0  0  0
  3  4  2  0  0  0
  3  9  1  0  0  0
  5  6  1  0  0  0
  5 47  1  0  0  0
  5 48  1  0  0  0
  6  7  1  0  0  0
  6 49  1  0  0  0
  6 50  1  0  0  0
  7  8  1  0  0  0
  8 51  1  0  0  0
  8 52  1  0  0  0
  8 53  1  0  0  0
  9 10  1  0  0  0
  9 54  1  0  0  0
 10 11  1  0  0  0
 10 13  1  0  0  0
 10 55  1  0  0  0
 11 12  2  0  0  0
 11 18  1  0  0  0
 13 14  1  0  0  0
 13 56  1  0  0  0
 13 57  1  0  0  0
 14 15  1  0  0  0
 14 58  1  0  0  0
 14 59  1  0  0  0
 15 16  1  0  0  0
 15 17  2  0  0  0
 18 19  1  0  0  0
 18 60  1  0  0  0
 19 20  1  0  0  0
 19 22  1  0  0  0
 19 61  1  0  0  0
 20 21  2  0  0  0
 20 27  1  0  0  0
 22 23  1  0  0  0
 22 62  1  0  0  0
 22 63  1  0  0  0
 23 24  1  0  0  0
 23 64  1  0  0  0
 23 65  1  0  0  0
 24 25  2  0  0  0
 24 26  1  0  0  0
 27 28  1  0  0  0
 27 66  1  0  0  0
 28 29  1  0  0  0
 28 31  1  0  0  0
 28 67  1  0  0  0
 29 30  2  0  0  0
 29 34  1  0  0  0
 31 32  1  0  0  0
 31 33  1  0  0  0
 31 68  1  0  0  0
 32 69  1  0  0  0
 32 70  1  0  0  0
 32 71  1  0  0  0
 33 72  1  0  0  0
 33 73  1  0  0  0
 33 74  1  0  0  0
 34 35  1  0  0  0
 34 75  1  0  0  0
 35 36  1  0  0  0
 35 38  1  0  0  0
 35 76  1  0  0  0
 36 37  1  0  0  0
 36 42  2  0  0  0
 38 39  1  0  0  0
 38 77  1  0  0  0
 38 78  1  0  0  0
 39 40  1  0  0  0
 39 41  2  0  0  0
M  CHG  5   1   1  16  -1  26  -1  37  -1  40  -1
M  END
> <s_m_source_file>
../2l6j_ligand.sdf

> <i_m_source_file_index>
1

> <s_epik_input>
W0NIM11TW0NIMl1bQ0gyXVtDQEhdKFtOSDMrXSlDKD1PKVtOSF1bQ0BASF0oW0NIMl1bQ0gyXUMoPU8pW09IXSlDKD1PKVtOSF1bQ0BASF0oW0NIMl1bQ0gyXUMoPU8pW09IXSlDKD1PKVtOSF1bQ0BASF0oW0NIXShbQ0gzXSlbQ0gzXSlDKD1PKVtOSF1bQ0BIXShDKD1PKVtPSF0pW0NIMl1DKD1PKVtPSF0=

> <s_epik_cmdline>
J2VwaWtfYXBwJywgJy1pbWFlJywgJ2xpZ2FuZF9wcm8ubWFlJywgJy1vbWFlJywgJ2xpZ2FuZF9wcmVwLm1hZScsICctbXMnLCAnMScsICctcGgnLCAnNycsICctcGh0JywgJzAuNScsICctbnQn

> <r_epik_Ionization_Penalty>
  0.1601

> <r_epik_Ionization_Penalty_Charging>
  0.1601

> <r_epik_Ionization_Penalty_Neutral>
  0.0000

> <r_epik_State_Penalty>
  0.1446

> <r_epik_Charging_Adjusted_Penalty>
0.304653182915441

> <i_epik_Tot_Q>
-3

> <i_epik_Tot_abs_Q>
5

$$$$
