2l75_ligand
                    3D
 Schrodinger Suite 2020-3.
193192  0  0  1  0            999 V2000
   -8.0380   10.2550   -4.9380 N   0  3  0  0  0  0
   -7.5050    9.1780   -4.0810 C   0  0  2  0  0  0
   -7.2130    9.7340   -2.6890 C   0  0  0  0  0  0
   -6.6080   10.7970   -2.5510 O   0  0  0  0  0  0
   -6.2670    8.5630   -4.7310 C   0  0  0  0  0  0
   -7.6780    9.0240   -1.6670 N   0  0  0  0  0  0
   -7.6420    9.5170   -0.2890 C   0  0  2  0  0  0
   -6.2900    9.2630    0.3660 C   0  0  0  0  0  0
   -5.5600    8.3770   -0.0480 O   0  0  0  0  0  0
   -8.7180    8.8110    0.5280 C   0  0  0  0  0  0
   -8.9760    9.4500    1.8830 C   0  0  0  0  0  0
   -9.9090    8.6100    2.7280 C   0  0  0  0  0  0
  -10.0230    9.1280    4.0930 N   0  0  0  0  0  0
  -10.6420    8.4900    5.0880 C   0  0  0  0  0  0
  -11.2640    7.3360    4.8610 N   0  0  0  0  0  0
  -10.6590    9.0180    6.3070 N   0  0  0  0  0  0
   -5.9770   10.0260    1.3990 N   0  0  0  0  0  0
   -4.7640    9.8160    2.1750 C   0  0  2  0  0  0
   -5.0060   10.0900    3.6630 C   0  0  0  0  0  0
   -5.7550   10.9990    4.0250 O   0  0  0  0  0  0
   -3.6250   10.7180    1.6690 C   0  0  2  0  0  0
   -4.1430   11.7460    0.8100 O   0  0  0  0  0  0
   -2.5720    9.9040    0.9390 C   0  0  0  0  0  0
   -4.4020    9.2740    4.5230 N   0  0  0  0  0  0
   -4.4300    9.5290    5.9600 C   0  0  2  0  0  0
   -3.0700   10.0120    6.4040 C   0  0  0  0  0  0
   -2.0890    9.8390    5.7010 O   0  0  0  0  0  0
   -4.8000    8.2730    6.7700 C   0  0  0  0  0  0
   -4.9910    8.5280    8.2600 C   0  0  0  0  0  0
   -5.7940    7.4260    8.9380 C   0  0  0  0  0  0
   -5.0760    6.0870    8.9210 C   0  0  0  0  0  0
   -5.8860    5.0200    9.5710 N   0  3  0  0  0  0
   -3.0300   10.6090    7.5660 N   0  0  0  0  0  0
   -1.7810   11.0050    8.1950 C   0  0  2  0  0  0
   -1.8840   10.7160    9.6830 C   0  0  0  0  0  0
   -2.7020   11.3130   10.3800 O   0  0  0  0  0  0
   -1.4650   12.4780    7.9530 C   0  0  0  0  0  0
   -1.1550   12.7860    6.4990 C   0  0  0  0  0  0
   -0.2290   13.9720    6.3310 C   0  0  0  0  0  0
   -0.2340   14.9010    7.1380 O   0  0  0  0  0  0
    0.5780   13.9400    5.2830 N   0  0  0  0  0  0
   -1.0860    9.7810   10.1640 N   0  0  0  0  0  0
   -1.2670    9.2730   11.5120 C   0  0  2  0  0  0
    0.0410    9.2900   12.3270 C   0  0  0  0  0  0
    0.4140   10.3310   12.8710 O   0  0  0  0  0  0
   -1.9180    7.8610   11.4630 C   0  0  2  0  0  0
   -1.7780    7.1660   12.7080 O   0  0  0  0  0  0
   -1.3460    7.0300   10.3240 C   0  0  0  0  0  0
    0.7500    8.1700   12.3870 N   0  0  0  0  0  0
    1.9570    8.0760   13.1960 C   0  0  2  0  0  0
    3.1360    7.5680   12.3790 C   0  0  0  0  0  0
    3.5030    6.3960   12.4560 O   0  0  0  0  0  0
    1.7190    7.1680   14.3910 C   0  0  0  0  0  0
    3.7260    8.4470   11.5900 N   0  0  0  0  0  0
    4.8960    8.0860   10.8110 C   0  0  2  0  0  0
    6.1350    8.1520   11.6960 C   0  0  0  0  0  0
    6.1920    8.9350   12.6510 O   0  0  0  0  0  0
    5.0540    8.9580    9.5480 C   0  0  0  0  0  0
    4.9430   10.4400    9.7800 C   0  0  0  0  0  0
    3.4950   10.8740    9.8860 C   0  0  0  0  0  0
    3.3540   12.3250    9.7860 N   0  0  0  0  0  0
    2.6690   13.0850   10.6430 C   0  0  0  0  0  0
    2.0980   12.5450   11.7170 N   0  0  0  0  0  0
    2.5630   14.3880   10.4270 N   0  0  0  0  0  0
    7.1170    7.3370   11.3570 N   0  0  0  0  0  0
    8.2650    7.0630   12.2170 C   0  0  1  0  0  0
    8.8800    5.7150   11.8210 C   0  0  0  0  0  0
    8.0990    4.5020   12.3150 C   0  0  0  0  0  0
    8.2590    3.3190   11.3730 C   0  0  0  0  0  0
    8.2180    1.9810   12.1030 C   0  0  0  0  0  0
    6.9710    1.7490   12.8480 N   0  3  0  0  0  0
    9.3200    8.1680   12.1510 C   0  0  0  0  0  0
   10.4970    7.9090   11.8870 O   0  0  0  0  0  0
    5.8280    1.7690   11.9130 C   0  0  0  0  0  0
    6.7930    2.8010   13.8750 C   0  0  0  0  0  0
    7.0440    0.4290   13.5020 C   0  0  0  0  0  0
    8.8950    9.3950   12.3930 N   0  0  0  0  0  0
    9.8140   10.5130   12.4940 C   0  0  2  0  0  0
   10.3260   10.6230   13.9250 C   0  0  0  0  0  0
   11.4900   10.9500   14.1640 O   0  0  0  0  0  0
    9.1160   11.8080   12.0730 C   0  0  0  0  0  0
    8.5470   11.6780   10.7790 O   0  0  0  0  0  0
    9.4450   10.3290   14.8690 N   0  0  0  0  0  0
    9.7880   10.3270   16.2790 C   0  0  2  0  0  0
    9.7970    8.9000   16.8180 C   0  0  0  0  0  0
    8.8045    8.1428   16.6471 O   0  0  0  0  0  0
    8.7900   11.1840   17.0790 C   0  0  2  0  0  0
    7.4570   10.9470   16.6000 O   0  0  0  0  0  0
    9.1270   12.6630   16.9590 C   0  0  0  0  0  0
   10.8067    8.4744   17.4401 O   0  0  0  0  0  0
   -8.9288   10.6934   -4.4645 H   0  0  0  0  0  0
   -8.3109    9.8411   -5.9199 H   0  0  0  0  0  0
   -7.2715   11.0332   -5.0682 H   0  0  0  0  0  0
   -8.2722    8.3947   -3.9925 H   0  0  0  0  0  0
   -6.5289    8.1785   -5.7278 H   0  0  0  0  0  0
   -5.8962    7.7377   -4.1055 H   0  0  0  0  0  0
   -5.4844    9.3300   -4.8278 H   0  0  0  0  0  0
   -8.1012    8.0325   -1.8855 H   0  0  0  0  0  0
   -7.8209   10.6001   -0.3591 H   0  0  0  0  0  0
   -9.6679    8.8255   -0.0265 H   0  0  0  0  0  0
   -8.4156    7.7692    0.7101 H   0  0  0  0  0  0
   -8.0243    9.5609    2.4233 H   0  0  0  0  0  0
   -9.4341   10.4398    1.7404 H   0  0  0  0  0  0
  -10.9115    8.6075    2.2752 H   0  0  0  0  0  0
   -9.5280    7.5794    2.7809 H   0  0  0  0  0  0
   -9.5819   10.1023    4.3502 H   0  0  0  0  0  0
  -11.2532    6.8942    3.8537 H   0  0  0  0  0  0
  -11.7891    6.8237    5.6806 H   0  0  0  0  0  0
  -10.1464    9.9719    6.5004 H   0  0  0  0  0  0
   -6.6666   10.8403    1.6660 H   0  0  0  0  0  0
   -4.5220    8.7546    2.0172 H   0  0  0  0  0  0
   -3.1565   11.2517    2.5091 H   0  0  0  0  0  0
   -4.9189   12.4324    1.1798 H   0  0  0  0  0  0
   -2.1846    9.1215    1.6080 H   0  0  0  0  0  0
   -1.7476   10.5636    0.6302 H   0  0  0  0  0  0
   -3.0208    9.4371    0.0498 H   0  0  0  0  0  0
   -3.8739    8.3923    4.1311 H   0  0  0  0  0  0
   -5.1979   10.3044    6.0980 H   0  0  0  0  0  0
   -5.7440    7.8561    6.3892 H   0  0  0  0  0  0
   -4.0012    7.5234    6.6696 H   0  0  0  0  0  0
   -4.0084    8.5842    8.7513 H   0  0  0  0  0  0
   -5.5276    9.4774    8.4037 H   0  0  0  0  0  0
   -5.9768    7.6985    9.9879 H   0  0  0  0  0  0
   -6.7557    7.3007    8.4190 H   0  0  0  0  0  0
   -4.8813    5.7886    7.8803 H   0  0  0  0  0  0
   -4.1221    6.1755    9.4616 H   0  0  0  0  0  0
   -5.3337    4.0693    9.5385 H   0  0  0  0  0  0
   -6.8409    4.9078    9.0367 H   0  0  0  0  0  0
   -6.0818    5.2948   10.6180 H   0  0  0  0  0  0
   -3.9872   10.8098    8.0694 H   0  0  0  0  0  0
   -0.9899   10.4032    7.7238 H   0  0  0  0  0  0
   -2.3290   13.0916    8.2480 H   0  0  0  0  0  0
   -0.5882   12.7679    8.5506 H   0  0  0  0  0  0
   -0.6699   11.9146    6.0350 H   0  0  0  0  0  0
   -2.0895   13.0130    5.9650 H   0  0  0  0  0  0
    0.5451   13.0869    4.5893 H   0  0  0  0  0  0
    1.2818   14.7665    5.1054 H   0  0  0  0  0  0
   -0.2770    9.3866    9.5316 H   0  0  0  0  0  0
   -1.9488    9.9947   11.9855 H   0  0  0  0  0  0
   -3.0072    7.9521   11.3391 H   0  0  0  0  0  0
   -2.1410    7.6264   13.6387 H   0  0  0  0  0  0
   -1.4614    7.5774    9.3769 H   0  0  0  0  0  0
   -1.8844    6.0728   10.2622 H   0  0  0  0  0  0
   -0.2787    6.8391   10.5095 H   0  0  0  0  0  0
    0.4071    7.3001   11.8076 H   0  0  0  0  0  0
    2.1637    9.1032   13.5309 H   0  0  0  0  0  0
    0.8653    7.5448   14.9735 H   0  0  0  0  0  0
    2.6177    7.1534   15.0251 H   0  0  0  0  0  0
    1.5017    6.1486   14.0394 H   0  0  0  0  0  0
    3.3174    9.4664   11.5285 H   0  0  0  0  0  0
    4.7148    7.0493   10.4910 H   0  0  0  0  0  0
    6.0444    8.7824    9.1028 H   0  0  0  0  0  0
    4.2727    8.6940    8.8200 H   0  0  0  0  0  0
    5.4568   10.7041   10.7161 H   0  0  0  0  0  0
    5.4090   10.9783    8.9416 H   0  0  0  0  0  0
    2.9139   10.4140    9.0731 H   0  0  0  0  0  0
    3.0862   10.5536   10.8557 H   0  0  0  0  0  0
    3.8326   12.8683    8.9579 H   0  0  0  0  0  0
    2.1834   11.4637   11.9003 H   0  0  0  0  0  0
    1.5406   13.1799   12.4214 H   0  0  0  0  0  0
    3.0333   14.8386    9.5406 H   0  0  0  0  0  0
    7.0402    6.8540   10.3717 H   0  0  0  0  0  0
    7.8611    7.0390   13.2399 H   0  0  0  0  0  0
    8.9291    5.6424   10.7245 H   0  0  0  0  0  0
    9.8944    5.6377   12.2393 H   0  0  0  0  0  0
    8.4670    4.2091   13.3094 H   0  0  0  0  0  0
    7.0305    4.7552   12.3795 H   0  0  0  0  0  0
    7.4445    3.3263   10.6337 H   0  0  0  0  0  0
    9.2261    3.3918   10.8539 H   0  0  0  0  0  0
    8.3203    1.1628   11.3749 H   0  0  0  0  0  0
    9.0446    1.9329   12.8271 H   0  0  0  0  0  0
    5.7715    2.7527   11.4240 H   0  0  0  0  0  0
    4.8970    1.5814   12.4680 H   0  0  0  0  0  0
    5.9642    0.9878   11.1507 H   0  0  0  0  0  0
    6.7387    3.7850   13.3863 H   0  0  0  0  0  0
    7.6457    2.7832   14.5697 H   0  0  0  0  0  0
    5.8625    2.6162   14.4317 H   0  0  0  0  0  0
    7.1762   -0.3517   12.7384 H   0  0  0  0  0  0
    6.1135    0.2437   14.0586 H   0  0  0  0  0  0
    7.8967    0.4106   14.1967 H   0  0  0  0  0  0
    7.8145    9.5581   12.5189 H   0  0  0  0  0  0
   10.6469   10.2967   11.8088 H   0  0  0  0  0  0
    8.3153   12.0427   12.7898 H   0  0  0  0  0  0
    9.8467   12.6301   12.0574 H   0  0  0  0  0  0
    8.0070   12.5237   10.3281 H   0  0  0  0  0  0
    8.4216   10.0801   14.5516 H   0  0  0  0  0  0
   10.7986   10.7580   16.3329 H   0  0  0  0  0  0
    8.7885   10.8921   18.1396 H   0  0  0  0  0  0
    7.0415    9.9286   16.6112 H   0  0  0  0  0  0
   10.1487   12.8373   17.3274 H   0  0  0  0  0  0
    8.4159   13.2508   17.5580 H   0  0  0  0  0  0
    9.0599   12.9700   15.9048 H   0  0  0  0  0  0
   10.8188    7.4463   17.8310 H   0  0  0  0  0  0
  1  2  1  0  0  0
  1 91  1  0  0  0
  1 92  1  0  0  0
  1 93  1  0  0  0
  2  3  1  0  0  0
  2  5  1  0  0  0
  2 94  1  0  0  0
  3  4  2  0  0  0
  3  6  1  0  0  0
  5 95  1  0  0  0
  5 96  1  0  0  0
  5 97  1  0  0  0
  6  7  1  0  0  0
  6 98  1  0  0  0
  7  8  1  0  0  0
  7 10  1  0  0  0
  7 99  1  0  0  0
  8  9  2  0  0  0
  8 17  1  0  0  0
 10 11  1  0  0  0
 10100  1  0  0  0
 10101  1  0  0  0
 11 12  1  0  0  0
 11102  1  0  0  0
 11103  1  0  0  0
 12 13  1  0  0  0
 12104  1  0  0  0
 12105  1  0  0  0
 13 14  1  0  0  0
 13106  1  0  0  0
 14 15  1  0  0  0
 14 16  2  0  0  0
 15107  1  0  0  0
 15108  1  0  0  0
 16109  1  0  0  0
 17 18  1  0  0  0
 17110  1  0  0  0
 18 19  1  0  0  0
 18 21  1  0  0  0
 18111  1  0  0  0
 19 20  2  0  0  0
 19 24  1  0  0  0
 21 22  1  0  0  0
 21 23  1  0  0  0
 21112  1  0  0  0
 22113  1  0  0  0
 23114  1  0  0  0
 23115  1  0  0  0
 23116  1  0  0  0
 24 25  1  0  0  0
 24117  1  0  0  0
 25 26  1  0  0  0
 25 28  1  0  0  0
 25118  1  0  0  0
 26 27  2  0  0  0
 26 33  1  0  0  0
 28 29  1  0  0  0
 28119  1  0  0  0
 28120  1  0  0  0
 29 30  1  0  0  0
 29121  1  0  0  0
 29122  1  0  0  0
 30 31  1  0  0  0
 30123  1  0  0  0
 30124  1  0  0  0
 31 32  1  0  0  0
 31125  1  0  0  0
 31126  1  0  0  0
 32127  1  0  0  0
 32128  1  0  0  0
 32129  1  0  0  0
 33 34  1  0  0  0
 33130  1  0  0  0
 34 35  1  0  0  0
 34 37  1  0  0  0
 34131  1  0  0  0
 35 36  2  0  0  0
 35 42  1  0  0  0
 37 38  1  0  0  0
 37132  1  0  0  0
 37133  1  0  0  0
 38 39  1  0  0  0
 38134  1  0  0  0
 38135  1  0  0  0
 39 40  2  0  0  0
 39 41  1  0  0  0
 41136  1  0  0  0
 41137  1  0  0  0
 42 43  1  0  0  0
 42138  1  0  0  0
 43 44  1  0  0  0
 43 46  1  0  0  0
 43139  1  0  0  0
 44 45  2  0  0  0
 44 49  1  0  0  0
 46 47  1  0  0  0
 46 48  1  0  0  0
 46140  1  0  0  0
 47141  1  0  0  0
 48142  1  0  0  0
 48143  1  0  0  0
 48144  1  0  0  0
 49 50  1  0  0  0
 49145  1  0  0  0
 50 51  1  0  0  0
 50 53  1  0  0  0
 50146  1  0  0  0
 51 52  2  0  0  0
 51 54  1  0  0  0
 53147  1  0  0  0
 53148  1  0  0  0
 53149  1  0  0  0
 54 55  1  0  0  0
 54150  1  0  0  0
 55 56  1  0  0  0
 55 58  1  0  0  0
 55151  1  0  0  0
 56 57  2  0  0  0
 56 65  1  0  0  0
 58 59  1  0  0  0
 58152  1  0  0  0
 58153  1  0  0  0
 59 60  1  0  0  0
 59154  1  0  0  0
 59155  1  0  0  0
 60 61  1  0  0  0
 60156  1  0  0  0
 60157  1  0  0  0
 61 62  1  0  0  0
 61158  1  0  0  0
 62 63  1  0  0  0
 62 64  2  0  0  0
 63159  1  0  0  0
 63160  1  0  0  0
 64161  1  0  0  0
 65 66  1  0  0  0
 65162  1  0  0  0
 66 67  1  0  0  0
 66 72  1  0  0  0
 66163  1  0  0  0
 67 68  1  0  0  0
 67164  1  0  0  0
 67165  1  0  0  0
 68 69  1  0  0  0
 68166  1  0  0  0
 68167  1  0  0  0
 69 70  1  0  0  0
 69168  1  0  0  0
 69169  1  0  0  0
 70 71  1  0  0  0
 70170  1  0  0  0
 70171  1  0  0  0
 71 74  1  0  0  0
 71 75  1  0  0  0
 71 76  1  0  0  0
 72 73  2  0  0  0
 72 77  1  0  0  0
 74172  1  0  0  0
 74173  1  0  0  0
 74174  1  0  0  0
 75175  1  0  0  0
 75176  1  0  0  0
 75177  1  0  0  0
 76178  1  0  0  0
 76179  1  0  0  0
 76180  1  0  0  0
 77 78  1  0  0  0
 77181  1  0  0  0
 78 79  1  0  0  0
 78 81  1  0  0  0
 78182  1  0  0  0
 79 80  2  0  0  0
 79 83  1  0  0  0
 81 82  1  0  0  0
 81183  1  0  0  0
 81184  1  0  0  0
 82185  1  0  0  0
 83 84  1  0  0  0
 83186  1  0  0  0
 84 85  1  0  0  0
 84 87  1  0  0  0
 84187  1  0  0  0
 85 86  2  0  0  0
 85 90  1  0  0  0
 87 88  1  0  0  0
 87 89  1  0  0  0
 87188  1  0  0  0
 88189  1  0  0  0
 89190  1  0  0  0
 89191  1  0  0  0
 89192  1  0  0  0
 90193  1  0  0  0
M  CHG  3   1   1  32   1  71   1
M  END
> <s_m_source_file>
../2l75_ligand.sdf

> <i_m_source_file_index>
1

> <s_epik_input>
W0hdL049QyhbTkgyXSlcW05IXVtDSDJdW0NIMl1bQ0gyXVtDQEhdKFtOSF1DKD1PKVtDQEBIXShbTkgzK10pW0NIM10pQyg9TylbTkhdW0NAQEhdKFtDQEhdKFtPSF0pW0NIM10pQyg9TylbTkhdW0NAQEhdKFtDSDJdW0NIMl1bQ0gyXVtDSDJdW05IMytdKUMoPU8pW05IXVtDQEBIXShbQ0gyXVtDSDJdQyg9TylbTkgyXSlDKD1PKVtOSF1bQ0BASF0oW0NASF0oW09IXSlbQ0gzXSlDKD1PKVtOSF1bQ0BASF0oW0NIM10pQyg9TylbTkhdW0NAQEhdKFtDSDJdW0NIMl1bQ0gyXVtOSF0vQyhbTkgyXSk9TlxbSF0pQyg9TylbTkhdW0NAQEhdKFtDSDJdW0NIMl1bQ0gyXVtDSDJdW04rXShbQ0gzXSkoW0NIM10pW0NIM10pQyg9TylbTkhdW0NAQEhdKFtDSDJdW09IXSlDKD1PKVtOSF1bQ0BIXShDKD1PKVtPSF0pW0NASF0oW09IXSlbQ0gzXQ==

> <s_epik_cmdline>
J2VwaWtfYXBwJywgJy1pbWFlJywgJ2xpZ2FuZF9wcm8ubWFlJywgJy1vbWFlJywgJ2xpZ2FuZF9wcmVwLm1hZScsICctbXMnLCAnMScsICctcGgnLCAnNycsICctcGh0JywgJzAuNScsICctbnQn

> <s_epik_pKa_notes>
Molecule size exceeds maximum supported for generating protonation states

> <s_epik_Chemistry_Notes>
This compound has an imine and may undergo hydrolysis.

$$$$
