2l7u_ligand
                    3D
 Schrodinger Suite 2020-3.
117117  0  0  1  0            999 V2000
   11.3440  -10.6260   -6.6430 N   0  3  0  0  0  0
   10.1920  -11.5090   -6.7850 C   0  0  2  0  0  0
    8.9190  -10.8260   -6.2920 C   0  0  0  0  0  0
    7.9230  -10.7560   -7.0100 O   0  0  0  0  0  0
   10.4200  -12.8090   -6.0120 C   0  0  0  0  0  0
    9.2610  -13.7760   -6.1500 C   0  0  0  0  0  0
    8.2820  -13.6420   -5.3870 O   0  0  0  0  0  0
    9.3310  -14.6670   -7.0230 O   0  5  0  0  0  0
    8.9630  -10.3250   -5.0630 N   0  0  0  0  0  0
    7.8120   -9.6480   -4.4720 C   0  0  2  0  0  0
    8.1830   -8.2400   -4.0190 C   0  0  0  0  0  0
    8.2090   -7.9460   -2.8240 O   0  0  0  0  0  0
    7.2730  -10.4520   -3.2870 C   0  0  0  0  0  0
    8.3600  -11.0030   -2.3790 C   0  0  0  0  0  0
    8.5070  -12.5080   -2.4880 C   0  0  0  0  0  0
    7.4700  -13.2050   -2.4850 O   0  5  0  0  0  0
    9.6550  -12.9880   -2.5770 O   0  0  0  0  0  0
    8.4660   -7.3700   -4.9840 N   0  0  0  0  0  0
    8.8370   -5.9910   -4.6860 C   0  0  2  0  0  0
   10.0980   -5.9410   -3.8280 C   0  0  0  0  0  0
   10.7340   -6.9300   -3.7120 O   0  0  0  0  0  0
    7.6890   -5.2780   -3.9680 C   0  0  0  0  0  0
    7.1640   -4.0860   -4.7160 C   0  0  0  0  0  0
    8.0260   -3.0970   -5.1640 C   0  0  0  0  0  0
    5.8090   -3.9530   -4.9700 C   0  0  0  0  0  0
    7.5460   -1.9990   -5.8520 C   0  0  0  0  0  0
    5.3230   -2.8570   -5.6580 C   0  0  0  0  0  0
    6.1920   -1.8790   -6.0990 C   0  0  0  0  0  0
   10.3660   -4.8350   -3.3080 N   0  0  0  0  0  0
   11.5380   -4.6230   -2.4670 C   0  0  1  0  0  0
   11.4030   -3.2900   -1.7000 C   0  0  0  0  0  0
   11.6920   -2.1100   -2.6530 C   0  0  0  0  0  0
   13.1370   -1.6140   -2.4430 C   0  0  0  0  0  0
   13.3750   -0.3470   -3.2910 C   0  0  0  0  0  0
   12.7560    0.8130   -2.6360 N   0  3  0  0  0  0
   12.7870    2.0050   -3.5770 C   0  0  2  0  0  0
   14.2150    2.5770   -3.6360 C   0  0  0  0  0  0
   11.7990    3.1270   -3.2080 C   0  0  0  0  0  0
   11.1270    3.6320   -4.4500 O   0  5  0  0  0  0
   11.5877    3.5550   -2.0419 O   0  0  0  0  0  0
   11.6110   -5.7490   -1.4980 C   0  0  0  0  0  0
   12.6380   -6.4200   -1.3770 O   0  0  0  0  0  0
   10.5110   -5.9750   -0.7870 N   0  0  0  0  0  0
   10.4460   -7.0480    0.1970 C   0  0  2  0  0  0
   10.8570   -8.3820   -0.4160 C   0  0  0  0  0  0
   10.6990   -8.5990   -1.6180 O   0  0  0  0  0  0
    9.0440   -7.1430    0.7810 C   0  0  0  0  0  0
   11.3860   -9.2720    0.4160 N   0  0  0  0  0  0
   11.8200  -10.5860   -0.0450 C   0  0  2  0  0  0
   12.2180  -11.4720    1.1330 C   0  0  0  0  0  0
   13.1740  -11.1740    1.8480 O   0  0  0  0  0  0
   12.9950  -10.4470   -1.0140 C   0  0  0  0  0  0
   13.4210  -11.7790   -1.6030 C   0  0  0  0  0  0
   14.2230  -12.4830   -0.9560 O   0  0  0  0  0  0
   12.9510  -12.1160   -2.7100 O   0  5  0  0  0  0
   11.4770  -12.5580    1.3260 N   0  0  0  0  0  0
   11.7520  -13.4850    2.4180 C   0  0  2  0  0  0
   12.1390  -14.8590    1.8810 C   0  0  0  0  0  0
   12.9290  -14.9710    0.9450 O   0  0  0  0  0  0
   10.5310  -13.6070    3.3320 C   0  0  0  0  0  0
    9.2860  -14.1100    2.6210 C   0  0  0  0  0  0
    9.2400  -15.6220    2.5270 C   0  0  0  0  0  0
    9.5210  -16.2890    3.5460 O   0  5  0  0  0  0
    8.9230  -16.1410    1.4360 O   0  0  0  0  0  0
   11.6429  -15.8929    2.4031 O   0  5  0  0  0  0
   11.1650   -9.6967   -7.2037 H   0  0  0  0  0  0
   12.2403  -11.1261   -7.0386 H   0  0  0  0  0  0
   11.4955  -10.3892   -5.5795 H   0  0  0  0  0  0
   10.1101  -11.7126   -7.8629 H   0  0  0  0  0  0
   11.3243  -13.3073   -6.3913 H   0  0  0  0  0  0
   10.5472  -12.5825   -4.9431 H   0  0  0  0  0  0
    9.8947  -10.4295   -4.4877 H   0  0  0  0  0  0
    7.0601   -9.5922   -5.2729 H   0  0  0  0  0  0
    6.6264   -9.8092   -2.6716 H   0  0  0  0  0  0
    6.6914  -11.3083   -3.6591 H   0  0  0  0  0  0
    9.3260  -10.5501   -2.6469 H   0  0  0  0  0  0
    8.1202  -10.7631   -1.3326 H   0  0  0  0  0  0
    8.4150   -7.7125   -6.0281 H   0  0  0  0  0  0
    9.0338   -5.5211   -5.6609 H   0  0  0  0  0  0
    6.8508   -5.9773   -3.8323 H   0  0  0  0  0  0
    8.0344   -4.9245   -2.9853 H   0  0  0  0  0  0
    9.0951   -3.1866   -4.9712 H   0  0  0  0  0  0
    5.1179   -4.7214   -4.6234 H   0  0  0  0  0  0
    8.2346   -1.2287   -6.1993 H   0  0  0  0  0  0
    4.2544   -2.7649   -5.8522 H   0  0  0  0  0  0
    5.8105   -1.0137   -6.6411 H   0  0  0  0  0  0
    9.6746   -4.0031   -3.5076 H   0  0  0  0  0  0
   12.4284   -4.6194   -3.1128 H   0  0  0  0  0  0
   10.3811   -3.1969   -1.3037 H   0  0  0  0  0  0
   12.1221   -3.2713   -0.8678 H   0  0  0  0  0  0
   11.5679   -2.4411   -3.6946 H   0  0  0  0  0  0
   10.9906   -1.2890   -2.4432 H   0  0  0  0  0  0
   13.2928   -1.3780   -1.3800 H   0  0  0  0  0  0
   13.8427   -2.3993   -2.7515 H   0  0  0  0  0  0
   14.4562   -0.1726   -3.3942 H   0  0  0  0  0  0
   12.9289   -0.4834   -4.2872 H   0  0  0  0  0  0
   11.7128    0.5760   -2.3800 H   0  0  0  0  0  0
   13.3124    1.0564   -1.7188 H   0  0  0  0  0  0
   12.4676    1.6130   -4.5539 H   0  0  0  0  0  0
   14.9205    1.7753   -3.8996 H   0  0  0  0  0  0
   14.4838    2.9939   -2.6542 H   0  0  0  0  0  0
   14.2610    3.3706   -4.3964 H   0  0  0  0  0  0
    9.6364   -5.3294   -0.9554 H   0  0  0  0  0  0
   11.1644   -6.7718    0.9829 H   0  0  0  0  0  0
    8.7627   -6.1738    1.2188 H   0  0  0  0  0  0
    9.0237   -7.9177    1.5617 H   0  0  0  0  0  0
    8.3322   -7.4061   -0.0153 H   0  0  0  0  0  0
   11.4934   -8.9978    1.4759 H   0  0  0  0  0  0
   10.9487  -11.0197   -0.5575 H   0  0  0  0  0  0
   12.7090   -9.7848   -1.8445 H   0  0  0  0  0  0
   13.8586  -10.0186   -0.4841 H   0  0  0  0  0  0
   10.6398  -12.7504    0.6389 H   0  0  0  0  0  0
   12.6009  -13.0494    2.9653 H   0  0  0  0  0  0
   10.7516  -14.3129    4.1463 H   0  0  0  0  0  0
   10.2907  -12.6211    3.7565 H   0  0  0  0  0  0
    8.3917  -13.7781    3.1687 H   0  0  0  0  0  0
    9.2599  -13.7069    1.5979 H   0  0  0  0  0  0
  1  2  1  0  0  0
  1 66  1  0  0  0
  1 67  1  0  0  0
  1 68  1  0  0  0
  2  3  1  0  0  0
  2  5  1  0  0  0
  2 69  1  0  0  0
  3  4  2  0  0  0
  3  9  1  0  0  0
  5  6  1  0  0  0
  5 70  1  0  0  0
  5 71  1  0  0  0
  6  7  2  0  0  0
  6  8  1  0  0  0
  9 10  1  0  0  0
  9 72  1  0  0  0
 10 11  1  0  0  0
 10 13  1  0  0  0
 10 73  1  0  0  0
 11 12  2  0  0  0
 11 18  1  0  0  0
 13 14  1  0  0  0
 13 74  1  0  0  0
 13 75  1  0  0  0
 14 15  1  0  0  0
 14 76  1  0  0  0
 14 77  1  0  0  0
 15 16  1  0  0  0
 15 17  2  0  0  0
 18 19  1  0  0  0
 18 78  1  0  0  0
 19 20  1  0  0  0
 19 22  1  0  0  0
 19 79  1  0  0  0
 20 21  2  0  0  0
 20 29  1  0  0  0
 22 23  1  0  0  0
 22 80  1  0  0  0
 22 81  1  0  0  0
 23 24  2  0  0  0
 23 25  1  0  0  0
 24 26  1  0  0  0
 24 82  1  0  0  0
 25 27  2  0  0  0
 25 83  1  0  0  0
 26 28  2  0  0  0
 26 84  1  0  0  0
 27 28  1  0  0  0
 27 85  1  0  0  0
 28 86  1  0  0  0
 29 30  1  0  0  0
 29 87  1  0  0  0
 30 31  1  0  0  0
 30 41  1  0  0  0
 30 88  1  0  0  0
 31 32  1  0  0  0
 31 89  1  0  0  0
 31 90  1  0  0  0
 32 33  1  0  0  0
 32 91  1  0  0  0
 32 92  1  0  0  0
 33 34  1  0  0  0
 33 93  1  0  0  0
 33 94  1  0  0  0
 34 35  1  0  0  0
 34 95  1  0  0  0
 34 96  1  0  0  0
 35 36  1  0  0  0
 35 97  1  0  0  0
 35 98  1  0  0  0
 36 37  1  0  0  0
 36 38  1  0  0  0
 36 99  1  0  0  0
 37100  1  0  0  0
 37101  1  0  0  0
 37102  1  0  0  0
 38 39  1  0  0  0
 38 40  2  0  0  0
 41 42  2  0  0  0
 41 43  1  0  0  0
 43 44  1  0  0  0
 43103  1  0  0  0
 44 45  1  0  0  0
 44 47  1  0  0  0
 44104  1  0  0  0
 45 46  2  0  0  0
 45 48  1  0  0  0
 47105  1  0  0  0
 47106  1  0  0  0
 47107  1  0  0  0
 48 49  1  0  0  0
 48108  1  0  0  0
 49 50  1  0  0  0
 49 52  1  0  0  0
 49109  1  0  0  0
 50 51  2  0  0  0
 50 56  1  0  0  0
 52 53  1  0  0  0
 52110  1  0  0  0
 52111  1  0  0  0
 53 54  2  0  0  0
 53 55  1  0  0  0
 56 57  1  0  0  0
 56112  1  0  0  0
 57 58  1  0  0  0
 57 60  1  0  0  0
 57113  1  0  0  0
 58 59  2  0  0  0
 58 65  1  0  0  0
 60 61  1  0  0  0
 60114  1  0  0  0
 60115  1  0  0  0
 61 62  1  0  0  0
 61116  1  0  0  0
 61117  1  0  0  0
 62 63  1  0  0  0
 62 64  2  0  0  0
M  CHG  8   1   1   8  -1  16  -1  35   1  39  -1  55  -1  63  -1  65  -1
M  END
> <s_m_source_file>
../2l7u_ligand.sdf

> <i_m_source_file_index>
1

> <s_epik_input>
Tz1DKFtPSF0pW0NIMl1bQ0BIXShbTkgzK10pQyg9TylbTkhdW0NAQEhdKFtDSDJdW0NIMl1DKD1PKVtPSF0pQyg9TylbTkhdW0NAQEhdKFtDSDJdYzFbY0hdW2NIXVtjSF1bY0hdW2NIXTEpQyg9TylbTkhdW0NAQEhdKFtDSDJdW0NIMl1bQ0gyXVtDSDJdW05IMitdW0NASF0oW0NIM10pQyg9TylbT0hdKUMoPU8pW05IXVtDQEBIXShbQ0gzXSlDKD1PKVtOSF1bQ0BASF0oW0NIMl1DKD1PKVtPSF0pQyg9TylbTkhdW0NASF0oQyg9TylbT0hdKVtDSDJdW0NIMl1DKD1PKVtPSF0=

> <s_epik_cmdline>
J2VwaWtfYXBwJywgJy1pbWFlJywgJ2xpZ2FuZF9wcm8ubWFlJywgJy1vbWFlJywgJ2xpZ2FuZF9wcmVwLm1hZScsICctbXMnLCAnMScsICctcGgnLCAnNycsICctcGh0JywgJzAuNScsICctbnQn

> <r_lp_tautomer_probability>
1

> <r_epik_Ionization_Penalty>
  0.0271

> <r_epik_Ionization_Penalty_Charging>
  0.0271

> <r_epik_Ionization_Penalty_Neutral>
  0.0000

> <r_epik_State_Penalty>
 -0.0000

> <r_epik_Charging_Adjusted_Penalty>
0.0270676670288734

> <i_epik_Tot_Q>
-4

> <i_epik_Tot_abs_Q>
8

$$$$
