2l84_ligand
                    3D
 Schrodinger Suite 2020-3.
 39 40  0  0  1  0            999 V2000
   14.9420   -1.9690    9.4200 S   0  0  0  0  0  0
   14.3590    0.0020    4.7730 N   0  0  0  0  0  0
   15.3710   -0.5990    4.4250 N   0  0  0  0  0  0
   15.8020   -0.4840    3.1750 C   0  0  0  0  0  0
   13.9100   -0.0980    6.0170 C   0  0  0  0  0  0
   17.1500   -0.1360   -0.7210 O   0  0  0  0  0  0
   12.9540   -0.2870    8.6110 C   0  0  0  0  0  0
   17.6050   -1.9000    3.6220 N   0  0  0  0  0  0
   14.7810    1.3070   -0.0330 C   0  0  0  0  0  0
   12.4130   -0.3770   10.0400 C   0  0  0  0  0  0
   12.0370    1.4580    5.3830 C   0  0  0  0  0  0
   14.0580   -2.9740    9.9220 O   0  0  0  0  0  0
   16.6990   -0.2480    0.5670 C   0  0  0  0  0  0
   16.1200   -2.6240    8.7600 O   0  5  0  0  0  0
   15.4190   -1.1090   10.5530 O   0  0  0  0  0  0
   16.9410   -1.1500    2.7570 C   0  0  0  0  0  0
   15.1170    0.3040    2.2600 C   0  0  0  0  0  0
   17.3910   -1.0360    1.4600 C   0  0  0  0  0  0
   15.5580    0.4270    0.9610 C   0  0  0  0  0  0
   14.5680   -0.8790    6.9530 C   0  0  0  0  0  0
   12.7710    0.5850    6.4020 C   0  0  0  0  0  0
   14.0960   -0.9780    8.2500 C   0  0  0  0  0  0
   12.2930    0.4930    7.6900 C   0  0  0  0  0  0
   18.0575   -0.6728   -1.0346 H   0  0  0  0  0  0
   17.2473   -1.9923    4.6581 H   0  0  0  0  0  0
   18.5146   -2.4311    3.3048 H   0  0  0  0  0  0
   15.2804    1.2822   -1.0128 H   0  0  0  0  0  0
   14.7528    2.3421    0.3381 H   0  0  0  0  0  0
   13.7542    0.9260   -0.1351 H   0  0  0  0  0  0
   13.0595   -1.0381   10.6358 H   0  0  0  0  0  0
   11.3912   -0.7839   10.0203 H   0  0  0  0  0  0
   12.3996    0.6263   10.4908 H   0  0  0  0  0  0
   12.5587    1.4100    4.4158 H   0  0  0  0  0  0
   12.0180    2.4989    5.7381 H   0  0  0  0  0  0
   11.0064    1.0929    5.2623 H   0  0  0  0  0  0
   14.2172    0.8330    2.5742 H   0  0  0  0  0  0
   18.2890   -1.5660    1.1424 H   0  0  0  0  0  0
   15.4681   -1.4219    6.6645 H   0  0  0  0  0  0
   11.3935    1.0365    7.9793 H   0  0  0  0  0  0
  1 12  2  0  0  0
  1 14  1  0  0  0
  1 15  2  0  0  0
  1 22  1  0  0  0
  2  3  2  0  0  0
  2  5  1  0  0  0
  3  4  1  0  0  0
  4 16  2  0  0  0
  4 17  1  0  0  0
  5 20  2  0  0  0
  5 21  1  0  0  0
  6 13  1  0  0  0
  6 24  1  0  0  0
  7 10  1  0  0  0
  7 22  2  0  0  0
  7 23  1  0  0  0
  8 16  1  0  0  0
  8 25  1  0  0  0
  8 26  1  0  0  0
  9 19  1  0  0  0
  9 27  1  0  0  0
  9 28  1  0  0  0
  9 29  1  0  0  0
 10 30  1  0  0  0
 10 31  1  0  0  0
 10 32  1  0  0  0
 11 21  1  0  0  0
 11 33  1  0  0  0
 11 34  1  0  0  0
 11 35  1  0  0  0
 13 18  2  0  0  0
 13 19  1  0  0  0
 16 18  1  0  0  0
 17 19  2  0  0  0
 17 36  1  0  0  0
 18 37  1  0  0  0
 20 22  1  0  0  0
 20 38  1  0  0  0
 21 23  2  0  0  0
 23 39  1  0  0  0
M  CHG  1  14  -1
M  END
> <s_m_source_file>
../2l84_ligand.sdf

> <i_m_source_file_index>
1

> <s_epik_input>
W0NIM11jMVtjSF1jKFtDSDNdKWMoUyg9TykoPU8pW09IXSlbY0hdYzEvTj1OL2MyYyhbTkgyXSlbY0hdYyhbT0hdKWMoW0NIM10pW2NIXTI=

> <s_epik_cmdline>
J2VwaWtfYXBwJywgJy1pbWFlJywgJ2xpZ2FuZF9wcm8ubWFlJywgJy1vbWFlJywgJ2xpZ2FuZF9wcmVwLm1hZScsICctbXMnLCAnMScsICctcGgnLCAnNycsICctcGh0JywgJzAuNScsICctbnQn

> <r_epik_Ionization_Penalty>
  0.0108

> <r_epik_Ionization_Penalty_Charging>
  0.0000

> <r_epik_Ionization_Penalty_Neutral>
  0.0107

> <r_epik_State_Penalty>
  0.0080

> <r_epik_Charging_Adjusted_Penalty>
0.0080419643156094

> <i_epik_Tot_Q>
-1

> <i_epik_Tot_abs_Q>
1

$$$$
