2l8j_ligand
                    3D
 Schrodinger Suite 2020-3.
255256  0  0  1  0            999 V2000
  -23.3980    9.4200   -0.0120 N   0  3  0  0  0  0
  -23.8340    8.9970   -1.3420 C   0  0  0  0  0  0
  -24.0820    7.5050   -1.4030 C   0  0  0  0  0  0
  -23.8870    6.8040   -0.4080 O   0  0  0  0  0  0
  -24.5490    7.0300   -2.5590 N   0  0  0  0  0  0
  -24.8600    5.6340   -2.8320 C   0  0  2  0  0  0
  -24.2920    5.2710   -4.2010 C   0  0  0  0  0  0
  -24.8140    5.7040   -5.2310 O   0  0  0  0  0  0
  -26.3770    5.4210   -2.7890 C   0  0  0  0  0  0
  -23.1890    4.5340   -4.2010 N   0  0  0  0  0  0
  -22.4940    4.0730   -5.3910 C   0  0  2  0  0  0
  -23.3320    2.9960   -6.0820 C   0  0  0  0  0  0
  -24.0230    2.2330   -5.4010 O   0  0  0  0  0  0
  -21.1420    3.5000   -4.9550 C   0  0  0  0  0  0
  -20.1830    3.2180   -6.1060 C   0  0  0  0  0  0
  -18.5850    2.6470   -5.4860 S   0  0  0  0  0  0
  -18.9250    0.8760   -5.2910 C   0  0  0  0  0  0
  -23.2240    2.9270   -7.4080 N   0  0  0  0  0  0
  -23.9100    1.9880   -8.2830 C   0  0  0  0  0  0
  -22.9720    1.5360   -9.3990 C   0  0  0  0  0  0
  -23.1990    1.9060  -10.5530 O   0  0  0  0  0  0
  -21.8340    0.9270   -9.0530 N   0  0  0  0  0  0
  -20.8580    0.4440  -10.0320 C   0  0  2  0  0  0
  -21.1840   -1.0150  -10.4000 C   0  0  0  0  0  0
  -22.1110   -1.6240   -9.8510 O   0  0  0  0  0  0
  -19.4380    0.5990   -9.4520 C   0  0  0  0  0  0
  -18.4260    0.3410  -10.4140 O   0  0  0  0  0  0
  -20.4810   -1.5530  -11.3960 N   0  0  0  0  0  0
  -20.5890   -2.9290  -11.8840 C   0  0  2  0  0  0
  -19.1750   -3.5080  -11.8410 C   0  0  0  0  0  0
  -18.9640   -4.6090  -11.3360 O   0  0  0  0  0  0
  -21.1860   -2.9900  -13.2920 C   0  0  0  0  0  0
  -18.2080   -2.7510  -12.3600 N   0  0  0  0  0  0
  -16.8090   -3.1210  -12.3500 C   0  0  2  0  0  0
  -16.2920   -2.8310  -10.9370 C   0  0  0  0  0  0
  -16.8330   -1.9560  -10.2530 O   0  0  0  0  0  0
  -16.0630   -2.2650  -13.3750 C   0  0  0  0  0  0
  -16.5140   -2.5220  -14.6930 O   0  0  0  0  0  0
  -15.2680   -3.5630  -10.5020 N   0  0  0  0  0  0
  -14.6750   -3.3840   -9.1870 C   0  0  2  0  0  0
  -14.0460   -1.9910   -9.0970 C   0  0  0  0  0  0
  -13.6960   -1.3850  -10.1140 O   0  0  0  0  0  0
  -13.6740   -4.5180   -8.9260 C   0  0  0  0  0  0
  -12.6810   -4.5880   -9.9430 O   0  0  0  0  0  0
  -13.8250   -1.5190   -7.8750 N   0  0  0  0  0  0
  -13.2540   -0.2010   -7.6410 C   0  0  2  0  0  0
  -11.7860   -0.1870   -8.0950 C   0  0  0  0  0  0
  -11.1220   -1.2240   -8.0820 O   0  0  0  0  0  0
  -13.4470    0.1980   -6.1700 C   0  0  0  0  0  0
  -14.8230   -0.1450   -5.5560 C   0  0  0  0  0  0
  -15.9930   -0.1350   -6.5460 C   0  0  0  0  0  0
  -16.1830    0.8710   -7.2650 O   0  0  0  0  0  0
  -16.6690   -1.1910   -6.6150 O   0  0  0  0  0  0
  -11.2580    0.9760   -8.4710 N   0  0  0  0  0  0
   -9.8920    1.1660   -8.9600 C   0  0  2  0  0  0
   -8.8220    0.8470   -7.9150 C   0  0  0  0  0  0
   -8.5920    1.6500   -7.0080 O   0  0  0  0  0  0
   -9.7180    2.6180   -9.4430 C   0  0  0  0  0  0
  -10.2020    2.8380  -10.8660 C   0  0  0  0  0  0
  -11.4200    3.0450  -11.0630 O   0  0  0  0  0  0
   -9.3480    2.8170  -11.7810 O   0  0  0  0  0  0
   -8.1250   -0.2840   -8.0690 N   0  0  0  0  0  0
   -7.0580   -0.7630   -7.1900 C   0  0  2  0  0  0
   -6.1810   -1.6940   -8.0290 C   0  0  0  0  0  0
   -6.7070   -2.6500   -8.6190 O   0  0  0  0  0  0
   -7.6600   -1.5200   -5.9930 C   0  0  0  0  0  0
   -8.3090   -0.6110   -4.9680 C   0  0  0  0  0  0
   -7.5260    0.0580   -4.0120 C   0  0  0  0  0  0
   -9.6850   -0.3400   -5.0570 C   0  0  0  0  0  0
   -8.1030    1.0460   -3.1910 C   0  0  0  0  0  0
  -10.2670    0.6520   -4.2560 C   0  0  0  0  0  0
   -9.4710    1.3660   -3.3400 C   0  0  0  0  0  0
  -10.0090    2.4140   -2.6670 O   0  0  0  0  0  0
   -4.8650   -1.4580   -8.0520 N   0  0  0  0  0  0
   -3.9420   -2.2660   -8.8460 C   0  0  2  0  0  0
   -3.5310   -3.5200   -8.0620 C   0  0  0  0  0  0
   -2.7330   -3.4630   -7.1280 O   0  0  0  0  0  0
   -2.7470   -1.3990   -9.3060 C   0  0  2  0  0  0
   -3.1630   -0.0590   -9.9670 C   0  0  0  0  0  0
   -1.8390   -2.1850  -10.2650 C   0  0  0  0  0  0
   -4.1670   -0.1780  -11.1220 C   0  0  0  0  0  0
   -4.1240   -4.6620   -8.3940 N   0  0  0  0  0  0
   -3.8400   -5.9400   -7.7530 C   0  0  2  0  0  0
   -2.5130   -6.4590   -8.3040 C   0  0  0  0  0  0
   -2.2550   -6.3250   -9.4980 O   0  0  0  0  0  0
   -4.9640   -6.9620   -8.0700 C   0  0  2  0  0  0
   -6.3850   -6.4450   -7.7420 C   0  0  0  0  0  0
   -4.7340   -8.2850   -7.3140 C   0  0  0  0  0  0
   -7.4650   -7.1680   -8.5570 C   0  0  0  0  0  0
   -1.6830   -7.0690   -7.4630 N   0  0  0  0  0  0
   -0.4080   -7.6520   -7.8630 C   0  0  2  0  0  0
   -0.4770   -9.0920   -7.3530 C   0  0  0  0  0  0
    0.0140   -9.4030   -6.2690 O   0  0  0  0  0  0
    0.7840   -6.7750   -7.4020 C   0  0  2  0  0  0
    2.1240   -7.4250   -7.8140 C   0  0  0  0  0  0
    0.7700   -6.4100   -5.9070 C   0  0  0  0  0  0
    3.3410   -6.5050   -7.6380 C   0  0  0  0  0  0
   -1.1440   -9.9620   -8.1160 N   0  0  0  0  0  0
   -1.3170  -11.3670   -7.7680 C   0  0  2  0  0  0
   -1.4240  -12.1820   -9.0680 C   0  0  0  0  0  0
   -2.5170  -12.2580   -9.6410 O   0  0  0  0  0  0
   -2.5490  -11.4980   -6.8400 C   0  0  0  0  0  0
   -2.6310  -12.7740   -5.9820 C   0  0  0  0  0  0
   -2.9540  -14.0270   -6.7860 C   0  0  0  0  0  0
   -1.3610  -13.0070   -5.1610 C   0  0  0  0  0  0
   -0.3060  -12.6900   -9.6170 N   0  0  0  0  0  0
   -0.2880  -13.4930  -10.8380 C   0  0  2  0  0  0
   -0.7750  -14.9150  -10.5190 C   0  0  0  0  0  0
   -1.0910  -15.2160   -9.3720 O   0  0  0  0  0  0
    1.1800  -13.4860  -11.2700 C   0  0  0  0  0  0
    1.9250  -13.4920   -9.9380 C   0  0  0  0  0  0
    1.0280  -12.6460   -9.0360 C   0  0  0  0  0  0
   -0.8240  -15.8160  -11.5030 N   0  0  0  0  0  0
   -1.2670  -17.1940  -11.2540 C   0  0  2  0  0  0
   -0.2280  -18.0060  -10.4690 C   0  0  0  0  0  0
   -0.5030  -19.1400  -10.0710 O   0  0  0  0  0  0
   -1.6010  -17.8850  -12.5800 C   0  0  0  0  0  0
   -2.8200  -18.8050  -12.4200 C   0  0  0  0  0  0
   -3.4300  -19.1710  -13.7680 C   0  0  0  0  0  0
   -4.0980  -18.3050  -14.3880 O   0  0  0  0  0  0
   -3.2760  -20.3250  -14.2230 O   0  0  0  0  0  0
    0.9700  -17.4470  -10.2860 N   0  0  0  0  0  0
    2.0590  -18.0670   -9.5670 C   0  0  2  0  0  0
    1.8750  -17.7500   -8.0870 C   0  0  0  0  0  0
    1.8860  -18.6880   -7.2560 O   0  0  0  0  0  0
    3.3870  -17.5340  -10.1280 C   0  0  0  0  0  0
    4.4450  -18.4460   -9.9080 O   0  0  0  0  0  0
    1.7140  -16.5603   -7.7044 O   0  0  0  0  0  0
  -23.2291   10.5070   -0.0100 H   0  0  0  0  0  0
  -22.4627    8.9031    0.2489 H   0  0  0  0  0  0
  -24.1742    9.1681    0.7256 H   0  0  0  0  0  0
  -24.7693    9.5139   -1.6029 H   0  0  0  0  0  0
  -23.0579    9.2489   -2.0797 H   0  0  0  0  0  0
  -24.6960    7.7894   -3.3411 H   0  0  0  0  0  0
  -24.3856    5.0242   -2.0490 H   0  0  0  0  0  0
  -26.7569    5.6903   -1.7924 H   0  0  0  0  0  0
  -26.6049    4.3648   -2.9953 H   0  0  0  0  0  0
  -26.8579    6.0550   -3.5484 H   0  0  0  0  0  0
  -22.8041    4.2740   -3.2039 H   0  0  0  0  0  0
  -22.3633    4.9315   -6.0661 H   0  0  0  0  0  0
  -20.6406    4.2133   -4.2843 H   0  0  0  0  0  0
  -21.3003    2.5486   -4.4261 H   0  0  0  0  0  0
  -20.6093    2.4398   -6.7561 H   0  0  0  0  0  0
  -20.0286    4.1383   -6.6885 H   0  0  0  0  0  0
  -18.0257    0.3698   -4.9102 H   0  0  0  0  0  0
  -19.2028    0.4466   -6.2649 H   0  0  0  0  0  0
  -19.7526    0.7377   -4.5797 H   0  0  0  0  0  0
  -22.5375    3.6740   -7.8331 H   0  0  0  0  0  0
  -24.2299    1.1111   -7.7010 H   0  0  0  0  0  0
  -24.7911    2.4757   -8.7254 H   0  0  0  0  0  0
  -21.6456    0.7948   -7.9773 H   0  0  0  0  0  0
  -20.9474    1.0662  -10.9347 H   0  0  0  0  0  0
  -19.3020    1.6271   -9.0852 H   0  0  0  0  0  0
  -19.3024   -0.1080   -8.6203 H   0  0  0  0  0  0
  -17.3658    0.4166  -10.1308 H   0  0  0  0  0  0
  -19.7668   -0.8585  -11.8624 H   0  0  0  0  0  0
  -21.2803   -3.4790  -11.2286 H   0  0  0  0  0  0
  -22.2005   -2.5649  -13.2788 H   0  0  0  0  0  0
  -21.2315   -4.0371  -13.6259 H   0  0  0  0  0  0
  -20.5551   -2.4118  -13.9831 H   0  0  0  0  0  0
  -18.5220   -1.7992  -12.8134 H   0  0  0  0  0  0
  -16.7136   -4.1843  -12.6151 H   0  0  0  0  0  0
  -16.2271   -1.2003  -13.1524 H   0  0  0  0  0  0
  -14.9870   -2.4883  -13.3256 H   0  0  0  0  0  0
  -16.0702   -1.9807  -15.5415 H   0  0  0  0  0  0
  -14.8714   -4.3291  -11.1845 H   0  0  0  0  0  0
  -15.4794   -3.4461   -8.4392 H   0  0  0  0  0  0
  -13.1713   -4.3487   -7.9624 H   0  0  0  0  0  0
  -14.2081   -5.4792   -8.8970 H   0  0  0  0  0  0
  -11.8932   -5.3539   -9.8907 H   0  0  0  0  0  0
  -14.0899   -2.1628   -7.0233 H   0  0  0  0  0  0
  -13.8118    0.5160   -8.2613 H   0  0  0  0  0  0
  -12.6970   -0.3145   -5.5497 H   0  0  0  0  0  0
  -13.3266    1.2865   -6.0665 H   0  0  0  0  0  0
  -14.7882   -1.1537   -5.1187 H   0  0  0  0  0  0
  -15.0671    0.5864   -4.7715 H   0  0  0  0  0  0
  -17.5234   -1.2530   -7.3051 H   0  0  0  0  0  0
  -11.9384    1.8367   -8.3914 H   0  0  0  0  0  0
   -9.7973    0.4341   -9.7757 H   0  0  0  0  0  0
  -10.2904    3.2928   -8.7896 H   0  0  0  0  0  0
   -8.6529    2.8907   -9.4088 H   0  0  0  0  0  0
   -9.6569    2.9720  -12.8253 H   0  0  0  0  0  0
   -8.4172   -0.8731   -8.9508 H   0  0  0  0  0  0
   -6.4909    0.1026   -6.8170 H   0  0  0  0  0  0
   -8.4319   -2.2172   -6.3508 H   0  0  0  0  0  0
   -6.8671   -2.0831   -5.4789 H   0  0  0  0  0  0
   -6.4695   -0.1884   -3.9057 H   0  0  0  0  0  0
  -10.3040   -0.9052   -5.7538 H   0  0  0  0  0  0
   -7.4977    1.5609   -2.4449 H   0  0  0  0  0  0
  -11.3316    0.8699   -4.3418 H   0  0  0  0  0  0
   -9.3967    2.9792   -1.9489 H   0  0  0  0  0  0
   -4.4835   -0.6229   -7.4461 H   0  0  0  0  0  0
   -4.4880   -2.6025   -9.7397 H   0  0  0  0  0  0
   -2.1915   -1.1517   -8.3894 H   0  0  0  0  0  0
   -3.6312    0.5916   -9.2137 H   0  0  0  0  0  0
   -2.2727    0.4387  -10.3789 H   0  0  0  0  0  0
   -1.5446   -3.1351   -9.7952 H   0  0  0  0  0  0
   -0.9398   -1.5918  -10.4874 H   0  0  0  0  0  0
   -2.3828   -2.3907  -11.1988 H   0  0  0  0  0  0
   -4.3925    0.8238  -11.5165 H   0  0  0  0  0  0
   -5.0932   -0.6450  -10.7560 H   0  0  0  0  0  0
   -3.7347   -0.7980  -11.9212 H   0  0  0  0  0  0
   -4.8672   -4.6056   -9.2030 H   0  0  0  0  0  0
   -3.7819   -5.7514   -6.6708 H   0  0  0  0  0  0
   -4.9121   -7.1294   -9.1559 H   0  0  0  0  0  0
   -6.5964   -6.6060   -6.6746 H   0  0  0  0  0  0
   -6.4460   -5.3706   -7.9699 H   0  0  0  0  0  0
   -3.7263   -8.6649   -7.5380 H   0  0  0  0  0  0
   -5.4837   -9.0243   -7.6324 H   0  0  0  0  0  0
   -4.8279   -8.1101   -6.2321 H   0  0  0  0  0  0
   -8.4545   -6.7681   -8.2906 H   0  0  0  0  0  0
   -7.4327   -8.2448   -8.3347 H   0  0  0  0  0  0
   -7.2822   -7.0094   -9.6301 H   0  0  0  0  0  0
   -2.0057   -7.1200   -6.4126 H   0  0  0  0  0  0
   -0.2868   -7.6679   -8.9562 H   0  0  0  0  0  0
    0.6727   -5.8102   -7.9185 H   0  0  0  0  0  0
    2.3011   -8.3206   -7.2003 H   0  0  0  0  0  0
    2.0821   -7.7104   -8.8755 H   0  0  0  0  0  0
   -0.1963   -5.9511   -5.6507 H   0  0  0  0  0  0
    1.5816   -5.6981   -5.6958 H   0  0  0  0  0  0
    0.9147   -7.3199   -5.3061 H   0  0  0  0  0  0
    4.2513   -7.0373   -7.9509 H   0  0  0  0  0  0
    3.4312   -6.2145   -6.5809 H   0  0  0  0  0  0
    3.2121   -5.6043   -8.2561 H   0  0  0  0  0  0
   -1.5741   -9.5696   -9.0493 H   0  0  0  0  0  0
   -0.4295  -11.7164   -7.2200 H   0  0  0  0  0  0
   -2.5646  -10.6576   -6.1305 H   0  0  0  0  0  0
   -3.4673  -11.4838   -7.4454 H   0  0  0  0  0  0
   -3.4723  -12.6023   -5.2944 H   0  0  0  0  0  0
   -3.8671  -13.8588   -7.3760 H   0  0  0  0  0  0
   -3.1112  -14.8724   -6.1000 H   0  0  0  0  0  0
   -2.1170  -14.2544   -7.4625 H   0  0  0  0  0  0
   -1.1283  -12.1019   -4.5807 H   0  0  0  0  0  0
   -0.5238  -13.2343   -5.8373 H   0  0  0  0  0  0
   -1.5179  -13.8523   -4.4748 H   0  0  0  0  0  0
   -0.9540  -13.0697  -11.6043 H   0  0  0  0  0  0
    1.3880  -14.3798  -11.8765 H   0  0  0  0  0  0
    1.3827  -12.5836  -11.8654 H   0  0  0  0  0  0
    2.0276  -14.5270   -9.5800 H   0  0  0  0  0  0
    2.9233  -13.0505  -10.0742 H   0  0  0  0  0  0
    1.3784  -11.6039   -9.0007 H   0  0  0  0  0  0
    0.9976  -13.0573   -8.0162 H   0  0  0  0  0  0
   -0.5244  -15.5091  -12.5160 H   0  0  0  0  0  0
   -2.1695  -17.0957  -10.6329 H   0  0  0  0  0  0
   -1.8265  -17.1252  -13.3428 H   0  0  0  0  0  0
   -0.7407  -18.4879  -12.9062 H   0  0  0  0  0  0
   -2.5151  -19.7331  -11.9143 H   0  0  0  0  0  0
   -3.5877  -18.2953  -11.8193 H   0  0  0  0  0  0
   -4.5463  -18.5498  -15.3622 H   0  0  0  0  0  0
    1.1001  -16.4473  -10.7261 H   0  0  0  0  0  0
    2.0182  -19.1562   -9.7152 H   0  0  0  0  0  0
    3.2880  -17.3701  -11.2112 H   0  0  0  0  0  0
    3.6382  -16.5834   -9.6348 H   0  0  0  0  0  0
    5.4606  -18.2041  -10.2544 H   0  0  0  0  0  0
    1.5819  -16.3396   -6.6349 H   0  0  0  0  0  0
  1  2  1  0  0  0
  1129  1  0  0  0
  1130  1  0  0  0
  1131  1  0  0  0
  2  3  1  0  0  0
  2132  1  0  0  0
  2133  1  0  0  0
  3  4  2  0  0  0
  3  5  1  0  0  0
  5  6  1  0  0  0
  5134  1  0  0  0
  6  7  1  0  0  0
  6  9  1  0  0  0
  6135  1  0  0  0
  7  8  2  0  0  0
  7 10  1  0  0  0
  9136  1  0  0  0
  9137  1  0  0  0
  9138  1  0  0  0
 10 11  1  0  0  0
 10139  1  0  0  0
 11 12  1  0  0  0
 11 14  1  0  0  0
 11140  1  0  0  0
 12 13  2  0  0  0
 12 18  1  0  0  0
 14 15  1  0  0  0
 14141  1  0  0  0
 14142  1  0  0  0
 15 16  1  0  0  0
 15143  1  0  0  0
 15144  1  0  0  0
 16 17  1  0  0  0
 17145  1  0  0  0
 17146  1  0  0  0
 17147  1  0  0  0
 18 19  1  0  0  0
 18148  1  0  0  0
 19 20  1  0  0  0
 19149  1  0  0  0
 19150  1  0  0  0
 20 21  2  0  0  0
 20 22  1  0  0  0
 22 23  1  0  0  0
 22151  1  0  0  0
 23 24  1  0  0  0
 23 26  1  0  0  0
 23152  1  0  0  0
 24 25  2  0  0  0
 24 28  1  0  0  0
 26 27  1  0  0  0
 26153  1  0  0  0
 26154  1  0  0  0
 27155  1  0  0  0
 28 29  1  0  0  0
 28156  1  0  0  0
 29 30  1  0  0  0
 29 32  1  0  0  0
 29157  1  0  0  0
 30 31  2  0  0  0
 30 33  1  0  0  0
 32158  1  0  0  0
 32159  1  0  0  0
 32160  1  0  0  0
 33 34  1  0  0  0
 33161  1  0  0  0
 34 35  1  0  0  0
 34 37  1  0  0  0
 34162  1  0  0  0
 35 36  2  0  0  0
 35 39  1  0  0  0
 37 38  1  0  0  0
 37163  1  0  0  0
 37164  1  0  0  0
 38165  1  0  0  0
 39 40  1  0  0  0
 39166  1  0  0  0
 40 41  1  0  0  0
 40 43  1  0  0  0
 40167  1  0  0  0
 41 42  2  0  0  0
 41 45  1  0  0  0
 43 44  1  0  0  0
 43168  1  0  0  0
 43169  1  0  0  0
 44170  1  0  0  0
 45 46  1  0  0  0
 45171  1  0  0  0
 46 47  1  0  0  0
 46 49  1  0  0  0
 46172  1  0  0  0
 47 48  2  0  0  0
 47 54  1  0  0  0
 49 50  1  0  0  0
 49173  1  0  0  0
 49174  1  0  0  0
 50 51  1  0  0  0
 50175  1  0  0  0
 50176  1  0  0  0
 51 52  2  0  0  0
 51 53  1  0  0  0
 53177  1  0  0  0
 54 55  1  0  0  0
 54178  1  0  0  0
 55 56  1  0  0  0
 55 58  1  0  0  0
 55179  1  0  0  0
 56 57  2  0  0  0
 56 62  1  0  0  0
 58 59  1  0  0  0
 58180  1  0  0  0
 58181  1  0  0  0
 59 60  2  0  0  0
 59 61  1  0  0  0
 61182  1  0  0  0
 62 63  1  0  0  0
 62183  1  0  0  0
 63 64  1  0  0  0
 63 66  1  0  0  0
 63184  1  0  0  0
 64 65  2  0  0  0
 64 74  1  0  0  0
 66 67  1  0  0  0
 66185  1  0  0  0
 66186  1  0  0  0
 67 68  2  0  0  0
 67 69  1  0  0  0
 68 70  1  0  0  0
 68187  1  0  0  0
 69 71  2  0  0  0
 69188  1  0  0  0
 70 72  2  0  0  0
 70189  1  0  0  0
 71 72  1  0  0  0
 71190  1  0  0  0
 72 73  1  0  0  0
 73191  1  0  0  0
 74 75  1  0  0  0
 74192  1  0  0  0
 75 76  1  0  0  0
 75 78  1  0  0  0
 75193  1  0  0  0
 76 77  2  0  0  0
 76 82  1  0  0  0
 78 79  1  0  0  0
 78 80  1  0  0  0
 78194  1  0  0  0
 79 81  1  0  0  0
 79195  1  0  0  0
 79196  1  0  0  0
 80197  1  0  0  0
 80198  1  0  0  0
 80199  1  0  0  0
 81200  1  0  0  0
 81201  1  0  0  0
 81202  1  0  0  0
 82 83  1  0  0  0
 82203  1  0  0  0
 83 84  1  0  0  0
 83 86  1  0  0  0
 83204  1  0  0  0
 84 85  2  0  0  0
 84 90  1  0  0  0
 86 87  1  0  0  0
 86 88  1  0  0  0
 86205  1  0  0  0
 87 89  1  0  0  0
 87206  1  0  0  0
 87207  1  0  0  0
 88208  1  0  0  0
 88209  1  0  0  0
 88210  1  0  0  0
 89211  1  0  0  0
 89212  1  0  0  0
 89213  1  0  0  0
 90 91  1  0  0  0
 90214  1  0  0  0
 91 92  1  0  0  0
 91 94  1  0  0  0
 91215  1  0  0  0
 92 93  2  0  0  0
 92 98  1  0  0  0
 94 95  1  0  0  0
 94 96  1  0  0  0
 94216  1  0  0  0
 95 97  1  0  0  0
 95217  1  0  0  0
 95218  1  0  0  0
 96219  1  0  0  0
 96220  1  0  0  0
 96221  1  0  0  0
 97222  1  0  0  0
 97223  1  0  0  0
 97224  1  0  0  0
 98 99  1  0  0  0
 98225  1  0  0  0
 99100  1  0  0  0
 99102  1  0  0  0
 99226  1  0  0  0
100101  2  0  0  0
100106  1  0  0  0
102103  1  0  0  0
102227  1  0  0  0
102228  1  0  0  0
103104  1  0  0  0
103105  1  0  0  0
103229  1  0  0  0
104230  1  0  0  0
104231  1  0  0  0
104232  1  0  0  0
105233  1  0  0  0
105234  1  0  0  0
105235  1  0  0  0
106107  1  0  0  0
106112  1  0  0  0
107108  1  0  0  0
107110  1  0  0  0
107236  1  0  0  0
108109  2  0  0  0
108113  1  0  0  0
110111  1  0  0  0
110237  1  0  0  0
110238  1  0  0  0
111112  1  0  0  0
111239  1  0  0  0
111240  1  0  0  0
112241  1  0  0  0
112242  1  0  0  0
113114  1  0  0  0
113243  1  0  0  0
114115  1  0  0  0
114117  1  0  0  0
114244  1  0  0  0
115116  2  0  0  0
115122  1  0  0  0
117118  1  0  0  0
117245  1  0  0  0
117246  1  0  0  0
118119  1  0  0  0
118247  1  0  0  0
118248  1  0  0  0
119120  1  0  0  0
119121  2  0  0  0
120249  1  0  0  0
122123  1  0  0  0
122250  1  0  0  0
123124  1  0  0  0
123126  1  0  0  0
123251  1  0  0  0
124125  2  0  0  0
124128  1  0  0  0
126127  1  0  0  0
126252  1  0  0  0
126253  1  0  0  0
127254  1  0  0  0
128255  1  0  0  0
M  CHG  1   1   1
M  END
> <s_m_source_file>
../2l8j_ligand.sdf

> <i_m_source_file_index>
1

> <s_epik_input>
W05IMytdW0NIMl1DKD1PKVtOSF1bQ0BASF0oW0NIM10pQyg9TylbTkhdW0NAQEhdKFtDSDJdW0NIMl1TW0NIM10pQyg9TylbTkhdW0NIMl1DKD1PKVtOSF1bQ0BASF0oW0NIMl1bT0hdKUMoPU8pW05IXVtDQEBIXShbQ0gzXSlDKD1PKVtOSF1bQ0BASF0oW0NIMl1bT0hdKUMoPU8pW05IXVtDQEBIXShbQ0gyXVtPSF0pQyg9TylbTkhdW0NAQEhdKFtDSDJdW0NIMl1DKD1PKVtPSF0pQyg9TylbTkhdW0NAQEhdKFtDSDJdQyg9TylbT0hdKUMoPU8pW05IXVtDQEBIXShbQ0gyXWMxW2NIXVtjSF1jKFtPSF0pW2NIXVtjSF0xKUMoPU8pW05IXVtDQEBIXShbQ0BASF0oW0NIM10pW0NIMl1bQ0gzXSlDKD1PKVtOSF1bQ0BASF0oW0NAQEhdKFtDSDNdKVtDSDJdW0NIM10pQyg9TylbTkhdW0NAQEhdKFtDQEBIXShbQ0gzXSlbQ0gyXVtDSDNdKUMoPU8pW05IXVtDQEBIXShbQ0gyXVtDSF0oW0NIM10pW0NIM10pQyg9TylOMltDQEBIXShbQ0gyXVtDSDJdW0NIMl0yKUMoPU8pW05IXVtDQEBIXShbQ0gyXVtDSDJdQyg9TylbT0hdKUMoPU8pW05IXVtDQEhdKEMoPU8pW09IXSlbQ0gyXVtPSF0=

> <s_epik_cmdline>
J2VwaWtfYXBwJywgJy1pbWFlJywgJ2xpZ2FuZF9wcm8ubWFlJywgJy1vbWFlJywgJ2xpZ2FuZF9wcmVwLm1hZScsICctbXMnLCAnMScsICctcGgnLCAnNycsICctcGh0JywgJzAuNScsICctbnQn

> <s_epik_pKa_notes>
Molecule size exceeds maximum supported for generating protonation states

$$$$
