2l8r_ligand
                    3D
 Schrodinger Suite 2020-3.
 57 60  0  0  1  0            999 V2000
    0.8360    0.9430  -11.2430 N   0  0  0  0  0  0
   -0.2710    0.2020  -11.1360 C   0  0  0  0  0  0
   -0.2180   -1.1160  -11.2390 N   0  0  0  0  0  0
    0.9480   -1.7380  -11.4520 C   0  0  0  0  0  0
    2.0950   -1.0110  -11.5650 C   0  0  0  0  0  0
    2.0270    0.3600  -11.4580 C   0  0  0  0  0  0
    3.1220    1.0950  -11.5660 N   0  0  0  0  0  0
    3.0990   -1.8560  -11.7690 N   0  0  0  0  0  0
    2.5900   -3.0920  -11.7890 C   0  0  0  0  0  0
    1.2530   -3.0040  -11.6000 N   0  0  0  0  0  0
    0.2440   -4.1370  -11.5980 C   0  0  1  0  0  0
    0.9610   -5.4970  -11.9560 C   0  0  2  0  0  0
    0.4740   -6.0020  -13.1510 O   0  0  0  0  0  0
    0.5790   -6.4180  -10.7740 C   0  0  2  0  0  0
   -0.5130   -7.2200  -11.0970 O   0  0  0  0  0  0
   -0.4030   -4.2820  -10.3290 O   0  0  0  0  0  0
    0.2050   -5.3900   -9.6620 C   0  0  2  0  0  0
    1.4710   -4.9890   -8.8750 C   0  0  0  0  0  0
    1.4400   -5.5410   -7.5470 O   0  0  0  0  0  0
    2.2890   -6.8730   -7.2060 P   0  0  2  0  0  0
    3.7600   -6.6230   -7.0980 O   0  0  0  0  0  0
    1.9750   -7.9300   -8.3930 O   0  5  0  0  0  0
    1.6830   -7.5010   -5.8540 O   0  0  0  0  0  0
    2.4300   -7.2690   -4.4420 P   0  0  2  0  0  0
    1.6980   -7.8310   -3.2660 O   0  0  0  0  0  0
    2.6470   -5.6710   -4.2760 O   0  5  0  0  0  0
    3.8950   -7.8990   -4.5800 O   0  0  0  0  0  0
    4.7890   -7.8600   -3.4690 C   0  0  0  0  0  0
    6.5160   -9.4000   -4.3380 O   0  0  0  0  0  0
    7.6530   -7.2980   -4.2280 O   0  0  0  0  0  0
    7.6960   -8.7200   -3.9100 C   0  0  1  0  0  0
    8.6280   -9.9870   -2.0320 O   0  0  0  0  0  0
    7.7930   -8.9140   -2.3490 C   0  0  2  0  0  0
    6.1800  -10.4230   -1.2610 O   0  0  0  0  0  0
    6.3250   -9.2210   -1.9450 C   0  0  2  0  0  0
    5.5510   -9.2090   -3.3190 C   0  0  1  0  0  0
   -1.2300    0.6898  -10.9616 H   0  0  0  0  0  0
    3.0603    2.1899  -11.4795 H   0  0  0  0  0  0
    4.0940    0.6112  -11.7423 H   0  0  0  0  0  0
    3.1551   -4.0129  -11.9329 H   0  0  0  0  0  0
   -0.5695   -3.8565  -12.2833 H   0  0  0  0  0  0
    2.0350   -5.4523  -12.1896 H   0  0  0  0  0  0
    0.6597   -5.4635  -14.0920 H   0  0  0  0  0  0
    1.3122   -7.1938  -10.5082 H   0  0  0  0  0  0
   -0.4144   -7.9992  -11.8671 H   0  0  0  0  0  0
   -0.5467   -5.7404   -8.9394 H   0  0  0  0  0  0
    2.3623   -5.3676   -9.3967 H   0  0  0  0  0  0
    1.5262   -3.8927   -8.8032 H   0  0  0  0  0  0
    5.5233   -7.0546   -3.6174 H   0  0  0  0  0  0
    4.2198   -7.6718   -2.5467 H   0  0  0  0  0  0
    7.5846   -6.9706   -5.2759 H   0  0  0  0  0  0
    8.5250   -9.1234   -4.5100 H   0  0  0  0  0  0
    9.7039   -9.9310   -2.2540 H   0  0  0  0  0  0
    8.2867   -8.1118   -1.7809 H   0  0  0  0  0  0
    6.6703  -10.5639   -0.2864 H   0  0  0  0  0  0
    5.9249   -8.5774   -1.1477 H   0  0  0  0  0  0
    4.8439  -10.0384   -3.4674 H   0  0  0  0  0  0
  1  2  1  0  0  0
  1  6  2  0  0  0
  2  3  2  0  0  0
  2 37  1  0  0  0
  3  4  1  0  0  0
  4  5  2  0  0  0
  4 10  1  0  0  0
  5  6  1  0  0  0
  5  8  1  0  0  0
  6  7  1  0  0  0
  7 38  1  0  0  0
  7 39  1  0  0  0
  8  9  2  0  0  0
  9 10  1  0  0  0
  9 40  1  0  0  0
 10 11  1  0  0  0
 11 12  1  0  0  0
 11 16  1  0  0  0
 11 41  1  0  0  0
 12 13  1  0  0  0
 12 14  1  0  0  0
 12 42  1  0  0  0
 13 43  1  0  0  0
 14 15  1  0  0  0
 14 17  1  0  0  0
 14 44  1  0  0  0
 15 45  1  0  0  0
 16 17  1  0  0  0
 17 18  1  0  0  0
 17 46  1  0  0  0
 18 19  1  0  0  0
 18 47  1  0  0  0
 18 48  1  0  0  0
 19 20  1  0  0  0
 20 21  2  0  0  0
 20 22  1  0  0  0
 20 23  1  0  0  0
 23 24  1  0  0  0
 24 25  2  0  0  0
 24 26  1  0  0  0
 24 27  1  0  0  0
 27 28  1  0  0  0
 28 36  1  0  0  0
 28 49  1  0  0  0
 28 50  1  0  0  0
 29 31  1  0  0  0
 29 36  1  0  0  0
 30 31  1  0  0  0
 30 51  1  0  0  0
 31 33  1  0  0  0
 31 52  1  0  0  0
 32 33  1  0  0  0
 32 53  1  0  0  0
 33 35  1  0  0  0
 33 54  1  0  0  0
 34 35  1  0  0  0
 34 55  1  0  0  0
 35 36  1  0  0  0
 35 56  1  0  0  0
 36 57  1  0  0  0
M  CHG  2  22  -1  26  -1
M  END
> <s_m_source_file>
../2l8r_ligand.sdf

> <i_m_source_file_index>
1

> <s_epik_input>
bjFbY0hdbmMoW05IMl0pYyhjMTIpbltjSF1uMltDQEhdM1tDQEhdKFtPSF0pW0NASF0oW09IXSlbQ0BIXShPMylbQ0gyXU9bUEBdKD1PKShbT0hdKU9bUEBdKD1PKShbT0hdKU9bQ0gyXVtDQEBIXShPW0NASF00W09IXSlbQ0BASF0oW09IXSlbQ0BIXTRbT0hd

> <s_epik_cmdline>
J2VwaWtfYXBwJywgJy1pbWFlJywgJ2xpZ2FuZF9wcm8ubWFlJywgJy1vbWFlJywgJ2xpZ2FuZF9wcmVwLm1hZScsICctbXMnLCAnMScsICctcGgnLCAnNycsICctcGh0JywgJzAuNScsICctbnQn

> <r_lp_tautomer_probability>
1

> <r_epik_Ionization_Penalty>
  0.0012

> <r_epik_Ionization_Penalty_Charging>
  0.0006

> <r_epik_Ionization_Penalty_Neutral>
  0.0006

> <r_epik_State_Penalty>
 -0.0000

> <r_epik_Charging_Adjusted_Penalty>
0.000554568258717467

> <i_epik_Tot_Q>
-2

> <i_epik_Tot_abs_Q>
2

> <s_epik_Chemistry_Notes>
This compound contains an acetal/aminal-like group ( X-CH(R)-Y where X, Y are N, S, or O) that may be acid/base labile, releasing an aldehyde.

$$$$
