2l98_ligand
                    3D
 Schrodinger Suite 2020-3.
 29 30  0  0  1  0            999 V2000
   12.7300   11.8610   -1.7970 C   0  0  0  0  0  0
   13.3170   10.7280   -2.3930 C   0  0  0  0  0  0
   12.8400   10.2530   -3.6240 C   0  0  0  0  0  0
   11.7720   10.9100   -4.2650 C   0  0  0  0  0  0
   11.1720   12.0350   -3.6750 C   0  0  0  0  0  0
   11.6570   12.5180   -2.4460 C   0  0  0  0  0  0
   10.0860   12.6830   -4.2500 C   0  0  0  0  0  0
    8.9780   13.1850   -3.5440 C   0  0  0  0  0  0
    7.8680   13.8500   -4.0490 C   0  0  0  0  0  0
    7.8860   14.5780   -5.2630 C   0  0  0  0  0  0
    6.7190   15.2540   -5.6950 C   0  0  0  0  0  0
    5.5600   15.1730   -4.8880 C   0  0  0  0  0  0
    5.5330   14.4450   -3.6770 C   0  0  0  0  0  0
    6.6960   13.7790   -3.2560 C   0  0  0  0  0  0
    4.4330   15.8130   -5.2900 O   0  0  0  0  0  0
   13.4000    9.1600   -4.2060 O   0  0  0  0  0  0
   13.1880   12.3230   -0.6100 O   0  0  0  0  0  0
   14.1435   10.2191   -1.8970 H   0  0  0  0  0  0
   11.4086   10.5434   -5.2250 H   0  0  0  0  0  0
   11.2055   13.4003   -1.9923 H   0  0  0  0  0  0
   10.1363   12.7909   -5.3435 H   0  0  0  0  0  0
    8.9231   13.0685   -2.4516 H   0  0  0  0  0  0
    8.7950   14.6181   -5.8632 H   0  0  0  0  0  0
    6.7140   15.8220   -6.6253 H   0  0  0  0  0  0
    4.6231   14.4009   -3.0784 H   0  0  0  0  0  0
    6.6968   13.2114   -2.3255 H   0  0  0  0  0  0
    4.4310   16.3856   -6.2292 H   0  0  0  0  0  0
   14.2346    8.6408   -3.7122 H   0  0  0  0  0  0
   14.0217   11.8124   -0.1058 H   0  0  0  0  0  0
  1  2  2  0  0  0
  1  6  1  0  0  0
  1 17  1  0  0  0
  2  3  1  0  0  0
  2 18  1  0  0  0
  3  4  2  0  0  0
  3 16  1  0  0  0
  4  5  1  0  0  0
  4 19  1  0  0  0
  5  6  2  0  0  0
  5  7  1  0  0  0
  6 20  1  0  0  0
  7  8  2  0  0  0
  7 21  1  0  0  0
  8  9  1  0  0  0
  8 22  1  0  0  0
  9 10  2  0  0  0
  9 14  1  0  0  0
 10 11  1  0  0  0
 10 23  1  0  0  0
 11 12  2  0  0  0
 11 24  1  0  0  0
 12 13  1  0  0  0
 12 15  1  0  0  0
 13 14  2  0  0  0
 13 25  1  0  0  0
 14 26  1  0  0  0
 15 27  1  0  0  0
 16 28  1  0  0  0
 17 29  1  0  0  0
M  END
> <s_m_source_file>
../2l98_ligand.sdf

> <i_m_source_file_index>
1

> <s_epik_input>
W09IXWMxW2NIXWMoW09IXSlbY0hdYyhbY0hdMSkvW0NIXT1bQ0hdL2MyW2NIXVtjSF1jKFtPSF0pW2NIXVtjSF0y

> <s_epik_cmdline>
J2VwaWtfYXBwJywgJy1pbWFlJywgJ2xpZ2FuZF9wcm8ubWFlJywgJy1vbWFlJywgJ2xpZ2FuZF9wcmVwLm1hZScsICctbXMnLCAnMScsICctcGgnLCAnNycsICctcGh0JywgJzAuNScsICctbnQn

> <r_lp_tautomer_probability>
1

> <r_epik_Ionization_Penalty>
  0.0064

> <r_epik_Ionization_Penalty_Charging>
  0.0000

> <r_epik_Ionization_Penalty_Neutral>
  0.0064

> <r_epik_State_Penalty>
 -0.0000

> <r_epik_Charging_Adjusted_Penalty>
0

> <i_epik_Tot_Q>
0

> <i_epik_Tot_abs_Q>
0

$$$$
