2las_ligand
                    3D
 Schrodinger Suite 2020-3.
235236  0  0  1  0            999 V2000
   13.8700   -0.2400   10.8560 N   0  3  0  0  0  0
   15.2980   -0.0200   10.5120 C   0  0  2  0  0  0
   16.0530   -1.3430   10.4570 C   0  0  0  0  0  0
   16.6140   -1.7050    9.4220 O   0  0  0  0  0  0
   15.9470    0.9110   11.5400 C   0  0  0  0  0  0
   17.4260    1.1270   11.2830 C   0  0  0  0  0  0
   17.7630    1.8590   10.3300 O   0  0  0  0  0  0
   18.2480    0.5620   12.0360 O   0  0  0  0  0  0
   16.0540   -2.0640   11.5740 N   0  0  0  0  0  0
   16.7470   -3.3430   11.6580 C   0  0  2  0  0  0
   15.9170   -4.4640   11.0380 C   0  0  0  0  0  0
   16.3710   -5.1450   10.1170 O   0  0  0  0  0  0
   17.0700   -3.6710   13.1200 C   0  0  0  0  0  0
   17.9500   -4.9000   13.2640 C   0  0  0  0  0  0
   17.4570   -6.0190   13.3970 O   0  0  0  0  0  0
   19.2620   -4.6950   13.2420 N   0  0  0  0  0  0
   14.6990   -4.6470   11.5400 N   0  0  0  0  0  0
   13.8160   -5.6960   11.0380 C   0  0  2  0  0  0
   13.0450   -5.2280    9.8030 C   0  0  0  0  0  0
   13.3400   -5.6410    8.6820 O   0  0  0  0  0  0
   12.8330   -6.1340   12.1310 C   0  0  0  0  0  0
   13.4930   -6.4310   13.4700 C   0  0  0  0  0  0
   13.2650   -5.3290   14.4890 C   0  0  0  0  0  0
   13.9920   -4.3140   14.4420 O   0  0  0  0  0  0
   12.3570   -5.4800   15.3330 O   0  0  0  0  0  0
   12.0620   -4.3570   10.0170 N   0  0  0  0  0  0
   11.2440   -3.8330    8.9260 C   0  0  2  0  0  0
   11.2790   -2.3080    8.9120 C   0  0  0  0  0  0
   11.4330   -1.6780    9.9580 O   0  0  0  0  0  0
    9.7770   -4.3150    9.0310 C   0  0  2  0  0  0
    9.2530   -4.1760   10.4660 C   0  0  0  0  0  0
    9.6560   -5.7590    8.5650 C   0  0  0  0  0  0
    8.3560   -2.9750   10.6760 C   0  0  0  0  0  0
   11.1400   -1.7150    7.7270 N   0  0  0  0  0  0
   11.1650   -0.2610    7.6100 C   0  0  2  0  0  0
   10.3750    0.2270    6.4030 C   0  0  0  0  0  0
   10.6380   -0.1690    5.2660 O   0  0  0  0  0  0
   12.6090    0.2340    7.5220 C   0  0  0  0  0  0
   12.7430    1.7440    7.6260 C   0  0  0  0  0  0
   14.1640    2.1800    7.9150 C   0  0  0  0  0  0
   15.0530    1.9010    7.0840 O   0  0  0  0  0  0
   14.3900    2.7930    8.9790 O   0  0  0  0  0  0
    9.4050    1.0980    6.6710 N   0  0  0  0  0  0
    8.5630    1.6770    5.6310 C   0  0  2  0  0  0
    8.3580    3.1660    5.8980 C   0  0  0  0  0  0
    7.8210    3.5530    6.9380 O   0  0  0  0  0  0
    7.1850    0.9780    5.5460 C   0  0  0  0  0  0
    6.2900    1.6630    4.5230 C   0  0  0  0  0  0
    7.3440   -0.4980    5.2060 C   0  0  0  0  0  0
    8.7960    3.9980    4.9580 N   0  0  0  0  0  0
    8.6640    5.4450    5.0930 C   0  0  2  0  0  0
    7.5920    5.9840    4.1630 C   0  0  0  0  0  0
    7.6670    5.8060    2.9490 O   0  0  0  0  0  0
    9.9890    6.1760    4.8020 C   0  0  2  0  0  0
   10.9910    5.2440    4.1080 C   0  0  0  0  0  0
   10.5680    6.7240    6.0920 C   0  0  0  0  0  0
   12.2530    5.9410    3.6480 C   0  0  0  0  0  0
    6.5940    6.6490    4.7310 N   0  0  0  0  0  0
    5.5070    7.1870    3.9300 C   0  0  2  0  0  0
    5.2880    8.6810    4.1700 C   0  0  0  0  0  0
    4.8840    9.1030    5.2550 O   0  0  0  0  0  0
    4.1870    6.4140    4.1810 C   0  0  2  0  0  0
    3.6980    6.5800    5.6240 C   0  0  0  0  0  0
    4.3880    4.9420    3.8730 C   0  0  0  0  0  0
    2.2390    6.2250    5.8110 C   0  0  0  0  0  0
    5.5700    9.4830    3.1450 N   0  0  0  0  0  0
    5.3750   10.9000    3.2070 C   0  0  2  0  0  0
    5.0220   11.4370    1.8260 C   0  0  0  0  0  0
    5.8370   11.4010    0.9010 O   0  0  0  0  0  0
    6.6200   11.6650    3.7400 C   0  0  0  0  0  0
    6.4530   13.1680    3.5460 C   0  0  0  0  0  0
    6.8850   11.3570    5.2070 C   0  0  0  0  0  0
    3.7920   11.9120    1.6930 N   0  0  0  0  0  0
    3.3150   12.4880    0.4470 C   0  0  2  0  0  0
    3.5220   13.9980    0.4190 C   0  0  0  0  0  0
    4.0650   14.5840    1.3560 O   0  0  0  0  0  0
    1.8400   12.1530    0.2420 C   0  0  0  0  0  0
    1.3680   12.3820   -1.1660 C   0  0  0  0  0  0
    1.9130   11.8860   -2.3160 C   0  0  0  0  0  0
    0.2690   13.1940   -1.5650 C   0  0  0  0  0  0
    1.2130   12.3440   -3.4040 N   0  0  0  0  0  0
    0.1960   13.1480   -2.9680 C   0  0  0  0  0  0
   -0.6650   13.9530   -0.8650 C   0  0  0  0  0  0
   -0.7780   13.8400   -3.6840 C   0  0  0  0  0  0
   -1.6280   14.6330   -1.5730 C   0  0  0  0  0  0
   -1.6810   14.5760   -2.9680 C   0  0  0  0  0  0
    3.0750   14.6120   -0.6670 N   0  0  0  0  0  0
    3.1350   16.0450   -0.8290 C   0  0  2  0  0  0
    1.9620   16.4980   -1.6990 C   0  0  0  0  0  0
    1.7260   15.9330   -2.7670 O   0  0  0  0  0  0
    4.4640   16.4670   -1.4580 C   0  0  0  0  0  0
    4.6480   17.9720   -1.5360 C   0  0  0  0  0  0
    5.8970   18.3660   -2.2970 C   0  0  0  0  0  0
    6.9900   18.3560   -1.6920 O   0  0  0  0  0  0
    5.7840   18.6840   -3.4990 O   0  0  0  0  0  0
    1.2330   17.5200   -1.2540 N   0  0  0  0  0  0
    0.0790   18.0120   -2.0080 C   0  0  2  0  0  0
    0.5020   18.9680   -3.1140 C   0  0  0  0  0  0
    1.4970   19.6840   -2.9880 O   0  0  0  0  0  0
   -0.9340   18.6910   -1.0810 C   0  0  0  0  0  0
   -2.0830   17.7800   -0.6620 C   0  0  0  0  0  0
   -3.0740   17.5370   -1.7970 C   0  0  0  0  0  0
   -3.9700   18.7440   -2.0280 C   0  0  0  0  0  0
   -4.9480   18.5050   -3.1220 N   0  3  0  0  0  0
   -0.2650   18.9620   -4.2010 N   0  0  0  0  0  0
    0.0120   19.8150   -5.3520 C   0  0  2  0  0  0
   -0.7860   21.1150   -5.2710 C   0  0  0  0  0  0
   -1.9950   21.0890   -5.5910 O   0  0  0  0  0  0
   -0.3330   19.0680   -6.6450 C   0  0  0  0  0  0
    0.1600   19.7630   -7.9080 C   0  0  0  0  0  0
   -0.5710   19.2610   -9.1460 C   0  0  0  0  0  0
   -1.3510   20.3760   -9.8280 C   0  0  0  0  0  0
   -2.4300   20.9180   -8.9570 N   0  3  0  0  0  0
   -0.1960   22.1480   -4.8920 O   0  0  0  0  0  0
   13.4127   -0.9094   10.1125 H   0  0  0  0  0  0
   13.3402    0.7240   10.8564 H   0  0  0  0  0  0
   13.7995   -0.6975   11.8538 H   0  0  0  0  0  0
   15.3162    0.4435    9.5146 H   0  0  0  0  0  0
   15.4528    1.8932   11.5086 H   0  0  0  0  0  0
   15.8396    0.4785   12.5457 H   0  0  0  0  0  0
   19.3273    0.6999   11.8742 H   0  0  0  0  0  0
   15.5139   -1.6726   12.4487 H   0  0  0  0  0  0
   17.6704   -3.2122   11.0747 H   0  0  0  0  0  0
   17.5990   -2.8222   13.5779 H   0  0  0  0  0  0
   16.1354   -3.8596   13.6686 H   0  0  0  0  0  0
   19.6575   -3.6757   13.1207 H   0  0  0  0  0  0
   19.9532   -5.5445   13.3450 H   0  0  0  0  0  0
   14.3615   -3.9858   12.3518 H   0  0  0  0  0  0
   14.4848   -6.5245   10.7616 H   0  0  0  0  0  0
   12.0949   -5.3364   12.3014 H   0  0  0  0  0  0
   12.3152   -7.0508   11.8125 H   0  0  0  0  0  0
   13.0813   -7.3638   13.8828 H   0  0  0  0  0  0
   14.5782   -6.5407   13.3276 H   0  0  0  0  0  0
   13.8483   -3.5005   15.1683 H   0  0  0  0  0  0
   11.8731   -4.0325   11.0509 H   0  0  0  0  0  0
   11.7165   -4.2324    8.0165 H   0  0  0  0  0  0
    9.1530   -3.6902    8.3751 H   0  0  0  0  0  0
    8.6690   -5.0696   10.7312 H   0  0  0  0  0  0
   10.1019   -4.0740   11.1581 H   0  0  0  0  0  0
   10.0346   -5.8451    7.5358 H   0  0  0  0  0  0
    8.6002   -6.0664    8.5942 H   0  0  0  0  0  0
   10.2457   -6.4089    9.2282 H   0  0  0  0  0  0
    8.0229   -2.9449   11.7239 H   0  0  0  0  0  0
    7.4801   -3.0515   10.0149 H   0  0  0  0  0  0
    8.9131   -2.0559   10.4417 H   0  0  0  0  0  0
   11.0050   -2.3367    6.8297 H   0  0  0  0  0  0
   10.6764    0.1049    8.5251 H   0  0  0  0  0  0
   13.1975   -0.2047    8.3413 H   0  0  0  0  0  0
   13.0420   -0.0680    6.5569 H   0  0  0  0  0  0
   12.4329    2.2058    6.6770 H   0  0  0  0  0  0
   12.1025    2.1138    8.4403 H   0  0  0  0  0  0
   15.4120    3.1228    9.2173 H   0  0  0  0  0  0
    9.2498    1.3778    7.7234 H   0  0  0  0  0  0
    9.1272    1.5163    4.7005 H   0  0  0  0  0  0
    6.6922    1.0486    6.5269 H   0  0  0  0  0  0
    6.1849    2.7269    4.7818 H   0  0  0  0  0  0
    5.2990    1.1856    4.5248 H   0  0  0  0  0  0
    6.7393    1.5715    3.5231 H   0  0  0  0  0  0
    7.9925   -0.9786    5.9533 H   0  0  0  0  0  0
    7.7973   -0.5978    4.2087 H   0  0  0  0  0  0
    6.3570   -0.9837    5.2104 H   0  0  0  0  0  0
    9.2678    3.5700    4.0612 H   0  0  0  0  0  0
    8.3659    5.5820    6.1429 H   0  0  0  0  0  0
    9.7945    7.0233    4.1280 H   0  0  0  0  0  0
   11.2924    4.4467    4.8033 H   0  0  0  0  0  0
   10.5214    4.7973    3.2192 H   0  0  0  0  0  0
    9.8332    7.3880    6.5707 H   0  0  0  0  0  0
   11.4847    7.2903    5.8710 H   0  0  0  0  0  0
   10.8060    5.8911    6.7700 H   0  0  0  0  0  0
   12.9185    5.2119    3.1627 H   0  0  0  0  0  0
   12.7644    6.3836    4.5155 H   0  0  0  0  0  0
   11.9934    6.7342    2.9314 H   0  0  0  0  0  0
    6.5959    6.7910    5.8218 H   0  0  0  0  0  0
    5.8670    7.0412    2.9009 H   0  0  0  0  0  0
    3.4093    6.8157    3.5148 H   0  0  0  0  0  0
    4.2837    5.9263    6.2871 H   0  0  0  0  0  0
    3.8249    7.6272    5.9360 H   0  0  0  0  0  0
    4.7388    4.8288    2.8366 H   0  0  0  0  0  0
    3.4346    4.4078    3.9978 H   0  0  0  0  0  0
    5.1363    4.5222    4.5613 H   0  0  0  0  0  0
    1.9593    6.3672    6.8653 H   0  0  0  0  0  0
    2.0780    5.1745    5.5274 H   0  0  0  0  0  0
    1.6192    6.8753    5.1762 H   0  0  0  0  0  0
    5.9654    9.0218    2.2280 H   0  0  0  0  0  0
    4.5343   10.9889    3.9108 H   0  0  0  0  0  0
    7.5016   11.3345    3.1712 H   0  0  0  0  0  0
    6.2620   13.3816    2.4840 H   0  0  0  0  0  0
    7.3714   13.6830    3.8642 H   0  0  0  0  0  0
    5.6051   13.5237    4.1498 H   0  0  0  0  0  0
    7.0042   10.2713    5.3380 H   0  0  0  0  0  0
    6.0380   11.7089    5.8143 H   0  0  0  0  0  0
    7.8043   11.8682    5.5287 H   0  0  0  0  0  0
    3.1246   11.8598    2.5658 H   0  0  0  0  0  0
    3.9286   12.0233   -0.3388 H   0  0  0  0  0  0
    1.6682   11.0930    0.4804 H   0  0  0  0  0  0
    1.2258   12.7818    0.9034 H   0  0  0  0  0  0
    2.7773   11.2235   -2.3628 H   0  0  0  0  0  0
   -0.6335   14.0072    0.2232 H   0  0  0  0  0  0
   -0.8188   13.7965   -4.7724 H   0  0  0  0  0  0
   -2.3652   15.2288   -1.0348 H   0  0  0  0  0  0
   -2.4576   15.1292   -3.4961 H   0  0  0  0  0  0
    2.6457   13.9860   -1.4631 H   0  0  0  0  0  0
    3.0623   16.4677    0.1839 H   0  0  0  0  0  0
    5.2961   16.0646   -0.8615 H   0  0  0  0  0  0
    4.5250   16.0748   -2.4839 H   0  0  0  0  0  0
    3.7842   18.4209   -2.0481 H   0  0  0  0  0  0
    4.7269   18.3849   -0.5195 H   0  0  0  0  0  0
    7.9133   18.6375   -2.2196 H   0  0  0  0  0  0
    1.5114   17.9957   -0.3021 H   0  0  0  0  0  0
   -0.3647   17.1128   -2.4603 H   0  0  0  0  0  0
   -0.4262   19.0230   -0.1634 H   0  0  0  0  0  0
   -1.3733   19.5604   -1.5920 H   0  0  0  0  0  0
   -1.6819   16.8057   -0.3460 H   0  0  0  0  0  0
   -2.6296   18.2402    0.1743 H   0  0  0  0  0  0
   -2.5234   17.3311   -2.7267 H   0  0  0  0  0  0
   -3.7108   16.6749   -1.5495 H   0  0  0  0  0  0
   -4.5295   18.9668   -1.1075 H   0  0  0  0  0  0
   -3.3523   19.6123   -2.3009 H   0  0  0  0  0  0
   -5.5742   19.3994   -3.2559 H   0  0  0  0  0  0
   -5.5853   17.6466   -2.8630 H   0  0  0  0  0  0
   -4.4081   18.2921   -4.0564 H   0  0  0  0  0  0
   -1.1320   18.2851   -4.2140 H   0  0  0  0  0  0
    1.0873   20.0422   -5.3058 H   0  0  0  0  0  0
   -2.5965   22.0088   -5.5433 H   0  0  0  0  0  0
    0.1241   18.0677   -6.6236 H   0  0  0  0  0  0
   -1.4252   18.9703   -6.7317 H   0  0  0  0  0  0
   -0.0094   20.8463   -7.8203 H   0  0  0  0  0  0
    1.2351   19.5693   -8.0373 H   0  0  0  0  0  0
    0.1583   18.8584   -9.8644 H   0  0  0  0  0  0
   -1.2780   18.4689   -8.8584 H   0  0  0  0  0  0
   -0.6677   21.2003  -10.0802 H   0  0  0  0  0  0
   -1.8146   19.9897  -10.7477 H   0  0  0  0  0  0
   -2.9643   21.7182   -9.4901 H   0  0  0  0  0  0
   -1.9879   21.3234   -8.0349 H   0  0  0  0  0  0
   -3.1349   20.1128   -8.7024 H   0  0  0  0  0  0
  1  2  1  0  0  0
  1115  1  0  0  0
  1116  1  0  0  0
  1117  1  0  0  0
  2  3  1  0  0  0
  2  5  1  0  0  0
  2118  1  0  0  0
  3  4  2  0  0  0
  3  9  1  0  0  0
  5  6  1  0  0  0
  5119  1  0  0  0
  5120  1  0  0  0
  6  7  2  0  0  0
  6  8  1  0  0  0
  8121  1  0  0  0
  9 10  1  0  0  0
  9122  1  0  0  0
 10 11  1  0  0  0
 10 13  1  0  0  0
 10123  1  0  0  0
 11 12  2  0  0  0
 11 17  1  0  0  0
 13 14  1  0  0  0
 13124  1  0  0  0
 13125  1  0  0  0
 14 15  2  0  0  0
 14 16  1  0  0  0
 16126  1  0  0  0
 16127  1  0  0  0
 17 18  1  0  0  0
 17128  1  0  0  0
 18 19  1  0  0  0
 18 21  1  0  0  0
 18129  1  0  0  0
 19 20  2  0  0  0
 19 26  1  0  0  0
 21 22  1  0  0  0
 21130  1  0  0  0
 21131  1  0  0  0
 22 23  1  0  0  0
 22132  1  0  0  0
 22133  1  0  0  0
 23 24  1  0  0  0
 23 25  2  0  0  0
 24134  1  0  0  0
 26 27  1  0  0  0
 26135  1  0  0  0
 27 28  1  0  0  0
 27 30  1  0  0  0
 27136  1  0  0  0
 28 29  2  0  0  0
 28 34  1  0  0  0
 30 31  1  0  0  0
 30 32  1  0  0  0
 30137  1  0  0  0
 31 33  1  0  0  0
 31138  1  0  0  0
 31139  1  0  0  0
 32140  1  0  0  0
 32141  1  0  0  0
 32142  1  0  0  0
 33143  1  0  0  0
 33144  1  0  0  0
 33145  1  0  0  0
 34 35  1  0  0  0
 34146  1  0  0  0
 35 36  1  0  0  0
 35 38  1  0  0  0
 35147  1  0  0  0
 36 37  2  0  0  0
 36 43  1  0  0  0
 38 39  1  0  0  0
 38148  1  0  0  0
 38149  1  0  0  0
 39 40  1  0  0  0
 39150  1  0  0  0
 39151  1  0  0  0
 40 41  2  0  0  0
 40 42  1  0  0  0
 42152  1  0  0  0
 43 44  1  0  0  0
 43153  1  0  0  0
 44 45  1  0  0  0
 44 47  1  0  0  0
 44154  1  0  0  0
 45 46  2  0  0  0
 45 50  1  0  0  0
 47 48  1  0  0  0
 47 49  1  0  0  0
 47155  1  0  0  0
 48156  1  0  0  0
 48157  1  0  0  0
 48158  1  0  0  0
 49159  1  0  0  0
 49160  1  0  0  0
 49161  1  0  0  0
 50 51  1  0  0  0
 50162  1  0  0  0
 51 52  1  0  0  0
 51 54  1  0  0  0
 51163  1  0  0  0
 52 53  2  0  0  0
 52 58  1  0  0  0
 54 55  1  0  0  0
 54 56  1  0  0  0
 54164  1  0  0  0
 55 57  1  0  0  0
 55165  1  0  0  0
 55166  1  0  0  0
 56167  1  0  0  0
 56168  1  0  0  0
 56169  1  0  0  0
 57170  1  0  0  0
 57171  1  0  0  0
 57172  1  0  0  0
 58 59  1  0  0  0
 58173  1  0  0  0
 59 60  1  0  0  0
 59 62  1  0  0  0
 59174  1  0  0  0
 60 61  2  0  0  0
 60 66  1  0  0  0
 62 63  1  0  0  0
 62 64  1  0  0  0
 62175  1  0  0  0
 63 65  1  0  0  0
 63176  1  0  0  0
 63177  1  0  0  0
 64178  1  0  0  0
 64179  1  0  0  0
 64180  1  0  0  0
 65181  1  0  0  0
 65182  1  0  0  0
 65183  1  0  0  0
 66 67  1  0  0  0
 66184  1  0  0  0
 67 68  1  0  0  0
 67 70  1  0  0  0
 67185  1  0  0  0
 68 69  2  0  0  0
 68 73  1  0  0  0
 70 71  1  0  0  0
 70 72  1  0  0  0
 70186  1  0  0  0
 71187  1  0  0  0
 71188  1  0  0  0
 71189  1  0  0  0
 72190  1  0  0  0
 72191  1  0  0  0
 72192  1  0  0  0
 73 74  1  0  0  0
 73193  1  0  0  0
 74 75  1  0  0  0
 74 77  1  0  0  0
 74194  1  0  0  0
 75 76  2  0  0  0
 75 87  1  0  0  0
 77 78  1  0  0  0
 77195  1  0  0  0
 77196  1  0  0  0
 78 79  2  0  0  0
 78 80  1  0  0  0
 79 81  1  0  0  0
 79197  1  0  0  0
 80 82  2  0  0  0
 80 83  1  0  0  0
 81 82  1  0  0  0
 82 84  1  0  0  0
 83 85  2  0  0  0
 83198  1  0  0  0
 84 86  2  0  0  0
 84199  1  0  0  0
 85 86  1  0  0  0
 85200  1  0  0  0
 86201  1  0  0  0
 87 88  1  0  0  0
 87202  1  0  0  0
 88 89  1  0  0  0
 88 91  1  0  0  0
 88203  1  0  0  0
 89 90  2  0  0  0
 89 96  1  0  0  0
 91 92  1  0  0  0
 91204  1  0  0  0
 91205  1  0  0  0
 92 93  1  0  0  0
 92206  1  0  0  0
 92207  1  0  0  0
 93 94  1  0  0  0
 93 95  2  0  0  0
 94208  1  0  0  0
 96 97  1  0  0  0
 96209  1  0  0  0
 97 98  1  0  0  0
 97100  1  0  0  0
 97210  1  0  0  0
 98 99  2  0  0  0
 98105  1  0  0  0
100101  1  0  0  0
100211  1  0  0  0
100212  1  0  0  0
101102  1  0  0  0
101213  1  0  0  0
101214  1  0  0  0
102103  1  0  0  0
102215  1  0  0  0
102216  1  0  0  0
103104  1  0  0  0
103217  1  0  0  0
103218  1  0  0  0
104219  1  0  0  0
104220  1  0  0  0
104221  1  0  0  0
105106  1  0  0  0
105222  1  0  0  0
106107  1  0  0  0
106109  1  0  0  0
106223  1  0  0  0
107108  1  0  0  0
107114  2  0  0  0
108224  1  0  0  0
109110  1  0  0  0
109225  1  0  0  0
109226  1  0  0  0
110111  1  0  0  0
110227  1  0  0  0
110228  1  0  0  0
111112  1  0  0  0
111229  1  0  0  0
111230  1  0  0  0
112113  1  0  0  0
112231  1  0  0  0
112232  1  0  0  0
113233  1  0  0  0
113234  1  0  0  0
113235  1  0  0  0
M  CHG  3   1   1 104   1 113   1
M  END
> <s_m_source_file>
../2las_ligand.sdf

> <i_m_source_file_index>
1

> <s_epik_input>
Tz1DKFtPSF0pW0NIMl1bQ0BIXShbTkgzK10pQyg9TylbTkhdW0NAQEhdKFtDSDJdQyg9TylbTkgyXSlDKD1PKVtOSF1bQ0BASF0oW0NIMl1bQ0gyXUMoPU8pW09IXSlDKD1PKVtOSF1bQ0BASF0oW0NAQEhdKFtDSDNdKVtDSDJdW0NIM10pQyg9TylbTkhdW0NAQEhdKFtDSDJdW0NIMl1DKD1PKVtPSF0pQyg9TylbTkhdW0NAQEhdKFtDSF0oW0NIM10pW0NIM10pQyg9TylbTkhdW0NAQEhdKFtDQEBIXShbQ0gzXSlbQ0gyXVtDSDNdKUMoPU8pW05IXVtDQEBIXShbQ0BASF0oW0NIM10pW0NIMl1bQ0gzXSlDKD1PKVtOSF1bQ0BASF0oW0NIXShbQ0gzXSlbQ0gzXSlDKD1PKVtOSF1bQ0BASF0oW0NIMl1jMVtjSF1bbkhdYyhjMTIpW2NIXVtjSF1bY0hdW2NIXTIpQyg9TylbTkhdW0NAQEhdKFtDSDJdW0NIMl1DKD1PKVtPSF0pQyg9TylbTkhdW0NAQEhdKFtDSDJdW0NIMl1bQ0gyXVtDSDJdW05IMytdKUMoPU8pW05IXVtDQEhdKEMoPU8pW09IXSlbQ0gyXVtDSDJdW0NIMl1bQ0gyXVtOSDMrXQ==

> <s_epik_cmdline>
J2VwaWtfYXBwJywgJy1pbWFlJywgJ2xpZ2FuZF9wcm8ubWFlJywgJy1vbWFlJywgJ2xpZ2FuZF9wcmVwLm1hZScsICctbXMnLCAnMScsICctcGgnLCAnNycsICctcGh0JywgJzAuNScsICctbnQn

> <s_epik_pKa_notes>
Molecule size exceeds maximum supported for generating protonation states

$$$$
