2lbv_ligand
                    3D
 Schrodinger Suite 2020-3.
 61 60  0  0  1  0            999 V2000
    0.5020   11.5810  -11.4880 C   0  0  0  0  0  0
    0.7410   10.8170  -10.1840 C   0  0  0  0  0  0
   -0.6140   10.5120   -9.5430 C   0  0  0  0  0  0
   -0.4290    9.8300   -8.1850 C   0  0  0  0  0  0
   -1.8050    9.6410   -7.5420 C   0  0  0  0  0  0
   -1.9320    9.3900   -6.0380 C   0  0  0  0  0  0
   -0.6800    9.3270   -5.1610 C   0  0  0  0  0  0
   -0.0530    7.9360   -5.2780 C   0  0  0  0  0  0
    0.1710    7.0640   -4.0400 C   0  0  0  0  0  0
   -0.2240    7.5580   -2.6470 C   0  0  0  0  0  0
   -1.0690    6.4970   -1.9370 C   0  0  0  0  0  0
   -0.5740    5.8410   -0.6450 C   0  0  0  0  0  0
    0.7750    6.2300   -0.0360 C   0  0  0  0  0  0
    0.6250    7.6550    0.5020 C   0  0  0  0  0  0
    1.8200    8.6110    0.5030 C   0  0  0  0  0  0
    3.1780    8.1510   -0.0320 C   0  0  0  0  0  0
    3.0830    7.9070   -1.5390 C   0  0  0  0  0  0
    2.6300    9.1830   -2.2530 C   0  0  0  0  0  0
    2.4460    8.8700   -3.7390 C   0  0  0  0  0  0
    2.0630   10.1300   -4.5170 C   0  0  0  0  0  0
   -0.5740   12.2120  -11.5850 O   0  5  0  0  0  0
    1.3970   11.5170  -12.3580 O   0  0  0  0  0  0
    1.2728    9.8788  -10.4009 H   0  0  0  0  0  0
    1.3473   11.4332   -9.5038 H   0  0  0  0  0  0
   -1.1699   11.4499   -9.3970 H   0  0  0  0  0  0
   -1.1888    9.8437  -10.2010 H   0  0  0  0  0  0
    0.0547    8.8526   -8.3285 H   0  0  0  0  0  0
    0.2019   10.4603   -7.5410 H   0  0  0  0  0  0
   -2.4142   10.5417   -7.7082 H   0  0  0  0  0  0
   -2.3048    8.7718   -7.9943 H   0  0  0  0  0  0
   -2.5338   10.1901   -5.5823 H   0  0  0  0  0  0
   -2.4226    8.4202   -5.8682 H   0  0  0  0  0  0
    0.0414   10.0865   -5.4967 H   0  0  0  0  0  0
   -0.9557    9.5207   -4.1139 H   0  0  0  0  0  0
   -0.6798    7.3045   -5.9247 H   0  0  0  0  0  0
    0.9531    8.0228   -5.7142 H   0  0  0  0  0  0
   -0.3906    6.1242   -4.1470 H   0  0  0  0  0  0
    1.2433    6.8408   -3.9378 H   0  0  0  0  0  0
    0.6832    7.7537   -2.0565 H   0  0  0  0  0  0
   -0.8087    8.4852   -2.7389 H   0  0  0  0  0  0
   -2.0389    6.9309   -1.6523 H   0  0  0  0  0  0
   -1.2328    5.6455   -2.6138 H   0  0  0  0  0  0
   -1.2901    6.0412    0.1656 H   0  0  0  0  0  0
   -0.4852    4.7550   -0.7958 H   0  0  0  0  0  0
    1.0260    5.5313    0.7756 H   0  0  0  0  0  0
    1.5538    6.1861   -0.8116 H   0  0  0  0  0  0
   -0.1378    8.1894   -0.0832 H   0  0  0  0  0  0
    0.3180    7.6180    1.5576 H   0  0  0  0  0  0
    1.5830    9.4948   -0.1076 H   0  0  0  0  0  0
    2.0371    8.9255    1.5345 H   0  0  0  0  0  0
    3.9317    8.9276    0.1647 H   0  0  0  0  0  0
    3.4731    7.2180    0.4704 H   0  0  0  0  0  0
    4.0690    7.6089   -1.9250 H   0  0  0  0  0  0
    2.3548    7.1063   -1.7356 H   0  0  0  0  0  0
    1.6782    9.5264   -1.8215 H   0  0  0  0  0  0
    3.3933    9.9648   -2.1262 H   0  0  0  0  0  0
    3.3861    8.4725   -4.1491 H   0  0  0  0  0  0
    1.6481    8.1226   -3.8602 H   0  0  0  0  0  0
    1.9365    9.8799   -5.5807 H   0  0  0  0  0  0
    2.8575   10.8831   -4.4093 H   0  0  0  0  0  0
    1.1195   10.5332   -4.1204 H   0  0  0  0  0  0
  1  2  1  0  0  0
  1 21  1  0  0  0
  1 22  2  0  0  0
  2  3  1  0  0  0
  2 23  1  0  0  0
  2 24  1  0  0  0
  3  4  1  0  0  0
  3 25  1  0  0  0
  3 26  1  0  0  0
  4  5  1  0  0  0
  4 27  1  0  0  0
  4 28  1  0  0  0
  5  6  1  0  0  0
  5 29  1  0  0  0
  5 30  1  0  0  0
  6  7  1  0  0  0
  6 31  1  0  0  0
  6 32  1  0  0  0
  7  8  1  0  0  0
  7 33  1  0  0  0
  7 34  1  0  0  0
  8  9  1  0  0  0
  8 35  1  0  0  0
  8 36  1  0  0  0
  9 10  1  0  0  0
  9 37  1  0  0  0
  9 38  1  0  0  0
 10 11  1  0  0  0
 10 39  1  0  0  0
 10 40  1  0  0  0
 11 12  1  0  0  0
 11 41  1  0  0  0
 11 42  1  0  0  0
 12 13  1  0  0  0
 12 43  1  0  0  0
 12 44  1  0  0  0
 13 14  1  0  0  0
 13 45  1  0  0  0
 13 46  1  0  0  0
 14 15  1  0  0  0
 14 47  1  0  0  0
 14 48  1  0  0  0
 15 16  1  0  0  0
 15 49  1  0  0  0
 15 50  1  0  0  0
 16 17  1  0  0  0
 16 51  1  0  0  0
 16 52  1  0  0  0
 17 18  1  0  0  0
 17 53  1  0  0  0
 17 54  1  0  0  0
 18 19  1  0  0  0
 18 55  1  0  0  0
 18 56  1  0  0  0
 19 20  1  0  0  0
 19 57  1  0  0  0
 19 58  1  0  0  0
 20 59  1  0  0  0
 20 60  1  0  0  0
 20 61  1  0  0  0
M  CHG  1  21  -1
M  END
> <s_m_source_file>
../2lbv_ligand.sdf

> <i_m_source_file_index>
1

> <s_epik_input>
W09IXUMoPU8pW0NIMl1bQ0gyXVtDSDJdW0NIMl1bQ0gyXVtDSDJdW0NIMl1bQ0gyXVtDSDJdW0NIMl1bQ0gyXVtDSDJdW0NIMl1bQ0gyXVtDSDJdW0NIMl1bQ0gyXVtDSDJdW0NIM10=

> <s_epik_cmdline>
J2VwaWtfYXBwJywgJy1pbWFlJywgJ2xpZ2FuZF9wcm8ubWFlJywgJy1vbWFlJywgJ2xpZ2FuZF9wcmVwLm1hZScsICctbXMnLCAnMScsICctcGgnLCAnNycsICctcGh0JywgJzAuNScsICctbnQn

> <r_lp_tautomer_probability>
1

> <r_epik_Ionization_Penalty>
  0.0049

> <r_epik_Ionization_Penalty_Charging>
  0.0049

> <r_epik_Ionization_Penalty_Neutral>
  0.0000

> <r_epik_State_Penalty>
 -0.0000

> <r_epik_Charging_Adjusted_Penalty>
0.00486649495677768

> <i_epik_Tot_Q>
-1

> <i_epik_Tot_abs_Q>
1

$$$$
