2lcs_ligand
                    3D
 Schrodinger Suite 2020-3.
240245  0  0  1  0            999 V2000
   -9.0920    3.7750   -5.4440 N   0  3  0  0  0  0
   -8.0010    3.9150   -6.3920 C   0  0  0  0  0  0
   -8.3680    4.7910   -7.5730 C   0  0  0  0  0  0
   -9.5250    5.1810   -7.7310 O   0  0  0  0  0  0
   -7.3810    5.1040   -8.4050 N   0  0  0  0  0  0
   -7.6040    5.9400   -9.5780 C   0  0  2  0  0  0
   -8.3340    5.1630  -10.6690 C   0  0  0  0  0  0
   -9.4530    5.5100  -11.0490 O   0  0  0  0  0  0
   -6.2710    6.4660  -10.1170 C   0  0  0  0  0  0
   -5.5220    7.3470   -9.1320 C   0  0  0  0  0  0
   -6.1210    8.7420   -9.0650 C   0  0  0  0  0  0
   -5.9170    9.3710   -7.6950 C   0  0  0  0  0  0
   -6.9190    8.8840   -6.7070 N   0  3  0  0  0  0
   -7.6950    4.1100  -11.1680 N   0  0  0  0  0  0
   -8.2840    3.2840  -12.2150 C   0  0  2  0  0  0
   -9.3730    2.3790  -11.6460 C   0  0  0  0  0  0
   -9.2520    1.8710  -10.5300 O   0  0  0  0  0  0
   -7.2050    2.4380  -12.8940 C   0  0  0  0  0  0
   -5.9560    3.2060  -13.2170 C   0  0  0  0  0  0
   -6.0130    4.3580  -13.9840 C   0  0  0  0  0  0
   -4.7230    2.7750  -12.7530 C   0  0  0  0  0  0
   -4.8650    5.0670  -14.2820 C   0  0  0  0  0  0
   -3.5720    3.4810  -13.0480 C   0  0  0  0  0  0
   -3.6430    4.6270  -13.8140 C   0  0  0  0  0  0
  -10.4350    2.1830  -12.4190 N   0  0  0  0  0  0
  -11.5450    1.3390  -11.9920 C   0  0  2  0  0  0
  -12.2750    0.7430  -13.1910 C   0  0  0  0  0  0
  -13.2890    1.2650  -13.6550 O   0  0  0  0  0  0
  -12.5510    2.1260  -11.1320 C   0  0  2  0  0  0
  -12.8950    3.4580  -11.8010 C   0  0  0  0  0  0
  -11.9900    2.3560   -9.7370 C   0  0  0  0  0  0
  -14.3250    3.8980  -11.5730 C   0  0  0  0  0  0
  -11.7490   -0.3790  -13.7060 N   0  0  0  0  0  0
  -12.3360   -1.0730  -14.8560 C   0  0  2  0  0  0
  -13.6670   -1.7350  -14.5160 C   0  0  0  0  0  0
  -13.7980   -2.3930  -13.4840 O   0  0  0  0  0  0
  -11.2860   -2.1310  -15.2050 C   0  0  0  0  0  0
  -10.5530   -2.3730  -13.9310 C   0  0  0  0  0  0
  -10.5420   -1.0570  -13.2030 C   0  0  0  0  0  0
  -14.6510   -1.5570  -15.3910 N   0  0  0  0  0  0
  -15.9740   -2.1350  -15.1820 C   0  0  2  0  0  0
  -16.4580   -2.8530  -16.4380 C   0  0  0  0  0  0
  -17.4370   -2.4440  -17.0620 O   0  0  0  0  0  0
  -16.9730   -1.0460  -14.7860 C   0  0  0  0  0  0
  -18.2990   -1.5470  -14.7850 O   0  0  0  0  0  0
  -15.7640   -3.9270  -16.8020 N   0  0  0  0  0  0
  -16.1220   -4.7020  -17.9840 C   0  0  2  0  0  0
  -15.1870   -5.8960  -18.1540 C   0  0  0  0  0  0
  -14.0470   -5.8950  -17.6880 O   0  0  0  0  0  0
  -16.0720   -3.8200  -19.2330 C   0  0  0  0  0  0
  -14.7630   -3.0660  -19.3940 C   0  0  0  0  0  0
  -14.8850   -1.9520  -20.4230 C   0  0  0  0  0  0
  -15.3370   -2.4510  -21.7190 N   0  0  0  0  0  0
  -14.5770   -3.1740  -22.5340 C   0  0  0  0  0  0
  -13.3330   -3.4800  -22.1890 N   0  0  0  0  0  0
  -15.0600   -3.5920  -23.6970 N   0  0  0  0  0  0
  -15.6780   -6.9400  -18.8380 N   0  0  0  0  0  0
  -14.9040   -8.1600  -19.0850 C   0  0  2  0  0  0
  -13.7600   -7.9310  -20.0670 C   0  0  0  0  0  0
  -13.9590   -7.3810  -21.1500 O   0  0  0  0  0  0
  -15.9360   -9.1210  -19.6810 C   0  0  0  0  0  0
  -16.9690   -8.2370  -20.2900 C   0  0  0  0  0  0
  -17.0280   -7.0110  -19.4220 C   0  0  0  0  0  0
  -12.5610   -8.3560  -19.6810 N   0  0  0  0  0  0
  -11.3860   -8.2000  -20.5290 C   0  0  2  0  0  0
  -11.5310   -8.9950  -21.8220 C   0  0  0  0  0  0
  -12.2550   -9.9890  -21.8890 O   0  0  0  0  0  0
  -10.1330   -8.6300  -19.7800 C   0  0  0  0  0  0
  -10.8280   -8.5500  -22.8740 N   0  0  0  0  0  0
  -10.8630   -9.2070  -24.1840 C   0  0  2  0  0  0
  -10.1690  -10.5650  -24.1700 C   0  0  0  0  0  0
   -9.6060  -10.9760  -23.1560 O   0  0  0  0  0  0
  -10.1080   -8.2300  -25.0900 C   0  0  0  0  0  0
   -9.2070   -7.4800  -24.1710 C   0  0  0  0  0  0
   -9.9440   -7.3730  -22.8650 C   0  0  0  0  0  0
  -10.2140  -11.2580  -25.3030 N   0  0  0  0  0  0
   -9.5890  -12.5700  -25.4230 C   0  0  2  0  0  0
   -8.6120  -12.6020  -26.5950 C   0  0  0  0  0  0
   -8.8100  -11.9450  -27.6170 O   0  0  0  0  0  0
  -10.6560  -13.6510  -25.6050 C   0  0  0  0  0  0
  -10.6380  -14.7120  -24.5180 C   0  0  0  0  0  0
  -12.0110  -15.3350  -24.3250 C   0  0  0  0  0  0
  -12.6070  -14.9620  -22.9770 C   0  0  0  0  0  0
  -13.4620  -13.7460  -23.0660 N   0  3  0  0  0  0
   -7.5330  -13.3840  -26.4450 N   0  0  0  0  0  0
   -6.5060  -13.5220  -27.4820 C   0  0  2  0  0  0
   -7.0120  -14.2850  -28.7020 C   0  0  0  0  0  0
   -8.0320  -14.9720  -28.6550 O   0  0  0  0  0  0
   -5.3970  -14.3110  -26.7800 C   0  0  0  0  0  0
   -6.0950  -15.0680  -25.7040 C   0  0  0  0  0  0
   -7.2330  -14.1950  -25.2530 C   0  0  0  0  0  0
   -6.2830  -14.1640  -29.8210 N   0  0  0  0  0  0
   -6.6380  -14.8360  -31.0740 C   0  0  2  0  0  0
   -6.4460  -16.3470  -30.9960 C   0  0  0  0  0  0
   -6.2130  -16.8980  -29.9200 O   0  0  0  0  0  0
   -5.6700  -14.2260  -32.0910 C   0  0  0  0  0  0
   -4.5000  -13.7830  -31.2820 C   0  0  0  0  0  0
   -5.0540  -13.3610  -29.9490 C   0  0  0  0  0  0
   -6.5460  -17.0110  -32.1430 N   0  0  0  0  0  0
   -6.3870  -18.4600  -32.2030 C   0  0  2  0  0  0
   -5.1300  -18.8360  -32.9820 C   0  0  0  0  0  0
   -4.5110  -19.8680  -32.7230 O   0  0  0  0  0  0
   -7.6140  -19.1020  -32.8520 C   0  0  0  0  0  0
   -7.9610  -18.4390  -34.0560 O   0  0  0  0  0  0
   -4.7590  -17.9910  -33.9390 N   0  0  0  0  0  0
   -3.5790  -18.2350  -34.7600 C   0  0  2  0  0  0
   -2.3350  -18.3910  -33.8900 C   0  0  0  0  0  0
   -1.7540  -19.4730  -33.8080 O   0  0  0  0  0  0
   -3.3780  -17.0920  -35.7550 C   0  0  0  0  0  0
   -2.6000  -17.5100  -36.8630 O   0  0  0  0  0  0
   -1.9340  -17.3030  -33.2420 N   0  0  0  0  0  0
   -0.7610  -17.3180  -32.3760 C   0  0  2  0  0  0
   -0.9600  -18.2660  -31.1990 C   0  0  0  0  0  0
   -2.0626  -18.3182  -30.5914 O   0  0  0  0  0  0
   -0.4540  -15.9130  -31.8780 C   0  0  0  0  0  0
   -0.0101  -19.0066  -30.8291 O   0  0  0  0  0  0
   -8.7730    3.1322   -4.6103 H   0  0  0  0  0  0
   -9.9585    3.3205   -5.9467 H   0  0  0  0  0  0
   -9.3709    4.7662   -5.0570 H   0  0  0  0  0  0
   -7.1345    4.3695   -5.8893 H   0  0  0  0  0  0
   -7.7221    2.9238   -6.7790 H   0  0  0  0  0  0
   -6.3748    4.7149   -8.1902 H   0  0  0  0  0  0
   -8.2351    6.7705   -9.2288 H   0  0  0  0  0  0
   -5.6151    5.6181  -10.3639 H   0  0  0  0  0  0
   -6.4520    7.0650  -11.0216 H   0  0  0  0  0  0
   -5.5707    6.8988   -8.1286 H   0  0  0  0  0  0
   -4.4708    7.4343   -9.4439 H   0  0  0  0  0  0
   -5.6403    9.3840   -9.8179 H   0  0  0  0  0  0
   -7.2012    8.6873   -9.2656 H   0  0  0  0  0  0
   -4.9136    9.1188   -7.3215 H   0  0  0  0  0  0
   -6.0145   10.4637   -7.7750 H   0  0  0  0  0  0
   -6.7361    9.3620   -5.7333 H   0  0  0  0  0  0
   -6.8300    7.7926   -6.6021 H   0  0  0  0  0  0
   -7.9310    9.1376   -7.0557 H   0  0  0  0  0  0
   -6.6979    3.8675  -10.7718 H   0  0  0  0  0  0
   -8.7268    3.9914  -12.9316 H   0  0  0  0  0  0
   -6.9188    1.6080  -12.2312 H   0  0  0  0  0  0
   -7.5966    2.0341  -13.8393 H   0  0  0  0  0  0
   -6.9750    4.7095  -14.3570 H   0  0  0  0  0  0
   -4.6605    1.8697  -12.1491 H   0  0  0  0  0  0
   -4.9242    5.9725  -14.8858 H   0  0  0  0  0  0
   -2.6085    3.1329  -12.6758 H   0  0  0  0  0  0
   -2.7358    5.1837  -14.0490 H   0  0  0  0  0  0
  -10.4649    2.6751  -13.4023 H   0  0  0  0  0  0
  -11.0640    0.5438  -11.4035 H   0  0  0  0  0  0
  -13.4762    1.5397  -11.0306 H   0  0  0  0  0  0
  -12.2407    4.2478  -11.4034 H   0  0  0  0  0  0
  -12.7469    3.3717  -12.8876 H   0  0  0  0  0  0
  -11.7496    1.3875   -9.2742 H   0  0  0  0  0  0
  -12.7372    2.8803   -9.1232 H   0  0  0  0  0  0
  -11.0775    2.9666   -9.8048 H   0  0  0  0  0  0
  -14.4985    4.8583  -12.0807 H   0  0  0  0  0  0
  -14.5048    4.0158  -10.4942 H   0  0  0  0  0  0
  -15.0110    3.1397  -11.9784 H   0  0  0  0  0  0
  -12.5511   -0.3517  -15.6581 H   0  0  0  0  0  0
  -11.7881   -3.0407  -15.5660 H   0  0  0  0  0  0
  -10.6213   -1.7427  -15.9908 H   0  0  0  0  0  0
  -11.0761   -3.1454  -13.3481 H   0  0  0  0  0  0
   -9.5308   -2.7120  -14.1548 H   0  0  0  0  0  0
   -9.6550   -0.4523  -13.4427 H   0  0  0  0  0  0
  -10.6181   -1.1801  -12.1126 H   0  0  0  0  0  0
  -14.4488   -0.9569  -16.2904 H   0  0  0  0  0  0
  -15.8516   -2.8607  -14.3645 H   0  0  0  0  0  0
  -16.7345   -0.6791  -13.7768 H   0  0  0  0  0  0
  -16.9115   -0.2138  -15.5027 H   0  0  0  0  0  0
  -19.1368   -0.8851  -14.5206 H   0  0  0  0  0  0
  -14.9019   -4.2268  -16.1881 H   0  0  0  0  0  0
  -17.1478   -5.0556  -17.8030 H   0  0  0  0  0  0
  -16.2030   -4.4450  -20.1287 H   0  0  0  0  0  0
  -16.8776   -3.0725  -19.1865 H   0  0  0  0  0  0
  -14.4758   -2.6202  -18.4303 H   0  0  0  0  0  0
  -13.9776   -3.7614  -19.7249 H   0  0  0  0  0  0
  -15.6115   -1.2051  -20.0703 H   0  0  0  0  0  0
  -13.9048   -1.4727  -20.5625 H   0  0  0  0  0  0
  -16.3574   -2.2327  -22.0670 H   0  0  0  0  0  0
  -12.9288   -3.1354  -21.2257 H   0  0  0  0  0  0
  -16.0909   -3.3404  -23.9868 H   0  0  0  0  0  0
  -14.4295   -4.1901  -24.3714 H   0  0  0  0  0  0
  -14.4386   -8.5031  -18.1492 H   0  0  0  0  0  0
  -15.4504   -9.7600  -20.4332 H   0  0  0  0  0  0
  -16.3560   -9.7496  -18.8820 H   0  0  0  0  0  0
  -16.6734   -7.9823  -21.3185 H   0  0  0  0  0  0
  -17.9365   -8.7602  -20.3055 H   0  0  0  0  0  0
  -17.7715   -7.1030  -18.6166 H   0  0  0  0  0  0
  -17.2257   -6.0967  -20.0008 H   0  0  0  0  0  0
  -12.4681   -8.8352  -18.6952 H   0  0  0  0  0  0
  -11.3339   -7.1269  -20.7652 H   0  0  0  0  0  0
  -10.0432   -8.0478  -18.8510 H   0  0  0  0  0  0
   -9.2496   -8.4523  -20.4109 H   0  0  0  0  0  0
  -10.2005   -9.7006  -19.5367 H   0  0  0  0  0  0
  -11.9052   -9.4008  -24.4776 H   0  0  0  0  0  0
   -9.5422   -8.7938  -25.8463 H   0  0  0  0  0  0
  -10.8264   -7.5642  -25.5906 H   0  0  0  0  0  0
   -8.2634   -8.0325  -24.0509 H   0  0  0  0  0  0
   -8.9986   -6.4856  -24.5925 H   0  0  0  0  0  0
  -10.5518   -6.4585  -22.8003 H   0  0  0  0  0  0
   -9.2699   -7.4273  -21.9975 H   0  0  0  0  0  0
  -10.7394  -10.8183  -26.1636 H   0  0  0  0  0  0
   -9.0428  -12.7220  -24.4804 H   0  0  0  0  0  0
  -11.6534  -13.1871  -25.5948 H   0  0  0  0  0  0
  -10.4994  -14.1627  -26.5661 H   0  0  0  0  0  0
   -9.9303  -15.5077  -24.7940 H   0  0  0  0  0  0
  -10.3253  -14.2570  -23.5666 H   0  0  0  0  0  0
  -12.6888  -14.9807  -25.1156 H   0  0  0  0  0  0
  -11.9273  -16.4305  -24.3777 H   0  0  0  0  0  0
  -13.2264  -15.7926  -22.6075 H   0  0  0  0  0  0
  -11.7967  -14.7619  -22.2605 H   0  0  0  0  0  0
  -13.8716  -13.5123  -22.0722 H   0  0  0  0  0  0
  -14.2878  -13.9291  -23.7692 H   0  0  0  0  0  0
  -12.8581  -12.8984  -23.4223 H   0  0  0  0  0  0
   -6.2079  -12.5280  -27.8468 H   0  0  0  0  0  0
   -4.9110  -14.9828  -27.5029 H   0  0  0  0  0  0
   -4.6524  -13.6122  -26.3709 H   0  0  0  0  0  0
   -6.4629  -16.0231  -26.1071 H   0  0  0  0  0  0
   -5.3938  -15.2638  -24.8794 H   0  0  0  0  0  0
   -6.9502  -13.5333  -24.4210 H   0  0  0  0  0  0
   -8.1230  -14.7773  -24.9722 H   0  0  0  0  0  0
   -7.7035  -14.6749  -31.2948 H   0  0  0  0  0  0
   -5.3886  -14.9884  -32.8323 H   0  0  0  0  0  0
   -6.1574  -13.3816  -32.6004 H   0  0  0  0  0  0
   -3.7928  -14.6184  -31.1721 H   0  0  0  0  0  0
   -4.0005  -12.9440  -31.7885 H   0  0  0  0  0  0
   -5.3101  -12.2916  -29.9205 H   0  0  0  0  0  0
   -4.3734  -13.5973  -29.1178 H   0  0  0  0  0  0
   -6.7538  -16.4420  -33.0612 H   0  0  0  0  0  0
   -6.2885  -18.7892  -31.1581 H   0  0  0  0  0  0
   -7.3985  -20.1561  -33.0807 H   0  0  0  0  0  0
   -8.4673  -19.0440  -32.1602 H   0  0  0  0  0  0
   -8.8249  -18.7827  -34.6438 H   0  0  0  0  0  0
   -5.3671  -17.0894  -34.1042 H   0  0  0  0  0  0
   -3.7816  -19.1762  -35.2921 H   0  0  0  0  0  0
   -4.3566  -16.7491  -36.1221 H   0  0  0  0  0  0
   -2.8608  -16.2588  -35.2567 H   0  0  0  0  0  0
   -2.3659  -16.7999  -37.6699 H   0  0  0  0  0  0
   -2.5104  -16.3751  -33.3712 H   0  0  0  0  0  0
    0.0650  -17.6841  -33.0035 H   0  0  0  0  0  0
   -2.1914  -19.0073  -29.7437 H   0  0  0  0  0  0
   -0.3132  -15.2418  -32.7380 H   0  0  0  0  0  0
    0.4643  -15.9310  -31.2728 H   0  0  0  0  0  0
   -1.2912  -15.5508  -31.2633 H   0  0  0  0  0  0
  1  2  1  0  0  0
  1117  1  0  0  0
  1118  1  0  0  0
  1119  1  0  0  0
  2  3  1  0  0  0
  2120  1  0  0  0
  2121  1  0  0  0
  3  4  2  0  0  0
  3  5  1  0  0  0
  5  6  1  0  0  0
  5122  1  0  0  0
  6  7  1  0  0  0
  6  9  1  0  0  0
  6123  1  0  0  0
  7  8  2  0  0  0
  7 14  1  0  0  0
  9 10  1  0  0  0
  9124  1  0  0  0
  9125  1  0  0  0
 10 11  1  0  0  0
 10126  1  0  0  0
 10127  1  0  0  0
 11 12  1  0  0  0
 11128  1  0  0  0
 11129  1  0  0  0
 12 13  1  0  0  0
 12130  1  0  0  0
 12131  1  0  0  0
 13132  1  0  0  0
 13133  1  0  0  0
 13134  1  0  0  0
 14 15  1  0  0  0
 14135  1  0  0  0
 15 16  1  0  0  0
 15 18  1  0  0  0
 15136  1  0  0  0
 16 17  2  0  0  0
 16 25  1  0  0  0
 18 19  1  0  0  0
 18137  1  0  0  0
 18138  1  0  0  0
 19 20  2  0  0  0
 19 21  1  0  0  0
 20 22  1  0  0  0
 20139  1  0  0  0
 21 23  2  0  0  0
 21140  1  0  0  0
 22 24  2  0  0  0
 22141  1  0  0  0
 23 24  1  0  0  0
 23142  1  0  0  0
 24143  1  0  0  0
 25 26  1  0  0  0
 25144  1  0  0  0
 26 27  1  0  0  0
 26 29  1  0  0  0
 26145  1  0  0  0
 27 28  2  0  0  0
 27 33  1  0  0  0
 29 30  1  0  0  0
 29 31  1  0  0  0
 29146  1  0  0  0
 30 32  1  0  0  0
 30147  1  0  0  0
 30148  1  0  0  0
 31149  1  0  0  0
 31150  1  0  0  0
 31151  1  0  0  0
 32152  1  0  0  0
 32153  1  0  0  0
 32154  1  0  0  0
 33 34  1  0  0  0
 33 39  1  0  0  0
 34 35  1  0  0  0
 34 37  1  0  0  0
 34155  1  0  0  0
 35 36  2  0  0  0
 35 40  1  0  0  0
 37 38  1  0  0  0
 37156  1  0  0  0
 37157  1  0  0  0
 38 39  1  0  0  0
 38158  1  0  0  0
 38159  1  0  0  0
 39160  1  0  0  0
 39161  1  0  0  0
 40 41  1  0  0  0
 40162  1  0  0  0
 41 42  1  0  0  0
 41 44  1  0  0  0
 41163  1  0  0  0
 42 43  2  0  0  0
 42 46  1  0  0  0
 44 45  1  0  0  0
 44164  1  0  0  0
 44165  1  0  0  0
 45166  1  0  0  0
 46 47  1  0  0  0
 46167  1  0  0  0
 47 48  1  0  0  0
 47 50  1  0  0  0
 47168  1  0  0  0
 48 49  2  0  0  0
 48 57  1  0  0  0
 50 51  1  0  0  0
 50169  1  0  0  0
 50170  1  0  0  0
 51 52  1  0  0  0
 51171  1  0  0  0
 51172  1  0  0  0
 52 53  1  0  0  0
 52173  1  0  0  0
 52174  1  0  0  0
 53 54  1  0  0  0
 53175  1  0  0  0
 54 55  2  0  0  0
 54 56  1  0  0  0
 55176  1  0  0  0
 56177  1  0  0  0
 56178  1  0  0  0
 57 58  1  0  0  0
 57 63  1  0  0  0
 58 59  1  0  0  0
 58 61  1  0  0  0
 58179  1  0  0  0
 59 60  2  0  0  0
 59 64  1  0  0  0
 61 62  1  0  0  0
 61180  1  0  0  0
 61181  1  0  0  0
 62 63  1  0  0  0
 62182  1  0  0  0
 62183  1  0  0  0
 63184  1  0  0  0
 63185  1  0  0  0
 64 65  1  0  0  0
 64186  1  0  0  0
 65 66  1  0  0  0
 65 68  1  0  0  0
 65187  1  0  0  0
 66 67  2  0  0  0
 66 69  1  0  0  0
 68188  1  0  0  0
 68189  1  0  0  0
 68190  1  0  0  0
 69 70  1  0  0  0
 69 75  1  0  0  0
 70 71  1  0  0  0
 70 73  1  0  0  0
 70191  1  0  0  0
 71 72  2  0  0  0
 71 76  1  0  0  0
 73 74  1  0  0  0
 73192  1  0  0  0
 73193  1  0  0  0
 74 75  1  0  0  0
 74194  1  0  0  0
 74195  1  0  0  0
 75196  1  0  0  0
 75197  1  0  0  0
 76 77  1  0  0  0
 76198  1  0  0  0
 77 78  1  0  0  0
 77 80  1  0  0  0
 77199  1  0  0  0
 78 79  2  0  0  0
 78 85  1  0  0  0
 80 81  1  0  0  0
 80200  1  0  0  0
 80201  1  0  0  0
 81 82  1  0  0  0
 81202  1  0  0  0
 81203  1  0  0  0
 82 83  1  0  0  0
 82204  1  0  0  0
 82205  1  0  0  0
 83 84  1  0  0  0
 83206  1  0  0  0
 83207  1  0  0  0
 84208  1  0  0  0
 84209  1  0  0  0
 84210  1  0  0  0
 85 86  1  0  0  0
 85 91  1  0  0  0
 86 87  1  0  0  0
 86 89  1  0  0  0
 86211  1  0  0  0
 87 88  2  0  0  0
 87 92  1  0  0  0
 89 90  1  0  0  0
 89212  1  0  0  0
 89213  1  0  0  0
 90 91  1  0  0  0
 90214  1  0  0  0
 90215  1  0  0  0
 91216  1  0  0  0
 91217  1  0  0  0
 92 93  1  0  0  0
 92 98  1  0  0  0
 93 94  1  0  0  0
 93 96  1  0  0  0
 93218  1  0  0  0
 94 95  2  0  0  0
 94 99  1  0  0  0
 96 97  1  0  0  0
 96219  1  0  0  0
 96220  1  0  0  0
 97 98  1  0  0  0
 97221  1  0  0  0
 97222  1  0  0  0
 98223  1  0  0  0
 98224  1  0  0  0
 99100  1  0  0  0
 99225  1  0  0  0
100101  1  0  0  0
100103  1  0  0  0
100226  1  0  0  0
101102  2  0  0  0
101105  1  0  0  0
103104  1  0  0  0
103227  1  0  0  0
103228  1  0  0  0
104229  1  0  0  0
105106  1  0  0  0
105230  1  0  0  0
106107  1  0  0  0
106109  1  0  0  0
106231  1  0  0  0
107108  2  0  0  0
107111  1  0  0  0
109110  1  0  0  0
109232  1  0  0  0
109233  1  0  0  0
110234  1  0  0  0
111112  1  0  0  0
111235  1  0  0  0
112113  1  0  0  0
112115  1  0  0  0
112236  1  0  0  0
113114  1  0  0  0
113116  2  0  0  0
114237  1  0  0  0
115238  1  0  0  0
115239  1  0  0  0
115240  1  0  0  0
M  CHG  3   1   1  13   1  84   1
M  END
> <s_m_source_file>
../2lcs_ligand.sdf

> <i_m_source_file_index>
1

> <s_epik_input>
W05IMytdW0NIMl1bQ0gyXVtDSDJdW0NIMl1bQ0BIXShbTkhdQyg9TylbQ0gyXVtOSDMrXSlDKD1PKVtOSF1bQ0BASF0oW0NIMl1jMVtjSF1bY0hdW2NIXVtjSF1bY0hdMSlDKD1PKVtOSF1bQ0BASF0oW0NAQEhdKFtDSDNdKVtDSDJdW0NIM10pQyg9TylOMltDQEBIXShbQ0gyXVtDSDJdW0NIMl0yKUMoPU8pW05IXVtDQEBIXShbQ0gyXVtPSF0pQyg9TylbTkhdW0NAQEhdKFtDSDJdW0NIMl1bQ0gyXVtOSF0vQyg9TlxbSF0pW05IMl0pQyg9TylOM1tDQEBIXShbQ0gyXVtDSDJdW0NIMl0zKUMoPU8pW05IXVtDQEBIXShbQ0gzXSlDKD1PKU40W0NAQEhdKFtDSDJdW0NIMl1bQ0gyXTQpQyg9TylbTkhdW0NAQEhdKFtDSDJdW0NIMl1bQ0gyXVtDSDJdW05IMytdKUMoPU8pTjVbQ0BASF0oW0NIMl1bQ0gyXVtDSDJdNSlDKD1PKU42W0NAQEhdKFtDSDJdW0NIMl1bQ0gyXTYpQyg9TylbTkhdW0NAQEhdKFtDSDJdW09IXSlDKD1PKVtOSF1bQ0BASF0oW0NIMl1bT0hdKUMoPU8pW05IXVtDQEBIXShbQ0gzXSlDKD1PKVtPSF0=

> <s_epik_cmdline>
J2VwaWtfYXBwJywgJy1pbWFlJywgJ2xpZ2FuZF9wcm8ubWFlJywgJy1vbWFlJywgJ2xpZ2FuZF9wcmVwLm1hZScsICctbXMnLCAnMScsICctcGgnLCAnNycsICctcGh0JywgJzAuNScsICctbnQn

> <s_epik_pKa_notes>
Molecule size exceeds maximum supported for generating protonation states

> <s_epik_Chemistry_Notes>
This compound has an imine and may undergo hydrolysis.

$$$$
