2lct_ligand
                    3D
 Schrodinger Suite 2020-3.
209212  0  0  1  0            999 V2000
    8.3760    3.1400   18.0930 N   0  3  0  0  0  0
    7.0130    2.9350   17.5220 C   0  0  2  0  0  0
    6.8470    3.8130   16.2790 C   0  0  0  0  0  0
    6.6310    3.3090   15.1730 O   0  0  0  0  0  0
    5.9580    3.3110   18.5770 C   0  0  0  0  0  0
    6.4520    4.4710   19.4360 C   0  0  0  0  0  0
    7.2660    5.2390   18.9470 O   0  0  0  0  0  0
    6.0210    4.5680   20.5690 O   0  0  0  0  0  0
    6.9490    5.1250   16.4810 N   0  0  0  0  0  0
    6.8060    6.1010   15.3930 C   0  0  2  0  0  0
    7.5860    5.7050   14.1340 C   0  0  0  0  0  0
    7.3320    6.2470   13.0590 O   0  0  0  0  0  0
    7.2730    7.4850   15.8590 C   0  0  2  0  0  0
    7.2890    8.3700   14.7480 O   0  0  0  0  0  0
    8.6820    7.3960   16.4500 C   0  0  0  0  0  0
    8.5350    4.7830   14.2640 N   0  0  0  0  0  0
    9.3300    4.3510   13.1090 C   0  0  2  0  0  0
    8.5900    3.2820   12.2980 C   0  0  0  0  0  0
    8.8980    3.0570   11.1250 O   0  0  0  0  0  0
   10.6810    3.7800   13.5670 C   0  0  0  0  0  0
   11.1690    4.5060   14.8270 C   0  0  0  0  0  0
   10.5470    3.8770   16.0670 C   0  0  0  0  0  0
   10.9880    2.8120   16.4610 O   0  0  0  0  0  0
    9.6190    4.4600   16.5980 O   0  0  0  0  0  0
    7.6240    2.6160   12.9290 N   0  0  0  0  0  0
    6.8660    1.5580   12.2560 C   0  0  2  0  0  0
    5.3940    1.9510   12.0820 C   0  0  0  0  0  0
    4.9440    2.9510   12.6380 O   0  0  0  0  0  0
    6.9860    0.2620   13.0740 C   0  0  0  0  0  0
    5.7710    0.0950   13.9930 C   0  0  0  0  0  0
    7.0760   -0.9380   12.1270 C   0  0  0  0  0  0
    4.6550    1.1580   11.3040 N   0  0  0  0  0  0
    3.2280    1.4260   11.0570 C   0  0  2  0  0  0
    2.4350    1.3390   12.3610 C   0  0  0  0  0  0
    1.8270    0.3080   12.6750 O   0  0  0  0  0  0
    2.6590    0.4240   10.0360 C   0  0  0  0  0  0
    3.6830   -0.6450    9.7750 C   0  0  0  0  0  0
    3.9580   -1.6010   10.7580 C   0  0  0  0  0  0
    4.3840   -0.6580    8.5670 C   0  0  0  0  0  0
    4.9380   -2.5680   10.5330 C   0  0  0  0  0  0
    5.3580   -1.6330    8.3390 C   0  0  0  0  0  0
    5.6350   -2.5830    9.3230 C   0  0  0  0  0  0
    6.6210   -3.5220    9.1110 O   0  0  0  0  0  0
    8.1780   -3.0550    9.2860 P   0  0  0  0  0  0
    8.4020   -1.5420    9.1930 O   0  0  0  0  0  0
    8.9370   -3.7110    8.1390 O   0  0  0  0  0  0
    8.7490   -3.5760   10.6060 O   0  0  0  0  0  0
    2.4490    2.4360   13.1010 N   0  0  0  0  0  0
    1.7470    2.5380   14.3780 C   0  0  2  0  0  0
    0.2360    2.3350   14.2120 C   0  0  0  0  0  0
   -0.5630    3.0640   14.7990 O   0  0  0  0  0  0
    2.0250    3.9220   14.9820 C   0  0  0  0  0  0
    1.5560    5.0240   14.0110 C   0  0  0  0  0  0
    2.5970    5.2690   12.9190 C   0  0  0  0  0  0
    2.5630    4.5620   11.9240 O   0  0  0  0  0  0
    3.4200    6.1590   13.0910 O   0  0  0  0  0  0
   -0.1470    1.3390   13.4180 N   0  0  0  0  0  0
   -1.5640    1.0470   13.1850 C   0  0  2  0  0  0
   -2.3790    2.3390   13.0550 C   0  0  0  0  0  0
   -3.2610    2.6130   13.8770 O   0  0  0  0  0  0
   -2.1150    0.1980   14.3380 C   0  0  0  0  0  0
   -3.5190    0.4010   14.4470 O   0  0  0  0  0  0
   -2.1050    3.1320   12.0500 N   0  0  0  0  0  0
   -2.8330    4.4160   11.8250 C   0  0  2  0  0  0
   -4.3500    4.2240   11.7750 C   0  0  0  0  0  0
   -5.0880    4.8210   12.5620 O   0  0  0  0  0  0
   -2.2970    4.9140   10.4750 C   0  0  0  0  0  0
   -0.9800    4.2370   10.2940 C   0  0  0  0  0  0
   -1.0750    2.8970   11.0230 C   0  0  0  0  0  0
   -4.8040    3.3960   10.8370 N   0  0  0  0  0  0
   -6.2340    3.1380   10.6690 C   0  0  2  0  0  0
   -6.5040    1.6460   10.5140 C   0  0  0  0  0  0
   -5.7460    0.9380    9.8510 O   0  0  0  0  0  0
   -6.7470    3.8750    9.4280 C   0  0  0  0  0  0
   -5.8790    5.0820    9.1670 C   0  0  0  0  0  0
   -5.1830    5.2090    7.9570 C   0  0  0  0  0  0
   -5.7640    6.0720   10.1460 C   0  0  0  0  0  0
   -4.3780    6.3360    7.7320 C   0  0  0  0  0  0
   -4.9610    7.1900    9.9210 C   0  0  0  0  0  0
   -4.2690    7.3240    8.7170 C   0  0  0  0  0  0
   -3.4890    8.4470    8.4970 O   0  0  0  0  0  0
   -4.1670    9.9180    8.7380 P   0  0  0  0  0  0
   -3.6520   10.9990    7.7820 O   0  0  0  0  0  0
   -3.8200   10.3020   10.1840 O   0  0  0  0  0  0
   -5.6890    9.8190    8.6190 O   0  0  0  0  0  0
   -7.5950    1.1810   11.1170 N   0  0  0  0  0  0
   -7.9660   -0.2300   11.0310 C   0  0  2  0  0  0
   -9.1210   -0.5500   11.9790 C   0  0  0  0  0  0
  -10.2930   -0.5390   11.5820 O   0  0  0  0  0  0
   -6.7570   -1.1100   11.3670 C   0  0  0  0  0  0
   -8.7860   -0.8320   13.2320 N   0  0  0  0  0  0
   -9.7970   -1.1520   14.2290 C   0  0  2  0  0  0
   -9.5500   -0.3730   15.5320 C   0  0  0  0  0  0
   -9.5030   -0.9570   16.6170 O   0  0  0  0  0  0
   -9.7860   -2.6670   14.4880 C   0  0  0  0  0  0
   -9.9490   -3.4270   13.1730 C   0  0  0  0  0  0
  -11.0850   -3.6290   12.7660 O   0  0  0  0  0  0
   -8.9420   -3.7890   12.5850 O   0  0  0  0  0  0
   -9.4000    0.9320   15.4420 N   0  0  0  0  0  0
   -9.1630    1.8040   16.6280 C   0  0  2  0  0  0
  -10.4740    2.1620   17.3310 C   0  0  0  0  0  0
  -11.4070    2.6440   16.6870 O   0  0  0  0  0  0
   -8.5140    3.0480   16.0180 C   0  0  0  0  0  0
   -9.0970    3.1540   14.6490 C   0  0  0  0  0  0
   -9.4490    1.7290   14.2020 C   0  0  0  0  0  0
  -10.5260    1.9240   18.6460 N   0  0  0  0  0  0
  -11.7200    2.2200   19.4470 C   0  0  2  0  0  0
  -12.8700    1.2550   19.1200 C   0  0  0  0  0  0
  -13.0200    0.8930   17.9620 O   0  0  0  0  0  0
  -12.1770    3.6720   19.2240 C   0  0  0  0  0  0
  -11.2340    4.6430   19.9510 C   0  0  0  0  0  0
  -10.0590    5.0170   19.0520 C   0  0  0  0  0  0
  -10.2100    5.9370   18.2650 O   0  0  0  0  0  0
   -9.0230    4.3830   19.1700 O   0  0  0  0  0  0
  -13.5830    0.8870   20.0400 O   0  0  0  0  0  0
    9.1327    2.8720   17.3409 H   0  0  0  0  0  0
    8.5008    2.5038   18.9816 H   0  0  0  0  0  0
    8.4994    4.1954   18.3774 H   0  0  0  0  0  0
    6.9099    1.8757   17.2439 H   0  0  0  0  0  0
    5.0267    3.6100   18.0738 H   0  0  0  0  0  0
    5.7625    2.4441   19.2252 H   0  0  0  0  0  0
    7.6450    6.0871   19.5362 H   0  0  0  0  0  0
    7.1477    5.4697   17.5065 H   0  0  0  0  0  0
    5.7300    6.0917   15.1646 H   0  0  0  0  0  0
    6.5682    7.9176   16.5844 H   0  0  0  0  0  0
    6.3632    8.5653   14.1870 H   0  0  0  0  0  0
    8.6758    6.7117   17.3112 H   0  0  0  0  0  0
    9.0059    8.3949   16.7777 H   0  0  0  0  0  0
    9.3769    7.0175   15.6859 H   0  0  0  0  0  0
    8.7204    4.3429   15.2549 H   0  0  0  0  0  0
    9.4685    5.2601   12.5054 H   0  0  0  0  0  0
   10.5692    2.7089   13.7914 H   0  0  0  0  0  0
   11.4247    3.9114   12.7672 H   0  0  0  0  0  0
   12.2643    4.4288   14.8936 H   0  0  0  0  0  0
   10.8786    5.5657   14.7753 H   0  0  0  0  0  0
   10.5577    2.3351   17.3540 H   0  0  0  0  0  0
    7.3996    2.8733   13.9747 H   0  0  0  0  0  0
    7.3157    1.4407   11.2590 H   0  0  0  0  0  0
    7.8948    0.3138   13.6916 H   0  0  0  0  0  0
    5.7051    0.9564   14.6739 H   0  0  0  0  0  0
    5.8795   -0.8289   14.5800 H   0  0  0  0  0  0
    4.8563    0.0376   13.3847 H   0  0  0  0  0  0
    7.9478   -0.8194   11.4667 H   0  0  0  0  0  0
    6.1608   -0.9950   11.5194 H   0  0  0  0  0  0
    7.1841   -1.8616   12.7147 H   0  0  0  0  0  0
    5.1387    0.2848   10.8419 H   0  0  0  0  0  0
    3.1790    2.4496   10.6572 H   0  0  0  0  0  0
    1.7429   -0.0312   10.4404 H   0  0  0  0  0  0
    2.4244    0.9492    9.0984 H   0  0  0  0  0  0
    3.4074   -1.5906   11.6986 H   0  0  0  0  0  0
    4.1715    0.0909    7.8040 H   0  0  0  0  0  0
    5.1592   -3.3102   11.3000 H   0  0  0  0  0  0
    5.9008   -1.6518    7.3940 H   0  0  0  0  0  0
    8.0558   -0.9881    8.3079 H   0  0  0  0  0  0
    8.3352   -3.2225   11.5619 H   0  0  0  0  0  0
    3.0203    3.2942   12.7173 H   0  0  0  0  0  0
    2.1453    1.7286   15.0074 H   0  0  0  0  0  0
    1.4822    4.0226   15.9334 H   0  0  0  0  0  0
    3.1044    4.0334   15.1622 H   0  0  0  0  0  0
    0.6120    4.7174   13.5368 H   0  0  0  0  0  0
    1.3999    5.9603   14.5668 H   0  0  0  0  0  0
    4.1819    6.3595   12.3233 H   0  0  0  0  0  0
    0.6277    0.7283   12.9313 H   0  0  0  0  0  0
   -1.6025    0.4918   12.2362 H   0  0  0  0  0  0
   -1.9123   -0.8649   14.1401 H   0  0  0  0  0  0
   -1.6273    0.4954   15.2780 H   0  0  0  0  0  0
   -4.0926   -0.1276   15.2226 H   0  0  0  0  0  0
   -2.6534    5.1103   12.6591 H   0  0  0  0  0  0
   -3.0024    4.6398    9.6768 H   0  0  0  0  0  0
   -2.1853    6.0079   10.5058 H   0  0  0  0  0  0
   -0.7890    4.0874    9.2211 H   0  0  0  0  0  0
   -0.1840    4.8624   10.7244 H   0  0  0  0  0  0
   -0.1286    2.6187   11.5098 H   0  0  0  0  0  0
   -1.3989    2.0824   10.3585 H   0  0  0  0  0  0
   -4.0747    2.9006   10.1792 H   0  0  0  0  0  0
   -6.7167    3.5088   11.5852 H   0  0  0  0  0  0
   -6.7094    3.2009    8.5596 H   0  0  0  0  0  0
   -7.7848    4.1984    9.5965 H   0  0  0  0  0  0
   -5.2668    4.4353    7.1938 H   0  0  0  0  0  0
   -6.3031    5.9705   11.0879 H   0  0  0  0  0  0
   -3.8381    6.4418    6.7910 H   0  0  0  0  0  0
   -4.8740    7.9604   10.6872 H   0  0  0  0  0  0
   -2.5751   11.2162    7.7262 H   0  0  0  0  0  0
   -2.7687   10.4256   10.4831 H   0  0  0  0  0  0
   -8.2224    1.8808   11.6885 H   0  0  0  0  0  0
   -8.2884   -0.3901    9.9916 H   0  0  0  0  0  0
   -5.9300   -0.8743   10.6810 H   0  0  0  0  0  0
   -7.0330   -2.1692   11.2583 H   0  0  0  0  0  0
   -6.4403   -0.9180   12.4028 H   0  0  0  0  0  0
   -7.7221   -0.8209   13.5114 H   0  0  0  0  0  0
  -10.7597   -0.8364   13.8004 H   0  0  0  0  0  0
   -8.8310   -2.9525   14.9533 H   0  0  0  0  0  0
  -10.6151   -2.9299   15.1614 H   0  0  0  0  0  0
  -11.2428   -4.1728   11.8229 H   0  0  0  0  0  0
   -8.5420    1.2997   17.3830 H   0  0  0  0  0  0
   -8.7573    3.9272   16.6326 H   0  0  0  0  0  0
   -7.4227    2.9138   15.9858 H   0  0  0  0  0  0
   -9.9972    3.7854   14.6817 H   0  0  0  0  0  0
   -8.3581    3.6039   13.9696 H   0  0  0  0  0  0
   -8.7183    1.3321   13.4819 H   0  0  0  0  0  0
  -10.4586    1.6719   13.7691 H   0  0  0  0  0  0
   -9.6352    1.4921   19.1255 H   0  0  0  0  0  0
  -11.4013    2.0726   20.4895 H   0  0  0  0  0  0
  -13.8361    0.2025   17.7029 H   0  0  0  0  0  0
  -12.1667    3.8984   18.1476 H   0  0  0  0  0  0
  -13.1969    3.7997   19.6158 H   0  0  0  0  0  0
  -11.7845    5.5567   20.2196 H   0  0  0  0  0  0
  -10.8486    4.1654   20.8639 H   0  0  0  0  0  0
   -8.1553    4.6248   18.5386 H   0  0  0  0  0  0
  1  2  1  0  0  0
  1116  1  0  0  0
  1117  1  0  0  0
  1118  1  0  0  0
  2  3  1  0  0  0
  2  5  1  0  0  0
  2119  1  0  0  0
  3  4  2  0  0  0
  3  9  1  0  0  0
  5  6  1  0  0  0
  5120  1  0  0  0
  5121  1  0  0  0
  6  7  1  0  0  0
  6  8  2  0  0  0
  7122  1  0  0  0
  9 10  1  0  0  0
  9123  1  0  0  0
 10 11  1  0  0  0
 10 13  1  0  0  0
 10124  1  0  0  0
 11 12  2  0  0  0
 11 16  1  0  0  0
 13 14  1  0  0  0
 13 15  1  0  0  0
 13125  1  0  0  0
 14126  1  0  0  0
 15127  1  0  0  0
 15128  1  0  0  0
 15129  1  0  0  0
 16 17  1  0  0  0
 16130  1  0  0  0
 17 18  1  0  0  0
 17 20  1  0  0  0
 17131  1  0  0  0
 18 19  2  0  0  0
 18 25  1  0  0  0
 20 21  1  0  0  0
 20132  1  0  0  0
 20133  1  0  0  0
 21 22  1  0  0  0
 21134  1  0  0  0
 21135  1  0  0  0
 22 23  1  0  0  0
 22 24  2  0  0  0
 23136  1  0  0  0
 25 26  1  0  0  0
 25137  1  0  0  0
 26 27  1  0  0  0
 26 29  1  0  0  0
 26138  1  0  0  0
 27 28  2  0  0  0
 27 32  1  0  0  0
 29 30  1  0  0  0
 29 31  1  0  0  0
 29139  1  0  0  0
 30140  1  0  0  0
 30141  1  0  0  0
 30142  1  0  0  0
 31143  1  0  0  0
 31144  1  0  0  0
 31145  1  0  0  0
 32 33  1  0  0  0
 32146  1  0  0  0
 33 34  1  0  0  0
 33 36  1  0  0  0
 33147  1  0  0  0
 34 35  2  0  0  0
 34 48  1  0  0  0
 36 37  1  0  0  0
 36148  1  0  0  0
 36149  1  0  0  0
 37 38  2  0  0  0
 37 39  1  0  0  0
 38 40  1  0  0  0
 38150  1  0  0  0
 39 41  2  0  0  0
 39151  1  0  0  0
 40 42  2  0  0  0
 40152  1  0  0  0
 41 42  1  0  0  0
 41153  1  0  0  0
 42 43  1  0  0  0
 43 44  1  0  0  0
 44 45  1  0  0  0
 44 46  2  0  0  0
 44 47  1  0  0  0
 45154  1  0  0  0
 47155  1  0  0  0
 48 49  1  0  0  0
 48156  1  0  0  0
 49 50  1  0  0  0
 49 52  1  0  0  0
 49157  1  0  0  0
 50 51  2  0  0  0
 50 57  1  0  0  0
 52 53  1  0  0  0
 52158  1  0  0  0
 52159  1  0  0  0
 53 54  1  0  0  0
 53160  1  0  0  0
 53161  1  0  0  0
 54 55  2  0  0  0
 54 56  1  0  0  0
 56162  1  0  0  0
 57 58  1  0  0  0
 57163  1  0  0  0
 58 59  1  0  0  0
 58 61  1  0  0  0
 58164  1  0  0  0
 59 60  2  0  0  0
 59 63  1  0  0  0
 61 62  1  0  0  0
 61165  1  0  0  0
 61166  1  0  0  0
 62167  1  0  0  0
 63 64  1  0  0  0
 63 69  1  0  0  0
 64 65  1  0  0  0
 64 67  1  0  0  0
 64168  1  0  0  0
 65 66  2  0  0  0
 65 70  1  0  0  0
 67 68  1  0  0  0
 67169  1  0  0  0
 67170  1  0  0  0
 68 69  1  0  0  0
 68171  1  0  0  0
 68172  1  0  0  0
 69173  1  0  0  0
 69174  1  0  0  0
 70 71  1  0  0  0
 70175  1  0  0  0
 71 72  1  0  0  0
 71 74  1  0  0  0
 71176  1  0  0  0
 72 73  2  0  0  0
 72 86  1  0  0  0
 74 75  1  0  0  0
 74177  1  0  0  0
 74178  1  0  0  0
 75 76  2  0  0  0
 75 77  1  0  0  0
 76 78  1  0  0  0
 76179  1  0  0  0
 77 79  2  0  0  0
 77180  1  0  0  0
 78 80  2  0  0  0
 78181  1  0  0  0
 79 80  1  0  0  0
 79182  1  0  0  0
 80 81  1  0  0  0
 81 82  1  0  0  0
 82 83  1  0  0  0
 82 84  1  0  0  0
 82 85  2  0  0  0
 83183  1  0  0  0
 84184  1  0  0  0
 86 87  1  0  0  0
 86185  1  0  0  0
 87 88  1  0  0  0
 87 90  1  0  0  0
 87186  1  0  0  0
 88 89  2  0  0  0
 88 91  1  0  0  0
 90187  1  0  0  0
 90188  1  0  0  0
 90189  1  0  0  0
 91 92  1  0  0  0
 91190  1  0  0  0
 92 93  1  0  0  0
 92 95  1  0  0  0
 92191  1  0  0  0
 93 94  2  0  0  0
 93 99  1  0  0  0
 95 96  1  0  0  0
 95192  1  0  0  0
 95193  1  0  0  0
 96 97  1  0  0  0
 96 98  2  0  0  0
 97194  1  0  0  0
 99100  1  0  0  0
 99105  1  0  0  0
100101  1  0  0  0
100103  1  0  0  0
100195  1  0  0  0
101102  2  0  0  0
101106  1  0  0  0
103104  1  0  0  0
103196  1  0  0  0
103197  1  0  0  0
104105  1  0  0  0
104198  1  0  0  0
104199  1  0  0  0
105200  1  0  0  0
105201  1  0  0  0
106107  1  0  0  0
106202  1  0  0  0
107108  1  0  0  0
107110  1  0  0  0
107203  1  0  0  0
108109  1  0  0  0
108115  2  0  0  0
109204  1  0  0  0
110111  1  0  0  0
110205  1  0  0  0
110206  1  0  0  0
111112  1  0  0  0
111207  1  0  0  0
111208  1  0  0  0
112113  2  0  0  0
112114  1  0  0  0
114209  1  0  0  0
M  CHG  1   1   1
M  END
> <s_m_source_file>
../2lct_ligand.sdf

> <i_m_source_file_index>
1

> <s_epik_input>
W09IXUMoPU8pW0NIMl1bQ0BIXShbTkgzK10pQyg9TylbTkhdW0NAQEhdKFtDQEhdKFtPSF0pW0NIM10pQyg9TylbTkhdW0NAQEhdKFtDSDJdW0NIMl1DKD1PKVtPSF0pQyg9TylbTkhdW0NAQEhdKFtDSF0oW0NIM10pW0NIM10pQyg9TylbTkhdW0NAQEhdKFtDSDJdYzFbY0hdW2NIXWMoW2NIXVtjSF0xKU9QKD1PKShbT0hdKVtPSF0pQyg9TylbTkhdW0NAQEhdKFtDSDJdW0NIMl1DKD1PKVtPSF0pQyg9TylbTkhdW0NAQEhdKFtDSDJdW09IXSlDKD1PKU4yW0NAQEhdKFtDSDJdW0NIMl1bQ0gyXTIpQyg9TylbTkhdW0NAQEhdKFtDSDJdYzNbY0hdW2NIXWMoW2NIXVtjSF0zKU9QKD1PKShbT0hdKVtPSF0pQyg9TylbTkhdW0NAQEhdKFtDSDNdKUMoPU8pW05IXVtDQEBIXShbQ0gyXUMoPU8pW09IXSlDKD1PKU40W0NAQEhdKFtDSDJdW0NIMl1bQ0gyXTQpQyg9TylbTkhdW0NASF0oQyg9TylbT0hdKVtDSDJdW0NIMl1DKD1PKVtPSF0=

> <s_epik_cmdline>
J2VwaWtfYXBwJywgJy1pbWFlJywgJ2xpZ2FuZF9wcm8ubWFlJywgJy1vbWFlJywgJ2xpZ2FuZF9wcmVwLm1hZScsICctbXMnLCAnMScsICctcGgnLCAnNycsICctcGh0JywgJzAuNScsICctbnQn

> <s_epik_pKa_notes>
Molecule size exceeds maximum supported for generating protonation states

$$$$
