2lgf_ligand
                    3D
 Schrodinger Suite 2020-3.
284286  0  0  1  0            999 V2000
   -4.5620    1.8560    1.2650 N   0  3  0  0  0  0
   -3.7780    2.4850    0.1590 C   0  0  2  0  0  0
   -2.3010    2.4920    0.5320 C   0  0  0  0  0  0
   -1.4370    2.6210   -0.3280 O   0  0  0  0  0  0
   -4.2810    3.9070   -0.0710 C   0  0  0  0  0  0
   -2.0140    2.3410    1.8200 N   0  0  0  0  0  0
   -0.6280    2.3160    2.2910 C   0  0  2  0  0  0
    0.2600    1.5320    1.3210 C   0  0  0  0  0  0
    1.4720    1.7160    1.2820 O   0  0  0  0  0  0
   -0.5680    1.6730    3.6870 C   0  0  0  0  0  0
   -0.6340    0.1600    3.5730 C   0  0  0  0  0  0
   -1.5480   -0.4580    2.6950 C   0  0  0  0  0  0
    0.2360   -0.6280    4.3340 C   0  0  0  0  0  0
   -1.5870   -1.8390    2.5860 C   0  0  0  0  0  0
    0.1950   -2.0210    4.2160 C   0  0  0  0  0  0
   -0.7180   -2.6240    3.3400 C   0  0  0  0  0  0
   -0.3580    0.6630    0.5420 N   0  0  0  0  0  0
    0.3790   -0.1450   -0.4190 C   0  0  2  0  0  0
    1.1760    0.7460   -1.3660 C   0  0  0  0  0  0
    2.3370    0.4610   -1.6890 O   0  0  0  0  0  0
   -0.6040   -1.0440   -1.2190 C   0  0  2  0  0  0
   -2.0490   -0.6110   -0.9490 C   0  0  0  0  0  0
   -0.4520   -2.5140   -0.8120 C   0  0  0  0  0  0
   -3.0150   -1.3080   -1.9030 C   0  0  0  0  0  0
    0.5550    1.8170   -1.8120 N   0  0  0  0  0  0
    1.2200    2.7190   -2.7310 C   0  0  2  0  0  0
    2.4810    3.2780   -2.0890 C   0  0  0  0  0  0
    3.5420    3.3150   -2.7150 O   0  0  0  0  0  0
    0.2640    3.8690   -3.1070 C   0  0  2  0  0  0
   -0.8640    3.3500   -4.0300 C   0  0  0  0  0  0
    1.0430    4.9830   -3.8110 C   0  0  0  0  0  0
   -1.9510    2.6470   -3.2200 C   0  0  0  0  0  0
    2.3700    3.6870   -0.8400 N   0  0  0  0  0  0
    3.5170    4.2260   -0.1360 C   0  0  2  0  0  0
    4.5900    3.1540    0.0240 C   0  0  0  0  0  0
    5.7840    3.4310   -0.0990 O   0  0  0  0  0  0
    3.0800    4.7380    1.2540 C   0  0  0  0  0  0
    4.2020    4.5930    2.2350 C   0  0  0  0  0  0
    5.3150    5.3510    2.2720 C   0  0  0  0  0  0
    4.3440    3.6080    3.2860 C   0  0  0  0  0  0
    6.1290    4.8920    3.2920 N   0  0  0  0  0  0
    5.5680    3.8130    3.9440 C   0  0  0  0  0  0
    3.5260    2.5700    3.7210 C   0  0  0  0  0  0
    5.9680    3.0000    5.0010 C   0  0  0  0  0  0
    3.9150    1.7460    4.7860 C   0  0  0  0  0  0
    5.1400    1.9610    5.4250 C   0  0  0  0  0  0
    4.1590    1.9470    0.3420 N   0  0  0  0  0  0
    5.0990    0.8710    0.5660 C   0  0  2  0  0  0
    6.0660    0.7660   -0.5940 C   0  0  0  0  0  0
    7.2710    0.6010   -0.3940 O   0  0  0  0  0  0
    4.3400   -0.4520    0.7270 C   0  0  0  0  0  0
    3.6170   -0.5030    2.0760 C   0  0  0  0  0  0
    2.5550   -1.6300    2.0870 C   0  0  0  0  0  0
    4.6310   -0.7560    3.1990 C   0  0  0  0  0  0
    5.5420    0.8540   -1.8050 N   0  0  0  0  0  0
    6.3930    0.7620   -2.9870 C   0  0  2  0  0  0
    7.2690    2.0010   -3.1210 C   0  0  0  0  0  0
    8.4320    1.9130   -3.5160 O   0  0  0  0  0  0
    5.5250    0.6120   -4.2370 C   0  0  0  0  0  0
    6.7000    3.1560   -2.8010 N   0  0  0  0  0  0
    7.4430    4.4040   -2.9010 C   0  0  2  0  0  0
    8.6340    4.4000   -1.9520 C   0  0  0  0  0  0
    9.6950    4.9240   -2.2810 O   0  0  0  0  0  0
    6.5360    5.5860   -2.5650 C   0  0  0  0  0  0
    5.5160    5.7900   -3.6880 C   0  0  0  0  0  0
    4.7580    7.1020   -3.4630 C   0  0  0  0  0  0
    4.6280    7.3770   -2.0320 N   0  0  0  0  0  0
    4.5770    8.6250   -1.5700 C   0  0  0  0  0  0
    4.6300    9.6320   -2.3980 N   0  0  0  0  0  0
    4.4720    8.8420   -0.2870 N   0  0  0  0  0  0
    8.4530    3.8220   -0.7720 N   0  0  0  0  0  0
    9.5280    3.7840    0.2090 C   0  0  2  0  0  0
   10.7420    3.0530   -0.3500 C   0  0  0  0  0  0
   11.8590    3.5680   -0.3130 O   0  0  0  0  0  0
    9.0400    3.0640    1.4720 C   0  0  0  0  0  0
   10.1280    3.1060    2.5490 C   0  0  0  0  0  0
    9.6460    2.3660    3.7940 C   0  0  0  0  0  0
   10.5960    2.5460    4.8860 N   0  0  0  0  0  0
   10.5730    1.7590    5.9560 C   0  0  0  0  0  0
    9.6890    0.8040    6.0440 N   0  0  0  0  0  0
   11.4340    1.9420    6.9200 N   0  0  0  0  0  0
   10.5200    1.8520   -0.8630 N   0  0  0  0  0  0
   11.6090    1.0660   -1.4220 C   0  0  2  0  0  0
   12.0860    1.6590   -2.7390 C   0  0  0  0  0  0
   13.2850    1.7020   -3.0190 O   0  0  0  0  0  0
   11.1540   -0.3740   -1.6400 C   0  0  0  0  0  0
   10.3890   -0.8740   -0.4060 C   0  0  0  0  0  0
   10.1720   -2.3900   -0.5060 C   0  0  0  0  0  0
   11.1790   -0.5500    0.8670 C   0  0  0  0  0  0
   11.1330    2.1030   -3.5510 N   0  0  0  0  0  0
   11.4540    2.6780   -4.8470 C   0  0  2  0  0  0
   12.2870    3.9470   -4.6760 C   0  0  0  0  0  0
   13.2010    4.2130   -5.4560 O   0  0  0  0  0  0
   10.1730    2.9990   -5.6160 C   0  0  0  0  0  0
   10.5270    3.4400   -7.0370 C   0  0  0  0  0  0
    9.2410    3.6270   -7.8460 C   0  0  0  0  0  0
    9.5910    4.0520   -9.2730 C   0  0  0  0  0  0
    8.3380    4.2090  -10.0660 N   0  3  0  0  0  0
   11.9610    4.7240   -3.6440 N   0  0  0  0  0  0
   12.6830    5.9640   -3.3720 C   0  0  2  0  0  0
   14.1510    5.6740   -3.0780 C   0  0  0  0  0  0
   15.0360    6.4310   -3.4750 O   0  0  0  0  0  0
   12.0560    6.6840   -2.1830 C   0  0  0  0  0  0
   12.7440    8.0350   -1.9940 C   0  0  0  0  0  0
   12.0520    8.7970   -0.8700 C   0  0  0  0  0  0
   12.7220   10.1640   -0.6780 C   0  0  0  0  0  0
   12.2400   11.1030   -1.7290 N   0  3  0  0  0  0
   14.4040    4.5680   -2.3840 N   0  0  0  0  0  0
   15.7700    4.1860   -2.0440 C   0  0  0  0  0  0
   16.5380    3.7340   -3.2830 C   0  0  0  0  0  0
   17.7340    3.9970   -3.4130 O   0  0  0  0  0  0
   15.8400    3.0560   -4.1910 N   0  0  0  0  0  0
   16.4620    2.5730   -5.4200 C   0  0  2  0  0  0
   16.9710    3.7420   -6.2550 C   0  0  0  0  0  0
   18.0880    3.7110   -6.7720 O   0  0  0  0  0  0
   15.4590    1.7580   -6.2280 C   0  0  0  0  0  0
   16.1650    1.1570   -7.4460 C   0  0  0  0  0  0
   15.2060    0.2230   -8.1690 C   0  0  0  0  0  0
   15.9060   -0.3970   -9.3840 C   0  0  0  0  0  0
   14.9760   -1.3350  -10.0770 N   0  3  0  0  0  0
   16.1450    4.7710   -6.3790 N   0  0  0  0  0  0
   16.5210    5.9450   -7.1540 C   0  0  2  0  0  0
   17.7740    6.5950   -6.5790 C   0  0  0  0  0  0
   17.7770    6.8860   -5.3940 O   0  0  0  0  0  0
   15.3750    6.9610   -7.1550 C   0  0  0  0  0  0
   15.6210    8.0270   -8.2450 C   0  0  0  0  0  0
   15.0470    7.5470   -9.5820 C   0  0  0  0  0  0
   15.2430    8.6290  -10.6380 C   0  0  0  0  0  0
   14.6850    8.1560  -11.9350 N   0  3  0  0  0  0
   18.7100    6.8000   -7.3360 O   0  0  0  0  0  0
   -4.2013    0.8305    1.4329 H   0  0  0  0  0  0
   -5.6269    1.8298    0.9907 H   0  0  0  0  0  0
   -4.4348    2.4448    2.1854 H   0  0  0  0  0  0
   -3.9178    1.8965   -0.7598 H   0  0  0  0  0  0
   -5.3476    3.8798   -0.3388 H   0  0  0  0  0  0
   -3.7094    4.3704   -0.8886 H   0  0  0  0  0  0
   -4.1487    4.4959    0.8486 H   0  0  0  0  0  0
   -2.8408    2.2336    2.5376 H   0  0  0  0  0  0
   -0.3001    3.3655    2.3247 H   0  0  0  0  0  0
    0.3736    1.9554    4.1806 H   0  0  0  0  0  0
   -1.4180    2.0253    4.2898 H   0  0  0  0  0  0
   -2.2266    0.1529    2.0996 H   0  0  0  0  0  0
    0.9437   -0.1578    5.0168 H   0  0  0  0  0  0
   -2.2988   -2.3116    1.9092 H   0  0  0  0  0  0
    0.8733   -2.6379    4.8055 H   0  0  0  0  0  0
   -0.7480   -3.7097    3.2486 H   0  0  0  0  0  0
   -1.4493    0.5555    0.6287 H   0  0  0  0  0  0
    1.0780   -0.7509    0.1763 H   0  0  0  0  0  0
   -0.3790   -0.9438   -2.2911 H   0  0  0  0  0  0
   -2.3230   -0.8718    0.0839 H   0  0  0  0  0  0
   -2.1381    0.4765   -1.0885 H   0  0  0  0  0  0
    0.5812   -2.8414   -0.9996 H   0  0  0  0  0  0
   -1.1452   -3.1314   -1.4022 H   0  0  0  0  0  0
   -0.6830   -2.6240    0.2578 H   0  0  0  0  0  0
   -4.0428   -0.9802   -1.6882 H   0  0  0  0  0  0
   -2.9417   -2.3972   -1.7680 H   0  0  0  0  0  0
   -2.7567   -1.0489   -2.9404 H   0  0  0  0  0  0
   -0.4739    2.0261   -1.4839 H   0  0  0  0  0  0
    1.4879    2.1185   -3.6128 H   0  0  0  0  0  0
   -0.1820    4.2768   -2.1879 H   0  0  0  0  0  0
   -1.3158    4.1962   -4.5683 H   0  0  0  0  0  0
   -0.4455    2.6359   -4.7546 H   0  0  0  0  0  0
    1.8426    5.3463   -3.1486 H   0  0  0  0  0  0
    0.3610    5.8119   -4.0513 H   0  0  0  0  0  0
    1.4852    4.5912   -4.7389 H   0  0  0  0  0  0
   -2.7393    2.2882   -3.8981 H   0  0  0  0  0  0
   -2.3835    3.3534   -2.4961 H   0  0  0  0  0  0
   -1.5132    1.7930   -2.6824 H   0  0  0  0  0  0
    1.3966    3.6164   -0.3326 H   0  0  0  0  0  0
    3.8973    5.0439   -0.7656 H   0  0  0  0  0  0
    2.7995    5.7992    1.1823 H   0  0  0  0  0  0
    2.2169    4.1535    1.6054 H   0  0  0  0  0  0
    5.5372    6.1869    1.6086 H   0  0  0  0  0  0
    2.5701    2.3953    3.2271 H   0  0  0  0  0  0
    6.9239    3.1747    5.4949 H   0  0  0  0  0  0
    3.2626    0.9376    5.1161 H   0  0  0  0  0  0
    5.4465    1.3192    6.2510 H   0  0  0  0  0  0
    3.0787    1.7621    0.4363 H   0  0  0  0  0  0
    5.6474    1.1347    1.4823 H   0  0  0  0  0  0
    3.5964   -0.5484   -0.0778 H   0  0  0  0  0  0
    5.0496   -1.2908    0.6729 H   0  0  0  0  0  0
    3.1240    0.4677    2.2330 H   0  0  0  0  0  0
    1.8249   -1.4536    1.2834 H   0  0  0  0  0  0
    2.0375   -1.6366    3.0576 H   0  0  0  0  0  0
    3.0483   -2.6002    1.9278 H   0  0  0  0  0  0
    5.3882    0.0419    3.1959 H   0  0  0  0  0  0
    5.1214   -1.7274    3.0382 H   0  0  0  0  0  0
    4.1105   -0.7639    4.1680 H   0  0  0  0  0  0
    4.4573    0.9975   -1.9181 H   0  0  0  0  0  0
    7.0260   -0.1248   -2.8353 H   0  0  0  0  0  0
    4.8929   -0.2829   -4.1392 H   0  0  0  0  0  0
    6.1707    0.5100   -5.1217 H   0  0  0  0  0  0
    4.8871    1.5011   -4.3492 H   0  0  0  0  0  0
    5.6552    3.1640   -2.4571 H   0  0  0  0  0  0
    7.7886    4.4567   -3.9440 H   0  0  0  0  0  0
    6.0052    5.3846   -1.6228 H   0  0  0  0  0  0
    7.1446    6.4958   -2.4558 H   0  0  0  0  0  0
    6.0387    5.8315   -4.6550 H   0  0  0  0  0  0
    4.8029    4.9524   -3.6923 H   0  0  0  0  0  0
    5.3066    7.9285   -3.9382 H   0  0  0  0  0  0
    3.7539    7.0260   -3.9058 H   0  0  0  0  0  0
    4.5704    6.5448   -1.3150 H   0  0  0  0  0  0
    4.7185    9.4508   -3.4794 H   0  0  0  0  0  0
    4.4272    7.9941    0.4124 H   0  0  0  0  0  0
    4.4283    9.8727    0.0947 H   0  0  0  0  0  0
    7.4786    3.3685   -0.5380 H   0  0  0  0  0  0
    9.7871    4.8331    0.4147 H   0  0  0  0  0  0
    8.1349    3.5612    1.8509 H   0  0  0  0  0  0
    8.8088    2.0161    1.2305 H   0  0  0  0  0  0
   11.0402    2.6237    2.1677 H   0  0  0  0  0  0
   10.3473    4.1523    2.8080 H   0  0  0  0  0  0
    8.6665    2.7622    4.0998 H   0  0  0  0  0  0
    9.5538    1.2930    3.5701 H   0  0  0  0  0  0
   11.3499    3.3453    4.8330 H   0  0  0  0  0  0
    8.9634    0.6496    5.2318 H   0  0  0  0  0  0
   12.1796    2.7474    6.8460 H   0  0  0  0  0  0
   11.4139    1.2909    7.8063 H   0  0  0  0  0  0
    9.4958    1.4507   -0.8626 H   0  0  0  0  0  0
   12.4199    1.1124   -0.6802 H   0  0  0  0  0  0
   10.4943   -0.4210   -2.5190 H   0  0  0  0  0  0
   12.0324   -1.0149   -1.8061 H   0  0  0  0  0  0
    9.4127   -0.3691   -0.3615 H   0  0  0  0  0  0
    9.6050   -2.6197   -1.4202 H   0  0  0  0  0  0
    9.6087   -2.7385    0.3722 H   0  0  0  0  0  0
   11.1468   -2.8984   -0.5417 H   0  0  0  0  0  0
   11.3331    0.5370    0.9362 H   0  0  0  0  0  0
   12.1545   -1.0572    0.8322 H   0  0  0  0  0  0
   10.6163   -0.8973    1.7461 H   0  0  0  0  0  0
   10.0846    2.0293   -3.2265 H   0  0  0  0  0  0
   12.0365    1.9091   -5.3757 H   0  0  0  0  0  0
    9.5365    2.1028   -5.6585 H   0  0  0  0  0  0
    9.6319    3.8091   -5.1052 H   0  0  0  0  0  0
   11.0789    4.3908   -6.9991 H   0  0  0  0  0  0
   11.1529    2.6716   -7.5142 H   0  0  0  0  0  0
    8.6836    2.6790   -7.8729 H   0  0  0  0  0  0
    8.6209    4.4037   -7.3746 H   0  0  0  0  0  0
   10.1318    5.0096   -9.2482 H   0  0  0  0  0  0
   10.2262    3.2842   -9.7389 H   0  0  0  0  0  0
    8.5895    4.5147  -11.0923 H   0  0  0  0  0  0
    7.7029    4.9768   -9.6000 H   0  0  0  0  0  0
    7.7973    3.2514  -10.0907 H   0  0  0  0  0  0
   11.1309    4.4163   -2.9911 H   0  0  0  0  0  0
   12.5935    6.5735   -4.2833 H   0  0  0  0  0  0
   10.9836    6.8391   -2.3723 H   0  0  0  0  0  0
   12.1839    6.0746   -1.2762 H   0  0  0  0  0  0
   13.8011    7.8751   -1.7353 H   0  0  0  0  0  0
   12.6784    8.6136   -2.9272 H   0  0  0  0  0  0
   10.9922    8.9445   -1.1253 H   0  0  0  0  0  0
   12.1274    8.2210    0.0641 H   0  0  0  0  0  0
   12.4660   10.5615    0.3152 H   0  0  0  0  0  0
   13.8134   10.0519   -0.7580 H   0  0  0  0  0  0
   12.7196   12.0835   -1.5925 H   0  0  0  0  0  0
   11.1486   11.2143   -1.6487 H   0  0  0  0  0  0
   12.4959   10.7046   -2.7219 H   0  0  0  0  0  0
   13.5610    3.9371   -2.0656 H   0  0  0  0  0  0
   16.2920    5.0469   -1.6009 H   0  0  0  0  0  0
   15.7498    3.3575   -1.3207 H   0  0  0  0  0  0
   14.7741    2.8617   -4.0009 H   0  0  0  0  0  0
   17.3056    1.9403   -5.1070 H   0  0  0  0  0  0
   15.0526    0.9508   -5.6009 H   0  0  0  0  0  0
   14.6393    2.4114   -6.5612 H   0  0  0  0  0  0
   16.4762    1.9646   -8.1249 H   0  0  0  0  0  0
   17.0504    0.5940   -7.1158 H   0  0  0  0  0  0
   14.8872   -0.5768   -7.4844 H   0  0  0  0  0  0
   14.3256    0.7901   -8.5055 H   0  0  0  0  0  0
   16.2056    0.3998  -10.0807 H   0  0  0  0  0  0
   16.7981   -0.9480   -9.0516 H   0  0  0  0  0  0
   15.4826   -1.7771  -10.9476 H   0  0  0  0  0  0
   14.0836   -0.7859  -10.4118 H   0  0  0  0  0  0
   14.6761   -2.1337   -9.3826 H   0  0  0  0  0  0
   15.1627    4.7291   -5.8857 H   0  0  0  0  0  0
   16.7235    5.5745   -8.1697 H   0  0  0  0  0  0
   14.4263    6.4434   -7.3603 H   0  0  0  0  0  0
   15.3195    7.4521   -6.1723 H   0  0  0  0  0  0
   15.1294    8.9675   -7.9556 H   0  0  0  0  0  0
   16.7023    8.1970   -8.3543 H   0  0  0  0  0  0
   15.5670    6.6300   -9.8962 H   0  0  0  0  0  0
   13.9732    7.3383   -9.4663 H   0  0  0  0  0  0
   14.7218    9.5457  -10.3248 H   0  0  0  0  0  0
   16.3166    8.8388  -10.7532 H   0  0  0  0  0  0
   14.8246    8.9342  -12.6998 H   0  0  0  0  0  0
   13.6117    7.9457  -11.8175 H   0  0  0  0  0  0
   15.2065    7.2387  -12.2458 H   0  0  0  0  0  0
   19.6311    7.2673   -6.9577 H   0  0  0  0  0  0
  1  2  1  0  0  0
  1131  1  0  0  0
  1132  1  0  0  0
  1133  1  0  0  0
  2  3  1  0  0  0
  2  5  1  0  0  0
  2134  1  0  0  0
  3  4  2  0  0  0
  3  6  1  0  0  0
  5135  1  0  0  0
  5136  1  0  0  0
  5137  1  0  0  0
  6  7  1  0  0  0
  6138  1  0  0  0
  7  8  1  0  0  0
  7 10  1  0  0  0
  7139  1  0  0  0
  8  9  2  0  0  0
  8 17  1  0  0  0
 10 11  1  0  0  0
 10140  1  0  0  0
 10141  1  0  0  0
 11 12  2  0  0  0
 11 13  1  0  0  0
 12 14  1  0  0  0
 12142  1  0  0  0
 13 15  2  0  0  0
 13143  1  0  0  0
 14 16  2  0  0  0
 14144  1  0  0  0
 15 16  1  0  0  0
 15145  1  0  0  0
 16146  1  0  0  0
 17 18  1  0  0  0
 17147  1  0  0  0
 18 19  1  0  0  0
 18 21  1  0  0  0
 18148  1  0  0  0
 19 20  2  0  0  0
 19 25  1  0  0  0
 21 22  1  0  0  0
 21 23  1  0  0  0
 21149  1  0  0  0
 22 24  1  0  0  0
 22150  1  0  0  0
 22151  1  0  0  0
 23152  1  0  0  0
 23153  1  0  0  0
 23154  1  0  0  0
 24155  1  0  0  0
 24156  1  0  0  0
 24157  1  0  0  0
 25 26  1  0  0  0
 25158  1  0  0  0
 26 27  1  0  0  0
 26 29  1  0  0  0
 26159  1  0  0  0
 27 28  2  0  0  0
 27 33  1  0  0  0
 29 30  1  0  0  0
 29 31  1  0  0  0
 29160  1  0  0  0
 30 32  1  0  0  0
 30161  1  0  0  0
 30162  1  0  0  0
 31163  1  0  0  0
 31164  1  0  0  0
 31165  1  0  0  0
 32166  1  0  0  0
 32167  1  0  0  0
 32168  1  0  0  0
 33 34  1  0  0  0
 33169  1  0  0  0
 34 35  1  0  0  0
 34 37  1  0  0  0
 34170  1  0  0  0
 35 36  2  0  0  0
 35 47  1  0  0  0
 37 38  1  0  0  0
 37171  1  0  0  0
 37172  1  0  0  0
 38 39  2  0  0  0
 38 40  1  0  0  0
 39 41  1  0  0  0
 39173  1  0  0  0
 40 42  2  0  0  0
 40 43  1  0  0  0
 41 42  1  0  0  0
 42 44  1  0  0  0
 43 45  2  0  0  0
 43174  1  0  0  0
 44 46  2  0  0  0
 44175  1  0  0  0
 45 46  1  0  0  0
 45176  1  0  0  0
 46177  1  0  0  0
 47 48  1  0  0  0
 47178  1  0  0  0
 48 49  1  0  0  0
 48 51  1  0  0  0
 48179  1  0  0  0
 49 50  2  0  0  0
 49 55  1  0  0  0
 51 52  1  0  0  0
 51180  1  0  0  0
 51181  1  0  0  0
 52 53  1  0  0  0
 52 54  1  0  0  0
 52182  1  0  0  0
 53183  1  0  0  0
 53184  1  0  0  0
 53185  1  0  0  0
 54186  1  0  0  0
 54187  1  0  0  0
 54188  1  0  0  0
 55 56  1  0  0  0
 55189  1  0  0  0
 56 57  1  0  0  0
 56 59  1  0  0  0
 56190  1  0  0  0
 57 58  2  0  0  0
 57 60  1  0  0  0
 59191  1  0  0  0
 59192  1  0  0  0
 59193  1  0  0  0
 60 61  1  0  0  0
 60194  1  0  0  0
 61 62  1  0  0  0
 61 64  1  0  0  0
 61195  1  0  0  0
 62 63  2  0  0  0
 62 71  1  0  0  0
 64 65  1  0  0  0
 64196  1  0  0  0
 64197  1  0  0  0
 65 66  1  0  0  0
 65198  1  0  0  0
 65199  1  0  0  0
 66 67  1  0  0  0
 66200  1  0  0  0
 66201  1  0  0  0
 67 68  1  0  0  0
 67202  1  0  0  0
 68 69  2  0  0  0
 68 70  1  0  0  0
 69203  1  0  0  0
 70204  1  0  0  0
 70205  1  0  0  0
 71 72  1  0  0  0
 71206  1  0  0  0
 72 73  1  0  0  0
 72 75  1  0  0  0
 72207  1  0  0  0
 73 74  2  0  0  0
 73 82  1  0  0  0
 75 76  1  0  0  0
 75208  1  0  0  0
 75209  1  0  0  0
 76 77  1  0  0  0
 76210  1  0  0  0
 76211  1  0  0  0
 77 78  1  0  0  0
 77212  1  0  0  0
 77213  1  0  0  0
 78 79  1  0  0  0
 78214  1  0  0  0
 79 80  2  0  0  0
 79 81  1  0  0  0
 80215  1  0  0  0
 81216  1  0  0  0
 81217  1  0  0  0
 82 83  1  0  0  0
 82218  1  0  0  0
 83 84  1  0  0  0
 83 86  1  0  0  0
 83219  1  0  0  0
 84 85  2  0  0  0
 84 90  1  0  0  0
 86 87  1  0  0  0
 86220  1  0  0  0
 86221  1  0  0  0
 87 88  1  0  0  0
 87 89  1  0  0  0
 87222  1  0  0  0
 88223  1  0  0  0
 88224  1  0  0  0
 88225  1  0  0  0
 89226  1  0  0  0
 89227  1  0  0  0
 89228  1  0  0  0
 90 91  1  0  0  0
 90229  1  0  0  0
 91 92  1  0  0  0
 91 94  1  0  0  0
 91230  1  0  0  0
 92 93  2  0  0  0
 92 99  1  0  0  0
 94 95  1  0  0  0
 94231  1  0  0  0
 94232  1  0  0  0
 95 96  1  0  0  0
 95233  1  0  0  0
 95234  1  0  0  0
 96 97  1  0  0  0
 96235  1  0  0  0
 96236  1  0  0  0
 97 98  1  0  0  0
 97237  1  0  0  0
 97238  1  0  0  0
 98239  1  0  0  0
 98240  1  0  0  0
 98241  1  0  0  0
 99100  1  0  0  0
 99242  1  0  0  0
100101  1  0  0  0
100103  1  0  0  0
100243  1  0  0  0
101102  2  0  0  0
101108  1  0  0  0
103104  1  0  0  0
103244  1  0  0  0
103245  1  0  0  0
104105  1  0  0  0
104246  1  0  0  0
104247  1  0  0  0
105106  1  0  0  0
105248  1  0  0  0
105249  1  0  0  0
106107  1  0  0  0
106250  1  0  0  0
106251  1  0  0  0
107252  1  0  0  0
107253  1  0  0  0
107254  1  0  0  0
108109  1  0  0  0
108255  1  0  0  0
109110  1  0  0  0
109256  1  0  0  0
109257  1  0  0  0
110111  2  0  0  0
110112  1  0  0  0
112113  1  0  0  0
112258  1  0  0  0
113114  1  0  0  0
113116  1  0  0  0
113259  1  0  0  0
114115  2  0  0  0
114121  1  0  0  0
116117  1  0  0  0
116260  1  0  0  0
116261  1  0  0  0
117118  1  0  0  0
117262  1  0  0  0
117263  1  0  0  0
118119  1  0  0  0
118264  1  0  0  0
118265  1  0  0  0
119120  1  0  0  0
119266  1  0  0  0
119267  1  0  0  0
120268  1  0  0  0
120269  1  0  0  0
120270  1  0  0  0
121122  1  0  0  0
121271  1  0  0  0
122123  1  0  0  0
122125  1  0  0  0
122272  1  0  0  0
123124  2  0  0  0
123130  1  0  0  0
125126  1  0  0  0
125273  1  0  0  0
125274  1  0  0  0
126127  1  0  0  0
126275  1  0  0  0
126276  1  0  0  0
127128  1  0  0  0
127277  1  0  0  0
127278  1  0  0  0
128129  1  0  0  0
128279  1  0  0  0
128280  1  0  0  0
129281  1  0  0  0
129282  1  0  0  0
129283  1  0  0  0
130284  1  0  0  0
M  CHG  5   1   1  98   1 107   1 120   1 129   1
M  END
> <s_m_source_file>
../2lgf_ligand.sdf

> <i_m_source_file_index>
1

> <s_epik_input>
W2NIXTFbY0hdW2NIXVtjSF1bY0hdYzFbQ0gyXVtDQEhdKFtOSF1DKD1PKVtDQEBIXShbTkgzK10pW0NIM10pQyg9TylbTkhdW0NAQEhdKFtDQEBIXShbQ0gzXSlbQ0gyXVtDSDNdKUMoPU8pW05IXVtDQEBIXShbQ0BASF0oW0NIM10pW0NIMl1bQ0gzXSlDKD1PKVtOSF1bQ0BASF0oW0NIMl1jMltjSF1bbkhdYyhjMjMpW2NIXVtjSF1bY0hdW2NIXTMpQyg9TylbTkhdW0NAQEhdKFtDSDJdW0NIXShbQ0gzXSlbQ0gzXSlDKD1PKVtOSF1bQ0BASF0oW0NIM10pQyg9TylbTkhdW0NAQEhdKFtDSDJdW0NIMl1bQ0gyXVtOSF0vQyg9TlxbSF0pW05IMl0pQyg9TylbTkhdW0NAQEhdKFtDSDJdW0NIMl1bQ0gyXVtOSF0vQyg9TlxbSF0pW05IMl0pQyg9TylbTkhdW0NAQEhdKFtDSDJdW0NIXShbQ0gzXSlbQ0gzXSlDKD1PKVtOSF1bQ0BASF0oW0NIMl1bQ0gyXVtDSDJdW0NIMl1bTkgzK10pQyg9TylbTkhdW0NAQEhdKFtDSDJdW0NIMl1bQ0gyXVtDSDJdW05IMytdKUMoPU8pW05IXVtDSDJdQyg9TylbTkhdW0NAQEhdKFtDSDJdW0NIMl1bQ0gyXVtDSDJdW05IMytdKUMoPU8pW05IXVtDQEhdKEMoPU8pW09IXSlbQ0gyXVtDSDJdW0NIMl1bQ0gyXVtOSDMrXQ==

> <s_epik_cmdline>
J2VwaWtfYXBwJywgJy1pbWFlJywgJ2xpZ2FuZF9wcm8ubWFlJywgJy1vbWFlJywgJ2xpZ2FuZF9wcmVwLm1hZScsICctbXMnLCAnMScsICctcGgnLCAnNycsICctcGh0JywgJzAuNScsICctbnQn

> <s_epik_pKa_notes>
Molecule size exceeds maximum supported for generating protonation states

> <s_epik_Chemistry_Notes>
This compound has an imine and may undergo hydrolysis.

$$$$
