2lh8_ligand
                    3D
 Schrodinger Suite 2020-3.
 38 39  0  0  1  0            999 V2000
   -7.1500    5.3450    8.5870 C   0  0  0  0  0  0
  -11.0360    7.8780    9.6970 N   0  0  0  0  0  0
  -15.0340    9.4520    6.9150 C   0  0  0  0  0  0
  -15.5680   12.6010    4.1090 O   0  0  0  0  0  0
  -15.6710   11.1830    3.9710 C   0  0  0  0  0  0
  -14.2560   10.5830    3.9690 C   0  0  0  0  0  0
  -11.6570   10.2500    6.7740 C   0  0  0  0  0  0
  -12.2410   11.5110    5.7530 S   0  0  0  0  0  0
  -13.6330   10.6060    5.3550 C   0  0  2  0  0  0
  -13.7300    9.5110    6.1700 C   0  0  1  0  0  0
  -12.4970    9.1550    6.7340 N   0  0  3  0  0  0
  -12.1280    7.7370    6.9750 C   0  0  0  0  0  0
  -10.2990    7.2850    8.7230 C   0  0  0  0  0  0
   -9.1620    6.6660    9.1130 N   0  0  0  0  0  0
   -8.3880    6.1120    8.1540 C   0  0  0  0  0  0
   -8.6820    6.1560    6.8370 N   0  0  0  0  0  0
   -9.8670    6.6920    6.4720 C   0  0  0  0  0  0
  -10.7180    7.3100    7.3900 C   0  0  0  0  0  0
   -7.0474    5.4018    9.6807 H   0  0  0  0  0  0
   -6.2610    5.7854    8.1119 H   0  0  0  0  0  0
   -7.2454    4.2925    8.2818 H   0  0  0  0  0  0
  -10.6921    7.8492   10.7415 H   0  0  0  0  0  0
  -11.9770    8.3872    9.4416 H   0  0  0  0  0  0
  -15.8492    9.7810    6.2538 H   0  0  0  0  0  0
  -14.9848   10.1127    7.7931 H   0  0  0  0  0  0
  -15.2223    8.4192    7.2433 H   0  0  0  0  0  0
  -16.4778   13.2189    4.1322 H   0  0  0  0  0  0
  -16.2488   10.7737    4.8128 H   0  0  0  0  0  0
  -16.1797   10.9426    3.0258 H   0  0  0  0  0  0
  -14.3012    9.5384    3.6274 H   0  0  0  0  0  0
  -13.6127   11.1630    3.2909 H   0  0  0  0  0  0
  -10.6562    9.9404    6.4384 H   0  0  0  0  0  0
  -11.5998   10.6142    7.8104 H   0  0  0  0  0  0
  -14.6514   10.9288    5.6172 H   0  0  0  0  0  0
  -13.7640    8.6215    5.5238 H   0  0  0  0  0  0
  -12.7495    7.3291    7.7858 H   0  0  0  0  0  0
  -12.2938    7.1539    6.0571 H   0  0  0  0  0  0
  -10.1688    6.6402    5.4259 H   0  0  0  0  0  0
  1 15  1  0  0  0
  1 19  1  0  0  0
  1 20  1  0  0  0
  1 21  1  0  0  0
  2 13  1  0  0  0
  2 22  1  0  0  0
  2 23  1  0  0  0
  3 10  1  0  0  0
  3 24  1  0  0  0
  3 25  1  0  0  0
  3 26  1  0  0  0
  4  5  1  0  0  0
  4 27  1  0  0  0
  5  6  1  0  0  0
  5 28  1  0  0  0
  5 29  1  0  0  0
  6  9  1  0  0  0
  6 30  1  0  0  0
  6 31  1  0  0  0
  7  8  1  0  0  0
  7 11  1  0  0  0
  7 32  1  0  0  0
  7 33  1  0  0  0
  8  9  1  0  0  0
  9 10  1  0  0  0
  9 34  1  0  0  0
 10 11  1  0  0  0
 10 35  1  0  0  0
 11 12  1  0  0  0
 12 18  1  0  0  0
 12 36  1  0  0  0
 12 37  1  0  0  0
 13 14  2  0  0  0
 13 18  1  0  0  0
 14 15  1  0  0  0
 15 16  2  0  0  0
 16 17  1  0  0  0
 17 18  2  0  0  0
 17 38  1  0  0  0
M  END
> <s_m_source_file>
../2lh8_ligand.sdf

> <i_m_source_file_index>
1

> <s_epik_input>
W05IMl1jMW5jKFtDSDNdKW5bY0hdYzFbQ0gyXVtOQEgrXShbQ0BIXTJbQ0gzXSlbQ0gyXVNbQ0BIXTJbQ0gyXVtDSDJdW09IXQ==

> <s_epik_cmdline>
J2VwaWtfYXBwJywgJy1pbWFlJywgJ2xpZ2FuZF9wcm8ubWFlJywgJy1vbWFlJywgJ2xpZ2FuZF9wcmVwLm1hZScsICctbXMnLCAnMScsICctcGgnLCAnNycsICctcGh0JywgJzAuNScsICctbnQn

> <r_lp_tautomer_probability>
0.999999583200174

> <r_epik_Ionization_Penalty>
  0.1220

> <r_epik_Ionization_Penalty_Charging>
  0.0000

> <r_epik_Ionization_Penalty_Neutral>
  0.1220

> <r_epik_State_Penalty>
  0.1113

> <r_epik_Charging_Adjusted_Penalty>
0.111326024247418

> <i_epik_Tot_Q>
0

> <i_epik_Tot_abs_Q>
0

> <s_epik_Chemistry_Notes>
This compound contains an acetal/aminal-like group ( X-CH(R)-Y where X, Y are N, S, or O) that may be acid/base labile, releasing an aldehyde.

$$$$
