2lha_ligand
                    3D
 Schrodinger Suite 2020-3.
 48 48  0  0  1  0            999 V2000
   13.6370    2.1310  -10.4540 C   0  0  2  0  0  0
   15.0160    1.6920  -10.9690 C   0  0  1  0  0  0
   14.9630    0.2060  -11.4040 C   0  0  1  0  0  0
   13.9360    0.0560  -12.5330 C   0  0  2  0  0  0
   12.5490    0.5030  -12.0500 C   0  0  1  0  0  0
   12.5950    1.9600  -11.5710 C   0  0  1  0  0  0
   13.6520    3.5080  -10.0540 O   0  0  0  0  0  0
   13.2490    3.9250   -8.5410 P   0  0  0  0  0  0
   14.0510    3.2430   -7.4960 O   0  0  0  0  0  0
   11.6890    3.5830   -8.3870 O   0  5  0  0  0  0
   13.3780    5.5190   -8.4470 O   0  0  0  0  0  0
   15.4320    2.4860  -12.0730 O   0  0  0  0  0  0
   16.7830    3.3550  -11.9910 P   0  0  0  0  0  0
   16.9730    3.8620  -10.6080 O   0  0  0  0  0  0
   17.9780    2.3750  -12.4290 O   0  5  0  0  0  0
   16.6190    4.5350  -13.0570 O   0  0  0  0  0  0
   16.2400   -0.2100  -11.8850 O   0  0  0  0  0  0
   17.0020   -1.4530  -11.1990 P   0  0  0  0  0  0
   16.1170   -2.6410  -11.2320 O   0  0  0  0  0  0
   17.3270   -0.9850   -9.6950 O   0  5  0  0  0  0
   18.3710   -1.7160  -11.9950 O   0  0  0  0  0  0
   13.8570   -1.3110  -12.9400 O   0  0  0  0  0  0
   14.1910   -1.7240  -14.4620 P   0  0  0  0  0  0
   15.5440   -1.2440  -14.8260 O   0  0  0  0  0  0
   13.0400   -1.0130  -15.3310 O   0  5  0  0  0  0
   14.0550   -3.3190  -14.6010 O   0  0  0  0  0  0
   11.6050    0.3920  -13.1090 O   0  0  0  0  0  0
   10.3040   -0.5440  -12.9610 P   0  0  0  0  0  0
   10.7190   -1.9350  -12.6750 O   0  0  0  0  0  0
    9.4310    0.0690  -11.7510 O   0  5  0  0  0  0
    9.4700   -0.4390  -14.3240 O   0  0  0  0  0  0
   11.2990    2.3530  -11.1220 O   0  0  0  0  0  0
   10.5140    3.5660  -11.8280 P   0  0  0  0  0  0
    9.1820    3.8020  -11.2080 O   0  0  0  0  0  0
   10.3940    3.0980  -13.3620 O   0  5  0  0  0  0
   11.4370    4.8740  -11.7460 O   0  0  0  0  0  0
   13.3777    1.5660   -9.5465 H   0  0  0  0  0  0
   15.7791    1.8820  -10.1999 H   0  0  0  0  0  0
   14.7441   -0.4586  -10.5552 H   0  0  0  0  0  0
   14.2588    0.6222  -13.4191 H   0  0  0  0  0  0
   12.1845   -0.1672  -11.2576 H   0  0  0  0  0  0
   12.8244    2.6429  -12.4023 H   0  0  0  0  0  0
   14.3657    5.9965   -8.5267 H   0  0  0  0  0  0
   15.8435    5.3018  -12.9137 H   0  0  0  0  0  0
   18.3426   -2.0445  -13.0444 H   0  0  0  0  0  0
   14.7596   -3.9791  -14.0739 H   0  0  0  0  0  0
    9.9045   -0.8086  -15.2645 H   0  0  0  0  0  0
   11.6377    5.3454  -10.7726 H   0  0  0  0  0  0
  1  2  1  0  0  0
  1  6  1  0  0  0
  1  7  1  0  0  0
  1 37  1  0  0  0
  2  3  1  0  0  0
  2 12  1  0  0  0
  2 38  1  0  0  0
  3  4  1  0  0  0
  3 17  1  0  0  0
  3 39  1  0  0  0
  4  5  1  0  0  0
  4 22  1  0  0  0
  4 40  1  0  0  0
  5  6  1  0  0  0
  5 27  1  0  0  0
  5 41  1  0  0  0
  6 32  1  0  0  0
  6 42  1  0  0  0
  7  8  1  0  0  0
  8  9  2  0  0  0
  8 10  1  0  0  0
  8 11  1  0  0  0
 11 43  1  0  0  0
 12 13  1  0  0  0
 13 14  2  0  0  0
 13 15  1  0  0  0
 13 16  1  0  0  0
 16 44  1  0  0  0
 17 18  1  0  0  0
 18 19  2  0  0  0
 18 20  1  0  0  0
 18 21  1  0  0  0
 21 45  1  0  0  0
 22 23  1  0  0  0
 23 24  2  0  0  0
 23 25  1  0  0  0
 23 26  1  0  0  0
 26 46  1  0  0  0
 27 28  1  0  0  0
 28 29  2  0  0  0
 28 30  1  0  0  0
 28 31  1  0  0  0
 31 47  1  0  0  0
 32 33  1  0  0  0
 33 34  2  0  0  0
 33 35  1  0  0  0
 33 36  1  0  0  0
 36 48  1  0  0  0
M  CHG  6  10  -1  15  -1  20  -1  25  -1  30  -1  35  -1
M  END
> <s_m_source_file>
../2lha_ligand.sdf

> <i_m_source_file_index>
1

> <s_epik_input>
Tz1QKFtPSF0pKFtPSF0pT1tDQEBIXTFbQ0BIXShPUCg9TykoW09IXSlbT0hdKVtDQEhdKE9QKD1PKShbT0hdKVtPSF0pW0NAQEhdKE9QKD1PKShbT0hdKVtPSF0pW0NASF0oT1AoPU8pKFtPSF0pW09IXSlbQ0BIXTFPUCg9TykoW09IXSlbT0hd

> <s_epik_cmdline>
J2VwaWtfYXBwJywgJy1pbWFlJywgJ2xpZ2FuZF9wcm8ubWFlJywgJy1vbWFlJywgJ2xpZ2FuZF9wcmVwLm1hZScsICctbXMnLCAnMScsICctcGgnLCAnNycsICctcGh0JywgJzAuNScsICctbnQn

> <r_lp_tautomer_probability>
1

> <r_epik_Ionization_Penalty>
  2.1143

> <r_epik_Ionization_Penalty_Charging>
  0.0007

> <r_epik_Ionization_Penalty_Neutral>
  2.1136

> <r_epik_State_Penalty>
 -0.0000

> <r_epik_Charging_Adjusted_Penalty>
0.000707617278583297

> <i_epik_Tot_Q>
-6

> <i_epik_Tot_abs_Q>
6

$$$$
