2liq_ligand
                    3D
 Schrodinger Suite 2020-3.
 80 82  0  0  1  0            999 V2000
   59.3340  -11.9570   22.3000 C   0  0  1  0  0  0
   58.6860  -11.8700   23.6920 C   0  0  1  0  0  0
   58.7650  -13.2370   24.3930 C   0  0  2  0  0  0
   58.1510  -14.3440   23.5210 C   0  0  1  0  0  0
   58.7300  -14.3410   22.0970 C   0  0  1  0  0  0
   57.9870  -15.2960   21.1620 C   0  0  0  0  0  0
   58.8930   -9.6760   24.8050 C   0  0  0  0  0  0
   59.8230   -8.7930   25.6440 C   0  0  0  0  0  0
   59.3840  -10.8730   24.5080 N   0  0  0  0  0  0
   58.0670  -13.1900   25.6680 O   0  0  0  0  0  0
   58.4420  -15.6170   24.1390 O   0  0  0  0  0  0
   58.6220  -12.9760   21.5270 O   0  0  0  0  0  0
   58.4020  -15.0310   19.8040 O   0  0  0  0  0  0
   57.7790   -9.3030   24.4430 O   0  0  0  0  0  0
   61.0960   -9.0140   18.1540 C   0  0  2  0  0  0
   59.7010   -9.6630   17.9660 C   0  0  1  0  0  0
   59.0030   -9.9650   19.3110 C   0  0  2  0  0  0
   59.9530  -10.6000   20.3350 C   0  0  1  0  0  0
   61.2220   -9.7640   20.4980 C   0  0  1  0  0  0
   62.2320  -10.2970   21.5190 C   0  0  0  0  0  0
   58.5550   -8.9270   15.8850 C   0  0  0  0  0  0
   57.7930   -7.7550   15.2190 C   0  0  0  0  0  0
   58.8620   -8.7590   17.1680 N   0  0  0  0  0  0
   61.8190   -9.0190   16.8750 O   0  0  0  0  0  0
   57.8910  -10.9230   19.1120 O   0  0  0  0  0  0
   59.2510  -10.6540   21.6300 O   0  0  0  0  0  0
   61.8740   -9.7240   19.1760 O   0  0  0  0  0  0
   63.3470   -9.3860   21.5900 O   0  0  0  0  0  0
   58.8610   -9.9470   15.2690 O   0  0  0  0  0  0
   63.1450   -8.3880   16.9300 C   0  0  0  0  0  0
   56.5670  -10.3680   18.7820 C   0  0  1  0  0  0
   55.6090  -11.5180   18.3750 C   0  0  2  0  0  0
   55.2790  -12.3930   19.5960 C   0  0  1  0  0  0
   54.6960  -11.5530   20.7320 C   0  0  1  0  0  0
   55.6900  -10.4380   21.1130 C   0  0  2  0  0  0
   55.2390   -9.5350   22.2560 C   0  0  0  0  0  0
   56.2140  -12.3600   17.3440 O   0  0  0  0  0  0
   54.3110  -13.4130   19.2460 O   0  0  0  0  0  0
   53.4080  -11.0320   20.3160 O   0  0  0  0  0  0
   56.0140   -9.6060   19.9270 O   0  0  0  0  0  0
   60.3987  -12.2307   22.3376 H   0  0  0  0  0  0
   57.6422  -11.5352   23.6004 H   0  0  0  0  0  0
   59.8164  -13.4690   24.6182 H   0  0  0  0  0  0
   57.0586  -14.2240   23.4724 H   0  0  0  0  0  0
   59.7864  -14.6417   22.1568 H   0  0  0  0  0  0
   58.2294  -16.3348   21.4308 H   0  0  0  0  0  0
   56.9032  -15.1354   21.2595 H   0  0  0  0  0  0
   60.7591   -9.3343   25.8458 H   0  0  0  0  0  0
   59.3314   -8.5432   26.5958 H   0  0  0  0  0  0
   60.0460   -7.8677   25.0926 H   0  0  0  0  0  0
   60.3803  -11.0969   24.9170 H   0  0  0  0  0  0
   58.3652  -12.4565   26.4316 H   0  0  0  0  0  0
   58.1085  -15.8180   25.1678 H   0  0  0  0  0  0
   57.9787  -15.6174   18.9752 H   0  0  0  0  0  0
   61.0150   -7.9711   18.4942 H   0  0  0  0  0  0
   59.8081  -10.6069   17.4114 H   0  0  0  0  0  0
   58.6077   -9.0128   19.6945 H   0  0  0  0  0  0
   60.2282  -11.6183   20.0231 H   0  0  0  0  0  0
   60.9262   -8.7637   20.8472 H   0  0  0  0  0  0
   61.7506  -10.3740   22.5051 H   0  0  0  0  0  0
   62.5826  -11.2908   21.2036 H   0  0  0  0  0  0
   57.6302   -6.9566   15.9579 H   0  0  0  0  0  0
   56.8221   -8.1135   14.8465 H   0  0  0  0  0  0
   58.3855   -7.3624   14.3795 H   0  0  0  0  0  0
   58.4318   -7.8576   17.6289 H   0  0  0  0  0  0
   64.1847   -9.5940   22.2719 H   0  0  0  0  0  0
   63.6147   -8.4346   15.9364 H   0  0  0  0  0  0
   63.7744   -8.9202   17.6585 H   0  0  0  0  0  0
   63.0384   -7.3369   17.2363 H   0  0  0  0  0  0
   56.7101   -9.6461   17.9644 H   0  0  0  0  0  0
   54.6942  -11.0973   17.9321 H   0  0  0  0  0  0
   56.1922  -12.9128   19.9213 H   0  0  0  0  0  0
   54.4760  -12.1589   21.6233 H   0  0  0  0  0  0
   56.6038  -10.9434   21.4586 H   0  0  0  0  0  0
   54.9984  -10.1498   23.1359 H   0  0  0  0  0  0
   54.3463   -8.9711   21.9475 H   0  0  0  0  0  0
   56.0469   -8.8327   22.5091 H   0  0  0  0  0  0
   56.5238  -11.9186   16.3853 H   0  0  0  0  0  0
   54.5347  -14.1313   18.4435 H   0  0  0  0  0  0
   52.6059  -11.7227   20.0168 H   0  0  0  0  0  0
  1  2  1  0  0  0
  1 12  1  0  0  0
  1 26  1  0  0  0
  1 41  1  0  0  0
  2  3  1  0  0  0
  2  9  1  0  0  0
  2 42  1  0  0  0
  3  4  1  0  0  0
  3 10  1  0  0  0
  3 43  1  0  0  0
  4  5  1  0  0  0
  4 11  1  0  0  0
  4 44  1  0  0  0
  5  6  1  0  0  0
  5 12  1  0  0  0
  5 45  1  0  0  0
  6 13  1  0  0  0
  6 46  1  0  0  0
  6 47  1  0  0  0
  7  8  1  0  0  0
  7  9  1  0  0  0
  7 14  2  0  0  0
  8 48  1  0  0  0
  8 49  1  0  0  0
  8 50  1  0  0  0
  9 51  1  0  0  0
 10 52  1  0  0  0
 11 53  1  0  0  0
 13 54  1  0  0  0
 15 16  1  0  0  0
 15 24  1  0  0  0
 15 27  1  0  0  0
 15 55  1  0  0  0
 16 17  1  0  0  0
 16 23  1  0  0  0
 16 56  1  0  0  0
 17 18  1  0  0  0
 17 25  1  0  0  0
 17 57  1  0  0  0
 18 19  1  0  0  0
 18 26  1  0  0  0
 18 58  1  0  0  0
 19 20  1  0  0  0
 19 27  1  0  0  0
 19 59  1  0  0  0
 20 28  1  0  0  0
 20 60  1  0  0  0
 20 61  1  0  0  0
 21 22  1  0  0  0
 21 23  1  0  0  0
 21 29  2  0  0  0
 22 62  1  0  0  0
 22 63  1  0  0  0
 22 64  1  0  0  0
 23 65  1  0  0  0
 24 30  1  0  0  0
 25 31  1  0  0  0
 28 66  1  0  0  0
 30 67  1  0  0  0
 30 68  1  0  0  0
 30 69  1  0  0  0
 31 32  1  0  0  0
 31 40  1  0  0  0
 31 70  1  0  0  0
 32 33  1  0  0  0
 32 37  1  0  0  0
 32 71  1  0  0  0
 33 34  1  0  0  0
 33 38  1  0  0  0
 33 72  1  0  0  0
 34 35  1  0  0  0
 34 39  1  0  0  0
 34 73  1  0  0  0
 35 36  1  0  0  0
 35 40  1  0  0  0
 35 74  1  0  0  0
 36 75  1  0  0  0
 36 76  1  0  0  0
 36 77  1  0  0  0
 37 78  1  0  0  0
 38 79  1  0  0  0
 39 80  1  0  0  0
M  END
> <s_m_source_file>
../2liq_ligand.sdf

> <i_m_source_file_index>
1

> <s_epik_input>
W09IXVtDSDJdW0NAQEhdKE8xKVtDQEBIXShbT0hdKVtDQEhdKFtPSF0pW0NAQEhdKFtOSF1DKD1PKVtDSDNdKVtDQEBIXTFPW0NASF0oW0NASF0oTzIpW0NIMl1bT0hdKVtDQEBIXShbQ0BIXShbQ0BASF0yT1tDSDNdKVtOSF1DKD1PKVtDSDNdKU9bQ0BIXTNbQ0BASF0oW09IXSlbQ0BIXShbT0hdKVtDQEhdKFtPSF0pW0NAQEhdKE8zKVtDSDNd

> <s_epik_cmdline>
J2VwaWtfYXBwJywgJy1pbWFlJywgJ2xpZ2FuZF9wcm8ubWFlJywgJy1vbWFlJywgJ2xpZ2FuZF9wcmVwLm1hZScsICctbXMnLCAnMScsICctcGgnLCAnNycsICctcGh0JywgJzAuNScsICctbnQn

> <r_lp_tautomer_probability>
1

> <r_epik_Ionization_Penalty>
  0.0000

> <r_epik_Ionization_Penalty_Charging>
  0.0000

> <r_epik_Ionization_Penalty_Neutral>
  0.0000

> <r_epik_State_Penalty>
 -0.0000

> <r_epik_Charging_Adjusted_Penalty>
0

> <i_epik_Tot_Q>
0

> <i_epik_Tot_abs_Q>
0

> <s_epik_Chemistry_Notes>
This compound contains an acetal/aminal-like group ( X-CH(R)-Y where X, Y are N, S, or O) that may be acid/base labile, releasing an aldehyde.

$$$$
