2lkk_ligand
                    3D
 Schrodinger Suite 2020-3.
 53 52  0  0  1  0            999 V2000
    5.9110   10.1180   14.5090 C   0  0  0  0  0  0
    5.7820   11.1030   15.2700 O   0  5  0  0  0  0
    6.9650    9.8990   13.8730 O   0  0  0  0  0  0
    4.6890    9.2500   14.2380 C   0  0  0  0  0  0
    3.9120    9.5620   12.9390 C   0  0  0  0  0  0
    4.5500    9.0000   11.6560 C   0  0  0  0  0  0
    3.7700    9.3350   10.3700 C   0  0  0  0  0  0
    2.4380    8.5740   10.2260 C   0  0  0  0  0  0
    1.7220    8.8790    8.8990 C   0  0  0  0  0  0
    0.3750    8.1400    8.7990 C   0  0  0  0  0  0
   -0.3550    8.4820    7.5180 C   0  0  0  0  0  0
   -0.3670    7.7830    6.3770 C   0  0  0  0  0  0
    0.3460    6.4730    6.0940 C   0  0  0  0  0  0
   -0.0250    5.8900    4.7180 C   0  0  0  0  0  0
    0.6390    4.5370    4.4030 C   0  0  0  0  0  0
    0.3480    4.1240    2.9490 C   0  0  0  0  0  0
    0.9510    2.7680    2.5490 C   0  0  0  0  0  0
    0.6600    2.4390    1.0700 C   0  0  0  0  0  0
    1.3860    1.1840    0.5550 C   0  0  0  0  0  0
    0.7150   -0.1350    0.9630 C   0  0  0  0  0  0
    4.9966    8.1964   14.1646 H   0  0  0  0  0  0
    3.9678    9.3650   15.0606 H   0  0  0  0  0  0
    2.9009    9.1337   13.0047 H   0  0  0  0  0  0
    3.8407   10.6517   12.8071 H   0  0  0  0  0  0
    5.5626    9.4134   11.5386 H   0  0  0  0  0  0
    4.6072    7.9036   11.7248 H   0  0  0  0  0  0
    3.5326   10.4090   10.3545 H   0  0  0  0  0  0
    4.3836    9.0824    9.4927 H   0  0  0  0  0  0
    2.6282    7.4913   10.2657 H   0  0  0  0  0  0
    1.7629    8.8580   11.0467 H   0  0  0  0  0  0
    1.5314    9.9598    8.8252 H   0  0  0  0  0  0
    2.3561    8.5603    8.0585 H   0  0  0  0  0  0
    0.5501    7.0542    8.8193 H   0  0  0  0  0  0
   -0.2632    8.4244    9.6486 H   0  0  0  0  0  0
   -0.9222    9.4215    7.5935 H   0  0  0  0  0  0
   -0.9406    8.1500    5.5132 H   0  0  0  0  0  0
    1.4337    6.6362    6.1123 H   0  0  0  0  0  0
    0.0731    5.7338    6.8615 H   0  0  0  0  0  0
   -1.1127    5.7341    4.6670 H   0  0  0  0  0  0
    0.2824    6.5908    3.9278 H   0  0  0  0  0  0
    1.7270    4.6216    4.5411 H   0  0  0  0  0  0
    0.2421    3.7671    5.0810 H   0  0  0  0  0  0
   -0.7393    4.0515    2.7991 H   0  0  0  0  0  0
    0.7632    4.8776    2.2637 H   0  0  0  0  0  0
    2.0412    2.7946    2.6934 H   0  0  0  0  0  0
    0.5174    1.9747    3.1756 H   0  0  0  0  0  0
   -0.4185    2.2680    0.9378 H   0  0  0  0  0  0
    0.9779    3.2810    0.4376 H   0  0  0  0  0  0
    1.4199    1.2052   -0.5443 H   0  0  0  0  0  0
    2.4112    1.1641    0.9532 H   0  0  0  0  0  0
    1.2913   -0.9801    0.5583 H   0  0  0  0  0  0
   -0.3092   -0.1645    0.5628 H   0  0  0  0  0  0
    0.6821   -0.2056    2.0602 H   0  0  0  0  0  0
  1  2  1  0  0  0
  1  3  2  0  0  0
  1  4  1  0  0  0
  4  5  1  0  0  0
  4 21  1  0  0  0
  4 22  1  0  0  0
  5  6  1  0  0  0
  5 23  1  0  0  0
  5 24  1  0  0  0
  6  7  1  0  0  0
  6 25  1  0  0  0
  6 26  1  0  0  0
  7  8  1  0  0  0
  7 27  1  0  0  0
  7 28  1  0  0  0
  8  9  1  0  0  0
  8 29  1  0  0  0
  8 30  1  0  0  0
  9 10  1  0  0  0
  9 31  1  0  0  0
  9 32  1  0  0  0
 10 11  1  0  0  0
 10 33  1  0  0  0
 10 34  1  0  0  0
 11 12  2  0  0  0
 11 35  1  0  0  0
 12 13  1  0  0  0
 12 36  1  0  0  0
 13 14  1  0  0  0
 13 37  1  0  0  0
 13 38  1  0  0  0
 14 15  1  0  0  0
 14 39  1  0  0  0
 14 40  1  0  0  0
 15 16  1  0  0  0
 15 41  1  0  0  0
 15 42  1  0  0  0
 16 17  1  0  0  0
 16 43  1  0  0  0
 16 44  1  0  0  0
 17 18  1  0  0  0
 17 45  1  0  0  0
 17 46  1  0  0  0
 18 19  1  0  0  0
 18 47  1  0  0  0
 18 48  1  0  0  0
 19 20  1  0  0  0
 19 49  1  0  0  0
 19 50  1  0  0  0
 20 51  1  0  0  0
 20 52  1  0  0  0
 20 53  1  0  0  0
M  CHG  1   2  -1
M  END
> <s_m_source_file>
../2lkk_ligand.sdf

> <i_m_source_file_index>
1

> <s_epik_input>
W09IXUMoPU8pW0NIMl1bQ0gyXVtDSDJdW0NIMl1bQ0gyXVtDSDJdW0NIMl0vW0NIXT1bQ0hdXFtDSDJdW0NIMl1bQ0gyXVtDSDJdW0NIMl1bQ0gyXVtDSDJdW0NIM10=

> <s_epik_cmdline>
J2VwaWtfYXBwJywgJy1pbWFlJywgJ2xpZ2FuZF9wcm8ubWFlJywgJy1vbWFlJywgJ2xpZ2FuZF9wcmVwLm1hZScsICctbXMnLCAnMScsICctcGgnLCAnNycsICctcGh0JywgJzAuNScsICctbnQn

> <r_lp_tautomer_probability>
1

> <r_epik_Ionization_Penalty>
  0.0049

> <r_epik_Ionization_Penalty_Charging>
  0.0049

> <r_epik_Ionization_Penalty_Neutral>
  0.0000

> <r_epik_State_Penalty>
 -0.0000

> <r_epik_Charging_Adjusted_Penalty>
0.00485124679394524

> <i_epik_Tot_Q>
-1

> <i_epik_Tot_abs_Q>
1

$$$$
