2lko_ligand
                    3D
 Schrodinger Suite 2020-3.
 38 38  0  0  1  0            999 V2000
  -14.9570    4.5830   -0.1920 C   0  0  2  0  0  0
  -15.8120    5.7310   -0.2670 O   0  0  0  0  0  0
  -13.5330    5.0000   -0.5750 C   0  0  2  0  0  0
  -13.5450    5.5890   -1.8790 O   0  0  0  0  0  0
  -12.6040    3.7840   -0.5850 C   0  0  2  0  0  0
  -11.2900    4.1890   -0.9890 O   0  0  0  0  0  0
  -13.1250    2.7280   -1.5610 C   0  0  2  0  0  0
  -13.1600    3.2760   -2.8820 O   0  0  0  0  0  0
  -14.5380    2.2960   -1.1600 C   0  0  2  0  0  0
  -15.0260    1.3180   -2.0830 O   0  0  0  0  0  0
  -15.4780    3.5060   -1.1500 C   0  0  1  0  0  0
  -16.7790    3.0890   -0.7260 O   0  0  0  0  0  0
  -17.2090    5.7620    0.5370 P   0  0  0  0  0  0
  -18.3170    5.1140   -0.1990 O   0  0  0  0  0  0
  -17.5010    7.3130    0.8520 O   0  5  0  0  0  0
  -16.9170    5.0720    1.9610 O   0  5  0  0  0  0
  -10.0480    3.1790   -0.8060 P   0  0  0  0  0  0
   -9.8810    2.2590   -1.9540 O   0  0  0  0  0  0
  -10.3110    2.4040    0.5810 O   0  5  0  0  0  0
   -8.7560    4.1060   -0.5530 O   0  5  0  0  0  0
  -13.1650    2.2980   -4.1620 P   0  0  0  0  0  0
  -12.5850    2.9290   -5.3680 O   0  0  0  0  0  0
  -14.6970    1.8470   -4.3700 O   0  5  0  0  0  0
  -12.3730    0.9720   -3.7090 O   0  0  0  0  0  0
  -16.4680    0.6400   -1.8500 P   0  0  0  0  0  0
  -17.5690    1.4030   -2.4780 O   0  0  0  0  0  0
  -16.6390    0.4990   -0.2550 O   0  5  0  0  0  0
  -16.3470   -0.8630   -2.4140 O   0  0  0  0  0  0
  -14.9922    4.2248    0.8474 H   0  0  0  0  0  0
  -13.1582    5.7718    0.1133 H   0  0  0  0  0  0
  -14.1586    6.4809   -2.0740 H   0  0  0  0  0  0
  -12.5035    3.3664    0.4277 H   0  0  0  0  0  0
  -12.4431    1.8659   -1.6022 H   0  0  0  0  0  0
  -14.5268    1.7999   -0.1783 H   0  0  0  0  0  0
  -15.5964    3.9129   -2.1651 H   0  0  0  0  0  0
  -17.5957    3.8225   -0.6550 H   0  0  0  0  0  0
  -11.2936    1.0196   -3.5026 H   0  0  0  0  0  0
  -16.2208   -1.0371   -3.4928 H   0  0  0  0  0  0
  1  2  1  0  0  0
  1  3  1  0  0  0
  1 11  1  0  0  0
  1 29  1  0  0  0
  2 13  1  0  0  0
  3  4  1  0  0  0
  3  5  1  0  0  0
  3 30  1  0  0  0
  4 31  1  0  0  0
  5  6  1  0  0  0
  5  7  1  0  0  0
  5 32  1  0  0  0
  6 17  1  0  0  0
  7  8  1  0  0  0
  7  9  1  0  0  0
  7 33  1  0  0  0
  8 21  1  0  0  0
  9 10  1  0  0  0
  9 11  1  0  0  0
  9 34  1  0  0  0
 10 25  1  0  0  0
 11 12  1  0  0  0
 11 35  1  0  0  0
 12 36  1  0  0  0
 13 14  2  0  0  0
 13 15  1  0  0  0
 13 16  1  0  0  0
 17 18  2  0  0  0
 17 19  1  0  0  0
 17 20  1  0  0  0
 21 22  2  0  0  0
 21 23  1  0  0  0
 21 24  1  0  0  0
 24 37  1  0  0  0
 25 26  2  0  0  0
 25 27  1  0  0  0
 25 28  1  0  0  0
 28 38  1  0  0  0
M  CHG  6  15  -1  16  -1  19  -1  20  -1  23  -1  27  -1
M  END
> <s_m_source_file>
../2lko_ligand.sdf

> <i_m_source_file_index>
1

> <s_epik_input>
Tz1QKFtPSF0pKFtPSF0pT1tDQEBIXTFbQ0BIXShbT0hdKVtDQEhdKE9QKD1PKShbT0hdKVtPSF0pW0NASF0oT1AoPU8pKFtPSF0pW09IXSlbQ0BASF0oW0NASF0xW09IXSlPUCg9TykoW09IXSlbT0hd

> <s_epik_cmdline>
J2VwaWtfYXBwJywgJy1pbWFlJywgJ2xpZ2FuZF9wcm8ubWFlJywgJy1vbWFlJywgJ2xpZ2FuZF9wcmVwLm1hZScsICctbXMnLCAnMScsICctcGgnLCAnNycsICctcGh0JywgJzAuNScsICctbnQn

> <r_epik_Ionization_Penalty>
  1.9642

> <r_epik_Ionization_Penalty_Charging>
  0.1777

> <r_epik_Ionization_Penalty_Neutral>
  1.7865

> <r_epik_State_Penalty>
  0.5564

> <r_epik_Charging_Adjusted_Penalty>
0.73410975974006

> <i_epik_Tot_Q>
-6

> <i_epik_Tot_abs_Q>
6

$$$$
