2ll6_ligand
                    3D
 Schrodinger Suite 2020-3.
302302  0  0  1  0            999 V2000
   -0.8440    9.6130    6.7290 N   0  3  0  0  0  0
   -1.0110    8.3450    5.9720 C   0  0  2  0  0  0
   -2.3110    8.3510    5.1690 C   0  0  0  0  0  0
   -3.3960    8.5400    5.7280 O   0  0  0  0  0  0
   -0.9970    7.1490    6.9340 C   0  0  0  0  0  0
    0.3800    6.7410    7.4810 C   0  0  0  0  0  0
    0.2250    6.0230    8.8110 C   0  0  0  0  0  0
    1.1170    5.8510    6.4860 C   0  0  0  0  0  0
   -2.1830    8.1550    3.8470 N   0  0  0  0  0  0
   -3.3340    8.1240    2.9190 C   0  0  2  0  0  0
   -2.9180    7.5450    1.5630 C   0  0  0  0  0  0
   -3.6600    6.7670    0.9560 O   0  0  0  0  0  0
   -3.9770    9.5250    2.7300 C   0  0  0  0  0  0
   -2.9960   10.6630    2.4460 C   0  0  0  0  0  0
   -3.7190   11.9850    2.2490 C   0  0  0  0  0  0
   -2.7440   13.1170    1.9690 C   0  0  0  0  0  0
   -3.4440   14.4170    1.7720 N   0  3  0  0  0  0
   -1.7210    7.9390    1.1060 N   0  0  0  0  0  0
   -1.1610    7.4750   -0.1710 C   0  0  2  0  0  0
   -0.3790    6.1750    0.0070 C   0  0  0  0  0  0
   -0.6120    5.1930   -0.7040 O   0  0  0  0  0  0
   -0.2310    8.5300   -0.8350 C   0  0  0  0  0  0
   -1.0090    9.3710   -1.8340 C   0  0  0  0  0  0
    0.4590    9.4270    0.1950 C   0  0  0  0  0  0
    0.5510    6.1910    0.9700 N   0  0  0  0  0  0
    1.3980    5.0310    1.2970 C   0  0  2  0  0  0
    0.5930    3.8640    1.9040 C   0  0  0  0  0  0
    1.1160    2.7560    2.0490 O   0  0  0  0  0  0
    2.5020    5.4660    2.2710 C   0  0  0  0  0  0
    3.8480    4.7420    2.1250 C   0  0  0  0  0  0
    4.9890    5.6880    2.4620 C   0  0  0  0  0  0
    3.9030    3.5130    3.0220 C   0  0  0  0  0  0
   -0.6810    4.1250    2.2420 N   0  0  0  0  0  0
   -1.5760    3.1080    2.8250 C   0  0  2  0  0  0
   -2.1500    2.1920    1.7270 C   0  0  0  0  0  0
   -2.4040    1.0080    1.9690 O   0  0  0  0  0  0
   -2.7450    3.7610    3.6330 C   0  0  0  0  0  0
   -3.5960    2.7120    4.3500 C   0  0  0  0  0  0
   -2.2170    4.7700    4.6470 C   0  0  0  0  0  0
   -2.3480    2.7600    0.5280 N   0  0  0  0  0  0
   -2.8910    2.0230   -0.6250 C   0  0  2  0  0  0
   -1.8420    1.1070   -1.2710 C   0  0  0  0  0  0
   -2.1870    0.0740   -1.8500 O   0  0  0  0  0  0
   -3.4350    3.0010   -1.6750 C   0  0  0  0  0  0
   -4.6840    3.7530   -1.2330 C   0  0  0  0  0  0
   -5.2160    4.6520   -2.3410 C   0  0  0  0  0  0
   -6.4660    5.4060   -1.9060 C   0  0  0  0  0  0
   -7.6620    4.5180   -1.8330 N   0  3  0  0  0  0
   -0.5620    1.4960   -1.1580 N   0  0  0  0  0  0
    0.5610    0.7350   -1.7310 C   0  0  2  0  0  0
    0.8430   -0.5700   -0.9760 C   0  0  0  0  0  0
    1.2650   -1.5600   -1.5810 O   0  0  0  0  0  0
    1.8110    1.6010   -1.7590 C   0  0  0  0  0  0
    0.6050   -0.5600    0.3440 N   0  0  0  0  0  0
    0.8380   -1.7370    1.2050 C   0  0  2  0  0  0
   -0.2670   -2.7960    1.0240 C   0  0  0  0  0  0
    0.0090   -3.9970    1.0890 O   0  0  0  0  0  0
    0.9530   -1.3480    2.7140 C   0  0  0  0  0  0
    1.5150   -2.5000    3.5470 C   0  0  0  0  0  0
    1.8210   -0.1070    2.9050 C   0  0  0  0  0  0
   -1.5070   -2.3370    0.7950 N   0  0  0  0  0  0
   -2.6660   -3.2300    0.6050 C   0  0  2  0  0  0
   -2.5500   -4.0780   -0.6700 C   0  0  0  0  0  0
   -3.0360   -5.2130   -0.7080 O   0  0  0  0  0  0
   -3.9640   -2.4130    0.5630 C   0  0  0  0  0  0
   -4.6760   -2.2320    1.9100 C   0  0  0  0  0  0
   -5.4050   -0.8980    1.9490 C   0  0  0  0  0  0
   -5.6560   -3.3740    2.1580 C   0  0  0  0  0  0
   -1.9040   -3.5180   -1.7050 N   0  0  0  0  0  0
   -1.7130   -4.2110   -2.9900 C   0  0  2  0  0  0
   -0.6620   -5.3230   -2.9020 C   0  0  0  0  0  0
   -0.8400   -6.3970   -3.4830 O   0  0  0  0  0  0
   -1.3230   -3.2110   -4.0830 C   0  0  0  0  0  0
   -2.5010   -2.5770   -4.7670 C   0  0  0  0  0  0
   -3.0710   -3.1690   -5.8830 C   0  0  0  0  0  0
   -3.0380   -1.3890   -4.2960 C   0  0  0  0  0  0
   -4.1520   -2.5880   -6.5170 C   0  0  0  0  0  0
   -4.1200   -0.8040   -4.9260 C   0  0  0  0  0  0
   -4.6770   -1.4050   -6.0370 C   0  0  0  0  0  0
    0.4280   -5.0520   -2.1690 N   0  0  0  0  0  0
    1.5260   -6.0180   -1.9910 C   0  0  2  0  0  0
    1.1310   -7.1890   -1.0820 C   0  0  0  0  0  0
    1.6680   -8.2920   -1.2170 O   0  0  0  0  0  0
    2.7580   -5.3160   -1.4380 C   0  0  0  0  0  0
    0.1880   -6.9350   -0.1600 N   0  0  0  0  0  0
   -0.2970   -7.9550    0.7830 C   0  0  2  0  0  0
   -1.2680   -8.9420    0.1200 C   0  0  0  0  0  0
   -1.4080  -10.0800    0.5770 O   0  0  0  0  0  0
   -0.9760   -7.2840    1.9770 C   0  0  0  0  0  0
    0.1220   -6.2280    2.9510 S   0  0  0  0  0  0
   -1.9310   -8.4930   -0.9570 N   0  0  0  0  0  0
   -2.8910   -9.3260   -1.6950 C   0  0  2  0  0  0
   -2.2010  -10.1460   -2.7920 C   0  0  0  0  0  0
   -2.6870  -11.2170   -3.1670 O   0  0  0  0  0  0
   -3.9900   -8.4570   -2.3170 C   0  0  0  0  0  0
   -4.9970   -7.9190   -1.3080 C   0  0  0  0  0  0
   -6.3580   -7.0180   -2.0830 S   0  0  0  0  0  0
   -5.5940   -5.4300   -2.4130 C   0  0  0  0  0  0
   -1.0700   -9.6320   -3.2950 N   0  0  0  0  0  0
   -0.3000  -10.3040   -4.3490 C   0  0  2  0  0  0
    0.7520  -11.2560   -3.7660 C   0  0  0  0  0  0
    1.2730  -12.1180   -4.4800 O   0  0  0  0  0  0
    0.3850   -9.2680   -5.2530 C   0  0  0  0  0  0
   -0.5560   -8.4050   -6.1060 C   0  0  0  0  0  0
    0.0570   -7.0360   -6.3520 C   0  0  0  0  0  0
   -0.8630   -9.0880   -7.4340 C   0  0  0  0  0  0
    1.0550  -11.0940   -2.4690 N   0  0  0  0  0  0
    2.0430  -11.9320   -1.7810 C   0  0  2  0  0  0
    1.3870  -13.1550   -1.1340 C   0  0  0  0  0  0
    2.0000  -14.2240   -1.0580 O   0  0  0  0  0  0
    2.7890  -11.1080   -0.7240 C   0  0  0  0  0  0
    4.2510  -11.5040   -0.5470 C   0  0  0  0  0  0
    4.4600  -13.1870    0.0750 S   0  0  0  0  0  0
    4.1510  -12.9590    1.8260 C   0  0  0  0  0  0
    0.1400  -12.9880   -0.6770 N   0  0  0  0  0  0
   -0.6160  -14.0740   -0.0410 C   0  0  2  0  0  0
   -1.3390  -14.9380   -1.0950 C   0  0  0  0  0  0
   -2.1570  -15.8010   -0.7510 O   0  0  0  0  0  0
   -1.6210  -13.4860    0.9620 C   0  0  0  0  0  0
   -1.9840  -14.4340    2.0970 C   0  0  0  0  0  0
   -2.9920  -13.8080    3.0470 C   0  0  0  0  0  0
   -3.3490  -14.7150    4.1440 N   0  0  0  0  0  0
   -4.2350  -14.4330    5.1110 C   0  0  0  0  0  0
   -4.8750  -13.2650    5.1400 N   0  0  0  0  0  0
   -4.4800  -15.3310    6.0560 N   0  0  0  0  0  0
   -1.0110  -14.7060   -2.3720 N   0  0  0  0  0  0
   -1.6110  -15.4430   -3.4810 C   0  0  2  0  0  0
   -0.6650  -16.5450   -3.9690 C   0  0  0  0  0  0
   -1.0510  -17.7300   -3.8880 O   0  0  0  0  0  0
   -1.9640  -14.4800   -4.6300 C   0  0  0  0  0  0
   -3.1420  -14.9310   -5.4950 C   0  0  0  0  0  0
   -4.4800  -14.5020   -4.9040 C   0  0  0  0  0  0
   -5.6430  -14.9570   -5.7710 C   0  0  0  0  0  0
   -6.9550  -14.5480   -5.1990 N   0  3  0  0  0  0
    0.4550  -16.2140   -4.4180 O   0  0  0  0  0  0
   -0.8556   10.4619    6.0295 H   0  0  0  0  0  0
    0.1149    9.5949    7.2677 H   0  0  0  0  0  0
   -1.6677    9.7207    7.4501 H   0  0  0  0  0  0
   -0.1611    8.2858    5.2762 H   0  0  0  0  0  0
   -1.6191    7.3774    7.8120 H   0  0  0  0  0  0
   -1.3974    6.2617    6.4218 H   0  0  0  0  0  0
    0.9810    7.6482    7.6413 H   0  0  0  0  0  0
   -0.3075    6.6745    9.5195 H   0  0  0  0  0  0
    1.2190    5.7785    9.2137 H   0  0  0  0  0  0
   -0.3487    5.0962    8.6627 H   0  0  0  0  0  0
    1.2229    6.3814    5.5281 H   0  0  0  0  0  0
    0.5460    4.9237    6.3306 H   0  0  0  0  0  0
    2.1137    5.6059    6.8816 H   0  0  0  0  0  0
   -1.1623    8.0135    3.4622 H   0  0  0  0  0  0
   -4.0596    7.4541    3.4035 H   0  0  0  0  0  0
   -4.6753    9.4964    1.8805 H   0  0  0  0  0  0
   -4.5223    9.8045    3.6436 H   0  0  0  0  0  0
   -2.3018   10.7686    3.2928 H   0  0  0  0  0  0
   -2.4275   10.4374    1.5317 H   0  0  0  0  0  0
   -4.4097   11.9018    1.3969 H   0  0  0  0  0  0
   -4.2867   12.2315    3.1584 H   0  0  0  0  0  0
   -2.0522   13.2234    2.8176 H   0  0  0  0  0  0
   -2.1728   12.8916    1.0564 H   0  0  0  0  0  0
   -2.7035   15.2056    1.5727 H   0  0  0  0  0  0
   -4.0124   14.6686    2.6795 H   0  0  0  0  0  0
   -4.1330   14.3367    0.9183 H   0  0  0  0  0  0
   -1.1522    8.6411    1.7333 H   0  0  0  0  0  0
   -2.0569    7.3047   -0.7861 H   0  0  0  0  0  0
    0.5636    7.9969   -1.3775 H   0  0  0  0  0  0
   -1.4981    8.7116   -2.5661 H   0  0  0  0  0  0
   -0.3199   10.0511   -2.3560 H   0  0  0  0  0  0
   -1.7721    9.9588   -1.3028 H   0  0  0  0  0  0
    1.0166    8.8034    0.9092 H   0  0  0  0  0  0
   -0.2979   10.0150    0.7347 H   0  0  0  0  0  0
    1.1543   10.1074   -0.3185 H   0  0  0  0  0  0
    0.6665    7.1313    1.5290 H   0  0  0  0  0  0
    1.8184    4.7027    0.3350 H   0  0  0  0  0  0
    2.7131    6.5365    2.1315 H   0  0  0  0  0  0
    2.1696    5.2895    3.3046 H   0  0  0  0  0  0
    3.9613    4.4089    1.0828 H   0  0  0  0  0  0
    4.9385    6.5710    1.8080 H   0  0  0  0  0  0
    5.9491    5.1733    2.3097 H   0  0  0  0  0  0
    4.9050    6.0043    3.5122 H   0  0  0  0  0  0
    3.0732    2.8368    2.7687 H   0  0  0  0  0  0
    3.8157    3.8226    4.0739 H   0  0  0  0  0  0
    4.8598    2.9917    2.8714 H   0  0  0  0  0  0
   -1.0494    5.1467    2.0673 H   0  0  0  0  0  0
   -0.9245    2.5287    3.4957 H   0  0  0  0  0  0
   -3.3953    4.2937    2.9235 H   0  0  0  0  0  0
   -3.9761    1.9850    3.6172 H   0  0  0  0  0  0
   -4.4425    3.2057    4.8497 H   0  0  0  0  0  0
   -2.9815    2.1908    5.0988 H   0  0  0  0  0  0
   -1.6052    5.5237    4.1297 H   0  0  0  0  0  0
   -1.6020    4.2496    5.3959 H   0  0  0  0  0  0
   -3.0630    5.2645    5.1468 H   0  0  0  0  0  0
   -2.0856    3.8235    0.4269 H   0  0  0  0  0  0
   -3.6998    1.4064   -0.2059 H   0  0  0  0  0  0
   -2.6676    3.7542   -1.9069 H   0  0  0  0  0  0
   -3.6953    2.4490   -2.5902 H   0  0  0  0  0  0
   -5.4696    3.0321   -0.9625 H   0  0  0  0  0  0
   -4.4454    4.3796   -0.3610 H   0  0  0  0  0  0
   -4.4468    5.3884   -2.6167 H   0  0  0  0  0  0
   -5.4697    4.0404   -3.2194 H   0  0  0  0  0  0
   -6.3028    5.8423   -0.9095 H   0  0  0  0  0  0
   -6.6797    6.2086   -2.6272 H   0  0  0  0  0  0
   -8.5362    5.1056   -1.5159 H   0  0  0  0  0  0
   -7.4775    3.7136   -1.1058 H   0  0  0  0  0  0
   -7.8544    4.0799   -2.8235 H   0  0  0  0  0  0
   -0.3702    2.4290   -0.6077 H   0  0  0  0  0  0
    0.2397    0.4821   -2.7522 H   0  0  0  0  0  0
    1.5988    2.5337   -2.3021 H   0  0  0  0  0  0
    2.6221    1.0578   -2.2661 H   0  0  0  0  0  0
    2.1162    1.8377   -0.7290 H   0  0  0  0  0  0
    0.2210    0.3737    0.7809 H   0  0  0  0  0  0
    1.7963   -2.1343    0.8391 H   0  0  0  0  0  0
   -0.0562   -1.1178    3.0862 H   0  0  0  0  0  0
    0.8880   -3.3930    3.4078 H   0  0  0  0  0  0
    1.5184   -2.2164    4.6098 H   0  0  0  0  0  0
    2.5430   -2.7195    3.2228 H   0  0  0  0  0  0
    1.4148    0.7205    2.3048 H   0  0  0  0  0  0
    2.8491   -0.3252    2.5804 H   0  0  0  0  0  0
    1.8246    0.1780    3.9674 H   0  0  0  0  0  0
   -1.6403   -1.2460    0.7514 H   0  0  0  0  0  0
   -2.6482   -3.8982    1.4786 H   0  0  0  0  0  0
   -3.7486   -1.4015    0.1882 H   0  0  0  0  0  0
   -4.6858   -2.9055   -0.1051 H   0  0  0  0  0  0
   -3.9224   -2.2403    2.7112 H   0  0  0  0  0  0
   -4.6883   -0.0831    1.7690 H   0  0  0  0  0  0
   -5.8721   -0.7642    2.9359 H   0  0  0  0  0  0
   -6.1818   -0.8818    1.1704 H   0  0  0  0  0  0
   -5.1173   -4.3326    2.1274 H   0  0  0  0  0  0
   -6.4336   -3.3653    1.3800 H   0  0  0  0  0  0
   -6.1239   -3.2477    3.1455 H   0  0  0  0  0  0
   -1.5102   -2.5005   -1.5650 H   0  0  0  0  0  0
   -2.6905   -4.6654   -3.2090 H   0  0  0  0  0  0
   -0.7244   -2.4005   -3.6417 H   0  0  0  0  0  0
   -0.7320   -3.7244   -4.8558 H   0  0  0  0  0  0
   -2.6614   -4.1041   -6.2649 H   0  0  0  0  0  0
   -2.6019   -0.9109   -3.4189 H   0  0  0  0  0  0
   -4.5898   -3.0629   -7.3950 H   0  0  0  0  0  0
   -4.5330    0.1305   -4.5463 H   0  0  0  0  0  0
   -5.5309   -0.9456   -6.5349 H   0  0  0  0  0  0
    0.4828   -4.0628   -1.6909 H   0  0  0  0  0  0
    1.7309   -6.4081   -2.9989 H   0  0  0  0  0  0
    3.0305   -4.4794   -2.0981 H   0  0  0  0  0  0
    3.5939   -6.0292   -1.3857 H   0  0  0  0  0  0
    2.5400   -4.9321   -0.4305 H   0  0  0  0  0  0
   -0.2239   -5.9156   -0.1274 H   0  0  0  0  0  0
    0.6041   -8.4995    1.1017 H   0  0  0  0  0  0
   -1.8025   -6.6514    1.6209 H   0  0  0  0  0  0
   -1.3703   -8.0549    2.6554 H   0  0  0  0  0  0
   -0.2654   -5.6971    3.8331 H   0  0  0  0  0  0
   -1.7341   -7.4609   -1.2827 H   0  0  0  0  0  0
   -3.3150  -10.0046   -0.9402 H   0  0  0  0  0  0
   -3.5332   -7.5892   -2.8153 H   0  0  0  0  0  0
   -4.5524   -9.0490   -3.0541 H   0  0  0  0  0  0
   -5.4300   -8.7558   -0.7403 H   0  0  0  0  0  0
   -4.4905   -7.2299   -0.6162 H   0  0  0  0  0  0
   -6.3250   -4.7646   -2.8956 H   0  0  0  0  0  0
   -4.7300   -5.5702   -3.0793 H   0  0  0  0  0  0
   -5.2582   -4.9809   -1.4666 H   0  0  0  0  0  0
   -0.7235   -8.6702   -2.8890 H   0  0  0  0  0  0
   -1.0440  -10.8857   -4.9130 H   0  0  0  0  0  0
    0.9682   -8.5701   -4.6343 H   0  0  0  0  0  0
    1.0557   -9.7822   -5.9571 H   0  0  0  0  0  0
   -1.5012   -8.2708   -5.5595 H   0  0  0  0  0  0
    0.2742   -6.5529   -5.3879 H   0  0  0  0  0  0
   -0.6495   -6.4151   -6.9224 H   0  0  0  0  0  0
    0.9899   -7.1494   -6.9237 H   0  0  0  0  0  0
   -1.3058  -10.0769   -7.2440 H   0  0  0  0  0  0
    0.0673   -9.2071   -8.0087 H   0  0  0  0  0  0
   -1.5720   -8.4728   -8.0074 H   0  0  0  0  0  0
    0.5316  -10.2975   -1.9198 H   0  0  0  0  0  0
    2.7361  -12.2708   -2.5651 H   0  0  0  0  0  0
    2.7727  -10.0456   -1.0086 H   0  0  0  0  0  0
    2.2982  -11.2336    0.2524 H   0  0  0  0  0  0
    4.7679  -11.4407   -1.5159 H   0  0  0  0  0  0
    4.7314  -10.8221    0.1701 H   0  0  0  0  0  0
    4.2463  -13.9247    2.3439 H   0  0  0  0  0  0
    3.1346  -12.5641    1.9706 H   0  0  0  0  0  0
    4.8825  -12.2482    2.2379 H   0  0  0  0  0  0
   -0.3166  -11.9938   -0.7918 H   0  0  0  0  0  0
    0.1266  -14.6929    0.4839 H   0  0  0  0  0  0
   -1.1965  -12.5793    1.4176 H   0  0  0  0  0  0
   -2.5545  -13.2309    0.4390 H   0  0  0  0  0  0
   -2.4227  -15.3530    1.6810 H   0  0  0  0  0  0
   -1.0783  -14.6860    2.6681 H   0  0  0  0  0  0
   -2.5656  -12.8925    3.4828 H   0  0  0  0  0  0
   -3.9100  -13.5581    2.4950 H   0  0  0  0  0  0
   -2.8779  -15.7066    4.2132 H   0  0  0  0  0  0
   -4.6807  -12.5119    4.3621 H   0  0  0  0  0  0
   -5.5978  -13.0536    5.9418 H   0  0  0  0  0  0
   -3.9581  -16.2992    6.0433 H   0  0  0  0  0  0
   -0.2599  -13.9275   -2.5714 H   0  0  0  0  0  0
   -2.5254  -15.9014   -3.0763 H   0  0  0  0  0  0
   -2.2293  -13.4962   -4.2155 H   0  0  0  0  0  0
   -1.0974  -14.3743   -5.2992 H   0  0  0  0  0  0
   -3.0512  -14.4882   -6.4978 H   0  0  0  0  0  0
   -3.1380  -16.0279   -5.5768 H   0  0  0  0  0  0
   -4.5975  -14.9440   -3.9036 H   0  0  0  0  0  0
   -4.5118  -13.4052   -4.8263 H   0  0  0  0  0  0
   -5.5500  -14.5116   -6.7725 H   0  0  0  0  0  0
   -5.6307  -16.0537   -5.8549 H   0  0  0  0  0  0
   -7.7659  -14.8963   -5.8557 H   0  0  0  0  0  0
   -6.9940  -13.4517   -5.1181 H   0  0  0  0  0  0
   -7.0747  -14.9938   -4.2005 H   0  0  0  0  0  0
    1.1540  -16.9846   -4.7751 H   0  0  0  0  0  0
  1  2  1  0  0  0
  1136  1  0  0  0
  1137  1  0  0  0
  1138  1  0  0  0
  2  3  1  0  0  0
  2  5  1  0  0  0
  2139  1  0  0  0
  3  4  2  0  0  0
  3  9  1  0  0  0
  5  6  1  0  0  0
  5140  1  0  0  0
  5141  1  0  0  0
  6  7  1  0  0  0
  6  8  1  0  0  0
  6142  1  0  0  0
  7143  1  0  0  0
  7144  1  0  0  0
  7145  1  0  0  0
  8146  1  0  0  0
  8147  1  0  0  0
  8148  1  0  0  0
  9 10  1  0  0  0
  9149  1  0  0  0
 10 11  1  0  0  0
 10 13  1  0  0  0
 10150  1  0  0  0
 11 12  2  0  0  0
 11 18  1  0  0  0
 13 14  1  0  0  0
 13151  1  0  0  0
 13152  1  0  0  0
 14 15  1  0  0  0
 14153  1  0  0  0
 14154  1  0  0  0
 15 16  1  0  0  0
 15155  1  0  0  0
 15156  1  0  0  0
 16 17  1  0  0  0
 16157  1  0  0  0
 16158  1  0  0  0
 17159  1  0  0  0
 17160  1  0  0  0
 17161  1  0  0  0
 18 19  1  0  0  0
 18162  1  0  0  0
 19 20  1  0  0  0
 19 22  1  0  0  0
 19163  1  0  0  0
 20 21  2  0  0  0
 20 25  1  0  0  0
 22 23  1  0  0  0
 22 24  1  0  0  0
 22164  1  0  0  0
 23165  1  0  0  0
 23166  1  0  0  0
 23167  1  0  0  0
 24168  1  0  0  0
 24169  1  0  0  0
 24170  1  0  0  0
 25 26  1  0  0  0
 25171  1  0  0  0
 26 27  1  0  0  0
 26 29  1  0  0  0
 26172  1  0  0  0
 27 28  2  0  0  0
 27 33  1  0  0  0
 29 30  1  0  0  0
 29173  1  0  0  0
 29174  1  0  0  0
 30 31  1  0  0  0
 30 32  1  0  0  0
 30175  1  0  0  0
 31176  1  0  0  0
 31177  1  0  0  0
 31178  1  0  0  0
 32179  1  0  0  0
 32180  1  0  0  0
 32181  1  0  0  0
 33 34  1  0  0  0
 33182  1  0  0  0
 34 35  1  0  0  0
 34 37  1  0  0  0
 34183  1  0  0  0
 35 36  2  0  0  0
 35 40  1  0  0  0
 37 38  1  0  0  0
 37 39  1  0  0  0
 37184  1  0  0  0
 38185  1  0  0  0
 38186  1  0  0  0
 38187  1  0  0  0
 39188  1  0  0  0
 39189  1  0  0  0
 39190  1  0  0  0
 40 41  1  0  0  0
 40191  1  0  0  0
 41 42  1  0  0  0
 41 44  1  0  0  0
 41192  1  0  0  0
 42 43  2  0  0  0
 42 49  1  0  0  0
 44 45  1  0  0  0
 44193  1  0  0  0
 44194  1  0  0  0
 45 46  1  0  0  0
 45195  1  0  0  0
 45196  1  0  0  0
 46 47  1  0  0  0
 46197  1  0  0  0
 46198  1  0  0  0
 47 48  1  0  0  0
 47199  1  0  0  0
 47200  1  0  0  0
 48201  1  0  0  0
 48202  1  0  0  0
 48203  1  0  0  0
 49 50  1  0  0  0
 49204  1  0  0  0
 50 51  1  0  0  0
 50 53  1  0  0  0
 50205  1  0  0  0
 51 52  2  0  0  0
 51 54  1  0  0  0
 53206  1  0  0  0
 53207  1  0  0  0
 53208  1  0  0  0
 54 55  1  0  0  0
 54209  1  0  0  0
 55 56  1  0  0  0
 55 58  1  0  0  0
 55210  1  0  0  0
 56 57  2  0  0  0
 56 61  1  0  0  0
 58 59  1  0  0  0
 58 60  1  0  0  0
 58211  1  0  0  0
 59212  1  0  0  0
 59213  1  0  0  0
 59214  1  0  0  0
 60215  1  0  0  0
 60216  1  0  0  0
 60217  1  0  0  0
 61 62  1  0  0  0
 61218  1  0  0  0
 62 63  1  0  0  0
 62 65  1  0  0  0
 62219  1  0  0  0
 63 64  2  0  0  0
 63 69  1  0  0  0
 65 66  1  0  0  0
 65220  1  0  0  0
 65221  1  0  0  0
 66 67  1  0  0  0
 66 68  1  0  0  0
 66222  1  0  0  0
 67223  1  0  0  0
 67224  1  0  0  0
 67225  1  0  0  0
 68226  1  0  0  0
 68227  1  0  0  0
 68228  1  0  0  0
 69 70  1  0  0  0
 69229  1  0  0  0
 70 71  1  0  0  0
 70 73  1  0  0  0
 70230  1  0  0  0
 71 72  2  0  0  0
 71 80  1  0  0  0
 73 74  1  0  0  0
 73231  1  0  0  0
 73232  1  0  0  0
 74 75  2  0  0  0
 74 76  1  0  0  0
 75 77  1  0  0  0
 75233  1  0  0  0
 76 78  2  0  0  0
 76234  1  0  0  0
 77 79  2  0  0  0
 77235  1  0  0  0
 78 79  1  0  0  0
 78236  1  0  0  0
 79237  1  0  0  0
 80 81  1  0  0  0
 80238  1  0  0  0
 81 82  1  0  0  0
 81 84  1  0  0  0
 81239  1  0  0  0
 82 83  2  0  0  0
 82 85  1  0  0  0
 84240  1  0  0  0
 84241  1  0  0  0
 84242  1  0  0  0
 85 86  1  0  0  0
 85243  1  0  0  0
 86 87  1  0  0  0
 86 89  1  0  0  0
 86244  1  0  0  0
 87 88  2  0  0  0
 87 91  1  0  0  0
 89 90  1  0  0  0
 89245  1  0  0  0
 89246  1  0  0  0
 90247  1  0  0  0
 91 92  1  0  0  0
 91248  1  0  0  0
 92 93  1  0  0  0
 92 95  1  0  0  0
 92249  1  0  0  0
 93 94  2  0  0  0
 93 99  1  0  0  0
 95 96  1  0  0  0
 95250  1  0  0  0
 95251  1  0  0  0
 96 97  1  0  0  0
 96252  1  0  0  0
 96253  1  0  0  0
 97 98  1  0  0  0
 98254  1  0  0  0
 98255  1  0  0  0
 98256  1  0  0  0
 99100  1  0  0  0
 99257  1  0  0  0
100101  1  0  0  0
100103  1  0  0  0
100258  1  0  0  0
101102  2  0  0  0
101107  1  0  0  0
103104  1  0  0  0
103259  1  0  0  0
103260  1  0  0  0
104105  1  0  0  0
104106  1  0  0  0
104261  1  0  0  0
105262  1  0  0  0
105263  1  0  0  0
105264  1  0  0  0
106265  1  0  0  0
106266  1  0  0  0
106267  1  0  0  0
107108  1  0  0  0
107268  1  0  0  0
108109  1  0  0  0
108111  1  0  0  0
108269  1  0  0  0
109110  2  0  0  0
109115  1  0  0  0
111112  1  0  0  0
111270  1  0  0  0
111271  1  0  0  0
112113  1  0  0  0
112272  1  0  0  0
112273  1  0  0  0
113114  1  0  0  0
114274  1  0  0  0
114275  1  0  0  0
114276  1  0  0  0
115116  1  0  0  0
115277  1  0  0  0
116117  1  0  0  0
116119  1  0  0  0
116278  1  0  0  0
117118  2  0  0  0
117126  1  0  0  0
119120  1  0  0  0
119279  1  0  0  0
119280  1  0  0  0
120121  1  0  0  0
120281  1  0  0  0
120282  1  0  0  0
121122  1  0  0  0
121283  1  0  0  0
121284  1  0  0  0
122123  1  0  0  0
122285  1  0  0  0
123124  1  0  0  0
123125  2  0  0  0
124286  1  0  0  0
124287  1  0  0  0
125288  1  0  0  0
126127  1  0  0  0
126289  1  0  0  0
127128  1  0  0  0
127130  1  0  0  0
127290  1  0  0  0
128129  2  0  0  0
128135  1  0  0  0
130131  1  0  0  0
130291  1  0  0  0
130292  1  0  0  0
131132  1  0  0  0
131293  1  0  0  0
131294  1  0  0  0
132133  1  0  0  0
132295  1  0  0  0
132296  1  0  0  0
133134  1  0  0  0
133297  1  0  0  0
133298  1  0  0  0
134299  1  0  0  0
134300  1  0  0  0
134301  1  0  0  0
135302  1  0  0  0
M  CHG  4   1   1  17   1  48   1 134   1
M  END
> <s_m_source_file>
../2ll6_ligand.sdf

> <i_m_source_file_index>
1

> <s_epik_input>
W0NIM11bQ0hdKFtDSDNdKVtDSDJdW0NASF0oW05IMytdKUMoPU8pW05IXVtDQEBIXShbQ0gyXVtDSDJdW0NIMl1bQ0gyXVtOSDMrXSlDKD1PKVtOSF1bQ0BASF0oW0NIXShbQ0gzXSlbQ0gzXSlDKD1PKVtOSF1bQ0BASF0oW0NIMl1bQ0hdKFtDSDNdKVtDSDNdKUMoPU8pW05IXVtDQEBIXShbQ0hdKFtDSDNdKVtDSDNdKUMoPU8pW05IXVtDQEBIXShbQ0gyXVtDSDJdW0NIMl1bQ0gyXVtOSDMrXSlDKD1PKVtOSF1bQ0BASF0oW0NIM10pQyg9TylbTkhdW0NAQEhdKFtDSF0oW0NIM10pW0NIM10pQyg9TylbTkhdW0NAQEhdKFtDSDJdW0NIXShbQ0gzXSlbQ0gzXSlDKD1PKVtOSF1bQ0BASF0oW0NIMl1jMVtjSF1bY0hdW2NIXVtjSF1bY0hdMSlDKD1PKVtOSF1bQ0BASF0oW0NIM10pQyg9TylbTkhdW0NAQEhdKFtDSDJdW1NIXSlDKD1PKVtOSF1bQ0BASF0oW0NIMl1bQ0gyXVNbQ0gzXSlDKD1PKVtOSF1bQ0BASF0oW0NIMl1bQ0hdKFtDSDNdKVtDSDNdKUMoPU8pW05IXVtDQEBIXShbQ0gyXVtDSDJdU1tDSDNdKUMoPU8pW05IXVtDQEBIXShbQ0gyXVtDSDJdW0NIMl1bTkhdL0MoW05IMl0pPU5cW0hdKUMoPU8pW05IXVtDQEhdKEMoPU8pW09IXSlbQ0gyXVtDSDJdW0NIMl1bQ0gyXVtOSDMrXQ==

> <s_epik_cmdline>
J2VwaWtfYXBwJywgJy1pbWFlJywgJ2xpZ2FuZF9wcm8ubWFlJywgJy1vbWFlJywgJ2xpZ2FuZF9wcmVwLm1hZScsICctbXMnLCAnMScsICctcGgnLCAnNycsICctcGh0JywgJzAuNScsICctbnQn

> <s_epik_pKa_notes>
Molecule size exceeds maximum supported for generating protonation states

> <s_epik_Chemistry_Notes>
This compound has an imine and may undergo hydrolysis.

$$$$
