2ll7_ligand
                    3D
 Schrodinger Suite 2020-3.
278278  0  0  1  0            999 V2000
   -5.3830   -7.5880   -4.1030 N   0  3  0  0  0  0
   -5.9530   -6.3330   -3.5400 C   0  0  2  0  0  0
   -7.4220   -6.5240   -3.1460 C   0  0  0  0  0  0
   -8.3080   -6.5580   -4.0090 O   0  0  0  0  0  0
   -5.7970   -5.1600   -4.5390 C   0  0  0  0  0  0
   -6.2160   -5.4670   -5.9790 C   0  0  0  0  0  0
   -6.0020   -4.2670   -6.8870 C   0  0  0  0  0  0
   -6.4120   -4.5710   -8.3190 C   0  0  0  0  0  0
   -6.1960   -3.4030   -9.2170 N   0  3  0  0  0  0
   -7.6710   -6.6690   -1.8320 N   0  0  0  0  0  0
   -9.0330   -6.8650   -1.3090 C   0  0  2  0  0  0
   -9.1910   -6.3120    0.1100 C   0  0  0  0  0  0
  -10.2090   -5.6900    0.4240 O   0  0  0  0  0  0
   -9.4140   -8.3560   -1.3120 C   0  0  0  0  0  0
   -9.8040   -8.8910   -2.6810 C   0  0  0  0  0  0
  -10.2110  -10.3540   -2.6110 C   0  0  0  0  0  0
  -10.6250  -10.8830   -3.9750 C   0  0  0  0  0  0
  -11.0430  -12.3110   -3.9120 N   0  3  0  0  0  0
   -8.1770   -6.5430    0.9610 N   0  0  0  0  0  0
   -8.2080   -6.1100    2.3680 C   0  0  2  0  0  0
   -6.7870   -5.8900    2.9080 C   0  0  0  0  0  0
   -6.4690   -4.8200    3.4330 O   0  0  0  0  0  0
   -8.9590   -7.1670    3.2370 C   0  0  2  0  0  0
  -10.2680   -7.3810    2.6960 O   0  0  0  0  0  0
   -9.0870   -6.7530    4.7030 C   0  0  0  0  0  0
   -5.9580   -6.9200    2.7670 N   0  0  0  0  0  0
   -4.5750   -6.9020    3.2260 C   0  0  2  0  0  0
   -3.6260   -7.0900    2.0410 C   0  0  0  0  0  0
   -2.4100   -6.9220    2.1710 O   0  0  0  0  0  0
   -4.3560   -8.0070    4.2670 C   0  0  0  0  0  0
   -3.2580   -7.7200    5.2540 C   0  0  0  0  0  0
   -3.5320   -7.0600    6.4400 C   0  0  0  0  0  0
   -1.9550   -8.1180    4.9970 C   0  0  0  0  0  0
   -2.5280   -6.8020    7.3530 C   0  0  0  0  0  0
   -0.9460   -7.8610    5.9060 C   0  0  0  0  0  0
   -1.2340   -7.2020    7.0860 C   0  0  0  0  0  0
   -4.2080   -7.4460    0.8860 N   0  0  0  0  0  0
   -3.4570   -7.6520   -0.3560 C   0  0  2  0  0  0
   -3.1690   -6.3130   -1.0360 C   0  0  0  0  0  0
   -2.1240   -6.1430   -1.6690 O   0  0  0  0  0  0
   -4.2370   -8.5650   -1.3090 C   0  0  0  0  0  0
   -4.3670  -10.0020   -0.8240 C   0  0  0  0  0  0
   -5.0930  -10.8710   -1.8410 C   0  0  0  0  0  0
   -5.2240  -12.3110   -1.3640 C   0  0  0  0  0  0
   -6.2350  -12.4550   -0.2780 N   0  3  0  0  0  0
   -4.1110   -5.3660   -0.8860 N   0  0  0  0  0  0
   -3.9790   -4.0200   -1.4550 C   0  0  2  0  0  0
   -3.0080   -3.1750   -0.6250 C   0  0  0  0  0  0
   -2.2280   -2.3950   -1.1780 O   0  0  0  0  0  0
   -5.3500   -3.3330   -1.5270 C   0  0  0  0  0  0
   -5.4700   -2.2860   -2.6310 C   0  0  0  0  0  0
   -4.8260   -0.9560   -2.2710 C   0  0  0  0  0  0
   -5.3890   -0.2320   -1.4240 O   0  0  0  0  0  0
   -3.7570   -0.6420   -2.8370 O   0  0  0  0  0  0
   -3.0720   -3.3410    0.7060 N   0  0  0  0  0  0
   -2.1870   -2.6250    1.6330 C   0  0  2  0  0  0
   -0.7180   -3.0420    1.3820 C   0  0  0  0  0  0
    0.2070   -2.2440    1.5560 O   0  0  0  0  0  0
   -2.6260   -2.8470    3.1250 C   0  0  0  0  0  0
   -2.2800   -4.2440    3.6400 C   0  0  0  0  0  0
   -2.0330   -1.7760    4.0360 C   0  0  0  0  0  0
   -0.5450   -4.3130    0.9720 N   0  0  0  0  0  0
    0.7680   -4.8830    0.6460 C   0  0  2  0  0  0
    1.2610   -4.4010   -0.7220 C   0  0  0  0  0  0
    2.4490   -4.1140   -0.8960 O   0  0  0  0  0  0
    0.7040   -6.4040    0.6760 C   0  0  0  0  0  0
    0.3270   -4.3170   -1.6870 N   0  0  0  0  0  0
    0.6280   -3.8560   -3.0520 C   0  0  2  0  0  0
    0.8970   -2.3470   -3.0850 C   0  0  0  0  0  0
    1.6660   -1.8670   -3.9230 O   0  0  0  0  0  0
   -0.5160   -4.2090   -4.0050 C   0  0  0  0  0  0
   -0.4080   -5.6250   -4.5360 C   0  0  0  0  0  0
   -0.9570   -6.5630   -3.9590 O   0  0  0  0  0  0
    0.3080   -5.7870   -5.6420 N   0  0  0  0  0  0
    0.2510   -1.6090   -2.1620 N   0  0  0  0  0  0
    0.4290   -0.1540   -2.0360 C   0  0  2  0  0  0
    1.8820    0.1810   -1.6840 C   0  0  0  0  0  0
    2.4100    1.2200   -2.0850 O   0  0  0  0  0  0
   -0.5150    0.4040   -0.9800 C   0  0  0  0  0  0
    2.5060   -0.7300   -0.9190 N   0  0  0  0  0  0
    3.9140   -0.6140   -0.5070 C   0  0  2  0  0  0
    4.8310   -0.8630   -1.7200 C   0  0  0  0  0  0
    5.9410   -0.3300   -1.7970 O   0  0  0  0  0  0
    4.2580   -1.6330    0.6300 C   0  0  0  0  0  0
    5.6380   -1.3770    1.2300 C   0  0  0  0  0  0
    3.2070   -1.6030    1.7370 C   0  0  0  0  0  0
    4.3340   -1.6870   -2.6560 N   0  0  0  0  0  0
    5.0560   -2.0400   -3.8870 C   0  0  2  0  0  0
    5.0050   -0.9110   -4.9260 C   0  0  0  0  0  0
    5.9110   -0.7840   -5.7550 O   0  0  0  0  0  0
    4.4630   -3.3210   -4.4960 C   0  0  0  0  0  0
    4.6400   -4.5710   -3.6230 C   0  0  0  0  0  0
    5.9300   -5.3400   -3.9290 C   0  0  0  0  0  0
    7.1730   -4.6780   -3.3290 C   0  0  0  0  0  0
    7.7440   -3.6410   -4.2330 N   0  3  0  0  0  0
    3.9390   -0.1010   -4.8660 N   0  0  0  0  0  0
    3.7400    1.0150   -5.7970 C   0  0  2  0  0  0
    4.4320    2.3030   -5.3030 C   0  0  0  0  0  0
    4.8350    3.1460   -6.1100 O   0  0  0  0  0  0
    2.2110    1.2460   -6.0530 C   0  0  2  0  0  0
    1.9700    1.9710   -7.3890 C   0  0  0  0  0  0
    1.5320    2.0020   -4.9090 C   0  0  0  0  0  0
    1.9390    1.0480   -8.5930 C   0  0  0  0  0  0
    4.5580    2.4320   -3.9750 N   0  0  0  0  0  0
    5.1910    3.6020   -3.3480 C   0  0  2  0  0  0
    6.7240    3.5590   -3.4500 C   0  0  0  0  0  0
    7.3940    4.5620   -3.1850 O   0  0  0  0  0  0
    4.7730    3.6940   -1.8790 C   0  0  0  0  0  0
    3.3670    3.8220   -1.7550 O   0  0  0  0  0  0
    7.2630    2.3970   -3.8390 N   0  0  0  0  0  0
    8.7080    2.2120   -3.9800 C   0  0  2  0  0  0
    9.1370    2.1350   -5.4490 C   0  0  0  0  0  0
   10.3230    2.2860   -5.7580 O   0  0  0  0  0  0
    9.1500    0.9600   -3.2390 C   0  0  0  0  0  0
    8.1680    1.9020   -6.3450 N   0  0  0  0  0  0
    8.4350    1.7970   -7.7830 C   0  0  2  0  0  0
    8.2800    3.1530   -8.4960 C   0  0  0  0  0  0
    8.2260    3.2140   -9.7310 O   0  0  0  0  0  0
    7.4970    0.7560   -8.4050 C   0  0  0  0  0  0
    7.6860   -0.5160   -7.8130 O   0  0  0  0  0  0
    8.2340    4.2370   -7.7080 N   0  0  0  0  0  0
    8.0880    5.5920   -8.2470 C   0  0  2  0  0  0
    9.4550    6.2360   -8.4910 C   0  0  0  0  0  0
   10.2280    6.3800   -7.5180 O   0  0  0  0  0  0
    7.2550    6.4680   -7.2950 C   0  0  0  0  0  0
    5.8090    6.0070   -7.0520 C   0  0  0  0  0  0
    5.3250    6.4820   -5.6900 C   0  0  0  0  0  0
    4.8840    6.5230   -8.1480 C   0  0  0  0  0  0
    9.7400    6.5890   -9.6540 O   0  0  0  0  0  0
   -5.5057   -8.4047   -3.3764 H   0  0  0  0  0  0
   -4.3133   -7.4425   -4.3140 H   0  0  0  0  0  0
   -5.9090   -7.8440   -5.0346 H   0  0  0  0  0  0
   -5.3737   -6.1202   -2.6294 H   0  0  0  0  0  0
   -6.4147   -4.3121   -4.2082 H   0  0  0  0  0  0
   -4.7421   -4.8511   -4.5800 H   0  0  0  0  0  0
   -5.6184   -6.3066   -6.3637 H   0  0  0  0  0  0
   -7.2825   -5.7356   -6.0012 H   0  0  0  0  0  0
   -6.6046   -3.4210   -6.5247 H   0  0  0  0  0  0
   -4.9379   -3.9882   -6.8815 H   0  0  0  0  0  0
   -5.8163   -5.4137   -8.6999 H   0  0  0  0  0  0
   -7.4796   -4.8345   -8.3467 H   0  0  0  0  0  0
   -6.5045   -3.6649  -10.2399 H   0  0  0  0  0  0
   -5.1304   -3.1302   -9.2139 H   0  0  0  0  0  0
   -6.7936   -2.5510   -8.8606 H   0  0  0  0  0  0
   -6.8158   -6.6373   -1.1409 H   0  0  0  0  0  0
   -9.6691   -6.2915   -1.9992 H   0  0  0  0  0  0
   -8.5597   -8.9534   -0.9609 H   0  0  0  0  0  0
  -10.2729   -8.5163   -0.6437 H   0  0  0  0  0  0
  -10.6529   -8.3115   -3.0729 H   0  0  0  0  0  0
   -8.9494   -8.7995   -3.3675 H   0  0  0  0  0  0
   -9.3632  -10.9534   -2.2478 H   0  0  0  0  0  0
  -11.0609  -10.4656   -1.9217 H   0  0  0  0  0  0
  -11.4712  -10.2924   -4.3559 H   0  0  0  0  0  0
   -9.7781  -10.8020   -4.6722 H   0  0  0  0  0  0
  -11.3335  -12.6527   -4.9164 H   0  0  0  0  0  0
  -11.8987  -12.4127   -3.2284 H   0  0  0  0  0  0
  -10.2055  -12.9223   -3.5447 H   0  0  0  0  0  0
   -7.2994   -7.0782    0.5695 H   0  0  0  0  0  0
   -8.7396   -5.1470    2.3665 H   0  0  0  0  0  0
   -8.4324   -8.1318    3.1940 H   0  0  0  0  0  0
  -10.3859   -7.6870    1.6460 H   0  0  0  0  0  0
   -8.0852   -6.5867    5.1258 H   0  0  0  0  0  0
   -9.5950   -7.5498    5.2660 H   0  0  0  0  0  0
   -9.6729   -5.8246    4.7720 H   0  0  0  0  0  0
   -6.3629   -7.8172    2.2760 H   0  0  0  0  0  0
   -4.4129   -5.9136    3.6806 H   0  0  0  0  0  0
   -5.2793   -8.1527    4.8468 H   0  0  0  0  0  0
   -4.0920   -8.9448    3.7563 H   0  0  0  0  0  0
   -4.5515   -6.7404    6.6556 H   0  0  0  0  0  0
   -1.7238   -8.6392    4.0680 H   0  0  0  0  0  0
   -2.7573   -6.2829    8.2836 H   0  0  0  0  0  0
    0.0749   -8.1775    5.6925 H   0  0  0  0  0  0
   -0.4405   -6.9983    7.8050 H   0  0  0  0  0  0
   -5.2993   -7.5832    0.8980 H   0  0  0  0  0  0
   -2.5129   -8.1320   -0.0590 H   0  0  0  0  0  0
   -5.2567   -8.1735   -1.4393 H   0  0  0  0  0  0
   -3.7290   -8.5968   -2.2842 H   0  0  0  0  0  0
   -3.3653  -10.4247   -0.6572 H   0  0  0  0  0  0
   -4.9345  -10.0211    0.1181 H   0  0  0  0  0  0
   -6.1033  -10.4704   -2.0108 H   0  0  0  0  0  0
   -4.5345  -10.8708   -2.7887 H   0  0  0  0  0  0
   -5.5329  -12.9492   -2.2050 H   0  0  0  0  0  0
   -4.2549  -12.6586   -0.9767 H   0  0  0  0  0  0
   -6.2929  -13.5089    0.0316 H   0  0  0  0  0  0
   -7.2181  -12.1265   -0.6463 H   0  0  0  0  0  0
   -5.9400  -11.8358    0.5820 H   0  0  0  0  0  0
   -5.0087   -5.6338   -0.3094 H   0  0  0  0  0  0
   -3.5731   -4.1619   -2.4675 H   0  0  0  0  0  0
   -6.1288   -4.0873   -1.7126 H   0  0  0  0  0  0
   -5.5544   -2.8217   -0.5748 H   0  0  0  0  0  0
   -4.9781   -2.6563   -3.5425 H   0  0  0  0  0  0
   -6.5327   -2.0937   -2.8401 H   0  0  0  0  0  0
   -3.2678    0.3136   -2.5972 H   0  0  0  0  0  0
   -3.8228   -4.0445    1.0951 H   0  0  0  0  0  0
   -2.3011   -1.5592    1.3860 H   0  0  0  0  0  0
   -3.7216   -2.7643    3.1775 H   0  0  0  0  0  0
   -2.7160   -5.0000    2.9704 H   0  0  0  0  0  0
   -2.6880   -4.3727    4.6534 H   0  0  0  0  0  0
   -1.1870   -4.3646    3.6668 H   0  0  0  0  0  0
   -2.2931   -0.7799    3.6484 H   0  0  0  0  0  0
   -0.9387   -1.8840    4.0648 H   0  0  0  0  0  0
   -2.4398   -1.8921    5.0514 H   0  0  0  0  0  0
   -1.4501   -4.9322    0.8861 H   0  0  0  0  0  0
    1.4512   -4.5205    1.4282 H   0  0  0  0  0  0
    0.3490   -6.7366    1.6626 H   0  0  0  0  0  0
    1.7062   -6.8169    0.4886 H   0  0  0  0  0  0
    0.0106   -6.7572   -0.1015 H   0  0  0  0  0  0
   -0.6986   -4.6112   -1.4195 H   0  0  0  0  0  0
    1.5405   -4.3953   -3.3461 H   0  0  0  0  0  0
   -1.4759   -4.1165   -3.4757 H   0  0  0  0  0  0
   -0.5031   -3.5218   -4.8638 H   0  0  0  0  0  0
    0.7808   -4.9182   -6.1233 H   0  0  0  0  0  0
    0.4285   -6.7900   -6.0772 H   0  0  0  0  0  0
   -0.4339   -2.1400   -1.4846 H   0  0  0  0  0  0
    0.1759    0.2758   -3.0164 H   0  0  0  0  0  0
   -1.5526    0.1551   -1.2474 H   0  0  0  0  0  0
   -0.4019    1.4969   -0.9278 H   0  0  0  0  0  0
   -0.2726   -0.0369   -0.0018 H   0  0  0  0  0  0
    1.9089   -1.5967   -0.5990 H   0  0  0  0  0  0
    4.0236    0.4182   -0.1430 H   0  0  0  0  0  0
    4.2696   -2.6410    0.1897 H   0  0  0  0  0  0
    6.3946   -1.3988    0.4318 H   0  0  0  0  0  0
    5.8654   -2.1564    1.9722 H   0  0  0  0  0  0
    5.6484   -0.3914    1.7183 H   0  0  0  0  0  0
    2.2129   -1.7876    1.3038 H   0  0  0  0  0  0
    3.2170   -0.6174    2.2254 H   0  0  0  0  0  0
    3.4340   -2.3824    2.4793 H   0  0  0  0  0  0
    3.3342   -2.1044   -2.4659 H   0  0  0  0  0  0
    6.0978   -2.1933   -3.5690 H   0  0  0  0  0  0
    3.3826   -3.1864   -4.6527 H   0  0  0  0  0  0
    4.9503   -3.5283   -5.4601 H   0  0  0  0  0  0
    4.6707   -4.2769   -2.5635 H   0  0  0  0  0  0
    3.7960   -5.2566   -3.7889 H   0  0  0  0  0  0
    5.8580   -6.3564   -3.5146 H   0  0  0  0  0  0
    6.0731   -5.3974   -5.0181 H   0  0  0  0  0  0
    6.9078   -4.1953   -2.3768 H   0  0  0  0  0  0
    7.9450   -5.4411   -3.1508 H   0  0  0  0  0  0
    8.6322   -3.1936   -3.7629 H   0  0  0  0  0  0
    6.9922   -2.8589   -4.4148 H   0  0  0  0  0  0
    8.0293   -4.1047   -5.1888 H   0  0  0  0  0  0
    3.1966   -0.2999   -4.0791 H   0  0  0  0  0  0
    4.2444    0.6964   -6.7212 H   0  0  0  0  0  0
    1.7297    0.2582   -6.1036 H   0  0  0  0  0  0
    1.0021    2.4925   -7.3538 H   0  0  0  0  0  0
    2.7742    2.7018   -7.5599 H   0  0  0  0  0  0
    1.7126    1.4728   -3.9617 H   0  0  0  0  0  0
    0.4497    2.0573   -5.0976 H   0  0  0  0  0  0
    1.9456    3.0193   -4.8454 H   0  0  0  0  0  0
    1.7632    1.6392   -9.5038 H   0  0  0  0  0  0
    1.1296    0.3132   -8.4709 H   0  0  0  0  0  0
    2.9017    0.5225   -8.6770 H   0  0  0  0  0  0
    4.1649    1.6177   -3.3486 H   0  0  0  0  0  0
    4.8195    4.4661   -3.9184 H   0  0  0  0  0  0
    5.0912    2.7838   -1.3496 H   0  0  0  0  0  0
    5.2480    4.5719   -1.4169 H   0  0  0  0  0  0
    2.9076    3.8998   -0.7586 H   0  0  0  0  0  0
    6.5781    1.5639   -4.0556 H   0  0  0  0  0  0
    9.1564    3.1057   -3.5214 H   0  0  0  0  0  0
    8.8367    1.0269   -2.1867 H   0  0  0  0  0  0
   10.2452    0.8708   -3.2906 H   0  0  0  0  0  0
    8.6879    0.0765   -3.7037 H   0  0  0  0  0  0
    7.1414    1.7885   -5.9665 H   0  0  0  0  0  0
    9.4833    1.4733   -7.8624 H   0  0  0  0  0  0
    6.4526    1.0649   -8.2507 H   0  0  0  0  0  0
    7.7005    0.6768   -9.4831 H   0  0  0  0  0  0
    7.0861   -1.3742   -8.1502 H   0  0  0  0  0  0
    8.3102    4.0825   -6.6216 H   0  0  0  0  0  0
    7.5649    5.4651   -9.2063 H   0  0  0  0  0  0
   11.2166    6.8397   -7.6643 H   0  0  0  0  0  0
    7.7376    6.4972   -6.3070 H   0  0  0  0  0  0
    7.1875    7.4884   -7.7003 H   0  0  0  0  0  0
    5.7810    4.9075   -7.0694 H   0  0  0  0  0  0
    6.0002    6.1034   -4.9085 H   0  0  0  0  0  0
    4.3077    6.1043   -5.5102 H   0  0  0  0  0  0
    5.3173    7.5817   -5.6667 H   0  0  0  0  0  0
    5.2443    6.1731   -9.1267 H   0  0  0  0  0  0
    4.8749    7.6229   -8.1324 H   0  0  0  0  0  0
    3.8653    6.1454   -7.9759 H   0  0  0  0  0  0
  1  2  1  0  0  0
  1130  1  0  0  0
  1131  1  0  0  0
  1132  1  0  0  0
  2  3  1  0  0  0
  2  5  1  0  0  0
  2133  1  0  0  0
  3  4  2  0  0  0
  3 10  1  0  0  0
  5  6  1  0  0  0
  5134  1  0  0  0
  5135  1  0  0  0
  6  7  1  0  0  0
  6136  1  0  0  0
  6137  1  0  0  0
  7  8  1  0  0  0
  7138  1  0  0  0
  7139  1  0  0  0
  8  9  1  0  0  0
  8140  1  0  0  0
  8141  1  0  0  0
  9142  1  0  0  0
  9143  1  0  0  0
  9144  1  0  0  0
 10 11  1  0  0  0
 10145  1  0  0  0
 11 12  1  0  0  0
 11 14  1  0  0  0
 11146  1  0  0  0
 12 13  2  0  0  0
 12 19  1  0  0  0
 14 15  1  0  0  0
 14147  1  0  0  0
 14148  1  0  0  0
 15 16  1  0  0  0
 15149  1  0  0  0
 15150  1  0  0  0
 16 17  1  0  0  0
 16151  1  0  0  0
 16152  1  0  0  0
 17 18  1  0  0  0
 17153  1  0  0  0
 17154  1  0  0  0
 18155  1  0  0  0
 18156  1  0  0  0
 18157  1  0  0  0
 19 20  1  0  0  0
 19158  1  0  0  0
 20 21  1  0  0  0
 20 23  1  0  0  0
 20159  1  0  0  0
 21 22  2  0  0  0
 21 26  1  0  0  0
 23 24  1  0  0  0
 23 25  1  0  0  0
 23160  1  0  0  0
 24161  1  0  0  0
 25162  1  0  0  0
 25163  1  0  0  0
 25164  1  0  0  0
 26 27  1  0  0  0
 26165  1  0  0  0
 27 28  1  0  0  0
 27 30  1  0  0  0
 27166  1  0  0  0
 28 29  2  0  0  0
 28 37  1  0  0  0
 30 31  1  0  0  0
 30167  1  0  0  0
 30168  1  0  0  0
 31 32  2  0  0  0
 31 33  1  0  0  0
 32 34  1  0  0  0
 32169  1  0  0  0
 33 35  2  0  0  0
 33170  1  0  0  0
 34 36  2  0  0  0
 34171  1  0  0  0
 35 36  1  0  0  0
 35172  1  0  0  0
 36173  1  0  0  0
 37 38  1  0  0  0
 37174  1  0  0  0
 38 39  1  0  0  0
 38 41  1  0  0  0
 38175  1  0  0  0
 39 40  2  0  0  0
 39 46  1  0  0  0
 41 42  1  0  0  0
 41176  1  0  0  0
 41177  1  0  0  0
 42 43  1  0  0  0
 42178  1  0  0  0
 42179  1  0  0  0
 43 44  1  0  0  0
 43180  1  0  0  0
 43181  1  0  0  0
 44 45  1  0  0  0
 44182  1  0  0  0
 44183  1  0  0  0
 45184  1  0  0  0
 45185  1  0  0  0
 45186  1  0  0  0
 46 47  1  0  0  0
 46187  1  0  0  0
 47 48  1  0  0  0
 47 50  1  0  0  0
 47188  1  0  0  0
 48 49  2  0  0  0
 48 55  1  0  0  0
 50 51  1  0  0  0
 50189  1  0  0  0
 50190  1  0  0  0
 51 52  1  0  0  0
 51191  1  0  0  0
 51192  1  0  0  0
 52 53  2  0  0  0
 52 54  1  0  0  0
 54193  1  0  0  0
 55 56  1  0  0  0
 55194  1  0  0  0
 56 57  1  0  0  0
 56 59  1  0  0  0
 56195  1  0  0  0
 57 58  2  0  0  0
 57 62  1  0  0  0
 59 60  1  0  0  0
 59 61  1  0  0  0
 59196  1  0  0  0
 60197  1  0  0  0
 60198  1  0  0  0
 60199  1  0  0  0
 61200  1  0  0  0
 61201  1  0  0  0
 61202  1  0  0  0
 62 63  1  0  0  0
 62203  1  0  0  0
 63 64  1  0  0  0
 63 66  1  0  0  0
 63204  1  0  0  0
 64 65  2  0  0  0
 64 67  1  0  0  0
 66205  1  0  0  0
 66206  1  0  0  0
 66207  1  0  0  0
 67 68  1  0  0  0
 67208  1  0  0  0
 68 69  1  0  0  0
 68 71  1  0  0  0
 68209  1  0  0  0
 69 70  2  0  0  0
 69 75  1  0  0  0
 71 72  1  0  0  0
 71210  1  0  0  0
 71211  1  0  0  0
 72 73  2  0  0  0
 72 74  1  0  0  0
 74212  1  0  0  0
 74213  1  0  0  0
 75 76  1  0  0  0
 75214  1  0  0  0
 76 77  1  0  0  0
 76 79  1  0  0  0
 76215  1  0  0  0
 77 78  2  0  0  0
 77 80  1  0  0  0
 79216  1  0  0  0
 79217  1  0  0  0
 79218  1  0  0  0
 80 81  1  0  0  0
 80219  1  0  0  0
 81 82  1  0  0  0
 81 84  1  0  0  0
 81220  1  0  0  0
 82 83  2  0  0  0
 82 87  1  0  0  0
 84 85  1  0  0  0
 84 86  1  0  0  0
 84221  1  0  0  0
 85222  1  0  0  0
 85223  1  0  0  0
 85224  1  0  0  0
 86225  1  0  0  0
 86226  1  0  0  0
 86227  1  0  0  0
 87 88  1  0  0  0
 87228  1  0  0  0
 88 89  1  0  0  0
 88 91  1  0  0  0
 88229  1  0  0  0
 89 90  2  0  0  0
 89 96  1  0  0  0
 91 92  1  0  0  0
 91230  1  0  0  0
 91231  1  0  0  0
 92 93  1  0  0  0
 92232  1  0  0  0
 92233  1  0  0  0
 93 94  1  0  0  0
 93234  1  0  0  0
 93235  1  0  0  0
 94 95  1  0  0  0
 94236  1  0  0  0
 94237  1  0  0  0
 95238  1  0  0  0
 95239  1  0  0  0
 95240  1  0  0  0
 96 97  1  0  0  0
 96241  1  0  0  0
 97 98  1  0  0  0
 97100  1  0  0  0
 97242  1  0  0  0
 98 99  2  0  0  0
 98104  1  0  0  0
100101  1  0  0  0
100102  1  0  0  0
100243  1  0  0  0
101103  1  0  0  0
101244  1  0  0  0
101245  1  0  0  0
102246  1  0  0  0
102247  1  0  0  0
102248  1  0  0  0
103249  1  0  0  0
103250  1  0  0  0
103251  1  0  0  0
104105  1  0  0  0
104252  1  0  0  0
105106  1  0  0  0
105108  1  0  0  0
105253  1  0  0  0
106107  2  0  0  0
106110  1  0  0  0
108109  1  0  0  0
108254  1  0  0  0
108255  1  0  0  0
109256  1  0  0  0
110111  1  0  0  0
110257  1  0  0  0
111112  1  0  0  0
111114  1  0  0  0
111258  1  0  0  0
112113  2  0  0  0
112115  1  0  0  0
114259  1  0  0  0
114260  1  0  0  0
114261  1  0  0  0
115116  1  0  0  0
115262  1  0  0  0
116117  1  0  0  0
116119  1  0  0  0
116263  1  0  0  0
117118  2  0  0  0
117121  1  0  0  0
119120  1  0  0  0
119264  1  0  0  0
119265  1  0  0  0
120266  1  0  0  0
121122  1  0  0  0
121267  1  0  0  0
122123  1  0  0  0
122125  1  0  0  0
122268  1  0  0  0
123124  1  0  0  0
123129  2  0  0  0
124269  1  0  0  0
125126  1  0  0  0
125270  1  0  0  0
125271  1  0  0  0
126127  1  0  0  0
126128  1  0  0  0
126272  1  0  0  0
127273  1  0  0  0
127274  1  0  0  0
127275  1  0  0  0
128276  1  0  0  0
128277  1  0  0  0
128278  1  0  0  0
M  CHG  5   1   1   9   1  18   1  45   1  95   1
M  END
> <s_m_source_file>
../2ll7_ligand.sdf

> <i_m_source_file_index>
1

> <s_epik_input>
W05IMytdW0NIMl1bQ0gyXVtDSDJdW0NIMl1bQ0BIXShbTkgzK10pQyg9TylbTkhdW0NAQEhdKFtDSDJdW0NIMl1bQ0gyXVtDSDJdW05IMytdKUMoPU8pW05IXVtDQEBIXShbQ0BIXShbT0hdKVtDSDNdKUMoPU8pW05IXVtDQEBIXShbQ0gyXWMxW2NIXVtjSF1bY0hdW2NIXVtjSF0xKUMoPU8pW05IXVtDQEBIXShbQ0gyXVtDSDJdW0NIMl1bQ0gyXVtOSDMrXSlDKD1PKVtOSF1bQ0BASF0oW0NIMl1bQ0gyXUMoPU8pW09IXSlDKD1PKVtOSF1bQ0BASF0oW0NIXShbQ0gzXSlbQ0gzXSlDKD1PKVtOSF1bQ0BASF0oW0NIM10pQyg9TylbTkhdW0NAQEhdKFtDSDJdQyg9TylbTkgyXSlDKD1PKVtOSF1bQ0BASF0oW0NIM10pQyg9TylbTkhdW0NAQEhdKFtDSF0oW0NIM10pW0NIM10pQyg9TylbTkhdW0NAQEhdKFtDSDJdW0NIMl1bQ0gyXVtDSDJdW05IMytdKUMoPU8pW05IXVtDQEBIXShbQ0BASF0oW0NIM10pW0NIMl1bQ0gzXSlDKD1PKVtOSF1bQ0BASF0oW0NIMl1bT0hdKUMoPU8pW05IXVtDQEBIXShbQ0gzXSlDKD1PKVtOSF1bQ0BASF0oW0NIMl1bT0hdKUMoPU8pW05IXVtDQEhdKEMoPU8pW09IXSlbQ0gyXVtDSF0oW0NIM10pW0NIM10=

> <s_epik_cmdline>
J2VwaWtfYXBwJywgJy1pbWFlJywgJ2xpZ2FuZF9wcm8ubWFlJywgJy1vbWFlJywgJ2xpZ2FuZF9wcmVwLm1hZScsICctbXMnLCAnMScsICctcGgnLCAnNycsICctcGh0JywgJzAuNScsICctbnQn

> <s_epik_pKa_notes>
Molecule size exceeds maximum supported for generating protonation states

$$$$
