2llo_ligand
                    3D
 Schrodinger Suite 2020-3.
322325  0  0  1  0            999 V2000
    3.6020   15.5960    0.4230 N   0  3  0  0  0  0
    3.6360   14.9000   -0.8790 C   0  0  2  0  0  0
    3.0660   13.4930   -0.7410 C   0  0  0  0  0  0
    3.1370   12.8910    0.3280 O   0  0  0  0  0  0
    5.0680   14.8240   -1.4120 C   0  0  0  0  0  0
    5.1580   14.5450   -2.9110 C   0  0  0  0  0  0
    5.6940   15.7490   -3.6770 C   0  0  0  0  0  0
    4.6150   16.5710   -4.2140 N   0  0  0  0  0  0
    4.5090   16.9180   -5.4980 C   0  0  0  0  0  0
    5.4620   16.5960   -6.3710 N   0  0  0  0  0  0
    3.4430   17.5900   -5.9080 N   0  0  0  0  0  0
    2.4960   12.9720   -1.8260 N   0  0  0  0  0  0
    1.9230   11.6330   -1.8300 C   0  0  2  0  0  0
    2.9710   10.6030   -1.4990 C   0  0  0  0  0  0
    2.6740    9.5800   -0.8900 O   0  0  0  0  0  0
    1.3020   11.3200   -3.1760 C   0  0  0  0  0  0
    4.2030   10.8720   -1.8770 N   0  0  0  0  0  0
    5.2860    9.9450   -1.6000 C   0  0  2  0  0  0
    5.5870    9.8730   -0.1190 C   0  0  0  0  0  0
    6.4040    9.0740    0.2900 O   0  0  0  0  0  0
    6.5280   10.2900   -2.3870 C   0  0  0  0  0  0
    5.0710   10.8180    0.6460 N   0  0  0  0  0  0
    5.1980   10.8030    2.1020 C   0  0  2  0  0  0
    3.8780   10.3350    2.7200 C   0  0  0  0  0  0
    3.8440    9.5980    3.7030 O   0  0  0  0  0  0
    5.5790   12.1890    2.6110 C   0  0  0  0  0  0
    6.8170   12.7510    1.9370 C   0  0  0  0  0  0
    6.8650   12.8780    0.7120 O   0  0  0  0  0  0
    7.8100   13.1210    2.7260 N   0  0  0  0  0  0
    2.7610   10.7840    2.1280 N   0  0  0  0  0  0
    1.4340   10.4200    2.6190 C   0  0  2  0  0  0
    1.0990    8.9750    2.2770 C   0  0  0  0  0  0
    0.0930    8.4480    2.7340 O   0  0  0  0  0  0
    0.3740   11.3650    2.0550 C   0  0  0  0  0  0
   -0.2850   12.2950    3.0860 C   0  0  0  0  0  0
    0.6690   13.3990    3.5010 C   0  0  0  0  0  0
   -1.5720   12.8880    2.5310 C   0  0  0  0  0  0
    1.9230    8.3640    1.4390 N   0  0  0  0  0  0
    1.7740    6.9530    1.0930 C   0  0  2  0  0  0
    2.5350    6.1290    2.1450 C   0  0  0  0  0  0
    1.9930    5.1830    2.7100 O   0  0  0  0  0  0
    2.2620    6.6710   -0.3410 C   0  0  0  0  0  0
    1.1640    6.7030   -1.3670 C   0  0  0  0  0  0
    0.1580    7.6260   -1.4850 C   0  0  0  0  0  0
    0.9790    5.7870   -2.4420 C   0  0  0  0  0  0
   -0.6320    7.3310   -2.5570 N   0  0  0  0  0  0
   -0.1480    6.2150   -3.1650 C   0  0  0  0  0  0
    1.6600    4.6460   -2.8660 C   0  0  0  0  0  0
   -0.6030    5.5520   -4.2890 C   0  0  0  0  0  0
    1.2040    3.9860   -3.9850 C   0  0  0  0  0  0
    0.0840    4.4440   -4.6870 C   0  0  0  0  0  0
    3.8300    6.4480    2.3870 N   0  0  0  0  0  0
    4.6370    5.8180    3.4450 C   0  0  2  0  0  0
    3.9550    5.8470    4.8080 C   0  0  0  0  0  0
    4.1170    4.9220    5.6030 O   0  0  0  0  0  0
    5.8900    6.6960    3.4530 C   0  0  0  0  0  0
    6.0560    6.9970    2.0380 C   0  0  0  0  0  0
    4.6660    7.3230    1.5680 C   0  0  0  0  0  0
    3.1980    6.9070    5.0760 N   0  0  0  0  0  0
    2.4950    7.0310    6.3480 C   0  0  2  0  0  0
    1.5420    5.8330    6.5710 C   0  0  0  0  0  0
    1.6960    5.1190    7.5630 O   0  0  0  0  0  0
    1.7840    8.3920    6.4520 C   0  0  0  0  0  0
    0.8750    8.4270    7.5440 O   0  0  0  0  0  0
    0.5350    5.5870    5.6910 N   0  0  0  0  0  0
   -0.3460    4.4130    5.8200 C   0  0  2  0  0  0
    0.4460    3.1090    5.8600 C   0  0  0  0  0  0
    0.0620    2.1580    6.5400 O   0  0  0  0  0  0
   -1.1940    4.4780    4.5510 C   0  0  0  0  0  0
   -1.2380    5.9190    4.2090 C   0  0  0  0  0  0
    0.1180    6.4430    4.5780 C   0  0  0  0  0  0
    1.5520    3.0650    5.1240 N   0  0  0  0  0  0
    2.4010    1.8810    5.1060 C   0  0  2  0  0  0
    3.0160    1.6670    6.4850 C   0  0  0  0  0  0
    3.2240    0.5360    6.9210 O   0  0  0  0  0  0
    3.4940    2.0020    4.0510 C   0  0  0  0  0  0
    4.1060    0.6660    3.6170 C   0  0  0  0  0  0
    3.1800   -0.0510    2.6410 C   0  0  0  0  0  0
    5.4760    0.8860    3.0010 C   0  0  0  0  0  0
    3.2940    2.7740    7.1670 N   0  0  0  0  0  0
    3.8430    2.7380    8.5160 C   0  0  2  0  0  0
    2.7790    2.1810    9.4560 C   0  0  0  0  0  0
    3.0770    1.4830   10.4300 O   0  0  0  0  0  0
    4.2920    4.1500    8.9270 C   0  0  0  0  0  0
    4.1170    4.4810   10.4000 C   0  0  0  0  0  0
    4.4220    6.2260   10.7480 S   0  0  0  0  0  0
    3.8710    6.3390   12.4490 C   0  0  0  0  0  0
    1.5290    2.4840    9.1340 N   0  0  0  0  0  0
    0.3970    1.9800    9.8970 C   0  0  2  0  0  0
    0.2770    0.4800    9.6440 C   0  0  0  0  0  0
   -0.0250   -0.3020   10.5490 O   0  0  0  0  0  0
   -0.9250    2.6990    9.5030 C   0  0  2  0  0  0
   -0.8070    4.2180    9.7290 C   0  0  0  0  0  0
   -2.1060    2.1350   10.2900 C   0  0  0  0  0  0
   -0.4390    4.6040   11.1500 C   0  0  0  0  0  0
    0.5540    0.0920    8.4030 N   0  0  0  0  0  0
    0.5280   -1.3070    8.0020 C   0  0  2  0  0  0
    1.5960   -2.0710    8.7740 C   0  0  0  0  0  0
    1.3640   -3.1860    9.2340 O   0  0  0  0  0  0
    0.7700   -1.4490    6.4880 C   0  0  0  0  0  0
    0.2330   -2.7510    5.8980 C   0  0  0  0  0  0
    1.3360   -3.5950    5.2560 C   0  0  0  0  0  0
    2.4140   -3.9860    6.2470 C   0  0  0  0  0  0
    3.7840   -3.6860    5.7390 N   0  3  0  0  0  0
    2.7720   -1.4610    8.9040 N   0  0  0  0  0  0
    3.8770   -2.0660    9.6380 C   0  0  2  0  0  0
    3.4640   -2.2690   11.0910 C   0  0  0  0  0  0
    3.7680   -3.2940   11.6960 O   0  0  0  0  0  0
    5.1240   -1.1760    9.5640 C   0  0  0  0  0  0
    6.4330   -1.9390    9.3580 C   0  0  0  0  0  0
    6.7320   -2.8970   10.5080 C   0  0  0  0  0  0
    8.1690   -3.1280   10.6840 N   0  0  0  0  0  0
    8.8750   -4.0360   10.0100 C   0  0  0  0  0  0
    8.2900   -4.8000    9.0950 N   0  0  0  0  0  0
   10.1740   -4.1760   10.2480 N   0  0  0  0  0  0
    2.7600   -1.2840   11.6320 N   0  0  0  0  0  0
    2.2830   -1.3480   13.0040 C   0  0  2  0  0  0
    1.2750   -2.4870   13.1550 C   0  0  0  0  0  0
    1.2810   -3.2060   14.1550 O   0  0  0  0  0  0
    1.6620   -0.0030   13.4010 C   0  0  0  0  0  0
    2.6220    1.0410   13.3020 O   0  0  0  0  0  0
    0.4290   -2.6560   12.1450 N   0  0  0  0  0  0
   -0.5710   -3.7190   12.1520 C   0  0  2  0  0  0
    0.1130   -5.0770   12.0050 C   0  0  0  0  0  0
   -0.3270   -6.0730   12.5760 O   0  0  0  0  0  0
   -1.5890   -3.5170   11.0200 C   0  0  0  0  0  0
   -2.5820   -4.6660   10.8700 C   0  0  0  0  0  0
   -3.4380   -4.8360   12.1150 C   0  0  0  0  0  0
   -3.9820   -6.2530   12.2360 C   0  0  0  0  0  0
   -2.9340   -7.2200   12.6820 N   0  3  0  0  0  0
    1.1930   -5.1040   11.2370 N   0  0  0  0  0  0
    1.9560   -6.3290   11.0180 C   0  0  2  0  0  0
    2.6100   -6.7640   12.3290 C   0  0  0  0  0  0
    2.8540   -7.9490   12.5700 O   0  0  0  0  0  0
    3.0180   -6.0900    9.9340 C   0  0  0  0  0  0
    3.1860   -7.2520    8.9660 C   0  0  0  0  0  0
    4.2710   -8.2120    9.4260 C   0  0  0  0  0  0
    4.3440   -9.4370    8.5320 C   0  0  0  0  0  0
    4.6010   -9.0950    7.1080 N   0  3  0  0  0  0
    2.8870   -5.7780   13.1700 N   0  0  0  0  0  0
    3.4870   -6.0130   14.4740 C   0  0  2  0  0  0
    2.4040   -6.3330   15.4950 C   0  0  0  0  0  0
    2.5960   -7.1600   16.3820 O   0  0  0  0  0  0
    4.3200   -4.7940   14.9000 C   0  0  0  0  0  0
    4.7130   -4.8270   16.3680 C   0  0  0  0  0  0
    4.1730   -4.0760   17.1780 O   0  0  0  0  0  0
    5.6450   -5.7080   16.7250 N   0  0  0  0  0  0
    1.2670   -5.6740   15.3590 N   0  0  0  0  0  0
    0.1360   -5.8860   16.2440 C   0  0  2  0  0  0
   -0.8050   -6.9370   15.6500 C   0  0  0  0  0  0
   -0.5170   -8.1510   15.7820 O   0  0  0  0  0  0
   -0.5960   -4.5670   16.4630 C   0  0  0  0  0  0
    0.3120   -3.5250   16.8130 O   0  0  0  0  0  0
   -1.8280   -6.5480   15.0400 O   0  0  0  0  0  0
    2.5654   15.6399    0.7883 H   0  0  0  0  0  0
    3.9921   16.6175    0.3030 H   0  0  0  0  0  0
    4.2232   15.0490    1.1475 H   0  0  0  0  0  0
    3.0116   15.4935   -1.5630 H   0  0  0  0  0  0
    5.5789   15.7807   -1.2283 H   0  0  0  0  0  0
    5.6082   14.0153   -0.8980 H   0  0  0  0  0  0
    5.8335   13.6946   -3.0858 H   0  0  0  0  0  0
    4.1576   14.3045   -3.2999 H   0  0  0  0  0  0
    6.3010   16.3716   -3.0033 H   0  0  0  0  0  0
    6.3157   15.4028   -4.5158 H   0  0  0  0  0  0
    3.8239   16.9443   -3.5471 H   0  0  0  0  0  0
    6.3490   16.0383   -6.0361 H   0  0  0  0  0  0
    5.3621   16.8878   -7.4269 H   0  0  0  0  0  0
    2.6529   17.8585   -5.1913 H   0  0  0  0  0  0
    2.4659   13.5859   -2.7383 H   0  0  0  0  0  0
    1.1495   11.6361   -1.0479 H   0  0  0  0  0  0
    0.5379   12.0754   -3.4118 H   0  0  0  0  0  0
    0.8352   10.3245   -3.1419 H   0  0  0  0  0  0
    2.0820   11.3329   -3.9515 H   0  0  0  0  0  0
    4.4070   11.8129   -2.4090 H   0  0  0  0  0  0
    4.9115    8.9680   -1.9395 H   0  0  0  0  0  0
    6.2823   10.3360   -3.4582 H   0  0  0  0  0  0
    7.2943    9.5189   -2.2193 H   0  0  0  0  0  0
    6.9119   11.2664   -2.0566 H   0  0  0  0  0  0
    4.5300   11.6370    0.1495 H   0  0  0  0  0  0
    6.0043   10.0973    2.3508 H   0  0  0  0  0  0
    4.7511   12.8887    2.4239 H   0  0  0  0  0  0
    5.7808   12.1402    3.6912 H   0  0  0  0  0  0
    7.7255   12.9897    3.8149 H   0  0  0  0  0  0
    8.7212   13.5604    2.2941 H   0  0  0  0  0  0
    2.8620   11.4418    1.2521 H   0  0  0  0  0  0
    1.4872   10.5265    3.7125 H   0  0  0  0  0  0
    0.8297   12.0139    1.2926 H   0  0  0  0  0  0
   -0.4363   10.7770    1.5992 H   0  0  0  0  0  0
   -0.5345   11.7080    3.9822 H   0  0  0  0  0  0
    1.5930   12.9546    3.8994 H   0  0  0  0  0  0
    0.1965   14.0195    4.2767 H   0  0  0  0  0  0
    0.9093   14.0234    2.6278 H   0  0  0  0  0  0
   -2.2522   12.0757    2.2351 H   0  0  0  0  0  0
   -1.3406   13.5104    1.6540 H   0  0  0  0  0  0
   -2.0534   13.5065    3.3028 H   0  0  0  0  0  0
    2.7401    8.9548    0.9993 H   0  0  0  0  0  0
    0.6996    6.7186    1.1207 H   0  0  0  0  0  0
    3.0050    7.4285   -0.6311 H   0  0  0  0  0  0
    2.7213    5.6723   -0.3823 H   0  0  0  0  0  0
    0.0102    8.4748   -0.8174 H   0  0  0  0  0  0
    2.5337    4.2849   -2.3235 H   0  0  0  0  0  0
   -1.4781    5.9019   -4.8365 H   0  0  0  0  0  0
    1.7241    3.0922   -4.3295 H   0  0  0  0  0  0
   -0.2471    3.9022   -5.5730 H   0  0  0  0  0  0
    4.8007    4.7521    3.2279 H   0  0  0  0  0  0
    5.7067    7.5909    4.0659 H   0  0  0  0  0  0
    6.7326    6.1287    3.8752 H   0  0  0  0  0  0
    6.7423    7.8488    1.9224 H   0  0  0  0  0  0
    6.4717    6.1186    1.5226 H   0  0  0  0  0  0
    4.5124    7.0868    0.5047 H   0  0  0  0  0  0
    4.3914    8.3718    1.7540 H   0  0  0  0  0  0
    3.1071    7.6988    4.3179 H   0  0  0  0  0  0
    3.2790    6.9992    7.1189 H   0  0  0  0  0  0
    2.5313    9.1859    6.5976 H   0  0  0  0  0  0
    1.2213    8.5834    5.5264 H   0  0  0  0  0  0
    0.2917    9.3377    7.7451 H   0  0  0  0  0  0
   -0.9167    4.4580    6.7593 H   0  0  0  0  0  0
   -0.7156    3.8825    3.7594 H   0  0  0  0  0  0
   -2.1960    4.0744    4.7585 H   0  0  0  0  0  0
   -1.4407    6.0347    3.1340 H   0  0  0  0  0  0
   -2.0352    6.4089    4.7873 H   0  0  0  0  0  0
    0.0814    7.4897    4.9142 H   0  0  0  0  0  0
    0.8387    6.3481    3.7524 H   0  0  0  0  0  0
    1.8219    3.9445    4.5210 H   0  0  0  0  0  0
    1.7403    1.0418    4.8429 H   0  0  0  0  0  0
    3.0808    2.4740    3.1474 H   0  0  0  0  0  0
    4.3159    2.6187    4.4436 H   0  0  0  0  0  0
    4.2343    0.0250    4.5017 H   0  0  0  0  0  0
    2.1960   -0.1982    3.1100 H   0  0  0  0  0  0
    3.6106   -1.0284    2.3778 H   0  0  0  0  0  0
    3.0653    0.5562    1.7310 H   0  0  0  0  0  0
    6.1240    1.4039    3.7235 H   0  0  0  0  0  0
    5.3757    1.4991    2.0932 H   0  0  0  0  0  0
    5.9210   -0.0855    2.7400 H   0  0  0  0  0  0
    3.0959    3.7399    6.6794 H   0  0  0  0  0  0
    4.7165    2.0694    8.5145 H   0  0  0  0  0  0
    5.3617    4.2743    8.7029 H   0  0  0  0  0  0
    3.7108    4.8972    8.3668 H   0  0  0  0  0  0
    3.0877    4.2459   10.7088 H   0  0  0  0  0  0
    4.8238    3.8852   10.9962 H   0  0  0  0  0  0
    3.9992    7.3708   12.8081 H   0  0  0  0  0  0
    4.4665    5.6567   13.0734 H   0  0  0  0  0  0
    2.8090    6.0589   12.5098 H   0  0  0  0  0  0
    1.3596    3.1352    8.2638 H   0  0  0  0  0  0
    0.6290    2.1873   10.9521 H   0  0  0  0  0  0
   -1.1215    2.5200    8.4356 H   0  0  0  0  0  0
   -0.0278    4.6274    9.0693 H   0  0  0  0  0  0
   -1.7699    4.6985    9.5012 H   0  0  0  0  0  0
   -2.1767    1.0508   10.1183 H   0  0  0  0  0  0
   -3.0347    2.6205    9.9557 H   0  0  0  0  0  0
   -1.9572    2.3275   11.3628 H   0  0  0  0  0  0
   -0.3751    5.6994   11.2275 H   0  0  0  0  0  0
    0.5335    4.1606   11.4102 H   0  0  0  0  0  0
   -1.2087    4.2317   11.8421 H   0  0  0  0  0  0
    0.8093    0.8700    7.6685 H   0  0  0  0  0  0
   -0.4756   -1.6773    8.2582 H   0  0  0  0  0  0
    0.2749   -0.6217    5.9584 H   0  0  0  0  0  0
    1.8507   -1.4197    6.2851 H   0  0  0  0  0  0
   -0.2342   -3.3491    6.6942 H   0  0  0  0  0  0
   -0.5150   -2.5221    5.1246 H   0  0  0  0  0  0
    0.8999   -4.5180    4.8464 H   0  0  0  0  0  0
    1.8108   -3.0227    4.4454 H   0  0  0  0  0  0
    2.2687   -3.4301    7.1850 H   0  0  0  0  0  0
    2.3535   -5.0659    6.4476 H   0  0  0  0  0  0
    4.5280   -3.9867    6.4913 H   0  0  0  0  0  0
    3.8748   -2.6072    5.5443 H   0  0  0  0  0  0
    3.9595   -4.2429    4.8068 H   0  0  0  0  0  0
    2.8970   -0.4724    8.4381 H   0  0  0  0  0  0
    4.0799   -3.0333    9.1551 H   0  0  0  0  0  0
    5.0250   -0.4754    8.7217 H   0  0  0  0  0  0
    5.2267   -0.6100   10.5016 H   0  0  0  0  0  0
    6.3721   -2.5280    8.4310 H   0  0  0  0  0  0
    7.2662   -1.2246    9.2844 H   0  0  0  0  0  0
    6.3380   -2.4783   11.4458 H   0  0  0  0  0  0
    6.2538   -3.8677   10.3104 H   0  0  0  0  0  0
    8.7369   -2.5308   11.4126 H   0  0  0  0  0  0
    7.2145   -4.6897    8.8924 H   0  0  0  0  0  0
   10.6655   -3.5466   11.0045 H   0  0  0  0  0  0
   10.7585   -4.9213    9.6886 H   0  0  0  0  0  0
    2.5391   -0.4016   11.0135 H   0  0  0  0  0  0
    3.1619   -1.5540   13.6326 H   0  0  0  0  0  0
    0.8192    0.2236   12.7314 H   0  0  0  0  0  0
    1.3013   -0.0577   14.4387 H   0  0  0  0  0  0
    2.3389    2.0741   13.5522 H   0  0  0  0  0  0
    0.4958   -1.9694   11.2882 H   0  0  0  0  0  0
   -1.0758   -3.6485   13.1268 H   0  0  0  0  0  0
   -2.1730   -2.6045   11.2106 H   0  0  0  0  0  0
   -1.0574   -3.4187   10.0620 H   0  0  0  0  0  0
   -3.2474   -4.4665   10.0171 H   0  0  0  0  0  0
   -2.0341   -5.6038   10.6961 H   0  0  0  0  0  0
   -2.8331   -4.6202   13.0081 H   0  0  0  0  0  0
   -4.2896   -4.1410   12.0722 H   0  0  0  0  0  0
   -4.7998   -6.2702   12.9714 H   0  0  0  0  0  0
   -4.3611   -6.5850   11.2582 H   0  0  0  0  0  0
   -3.3713   -8.2267   12.7550 H   0  0  0  0  0  0
   -2.5490   -6.9152   13.6663 H   0  0  0  0  0  0
   -2.1103   -7.2299   11.9531 H   0  0  0  0  0  0
    1.5096   -4.1658   10.7580 H   0  0  0  0  0  0
    1.2437   -7.0981   10.6846 H   0  0  0  0  0  0
    2.7413   -5.2080    9.3378 H   0  0  0  0  0  0
    3.9952   -5.9194   10.4093 H   0  0  0  0  0  0
    2.2395   -7.8077    8.8924 H   0  0  0  0  0  0
    3.4624   -6.8657    7.9738 H   0  0  0  0  0  0
    5.2459   -7.7031    9.4002 H   0  0  0  0  0  0
    4.0569   -8.5424   10.4531 H   0  0  0  0  0  0
    5.1593  -10.0918    8.8732 H   0  0  0  0  0  0
    3.3905   -9.9833    8.5800 H   0  0  0  0  0  0
    4.6433  -10.0180    6.5111 H   0  0  0  0  0  0
    5.5594   -8.5613    7.0263 H   0  0  0  0  0  0
    3.7905   -8.4527    6.7331 H   0  0  0  0  0  0
    2.6470   -4.7528   12.8517 H   0  0  0  0  0  0
    4.1434   -6.8887   14.3636 H   0  0  0  0  0  0
    5.2458   -4.7572   14.3070 H   0  0  0  0  0  0
    3.7391   -3.8755   14.7302 H   0  0  0  0  0  0
    6.1029   -6.3615   15.9678 H   0  0  0  0  0  0
    5.9572   -5.7825   17.7771 H   0  0  0  0  0  0
    1.1951   -4.9432   14.5400 H   0  0  0  0  0  0
    0.5463   -6.2493   17.1978 H   0  0  0  0  0  0
   -1.1798   -8.9223   15.3626 H   0  0  0  0  0  0
   -1.1195   -4.2804   15.5390 H   0  0  0  0  0  0
   -1.3265   -4.6838   17.2771 H   0  0  0  0  0  0
   -0.0639   -2.5090   17.0041 H   0  0  0  0  0  0
  1  2  1  0  0  0
  1155  1  0  0  0
  1156  1  0  0  0
  1157  1  0  0  0
  2  3  1  0  0  0
  2  5  1  0  0  0
  2158  1  0  0  0
  3  4  2  0  0  0
  3 12  1  0  0  0
  5  6  1  0  0  0
  5159  1  0  0  0
  5160  1  0  0  0
  6  7  1  0  0  0
  6161  1  0  0  0
  6162  1  0  0  0
  7  8  1  0  0  0
  7163  1  0  0  0
  7164  1  0  0  0
  8  9  1  0  0  0
  8165  1  0  0  0
  9 10  1  0  0  0
  9 11  2  0  0  0
 10166  1  0  0  0
 10167  1  0  0  0
 11168  1  0  0  0
 12 13  1  0  0  0
 12169  1  0  0  0
 13 14  1  0  0  0
 13 16  1  0  0  0
 13170  1  0  0  0
 14 15  2  0  0  0
 14 17  1  0  0  0
 16171  1  0  0  0
 16172  1  0  0  0
 16173  1  0  0  0
 17 18  1  0  0  0
 17174  1  0  0  0
 18 19  1  0  0  0
 18 21  1  0  0  0
 18175  1  0  0  0
 19 20  2  0  0  0
 19 22  1  0  0  0
 21176  1  0  0  0
 21177  1  0  0  0
 21178  1  0  0  0
 22 23  1  0  0  0
 22179  1  0  0  0
 23 24  1  0  0  0
 23 26  1  0  0  0
 23180  1  0  0  0
 24 25  2  0  0  0
 24 30  1  0  0  0
 26 27  1  0  0  0
 26181  1  0  0  0
 26182  1  0  0  0
 27 28  2  0  0  0
 27 29  1  0  0  0
 29183  1  0  0  0
 29184  1  0  0  0
 30 31  1  0  0  0
 30185  1  0  0  0
 31 32  1  0  0  0
 31 34  1  0  0  0
 31186  1  0  0  0
 32 33  2  0  0  0
 32 38  1  0  0  0
 34 35  1  0  0  0
 34187  1  0  0  0
 34188  1  0  0  0
 35 36  1  0  0  0
 35 37  1  0  0  0
 35189  1  0  0  0
 36190  1  0  0  0
 36191  1  0  0  0
 36192  1  0  0  0
 37193  1  0  0  0
 37194  1  0  0  0
 37195  1  0  0  0
 38 39  1  0  0  0
 38196  1  0  0  0
 39 40  1  0  0  0
 39 42  1  0  0  0
 39197  1  0  0  0
 40 41  2  0  0  0
 40 52  1  0  0  0
 42 43  1  0  0  0
 42198  1  0  0  0
 42199  1  0  0  0
 43 44  2  0  0  0
 43 45  1  0  0  0
 44 46  1  0  0  0
 44200  1  0  0  0
 45 47  2  0  0  0
 45 48  1  0  0  0
 46 47  1  0  0  0
 47 49  1  0  0  0
 48 50  2  0  0  0
 48201  1  0  0  0
 49 51  2  0  0  0
 49202  1  0  0  0
 50 51  1  0  0  0
 50203  1  0  0  0
 51204  1  0  0  0
 52 53  1  0  0  0
 52 58  1  0  0  0
 53 54  1  0  0  0
 53 56  1  0  0  0
 53205  1  0  0  0
 54 55  2  0  0  0
 54 59  1  0  0  0
 56 57  1  0  0  0
 56206  1  0  0  0
 56207  1  0  0  0
 57 58  1  0  0  0
 57208  1  0  0  0
 57209  1  0  0  0
 58210  1  0  0  0
 58211  1  0  0  0
 59 60  1  0  0  0
 59212  1  0  0  0
 60 61  1  0  0  0
 60 63  1  0  0  0
 60213  1  0  0  0
 61 62  2  0  0  0
 61 65  1  0  0  0
 63 64  1  0  0  0
 63214  1  0  0  0
 63215  1  0  0  0
 64216  1  0  0  0
 65 66  1  0  0  0
 65 71  1  0  0  0
 66 67  1  0  0  0
 66 69  1  0  0  0
 66217  1  0  0  0
 67 68  2  0  0  0
 67 72  1  0  0  0
 69 70  1  0  0  0
 69218  1  0  0  0
 69219  1  0  0  0
 70 71  1  0  0  0
 70220  1  0  0  0
 70221  1  0  0  0
 71222  1  0  0  0
 71223  1  0  0  0
 72 73  1  0  0  0
 72224  1  0  0  0
 73 74  1  0  0  0
 73 76  1  0  0  0
 73225  1  0  0  0
 74 75  2  0  0  0
 74 80  1  0  0  0
 76 77  1  0  0  0
 76226  1  0  0  0
 76227  1  0  0  0
 77 78  1  0  0  0
 77 79  1  0  0  0
 77228  1  0  0  0
 78229  1  0  0  0
 78230  1  0  0  0
 78231  1  0  0  0
 79232  1  0  0  0
 79233  1  0  0  0
 79234  1  0  0  0
 80 81  1  0  0  0
 80235  1  0  0  0
 81 82  1  0  0  0
 81 84  1  0  0  0
 81236  1  0  0  0
 82 83  2  0  0  0
 82 88  1  0  0  0
 84 85  1  0  0  0
 84237  1  0  0  0
 84238  1  0  0  0
 85 86  1  0  0  0
 85239  1  0  0  0
 85240  1  0  0  0
 86 87  1  0  0  0
 87241  1  0  0  0
 87242  1  0  0  0
 87243  1  0  0  0
 88 89  1  0  0  0
 88244  1  0  0  0
 89 90  1  0  0  0
 89 92  1  0  0  0
 89245  1  0  0  0
 90 91  2  0  0  0
 90 96  1  0  0  0
 92 93  1  0  0  0
 92 94  1  0  0  0
 92246  1  0  0  0
 93 95  1  0  0  0
 93247  1  0  0  0
 93248  1  0  0  0
 94249  1  0  0  0
 94250  1  0  0  0
 94251  1  0  0  0
 95252  1  0  0  0
 95253  1  0  0  0
 95254  1  0  0  0
 96 97  1  0  0  0
 96255  1  0  0  0
 97 98  1  0  0  0
 97100  1  0  0  0
 97256  1  0  0  0
 98 99  2  0  0  0
 98105  1  0  0  0
100101  1  0  0  0
100257  1  0  0  0
100258  1  0  0  0
101102  1  0  0  0
101259  1  0  0  0
101260  1  0  0  0
102103  1  0  0  0
102261  1  0  0  0
102262  1  0  0  0
103104  1  0  0  0
103263  1  0  0  0
103264  1  0  0  0
104265  1  0  0  0
104266  1  0  0  0
104267  1  0  0  0
105106  1  0  0  0
105268  1  0  0  0
106107  1  0  0  0
106109  1  0  0  0
106269  1  0  0  0
107108  2  0  0  0
107116  1  0  0  0
109110  1  0  0  0
109270  1  0  0  0
109271  1  0  0  0
110111  1  0  0  0
110272  1  0  0  0
110273  1  0  0  0
111112  1  0  0  0
111274  1  0  0  0
111275  1  0  0  0
112113  1  0  0  0
112276  1  0  0  0
113114  2  0  0  0
113115  1  0  0  0
114277  1  0  0  0
115278  1  0  0  0
115279  1  0  0  0
116117  1  0  0  0
116280  1  0  0  0
117118  1  0  0  0
117120  1  0  0  0
117281  1  0  0  0
118119  2  0  0  0
118122  1  0  0  0
120121  1  0  0  0
120282  1  0  0  0
120283  1  0  0  0
121284  1  0  0  0
122123  1  0  0  0
122285  1  0  0  0
123124  1  0  0  0
123126  1  0  0  0
123286  1  0  0  0
124125  2  0  0  0
124131  1  0  0  0
126127  1  0  0  0
126287  1  0  0  0
126288  1  0  0  0
127128  1  0  0  0
127289  1  0  0  0
127290  1  0  0  0
128129  1  0  0  0
128291  1  0  0  0
128292  1  0  0  0
129130  1  0  0  0
129293  1  0  0  0
129294  1  0  0  0
130295  1  0  0  0
130296  1  0  0  0
130297  1  0  0  0
131132  1  0  0  0
131298  1  0  0  0
132133  1  0  0  0
132135  1  0  0  0
132299  1  0  0  0
133134  2  0  0  0
133140  1  0  0  0
135136  1  0  0  0
135300  1  0  0  0
135301  1  0  0  0
136137  1  0  0  0
136302  1  0  0  0
136303  1  0  0  0
137138  1  0  0  0
137304  1  0  0  0
137305  1  0  0  0
138139  1  0  0  0
138306  1  0  0  0
138307  1  0  0  0
139308  1  0  0  0
139309  1  0  0  0
139310  1  0  0  0
140141  1  0  0  0
140311  1  0  0  0
141142  1  0  0  0
141144  1  0  0  0
141312  1  0  0  0
142143  2  0  0  0
142148  1  0  0  0
144145  1  0  0  0
144313  1  0  0  0
144314  1  0  0  0
145146  2  0  0  0
145147  1  0  0  0
147315  1  0  0  0
147316  1  0  0  0
148149  1  0  0  0
148317  1  0  0  0
149150  1  0  0  0
149152  1  0  0  0
149318  1  0  0  0
150151  1  0  0  0
150154  2  0  0  0
151319  1  0  0  0
152153  1  0  0  0
152320  1  0  0  0
152321  1  0  0  0
153322  1  0  0  0
M  CHG  4   1   1 104   1 130   1 139   1
M  END
> <s_m_source_file>
../2llo_ligand.sdf

> <i_m_source_file_index>
1

> <s_epik_input>
W0hdL049QyhbTkgyXSlcW05IXVtDSDJdW0NIMl1bQ0gyXVtDQEhdKFtOSDMrXSlDKD1PKVtOSF1bQ0BASF0oW0NIM10pQyg9TylbTkhdW0NAQEhdKFtDSDNdKUMoPU8pW05IXVtDQEBIXShbQ0gyXUMoPU8pW05IMl0pQyg9TylbTkhdW0NAQEhdKFtDSDJdW0NIXShbQ0gzXSlbQ0gzXSlDKD1PKVtOSF1bQ0BASF0oW0NIMl1jMVtjSF1bbkhdYyhjMTIpW2NIXVtjSF1bY0hdW2NIXTIpQyg9TylOM1tDQEBIXShbQ0gyXVtDSDJdW0NIMl0zKUMoPU8pW05IXVtDQEBIXShbQ0gyXVtPSF0pQyg9TylONFtDQEBIXShbQ0gyXVtDSDJdW0NIMl00KUMoPU8pW05IXVtDQEBIXShbQ0gyXVtDSF0oW0NIM10pW0NIM10pQyg9TylbTkhdW0NAQEhdKFtDSDJdW0NIMl1TW0NIM10pQyg9TylbTkhdW0NAQEhdKFtDQEBIXShbQ0gzXSlbQ0gyXVtDSDNdKUMoPU8pW05IXVtDQEBIXShbQ0gyXVtDSDJdW0NIMl1bQ0gyXVtOSDMrXSlDKD1PKVtOSF1bQ0BASF0oW0NIMl1bQ0gyXVtDSDJdW05IXS9DKD1OXFtIXSlbTkgyXSlDKD1PKVtOSF1bQ0BASF0oW0NIMl1bT0hdKUMoPU8pW05IXVtDQEBIXShbQ0gyXVtDSDJdW0NIMl1bQ0gyXVtOSDMrXSlDKD1PKVtOSF1bQ0BASF0oW0NIMl1bQ0gyXVtDSDJdW0NIMl1bTkgzK10pQyg9TylbTkhdW0NAQEhdKFtDSDJdQyg9TylbTkgyXSlDKD1PKVtOSF1bQ0BIXShDKD1PKVtPSF0pW0NIMl1bT0hd

> <s_epik_cmdline>
J2VwaWtfYXBwJywgJy1pbWFlJywgJ2xpZ2FuZF9wcm8ubWFlJywgJy1vbWFlJywgJ2xpZ2FuZF9wcmVwLm1hZScsICctbXMnLCAnMScsICctcGgnLCAnNycsICctcGh0JywgJzAuNScsICctbnQn

> <s_epik_pKa_notes>
Molecule size exceeds maximum supported for generating protonation states

> <s_epik_Chemistry_Notes>
This compound has an imine and may undergo hydrolysis.

$$$$
