2llq_ligand
                    3D
 Schrodinger Suite 2020-3.
322325  0  0  1  0            999 V2000
   -4.1110   16.0200   -2.6580 N   0  3  0  0  0  0
   -2.9080   15.4290   -2.0230 C   0  0  2  0  0  0
   -3.3390   14.3070   -1.0890 C   0  0  0  0  0  0
   -3.5340   14.5180    0.1060 O   0  0  0  0  0  0
   -2.1050   16.5000   -1.2710 C   0  0  0  0  0  0
   -1.5950   17.6000   -2.1910 C   0  0  0  0  0  0
   -0.0730   17.6650   -2.2200 C   0  0  0  0  0  0
    0.5450   16.3460   -2.0880 N   0  0  0  0  0  0
    1.4200   16.0290   -1.1350 C   0  0  0  0  0  0
    1.7470   16.9090   -0.1960 N   0  0  0  0  0  0
    1.9580   14.8230   -1.1110 N   0  0  0  0  0  0
   -3.5130   13.1200   -1.6610 N   0  0  0  0  0  0
   -3.9560   11.9380   -0.9230 C   0  0  2  0  0  0
   -2.7940   11.0270   -0.5090 C   0  0  0  0  0  0
   -3.0270    9.9320   -0.0120 O   0  0  0  0  0  0
   -5.0010   11.1690   -1.7140 C   0  0  0  0  0  0
   -1.5660   11.4160   -0.8470 N   0  0  0  0  0  0
   -0.3540   10.6500   -0.5000 C   0  0  2  0  0  0
   -0.4720    9.8950    0.8350 C   0  0  0  0  0  0
   -0.2040    8.6930    0.8980 O   0  0  0  0  0  0
    0.8400   11.5920   -0.4420 C   0  0  0  0  0  0
   -0.8900   10.5990    1.8900 N   0  0  0  0  0  0
   -1.0250    9.9970    3.2190 C   0  0  2  0  0  0
   -2.0200    8.8350    3.2080 C   0  0  0  0  0  0
   -1.9530    7.9440    4.0540 O   0  0  0  0  0  0
   -1.4610   11.0460    4.2500 C   0  0  0  0  0  0
   -2.8860   11.5170    4.0460 C   0  0  0  0  0  0
   -3.1440   12.4360    3.2650 O   0  0  0  0  0  0
   -3.8170   10.9050    4.7580 N   0  0  0  0  0  0
   -2.9380    8.8490    2.2500 N   0  0  0  0  0  0
   -3.9200    7.7900    2.1170 C   0  0  2  0  0  0
   -3.2270    6.5150    1.6580 C   0  0  0  0  0  0
   -3.7360    5.4380    1.8870 O   0  0  0  0  0  0
   -5.0380    8.1690    1.1390 C   0  0  0  0  0  0
   -6.4110    7.5560    1.4260 C   0  0  0  0  0  0
   -7.0860    8.2890    2.5710 C   0  0  0  0  0  0
   -7.2800    7.5990    0.1790 C   0  0  0  0  0  0
   -2.0740    6.6310    0.9770 N   0  0  0  0  0  0
   -1.3320    5.4220    0.5810 C   0  0  2  0  0  0
   -0.9550    4.6790    1.8800 C   0  0  0  0  0  0
   -1.2910    3.4890    2.0550 O   0  0  0  0  0  0
   -0.0630    5.7290   -0.2380 C   0  0  0  0  0  0
   -0.2060    5.8930   -1.7330 C   0  0  0  0  0  0
   -0.2990    7.0800   -2.3940 C   0  0  0  0  0  0
   -0.1990    4.8710   -2.7620 C   0  0  0  0  0  0
   -0.3230    6.8760   -3.7440 N   0  0  0  0  0  0
   -0.2640    5.5410   -4.0030 C   0  0  0  0  0  0
   -0.1320    3.4660   -2.7790 C   0  0  0  0  0  0
   -0.2580    4.8670   -5.2220 C   0  0  0  0  0  0
   -0.1310    2.8170   -4.0140 C   0  0  0  0  0  0
   -0.1930    3.5320   -5.2040 C   0  0  0  0  0  0
   -0.2280    5.3500    2.8230 N   0  0  0  0  0  0
    0.0890    4.7390    4.1140 C   0  0  2  0  0  0
   -1.1640    4.3520    4.8940 C   0  0  0  0  0  0
   -1.0800    3.5780    5.8410 O   0  0  0  0  0  0
    0.8420    5.8280    4.8710 C   0  0  0  0  0  0
    1.4160    6.6950    3.8220 C   0  0  0  0  0  0
    0.4310    6.6670    2.6920 C   0  0  0  0  0  0
   -2.3180    4.9170    4.5240 N   0  0  0  0  0  0
   -3.5680    4.5850    5.2010 C   0  0  2  0  0  0
   -3.8370    3.0660    5.1480 C   0  0  0  0  0  0
   -3.8450    2.4380    6.2060 O   0  0  0  0  0  0
   -4.7410    5.4100    4.6660 C   0  0  0  0  0  0
   -4.6320    6.7630    5.0740 O   0  0  0  0  0  0
   -4.0640    2.4110    3.9640 N   0  0  0  0  0  0
   -4.2460    0.9570    3.9440 C   0  0  2  0  0  0
   -2.9920    0.2530    4.4420 C   0  0  0  0  0  0
   -3.0600   -0.8650    4.9500 O   0  0  0  0  0  0
   -4.5070    0.6180    2.4750 C   0  0  0  0  0  0
   -4.9560    1.8870    1.8660 C   0  0  0  0  0  0
   -4.2280    2.9680    2.6150 C   0  0  0  0  0  0
   -1.8370    0.9110    4.2850 N   0  0  0  0  0  0
   -0.5820    0.3450    4.7780 C   0  0  2  0  0  0
   -0.6640    0.1900    6.3040 C   0  0  0  0  0  0
   -0.2900   -0.8410    6.8700 O   0  0  0  0  0  0
    0.5940    1.2450    4.4000 C   0  0  0  0  0  0
    1.9530    0.5520    4.3490 C   0  0  0  0  0  0
    2.1480   -0.1420    3.0100 C   0  0  0  0  0  0
    3.0660    1.5570    4.6000 C   0  0  0  0  0  0
   -1.1780    1.2300    6.9530 N   0  0  0  0  0  0
   -1.3630    1.2390    8.3990 C   0  0  2  0  0  0
   -2.4350    0.2260    8.7650 C   0  0  0  0  0  0
   -2.3870   -0.4050    9.8250 O   0  0  0  0  0  0
   -1.7700    2.6390    8.8740 C   0  0  0  0  0  0
   -1.8720    2.7730   10.3820 C   0  0  0  0  0  0
   -2.8350    4.2140   10.8830 S   0  0  0  0  0  0
   -1.9150    5.5440   10.1070 C   0  0  0  0  0  0
   -3.4010    0.0730    7.8640 N   0  0  0  0  0  0
   -4.4770   -0.8850    8.0480 C   0  0  2  0  0  0
   -3.9000   -2.2980    8.0260 C   0  0  0  0  0  0
   -4.3960   -3.1860    8.7050 O   0  0  0  0  0  0
   -5.5700   -0.7440    6.9620 C   0  0  2  0  0  0
   -6.2300    0.6360    7.0460 C   0  0  0  0  0  0
   -6.6200   -1.8420    7.0940 C   0  0  0  0  0  0
   -6.8200    0.9530    8.4050 C   0  0  0  0  0  0
   -2.8410   -2.4910    7.2430 N   0  0  0  0  0  0
   -2.1710   -3.7840    7.1700 C   0  0  2  0  0  0
   -1.6120   -4.1270    8.5420 C   0  0  0  0  0  0
   -1.7630   -5.2500    9.0270 O   0  0  0  0  0  0
   -1.0450   -3.7620    6.1310 C   0  0  0  0  0  0
   -1.1420   -4.8730    5.0940 C   0  0  0  0  0  0
   -0.1660   -6.0080    5.3810 C   0  0  0  0  0  0
   -0.6400   -6.8860    6.5280 C   0  0  0  0  0  0
    0.2290   -8.0770    6.7140 N   0  3  0  0  0  0
   -0.9750   -3.1440    9.1700 N   0  0  0  0  0  0
   -0.4180   -3.3340   10.5040 C   0  0  2  0  0  0
   -1.5510   -3.5400   11.5080 C   0  0  0  0  0  0
   -1.4230   -4.3020   12.4660 O   0  0  0  0  0  0
    0.4460   -2.1370   10.9150 C   0  0  0  0  0  0
    1.4550   -2.4680   12.0070 C   0  0  0  0  0  0
    1.1300   -1.7580   13.3110 C   0  0  0  0  0  0
    1.7830   -0.4540   13.4020 N   0  0  0  0  0  0
    1.4370    0.4940   14.2720 C   0  0  0  0  0  0
    0.4460    0.2880   15.1330 N   0  0  0  0  0  0
    2.0890    1.6500   14.2860 N   0  0  0  0  0  0
   -2.6620   -2.8480   11.2750 N   0  0  0  0  0  0
   -3.8360   -2.9610   12.1300 C   0  0  2  0  0  0
   -4.4710   -4.3370   11.9540 C   0  0  0  0  0  0
   -4.9690   -4.9340   12.9080 O   0  0  0  0  0  0
   -4.8440   -1.8610   11.7810 C   0  0  0  0  0  0
   -4.2750   -0.5690   11.9500 O   0  0  0  0  0  0
   -4.4420   -4.8310   10.7210 N   0  0  0  0  0  0
   -4.9890   -6.1370   10.3940 C   0  0  2  0  0  0
   -4.1560   -7.2160   11.0650 C   0  0  0  0  0  0
   -4.6650   -8.2700   11.4240 O   0  0  0  0  0  0
   -5.0080   -6.3440    8.8760 C   0  0  0  0  0  0
   -5.8920   -7.4960    8.4230 C   0  0  0  0  0  0
   -7.3570   -7.2370    8.7490 C   0  0  0  0  0  0
   -8.2710   -8.2470    8.0740 C   0  0  0  0  0  0
   -7.9760   -9.6410    8.5070 N   0  3  0  0  0  0
   -2.8680   -6.9320   11.2220 N   0  0  0  0  0  0
   -1.9550   -7.8540   11.8810 C   0  0  2  0  0  0
   -2.3500   -7.9670   13.3490 C   0  0  0  0  0  0
   -2.3840   -9.0570   13.9190 O   0  0  0  0  0  0
   -0.5160   -7.3510   11.7510 C   0  0  0  0  0  0
    0.5380   -8.4280   11.9600 C   0  0  0  0  0  0
    1.9400   -7.8510   11.8390 C   0  0  0  0  0  0
    2.9520   -8.9100   11.4350 C   0  0  0  0  0  0
    4.2370   -8.3030   10.9930 N   0  3  0  0  0  0
   -2.6680   -6.8200   13.9420 N   0  0  0  0  0  0
   -3.1030   -6.7640   15.3290 C   0  0  2  0  0  0
   -4.4630   -7.4420   15.4560 C   0  0  0  0  0  0
   -4.7130   -8.1950   16.3970 O   0  0  0  0  0  0
   -3.1720   -5.3070   15.8090 C   0  0  0  0  0  0
   -4.0180   -5.1360   17.0570 C   0  0  0  0  0  0
   -5.2060   -4.8240   16.9770 O   0  0  0  0  0  0
   -3.4130   -5.3290   18.2130 N   0  0  0  0  0  0
   -5.3310   -7.1830   14.4850 N   0  0  0  0  0  0
   -6.6560   -7.7820   14.4590 C   0  0  2  0  0  0
   -6.5290   -9.2960   14.2990 C   0  0  0  0  0  0
   -7.3225  -10.0803   14.8846 O   0  0  0  0  0  0
   -7.4800   -7.1870   13.3100 C   0  0  0  0  0  0
   -8.8570   -7.5170   13.4210 O   0  0  0  0  0  0
   -5.6162   -9.7680   13.5698 O   0  0  0  0  0  0
   -4.6684   15.2346   -3.1894 H   0  0  0  0  0  0
   -3.8038   16.7985   -3.3718 H   0  0  0  0  0  0
   -4.7530   16.4653   -1.8837 H   0  0  0  0  0  0
   -2.2752   15.0178   -2.8233 H   0  0  0  0  0  0
   -2.7431   16.9671   -0.5064 H   0  0  0  0  0  0
   -1.2346   16.0331   -0.7869 H   0  0  0  0  0  0
   -1.9490   17.4143   -3.2158 H   0  0  0  0  0  0
   -1.9723   18.5730   -1.8434 H   0  0  0  0  0  0
    0.2573   18.1004   -3.1747 H   0  0  0  0  0  0
    0.2832   18.2912   -1.3887 H   0  0  0  0  0  0
    0.2939   15.5471   -2.8012 H   0  0  0  0  0  0
    1.3042   17.9159   -0.2076 H   0  0  0  0  0  0
    2.4607   16.6312    0.5935 H   0  0  0  0  0  0
    1.6933   14.0872   -1.8846 H   0  0  0  0  0  0
   -3.3077   13.0501   -2.7394 H   0  0  0  0  0  0
   -4.4145   12.3458   -0.0100 H   0  0  0  0  0  0
   -5.8197   11.8473   -1.9961 H   0  0  0  0  0  0
   -5.3993   10.3505   -1.0964 H   0  0  0  0  0  0
   -4.5404   10.7526   -2.6220 H   0  0  0  0  0  0
   -1.4796   12.3564   -1.4111 H   0  0  0  0  0  0
   -0.2488    9.9126   -1.3094 H   0  0  0  0  0  0
    0.9266   12.1333   -1.3957 H   0  0  0  0  0  0
    1.7572   11.0110   -0.2655 H   0  0  0  0  0  0
    0.6991   12.3126    0.3771 H   0  0  0  0  0  0
   -1.1360   11.6605    1.7395 H   0  0  0  0  0  0
   -0.0205    9.6180    3.4585 H   0  0  0  0  0  0
   -1.3914   10.6177    5.2608 H   0  0  0  0  0  0
   -0.8042   11.9255    4.1785 H   0  0  0  0  0  0
   -3.5390   10.0898    5.4422 H   0  0  0  0  0  0
   -4.8696   11.2110    4.6661 H   0  0  0  0  0  0
   -2.9412    9.6937    1.5454 H   0  0  0  0  0  0
   -4.3493    7.6644    3.1220 H   0  0  0  0  0  0
   -5.1803    9.2597    1.1497 H   0  0  0  0  0  0
   -4.7631    7.8450    0.1244 H   0  0  0  0  0  0
   -6.2815    6.5041    1.7206 H   0  0  0  0  0  0
   -6.4433    8.2471    3.4627 H   0  0  0  0  0  0
   -8.0522    7.8123    2.7926 H   0  0  0  0  0  0
   -7.2516    9.3388    2.2873 H   0  0  0  0  0  0
   -6.7750    7.0636   -0.6385 H   0  0  0  0  0  0
   -7.4465    8.6456   -0.1159 H   0  0  0  0  0  0
   -8.2471    7.1190    0.3893 H   0  0  0  0  0  0
   -1.6843    7.6258    0.7154 H   0  0  0  0  0  0
   -2.0052    4.8464   -0.0713 H   0  0  0  0  0  0
    0.3797    6.6732    0.1119 H   0  0  0  0  0  0
    0.6634    4.9132   -0.1083 H   0  0  0  0  0  0
   -0.3475    8.0567   -1.9126 H   0  0  0  0  0  0
   -0.0821    2.8982   -1.8499 H   0  0  0  0  0  0
   -0.3050    5.4129   -6.1643 H   0  0  0  0  0  0
   -0.0806    1.7286   -4.0461 H   0  0  0  0  0  0
   -0.1885    2.9890   -6.1491 H   0  0  0  0  0  0
    0.6629    3.8166    3.9412 H   0  0  0  0  0  0
    0.1405    6.3792    5.5146 H   0  0  0  0  0  0
    1.6253    5.3685    5.4917 H   0  0  0  0  0  0
    1.5436    7.7135    4.2174 H   0  0  0  0  0  0
    2.3934    6.2971    3.5117 H   0  0  0  0  0  0
    0.9242    6.7343    1.7111 H   0  0  0  0  0  0
   -0.3220    7.4641    2.7792 H   0  0  0  0  0  0
   -2.3164    5.6416    3.6964 H   0  0  0  0  0  0
   -3.4092    4.8845    6.2475 H   0  0  0  0  0  0
   -4.7459    5.3704    3.5667 H   0  0  0  0  0  0
   -5.6852    4.9982    5.0520 H   0  0  0  0  0  0
   -5.3984    7.4920    4.7720 H   0  0  0  0  0  0
   -5.0711    0.6684    4.6118 H   0  0  0  0  0  0
   -3.5787    0.2511    2.0128 H   0  0  0  0  0  0
   -5.2813   -0.1606    2.4103 H   0  0  0  0  0  0
   -4.6964    1.8927    0.7971 H   0  0  0  0  0  0
   -6.0460    1.9826    1.9791 H   0  0  0  0  0  0
   -4.8103    3.8995    2.6713 H   0  0  0  0  0  0
   -3.2388    3.1795    2.1829 H   0  0  0  0  0  0
   -1.8386    1.8876    3.7788 H   0  0  0  0  0  0
   -0.4619   -0.6331    4.2893 H   0  0  0  0  0  0
    0.4227    1.6718    3.4008 H   0  0  0  0  0  0
    0.6847    2.0580    5.1354 H   0  0  0  0  0  0
    1.9918   -0.2127    5.1388 H   0  0  0  0  0  0
    1.3334   -0.8634    2.8489 H   0  0  0  0  0  0
    3.1122   -0.6714    3.0084 H   0  0  0  0  0  0
    2.1394    0.6068    2.2043 H   0  0  0  0  0  0
    2.9057    2.0465    5.5720 H   0  0  0  0  0  0
    3.0623    2.3149    3.8027 H   0  0  0  0  0  0
    4.0351    1.0367    4.6069 H   0  0  0  0  0  0
   -1.4681    2.1071    6.3559 H   0  0  0  0  0  0
   -0.3997    0.9576    8.8494 H   0  0  0  0  0  0
   -1.0254    3.3730    8.5323 H   0  0  0  0  0  0
   -2.7554    2.8954    8.4577 H   0  0  0  0  0  0
   -2.3593    1.8786   10.7974 H   0  0  0  0  0  0
   -0.8638    2.8736   10.8102 H   0  0  0  0  0  0
   -2.3994    6.5054   10.3330 H   0  0  0  0  0  0
   -1.8961    5.3900    9.0180 H   0  0  0  0  0  0
   -0.8854    5.5522   10.4941 H   0  0  0  0  0  0
   -3.3695    0.6976    6.9591 H   0  0  0  0  0  0
   -4.9040   -0.6456    9.0331 H   0  0  0  0  0  0
   -5.1012   -0.8511    5.9727 H   0  0  0  0  0  0
   -5.4835    1.4134    6.8260 H   0  0  0  0  0  0
   -7.0487    0.6961    6.3138 H   0  0  0  0  0  0
   -6.1316   -2.8257    7.0319 H   0  0  0  0  0  0
   -7.3553   -1.7457    6.2816 H   0  0  0  0  0  0
   -7.1304   -1.7466    8.0638 H   0  0  0  0  0  0
   -7.2724    1.9554    8.3835 H   0  0  0  0  0  0
   -6.0254    0.9255    9.1651 H   0  0  0  0  0  0
   -7.5905    0.2082    8.6530 H   0  0  0  0  0  0
   -2.4732   -1.6462    6.6421 H   0  0  0  0  0  0
   -2.9343   -4.5149    6.8647 H   0  0  0  0  0  0
   -1.0664   -2.8060    5.5874 H   0  0  0  0  0  0
   -0.0755   -3.8736    6.6385 H   0  0  0  0  0  0
   -2.1609   -5.2875    5.0949 H   0  0  0  0  0  0
   -0.9126   -4.4661    4.0981 H   0  0  0  0  0  0
   -0.0622   -6.6377    4.4850 H   0  0  0  0  0  0
    0.8148   -5.5890    5.6502 H   0  0  0  0  0  0
   -0.6310   -6.3053    7.4622 H   0  0  0  0  0  0
   -1.6627   -7.2359    6.3236 H   0  0  0  0  0  0
   -0.1507   -8.6807    7.5514 H   0  0  0  0  0  0
    1.2563   -7.7506    6.9334 H   0  0  0  0  0  0
    0.2247   -8.6812    5.7948 H   0  0  0  0  0  0
   -0.8719   -2.1727    8.6642 H   0  0  0  0  0  0
    0.2115   -4.2340   10.4423 H   0  0  0  0  0  0
    1.0095   -1.7748   10.0425 H   0  0  0  0  0  0
   -0.2000   -1.3316   11.2944 H   0  0  0  0  0  0
    1.4505   -3.5520   12.1940 H   0  0  0  0  0  0
    2.4594   -2.1556   11.6851 H   0  0  0  0  0  0
    0.0433   -1.6036   13.3835 H   0  0  0  0  0  0
    1.4703   -2.3723   14.1577 H   0  0  0  0  0  0
    2.6147   -0.2070   12.7258 H   0  0  0  0  0  0
   -0.0984   -0.6678   15.1266 H   0  0  0  0  0  0
    0.1700    1.0733   15.8521 H   0  0  0  0  0  0
    2.9103    1.8269   13.5759 H   0  0  0  0  0  0
   -2.6776   -2.1743   10.4056 H   0  0  0  0  0  0
   -3.4842   -2.8387   13.1650 H   0  0  0  0  0  0
   -5.1587   -1.9712   10.7327 H   0  0  0  0  0  0
   -5.7219   -1.9462   12.4382 H   0  0  0  0  0  0
   -4.8752    0.3283   11.7386 H   0  0  0  0  0  0
   -3.9834   -4.2141    9.9342 H   0  0  0  0  0  0
   -6.0165   -6.1521   10.7866 H   0  0  0  0  0  0
   -5.3833   -5.4332    8.3864 H   0  0  0  0  0  0
   -3.9885   -6.5569    8.5222 H   0  0  0  0  0  0
   -5.7953   -7.6265    7.3351 H   0  0  0  0  0  0
   -5.5801   -8.4198    8.9323 H   0  0  0  0  0  0
   -7.5084   -7.3060    9.8363 H   0  0  0  0  0  0
   -7.6374   -6.2312    8.4029 H   0  0  0  0  0  0
   -9.3173   -8.0220    8.3283 H   0  0  0  0  0  0
   -8.1383   -8.1902    6.9835 H   0  0  0  0  0  0
   -8.6584  -10.3359    7.9957 H   0  0  0  0  0  0
   -8.1154   -9.7242    9.5950 H   0  0  0  0  0  0
   -6.9364   -9.8924    8.2502 H   0  0  0  0  0  0
   -2.4966   -5.9703   10.8383 H   0  0  0  0  0  0
   -2.0522   -8.8271   11.3774 H   0  0  0  0  0  0
   -0.3618   -6.9375   10.7434 H   0  0  0  0  0  0
   -0.3323   -6.5675   12.5009 H   0  0  0  0  0  0
    0.4221   -8.8647   12.9629 H   0  0  0  0  0  0
    0.4141   -9.2146   11.2011 H   0  0  0  0  0  0
    1.9457   -7.0585   11.0762 H   0  0  0  0  0  0
    2.2481   -7.4300   12.8074 H   0  0  0  0  0  0
    3.1567   -9.5677   12.2927 H   0  0  0  0  0  0
    2.5469   -9.5063   10.6042 H   0  0  0  0  0  0
    4.9406   -9.0997   10.7099 H   0  0  0  0  0  0
    4.6649   -7.7110   11.8155 H   0  0  0  0  0  0
    4.0551   -7.6496   10.1270 H   0  0  0  0  0  0
   -2.5942   -5.8952   13.3510 H   0  0  0  0  0  0
   -2.3519   -7.3103   15.9184 H   0  0  0  0  0  0
   -2.1580   -4.9486   16.0399 H   0  0  0  0  0  0
   -3.6110   -4.6808   15.0183 H   0  0  0  0  0  0
   -2.3490   -5.6070   18.2373 H   0  0  0  0  0  0
   -3.9724   -5.2120   19.1529 H   0  0  0  0  0  0
   -5.0233   -6.4935   13.6850 H   0  0  0  0  0  0
   -7.1279   -7.5415   15.4231 H   0  0  0  0  0  0
   -7.3861   -6.0911   13.3206 H   0  0  0  0  0  0
   -7.1079   -7.5776   12.3514 H   0  0  0  0  0  0
   -9.5713   -7.1580   12.6654 H   0  0  0  0  0  0
   -5.5169  -10.8568   13.4485 H   0  0  0  0  0  0
  1  2  1  0  0  0
  1155  1  0  0  0
  1156  1  0  0  0
  1157  1  0  0  0
  2  3  1  0  0  0
  2  5  1  0  0  0
  2158  1  0  0  0
  3  4  2  0  0  0
  3 12  1  0  0  0
  5  6  1  0  0  0
  5159  1  0  0  0
  5160  1  0  0  0
  6  7  1  0  0  0
  6161  1  0  0  0
  6162  1  0  0  0
  7  8  1  0  0  0
  7163  1  0  0  0
  7164  1  0  0  0
  8  9  1  0  0  0
  8165  1  0  0  0
  9 10  1  0  0  0
  9 11  2  0  0  0
 10166  1  0  0  0
 10167  1  0  0  0
 11168  1  0  0  0
 12 13  1  0  0  0
 12169  1  0  0  0
 13 14  1  0  0  0
 13 16  1  0  0  0
 13170  1  0  0  0
 14 15  2  0  0  0
 14 17  1  0  0  0
 16171  1  0  0  0
 16172  1  0  0  0
 16173  1  0  0  0
 17 18  1  0  0  0
 17174  1  0  0  0
 18 19  1  0  0  0
 18 21  1  0  0  0
 18175  1  0  0  0
 19 20  2  0  0  0
 19 22  1  0  0  0
 21176  1  0  0  0
 21177  1  0  0  0
 21178  1  0  0  0
 22 23  1  0  0  0
 22179  1  0  0  0
 23 24  1  0  0  0
 23 26  1  0  0  0
 23180  1  0  0  0
 24 25  2  0  0  0
 24 30  1  0  0  0
 26 27  1  0  0  0
 26181  1  0  0  0
 26182  1  0  0  0
 27 28  2  0  0  0
 27 29  1  0  0  0
 29183  1  0  0  0
 29184  1  0  0  0
 30 31  1  0  0  0
 30185  1  0  0  0
 31 32  1  0  0  0
 31 34  1  0  0  0
 31186  1  0  0  0
 32 33  2  0  0  0
 32 38  1  0  0  0
 34 35  1  0  0  0
 34187  1  0  0  0
 34188  1  0  0  0
 35 36  1  0  0  0
 35 37  1  0  0  0
 35189  1  0  0  0
 36190  1  0  0  0
 36191  1  0  0  0
 36192  1  0  0  0
 37193  1  0  0  0
 37194  1  0  0  0
 37195  1  0  0  0
 38 39  1  0  0  0
 38196  1  0  0  0
 39 40  1  0  0  0
 39 42  1  0  0  0
 39197  1  0  0  0
 40 41  2  0  0  0
 40 52  1  0  0  0
 42 43  1  0  0  0
 42198  1  0  0  0
 42199  1  0  0  0
 43 44  2  0  0  0
 43 45  1  0  0  0
 44 46  1  0  0  0
 44200  1  0  0  0
 45 47  2  0  0  0
 45 48  1  0  0  0
 46 47  1  0  0  0
 47 49  1  0  0  0
 48 50  2  0  0  0
 48201  1  0  0  0
 49 51  2  0  0  0
 49202  1  0  0  0
 50 51  1  0  0  0
 50203  1  0  0  0
 51204  1  0  0  0
 52 53  1  0  0  0
 52 58  1  0  0  0
 53 54  1  0  0  0
 53 56  1  0  0  0
 53205  1  0  0  0
 54 55  2  0  0  0
 54 59  1  0  0  0
 56 57  1  0  0  0
 56206  1  0  0  0
 56207  1  0  0  0
 57 58  1  0  0  0
 57208  1  0  0  0
 57209  1  0  0  0
 58210  1  0  0  0
 58211  1  0  0  0
 59 60  1  0  0  0
 59212  1  0  0  0
 60 61  1  0  0  0
 60 63  1  0  0  0
 60213  1  0  0  0
 61 62  2  0  0  0
 61 65  1  0  0  0
 63 64  1  0  0  0
 63214  1  0  0  0
 63215  1  0  0  0
 64216  1  0  0  0
 65 66  1  0  0  0
 65 71  1  0  0  0
 66 67  1  0  0  0
 66 69  1  0  0  0
 66217  1  0  0  0
 67 68  2  0  0  0
 67 72  1  0  0  0
 69 70  1  0  0  0
 69218  1  0  0  0
 69219  1  0  0  0
 70 71  1  0  0  0
 70220  1  0  0  0
 70221  1  0  0  0
 71222  1  0  0  0
 71223  1  0  0  0
 72 73  1  0  0  0
 72224  1  0  0  0
 73 74  1  0  0  0
 73 76  1  0  0  0
 73225  1  0  0  0
 74 75  2  0  0  0
 74 80  1  0  0  0
 76 77  1  0  0  0
 76226  1  0  0  0
 76227  1  0  0  0
 77 78  1  0  0  0
 77 79  1  0  0  0
 77228  1  0  0  0
 78229  1  0  0  0
 78230  1  0  0  0
 78231  1  0  0  0
 79232  1  0  0  0
 79233  1  0  0  0
 79234  1  0  0  0
 80 81  1  0  0  0
 80235  1  0  0  0
 81 82  1  0  0  0
 81 84  1  0  0  0
 81236  1  0  0  0
 82 83  2  0  0  0
 82 88  1  0  0  0
 84 85  1  0  0  0
 84237  1  0  0  0
 84238  1  0  0  0
 85 86  1  0  0  0
 85239  1  0  0  0
 85240  1  0  0  0
 86 87  1  0  0  0
 87241  1  0  0  0
 87242  1  0  0  0
 87243  1  0  0  0
 88 89  1  0  0  0
 88244  1  0  0  0
 89 90  1  0  0  0
 89 92  1  0  0  0
 89245  1  0  0  0
 90 91  2  0  0  0
 90 96  1  0  0  0
 92 93  1  0  0  0
 92 94  1  0  0  0
 92246  1  0  0  0
 93 95  1  0  0  0
 93247  1  0  0  0
 93248  1  0  0  0
 94249  1  0  0  0
 94250  1  0  0  0
 94251  1  0  0  0
 95252  1  0  0  0
 95253  1  0  0  0
 95254  1  0  0  0
 96 97  1  0  0  0
 96255  1  0  0  0
 97 98  1  0  0  0
 97100  1  0  0  0
 97256  1  0  0  0
 98 99  2  0  0  0
 98105  1  0  0  0
100101  1  0  0  0
100257  1  0  0  0
100258  1  0  0  0
101102  1  0  0  0
101259  1  0  0  0
101260  1  0  0  0
102103  1  0  0  0
102261  1  0  0  0
102262  1  0  0  0
103104  1  0  0  0
103263  1  0  0  0
103264  1  0  0  0
104265  1  0  0  0
104266  1  0  0  0
104267  1  0  0  0
105106  1  0  0  0
105268  1  0  0  0
106107  1  0  0  0
106109  1  0  0  0
106269  1  0  0  0
107108  2  0  0  0
107116  1  0  0  0
109110  1  0  0  0
109270  1  0  0  0
109271  1  0  0  0
110111  1  0  0  0
110272  1  0  0  0
110273  1  0  0  0
111112  1  0  0  0
111274  1  0  0  0
111275  1  0  0  0
112113  1  0  0  0
112276  1  0  0  0
113114  1  0  0  0
113115  2  0  0  0
114277  1  0  0  0
114278  1  0  0  0
115279  1  0  0  0
116117  1  0  0  0
116280  1  0  0  0
117118  1  0  0  0
117120  1  0  0  0
117281  1  0  0  0
118119  2  0  0  0
118122  1  0  0  0
120121  1  0  0  0
120282  1  0  0  0
120283  1  0  0  0
121284  1  0  0  0
122123  1  0  0  0
122285  1  0  0  0
123124  1  0  0  0
123126  1  0  0  0
123286  1  0  0  0
124125  2  0  0  0
124131  1  0  0  0
126127  1  0  0  0
126287  1  0  0  0
126288  1  0  0  0
127128  1  0  0  0
127289  1  0  0  0
127290  1  0  0  0
128129  1  0  0  0
128291  1  0  0  0
128292  1  0  0  0
129130  1  0  0  0
129293  1  0  0  0
129294  1  0  0  0
130295  1  0  0  0
130296  1  0  0  0
130297  1  0  0  0
131132  1  0  0  0
131298  1  0  0  0
132133  1  0  0  0
132135  1  0  0  0
132299  1  0  0  0
133134  2  0  0  0
133140  1  0  0  0
135136  1  0  0  0
135300  1  0  0  0
135301  1  0  0  0
136137  1  0  0  0
136302  1  0  0  0
136303  1  0  0  0
137138  1  0  0  0
137304  1  0  0  0
137305  1  0  0  0
138139  1  0  0  0
138306  1  0  0  0
138307  1  0  0  0
139308  1  0  0  0
139309  1  0  0  0
139310  1  0  0  0
140141  1  0  0  0
140311  1  0  0  0
141142  1  0  0  0
141144  1  0  0  0
141312  1  0  0  0
142143  2  0  0  0
142148  1  0  0  0
144145  1  0  0  0
144313  1  0  0  0
144314  1  0  0  0
145146  2  0  0  0
145147  1  0  0  0
147315  1  0  0  0
147316  1  0  0  0
148149  1  0  0  0
148317  1  0  0  0
149150  1  0  0  0
149152  1  0  0  0
149318  1  0  0  0
150151  2  0  0  0
150154  1  0  0  0
152153  1  0  0  0
152319  1  0  0  0
152320  1  0  0  0
153321  1  0  0  0
154322  1  0  0  0
M  CHG  4   1   1 104   1 130   1 139   1
M  END
> <s_m_source_file>
../2llq_ligand.sdf

> <i_m_source_file_index>
1

> <s_epik_input>
W0hdL049QyhbTkgyXSlcW05IXVtDSDJdW0NIMl1bQ0gyXVtDQEhdKFtOSDMrXSlDKD1PKVtOSF1bQ0BASF0oW0NIM10pQyg9TylbTkhdW0NAQEhdKFtDSDNdKUMoPU8pW05IXVtDQEBIXShbQ0gyXUMoPU8pW05IMl0pQyg9TylbTkhdW0NAQEhdKFtDSDJdW0NIXShbQ0gzXSlbQ0gzXSlDKD1PKVtOSF1bQ0BASF0oW0NIMl1jMVtjSF1bbkhdYyhjMTIpW2NIXVtjSF1bY0hdW2NIXTIpQyg9TylOM1tDQEBIXShbQ0gyXVtDSDJdW0NIMl0zKUMoPU8pW05IXVtDQEBIXShbQ0gyXVtPSF0pQyg9TylONFtDQEBIXShbQ0gyXVtDSDJdW0NIMl00KUMoPU8pW05IXVtDQEBIXShbQ0gyXVtDSF0oW0NIM10pW0NIM10pQyg9TylbTkhdW0NAQEhdKFtDSDJdW0NIMl1TW0NIM10pQyg9TylbTkhdW0NAQEhdKFtDQEBIXShbQ0gzXSlbQ0gyXVtDSDNdKUMoPU8pW05IXVtDQEBIXShbQ0gyXVtDSDJdW0NIMl1bQ0gyXVtOSDMrXSlDKD1PKVtOSF1bQ0BASF0oW0NIMl1bQ0gyXVtDSDJdW05IXS9DKFtOSDJdKT1OXFtIXSlDKD1PKVtOSF1bQ0BASF0oW0NIMl1bT0hdKUMoPU8pW05IXVtDQEBIXShbQ0gyXVtDSDJdW0NIMl1bQ0gyXVtOSDMrXSlDKD1PKVtOSF1bQ0BASF0oW0NIMl1bQ0gyXVtDSDJdW0NIMl1bTkgzK10pQyg9TylbTkhdW0NAQEhdKFtDSDJdQyg9TylbTkgyXSlDKD1PKVtOSF1bQ0BIXShDKD1PKVtPSF0pW0NIMl1bT0hd

> <s_epik_cmdline>
J2VwaWtfYXBwJywgJy1pbWFlJywgJ2xpZ2FuZF9wcm8ubWFlJywgJy1vbWFlJywgJ2xpZ2FuZF9wcmVwLm1hZScsICctbXMnLCAnMScsICctcGgnLCAnNycsICctcGh0JywgJzAuNScsICctbnQn

> <s_epik_pKa_notes>
Molecule size exceeds maximum supported for generating protonation states

> <s_epik_Chemistry_Notes>
This compound has an imine and may undergo hydrolysis.

$$$$
