2lo6_ligand
                    3D
 Schrodinger Suite 2020-3.
206211  0  0  1  0            999 V2000
   -9.0840  -22.6320   -5.5780 N   0  3  0  0  0  0
   -8.2960  -21.6540   -4.8080 C   0  0  2  0  0  0
   -7.4120  -20.8260   -5.7370 C   0  0  0  0  0  0
   -7.3420  -21.0940   -6.9320 O   0  0  0  0  0  0
   -7.4560  -22.3560   -3.7370 C   0  0  0  0  0  0
   -6.4510  -23.3450   -4.2800 C   0  0  0  0  0  0
   -5.1640  -22.9150   -4.6330 C   0  0  0  0  0  0
   -6.8020  -24.6940   -4.4330 C   0  0  0  0  0  0
   -4.2300  -23.8240   -5.1450 C   0  0  0  0  0  0
   -5.8720  -25.6130   -4.9420 C   0  0  0  0  0  0
   -4.5820  -25.1810   -5.3050 C   0  0  0  0  0  0
   -3.6770  -26.0660   -5.8100 O   0  0  0  0  0  0
   -6.7380  -19.8170   -5.1830 N   0  0  0  0  0  0
   -5.8930  -18.9030   -5.9420 C   0  0  2  0  0  0
   -4.6380  -18.5610   -5.1320 C   0  0  0  0  0  0
   -4.5630  -18.8850   -3.9480 O   0  0  0  0  0  0
   -6.7000  -17.6490   -6.2760 C   0  0  0  0  0  0
   -7.0850  -17.0000   -5.0840 O   0  0  0  0  0  0
   -3.6480  -17.9030   -5.7580 N   0  0  0  0  0  0
   -2.4070  -17.4760   -5.1190 C   0  0  2  0  0  0
   -2.6050  -16.4870   -3.9680 C   0  0  0  0  0  0
   -1.6200  -16.0450   -3.3780 O   0  0  0  0  0  0
   -1.5720  -16.8290   -6.2260 C   0  0  0  0  0  0
   -2.1520  -17.4120   -7.5170 C   0  0  0  0  0  0
   -3.6310  -17.5410   -7.1650 C   0  0  0  0  0  0
   -3.8520  -16.1330   -3.6390 N   0  0  0  0  0  0
   -4.1560  -15.1920   -2.5690 C   0  0  2  0  0  0
   -5.2600  -15.7480   -1.6660 C   0  0  0  0  0  0
   -6.1060  -16.5260   -2.1090 O   0  0  0  0  0  0
   -4.5450  -13.8330   -3.1540 C   0  0  2  0  0  0
   -5.5940  -13.9860   -4.0850 O   0  0  0  0  0  0
   -3.3540  -13.2000   -3.8760 C   0  0  0  0  0  0
   -5.2510  -15.3450   -0.3900 N   0  0  0  0  0  0
   -6.1680  -15.8750    0.6080 C   0  0  1  0  0  0
   -5.5120  -17.1170    1.2170 C   0  0  0  0  0  0
   -4.2280  -16.7860    1.7060 O   0  0  0  0  0  0
   -6.4720  -14.8550    1.7110 C   0  0  0  0  0  0
   -5.6280  -14.5940    2.5660 O   0  0  0  0  0  0
   -3.2010  -17.9040    2.2470 P   0  0  0  0  0  0
   -2.0620  -17.0990    2.7440 O   0  0  0  0  0  0
   -3.9680  -18.5990    3.3050 O   0  0  0  0  0  0
   -2.9080  -18.7200    1.0470 O   0  0  0  0  0  0
   -7.6750  -14.2600    1.7200 N   0  0  0  0  0  0
   -8.6770  -14.3070    0.6710 C   0  0  2  0  0  0
   -8.1950  -13.5070   -0.5400 C   0  0  0  0  0  0
   -7.1430  -12.8710   -0.4860 O   0  0  0  0  0  0
   -9.9220  -13.6590    1.2870 C   0  0  0  0  0  0
   -9.3290  -12.6620    2.2860 C   0  0  0  0  0  0
   -8.1440  -13.4490    2.8280 C   0  0  0  0  0  0
   -8.9660  -13.5380   -1.6300 N   0  0  0  0  0  0
   -8.6350  -12.7740   -2.8220 C   0  0  2  0  0  0
   -8.7200  -11.2760   -2.5310 C   0  0  0  0  0  0
   -9.5720  -10.8430   -1.7590 O   0  0  0  0  0  0
   -9.5740  -13.1540   -3.9660 C   0  0  0  0  0  0
   -9.4900  -14.5400   -4.2200 O   0  0  0  0  0  0
   -7.8360  -10.4880   -3.1530 N   0  0  0  0  0  0
   -7.8190   -9.0440   -2.9700 C   0  0  2  0  0  0
   -7.2820   -8.3350   -4.2070 C   0  0  0  0  0  0
   -6.3600   -8.8220   -4.8570 O   0  0  0  0  0  0
   -6.9550   -8.6830   -1.7600 C   0  0  0  0  0  0
   -6.7760   -7.1910   -1.6370 C   0  0  0  0  0  0
   -5.7230   -6.5600   -2.3190 C   0  0  0  0  0  0
   -7.6580   -6.4370   -0.8550 C   0  0  0  0  0  0
   -5.5830   -5.1710   -2.2670 C   0  0  0  0  0  0
   -7.5200   -5.0460   -0.7910 C   0  0  0  0  0  0
   -6.4980   -4.4060   -1.5200 C   0  0  0  0  0  0
   -6.3920   -3.0500   -1.5000 O   0  0  0  0  0  0
   -7.8630   -7.1760   -4.5320 N   0  0  0  0  0  0
   -7.4230   -6.3700   -5.6590 C   0  0  2  0  0  0
   -7.5400   -4.8730   -5.3530 C   0  0  0  0  0  0
   -8.2830   -4.4640   -4.4580 O   0  0  0  0  0  0
   -8.2640   -6.7020   -6.8940 C   0  0  0  0  0  0
   -9.5320   -6.0830   -6.7840 O   0  0  0  0  0  0
   -6.8030   -4.0390   -6.1010 N   0  0  0  0  0  0
   -6.8770   -2.5870   -6.0270 C   0  0  2  0  0  0
   -8.2810   -2.0350   -6.2800 C   0  0  0  0  0  0
   -8.4800   -0.8230   -6.2270 O   0  0  0  0  0  0
   -5.8980   -2.0780   -7.0870 C   0  0  0  0  0  0
   -4.9140   -3.2330   -7.2540 C   0  0  0  0  0  0
   -5.8200   -4.4470   -7.0870 C   0  0  0  0  0  0
   -9.2610   -2.9070   -6.5530 N   0  0  0  0  0  0
  -10.6290   -2.4680   -6.7810 C   0  0  2  0  0  0
  -11.2420   -1.9120   -5.5000 C   0  0  0  0  0  0
  -11.9590   -0.9120   -5.5570 O   0  0  0  0  0  0
  -11.4620   -3.6380   -7.3120 C   0  0  2  0  0  0
  -10.8110   -4.2210   -8.4210 O   0  0  0  0  0  0
  -12.8510   -3.1690   -7.7370 C   0  0  0  0  0  0
  -10.9700   -2.5440   -4.3470 N   0  0  0  0  0  0
  -11.5090   -2.0880   -3.0660 C   0  0  1  0  0  0
  -12.8720   -2.7380   -2.8080 C   0  0  0  0  0  0
  -13.7920   -2.3810   -3.8120 O   0  0  0  0  0  0
  -10.5710   -2.4460   -1.9080 C   0  0  0  0  0  0
  -10.1740   -3.6050   -1.7840 O   0  0  0  0  0  0
  -15.3070   -2.9250   -3.7800 P   0  0  0  0  0  0
  -15.8500   -2.3730   -2.5170 O   0  0  0  0  0  0
  -15.8910   -2.3490   -5.0140 O   0  0  0  0  0  0
  -15.1530   -4.3960   -3.7990 O   0  0  0  0  0  0
  -10.2020   -1.4810   -1.0520 N   0  0  0  0  0  0
   -9.3550   -1.7130    0.1080 C   0  0  2  0  0  0
  -10.0650   -2.5020    1.2110 C   0  0  0  0  0  0
   -9.4110   -2.9620    2.1460 O   0  0  0  0  0  0
   -9.0000   -0.3170    0.6210 C   0  0  0  0  0  0
  -10.2190    0.5120    0.2240 C   0  0  0  0  0  0
  -10.5690   -0.0780   -1.1400 C   0  0  0  0  0  0
  -11.3890   -2.6660    1.1200 N   0  0  0  0  0  0
  -12.1610   -3.3160    2.1660 C   0  0  2  0  0  0
  -13.0750   -4.3950    1.5860 C   0  0  0  0  0  0
  -12.6290   -5.5640    1.5810 O   0  0  0  0  0  0
  -12.9220   -2.2530    2.9600 C   0  0  0  0  0  0
  -13.7590   -1.5140    2.0950 O   0  0  0  0  0  0
  -14.2000   -4.0550    1.1570 O   0  0  0  0  0  0
   -9.6781  -22.1059   -6.3397 H   0  0  0  0  0  0
   -9.7572  -23.1762   -4.8993 H   0  0  0  0  0  0
   -8.4050  -23.3441   -6.0699 H   0  0  0  0  0  0
   -9.0247  -20.9907   -4.3191 H   0  0  0  0  0  0
   -6.8905  -21.6059   -3.1646 H   0  0  0  0  0  0
   -8.1185  -22.9125   -3.0578 H   0  0  0  0  0  0
   -4.8891  -21.8676   -4.5082 H   0  0  0  0  0  0
   -7.8011  -25.0299   -4.1554 H   0  0  0  0  0  0
   -3.2317  -23.4835   -5.4198 H   0  0  0  0  0  0
   -6.1481  -26.6612   -5.0564 H   0  0  0  0  0  0
   -2.6706  -25.7229   -6.0919 H   0  0  0  0  0  0
   -6.8445  -19.6926   -4.0953 H   0  0  0  0  0  0
   -5.5950  -19.4149   -6.8689 H   0  0  0  0  0  0
   -6.0840  -16.9667   -6.8802 H   0  0  0  0  0  0
   -7.5986  -17.9317   -6.8439 H   0  0  0  0  0  0
   -7.6764  -16.0736   -5.1285 H   0  0  0  0  0  0
   -1.9571  -18.3766   -4.6758 H   0  0  0  0  0  0
   -1.6840  -15.7358   -6.1783 H   0  0  0  0  0  0
   -0.5134  -17.0954   -6.0901 H   0  0  0  0  0  0
   -1.9646  -16.7178   -8.3494 H   0  0  0  0  0  0
   -1.6725  -18.3786   -7.7307 H   0  0  0  0  0  0
   -4.1224  -18.3304   -7.7527 H   0  0  0  0  0  0
   -4.1677  -16.5912   -7.3058 H   0  0  0  0  0  0
   -4.6680  -16.5884   -4.2193 H   0  0  0  0  0  0
   -3.2308  -15.0846   -1.9838 H   0  0  0  0  0  0
   -4.9392  -13.1804   -2.3611 H   0  0  0  0  0  0
   -6.5508  -14.4266   -3.7680 H   0  0  0  0  0  0
   -2.5223  -13.0710   -3.1678 H   0  0  0  0  0  0
   -3.6482  -12.2195   -4.2786 H   0  0  0  0  0  0
   -3.0352  -13.8544   -4.7007 H   0  0  0  0  0  0
   -4.5117  -14.5812   -0.1071 H   0  0  0  0  0  0
   -7.1059  -16.1026    0.0803 H   0  0  0  0  0  0
   -6.1324  -17.4907    2.0449 H   0  0  0  0  0  0
   -5.4191  -17.8973    0.4473 H   0  0  0  0  0  0
   -2.1853  -16.4609    3.6315 H   0  0  0  0  0  0
   -2.3424  -18.2842    0.2103 H   0  0  0  0  0  0
   -8.8433  -15.3474    0.3550 H   0  0  0  0  0  0
  -10.5091  -13.1685    0.4966 H   0  0  0  0  0  0
  -10.5353  -14.4320    1.7731 H   0  0  0  0  0  0
   -9.0368  -11.7428    1.7571 H   0  0  0  0  0  0
  -10.0798  -12.4208    3.0529 H   0  0  0  0  0  0
   -8.4439  -14.1031    3.6600 H   0  0  0  0  0  0
   -7.3365  -12.7800    3.1603 H   0  0  0  0  0  0
   -9.8716  -14.1622   -1.6106 H   0  0  0  0  0  0
   -7.6006  -13.0442   -3.0808 H   0  0  0  0  0  0
  -10.6082  -12.8986   -3.6917 H   0  0  0  0  0  0
   -9.2884  -12.6020   -4.8736 H   0  0  0  0  0  0
  -10.1010  -14.9914   -5.0156 H   0  0  0  0  0  0
   -7.1050  -10.9663   -3.8215 H   0  0  0  0  0  0
   -8.8697   -8.7601   -2.8106 H   0  0  0  0  0  0
   -7.4357   -9.0536   -0.8426 H   0  0  0  0  0  0
   -5.9628   -9.1458   -1.8667 H   0  0  0  0  0  0
   -5.0122   -7.1563   -2.8911 H   0  0  0  0  0  0
   -8.4518   -6.9327   -0.2962 H   0  0  0  0  0  0
   -4.7691   -4.6822   -2.8024 H   0  0  0  0  0  0
   -8.2026   -4.4579   -0.1776 H   0  0  0  0  0  0
   -5.5935   -2.5523   -2.0698 H   0  0  0  0  0  0
   -8.7045   -6.8380   -3.9094 H   0  0  0  0  0  0
   -6.3675   -6.6411   -5.8085 H   0  0  0  0  0  0
   -7.7534   -6.3324   -7.7955 H   0  0  0  0  0  0
   -8.3939   -7.7919   -6.9670 H   0  0  0  0  0  0
  -10.2771   -6.2097   -7.5832 H   0  0  0  0  0  0
   -6.6167   -2.2970   -4.9983 H   0  0  0  0  0  0
   -6.4448   -1.8583   -8.0158 H   0  0  0  0  0  0
   -5.4085   -1.1621   -6.7244 H   0  0  0  0  0  0
   -4.4477   -3.1765   -8.2487 H   0  0  0  0  0  0
   -4.1354   -3.1663   -6.4798 H   0  0  0  0  0  0
   -5.2670   -5.3214   -6.7134 H   0  0  0  0  0  0
   -6.3295   -4.7091   -8.0260 H   0  0  0  0  0  0
   -9.0112   -3.9771   -6.6029 H   0  0  0  0  0  0
  -10.5694   -1.6632   -7.5285 H   0  0  0  0  0  0
  -11.5336   -4.4339   -6.5561 H   0  0  0  0  0  0
   -9.7922   -4.6215   -8.3127 H   0  0  0  0  0  0
  -13.3634   -2.7136   -6.8767 H   0  0  0  0  0  0
  -13.4340   -4.0292   -8.0978 H   0  0  0  0  0  0
  -12.7565   -2.4262   -8.5428 H   0  0  0  0  0  0
  -10.3198   -3.4304   -4.3859 H   0  0  0  0  0  0
  -11.5940   -0.9959   -3.1667 H   0  0  0  0  0  0
  -12.7608   -3.8323   -2.8008 H   0  0  0  0  0  0
  -13.2600   -2.4024   -1.8349 H   0  0  0  0  0  0
  -15.9994   -1.2885   -2.4101 H   0  0  0  0  0  0
  -16.0447   -1.2628   -5.0947 H   0  0  0  0  0  0
   -8.4937   -2.3142   -0.2187 H   0  0  0  0  0  0
   -8.8492   -0.3539    1.7100 H   0  0  0  0  0  0
   -8.0760    0.0285    0.1344 H   0  0  0  0  0  0
  -11.0147    0.3750    0.9711 H   0  0  0  0  0  0
   -9.9399    1.5749    0.1763 H   0  0  0  0  0  0
   -9.9957    0.4010   -1.9474 H   0  0  0  0  0  0
  -11.6447    0.0069   -1.3538 H   0  0  0  0  0  0
  -11.8929   -2.2905    0.2172 H   0  0  0  0  0  0
  -11.4422   -3.8207    2.8283 H   0  0  0  0  0  0
  -13.2403   -6.3842    1.1764 H   0  0  0  0  0  0
  -13.5371   -2.7411    3.7303 H   0  0  0  0  0  0
  -12.2050   -1.5713    3.4409 H   0  0  0  0  0  0
  -14.3846   -0.7026    2.4954 H   0  0  0  0  0  0
  1  2  1  0  0  0
  1112  1  0  0  0
  1113  1  0  0  0
  1114  1  0  0  0
  2  3  1  0  0  0
  2  5  1  0  0  0
  2115  1  0  0  0
  3  4  2  0  0  0
  3 13  1  0  0  0
  5  6  1  0  0  0
  5116  1  0  0  0
  5117  1  0  0  0
  6  7  2  0  0  0
  6  8  1  0  0  0
  7  9  1  0  0  0
  7118  1  0  0  0
  8 10  2  0  0  0
  8119  1  0  0  0
  9 11  2  0  0  0
  9120  1  0  0  0
 10 11  1  0  0  0
 10121  1  0  0  0
 11 12  1  0  0  0
 12122  1  0  0  0
 13 14  1  0  0  0
 13123  1  0  0  0
 14 15  1  0  0  0
 14 17  1  0  0  0
 14124  1  0  0  0
 15 16  2  0  0  0
 15 19  1  0  0  0
 17 18  1  0  0  0
 17125  1  0  0  0
 17126  1  0  0  0
 18127  1  0  0  0
 19 20  1  0  0  0
 19 25  1  0  0  0
 20 21  1  0  0  0
 20 23  1  0  0  0
 20128  1  0  0  0
 21 22  2  0  0  0
 21 26  1  0  0  0
 23 24  1  0  0  0
 23129  1  0  0  0
 23130  1  0  0  0
 24 25  1  0  0  0
 24131  1  0  0  0
 24132  1  0  0  0
 25133  1  0  0  0
 25134  1  0  0  0
 26 27  1  0  0  0
 26135  1  0  0  0
 27 28  1  0  0  0
 27 30  1  0  0  0
 27136  1  0  0  0
 28 29  2  0  0  0
 28 33  1  0  0  0
 30 31  1  0  0  0
 30 32  1  0  0  0
 30137  1  0  0  0
 31138  1  0  0  0
 32139  1  0  0  0
 32140  1  0  0  0
 32141  1  0  0  0
 33 34  1  0  0  0
 33142  1  0  0  0
 34 35  1  0  0  0
 34 37  1  0  0  0
 34143  1  0  0  0
 35 36  1  0  0  0
 35144  1  0  0  0
 35145  1  0  0  0
 36 39  1  0  0  0
 37 38  2  0  0  0
 37 43  1  0  0  0
 39 40  1  0  0  0
 39 41  2  0  0  0
 39 42  1  0  0  0
 40146  1  0  0  0
 42147  1  0  0  0
 43 44  1  0  0  0
 43 49  1  0  0  0
 44 45  1  0  0  0
 44 47  1  0  0  0
 44148  1  0  0  0
 45 46  2  0  0  0
 45 50  1  0  0  0
 47 48  1  0  0  0
 47149  1  0  0  0
 47150  1  0  0  0
 48 49  1  0  0  0
 48151  1  0  0  0
 48152  1  0  0  0
 49153  1  0  0  0
 49154  1  0  0  0
 50 51  1  0  0  0
 50155  1  0  0  0
 51 52  1  0  0  0
 51 54  1  0  0  0
 51156  1  0  0  0
 52 53  2  0  0  0
 52 56  1  0  0  0
 54 55  1  0  0  0
 54157  1  0  0  0
 54158  1  0  0  0
 55159  1  0  0  0
 56 57  1  0  0  0
 56160  1  0  0  0
 57 58  1  0  0  0
 57 60  1  0  0  0
 57161  1  0  0  0
 58 59  2  0  0  0
 58 68  1  0  0  0
 60 61  1  0  0  0
 60162  1  0  0  0
 60163  1  0  0  0
 61 62  2  0  0  0
 61 63  1  0  0  0
 62 64  1  0  0  0
 62164  1  0  0  0
 63 65  2  0  0  0
 63165  1  0  0  0
 64 66  2  0  0  0
 64166  1  0  0  0
 65 66  1  0  0  0
 65167  1  0  0  0
 66 67  1  0  0  0
 67168  1  0  0  0
 68 69  1  0  0  0
 68169  1  0  0  0
 69 70  1  0  0  0
 69 72  1  0  0  0
 69170  1  0  0  0
 70 71  2  0  0  0
 70 74  1  0  0  0
 72 73  1  0  0  0
 72171  1  0  0  0
 72172  1  0  0  0
 73173  1  0  0  0
 74 75  1  0  0  0
 74 80  1  0  0  0
 75 76  1  0  0  0
 75 78  1  0  0  0
 75174  1  0  0  0
 76 77  2  0  0  0
 76 81  1  0  0  0
 78 79  1  0  0  0
 78175  1  0  0  0
 78176  1  0  0  0
 79 80  1  0  0  0
 79177  1  0  0  0
 79178  1  0  0  0
 80179  1  0  0  0
 80180  1  0  0  0
 81 82  1  0  0  0
 81181  1  0  0  0
 82 83  1  0  0  0
 82 85  1  0  0  0
 82182  1  0  0  0
 83 84  2  0  0  0
 83 88  1  0  0  0
 85 86  1  0  0  0
 85 87  1  0  0  0
 85183  1  0  0  0
 86184  1  0  0  0
 87185  1  0  0  0
 87186  1  0  0  0
 87187  1  0  0  0
 88 89  1  0  0  0
 88188  1  0  0  0
 89 90  1  0  0  0
 89 92  1  0  0  0
 89189  1  0  0  0
 90 91  1  0  0  0
 90190  1  0  0  0
 90191  1  0  0  0
 91 94  1  0  0  0
 92 93  2  0  0  0
 92 98  1  0  0  0
 94 95  1  0  0  0
 94 96  1  0  0  0
 94 97  2  0  0  0
 95192  1  0  0  0
 96193  1  0  0  0
 98 99  1  0  0  0
 98104  1  0  0  0
 99100  1  0  0  0
 99102  1  0  0  0
 99194  1  0  0  0
100101  2  0  0  0
100105  1  0  0  0
102103  1  0  0  0
102195  1  0  0  0
102196  1  0  0  0
103104  1  0  0  0
103197  1  0  0  0
103198  1  0  0  0
104199  1  0  0  0
104200  1  0  0  0
105106  1  0  0  0
105201  1  0  0  0
106107  1  0  0  0
106109  1  0  0  0
106202  1  0  0  0
107108  1  0  0  0
107111  2  0  0  0
108203  1  0  0  0
109110  1  0  0  0
109204  1  0  0  0
109205  1  0  0  0
110206  1  0  0  0
M  CHG  1   1   1
M  END
> <s_m_source_file>
../2lo6_ligand.sdf

> <i_m_source_file_index>
1

> <s_epik_input>
W2NIXTFbY0hdYyhbT0hdKVtjSF1bY0hdYzFbQ0gyXVtDQEhdKFtOSDMrXSlDKD1PKVtOSF1bQ0BASF0oW0NIMl1bT0hdKUMoPU8pTjJbQ0BASF0oW0NIMl1bQ0gyXVtDSDJdMilDKD1PKVtOSF1bQ0BASF0oW0NASF0oW09IXSlbQ0gzXSlDKD1PKVtOSF1bQ0BASF0oW0NIMl1PUCg9TykoW09IXSlbT0hdKUMoPU8pTjNbQ0BASF0oW0NIMl1bQ0gyXVtDSDJdMylDKD1PKVtOSF1bQ0BASF0oW0NIMl1bT0hdKUMoPU8pW05IXVtDQEBIXShbQ0gyXWM0W2NIXVtjSF1jKFtPSF0pW2NIXVtjSF00KUMoPU8pW05IXVtDQEBIXShbQ0gyXVtPSF0pQyg9TylONVtDQEBIXShbQ0gyXVtDSDJdW0NIMl01KUMoPU8pW05IXVtDQEBIXShbQ0BIXShbT0hdKVtDSDNdKUMoPU8pW05IXVtDQEBIXShbQ0gyXU9QKD1PKShbT0hdKVtPSF0pQyg9TylONltDQEBIXShbQ0gyXVtDSDJdW0NIMl02KUMoPU8pW05IXVtDQEhdKEMoPU8pW09IXSlbQ0gyXVtPSF0=

> <s_epik_cmdline>
J2VwaWtfYXBwJywgJy1pbWFlJywgJ2xpZ2FuZF9wcm8ubWFlJywgJy1vbWFlJywgJ2xpZ2FuZF9wcmVwLm1hZScsICctbXMnLCAnMScsICctcGgnLCAnNycsICctcGh0JywgJzAuNScsICctbnQn

> <s_epik_pKa_notes>
Molecule size exceeds maximum supported for generating protonation states

$$$$
