2loz_ligand
                    3D
 Schrodinger Suite 2020-3.
219222  0  0  1  0            999 V2000
    9.5950   -9.9120   -5.8710 N   0  3  0  0  0  0
    9.2350  -11.1290   -6.6250 C   0  0  2  0  0  0
    9.4920  -12.3800   -5.7920 C   0  0  0  0  0  0
    8.5620  -12.9610   -5.2440 O   0  0  0  0  0  0
   10.0140  -11.1850   -7.9350 C   0  0  0  0  0  0
    9.3550  -10.3940   -9.0510 C   0  0  0  0  0  0
    7.9820  -10.9330   -9.4050 C   0  0  0  0  0  0
    7.8340  -12.1710   -9.4820 O   0  0  0  0  0  0
    7.0470  -10.1270   -9.6090 O   0  0  0  0  0  0
   10.7480  -12.7910   -5.6800 N   0  0  0  0  0  0
   11.0770  -13.9810   -4.8970 C   0  0  2  0  0  0
   11.9060  -13.6180   -3.6750 C   0  0  0  0  0  0
   11.5910  -14.0190   -2.5520 O   0  0  0  0  0  0
   11.8320  -15.0050   -5.7470 C   0  0  0  0  0  0
   12.4360  -16.1120   -4.9040 C   0  0  0  0  0  0
   11.7010  -17.0490   -4.5250 O   0  0  0  0  0  0
   13.6490  -16.0480   -4.6120 O   0  0  0  0  0  0
   12.9700  -12.8680   -3.9040 N   0  0  0  0  0  0
   13.8540  -12.4440   -2.8290 C   0  0  2  0  0  0
   13.2680  -11.2500   -2.0940 C   0  0  0  0  0  0
   12.7480  -10.3240   -2.7210 O   0  0  0  0  0  0
   15.2320  -12.0790   -3.3870 C   0  0  0  0  0  0
   16.1950  -13.2270   -3.4380 C   0  0  0  0  0  0
   15.8940  -14.4750   -3.9430 N   0  0  0  0  0  0
   17.4900  -13.2920   -3.0360 C   0  0  0  0  0  0
   16.9900  -15.2370   -3.8380 C   0  0  0  0  0  0
   17.9860  -14.5680   -3.2940 N   0  0  0  0  0  0
   13.3360  -11.2760   -0.7700 N   0  0  0  0  0  0
   12.8240  -10.1750    0.0300 C   0  0  2  0  0  0
   13.9210   -9.1270    0.2070 C   0  0  0  0  0  0
   15.0170   -9.4420    0.6720 O   0  0  0  0  0  0
   12.3520  -10.6810    1.4000 C   0  0  0  0  0  0
   10.8370  -10.7880    1.5370 C   0  0  0  0  0  0
   10.4480  -11.4540    2.8530 C   0  0  0  0  0  0
    8.9700  -11.2760    3.1750 C   0  0  0  0  0  0
    8.6090  -11.8890    4.4840 N   0  3  0  0  0  0
   13.6470   -7.8710   -0.1710 N   0  0  0  0  0  0
   14.6050   -6.7690   -0.0540 C   0  0  2  0  0  0
   14.6790   -6.2030    1.3530 C   0  0  0  0  0  0
   14.0030   -6.6770    2.2700 O   0  0  0  0  0  0
   14.0590   -5.7050   -1.0270 C   0  0  0  0  0  0
   12.8510   -6.3050   -1.6730 C   0  0  0  0  0  0
   12.3970   -7.4220   -0.7810 C   0  0  0  0  0  0
   15.5120   -5.1940    1.5150 N   0  0  0  0  0  0
   15.6680   -4.5660    2.8020 C   0  0  0  0  0  0
   16.7470   -3.5140    2.7920 C   0  0  0  0  0  0
   17.7000   -3.5790    3.5680 O   0  0  0  0  0  0
   16.6020   -2.5410    1.9110 N   0  0  0  0  0  0
   17.5800   -1.4750    1.7970 C   0  0  2  0  0  0
   16.8830   -0.1330    1.5650 C   0  0  0  0  0  0
   16.4670    0.1690    0.4450 O   0  0  0  0  0  0
   18.5770   -1.7640    0.6420 C   0  0  2  0  0  0
   17.8950   -1.7590   -0.6190 O   0  0  0  0  0  0
   19.2500   -3.1200    0.8210 C   0  0  0  0  0  0
   16.7480    0.6660    2.6240 N   0  0  0  0  0  0
   16.0900    1.9730    2.5220 C   0  0  2  0  0  0
   16.0630    2.7220    3.8660 C   0  0  0  0  0  0
   16.5800    3.8360    3.9550 O   0  0  0  0  0  0
   14.6620    1.8250    1.9700 C   0  0  0  0  0  0
   13.9220    3.1250    1.8100 C   0  0  0  0  0  0
   14.5570    4.2470    1.2980 C   0  0  0  0  0  0
   12.5890    3.2220    2.1720 C   0  0  0  0  0  0
   13.8740    5.4410    1.1540 C   0  0  0  0  0  0
   11.9020    4.4110    2.0290 C   0  0  0  0  0  0
   12.5450    5.5220    1.5190 C   0  0  0  0  0  0
   15.4810    2.1380    4.9340 N   0  0  0  0  0  0
   15.3790    2.8050    6.2300 C   0  0  2  0  0  0
   16.6020    2.6090    7.1240 C   0  0  0  0  0  0
   17.7170    2.3800    6.6450 O   0  0  0  0  0  0
   14.1550    2.1360    6.8460 C   0  0  0  0  0  0
   14.1880    0.7420    6.3260 C   0  0  0  0  0  0
   14.8780    0.7930    4.9830 C   0  0  0  0  0  0
   16.3740    2.7060    8.4310 N   0  0  0  0  0  0
   17.4320    2.5620    9.4230 C   0  0  2  0  0  0
   17.0820    1.4850   10.4490 C   0  0  0  0  0  0
   17.4600    1.5950   11.6160 O   0  0  0  0  0  0
   17.6470    3.8950   10.1480 C   0  0  0  0  0  0
   17.9980    5.0510    9.2250 C   0  0  0  0  0  0
   19.3590    4.8540    8.5840 C   0  0  0  0  0  0
   19.7080    5.9930    7.6410 C   0  0  0  0  0  0
   21.0550    5.8110    7.0410 N   0  3  0  0  0  0
   16.3740    0.4430   10.0050 N   0  0  0  0  0  0
   15.9530   -0.6490   10.8880 C   0  0  2  0  0  0
   15.1230   -0.1080   12.0490 C   0  0  0  0  0  0
   15.6000   -0.0060   13.1820 O   0  0  0  0  0  0
   17.1610   -1.4300   11.4000 C   0  0  0  0  0  0
   13.8790    0.2430   11.7580 N   0  0  0  0  0  0
   12.9920    0.8040   12.7700 C   0  0  2  0  0  0
   11.9420   -0.2050   13.2000 C   0  0  0  0  0  0
   11.7510   -1.2370   12.5550 O   0  0  0  0  0  0
   12.2750    2.0610   12.2480 C   0  0  0  0  0  0
   13.1600    3.2030   11.7360 C   0  0  0  0  0  0
   14.3860    3.3870   12.6160 C   0  0  0  0  0  0
   13.5520    2.9630   10.2870 C   0  0  0  0  0  0
   11.2640    0.1180   14.2880 N   0  0  0  0  0  0
   10.2040   -0.7090   14.8290 C   0  0  2  0  0  0
    9.2960    0.1540   15.7180 C   0  0  0  0  0  0
    9.4280    0.1770   16.9450 O   0  0  0  0  0  0
   10.7610   -1.9350   15.6020 C   0  0  2  0  0  0
    9.7070   -2.6140   16.2970 O   0  0  0  0  0  0
   11.8570   -1.5360   16.5820 C   0  0  0  0  0  0
    8.4020    0.8960   15.0620 N   0  0  0  0  0  0
    7.4600    1.7970   15.7360 C   0  0  2  0  0  0
    8.2030    2.9470   16.4120 C   0  0  0  0  0  0
    8.6710    3.8550   15.6910 O   0  0  0  0  0  0
    6.5910    1.0480   16.7540 C   0  0  0  0  0  0
    5.3780    1.8560   17.1850 C   0  0  0  0  0  0
    5.1090    2.0050   18.3760 O   0  0  0  0  0  0
    4.6260    2.3600   16.2180 N   0  0  0  0  0  0
    8.3310    2.9400   17.6560 O   0  0  0  0  0  0
    9.0274   -9.8828   -4.9292 H   0  0  0  0  0  0
    9.3534   -9.0232   -6.4724 H   0  0  0  0  0  0
   10.6724   -9.9232   -5.6496 H   0  0  0  0  0  0
    8.1582  -11.0596   -6.8387 H   0  0  0  0  0  0
   11.0210  -10.7700   -7.7808 H   0  0  0  0  0  0
   10.0953  -12.2299   -8.2689 H   0  0  0  0  0  0
    9.2394   -9.3457   -8.7385 H   0  0  0  0  0  0
    9.9824  -10.4405   -9.9533 H   0  0  0  0  0  0
    6.0451  -10.5007   -9.8667 H   0  0  0  0  0  0
   11.5462  -12.2262   -6.1840 H   0  0  0  0  0  0
   10.1066  -14.3900   -4.5792 H   0  0  0  0  0  0
   11.1404  -15.4631   -6.4694 H   0  0  0  0  0  0
   12.6475  -14.5026   -6.2879 H   0  0  0  0  0  0
   12.1181  -17.8622   -3.9129 H   0  0  0  0  0  0
   13.1794  -12.5644   -4.9403 H   0  0  0  0  0  0
   13.9238  -13.3049   -2.1479 H   0  0  0  0  0  0
   15.1233  -11.7016   -4.4145 H   0  0  0  0  0  0
   15.6884  -11.3012   -2.7571 H   0  0  0  0  0  0
   18.1384  -12.5329   -2.5741 H   0  0  0  0  0  0
   17.0503  -16.2763   -4.1609 H   0  0  0  0  0  0
   13.7890  -12.1493   -0.2779 H   0  0  0  0  0  0
   11.9736   -9.7569   -0.5287 H   0  0  0  0  0  0
   12.7648  -11.6841    1.5825 H   0  0  0  0  0  0
   12.6998   -9.9931    2.1847 H   0  0  0  0  0  0
   10.3943   -9.7814    1.5088 H   0  0  0  0  0  0
   10.4353  -11.3886    0.7076 H   0  0  0  0  0  0
   10.6567  -12.5324    2.7939 H   0  0  0  0  0  0
   11.0315  -11.0121    3.6741 H   0  0  0  0  0  0
    8.7310  -10.2032    3.2194 H   0  0  0  0  0  0
    8.3638  -11.7545    2.3917 H   0  0  0  0  0  0
    7.5366  -11.7378    4.6763 H   0  0  0  0  0  0
    9.1955  -11.4152    5.2849 H   0  0  0  0  0  0
    8.8284  -12.9666    4.4572 H   0  0  0  0  0  0
   15.6153   -7.1420   -0.2780 H   0  0  0  0  0  0
   13.7957   -4.7960   -0.4662 H   0  0  0  0  0  0
   14.8278   -5.4640   -1.7759 H   0  0  0  0  0  0
   12.0682   -5.5383   -1.7701 H   0  0  0  0  0  0
   13.1187   -6.6841   -2.6703 H   0  0  0  0  0  0
   11.9414   -8.2539   -1.3382 H   0  0  0  0  0  0
   11.7055   -7.0851    0.0054 H   0  0  0  0  0  0
   16.0916   -4.8326    0.6528 H   0  0  0  0  0  0
   14.7225   -4.0844    3.0920 H   0  0  0  0  0  0
   15.9371   -5.3258    3.5505 H   0  0  0  0  0  0
   15.7184   -2.5491    1.2559 H   0  0  0  0  0  0
   18.0971   -1.4651    2.7678 H   0  0  0  0  0  0
   19.3325   -0.9664    0.5872 H   0  0  0  0  0  0
   17.3412   -0.8649   -0.9412 H   0  0  0  0  0  0
   19.7792   -3.1422    1.7851 H   0  0  0  0  0  0
   19.9686   -3.2833    0.0043 H   0  0  0  0  0  0
   18.4878   -3.9129    0.8028 H   0  0  0  0  0  0
   17.1444    0.3238    3.5913 H   0  0  0  0  0  0
   16.7206    2.5316    1.8147 H   0  0  0  0  0  0
   14.6997    1.3521    0.9775 H   0  0  0  0  0  0
   14.0682    1.1988    2.6521 H   0  0  0  0  0  0
   15.6055    4.1870    1.0060 H   0  0  0  0  0  0
   12.0757    2.3489    2.5748 H   0  0  0  0  0  0
   14.3842    6.3167    0.7529 H   0  0  0  0  0  0
   10.8529    4.4729    2.3184 H   0  0  0  0  0  0
   12.0039    6.4613    1.4049 H   0  0  0  0  0  0
   15.3073    3.8921    6.0781 H   0  0  0  0  0  0
   14.2339    2.1658    7.9428 H   0  0  0  0  0  0
   13.2469    2.6698    6.5291 H   0  0  0  0  0  0
   14.7445    0.1023    7.0268 H   0  0  0  0  0  0
   13.1599    0.3648    6.2226 H   0  0  0  0  0  0
   14.1680    0.6789    4.1506 H   0  0  0  0  0  0
   15.6688    0.0332    4.8971 H   0  0  0  0  0  0
   15.3408    2.9026    8.7534 H   0  0  0  0  0  0
   18.3250    2.2626    8.8548 H   0  0  0  0  0  0
   16.7271    4.1741   10.6826 H   0  0  0  0  0  0
   18.4724    3.7920   10.8677 H   0  0  0  0  0  0
   17.2441    5.1254    8.4275 H   0  0  0  0  0  0
   18.0159    5.9879    9.8012 H   0  0  0  0  0  0
   20.1297    4.8055    9.3674 H   0  0  0  0  0  0
   19.3612    3.9163    8.0089 H   0  0  0  0  0  0
   18.9681    6.0358    6.8281 H   0  0  0  0  0  0
   19.6995    6.9433    8.1949 H   0  0  0  0  0  0
   21.2725    6.6520    6.3662 H   0  0  0  0  0  0
   21.0791    4.8694    6.4729 H   0  0  0  0  0  0
   21.8106    5.7769    7.8397 H   0  0  0  0  0  0
   16.1075    0.4214    8.9380 H   0  0  0  0  0  0
   15.3297   -1.3136   10.2717 H   0  0  0  0  0  0
   17.7417   -1.8086   10.5459 H   0  0  0  0  0  0
   16.8175   -2.2758   12.0137 H   0  0  0  0  0  0
   17.7941   -0.7682   12.0093 H   0  0  0  0  0  0
   13.5194    0.1034   10.7278 H   0  0  0  0  0  0
   13.6614    1.0421   13.6098 H   0  0  0  0  0  0
   11.6252    1.7883   11.4034 H   0  0  0  0  0  0
   11.6657    2.4968   13.0535 H   0  0  0  0  0  0
   12.5864    4.1405   11.7806 H   0  0  0  0  0  0
   14.0690    3.5582   13.6553 H   0  0  0  0  0  0
   14.9649    4.2527   12.2619 H   0  0  0  0  0  0
   15.0111    2.4832   12.5675 H   0  0  0  0  0  0
   12.6449    2.8342    9.6783 H   0  0  0  0  0  0
   14.1705    2.0558   10.2199 H   0  0  0  0  0  0
   14.1243    3.8253    9.9143 H   0  0  0  0  0  0
   11.5350    1.0605   14.7863 H   0  0  0  0  0  0
    9.6490   -1.0722   13.9515 H   0  0  0  0  0  0
   11.1642   -2.6757   14.8958 H   0  0  0  0  0  0
    8.8277   -2.9762   15.7441 H   0  0  0  0  0  0
   12.6612   -1.0160   16.0408 H   0  0  0  0  0  0
   12.2630   -2.4372   17.0648 H   0  0  0  0  0  0
   11.4381   -0.8668   17.3480 H   0  0  0  0  0  0
    8.3916    0.8096   13.9654 H   0  0  0  0  0  0
    6.8182    2.1902   14.9338 H   0  0  0  0  0  0
    6.2326    0.1081   16.3089 H   0  0  0  0  0  0
    7.1871    0.8250   17.6512 H   0  0  0  0  0  0
    4.9046    2.2020   15.1656 H   0  0  0  0  0  0
    3.7230    2.9365   16.4673 H   0  0  0  0  0  0
    8.8635    3.7608   18.1587 H   0  0  0  0  0  0
  1  2  1  0  0  0
  1111  1  0  0  0
  1112  1  0  0  0
  1113  1  0  0  0
  2  3  1  0  0  0
  2  5  1  0  0  0
  2114  1  0  0  0
  3  4  2  0  0  0
  3 10  1  0  0  0
  5  6  1  0  0  0
  5115  1  0  0  0
  5116  1  0  0  0
  6  7  1  0  0  0
  6117  1  0  0  0
  6118  1  0  0  0
  7  8  2  0  0  0
  7  9  1  0  0  0
  9119  1  0  0  0
 10 11  1  0  0  0
 10120  1  0  0  0
 11 12  1  0  0  0
 11 14  1  0  0  0
 11121  1  0  0  0
 12 13  2  0  0  0
 12 18  1  0  0  0
 14 15  1  0  0  0
 14122  1  0  0  0
 14123  1  0  0  0
 15 16  1  0  0  0
 15 17  2  0  0  0
 16124  1  0  0  0
 18 19  1  0  0  0
 18125  1  0  0  0
 19 20  1  0  0  0
 19 22  1  0  0  0
 19126  1  0  0  0
 20 21  2  0  0  0
 20 28  1  0  0  0
 22 23  1  0  0  0
 22127  1  0  0  0
 22128  1  0  0  0
 23 24  2  0  0  0
 23 25  1  0  0  0
 24 26  1  0  0  0
 25 27  2  0  0  0
 25129  1  0  0  0
 26 27  1  0  0  0
 26130  1  0  0  0
 28 29  1  0  0  0
 28131  1  0  0  0
 29 30  1  0  0  0
 29 32  1  0  0  0
 29132  1  0  0  0
 30 31  2  0  0  0
 30 37  1  0  0  0
 32 33  1  0  0  0
 32133  1  0  0  0
 32134  1  0  0  0
 33 34  1  0  0  0
 33135  1  0  0  0
 33136  1  0  0  0
 34 35  1  0  0  0
 34137  1  0  0  0
 34138  1  0  0  0
 35 36  1  0  0  0
 35139  1  0  0  0
 35140  1  0  0  0
 36141  1  0  0  0
 36142  1  0  0  0
 36143  1  0  0  0
 37 38  1  0  0  0
 37 43  1  0  0  0
 38 39  1  0  0  0
 38 41  1  0  0  0
 38144  1  0  0  0
 39 40  2  0  0  0
 39 44  1  0  0  0
 41 42  1  0  0  0
 41145  1  0  0  0
 41146  1  0  0  0
 42 43  1  0  0  0
 42147  1  0  0  0
 42148  1  0  0  0
 43149  1  0  0  0
 43150  1  0  0  0
 44 45  1  0  0  0
 44151  1  0  0  0
 45 46  1  0  0  0
 45152  1  0  0  0
 45153  1  0  0  0
 46 47  2  0  0  0
 46 48  1  0  0  0
 48 49  1  0  0  0
 48154  1  0  0  0
 49 50  1  0  0  0
 49 52  1  0  0  0
 49155  1  0  0  0
 50 51  2  0  0  0
 50 55  1  0  0  0
 52 53  1  0  0  0
 52 54  1  0  0  0
 52156  1  0  0  0
 53157  1  0  0  0
 54158  1  0  0  0
 54159  1  0  0  0
 54160  1  0  0  0
 55 56  1  0  0  0
 55161  1  0  0  0
 56 57  1  0  0  0
 56 59  1  0  0  0
 56162  1  0  0  0
 57 58  2  0  0  0
 57 66  1  0  0  0
 59 60  1  0  0  0
 59163  1  0  0  0
 59164  1  0  0  0
 60 61  2  0  0  0
 60 62  1  0  0  0
 61 63  1  0  0  0
 61165  1  0  0  0
 62 64  2  0  0  0
 62166  1  0  0  0
 63 65  2  0  0  0
 63167  1  0  0  0
 64 65  1  0  0  0
 64168  1  0  0  0
 65169  1  0  0  0
 66 67  1  0  0  0
 66 72  1  0  0  0
 67 68  1  0  0  0
 67 70  1  0  0  0
 67170  1  0  0  0
 68 69  2  0  0  0
 68 73  1  0  0  0
 70 71  1  0  0  0
 70171  1  0  0  0
 70172  1  0  0  0
 71 72  1  0  0  0
 71173  1  0  0  0
 71174  1  0  0  0
 72175  1  0  0  0
 72176  1  0  0  0
 73 74  1  0  0  0
 73177  1  0  0  0
 74 75  1  0  0  0
 74 77  1  0  0  0
 74178  1  0  0  0
 75 76  2  0  0  0
 75 82  1  0  0  0
 77 78  1  0  0  0
 77179  1  0  0  0
 77180  1  0  0  0
 78 79  1  0  0  0
 78181  1  0  0  0
 78182  1  0  0  0
 79 80  1  0  0  0
 79183  1  0  0  0
 79184  1  0  0  0
 80 81  1  0  0  0
 80185  1  0  0  0
 80186  1  0  0  0
 81187  1  0  0  0
 81188  1  0  0  0
 81189  1  0  0  0
 82 83  1  0  0  0
 82190  1  0  0  0
 83 84  1  0  0  0
 83 86  1  0  0  0
 83191  1  0  0  0
 84 85  2  0  0  0
 84 87  1  0  0  0
 86192  1  0  0  0
 86193  1  0  0  0
 86194  1  0  0  0
 87 88  1  0  0  0
 87195  1  0  0  0
 88 89  1  0  0  0
 88 91  1  0  0  0
 88196  1  0  0  0
 89 90  2  0  0  0
 89 95  1  0  0  0
 91 92  1  0  0  0
 91197  1  0  0  0
 91198  1  0  0  0
 92 93  1  0  0  0
 92 94  1  0  0  0
 92199  1  0  0  0
 93200  1  0  0  0
 93201  1  0  0  0
 93202  1  0  0  0
 94203  1  0  0  0
 94204  1  0  0  0
 94205  1  0  0  0
 95 96  1  0  0  0
 95206  1  0  0  0
 96 97  1  0  0  0
 96 99  1  0  0  0
 96207  1  0  0  0
 97 98  2  0  0  0
 97102  1  0  0  0
 99100  1  0  0  0
 99101  1  0  0  0
 99208  1  0  0  0
100209  1  0  0  0
101210  1  0  0  0
101211  1  0  0  0
101212  1  0  0  0
102103  1  0  0  0
102213  1  0  0  0
103104  1  0  0  0
103106  1  0  0  0
103214  1  0  0  0
104105  2  0  0  0
104110  1  0  0  0
106107  1  0  0  0
106215  1  0  0  0
106216  1  0  0  0
107108  2  0  0  0
107109  1  0  0  0
109217  1  0  0  0
109218  1  0  0  0
110219  1  0  0  0
M  CHG  3   1   1  36   1  81   1
M  END
> <s_m_source_file>
../2loz_ligand.sdf

> <i_m_source_file_index>
1

> <s_epik_input>
Tz1DKFtPSF0pW0NIMl1bQ0gyXVtDQEhdKFtOSDMrXSlDKD1PKVtOSF1bQ0BASF0oW0NIMl1DKD1PKVtPSF0pQyg9TylbTkhdW0NAQEhdKFtDSDJdQzE9TltDSDJdTj1bQ0hdMSlDKD1PKVtOSF1bQ0BASF0oW0NIMl1bQ0gyXVtDSDJdW0NIMl1bTkgzK10pQyg9TylOMltDQEBIXShbQ0gyXVtDSDJdW0NIMl0yKUMoPU8pW05IXVtDSDJdQyg9TylbTkhdW0NAQEhdKFtDQEhdKFtPSF0pW0NIM10pQyg9TylbTkhdW0NAQEhdKFtDSDJdYzNbY0hdW2NIXVtjSF1bY0hdW2NIXTMpQyg9TylONFtDQEBIXShbQ0gyXVtDSDJdW0NIMl00KUMoPU8pW05IXVtDQEBIXShbQ0gyXVtDSDJdW0NIMl1bQ0gyXVtOSDMrXSlDKD1PKVtOSF1bQ0BASF0oW0NIM10pQyg9TylbTkhdW0NAQEhdKFtDSDJdW0NIXShbQ0gzXSlbQ0gzXSlDKD1PKVtOSF1bQ0BASF0oW0NASF0oW09IXSlbQ0gzXSlDKD1PKVtOSF1bQ0BIXShDKD1PKVtPSF0pW0NIMl1DKD1PKVtOSDJd

> <s_epik_cmdline>
J2VwaWtfYXBwJywgJy1pbWFlJywgJ2xpZ2FuZF9wcm8ubWFlJywgJy1vbWFlJywgJ2xpZ2FuZF9wcmVwLm1hZScsICctbXMnLCAnMScsICctcGgnLCAnNycsICctcGh0JywgJzAuNScsICctbnQn

> <s_epik_pKa_notes>
Molecule size exceeds maximum supported for generating protonation states

> <s_epik_Chemistry_Notes>
This compound has an imine and may undergo hydrolysis.

$$$$
