2lp8_ligand
                    3D
 Schrodinger Suite 2020-3.
271274  0  0  1  0            999 V2000
  -19.3230  -15.3190   -1.1520 C   0  0  0  0  0  0
  -19.5220  -16.1640   -2.0290 O   0  0  0  0  0  0
  -20.3840  -14.2720   -0.8720 C   0  0  0  0  0  0
  -18.2020  -15.2940   -0.4460 N   0  0  0  0  0  0
  -17.1640  -16.2780   -0.6610 C   0  0  0  0  0  0
  -15.8810  -15.6490   -1.1620 C   0  0  0  0  0  0
  -15.8900  -14.5040   -1.6160 O   0  0  0  0  0  0
  -14.7810  -16.3950   -1.0700 N   0  0  0  0  0  0
  -13.4770  -15.9300   -1.5440 C   0  0  2  0  0  0
  -13.0000  -14.7430   -0.7320 C   0  0  0  0  0  0
  -13.1650  -14.7250    0.4840 O   0  0  0  0  0  0
  -13.5460  -15.5300   -3.0110 C   0  0  0  0  0  0
  -14.3890  -16.7340   -4.0760 S   0  0  0  0  0  0
  -12.3920  -13.7750   -1.4400 N   0  0  0  0  0  0
  -11.9350  -12.4930   -0.9040 C   0  0  2  0  0  0
  -11.2810  -12.5810    0.4660 C   0  0  0  0  0  0
  -10.0600  -12.5270    0.5290 O   0  0  0  0  0  0
  -13.0130  -11.4160   -0.9730 C   0  0  0  0  0  0
  -13.0950  -10.8770   -2.3830 C   0  0  0  0  0  0
  -14.3290  -11.9820   -0.5870 C   0  0  0  0  0  0
  -12.0450  -12.6770    1.5540 N   0  0  0  0  0  0
  -11.4340  -13.0020    2.8110 C   0  0  0  0  0  0
  -10.4210  -14.1230    2.6310 C   0  0  0  0  0  0
   -9.2260  -13.9110    2.7950 O   0  0  0  0  0  0
  -10.8970  -15.2870    2.2010 N   0  0  0  0  0  0
  -10.0300  -16.4370    1.9360 C   0  0  2  0  0  0
   -9.0050  -16.1390    0.8430 C   0  0  0  0  0  0
   -7.8380  -16.5040    0.9600 O   0  0  0  0  0  0
  -10.8690  -17.6410    1.5060 C   0  0  0  0  0  0
  -11.0030  -18.7180    2.5650 C   0  0  0  0  0  0
  -11.5260  -18.1590    3.8730 C   0  0  0  0  0  0
  -11.9690  -19.2200    4.7770 N   0  0  0  0  0  0
  -12.0720  -19.0990    6.1030 C   0  0  0  0  0  0
  -11.6650  -17.9990    6.7230 N   0  0  0  0  0  0
  -12.5580  -20.1040    6.8180 N   0  0  0  0  0  0
   -9.4470  -15.4690   -0.2130 N   0  0  0  0  0  0
   -8.6190  -15.2800   -1.3980 C   0  0  2  0  0  0
   -7.4670  -14.3100   -1.1520 C   0  0  0  0  0  0
   -6.3240  -14.6210   -1.4670 O   0  0  0  0  0  0
   -9.4670  -14.8180   -2.5690 C   0  0  0  0  0  0
   -7.7600  -13.1480   -0.5860 N   0  0  0  0  0  0
   -6.7270  -12.1460   -0.3460 C   0  0  2  0  0  0
   -5.8390  -12.5660    0.8200 C   0  0  0  0  0  0
   -4.6420  -12.2880    0.8250 O   0  0  0  0  0  0
   -7.3310  -10.7590   -0.0870 C   0  0  0  0  0  0
   -7.9750  -10.0640   -1.3000 C   0  0  0  0  0  0
   -7.1510  -10.3130   -2.5430 C   0  0  0  0  0  0
   -9.4120  -10.5160   -1.5210 C   0  0  0  0  0  0
   -6.4410  -13.2210    1.8110 N   0  0  0  0  0  0
   -5.6890  -13.8930    2.8680 C   0  0  2  0  0  0
   -4.5650  -14.7350    2.2680 C   0  0  0  0  0  0
   -3.4150  -14.7020    2.7130 O   0  0  0  0  0  0
   -6.5870  -14.8240    3.6450 C   0  0  0  0  0  0
   -4.9470  -15.5020    1.2490 N   0  0  0  0  0  0
   -4.0750  -16.4710    0.6040 C   0  0  2  0  0  0
   -3.1250  -15.8090   -0.3870 C   0  0  0  0  0  0
   -1.9050  -15.9190   -0.2600 O   0  0  0  0  0  0
   -4.9280  -17.5030   -0.1100 C   0  0  0  0  0  0
   -3.6930  -15.1210   -1.3730 N   0  0  0  0  0  0
   -2.9070  -14.4600   -2.4120 C   0  0  2  0  0  0
   -1.9950  -13.3940   -1.8170 C   0  0  0  0  0  0
   -1.0140  -12.9810   -2.4390 O   0  0  0  0  0  0
   -3.8250  -13.8240   -3.4620 C   0  0  0  0  0  0
   -4.3530  -14.7860   -4.4910 C   0  0  0  0  0  0
   -3.5590  -15.1650   -5.5600 C   0  0  0  0  0  0
   -5.6420  -15.2960   -4.4090 C   0  0  0  0  0  0
   -4.0340  -16.0350   -6.5200 C   0  0  0  0  0  0
   -6.1220  -16.1600   -5.3660 C   0  0  0  0  0  0
   -5.3180  -16.5330   -6.4240 C   0  0  0  0  0  0
   -2.3200  -12.9630   -0.6080 N   0  0  0  0  0  0
   -1.5490  -11.9370    0.0470 C   0  0  0  0  0  0
   -0.2160  -12.4310    0.5550 C   0  0  0  0  0  0
    0.7280  -11.6530    0.6870 O   0  0  0  0  0  0
   -0.1210  -13.7250    0.8180 N   0  0  0  0  0  0
    1.1260  -14.3080    1.2990 C   0  0  2  0  0  0
    2.1220  -14.4720    0.1460 C   0  0  0  0  0  0
    3.2120  -15.0240    0.3120 O   0  0  0  0  0  0
    0.8580  -15.6560    1.9800 C   0  0  0  0  0  0
    2.0560  -16.1610    2.7620 C   0  0  0  0  0  0
    2.4950  -15.4690    3.7060 O   0  0  0  0  0  0
    2.5630  -17.2590    2.4420 O   0  0  0  0  0  0
    1.7490  -13.9640   -1.0230 N   0  0  0  0  0  0
    2.5880  -14.0750   -2.2080 C   0  0  2  0  0  0
    3.3310  -12.7680   -2.4800 C   0  0  0  0  0  0
    4.0270  -12.6430   -3.4880 O   0  0  0  0  0  0
    1.7420  -14.4480   -3.4230 C   0  0  0  0  0  0
    0.6710  -15.8990   -3.1680 S   0  0  0  0  0  0
    3.1880  -11.7950   -1.5820 N   0  0  0  0  0  0
    3.8750  -10.5170   -1.7350 C   0  0  2  0  0  0
    5.3270  -10.6460   -1.2820 C   0  0  0  0  0  0
    5.7400  -10.1030   -0.2540 O   0  0  0  0  0  0
    3.1670   -9.3850   -0.9590 C   0  0  2  0  0  0
    1.6910   -9.3360   -1.3640 C   0  0  0  0  0  0
    3.8390   -8.0400   -1.2380 C   0  0  0  0  0  0
    0.8760   -8.3280   -0.5890 C   0  0  0  0  0  0
    6.0740  -11.4220   -2.0520 N   0  0  0  0  0  0
    7.4870  -11.6690   -1.8110 C   0  0  2  0  0  0
    7.9950  -12.5670   -2.9270 C   0  0  0  0  0  0
    8.9800  -12.2590   -3.6010 O   0  0  0  0  0  0
    7.7060  -12.3450   -0.4480 C   0  0  0  0  0  0
    9.1440  -12.2490    0.0370 C   0  0  0  0  0  0
   10.0810  -12.1460   -0.7550 O   0  0  0  0  0  0
    9.3250  -12.2930    1.3480 N   0  0  0  0  0  0
    7.2800  -13.6660   -3.1310 N   0  0  0  0  0  0
    7.5610  -14.5880   -4.2170 C   0  0  2  0  0  0
    6.2640  -14.9830   -4.9170 C   0  0  0  0  0  0
    5.5210  -15.8390   -4.4370 O   0  0  0  0  0  0
    8.2710  -15.8340   -3.6920 C   0  0  0  0  0  0
    8.6740  -16.8100   -4.7850 C   0  0  0  0  0  0
    9.4080  -18.0100   -4.2170 C   0  0  0  0  0  0
   10.6110  -17.6190   -3.4860 N   0  0  0  0  0  0
   11.6290  -18.4370   -3.2360 C   0  0  0  0  0  0
   11.6040  -19.6920   -3.6710 N   0  0  0  0  0  0
   12.6750  -17.9950   -2.5530 N   0  0  0  0  0  0
    5.9780  -14.3370   -6.0330 N   0  0  0  0  0  0
  -13.3700  -18.1920   -3.7540 C   0  0  0  0  0  0
  -11.8840  -17.8300   -3.6370 C   0  0  0  0  0  0
  -11.4330  -16.8040   -4.1440 O   0  0  0  0  0  0
  -11.1550  -18.6890   -2.9390 N   0  0  0  0  0  0
   -9.8230  -18.6550   -3.0300 C   0  0  0  0  0  0
   -9.0590  -18.8590   -1.8740 C   0  0  0  0  0  0
   -9.1740  -18.4320   -4.2600 C   0  0  0  0  0  0
  -10.0470  -18.2400   -5.7770 S   0  0  0  0  0  0
   -7.6650  -18.8590   -1.9480 C   0  0  0  0  0  0
   -7.7910  -18.4230   -4.3080 C   0  0  0  0  0  0
   -7.0390  -18.6460   -3.1710 C   0  0  0  0  0  0
   -5.7150  -18.6920   -3.2930 N   0  0  0  0  0  0
   -4.9630  -18.9110   -2.3480 N   0  0  0  0  0  0
   -3.6580  -18.9190   -2.5960 C   0  0  0  0  0  0
   -2.7240  -19.1620   -1.5910 C   0  0  0  0  0  0
   -3.2380  -18.6750   -3.8830 C   0  0  0  0  0  0
   -1.3640  -19.1500   -1.8950 C   0  0  0  0  0  0
   -1.8900  -18.6650   -4.1940 C   0  0  0  0  0  0
   -0.9500  -18.8990   -3.2040 C   0  0  0  0  0  0
   -1.3700  -18.3460   -5.8310 S   0  0  0  0  0  0
    0.3410  -18.8340   -3.5100 N   0  0  0  0  0  0
    1.2000  -18.5160   -2.5480 C   0  0  0  0  0  0
    1.4450  -19.2280   -1.5750 O   0  0  0  0  0  0
    1.8870  -17.1650   -2.7350 C   0  0  0  0  0  0
   -9.3150  -18.9860   -6.8600 O   0  0  0  0  0  0
  -11.4340  -18.8060   -5.6860 O   0  0  0  0  0  0
  -10.1200  -16.7880   -6.1460 O   0  0  0  0  0  0
   -0.3650  -19.3780   -6.2560 O   0  0  0  0  0  0
   -0.7530  -16.9770   -5.9090 O   0  0  0  0  0  0
   -2.5480  -18.4100   -6.7550 O   0  0  0  0  0  0
  -21.2435  -14.4334   -1.5393 H   0  0  0  0  0  0
  -19.9659  -13.2700   -1.0484 H   0  0  0  0  0  0
  -20.7121  -14.3533    0.1748 H   0  0  0  0  0  0
  -18.0673  -14.5093    0.3131 H   0  0  0  0  0  0
  -16.9465  -16.7943    0.2856 H   0  0  0  0  0  0
  -17.5022  -17.0104   -1.4088 H   0  0  0  0  0  0
  -14.8780  -17.3933   -0.6183 H   0  0  0  0  0  0
  -12.7960  -16.7828   -1.4064 H   0  0  0  0  0  0
  -14.0912  -14.5794   -3.1066 H   0  0  0  0  0  0
  -12.5267  -15.4095   -3.4065 H   0  0  0  0  0  0
  -12.2469  -14.0090   -2.5050 H   0  0  0  0  0  0
  -11.1294  -12.2251   -1.6035 H   0  0  0  0  0  0
  -12.7775  -10.6034   -0.2700 H   0  0  0  0  0  0
  -12.1205  -10.4566   -2.6721 H   0  0  0  0  0  0
  -13.8624  -10.0904   -2.4308 H   0  0  0  0  0  0
  -13.3618  -11.6919   -3.0721 H   0  0  0  0  0  0
  -14.2724  -12.3751    0.4388 H   0  0  0  0  0  0
  -14.5948  -12.7960   -1.2775 H   0  0  0  0  0  0
  -15.0955  -11.1945   -0.6362 H   0  0  0  0  0  0
  -13.1308  -12.5106    1.4970 H   0  0  0  0  0  0
  -10.9207  -12.1145    3.2095 H   0  0  0  0  0  0
  -12.2079  -13.3278    3.5215 H   0  0  0  0  0  0
  -11.9828  -15.3692    2.0449 H   0  0  0  0  0  0
   -9.5138  -16.6220    2.8896 H   0  0  0  0  0  0
  -11.8869  -17.3078    1.2552 H   0  0  0  0  0  0
  -10.4097  -18.1119    0.6244 H   0  0  0  0  0  0
  -11.7031  -19.4910    2.2153 H   0  0  0  0  0  0
  -10.0189  -19.1724    2.7525 H   0  0  0  0  0  0
  -10.7290  -17.5891    4.3729 H   0  0  0  0  0  0
  -12.3806  -17.4960    3.6728 H   0  0  0  0  0  0
  -12.2469  -20.2052    4.3743 H   0  0  0  0  0  0
  -11.2597  -17.1578    6.1415 H   0  0  0  0  0  0
  -11.7328  -17.9281    7.8186 H   0  0  0  0  0  0
  -12.8989  -21.0216    6.3162 H   0  0  0  0  0  0
  -10.4642  -15.0515   -0.1805 H   0  0  0  0  0  0
   -8.1994  -16.2753   -1.6062 H   0  0  0  0  0  0
  -10.2902  -15.5299   -2.7290 H   0  0  0  0  0  0
   -8.8449  -14.7672   -3.4747 H   0  0  0  0  0  0
   -9.8805  -13.8221   -2.3519 H   0  0  0  0  0  0
   -8.8014  -12.9447   -0.2959 H   0  0  0  0  0  0
   -6.1395  -12.1185   -1.2755 H   0  0  0  0  0  0
   -8.1220  -10.8397    0.6731 H   0  0  0  0  0  0
   -6.5453  -10.0782    0.2723 H   0  0  0  0  0  0
   -7.9990   -8.9816   -1.1054 H   0  0  0  0  0  0
   -6.1164   -9.9822   -2.3694 H   0  0  0  0  0  0
   -7.5793   -9.7504   -3.3856 H   0  0  0  0  0  0
   -7.1578  -11.3875   -2.7782 H   0  0  0  0  0  0
   -9.9993  -10.3292   -0.6099 H   0  0  0  0  0  0
   -9.4266  -11.5912   -1.7527 H   0  0  0  0  0  0
   -9.8482   -9.9541   -2.3601 H   0  0  0  0  0  0
   -7.5407  -13.2461    1.8173 H   0  0  0  0  0  0
   -5.3044  -13.0880    3.5114 H   0  0  0  0  0  0
   -7.4112  -14.2495    4.0929 H   0  0  0  0  0  0
   -6.0067  -15.3139    4.4407 H   0  0  0  0  0  0
   -6.9977  -15.5873    2.9677 H   0  0  0  0  0  0
   -5.9817  -15.3740    0.8982 H   0  0  0  0  0  0
   -3.4843  -16.9275    1.4119 H   0  0  0  0  0  0
   -5.6108  -17.9765    0.6109 H   0  0  0  0  0  0
   -4.2782  -18.2695   -0.5575 H   0  0  0  0  0  0
   -5.5133  -17.0111   -0.9009 H   0  0  0  0  0  0
   -4.7911  -15.0585   -1.3906 H   0  0  0  0  0  0
   -2.2988  -15.2594   -2.8605 H   0  0  0  0  0  0
   -4.6977  -13.3769   -2.9635 H   0  0  0  0  0  0
   -3.2737  -13.0431   -4.0063 H   0  0  0  0  0  0
   -2.5461  -14.7713   -5.6443 H   0  0  0  0  0  0
   -6.2821  -15.0079   -3.5751 H   0  0  0  0  0  0
   -3.3959  -16.3288   -7.3535 H   0  0  0  0  0  0
   -7.1370  -16.5498   -5.2887 H   0  0  0  0  0  0
   -5.6959  -17.2191   -7.1820 H   0  0  0  0  0  0
   -3.1939  -13.4009   -0.1034 H   0  0  0  0  0  0
   -1.3530  -11.1178   -0.6604 H   0  0  0  0  0  0
   -2.1115  -11.5500    0.9095 H   0  0  0  0  0  0
   -1.0044  -14.3630    0.6676 H   0  0  0  0  0  0
    1.5256  -13.5926    2.0328 H   0  0  0  0  0  0
    0.0162  -15.5520    2.6804 H   0  0  0  0  0  0
    0.6097  -16.4091    1.2176 H   0  0  0  0  0  0
    3.4321  -17.6454    2.9946 H   0  0  0  0  0  0
    0.7788  -13.4490   -1.0823 H   0  0  0  0  0  0
    3.3081  -14.8738   -1.9771 H   0  0  0  0  0  0
    1.0865  -13.6047   -3.6862 H   0  0  0  0  0  0
    2.4018  -14.6786   -4.2724 H   0  0  0  0  0  0
    2.5372  -11.9690   -0.7124 H   0  0  0  0  0  0
    3.8305  -10.3025   -2.8130 H   0  0  0  0  0  0
    3.2380   -9.5789    0.1214 H   0  0  0  0  0  0
    1.6115   -9.0693   -2.4282 H   0  0  0  0  0  0
    1.2322  -10.3219   -1.1978 H   0  0  0  0  0  0
    4.8973   -8.0906   -0.9424 H   0  0  0  0  0  0
    3.3343   -7.2513   -0.6608 H   0  0  0  0  0  0
    3.7687   -7.8107   -2.3115 H   0  0  0  0  0  0
   -0.1671   -8.3543   -0.9372 H   0  0  0  0  0  0
    1.2904   -7.3215   -0.7479 H   0  0  0  0  0  0
    0.9112   -8.5741    0.4825 H   0  0  0  0  0  0
    5.5724  -11.8909   -2.9114 H   0  0  0  0  0  0
    7.9921  -10.6919   -1.8154 H   0  0  0  0  0  0
    7.0656  -11.8648    0.3065 H   0  0  0  0  0  0
    7.4484  -13.4118   -0.5222 H   0  0  0  0  0  0
    8.4590  -12.3856    2.0200 H   0  0  0  0  0  0
   10.3413  -12.2370    1.7651 H   0  0  0  0  0  0
    6.4480  -13.8671   -2.4401 H   0  0  0  0  0  0
    8.2198  -14.0423   -4.9085 H   0  0  0  0  0  0
    9.1880  -15.5374   -3.1618 H   0  0  0  0  0  0
    7.6053  -16.3715   -3.0006 H   0  0  0  0  0  0
    7.7743  -17.1678   -5.3071 H   0  0  0  0  0  0
    9.3372  -16.3041   -5.5021 H   0  0  0  0  0  0
    8.7458  -18.5510   -3.5250 H   0  0  0  0  0  0
    9.7065  -18.6793   -5.0373 H   0  0  0  0  0  0
   10.7137  -16.5922   -3.1049 H   0  0  0  0  0  0
   10.7364  -20.0604   -4.2381 H   0  0  0  0  0  0
   12.4509  -20.3628   -3.4641 H   0  0  0  0  0  0
   12.6972  -16.9561   -2.1922 H   0  0  0  0  0  0
    6.6735  -13.5796   -6.4238 H   0  0  0  0  0  0
    5.0443  -14.5564   -6.5716 H   0  0  0  0  0  0
  -13.6878  -18.6604   -2.8108 H   0  0  0  0  0  0
  -13.4876  -18.9109   -4.5782 H   0  0  0  0  0  0
  -11.6473  -19.4263   -2.2878 H   0  0  0  0  0  0
   -9.5534  -19.0179   -0.9156 H   0  0  0  0  0  0
   -7.0695  -19.0254   -1.0503 H   0  0  0  0  0  0
   -7.2878  -18.2372   -5.2569 H   0  0  0  0  0  0
   -3.0555  -19.3606   -0.5718 H   0  0  0  0  0  0
   -3.9740  -18.4878   -4.6649 H   0  0  0  0  0  0
   -0.6268  -19.3358   -1.1139 H   0  0  0  0  0  0
    0.6737  -19.0409   -4.5379 H   0  0  0  0  0  0
    2.6317  -17.2487   -3.5402 H   0  0  0  0  0  0
    2.3902  -16.8848   -1.7979 H   0  0  0  0  0  0
   -9.1585  -20.0712   -6.7711 H   0  0  0  0  0  0
    0.1294  -16.7358   -5.2982 H   0  0  0  0  0  0
  1  2  2  0  0  0
  1  3  1  0  0  0
  1  4  1  0  0  0
  3146  1  0  0  0
  3147  1  0  0  0
  3148  1  0  0  0
  4  5  1  0  0  0
  4149  1  0  0  0
  5  6  1  0  0  0
  5150  1  0  0  0
  5151  1  0  0  0
  6  7  2  0  0  0
  6  8  1  0  0  0
  8  9  1  0  0  0
  8152  1  0  0  0
  9 10  1  0  0  0
  9 12  1  0  0  0
  9153  1  0  0  0
 10 11  2  0  0  0
 10 14  1  0  0  0
 12 13  1  0  0  0
 12154  1  0  0  0
 12155  1  0  0  0
 13116  1  0  0  0
 14 15  1  0  0  0
 14156  1  0  0  0
 15 16  1  0  0  0
 15 18  1  0  0  0
 15157  1  0  0  0
 16 17  2  0  0  0
 16 21  1  0  0  0
 18 19  1  0  0  0
 18 20  1  0  0  0
 18158  1  0  0  0
 19159  1  0  0  0
 19160  1  0  0  0
 19161  1  0  0  0
 20162  1  0  0  0
 20163  1  0  0  0
 20164  1  0  0  0
 21 22  1  0  0  0
 21165  1  0  0  0
 22 23  1  0  0  0
 22166  1  0  0  0
 22167  1  0  0  0
 23 24  2  0  0  0
 23 25  1  0  0  0
 25 26  1  0  0  0
 25168  1  0  0  0
 26 27  1  0  0  0
 26 29  1  0  0  0
 26169  1  0  0  0
 27 28  2  0  0  0
 27 36  1  0  0  0
 29 30  1  0  0  0
 29170  1  0  0  0
 29171  1  0  0  0
 30 31  1  0  0  0
 30172  1  0  0  0
 30173  1  0  0  0
 31 32  1  0  0  0
 31174  1  0  0  0
 31175  1  0  0  0
 32 33  1  0  0  0
 32176  1  0  0  0
 33 34  1  0  0  0
 33 35  2  0  0  0
 34177  1  0  0  0
 34178  1  0  0  0
 35179  1  0  0  0
 36 37  1  0  0  0
 36180  1  0  0  0
 37 38  1  0  0  0
 37 40  1  0  0  0
 37181  1  0  0  0
 38 39  2  0  0  0
 38 41  1  0  0  0
 40182  1  0  0  0
 40183  1  0  0  0
 40184  1  0  0  0
 41 42  1  0  0  0
 41185  1  0  0  0
 42 43  1  0  0  0
 42 45  1  0  0  0
 42186  1  0  0  0
 43 44  2  0  0  0
 43 49  1  0  0  0
 45 46  1  0  0  0
 45187  1  0  0  0
 45188  1  0  0  0
 46 47  1  0  0  0
 46 48  1  0  0  0
 46189  1  0  0  0
 47190  1  0  0  0
 47191  1  0  0  0
 47192  1  0  0  0
 48193  1  0  0  0
 48194  1  0  0  0
 48195  1  0  0  0
 49 50  1  0  0  0
 49196  1  0  0  0
 50 51  1  0  0  0
 50 53  1  0  0  0
 50197  1  0  0  0
 51 52  2  0  0  0
 51 54  1  0  0  0
 53198  1  0  0  0
 53199  1  0  0  0
 53200  1  0  0  0
 54 55  1  0  0  0
 54201  1  0  0  0
 55 56  1  0  0  0
 55 58  1  0  0  0
 55202  1  0  0  0
 56 57  2  0  0  0
 56 59  1  0  0  0
 58203  1  0  0  0
 58204  1  0  0  0
 58205  1  0  0  0
 59 60  1  0  0  0
 59206  1  0  0  0
 60 61  1  0  0  0
 60 63  1  0  0  0
 60207  1  0  0  0
 61 62  2  0  0  0
 61 70  1  0  0  0
 63 64  1  0  0  0
 63208  1  0  0  0
 63209  1  0  0  0
 64 65  2  0  0  0
 64 66  1  0  0  0
 65 67  1  0  0  0
 65210  1  0  0  0
 66 68  2  0  0  0
 66211  1  0  0  0
 67 69  2  0  0  0
 67212  1  0  0  0
 68 69  1  0  0  0
 68213  1  0  0  0
 69214  1  0  0  0
 70 71  1  0  0  0
 70215  1  0  0  0
 71 72  1  0  0  0
 71216  1  0  0  0
 71217  1  0  0  0
 72 73  2  0  0  0
 72 74  1  0  0  0
 74 75  1  0  0  0
 74218  1  0  0  0
 75 76  1  0  0  0
 75 78  1  0  0  0
 75219  1  0  0  0
 76 77  2  0  0  0
 76 82  1  0  0  0
 78 79  1  0  0  0
 78220  1  0  0  0
 78221  1  0  0  0
 79 80  2  0  0  0
 79 81  1  0  0  0
 81222  1  0  0  0
 82 83  1  0  0  0
 82223  1  0  0  0
 83 84  1  0  0  0
 83 86  1  0  0  0
 83224  1  0  0  0
 84 85  2  0  0  0
 84 88  1  0  0  0
 86 87  1  0  0  0
 86225  1  0  0  0
 86226  1  0  0  0
 87139  1  0  0  0
 88 89  1  0  0  0
 88227  1  0  0  0
 89 90  1  0  0  0
 89 92  1  0  0  0
 89228  1  0  0  0
 90 91  2  0  0  0
 90 96  1  0  0  0
 92 93  1  0  0  0
 92 94  1  0  0  0
 92229  1  0  0  0
 93 95  1  0  0  0
 93230  1  0  0  0
 93231  1  0  0  0
 94232  1  0  0  0
 94233  1  0  0  0
 94234  1  0  0  0
 95235  1  0  0  0
 95236  1  0  0  0
 95237  1  0  0  0
 96 97  1  0  0  0
 96238  1  0  0  0
 97 98  1  0  0  0
 97100  1  0  0  0
 97239  1  0  0  0
 98 99  2  0  0  0
 98104  1  0  0  0
100101  1  0  0  0
100240  1  0  0  0
100241  1  0  0  0
101102  2  0  0  0
101103  1  0  0  0
103242  1  0  0  0
103243  1  0  0  0
104105  1  0  0  0
104244  1  0  0  0
105106  1  0  0  0
105108  1  0  0  0
105245  1  0  0  0
106107  2  0  0  0
106115  1  0  0  0
108109  1  0  0  0
108246  1  0  0  0
108247  1  0  0  0
109110  1  0  0  0
109248  1  0  0  0
109249  1  0  0  0
110111  1  0  0  0
110250  1  0  0  0
110251  1  0  0  0
111112  1  0  0  0
111252  1  0  0  0
112113  1  0  0  0
112114  2  0  0  0
113253  1  0  0  0
113254  1  0  0  0
114255  1  0  0  0
115256  1  0  0  0
115257  1  0  0  0
116117  1  0  0  0
116258  1  0  0  0
116259  1  0  0  0
117118  2  0  0  0
117119  1  0  0  0
119120  1  0  0  0
119260  1  0  0  0
120121  2  0  0  0
120122  1  0  0  0
121124  1  0  0  0
121261  1  0  0  0
122123  1  0  0  0
122125  2  0  0  0
123140  1  0  0  0
123141  2  0  0  0
123142  2  0  0  0
124126  2  0  0  0
124262  1  0  0  0
125126  1  0  0  0
125263  1  0  0  0
126127  1  0  0  0
127128  2  0  0  0
128129  1  0  0  0
129130  2  0  0  0
129131  1  0  0  0
130132  1  0  0  0
130264  1  0  0  0
131133  2  0  0  0
131265  1  0  0  0
132134  2  0  0  0
132266  1  0  0  0
133134  1  0  0  0
133135  1  0  0  0
134136  1  0  0  0
135143  2  0  0  0
135144  1  0  0  0
135145  2  0  0  0
136137  1  0  0  0
136267  1  0  0  0
137138  2  0  0  0
137139  1  0  0  0
139268  1  0  0  0
139269  1  0  0  0
140270  1  0  0  0
144271  1  0  0  0
M  END
> <s_m_source_file>
../2lp8_ligand.sdf

> <i_m_source_file_index>
1

> <s_epik_input>
Tz1DKFtDSDNdKVtOSF1bQ0gyXUMoPU8pW05IXVtDQEBIXShbQ0gyXVNbQ0gyXUMoPU8pW05IXTEpQyg9TylbTkhdW0NAQEhdKFtDSF0oW0NIM10pW0NIM10pQyg9TylbTkhdW0NIMl1DKD1PKVtOSF1bQ0BASF0oW0NIMl1bQ0gyXVtDSDJdW05IXS9DKFtOSDJdKT1OXFtIXSlDKD1PKVtOSF1bQ0BASF0oW0NIM10pQyg9TylbTkhdW0NAQEhdKFtDSDJdW0NIXShbQ0gzXSlbQ0gzXSlDKD1PKVtOSF1bQ0BASF0oW0NIM10pQyg9TylbTkhdW0NAQEhdKFtDSDNdKUMoPU8pW05IXVtDQEBIXShbQ0gyXWMyW2NIXVtjSF1bY0hdW2NIXVtjSF0yKUMoPU8pW05IXVtDSDJdQyg9TylbTkhdW0NAQEhdKFtDSDJdQyg9TylbT0hdKUMoPU8pW05IXVtDQEhdKEMoPU8pW05IXVtDQEBIXShbQ0BASF0oW0NIM10pW0NIMl1bQ0gzXSlDKD1PKVtOSF1bQ0BASF0oW0NIMl1DKD1PKVtOSDJdKUMoPU8pW05IXVtDQEhdKEMoPU8pW05IMl0pW0NIMl1bQ0gyXVtDSDJdW05IXS9DKFtOSDJdKT1OXFtIXSlbQ0gyXVNbQ0gyXUMoPU8pW05IXWMoYyhbY0hdMylTKD1PKSg9TylbT0hdKVtjSF1bY0hdYzNcTj1OXGMoW2NIXVtjSF1jMTQpW2NIXWM0Uyg9TykoPU8pW09IXQ==

> <s_epik_cmdline>
J2VwaWtfYXBwJywgJy1pbWFlJywgJ2xpZ2FuZF9wcm8ubWFlJywgJy1vbWFlJywgJ2xpZ2FuZF9wcmVwLm1hZScsICctbXMnLCAnMScsICctcGgnLCAnNycsICctcGh0JywgJzAuNScsICctbnQn

> <s_epik_pKa_notes>
Molecule size exceeds maximum supported for generating protonation states

> <s_epik_Chemistry_Notes>
This compound has an imine and may undergo hydrolysis.

$$$$
