2lpr_ligand
                    3D
 Schrodinger Suite 2020-3.
 55 55  0  0  1  0            999 V2000
   13.8500   42.1190   18.2540 N   0  3  0  0  0  0
   14.3830   40.7440   18.0810 C   0  0  2  0  0  0
   13.5040   39.5640   18.4510 C   0  0  0  0  0  0
   12.7700   39.5060   19.4720 O   0  0  0  0  0  0
   15.6840   40.6310   18.8650 C   0  0  0  0  0  0
   13.5890   38.5620   17.5900 N   0  0  0  0  0  0
   12.8050   37.3080   17.7720 C   0  0  2  0  0  0
   13.7030   36.1490   17.3620 C   0  0  0  0  0  0
   14.5170   36.3700   16.4740 O   0  0  0  0  0  0
   11.5940   37.3810   16.8660 C   0  0  0  0  0  0
   13.4980   35.0050   17.9720 N   0  0  0  0  0  0
   14.2260   33.7990   17.6290 C   0  0  2  0  0  0
   13.8980   33.3970   16.1940 C   0  0  0  0  0  0
   12.7440   33.5680   15.7620 O   0  0  0  0  0  0
   13.5810   32.6990   18.4880 C   0  0  0  0  0  0
   12.7760   33.3970   19.5080 C   0  0  0  0  0  0
   12.4820   34.7900   19.0110 C   0  0  0  0  0  0
   14.8430   32.8070   15.4680 N   0  0  0  0  0  0
   14.6410   32.3200   14.0880 C   0  0  1  0  0  0
   15.4800   33.1350   13.0840 C   0  0  0  0  0  0
   14.9250   34.5250   12.9390 C   0  0  0  0  0  0
   16.9790   33.2090   13.3780 C   0  0  0  0  0  0
   14.9130   30.7900   14.0650 B   0  0  0  0  0  0
   14.8860   30.1920   12.7180 O   0  0  0  0  0  0
   14.0130   30.0760   15.0060 O   0  0  0  0  0  0
   12.9086   42.2205   17.6941 H   0  0  0  0  0  0
   14.5826   42.8466   17.8746 H   0  0  0  0  0  0
   13.6640   42.3085   19.3215 H   0  0  0  0  0  0
   14.4745   40.6764   16.9869 H   0  0  0  0  0  0
   16.3390   41.4779   18.6125 H   0  0  0  0  0  0
   16.1875   39.6880   18.6058 H   0  0  0  0  0  0
   15.4650   40.6455   19.9429 H   0  0  0  0  0  0
   14.2584   38.6714   16.7240 H   0  0  0  0  0  0
   12.4769   37.1910   18.8154 H   0  0  0  0  0  0
   10.9556   38.2221   17.1743 H   0  0  0  0  0  0
   11.0246   36.4426   16.9387 H   0  0  0  0  0  0
   11.9220   37.5313   15.8269 H   0  0  0  0  0  0
   15.3000   33.9859   17.7761 H   0  0  0  0  0  0
   12.9495   32.0606   17.8526 H   0  0  0  0  0  0
   14.3685   32.0883   18.9536 H   0  0  0  0  0  0
   11.8360   32.8494   19.6711 H   0  0  0  0  0  0
   13.3406   33.4452   20.4508 H   0  0  0  0  0  0
   12.5973   35.5487   19.7991 H   0  0  0  0  0  0
   11.4794   34.8728   18.5662 H   0  0  0  0  0  0
   15.8226   32.6903   15.9546 H   0  0  0  0  0  0
   13.5933   32.5019   13.8063 H   0  0  0  0  0  0
   15.3930   32.5971   12.1284 H   0  0  0  0  0  0
   13.8469   34.4691   12.7276 H   0  0  0  0  0  0
   15.4349   35.0388   12.1108 H   0  0  0  0  0  0
   15.0872   35.0838   13.8725 H   0  0  0  0  0  0
   17.3826   32.1912   13.4836 H   0  0  0  0  0  0
   17.1424   33.7670   14.3118 H   0  0  0  0  0  0
   17.4901   33.7221   12.5500 H   0  0  0  0  0  0
   15.5052   30.6178   11.9147 H   0  0  0  0  0  0
   13.9305   30.4121   16.0501 H   0  0  0  0  0  0
  1  2  1  0  0  0
  1 26  1  0  0  0
  1 27  1  0  0  0
  1 28  1  0  0  0
  2  3  1  0  0  0
  2  5  1  0  0  0
  2 29  1  0  0  0
  3  4  2  0  0  0
  3  6  1  0  0  0
  5 30  1  0  0  0
  5 31  1  0  0  0
  5 32  1  0  0  0
  6  7  1  0  0  0
  6 33  1  0  0  0
  7  8  1  0  0  0
  7 10  1  0  0  0
  7 34  1  0  0  0
  8  9  2  0  0  0
  8 11  1  0  0  0
 10 35  1  0  0  0
 10 36  1  0  0  0
 10 37  1  0  0  0
 11 12  1  0  0  0
 11 17  1  0  0  0
 12 13  1  0  0  0
 12 15  1  0  0  0
 12 38  1  0  0  0
 13 14  2  0  0  0
 13 18  1  0  0  0
 15 16  1  0  0  0
 15 39  1  0  0  0
 15 40  1  0  0  0
 16 17  1  0  0  0
 16 41  1  0  0  0
 16 42  1  0  0  0
 17 43  1  0  0  0
 17 44  1  0  0  0
 18 19  1  0  0  0
 18 45  1  0  0  0
 19 20  1  0  0  0
 19 23  1  0  0  0
 19 46  1  0  0  0
 20 21  1  0  0  0
 20 22  1  0  0  0
 20 47  1  0  0  0
 21 48  1  0  0  0
 21 49  1  0  0  0
 21 50  1  0  0  0
 22 51  1  0  0  0
 22 52  1  0  0  0
 22 53  1  0  0  0
 23 24  1  0  0  0
 23 25  1  0  0  0
 24 54  1  0  0  0
 25 55  1  0  0  0
M  CHG  1   1   1
M  END
> <s_m_source_file>
../2lpr_ligand.sdf

> <i_m_source_file_index>
1

> <s_epik_input>
W05IMytdW0NAQEhdKFtDSDNdKUMoPU8pW05IXVtDQEBIXShbQ0gzXSlDKD1PKU4xW0NAQEhdKFtDSDJdW0NIMl1bQ0gyXTEpQyg9TylbTkhdW0NAQEhdKFtDSF0oW0NIM10pW0NIM10pQihbT0hdKVtPSF0=

> <s_epik_cmdline>
J2VwaWtfYXBwJywgJy1pbWFlJywgJ2xpZ2FuZF9wcm8ubWFlJywgJy1vbWFlJywgJ2xpZ2FuZF9wcmVwLm1hZScsICctbXMnLCAnMScsICctcGgnLCAnNycsICctcGh0JywgJzAuNScsICctbnQn

> <r_epik_Ionization_Penalty>
  0.1233

> <r_epik_Ionization_Penalty_Charging>
  0.1233

> <r_epik_Ionization_Penalty_Neutral>
  0.0000

> <r_epik_State_Penalty>
  0.1128

> <r_epik_Charging_Adjusted_Penalty>
0.236084207461101

> <i_epik_Tot_Q>
1

> <i_epik_Tot_abs_Q>
1

> <s_epik_Chemistry_Notes>
This compound contains a Lewis acid (boronic acid) which adds nucleophiles to form tetrahedral complexes, lowering the experimental pKa

$$$$
