2lsk_ligand
                    3D
 Schrodinger Suite 2020-3.
266268  0  0  1  0            999 V2000
   13.9420    8.6170   19.5850 N   0  3  0  0  0  0
   14.7020    7.4050   19.1870 C   0  0  2  0  0  0
   15.4760    7.6650   17.8830 C   0  0  0  0  0  0
   16.6970    7.4600   17.8400 O   0  0  0  0  0  0
   13.7500    6.1850   19.0430 C   0  0  0  0  0  0
   13.0050    5.8090   20.3410 C   0  0  0  0  0  0
   12.0050    4.6600   20.1880 C   0  0  0  0  0  0
   11.4340    4.4460   19.1150 O   0  0  0  0  0  0
   11.7690    3.9250   21.2670 N   0  0  0  0  0  0
   14.7450    8.1110   16.8340 N   0  0  0  0  0  0
   15.3090    8.5090   15.5290 C   0  0  2  0  0  0
   16.0290    7.3290   14.8430 C   0  0  0  0  0  0
   17.2370    7.1170   15.0290 O   0  0  0  0  0  0
   16.2370    9.7490   15.6680 C   0  0  0  0  0  0
   16.7140   10.2000   14.4100 O   0  0  0  0  0  0
   15.2600    6.5430   14.0690 N   0  0  0  0  0  0
   15.7900    5.4200   13.2690 C   0  0  2  0  0  0
   16.2510    5.8990   11.8680 C   0  0  0  0  0  0
   16.6090    5.0810   11.0100 O   0  0  0  0  0  0
   14.7110    4.2820   13.1400 C   0  0  2  0  0  0
   13.4890    4.8110   12.5910 O   0  0  0  0  0  0
   14.4150    3.6210   14.5050 C   0  0  0  0  0  0
   16.2600    7.2350   11.6580 N   0  0  0  0  0  0
   16.6310    7.8400   10.3730 C   0  0  0  0  0  0
   15.4490    7.8790    9.4250 C   0  0  0  0  0  0
   14.8870    8.9400    9.1480 O   0  0  0  0  0  0
   15.0700    6.7010    8.9340 N   0  0  0  0  0  0
   13.8230    6.4800    8.2160 C   0  0  2  0  0  0
   13.0100    5.4820    9.0250 C   0  0  0  0  0  0
   13.5370    4.4480    9.4630 O   0  0  0  0  0  0
   14.0630    5.9480    6.7670 C   0  0  2  0  0  0
   15.0090    4.8760    6.7920 O   0  0  0  0  0  0
   14.5710    7.0490    5.8280 C   0  0  0  0  0  0
   11.7430    5.8150    9.2630 N   0  0  0  0  0  0
   10.8100    4.9750   10.0280 C   0  0  2  0  0  0
    9.6200    4.5300    9.1400 C   0  0  0  0  0  0
    8.5900    5.2060    9.0990 O   0  0  0  0  0  0
   10.3370    5.7310   11.3140 C   0  0  0  0  0  0
    9.8210    7.1680   11.0800 C   0  0  0  0  0  0
    9.2650    7.8220   12.3510 C   0  0  0  0  0  0
   10.0660    8.3350   13.1610 O   0  0  0  0  0  0
    8.0300    7.8250   12.5500 O   0  0  0  0  0  0
    9.7600    3.4060    8.3650 N   0  0  0  0  0  0
    8.6280    2.8020    7.6310 C   0  0  2  0  0  0
    7.7990    1.8570    8.5300 C   0  0  0  0  0  0
    8.2060    1.5380    9.6570 O   0  0  0  0  0  0
    9.3360    2.0620    6.4740 C   0  0  0  0  0  0
   10.6690    1.6480    7.0330 C   0  0  0  0  0  0
   11.0240    2.6560    8.1200 C   0  0  0  0  0  0
    6.6150    1.4440    8.0480 N   0  0  0  0  0  0
    5.8040    0.3930    8.6920 C   0  0  2  0  0  0
    5.6470   -0.7690    7.7120 C   0  0  0  0  0  0
    6.0890   -1.8810    7.9920 O   0  0  0  0  0  0
    4.4150    0.9120    9.1480 C   0  0  0  0  0  0
    3.5730   -0.1650    9.8450 C   0  0  0  0  0  0
    3.9000   -0.5960   11.1260 C   0  0  0  0  0  0
    2.4790   -0.7680    9.2110 C   0  0  0  0  0  0
    3.1600   -1.5790   11.7570 C   0  0  0  0  0  0
    1.7410   -1.7550    9.8430 C   0  0  0  0  0  0
    2.0830   -2.1610   11.1150 C   0  0  0  0  0  0
    5.0300   -0.4760    6.5550 N   0  0  0  0  0  0
    4.8040   -1.4580    5.4750 C   0  0  2  0  0  0
    6.1480   -2.0580    5.0420 C   0  0  0  0  0  0
    6.3640   -3.2660    5.1420 O   0  0  0  0  0  0
    4.1450   -0.7460    4.2730 C   0  0  0  0  0  0
    3.5370   -1.6400    3.1890 C   0  0  0  0  0  0
    4.2860   -2.5700    2.4710 C   0  0  0  0  0  0
    2.2050   -1.5250    2.8850 C   0  0  0  0  0  0
    3.6930   -3.3480    1.4970 C   0  0  0  0  0  0
    1.6170   -2.2910    1.9210 C   0  0  0  0  0  0
    2.3580   -3.1960    1.2260 C   0  0  0  0  0  0
    7.0370   -1.1590    4.5830 N   0  0  0  0  0  0
    8.3740   -1.4960    4.0700 C   0  0  2  0  0  0
    9.2260   -2.1720    5.1600 C   0  0  0  0  0  0
    9.9670   -3.1310    4.8770 O   0  0  0  0  0  0
    9.0570   -0.2010    3.5560 C   0  0  0  0  0  0
   10.5110   -0.3660    3.0590 C   0  0  0  0  0  0
   11.1810    0.9870    2.7250 C   0  0  0  0  0  0
   12.6580    0.8330    2.3280 C   0  0  0  0  0  0
   12.8370    0.0490    1.0740 N   0  3  0  0  0  0
    9.0800   -1.6730    6.4070 N   0  0  0  0  0  0
    9.7810   -2.2060    7.5850 C   0  0  2  0  0  0
    9.4720   -3.7000    7.7350 C   0  0  0  0  0  0
   10.3820   -4.5170    7.7290 O   0  0  0  0  0  0
    9.3650   -1.4100    8.8580 C   0  0  0  0  0  0
   10.3430   -1.4790   10.0580 C   0  0  0  0  0  0
   10.3240   -2.7950   10.8540 C   0  0  0  0  0  0
    9.2940   -3.4600   10.9590 O   0  0  0  0  0  0
   11.4600   -3.1670   11.4280 N   0  0  0  0  0  0
    8.1710   -4.0360    7.7840 N   0  0  0  0  0  0
    7.7180   -5.4330    7.9600 C   0  0  2  0  0  0
    8.0750   -6.2660    6.7130 C   0  0  0  0  0  0
    8.4760   -7.4310    6.8210 O   0  0  0  0  0  0
    6.1920   -5.5010    8.2170 C   0  0  0  0  0  0
    5.6650   -4.6390    9.3830 C   0  0  0  0  0  0
    6.3510   -4.9390   10.7310 C   0  0  0  0  0  0
    5.9000   -3.9820   11.8450 C   0  0  0  0  0  0
    6.6350   -4.2260   13.1010 N   0  3  0  0  0  0
    7.9790   -5.6090    5.5370 N   0  0  0  0  0  0
    8.2330   -6.2210    4.2190 C   0  0  2  0  0  0
    9.7400   -6.5240    4.0270 C   0  0  0  0  0  0
   10.1210   -7.1920    3.0570 O   0  0  0  0  0  0
    7.7170   -5.2850    3.0920 C   0  0  0  0  0  0
    7.6750   -5.9300    1.8260 O   0  0  0  0  0  0
   10.5940   -5.9940    4.9270 N   0  0  0  0  0  0
   12.0300   -6.3300    4.9770 C   0  0  2  0  0  0
   12.3860   -7.1320    6.2660 C   0  0  0  0  0  0
   13.3930   -7.8480    6.2930 O   0  0  0  0  0  0
   12.8600   -5.0160    4.8840 C   0  0  0  0  0  0
   14.4000   -5.1800    4.6600 C   0  0  0  0  0  0
   14.7070   -5.9050    3.3300 C   0  0  0  0  0  0
   15.1270   -3.8180    4.7320 C   0  0  0  0  0  0
   11.5450   -7.0270    7.3200 N   0  0  0  0  0  0
   11.8350   -7.5990    8.6600 C   0  0  2  0  0  0
   11.4860   -9.0960    8.7360 C   0  0  0  0  0  0
   12.1600   -9.8510    9.4510 O   0  0  0  0  0  0
   11.0810   -6.7670    9.7640 C   0  0  0  0  0  0
   11.4770   -6.9750   11.2760 C   0  0  0  0  0  0
   10.8260   -8.2260   11.9140 C   0  0  0  0  0  0
   13.0110   -6.9930   11.4380 C   0  0  0  0  0  0
   10.4330   -9.5000    7.9970 N   0  0  0  0  0  0
    9.8540  -10.8740    8.0570 C   0  0  2  0  0  0
   10.9310  -12.0010    7.8940 C   0  0  0  0  0  0
   11.8420  -11.8700    7.0380 O   0  0  0  0  0  0
    8.7130  -11.0700    7.0110 C   0  0  0  0  0  0
    9.1290  -11.2240    5.5070 C   0  0  0  0  0  0
    7.9460  -11.6730    4.6440 C   0  0  0  0  0  0
    9.7580   -9.9370    4.9450 C   0  0  0  0  0  0
   10.8500  -13.0200    8.6140 O   0  0  0  0  0  0
   14.6327    9.4677   19.6814 H   0  0  0  0  0  0
   13.4445    8.4375   20.5495 H   0  0  0  0  0  0
   13.1858    8.8436   18.8189 H   0  0  0  0  0  0
   15.4234    7.2112   19.9945 H   0  0  0  0  0  0
   12.9852    6.4043   18.2834 H   0  0  0  0  0  0
   14.3295    5.3020   18.7356 H   0  0  0  0  0  0
   13.7332    5.5000   21.1053 H   0  0  0  0  0  0
   12.4392    6.6795   20.7044 H   0  0  0  0  0  0
   12.2960    4.1437   22.2075 H   0  0  0  0  0  0
   11.0464    3.0969   21.2211 H   0  0  0  0  0  0
   13.6597    8.1668   17.0042 H   0  0  0  0  0  0
   14.4356    8.7813   14.9183 H   0  0  0  0  0  0
   15.6805   10.5724   16.1394 H   0  0  0  0  0  0
   17.1053    9.4892   16.2913 H   0  0  0  0  0  0
   17.3826   11.0718   14.3557 H   0  0  0  0  0  0
   14.1843    6.7720   14.0504 H   0  0  0  0  0  0
   16.6685    5.0649   13.8277 H   0  0  0  0  0  0
   15.0444    3.5180   12.4223 H   0  0  0  0  0  0
   13.4996    5.3220   11.6170 H   0  0  0  0  0  0
   15.3471    3.2162   14.9262 H   0  0  0  0  0  0
   13.6900    2.8052   14.3678 H   0  0  0  0  0  0
   13.9972    4.3711   15.1927 H   0  0  0  0  0  0
   15.9722    7.8755   12.5047 H   0  0  0  0  0  0
   16.9815    8.8692   10.5399 H   0  0  0  0  0  0
   17.4346    7.2499    9.9083 H   0  0  0  0  0  0
   15.7654    5.8648    9.0988 H   0  0  0  0  0  0
   13.3201    7.4566    8.1578 H   0  0  0  0  0  0
   13.1359    5.5196    6.3584 H   0  0  0  0  0  0
   14.8185    3.9887    7.4136 H   0  0  0  0  0  0
   13.8457    7.8757    5.8061 H   0  0  0  0  0  0
   14.6911    6.6396    4.8141 H   0  0  0  0  0  0
   15.5406    7.4213    6.1903 H   0  0  0  0  0  0
   11.4055    6.7777    8.8515 H   0  0  0  0  0  0
   11.3789    4.0780   10.3140 H   0  0  0  0  0  0
    9.5123    5.1749   11.7838 H   0  0  0  0  0  0
   11.1754    5.8108   12.0217 H   0  0  0  0  0  0
   10.6448    7.7983   10.7140 H   0  0  0  0  0  0
    9.0132    7.1505   10.3336 H   0  0  0  0  0  0
    7.6204    8.2912   13.4582 H   0  0  0  0  0  0
    7.9127    3.5668    7.2942 H   0  0  0  0  0  0
    8.7345    1.1916    6.1730 H   0  0  0  0  0  0
    9.4492    2.7433    5.6178 H   0  0  0  0  0  0
   10.5920    0.6337    7.4516 H   0  0  0  0  0  0
   11.4219    1.6575    6.2311 H   0  0  0  0  0  0
   11.8069    3.3548    7.7901 H   0  0  0  0  0  0
   11.3424    2.1607    9.0491 H   0  0  0  0  0  0
    6.2565    1.9291    7.1282 H   0  0  0  0  0  0
    6.3658    0.0811    9.5848 H   0  0  0  0  0  0
    4.5485    1.7427    9.8565 H   0  0  0  0  0  0
    3.8496    1.2641    8.2726 H   0  0  0  0  0  0
    4.7524   -0.1523   11.6404 H   0  0  0  0  0  0
    2.2040   -0.4553    8.2037 H   0  0  0  0  0  0
    3.4271   -1.8963   12.7650 H   0  0  0  0  0  0
    0.8907   -2.2102    9.3351 H   0  0  0  0  0  0
    1.5054   -2.9394   11.6136 H   0  0  0  0  0  0
    4.6855    0.5618    6.4357 H   0  0  0  0  0  0
    4.1482   -2.2456    5.8745 H   0  0  0  0  0  0
    3.3217   -0.1098    4.6300 H   0  0  0  0  0  0
    4.8932   -0.1238    3.7601 H   0  0  0  0  0  0
    5.3496   -2.6842    2.6803 H   0  0  0  0  0  0
    1.5984   -0.8009    3.4290 H   0  0  0  0  0  0
    4.2837   -4.0798    0.9460 H   0  0  0  0  0  0
    0.5541   -2.1779    1.7078 H   0  0  0  0  0  0
    1.8885   -3.8021    0.4512 H   0  0  0  0  0  0
    6.7060   -0.1103    4.6087 H   0  0  0  0  0  0
    8.2251   -2.2150    3.2510 H   0  0  0  0  0  0
    8.4843    0.2040    2.7087 H   0  0  0  0  0  0
    9.0892    0.5428    4.3658 H   0  0  0  0  0  0
   11.1115   -0.8574    3.8387 H   0  0  0  0  0  0
   10.5193   -0.9816    2.1474 H   0  0  0  0  0  0
   10.6528    1.4600    1.8840 H   0  0  0  0  0  0
   11.1346    1.6461    3.6044 H   0  0  0  0  0  0
   13.1008    1.8275    2.1699 H   0  0  0  0  0  0
   13.2012    0.3132    3.1309 H   0  0  0  0  0  0
   13.9090   -0.0285    0.8399 H   0  0  0  0  0  0
   12.3169    0.5554    0.2476 H   0  0  0  0  0  0
   12.4173   -0.9588    1.2086 H   0  0  0  0  0  0
    8.3921   -0.8214    6.5149 H   0  0  0  0  0  0
   10.8581   -2.0814    7.3999 H   0  0  0  0  0  0
    9.2667   -0.3434    8.6076 H   0  0  0  0  0  0
    8.4017   -1.7897    9.2294 H   0  0  0  0  0  0
   11.3744   -1.3493    9.6983 H   0  0  0  0  0  0
   10.1013   -0.6800   10.7744 H   0  0  0  0  0  0
   12.3624   -2.5484   11.3136 H   0  0  0  0  0  0
   11.5000   -4.0942   12.0186 H   0  0  0  0  0  0
    7.4326   -3.2264    7.6876 H   0  0  0  0  0  0
    8.2592   -5.8079    8.8413 H   0  0  0  0  0  0
    5.6536   -5.1633    7.3192 H   0  0  0  0  0  0
    5.9050   -6.5373    8.4486 H   0  0  0  0  0  0
    5.8335   -3.5755    9.1581 H   0  0  0  0  0  0
    4.5880   -4.8197    9.5150 H   0  0  0  0  0  0
    6.1079   -5.9645   11.0459 H   0  0  0  0  0  0
    7.4406   -4.8387   10.6183 H   0  0  0  0  0  0
    6.0823   -2.9433   11.5321 H   0  0  0  0  0  0
    4.8263   -4.1238   12.0378 H   0  0  0  0  0  0
    6.2858   -3.5240   13.8725 H   0  0  0  0  0  0
    7.7115   -4.0777   12.9306 H   0  0  0  0  0  0
    6.4556   -5.2582   13.4362 H   0  0  0  0  0  0
    7.6903   -4.5498    5.6051 H   0  0  0  0  0  0
    7.6727   -7.1676    4.2198 H   0  0  0  0  0  0
    6.6986   -4.9468    3.3339 H   0  0  0  0  0  0
    8.3822   -4.4131    3.0062 H   0  0  0  0  0  0
    7.3279   -5.3792    0.9394 H   0  0  0  0  0  0
   10.1712   -5.2784    5.6475 H   0  0  0  0  0  0
   12.2200   -6.9745    4.1060 H   0  0  0  0  0  0
   12.4955   -4.4110    4.0407 H   0  0  0  0  0  0
   12.7504   -4.4461    5.8185 H   0  0  0  0  0  0
   14.7969   -5.8083    5.4710 H   0  0  0  0  0  0
   14.1774   -6.8689    3.3071 H   0  0  0  0  0  0
   15.7900   -6.0796    3.2491 H   0  0  0  0  0  0
   14.3720   -5.2825    2.4873 H   0  0  0  0  0  0
   14.8904   -3.3261    5.6870 H   0  0  0  0  0  0
   14.7950   -3.1807    3.8992 H   0  0  0  0  0  0
   16.2130   -3.9779    4.6610 H   0  0  0  0  0  0
   10.6044   -6.4839    7.1456 H   0  0  0  0  0  0
   12.9254   -7.5262    8.7852 H   0  0  0  0  0  0
   11.2344   -5.6930    9.5823 H   0  0  0  0  0  0
   10.0057   -6.9956    9.7249 H   0  0  0  0  0  0
   11.0852   -6.1215   11.8488 H   0  0  0  0  0  0
    9.7351   -8.1802   11.7803 H   0  0  0  0  0  0
   11.0629   -8.2553   12.9878 H   0  0  0  0  0  0
   11.2174   -9.1315   11.4273 H   0  0  0  0  0  0
   13.4392   -6.0920   10.9745 H   0  0  0  0  0  0
   13.4210   -7.8880   10.9473 H   0  0  0  0  0  0
   13.2665   -7.0118   12.5077 H   0  0  0  0  0  0
    9.9986   -8.7491    7.3206 H   0  0  0  0  0  0
    9.4406  -10.9149    9.0756 H   0  0  0  0  0  0
   12.6013  -12.6569    6.9180 H   0  0  0  0  0  0
    8.1480  -11.9826    7.2515 H   0  0  0  0  0  0
    8.0373  -10.2025    7.0386 H   0  0  0  0  0  0
    9.8968  -12.0092    5.4445 H   0  0  0  0  0  0
    7.5136  -12.5929    5.0646 H   0  0  0  0  0  0
    8.2930  -11.8666    3.6183 H   0  0  0  0  0  0
    7.1818  -10.8820    4.6294 H   0  0  0  0  0  0
   10.6037   -9.6346    5.5801 H   0  0  0  0  0  0
    9.0043   -9.1359    4.9321 H   0  0  0  0  0  0
   10.1156  -10.1205    3.9211 H   0  0  0  0  0  0
  1  2  1  0  0  0
  1130  1  0  0  0
  1131  1  0  0  0
  1132  1  0  0  0
  2  3  1  0  0  0
  2  5  1  0  0  0
  2133  1  0  0  0
  3  4  2  0  0  0
  3 10  1  0  0  0
  5  6  1  0  0  0
  5134  1  0  0  0
  5135  1  0  0  0
  6  7  1  0  0  0
  6136  1  0  0  0
  6137  1  0  0  0
  7  8  2  0  0  0
  7  9  1  0  0  0
  9138  1  0  0  0
  9139  1  0  0  0
 10 11  1  0  0  0
 10140  1  0  0  0
 11 12  1  0  0  0
 11 14  1  0  0  0
 11141  1  0  0  0
 12 13  2  0  0  0
 12 16  1  0  0  0
 14 15  1  0  0  0
 14142  1  0  0  0
 14143  1  0  0  0
 15144  1  0  0  0
 16 17  1  0  0  0
 16145  1  0  0  0
 17 18  1  0  0  0
 17 20  1  0  0  0
 17146  1  0  0  0
 18 19  2  0  0  0
 18 23  1  0  0  0
 20 21  1  0  0  0
 20 22  1  0  0  0
 20147  1  0  0  0
 21148  1  0  0  0
 22149  1  0  0  0
 22150  1  0  0  0
 22151  1  0  0  0
 23 24  1  0  0  0
 23152  1  0  0  0
 24 25  1  0  0  0
 24153  1  0  0  0
 24154  1  0  0  0
 25 26  2  0  0  0
 25 27  1  0  0  0
 27 28  1  0  0  0
 27155  1  0  0  0
 28 29  1  0  0  0
 28 31  1  0  0  0
 28156  1  0  0  0
 29 30  2  0  0  0
 29 34  1  0  0  0
 31 32  1  0  0  0
 31 33  1  0  0  0
 31157  1  0  0  0
 32158  1  0  0  0
 33159  1  0  0  0
 33160  1  0  0  0
 33161  1  0  0  0
 34 35  1  0  0  0
 34162  1  0  0  0
 35 36  1  0  0  0
 35 38  1  0  0  0
 35163  1  0  0  0
 36 37  2  0  0  0
 36 43  1  0  0  0
 38 39  1  0  0  0
 38164  1  0  0  0
 38165  1  0  0  0
 39 40  1  0  0  0
 39166  1  0  0  0
 39167  1  0  0  0
 40 41  2  0  0  0
 40 42  1  0  0  0
 42168  1  0  0  0
 43 44  1  0  0  0
 43 49  1  0  0  0
 44 45  1  0  0  0
 44 47  1  0  0  0
 44169  1  0  0  0
 45 46  2  0  0  0
 45 50  1  0  0  0
 47 48  1  0  0  0
 47170  1  0  0  0
 47171  1  0  0  0
 48 49  1  0  0  0
 48172  1  0  0  0
 48173  1  0  0  0
 49174  1  0  0  0
 49175  1  0  0  0
 50 51  1  0  0  0
 50176  1  0  0  0
 51 52  1  0  0  0
 51 54  1  0  0  0
 51177  1  0  0  0
 52 53  2  0  0  0
 52 61  1  0  0  0
 54 55  1  0  0  0
 54178  1  0  0  0
 54179  1  0  0  0
 55 56  2  0  0  0
 55 57  1  0  0  0
 56 58  1  0  0  0
 56180  1  0  0  0
 57 59  2  0  0  0
 57181  1  0  0  0
 58 60  2  0  0  0
 58182  1  0  0  0
 59 60  1  0  0  0
 59183  1  0  0  0
 60184  1  0  0  0
 61 62  1  0  0  0
 61185  1  0  0  0
 62 63  1  0  0  0
 62 65  1  0  0  0
 62186  1  0  0  0
 63 64  2  0  0  0
 63 72  1  0  0  0
 65 66  1  0  0  0
 65187  1  0  0  0
 65188  1  0  0  0
 66 67  2  0  0  0
 66 68  1  0  0  0
 67 69  1  0  0  0
 67189  1  0  0  0
 68 70  2  0  0  0
 68190  1  0  0  0
 69 71  2  0  0  0
 69191  1  0  0  0
 70 71  1  0  0  0
 70192  1  0  0  0
 71193  1  0  0  0
 72 73  1  0  0  0
 72194  1  0  0  0
 73 74  1  0  0  0
 73 76  1  0  0  0
 73195  1  0  0  0
 74 75  2  0  0  0
 74 81  1  0  0  0
 76 77  1  0  0  0
 76196  1  0  0  0
 76197  1  0  0  0
 77 78  1  0  0  0
 77198  1  0  0  0
 77199  1  0  0  0
 78 79  1  0  0  0
 78200  1  0  0  0
 78201  1  0  0  0
 79 80  1  0  0  0
 79202  1  0  0  0
 79203  1  0  0  0
 80204  1  0  0  0
 80205  1  0  0  0
 80206  1  0  0  0
 81 82  1  0  0  0
 81207  1  0  0  0
 82 83  1  0  0  0
 82 85  1  0  0  0
 82208  1  0  0  0
 83 84  2  0  0  0
 83 90  1  0  0  0
 85 86  1  0  0  0
 85209  1  0  0  0
 85210  1  0  0  0
 86 87  1  0  0  0
 86211  1  0  0  0
 86212  1  0  0  0
 87 88  2  0  0  0
 87 89  1  0  0  0
 89213  1  0  0  0
 89214  1  0  0  0
 90 91  1  0  0  0
 90215  1  0  0  0
 91 92  1  0  0  0
 91 94  1  0  0  0
 91216  1  0  0  0
 92 93  2  0  0  0
 92 99  1  0  0  0
 94 95  1  0  0  0
 94217  1  0  0  0
 94218  1  0  0  0
 95 96  1  0  0  0
 95219  1  0  0  0
 95220  1  0  0  0
 96 97  1  0  0  0
 96221  1  0  0  0
 96222  1  0  0  0
 97 98  1  0  0  0
 97223  1  0  0  0
 97224  1  0  0  0
 98225  1  0  0  0
 98226  1  0  0  0
 98227  1  0  0  0
 99100  1  0  0  0
 99228  1  0  0  0
100101  1  0  0  0
100103  1  0  0  0
100229  1  0  0  0
101102  2  0  0  0
101105  1  0  0  0
103104  1  0  0  0
103230  1  0  0  0
103231  1  0  0  0
104232  1  0  0  0
105106  1  0  0  0
105233  1  0  0  0
106107  1  0  0  0
106109  1  0  0  0
106234  1  0  0  0
107108  2  0  0  0
107113  1  0  0  0
109110  1  0  0  0
109235  1  0  0  0
109236  1  0  0  0
110111  1  0  0  0
110112  1  0  0  0
110237  1  0  0  0
111238  1  0  0  0
111239  1  0  0  0
111240  1  0  0  0
112241  1  0  0  0
112242  1  0  0  0
112243  1  0  0  0
113114  1  0  0  0
113244  1  0  0  0
114115  1  0  0  0
114117  1  0  0  0
114245  1  0  0  0
115116  2  0  0  0
115121  1  0  0  0
117118  1  0  0  0
117246  1  0  0  0
117247  1  0  0  0
118119  1  0  0  0
118120  1  0  0  0
118248  1  0  0  0
119249  1  0  0  0
119250  1  0  0  0
119251  1  0  0  0
120252  1  0  0  0
120253  1  0  0  0
120254  1  0  0  0
121122  1  0  0  0
121255  1  0  0  0
122123  1  0  0  0
122125  1  0  0  0
122256  1  0  0  0
123124  1  0  0  0
123129  2  0  0  0
124257  1  0  0  0
125126  1  0  0  0
125258  1  0  0  0
125259  1  0  0  0
126127  1  0  0  0
126128  1  0  0  0
126260  1  0  0  0
127261  1  0  0  0
127262  1  0  0  0
127263  1  0  0  0
128264  1  0  0  0
128265  1  0  0  0
128266  1  0  0  0
M  CHG  3   1   1  80   1  98   1
M  END
> <s_m_source_file>
../2lsk_ligand.sdf

> <i_m_source_file_index>
1

> <s_epik_input>
Tz1DKFtOSDJdKVtDSDJdW0NIMl1bQ0BIXShbTkgzK10pQyg9TylbTkhdW0NAQEhdKFtDSDJdW09IXSlDKD1PKVtOSF1bQ0BASF0oW0NASF0oW09IXSlbQ0gzXSlDKD1PKVtOSF1bQ0gyXUMoPU8pW05IXVtDQEBIXShbQ0BIXShbT0hdKVtDSDNdKUMoPU8pW05IXVtDQEBIXShbQ0gyXVtDSDJdQyg9TylbT0hdKUMoPU8pTjFbQ0BASF0oW0NIMl1bQ0gyXVtDSDJdMSlDKD1PKVtOSF1bQ0BASF0oW0NIMl1jMltjSF1bY0hdW2NIXVtjSF1bY0hdMilDKD1PKVtOSF1bQ0BASF0oW0NIMl1jM1tjSF1bY0hdW2NIXVtjSF1bY0hdMylDKD1PKVtOSF1bQ0BASF0oW0NIMl1bQ0gyXVtDSDJdW0NIMl1bTkgzK10pQyg9TylbTkhdW0NAQEhdKFtDSDJdW0NIMl1DKD1PKVtOSDJdKUMoPU8pW05IXVtDQEBIXShbQ0gyXVtDSDJdW0NIMl1bQ0gyXVtOSDMrXSlDKD1PKVtOSF1bQ0BASF0oW0NIMl1bT0hdKUMoPU8pW05IXVtDQEBIXShbQ0gyXVtDSF0oW0NIM10pW0NIM10pQyg9TylbTkhdW0NAQEhdKFtDSDJdW0NIXShbQ0gzXSlbQ0gzXSlDKD1PKVtOSF1bQ0BIXShDKD1PKVtPSF0pW0NIMl1bQ0hdKFtDSDNdKVtDSDNd

> <s_epik_cmdline>
J2VwaWtfYXBwJywgJy1pbWFlJywgJ2xpZ2FuZF9wcm8ubWFlJywgJy1vbWFlJywgJ2xpZ2FuZF9wcmVwLm1hZScsICctbXMnLCAnMScsICctcGgnLCAnNycsICctcGh0JywgJzAuNScsICctbnQn

> <s_epik_pKa_notes>
Molecule size exceeds maximum supported for generating protonation states

$$$$
