2lsp_ligand
                    3D
 Schrodinger Suite 2020-3.
240241  0  0  1  0            999 V2000
   17.9550  -16.7270    4.7120 N   0  3  0  0  0  0
   19.3240  -16.3480    5.1320 C   0  0  2  0  0  0
   19.2590  -15.1640    6.0870 C   0  0  0  0  0  0
   18.1740  -14.7410    6.4900 O   0  0  0  0  0  0
   20.1830  -15.9670    3.9220 C   0  0  0  0  0  0
   20.2150  -17.0080    2.8170 C   0  0  0  0  0  0
   21.0930  -16.5470    1.6640 C   0  0  0  0  0  0
   21.0160  -17.4400    0.5080 N   0  0  0  0  0  0
   21.8240  -17.3580   -0.5500 C   0  0  0  0  0  0
   22.7680  -16.4260   -0.6000 N   0  0  0  0  0  0
   21.6780  -18.1990   -1.5650 N   0  0  0  0  0  0
   20.4170  -14.6360    6.4550 N   0  0  0  0  0  0
   20.4750  -13.4190    7.2400 C   0  0  2  0  0  0
   20.1610  -12.2210    6.3540 C   0  0  0  0  0  0
   20.6130  -12.1510    5.2080 O   0  0  0  0  0  0
   21.8560  -13.2420    7.8950 C   0  0  2  0  0  0
   22.8890  -13.4610    6.9240 O   0  0  0  0  0  0
   22.0320  -14.2020    9.0600 C   0  0  0  0  0  0
   19.3790  -11.2900    6.8740 N   0  0  0  0  0  0
   18.9270  -10.1520    6.0880 C   0  0  2  0  0  0
   20.0150   -9.0920    5.9920 C   0  0  0  0  0  0
   19.9920   -8.0770    6.6910 O   0  0  0  0  0  0
   17.6400   -9.5800    6.6810 C   0  0  0  0  0  0
   16.5580  -10.6270    6.8130 C   0  0  0  0  0  0
   16.0640  -11.2800    5.6930 C   0  0  0  0  0  0
   16.0460  -10.9780    8.0550 C   0  0  0  0  0  0
   15.0940  -12.2520    5.8050 C   0  0  0  0  0  0
   15.0690  -11.9480    8.1730 C   0  0  0  0  0  0
   14.5980  -12.5820    7.0440 C   0  0  0  0  0  0
   13.6310  -13.5560    7.1530 O   0  0  0  0  0  0
   20.9750   -9.3620    5.1250 N   0  0  0  0  0  0
   22.0860   -8.4610    4.8740 C   0  0  2  0  0  0
   21.6300   -7.2930    4.0080 C   0  0  0  0  0  0
   22.1780   -6.1900    4.0810 O   0  0  0  0  0  0
   23.2060   -9.2370    4.1730 C   0  0  0  0  0  0
   24.4260   -8.4050    3.8140 C   0  0  0  0  0  0
   25.4520   -9.2060    3.0410 C   0  0  0  0  0  0
   25.2790   -9.3750    1.8140 O   0  0  0  0  0  0
   26.4270   -9.6850    3.6560 O   0  0  0  0  0  0
   20.6070   -7.5410    3.2070 N   0  0  0  0  0  0
   20.1360   -6.5660    2.2430 C   0  0  2  0  0  0
   18.9520   -5.7630    2.7770 C   0  0  0  0  0  0
   18.2770   -6.1710    3.7270 O   0  0  0  0  0  0
   19.6970   -7.2630    0.9410 C   0  0  2  0  0  0
   20.6170   -8.3120    0.6140 O   0  0  0  0  0  0
   19.6230   -6.2670   -0.2090 C   0  0  0  0  0  0
   18.7290   -4.6140    2.1610 N   0  0  0  0  0  0
   17.5160   -3.8420    2.3380 C   0  0  2  0  0  0
   17.1100   -3.3050    0.9710 C   0  0  0  0  0  0
   17.8930   -3.4110    0.0280 O   0  0  0  0  0  0
   17.7320   -2.7050    3.3480 C   0  0  0  0  0  0
   18.8080   -1.7110    2.9830 C   0  0  0  0  0  0
   18.5430   -0.6700    2.1090 C   0  0  0  0  0  0
   20.0700   -1.7930    3.5480 C   0  0  0  0  0  0
   19.5060    0.2660    1.8030 C   0  0  0  0  0  0
   21.0450   -0.8620    3.2400 C   0  0  0  0  0  0
   20.7590    0.1710    2.3660 C   0  0  0  0  0  0
   10.1250   -1.0970    1.3520 O   0  0  0  0  0  0
    9.8620   -1.0550    0.1500 C   0  0  0  0  0  0
    9.2500    0.2120   -0.4400 C   0  0  0  0  0  0
   10.1030   -2.0820   -0.6370 N   0  0  0  0  0  0
   10.6870   -3.3280   -0.1370 C   0  0  0  0  0  0
   12.1030   -3.1230    0.3930 C   0  0  0  0  0  0
   13.0910   -2.9220   -0.7360 C   0  0  0  0  0  0
   14.0340   -1.7480   -0.4890 C   0  0  0  0  0  0
   15.5230   -2.1390   -0.4330 C   0  0  2  0  0  0
   15.8990   -2.7650    0.8310 N   0  0  0  0  0  0
   16.3920   -0.9010   -0.6510 C   0  0  0  0  0  0
   16.0940    0.1670   -0.1150 O   0  0  0  0  0  0
   17.4920   -1.0740   -1.3830 N   0  0  0  0  0  0
   18.4510    0.0000   -1.6250 C   0  0  2  0  0  0
   17.7840    1.2110   -2.2660 C   0  0  0  0  0  0
   17.1500    1.1060   -3.3190 O   0  0  0  0  0  0
   19.5860   -0.5110   -2.5080 C   0  0  0  0  0  0
   20.2030   -1.6480   -1.9260 O   0  0  0  0  0  0
   17.9400    2.3620   -1.6300 N   0  0  0  0  0  0
   17.2350    3.5560   -2.0430 C   0  0  2  0  0  0
   18.1910    4.6420   -2.5140 C   0  0  0  0  0  0
   18.9540    5.1950   -1.7210 O   0  0  0  0  0  0
   16.3730    4.0620   -0.8800 C   0  0  2  0  0  0
   15.1680    3.1390   -0.6950 C   0  0  0  0  0  0
   15.9290    5.5050   -1.0870 C   0  0  0  0  0  0
   14.0270    3.4350   -1.6330 C   0  0  0  0  0  0
   18.1400    4.9180   -3.8180 N   0  0  0  0  0  0
   18.9340    5.9760   -4.4390 C   0  0  2  0  0  0
   20.4290    5.7070   -4.3030 C   0  0  0  0  0  0
   21.0100    5.8780   -3.2310 O   0  0  0  0  0  0
   18.5840    7.3450   -3.8410 C   0  0  0  0  0  0
   19.3670    8.4960   -4.4550 C   0  0  0  0  0  0
   18.9030   10.0990   -3.7710 S   0  0  0  0  0  0
   19.9710   11.1850   -4.7170 C   0  0  0  0  0  0
   21.0420    5.2800   -5.3980 N   0  0  0  0  0  0
   22.4800    5.0640   -5.4380 C   0  0  2  0  0  0
   23.2110    6.3900   -5.2450 C   0  0  0  0  0  0
   23.5120    7.0980   -6.2100 O   0  0  0  0  0  0
   22.8780    4.4260   -6.7720 C   0  0  0  0  0  0
   24.3660    4.1410   -6.9040 C   0  0  0  0  0  0
   24.7010    3.6390   -8.2970 C   0  0  0  0  0  0
   26.1990    3.4900   -8.5000 C   0  0  0  0  0  0
   26.5260    3.0970   -9.8960 N   0  3  0  0  0  0
   23.4630    6.7300   -3.9900 N   0  0  0  0  0  0
   24.1280    7.9750   -3.6510 C   0  0  2  0  0  0
   25.6360    7.7720   -3.6410 C   0  0  0  0  0  0
   26.4060    8.7190   -3.7920 O   0  0  0  0  0  0
   23.6530    8.4690   -2.2810 C   0  0  0  0  0  0
   24.0450    9.9040   -1.9700 C   0  0  0  0  0  0
   23.2870   10.8890   -2.8440 C   0  0  0  0  0  0
   23.6450   12.3270   -2.5090 C   0  0  0  0  0  0
   25.0580   12.6440   -2.8440 N   0  3  0  0  0  0
   26.0460    6.5270   -3.4630 N   0  0  0  0  0  0
   27.4540    6.1860   -3.4490 C   0  0  2  0  0  0
   27.9760    6.0610   -4.8780 C   0  0  0  0  0  0
   28.4420    7.0780   -5.4340 O   0  0  0  0  0  0
   27.6620    4.8810   -2.6800 C   0  0  0  0  0  0
   27.0880    4.9600   -1.3810 O   0  0  0  0  0  0
   27.9000    4.9540   -5.4470 O   0  0  0  0  0  0
   17.3608  -16.9953    5.5979 H   0  0  0  0  0  0
   18.0060  -17.5886    4.0300 H   0  0  0  0  0  0
   17.4816  -15.8786    4.1962 H   0  0  0  0  0  0
   19.7511  -17.2290    5.6334 H   0  0  0  0  0  0
   19.7960  -15.0393    3.4752 H   0  0  0  0  0  0
   21.2231  -15.8124    4.2448 H   0  0  0  0  0  0
   20.6181  -17.9515    3.2137 H   0  0  0  0  0  0
   19.1949  -17.1746    2.4405 H   0  0  0  0  0  0
   20.7755  -15.5452    1.3392 H   0  0  0  0  0  0
   22.1418  -16.5103    1.9937 H   0  0  0  0  0  0
   20.2582  -18.2368    0.4780 H   0  0  0  0  0  0
   22.8942  -15.7254    0.2386 H   0  0  0  0  0  0
   23.4240  -16.3543   -1.4801 H   0  0  0  0  0  0
   20.8977  -18.9735   -1.5297 H   0  0  0  0  0  0
   21.3467  -15.1404    6.1528 H   0  0  0  0  0  0
   19.7046  -13.5396    8.0158 H   0  0  0  0  0  0
   21.9872  -12.2080    8.2465 H   0  0  0  0  0  0
   22.9206  -12.8529    6.0079 H   0  0  0  0  0  0
   21.2374  -14.0292    9.8007 H   0  0  0  0  0  0
   23.0129  -14.0340    9.5286 H   0  0  0  0  0  0
   21.9731  -15.2376    8.6938 H   0  0  0  0  0  0
   19.0705  -11.3898    7.9251 H   0  0  0  0  0  0
   18.7279  -10.5407    5.0784 H   0  0  0  0  0  0
   17.8465   -9.1738    7.6822 H   0  0  0  0  0  0
   17.2616   -8.7776    6.0307 H   0  0  0  0  0  0
   16.4500  -11.0195    4.7075 H   0  0  0  0  0  0
   16.4202  -10.4811    8.9501 H   0  0  0  0  0  0
   14.7211  -12.7576    4.9143 H   0  0  0  0  0  0
   14.6730  -12.2102    9.1541 H   0  0  0  0  0  0
   13.2555  -14.0616    6.2511 H   0  0  0  0  0  0
   20.9075  -10.3165    4.5824 H   0  0  0  0  0  0
   22.4182   -8.0827    5.8520 H   0  0  0  0  0  0
   23.5559  -10.0482    4.8285 H   0  0  0  0  0  0
   22.8242   -9.6635    3.2337 H   0  0  0  0  0  0
   24.1177   -7.5514    3.1924 H   0  0  0  0  0  0
   24.9016   -8.0354    4.7345 H   0  0  0  0  0  0
   26.0101   -9.9532    1.2300 H   0  0  0  0  0  0
   20.1106   -8.5193    3.2872 H   0  0  0  0  0  0
   21.0062   -5.9096    2.0949 H   0  0  0  0  0  0
   18.7208   -7.7522    1.0739 H   0  0  0  0  0  0
   20.7999   -9.1263    1.3305 H   0  0  0  0  0  0
   18.9160   -5.4640    0.0464 H   0  0  0  0  0  0
   19.2801   -6.7819   -1.1185 H   0  0  0  0  0  0
   20.6195   -5.8358   -0.3853 H   0  0  0  0  0  0
   19.5191   -4.2503    1.4876 H   0  0  0  0  0  0
   16.7477   -4.5194    2.7390 H   0  0  0  0  0  0
   16.8008   -2.1297    3.4572 H   0  0  0  0  0  0
   18.0173   -3.1291    4.3220 H   0  0  0  0  0  0
   17.5551   -0.5900    1.6553 H   0  0  0  0  0  0
   20.2972   -2.6009    4.2436 H   0  0  0  0  0  0
   19.2766    1.0807    1.1162 H   0  0  0  0  0  0
   22.0368   -0.9421    3.6851 H   0  0  0  0  0  0
   21.5240    0.9085    2.1233 H   0  0  0  0  0  0
    9.1190    0.9606    0.3553 H   0  0  0  0  0  0
    8.2723   -0.0257   -0.8845 H   0  0  0  0  0  0
    9.9175    0.6145   -1.2161 H   0  0  0  0  0  0
    9.8505   -1.9818   -1.7029 H   0  0  0  0  0  0
   10.0670   -3.7206    0.6824 H   0  0  0  0  0  0
   10.7286   -4.0662   -0.9514 H   0  0  0  0  0  0
   12.1270   -2.2341    1.0405 H   0  0  0  0  0  0
   12.4093   -4.0067    0.9720 H   0  0  0  0  0  0
   13.7035   -3.8282   -0.8528 H   0  0  0  0  0  0
   12.5450   -2.7255   -1.6705 H   0  0  0  0  0  0
   13.9227   -1.0117   -1.2986 H   0  0  0  0  0  0
   13.7869   -1.2753    0.4730 H   0  0  0  0  0  0
   15.7107   -2.9104   -1.1944 H   0  0  0  0  0  0
   15.1837   -2.7907    1.6662 H   0  0  0  0  0  0
   17.6644   -2.0722   -1.8118 H   0  0  0  0  0  0
   18.8306    0.2891   -0.6339 H   0  0  0  0  0  0
   19.1863   -0.7899   -3.4941 H   0  0  0  0  0  0
   20.3411    0.2797   -2.6288 H   0  0  0  0  0  0
   21.0428   -2.1405   -2.4380 H   0  0  0  0  0  0
   18.6243    2.3973   -0.7695 H   0  0  0  0  0  0
   16.6163    3.2478   -2.8987 H   0  0  0  0  0  0
   16.9815    4.0512    0.0363 H   0  0  0  0  0  0
   15.4738    2.0971   -0.8708 H   0  0  0  0  0  0
   14.7828    3.2400    0.3304 H   0  0  0  0  0  0
   16.8136    6.1457   -1.2171 H   0  0  0  0  0  0
   15.3578    5.8423   -0.2095 H   0  0  0  0  0  0
   15.2951    5.5685   -1.9837 H   0  0  0  0  0  0
   13.2022    2.7333   -1.4399 H   0  0  0  0  0  0
   14.3684    3.3224   -2.6726 H   0  0  0  0  0  0
   13.6774    4.4654   -1.4714 H   0  0  0  0  0  0
   17.4617    4.3071   -4.4318 H   0  0  0  0  0  0
   18.6583    5.9430   -5.5034 H   0  0  0  0  0  0
   17.5156    7.5525   -4.0006 H   0  0  0  0  0  0
   18.7993    7.3398   -2.7623 H   0  0  0  0  0  0
   20.4412    8.3492   -4.2690 H   0  0  0  0  0  0
   19.1836    8.5272   -5.5392 H   0  0  0  0  0  0
   19.8016   12.2268   -4.4072 H   0  0  0  0  0  0
   19.7448   11.0796   -5.7883 H   0  0  0  0  0  0
   21.0218   10.9148   -4.5358 H   0  0  0  0  0  0
   20.4319    5.0883   -6.2930 H   0  0  0  0  0  0
   22.7132    4.3818   -4.6072 H   0  0  0  0  0  0
   22.3528    3.4668   -6.8909 H   0  0  0  0  0  0
   22.6028    5.0994   -7.5971 H   0  0  0  0  0  0
   24.9342    5.0637   -6.7150 H   0  0  0  0  0  0
   24.6587    3.3737   -6.1722 H   0  0  0  0  0  0
   24.2324    2.6564   -8.4552 H   0  0  0  0  0  0
   24.3211    4.3509   -9.0445 H   0  0  0  0  0  0
   26.6953    4.4475   -8.2837 H   0  0  0  0  0  0
   26.5857    2.7152   -7.8217 H   0  0  0  0  0  0
   27.6164    2.9993  -10.0035 H   0  0  0  0  0  0
   26.1566    3.8667  -10.5897 H   0  0  0  0  0  0
   26.0469    2.1343  -10.1277 H   0  0  0  0  0  0
   23.1528    6.0376   -3.1936 H   0  0  0  0  0  0
   23.8506    8.6942   -4.4358 H   0  0  0  0  0  0
   22.5554    8.4150   -2.2321 H   0  0  0  0  0  0
   24.0867    7.8364   -1.4925 H   0  0  0  0  0  0
   23.8179   10.1261   -0.9169 H   0  0  0  0  0  0
   25.1222   10.0368   -2.1487 H   0  0  0  0  0  0
   23.5342   10.7074   -3.9004 H   0  0  0  0  0  0
   22.2055   10.7568   -2.6925 H   0  0  0  0  0  0
   22.9966   13.0086   -3.0791 H   0  0  0  0  0  0
   23.5013   12.4993   -1.4321 H   0  0  0  0  0  0
   25.2700   13.6918   -2.5849 H   0  0  0  0  0  0
   25.2224   12.4921   -3.9210 H   0  0  0  0  0  0
   25.7272   11.9827   -2.2740 H   0  0  0  0  0  0
   25.2885    5.7417   -3.3235 H   0  0  0  0  0  0
   27.9687    7.0127   -2.9374 H   0  0  0  0  0  0
   28.8248    7.0154   -6.4633 H   0  0  0  0  0  0
   27.1865    4.0534   -3.2268 H   0  0  0  0  0  0
   28.7392    4.6826   -2.5790 H   0  0  0  0  0  0
   27.1517    4.0999   -0.6983 H   0  0  0  0  0  0
  1  2  1  0  0  0
  1117  1  0  0  0
  1118  1  0  0  0
  1119  1  0  0  0
  2  3  1  0  0  0
  2  5  1  0  0  0
  2120  1  0  0  0
  3  4  2  0  0  0
  3 12  1  0  0  0
  5  6  1  0  0  0
  5121  1  0  0  0
  5122  1  0  0  0
  6  7  1  0  0  0
  6123  1  0  0  0
  6124  1  0  0  0
  7  8  1  0  0  0
  7125  1  0  0  0
  7126  1  0  0  0
  8  9  1  0  0  0
  8127  1  0  0  0
  9 10  1  0  0  0
  9 11  2  0  0  0
 10128  1  0  0  0
 10129  1  0  0  0
 11130  1  0  0  0
 12 13  1  0  0  0
 12131  1  0  0  0
 13 14  1  0  0  0
 13 16  1  0  0  0
 13132  1  0  0  0
 14 15  2  0  0  0
 14 19  1  0  0  0
 16 17  1  0  0  0
 16 18  1  0  0  0
 16133  1  0  0  0
 17134  1  0  0  0
 18135  1  0  0  0
 18136  1  0  0  0
 18137  1  0  0  0
 19 20  1  0  0  0
 19138  1  0  0  0
 20 21  1  0  0  0
 20 23  1  0  0  0
 20139  1  0  0  0
 21 22  2  0  0  0
 21 31  1  0  0  0
 23 24  1  0  0  0
 23140  1  0  0  0
 23141  1  0  0  0
 24 25  2  0  0  0
 24 26  1  0  0  0
 25 27  1  0  0  0
 25142  1  0  0  0
 26 28  2  0  0  0
 26143  1  0  0  0
 27 29  2  0  0  0
 27144  1  0  0  0
 28 29  1  0  0  0
 28145  1  0  0  0
 29 30  1  0  0  0
 30146  1  0  0  0
 31 32  1  0  0  0
 31147  1  0  0  0
 32 33  1  0  0  0
 32 35  1  0  0  0
 32148  1  0  0  0
 33 34  2  0  0  0
 33 40  1  0  0  0
 35 36  1  0  0  0
 35149  1  0  0  0
 35150  1  0  0  0
 36 37  1  0  0  0
 36151  1  0  0  0
 36152  1  0  0  0
 37 38  1  0  0  0
 37 39  2  0  0  0
 38153  1  0  0  0
 40 41  1  0  0  0
 40154  1  0  0  0
 41 42  1  0  0  0
 41 44  1  0  0  0
 41155  1  0  0  0
 42 43  2  0  0  0
 42 47  1  0  0  0
 44 45  1  0  0  0
 44 46  1  0  0  0
 44156  1  0  0  0
 45157  1  0  0  0
 46158  1  0  0  0
 46159  1  0  0  0
 46160  1  0  0  0
 47 48  1  0  0  0
 47161  1  0  0  0
 48 49  1  0  0  0
 48 51  1  0  0  0
 48162  1  0  0  0
 49 50  2  0  0  0
 49 67  1  0  0  0
 51 52  1  0  0  0
 51163  1  0  0  0
 51164  1  0  0  0
 52 53  2  0  0  0
 52 54  1  0  0  0
 53 55  1  0  0  0
 53165  1  0  0  0
 54 56  2  0  0  0
 54166  1  0  0  0
 55 57  2  0  0  0
 55167  1  0  0  0
 56 57  1  0  0  0
 56168  1  0  0  0
 57169  1  0  0  0
 58 59  2  0  0  0
 59 60  1  0  0  0
 59 61  1  0  0  0
 60170  1  0  0  0
 60171  1  0  0  0
 60172  1  0  0  0
 61 62  1  0  0  0
 61173  1  0  0  0
 62 63  1  0  0  0
 62174  1  0  0  0
 62175  1  0  0  0
 63 64  1  0  0  0
 63176  1  0  0  0
 63177  1  0  0  0
 64 65  1  0  0  0
 64178  1  0  0  0
 64179  1  0  0  0
 65 66  1  0  0  0
 65180  1  0  0  0
 65181  1  0  0  0
 66 67  1  0  0  0
 66 68  1  0  0  0
 66182  1  0  0  0
 67183  1  0  0  0
 68 69  2  0  0  0
 68 70  1  0  0  0
 70 71  1  0  0  0
 70184  1  0  0  0
 71 72  1  0  0  0
 71 74  1  0  0  0
 71185  1  0  0  0
 72 73  2  0  0  0
 72 76  1  0  0  0
 74 75  1  0  0  0
 74186  1  0  0  0
 74187  1  0  0  0
 75188  1  0  0  0
 76 77  1  0  0  0
 76189  1  0  0  0
 77 78  1  0  0  0
 77 80  1  0  0  0
 77190  1  0  0  0
 78 79  2  0  0  0
 78 84  1  0  0  0
 80 81  1  0  0  0
 80 82  1  0  0  0
 80191  1  0  0  0
 81 83  1  0  0  0
 81192  1  0  0  0
 81193  1  0  0  0
 82194  1  0  0  0
 82195  1  0  0  0
 82196  1  0  0  0
 83197  1  0  0  0
 83198  1  0  0  0
 83199  1  0  0  0
 84 85  1  0  0  0
 84200  1  0  0  0
 85 86  1  0  0  0
 85 88  1  0  0  0
 85201  1  0  0  0
 86 87  2  0  0  0
 86 92  1  0  0  0
 88 89  1  0  0  0
 88202  1  0  0  0
 88203  1  0  0  0
 89 90  1  0  0  0
 89204  1  0  0  0
 89205  1  0  0  0
 90 91  1  0  0  0
 91206  1  0  0  0
 91207  1  0  0  0
 91208  1  0  0  0
 92 93  1  0  0  0
 92209  1  0  0  0
 93 94  1  0  0  0
 93 96  1  0  0  0
 93210  1  0  0  0
 94 95  2  0  0  0
 94101  1  0  0  0
 96 97  1  0  0  0
 96211  1  0  0  0
 96212  1  0  0  0
 97 98  1  0  0  0
 97213  1  0  0  0
 97214  1  0  0  0
 98 99  1  0  0  0
 98215  1  0  0  0
 98216  1  0  0  0
 99100  1  0  0  0
 99217  1  0  0  0
 99218  1  0  0  0
100219  1  0  0  0
100220  1  0  0  0
100221  1  0  0  0
101102  1  0  0  0
101222  1  0  0  0
102103  1  0  0  0
102105  1  0  0  0
102223  1  0  0  0
103104  2  0  0  0
103110  1  0  0  0
105106  1  0  0  0
105224  1  0  0  0
105225  1  0  0  0
106107  1  0  0  0
106226  1  0  0  0
106227  1  0  0  0
107108  1  0  0  0
107228  1  0  0  0
107229  1  0  0  0
108109  1  0  0  0
108230  1  0  0  0
108231  1  0  0  0
109232  1  0  0  0
109233  1  0  0  0
109234  1  0  0  0
110111  1  0  0  0
110235  1  0  0  0
111112  1  0  0  0
111114  1  0  0  0
111236  1  0  0  0
112113  1  0  0  0
112116  2  0  0  0
113237  1  0  0  0
114115  1  0  0  0
114238  1  0  0  0
114239  1  0  0  0
115240  1  0  0  0
M  CHG  3   1   1 100   1 109   1
M  END
> <s_m_source_file>
../2lsp_ligand.sdf

> <i_m_source_file_index>
1

> <s_epik_input>
W0hdL049QyhbTkgyXSlcW05IXVtDSDJdW0NIMl1bQ0gyXVtDQEhdKFtOSDMrXSlDKD1PKVtOSF1bQ0BASF0oW0NASF0oW09IXSlbQ0gzXSlDKD1PKVtOSF1bQ0BASF0oW0NIMl1jMVtjSF1bY0hdYyhbT0hdKVtjSF1bY0hdMSlDKD1PKVtOSF1bQ0BASF0oW0NIMl1bQ0gyXUMoPU8pW09IXSlDKD1PKVtOSF1bQ0BASF0oW0NASF0oW09IXSlbQ0gzXSlDKD1PKVtOSF1bQ0BASF0oW0NIMl1jMltjSF1bY0hdW2NIXVtjSF1bY0hdMilDKD1PKVtOSF1bQ0BASF0oW0NIMl1bQ0gyXVtDSDJdW0NIMl1bTkhdQyg9TylbQ0gzXSlDKD1PKVtOSF1bQ0BASF0oW0NIMl1bT0hdKUMoPU8pW05IXVtDQEBIXShbQ0BASF0oW0NIM10pW0NIMl1bQ0gzXSlDKD1PKVtOSF1bQ0BASF0oW0NIMl1bQ0gyXVNbQ0gzXSlDKD1PKVtOSF1bQ0BASF0oW0NIMl1bQ0gyXVtDSDJdW0NIMl1bTkgzK10pQyg9TylbTkhdW0NASF0oQyg9TylbTkhdW0NASF0oQyg9TylbT0hdKVtDSDJdW09IXSlbQ0gyXVtDSDJdW0NIMl1bQ0gyXVtOSDMrXQ==

> <s_epik_cmdline>
J2VwaWtfYXBwJywgJy1pbWFlJywgJ2xpZ2FuZF9wcm8ubWFlJywgJy1vbWFlJywgJ2xpZ2FuZF9wcmVwLm1hZScsICctbXMnLCAnMScsICctcGgnLCAnNycsICctcGh0JywgJzAuNScsICctbnQn

> <s_epik_pKa_notes>
Molecule size exceeds maximum supported for generating protonation states

> <s_epik_Chemistry_Notes>
This compound has an imine and may undergo hydrolysis.

$$$$
