2lsr_ligand
                    3D
 Schrodinger Suite 2020-3.
288288  0  0  1  0            999 V2000
  -10.3760    9.6950   11.0860 N   0  3  0  0  0  0
  -10.3210    8.3940   11.7280 C   0  0  0  0  0  0
   -9.2200    7.5100   11.1710 C   0  0  0  0  0  0
   -9.2170    6.3000   11.3930 O   0  0  0  0  0  0
   -8.2830    8.1150   10.4450 N   0  0  0  0  0  0
   -7.1730    7.3710    9.8570 C   0  0  2  0  0  0
   -7.6790    6.2410    8.9680 C   0  0  0  0  0  0
   -7.7720    5.0920    9.4020 O   0  0  0  0  0  0
   -6.2730    6.8070   10.9570 C   0  0  0  0  0  0
   -4.9070    6.8680   10.5810 O   0  0  0  0  0  0
   -8.0020    6.5720    7.7230 N   0  0  0  0  0  0
   -8.4960    5.5820    6.7720 C   0  0  2  0  0  0
   -7.3720    4.6540    6.3220 C   0  0  0  0  0  0
   -7.5610    3.4430    6.1940 O   0  0  0  0  0  0
   -9.1190    6.2770    5.5600 C   0  0  0  0  0  0
  -10.6110    6.5840    5.6890 C   0  0  0  0  0  0
  -11.0400    7.6000    4.6430 C   0  0  0  0  0  0
  -11.4300    5.3070    5.5610 C   0  0  0  0  0  0
   -6.1960    5.2280    6.0880 N   0  0  0  0  0  0
   -5.0400    4.4490    5.6580 C   0  0  2  0  0  0
   -4.7590    3.3200    6.6410 C   0  0  0  0  0  0
   -4.6550    2.1560    6.2520 O   0  0  0  0  0  0
   -3.8100    5.3500    5.5310 C   0  0  0  0  0  0
   -2.5510    4.6560    5.0060 C   0  0  0  0  0  0
   -2.5490    4.6380    3.4850 C   0  0  0  0  0  0
   -1.3010    5.3460    5.5350 C   0  0  0  0  0  0
   -4.6430    3.6730    7.9180 N   0  0  0  0  0  0
   -4.3780    2.6940    8.9670 C   0  0  2  0  0  0
   -5.4410    1.5990    8.9780 C   0  0  0  0  0  0
   -5.1510    0.4440    9.2880 O   0  0  0  0  0  0
   -4.3290    3.3830   10.3330 C   0  0  0  0  0  0
   -3.6890    2.5350   11.4190 C   0  0  0  0  0  0
   -4.7340    1.9400   12.3510 C   0  0  0  0  0  0
   -5.2790    2.9820   13.3130 C   0  0  0  0  0  0
   -4.4910    3.0390   14.5760 N   0  3  0  0  0  0
   -6.6710    1.9690    8.6390 N   0  0  0  0  0  0
   -7.7750    1.0150    8.6130 C   0  0  2  0  0  0
   -7.5470   -0.0570    7.5550 C   0  0  0  0  0  0
   -7.8070   -1.2370    7.7860 O   0  0  0  0  0  0
   -9.1000    1.7330    8.3500 C   0  0  0  0  0  0
   -9.6440    2.4720    9.5620 C   0  0  0  0  0  0
   -9.8730    1.5560   10.7490 C   0  0  0  0  0  0
   -9.9890    0.3300   10.5390 O   0  0  0  0  0  0
   -9.9360    2.0640   11.8880 O   0  0  0  0  0  0
   -7.0660    0.3610    6.3900 N   0  0  0  0  0  0
   -6.8140   -0.5700    5.2960 C   0  0  2  0  0  0
   -5.6480   -1.5010    5.6190 C   0  0  0  0  0  0
   -5.6700   -2.6810    5.2640 O   0  0  0  0  0  0
   -6.5350    0.1640    3.9690 C   0  0  0  0  0  0
   -6.4550   -0.8270    2.8180 C   0  0  0  0  0  0
   -7.6080    1.2080    3.7050 C   0  0  0  0  0  0
   -4.6350   -0.9740    6.3030 N   0  0  0  0  0  0
   -3.4750   -1.7820    6.6750 C   0  0  2  0  0  0
   -3.8920   -2.9010    7.6220 C   0  0  0  0  0  0
   -3.4960   -4.0540    7.4540 O   0  0  0  0  0  0
   -2.3860   -0.9290    7.3400 C   0  0  0  0  0  0
   -2.3190    0.5320    6.8920 C   0  0  0  0  0  0
   -1.0830    1.2090    7.4670 C   0  0  0  0  0  0
   -2.3240    0.6300    5.3730 C   0  0  0  0  0  0
   -4.7000   -2.5480    8.6160 N   0  0  0  0  0  0
   -5.1810   -3.5180    9.5920 C   0  0  2  0  0  0
   -6.0900   -4.5440    8.9260 C   0  0  0  0  0  0
   -6.0850   -5.7200    9.2870 O   0  0  0  0  0  0
   -5.9290   -2.8100   10.7230 C   0  0  0  0  0  0
   -6.0900   -3.6640   11.9710 C   0  0  0  0  0  0
   -4.9330   -3.5070   12.9380 C   0  0  0  0  0  0
   -3.8610   -4.0960   12.6820 O   0  0  0  0  0  0
   -5.0990   -2.7970   13.9520 O   0  0  0  0  0  0
   -6.8670   -4.0890    7.9500 N   0  0  0  0  0  0
   -7.7800   -4.9670    7.2280 C   0  0  2  0  0  0
   -7.0090   -6.0770    6.5260 C   0  0  0  0  0  0
   -7.4270   -7.2350    6.5210 O   0  0  0  0  0  0
   -8.5930   -4.1680    6.2070 C   0  0  0  0  0  0
   -9.8720   -3.6070    6.7970 C   0  0  0  0  0  0
  -10.4340   -4.2460    7.7110 O   0  0  0  0  0  0
  -10.3120   -2.5300    6.3440 O   0  0  0  0  0  0
   -5.8770   -5.7140    5.9360 N   0  0  0  0  0  0
   -5.0360   -6.6740    5.2330 C   0  0  2  0  0  0
   -4.4070   -7.6580    6.2120 C   0  0  0  0  0  0
   -4.5270   -8.8760    6.0570 O   0  0  0  0  0  0
   -3.9420   -5.9450    4.4480 C   0  0  0  0  0  0
   -4.1480   -5.9720    2.9510 C   0  0  0  0  0  0
   -4.1180   -7.1690    2.2480 C   0  0  0  0  0  0
   -4.3740   -4.7990    2.2400 C   0  0  0  0  0  0
   -4.3050   -7.1980    0.8790 C   0  0  0  0  0  0
   -4.5630   -4.8190    0.8720 C   0  0  0  0  0  0
   -4.5270   -6.0200    0.1950 C   0  0  0  0  0  0
   -4.7140   -6.0440   -1.1680 O   0  0  0  0  0  0
   -3.7410   -7.1180    7.2260 N   0  0  0  0  0  0
   -3.0890   -7.9370    8.2410 C   0  0  2  0  0  0
   -4.0550   -8.9710    8.8080 C   0  0  0  0  0  0
   -3.6710  -10.1050    9.0900 O   0  0  0  0  0  0
   -2.5450   -7.0570    9.3680 C   0  0  0  0  0  0
   -1.2190   -6.3590    9.0600 C   0  0  0  0  0  0
   -1.0420   -5.1360    9.9470 C   0  0  0  0  0  0
   -0.0570   -7.3240    9.2400 C   0  0  0  0  0  0
   -5.3130   -8.5730    8.9600 N   0  0  0  0  0  0
   -6.3330   -9.4720    9.4800 C   0  0  2  0  0  0
   -6.7720  -10.4530    8.4050 C   0  0  0  0  0  0
   -7.0270  -11.6240    8.6840 O   0  0  0  0  0  0
   -7.5360   -8.6810    9.9990 C   0  0  0  0  0  0
   -7.4210   -8.2850   11.4610 C   0  0  0  0  0  0
   -7.4630   -9.5010   12.3720 C   0  0  0  0  0  0
   -7.5570   -9.1270   13.7830 N   0  0  0  0  0  0
   -8.6870   -8.7420   14.3740 C   0  0  0  0  0  0
   -9.8180   -8.6850   13.6830 N   0  0  0  0  0  0
   -8.6840   -8.4180   15.6590 N   0  0  0  0  0  0
   -6.8340   -9.9710    7.1710 N   0  0  0  0  0  0
   -7.2180  -10.8120    6.0500 C   0  0  2  0  0  0
   -6.1340  -11.8520    5.7730 C   0  0  0  0  0  0
   -6.3520  -12.8040    5.0210 O   0  0  0  0  0  0
   -7.4650   -9.9600    4.8010 C   0  0  0  0  0  0
   -8.9240   -9.8910    4.3450 C   0  0  0  0  0  0
   -9.6100   -8.6680    4.9320 C   0  0  0  0  0  0
   -9.0090   -9.8770    2.8250 C   0  0  0  0  0  0
   -4.9640  -11.6670    6.3860 N   0  0  0  0  0  0
   -3.8520  -12.5950    6.2050 C   0  0  2  0  0  0
   -4.0450  -13.8440    7.0580 C   0  0  0  0  0  0
   -4.4200  -14.9030    6.5540 O   0  0  0  0  0  0
   -2.5260  -11.9190    6.5620 C   0  0  0  0  0  0
   -2.0710  -10.8770    5.5490 C   0  0  0  0  0  0
   -2.1550  -11.4000    4.1240 C   0  0  0  0  0  0
   -1.0730  -10.7940    3.2420 C   0  0  0  0  0  0
   -0.9880  -11.4740    1.9210 N   0  3  0  0  0  0
   -3.7850  -13.7100    8.3520 N   0  0  0  0  0  0
   -3.9280  -14.8240    9.2830 C   0  0  2  0  0  0
   -3.0320  -15.9920    8.8780 C   0  0  0  0  0  0
   -2.3400  -15.8730    7.8440 O   0  0  0  0  0  0
   -5.3880  -15.2780    9.3480 C   0  0  0  0  0  0
   -6.0660  -14.9580   10.6700 C   0  0  0  0  0  0
   -7.4010  -15.6720   10.7990 C   0  0  0  0  0  0
   -8.4060  -14.8390   11.5790 C   0  0  0  0  0  0
   -8.8260  -13.6270   10.8240 N   0  3  0  0  0  0
   -3.0310  -17.0130    9.5960 O   0  0  0  0  0  0
  -11.1893   10.2885   11.5292 H   0  0  0  0  0  0
  -10.5614    9.5651   10.0095 H   0  0  0  0  0  0
   -9.4190   10.2171   11.2329 H   0  0  0  0  0  0
  -10.1356    8.5239   12.8045 H   0  0  0  0  0  0
  -11.2780    7.8719   11.5811 H   0  0  0  0  0  0
   -8.3589    9.2017   10.2923 H   0  0  0  0  0  0
   -6.6234    8.1002    9.2437 H   0  0  0  0  0  0
   -6.4104    7.3914   11.8787 H   0  0  0  0  0  0
   -6.5391    5.7565   11.1458 H   0  0  0  0  0  0
   -4.1306    6.4991   11.2674 H   0  0  0  0  0  0
   -7.8892    7.6220    7.4151 H   0  0  0  0  0  0
   -9.2570    5.0030    7.3158 H   0  0  0  0  0  0
   -8.6128    7.2384    5.3883 H   0  0  0  0  0  0
   -9.0040    5.6383    4.6718 H   0  0  0  0  0  0
  -10.7971    7.0172    6.6828 H   0  0  0  0  0  0
  -10.4380    8.5142    4.7513 H   0  0  0  0  0  0
  -12.1038    7.8428    4.7823 H   0  0  0  0  0  0
  -10.8887    7.1782    3.6384 H   0  0  0  0  0  0
  -11.1055    4.5852    6.3250 H   0  0  0  0  0  0
  -11.2805    4.8743    4.5608 H   0  0  0  0  0  0
  -12.4956    5.5389    5.7047 H   0  0  0  0  0  0
   -6.1060    6.3157    6.2255 H   0  0  0  0  0  0
   -5.3105    4.0291    4.6780 H   0  0  0  0  0  0
   -4.0290    6.1735    4.8354 H   0  0  0  0  0  0
   -3.5539    5.7622    6.5182 H   0  0  0  0  0  0
   -2.5457    3.6152    5.3618 H   0  0  0  0  0  0
   -3.4585    4.1362    3.1231 H   0  0  0  0  0  0
   -1.6627    4.0943    3.1259 H   0  0  0  0  0  0
   -2.5243    5.6704    3.1061 H   0  0  0  0  0  0
   -1.3213    5.3487    6.6348 H   0  0  0  0  0  0
   -1.2702    6.3819    5.1663 H   0  0  0  0  0  0
   -0.4085    4.8058    5.1861 H   0  0  0  0  0  0
   -4.7526    4.7372    8.1738 H   0  0  0  0  0  0
   -3.4006    2.2561    8.7163 H   0  0  0  0  0  0
   -3.7449    4.3118   10.2544 H   0  0  0  0  0  0
   -5.3519    3.6198   10.6611 H   0  0  0  0  0  0
   -3.1258    1.7110   10.9566 H   0  0  0  0  0  0
   -3.0053    3.1573   12.0150 H   0  0  0  0  0  0
   -5.5705    1.5423   11.7577 H   0  0  0  0  0  0
   -4.2816    1.1270   12.9378 H   0  0  0  0  0  0
   -5.2416    3.9739   12.8389 H   0  0  0  0  0  0
   -6.3205    2.7366   13.5679 H   0  0  0  0  0  0
   -4.9188    3.8038   15.2409 H   0  0  0  0  0  0
   -3.4467    3.2963   14.3453 H   0  0  0  0  0  0
   -4.5257    2.0590   15.0743 H   0  0  0  0  0  0
   -6.8476    3.0219    8.3740 H   0  0  0  0  0  0
   -7.7804    0.5526    9.6111 H   0  0  0  0  0  0
   -8.9628    2.4738    7.5485 H   0  0  0  0  0  0
   -9.8604    0.9991    8.0447 H   0  0  0  0  0  0
   -8.9291    3.2498    9.8685 H   0  0  0  0  0  0
  -10.6062    2.9391    9.3052 H   0  0  0  0  0  0
  -10.1558   -0.3588   11.3803 H   0  0  0  0  0  0
   -6.8573    1.4330    6.2590 H   0  0  0  0  0  0
   -7.7489   -1.1452    5.2255 H   0  0  0  0  0  0
   -5.5670    0.6822    4.0360 H   0  0  0  0  0  0
   -5.6739   -1.5721    3.0293 H   0  0  0  0  0  0
   -6.2091   -0.2912    1.8893 H   0  0  0  0  0  0
   -7.4242   -1.3344    2.7030 H   0  0  0  0  0  0
   -7.6488    1.9132    4.5482 H   0  0  0  0  0  0
   -8.5834    0.7115    3.5947 H   0  0  0  0  0  0
   -7.3682    1.7547    2.7810 H   0  0  0  0  0  0
   -4.6804    0.0873    6.5885 H   0  0  0  0  0  0
   -3.1019   -2.1964    5.7268 H   0  0  0  0  0  0
   -2.5485   -0.9099    8.4278 H   0  0  0  0  0  0
   -1.3982   -1.3623    7.1244 H   0  0  0  0  0  0
   -3.2086    1.0563    7.2711 H   0  0  0  0  0  0
   -1.0973    1.1278    8.5639 H   0  0  0  0  0  0
   -1.0783    2.2703    7.1779 H   0  0  0  0  0  0
   -0.1801    0.7181    7.0748 H   0  0  0  0  0  0
   -3.2233    0.1359    4.9767 H   0  0  0  0  0  0
   -1.4270    0.1363    4.9708 H   0  0  0  0  0  0
   -2.3252    1.6886    5.0739 H   0  0  0  0  0  0
   -5.0053   -1.4939    8.6917 H   0  0  0  0  0  0
   -4.2817   -4.0166    9.9828 H   0  0  0  0  0  0
   -5.3801   -1.9021   11.0136 H   0  0  0  0  0  0
   -6.9372   -2.5348   10.3799 H   0  0  0  0  0  0
   -7.0116   -3.3743   12.4971 H   0  0  0  0  0  0
   -6.1492   -4.7244   11.6846 H   0  0  0  0  0  0
   -3.0043   -4.0006   13.3653 H   0  0  0  0  0  0
   -6.8100   -3.0216    7.6905 H   0  0  0  0  0  0
   -8.4440   -5.3992    7.9911 H   0  0  0  0  0  0
   -7.9909   -3.3245    5.8381 H   0  0  0  0  0  0
   -8.8656   -4.8201    5.3641 H   0  0  0  0  0  0
  -11.3633   -3.8636    8.1584 H   0  0  0  0  0  0
   -5.5792   -4.6563    5.9879 H   0  0  0  0  0  0
   -5.7088   -7.2118    4.5488 H   0  0  0  0  0  0
   -3.9118   -4.8893    4.7554 H   0  0  0  0  0  0
   -2.9687   -6.4146    4.6531 H   0  0  0  0  0  0
   -3.9440   -8.1015    2.7849 H   0  0  0  0  0  0
   -4.4025   -3.8475    2.7710 H   0  0  0  0  0  0
   -4.2773   -8.1463    0.3423 H   0  0  0  0  0  0
   -4.7398   -3.8900    0.3300 H   0  0  0  0  0  0
   -4.6857   -7.0006   -1.7103 H   0  0  0  0  0  0
   -3.6890   -6.0210    7.2877 H   0  0  0  0  0  0
   -2.2652   -8.4471    7.7202 H   0  0  0  0  0  0
   -3.2724   -6.2645    9.5980 H   0  0  0  0  0  0
   -2.3768   -7.6717   10.2646 H   0  0  0  0  0  0
   -1.2289   -6.0238    8.0124 H   0  0  0  0  0  0
   -1.8912   -4.4520    9.8021 H   0  0  0  0  0  0
   -0.1071   -4.6216    9.6799 H   0  0  0  0  0  0
   -0.9997   -5.4501   11.0004 H   0  0  0  0  0  0
   -0.2040   -8.1999    8.5911 H   0  0  0  0  0  0
   -0.0097   -7.6492   10.2898 H   0  0  0  0  0  0
    0.8829   -6.8207    8.9693 H   0  0  0  0  0  0
   -5.5777   -7.5416    8.6842 H   0  0  0  0  0  0
   -5.8548  -10.0171   10.3072 H   0  0  0  0  0  0
   -7.6447   -7.7545    9.4162 H   0  0  0  0  0  0
   -8.4470   -9.2887    9.8948 H   0  0  0  0  0  0
   -6.4684   -7.7599   11.6248 H   0  0  0  0  0  0
   -8.2563   -7.6209   11.7278 H   0  0  0  0  0  0
   -8.3393  -10.1169   12.1213 H   0  0  0  0  0  0
   -6.5467  -10.0939   12.2346 H   0  0  0  0  0  0
   -6.6608   -9.1546   14.4202 H   0  0  0  0  0  0
   -9.8249   -8.9531   12.6162 H   0  0  0  0  0  0
  -10.7490   -8.3696   14.1768 H   0  0  0  0  0  0
   -7.7484   -8.4639   16.2356 H   0  0  0  0  0  0
   -6.5876   -8.9119    7.0049 H   0  0  0  0  0  0
   -8.1490  -11.3099    6.3588 H   0  0  0  0  0  0
   -7.1455   -8.9253    4.9939 H   0  0  0  0  0  0
   -6.8899  -10.3701    3.9577 H   0  0  0  0  0  0
   -9.4506  -10.7851    4.7101 H   0  0  0  0  0  0
   -9.5370   -8.6979    6.0292 H   0  0  0  0  0  0
  -10.6691   -8.6638    4.6349 H   0  0  0  0  0  0
   -9.1202   -7.7574    4.5566 H   0  0  0  0  0  0
   -8.5074  -10.7690    2.4215 H   0  0  0  0  0  0
   -8.5160   -8.9728    2.4385 H   0  0  0  0  0  0
  -10.0649   -9.8791    2.5168 H   0  0  0  0  0  0
   -4.8480  -10.7905    7.0404 H   0  0  0  0  0  0
   -3.8681  -12.8670    5.1393 H   0  0  0  0  0  0
   -2.6240  -11.4087    7.5316 H   0  0  0  0  0  0
   -1.7328  -12.6784    6.6258 H   0  0  0  0  0  0
   -2.7105   -9.9854    5.6277 H   0  0  0  0  0  0
   -1.0267  -10.5984    5.7534 H   0  0  0  0  0  0
   -2.0300  -12.4929    4.1266 H   0  0  0  0  0  0
   -3.1358  -11.1441    3.6967 H   0  0  0  0  0  0
   -1.2945   -9.7306    3.0682 H   0  0  0  0  0  0
   -0.0974  -10.8884    3.7413 H   0  0  0  0  0  0
   -0.1961  -11.0058    1.3179 H   0  0  0  0  0  0
   -1.9511  -11.3805    1.3978 H   0  0  0  0  0  0
   -0.7540  -12.5383    2.0709 H   0  0  0  0  0  0
   -3.4538  -12.7268    8.7175 H   0  0  0  0  0  0
   -3.6046  -14.4338   10.2593 H   0  0  0  0  0  0
   -1.6836  -16.6955    7.5238 H   0  0  0  0  0  0
   -5.9630  -14.7783    8.5545 H   0  0  0  0  0  0
   -5.4397  -16.3678    9.2076 H   0  0  0  0  0  0
   -5.4191  -15.2771   11.5005 H   0  0  0  0  0  0
   -6.2429  -13.8745   10.7385 H   0  0  0  0  0  0
   -7.8120  -15.8648    9.7970 H   0  0  0  0  0  0
   -7.2568  -16.6267   11.3261 H   0  0  0  0  0  0
   -9.3013  -15.4437   11.7860 H   0  0  0  0  0  0
   -7.9551  -14.5146   12.5285 H   0  0  0  0  0  0
   -9.5506  -13.0551   11.4223 H   0  0  0  0  0  0
   -9.2920  -13.9296    9.8747 H   0  0  0  0  0  0
   -7.9458  -13.0006   10.6171 H   0  0  0  0  0  0
  1  2  1  0  0  0
  1135  1  0  0  0
  1136  1  0  0  0
  1137  1  0  0  0
  2  3  1  0  0  0
  2138  1  0  0  0
  2139  1  0  0  0
  3  4  2  0  0  0
  3  5  1  0  0  0
  5  6  1  0  0  0
  5140  1  0  0  0
  6  7  1  0  0  0
  6  9  1  0  0  0
  6141  1  0  0  0
  7  8  2  0  0  0
  7 11  1  0  0  0
  9 10  1  0  0  0
  9142  1  0  0  0
  9143  1  0  0  0
 10144  1  0  0  0
 11 12  1  0  0  0
 11145  1  0  0  0
 12 13  1  0  0  0
 12 15  1  0  0  0
 12146  1  0  0  0
 13 14  2  0  0  0
 13 19  1  0  0  0
 15 16  1  0  0  0
 15147  1  0  0  0
 15148  1  0  0  0
 16 17  1  0  0  0
 16 18  1  0  0  0
 16149  1  0  0  0
 17150  1  0  0  0
 17151  1  0  0  0
 17152  1  0  0  0
 18153  1  0  0  0
 18154  1  0  0  0
 18155  1  0  0  0
 19 20  1  0  0  0
 19156  1  0  0  0
 20 21  1  0  0  0
 20 23  1  0  0  0
 20157  1  0  0  0
 21 22  2  0  0  0
 21 27  1  0  0  0
 23 24  1  0  0  0
 23158  1  0  0  0
 23159  1  0  0  0
 24 25  1  0  0  0
 24 26  1  0  0  0
 24160  1  0  0  0
 25161  1  0  0  0
 25162  1  0  0  0
 25163  1  0  0  0
 26164  1  0  0  0
 26165  1  0  0  0
 26166  1  0  0  0
 27 28  1  0  0  0
 27167  1  0  0  0
 28 29  1  0  0  0
 28 31  1  0  0  0
 28168  1  0  0  0
 29 30  2  0  0  0
 29 36  1  0  0  0
 31 32  1  0  0  0
 31169  1  0  0  0
 31170  1  0  0  0
 32 33  1  0  0  0
 32171  1  0  0  0
 32172  1  0  0  0
 33 34  1  0  0  0
 33173  1  0  0  0
 33174  1  0  0  0
 34 35  1  0  0  0
 34175  1  0  0  0
 34176  1  0  0  0
 35177  1  0  0  0
 35178  1  0  0  0
 35179  1  0  0  0
 36 37  1  0  0  0
 36180  1  0  0  0
 37 38  1  0  0  0
 37 40  1  0  0  0
 37181  1  0  0  0
 38 39  2  0  0  0
 38 45  1  0  0  0
 40 41  1  0  0  0
 40182  1  0  0  0
 40183  1  0  0  0
 41 42  1  0  0  0
 41184  1  0  0  0
 41185  1  0  0  0
 42 43  1  0  0  0
 42 44  2  0  0  0
 43186  1  0  0  0
 45 46  1  0  0  0
 45187  1  0  0  0
 46 47  1  0  0  0
 46 49  1  0  0  0
 46188  1  0  0  0
 47 48  2  0  0  0
 47 52  1  0  0  0
 49 50  1  0  0  0
 49 51  1  0  0  0
 49189  1  0  0  0
 50190  1  0  0  0
 50191  1  0  0  0
 50192  1  0  0  0
 51193  1  0  0  0
 51194  1  0  0  0
 51195  1  0  0  0
 52 53  1  0  0  0
 52196  1  0  0  0
 53 54  1  0  0  0
 53 56  1  0  0  0
 53197  1  0  0  0
 54 55  2  0  0  0
 54 60  1  0  0  0
 56 57  1  0  0  0
 56198  1  0  0  0
 56199  1  0  0  0
 57 58  1  0  0  0
 57 59  1  0  0  0
 57200  1  0  0  0
 58201  1  0  0  0
 58202  1  0  0  0
 58203  1  0  0  0
 59204  1  0  0  0
 59205  1  0  0  0
 59206  1  0  0  0
 60 61  1  0  0  0
 60207  1  0  0  0
 61 62  1  0  0  0
 61 64  1  0  0  0
 61208  1  0  0  0
 62 63  2  0  0  0
 62 69  1  0  0  0
 64 65  1  0  0  0
 64209  1  0  0  0
 64210  1  0  0  0
 65 66  1  0  0  0
 65211  1  0  0  0
 65212  1  0  0  0
 66 67  1  0  0  0
 66 68  2  0  0  0
 67213  1  0  0  0
 69 70  1  0  0  0
 69214  1  0  0  0
 70 71  1  0  0  0
 70 73  1  0  0  0
 70215  1  0  0  0
 71 72  2  0  0  0
 71 77  1  0  0  0
 73 74  1  0  0  0
 73216  1  0  0  0
 73217  1  0  0  0
 74 75  1  0  0  0
 74 76  2  0  0  0
 75218  1  0  0  0
 77 78  1  0  0  0
 77219  1  0  0  0
 78 79  1  0  0  0
 78 81  1  0  0  0
 78220  1  0  0  0
 79 80  2  0  0  0
 79 89  1  0  0  0
 81 82  1  0  0  0
 81221  1  0  0  0
 81222  1  0  0  0
 82 83  2  0  0  0
 82 84  1  0  0  0
 83 85  1  0  0  0
 83223  1  0  0  0
 84 86  2  0  0  0
 84224  1  0  0  0
 85 87  2  0  0  0
 85225  1  0  0  0
 86 87  1  0  0  0
 86226  1  0  0  0
 87 88  1  0  0  0
 88227  1  0  0  0
 89 90  1  0  0  0
 89228  1  0  0  0
 90 91  1  0  0  0
 90 93  1  0  0  0
 90229  1  0  0  0
 91 92  2  0  0  0
 91 97  1  0  0  0
 93 94  1  0  0  0
 93230  1  0  0  0
 93231  1  0  0  0
 94 95  1  0  0  0
 94 96  1  0  0  0
 94232  1  0  0  0
 95233  1  0  0  0
 95234  1  0  0  0
 95235  1  0  0  0
 96236  1  0  0  0
 96237  1  0  0  0
 96238  1  0  0  0
 97 98  1  0  0  0
 97239  1  0  0  0
 98 99  1  0  0  0
 98101  1  0  0  0
 98240  1  0  0  0
 99100  2  0  0  0
 99108  1  0  0  0
101102  1  0  0  0
101241  1  0  0  0
101242  1  0  0  0
102103  1  0  0  0
102243  1  0  0  0
102244  1  0  0  0
103104  1  0  0  0
103245  1  0  0  0
103246  1  0  0  0
104105  1  0  0  0
104247  1  0  0  0
105106  1  0  0  0
105107  2  0  0  0
106248  1  0  0  0
106249  1  0  0  0
107250  1  0  0  0
108109  1  0  0  0
108251  1  0  0  0
109110  1  0  0  0
109112  1  0  0  0
109252  1  0  0  0
110111  2  0  0  0
110116  1  0  0  0
112113  1  0  0  0
112253  1  0  0  0
112254  1  0  0  0
113114  1  0  0  0
113115  1  0  0  0
113255  1  0  0  0
114256  1  0  0  0
114257  1  0  0  0
114258  1  0  0  0
115259  1  0  0  0
115260  1  0  0  0
115261  1  0  0  0
116117  1  0  0  0
116262  1  0  0  0
117118  1  0  0  0
117120  1  0  0  0
117263  1  0  0  0
118119  2  0  0  0
118125  1  0  0  0
120121  1  0  0  0
120264  1  0  0  0
120265  1  0  0  0
121122  1  0  0  0
121266  1  0  0  0
121267  1  0  0  0
122123  1  0  0  0
122268  1  0  0  0
122269  1  0  0  0
123124  1  0  0  0
123270  1  0  0  0
123271  1  0  0  0
124272  1  0  0  0
124273  1  0  0  0
124274  1  0  0  0
125126  1  0  0  0
125275  1  0  0  0
126127  1  0  0  0
126129  1  0  0  0
126276  1  0  0  0
127128  1  0  0  0
127134  2  0  0  0
128277  1  0  0  0
129130  1  0  0  0
129278  1  0  0  0
129279  1  0  0  0
130131  1  0  0  0
130280  1  0  0  0
130281  1  0  0  0
131132  1  0  0  0
131282  1  0  0  0
131283  1  0  0  0
132133  1  0  0  0
132284  1  0  0  0
132285  1  0  0  0
133286  1  0  0  0
133287  1  0  0  0
133288  1  0  0  0
M  CHG  4   1   1  35   1 124   1 133   1
M  END
> <s_m_source_file>
../2lsr_ligand.sdf

> <i_m_source_file_index>
1

> <s_epik_input>
W05IMytdW0NIMl1DKD1PKVtOSF1bQ0BASF0oW0NIMl1bT0hdKUMoPU8pW05IXVtDQEBIXShbQ0gyXVtDSF0oW0NIM10pW0NIM10pQyg9TylbTkhdW0NAQEhdKFtDSDJdW0NIXShbQ0gzXSlbQ0gzXSlDKD1PKVtOSF1bQ0BASF0oW0NIMl1bQ0gyXVtDSDJdW0NIMl1bTkgzK10pQyg9TylbTkhdW0NAQEhdKFtDSDJdW0NIMl1DKD1PKVtPSF0pQyg9TylbTkhdW0NAQEhdKFtDSF0oW0NIM10pW0NIM10pQyg9TylbTkhdW0NAQEhdKFtDSDJdW0NIXShbQ0gzXSlbQ0gzXSlDKD1PKVtOSF1bQ0BASF0oW0NIMl1bQ0gyXUMoPU8pW09IXSlDKD1PKVtOSF1bQ0BASF0oW0NIMl1DKD1PKVtPSF0pQyg9TylbTkhdW0NAQEhdKFtDSDJdYzFbY0hdW2NIXWMoW09IXSlbY0hdW2NIXTEpQyg9TylbTkhdW0NAQEhdKFtDSDJdW0NIXShbQ0gzXSlbQ0gzXSlDKD1PKVtOSF1bQ0BASF0oW0NIMl1bQ0gyXVtDSDJdW05IXS9DKFtOSDJdKT1OXFtIXSlDKD1PKVtOSF1bQ0BASF0oW0NIMl1bQ0hdKFtDSDNdKVtDSDNdKUMoPU8pW05IXVtDQEBIXShbQ0gyXVtDSDJdW0NIMl1bQ0gyXVtOSDMrXSlDKD1PKVtOSF1bQ0BIXShDKD1PKVtPSF0pW0NIMl1bQ0gyXVtDSDJdW0NIMl1bTkgzK10=

> <s_epik_cmdline>
J2VwaWtfYXBwJywgJy1pbWFlJywgJ2xpZ2FuZF9wcm8ubWFlJywgJy1vbWFlJywgJ2xpZ2FuZF9wcmVwLm1hZScsICctbXMnLCAnMScsICctcGgnLCAnNycsICctcGh0JywgJzAuNScsICctbnQn

> <s_epik_pKa_notes>
Molecule size exceeds maximum supported for generating protonation states

> <s_epik_Chemistry_Notes>
This compound has an imine and may undergo hydrolysis.

$$$$
