2lsv_ligand
                    3D
 Schrodinger Suite 2020-3.
129128  0  0  1  0            999 V2000
   22.3790   19.7020  -14.8640 N   0  3  0  0  0  0
   20.9790   19.2560  -14.9860 C   0  0  2  0  0  0
   20.0810   20.0180  -14.0170 C   0  0  0  0  0  0
   20.5550   20.8670  -13.2620 O   0  0  0  0  0  0
   20.8580   17.7470  -14.7560 C   0  0  0  0  0  0
   18.7830   19.7110  -14.0370 N   0  0  0  0  0  0
   17.7790   20.3610  -13.2060 C   0  0  2  0  0  0
   16.7450   19.3310  -12.7570 C   0  0  0  0  0  0
   15.6000   19.6730  -12.4610 O   0  0  0  0  0  0
   17.1150   21.4960  -13.9930 C   0  0  0  0  0  0
   18.1190   22.5820  -14.3730 C   0  0  0  0  0  0
   18.3540   23.4730  -13.5240 O   0  0  0  0  0  0
   18.6480   22.5160  -15.5070 O   0  5  0  0  0  0
   17.1490   18.0590  -12.7120 N   0  0  0  0  0  0
   16.2380   16.9540  -12.4540 C   0  0  2  0  0  0
   16.8780   15.7910  -11.7230 C   0  0  0  0  0  0
   18.0760   15.5310  -11.8130 O   0  0  0  0  0  0
   15.7910   16.3310  -13.7870 C   0  0  2  0  0  0
   16.9080   16.1620  -14.6410 O   0  0  0  0  0  0
   14.7400   17.1380  -14.5320 C   0  0  0  0  0  0
   16.0080   15.1000  -10.9920 N   0  0  0  0  0  0
   16.2120   13.7330  -10.5640 C   0  0  2  0  0  0
   15.1800   12.9150  -11.3460 C   0  0  0  0  0  0
   15.2340   11.6900  -11.3700 O   0  0  0  0  0  0
   16.0460   13.6060   -9.0470 C   0  0  0  0  0  0
   14.6370   13.9990   -8.6060 C   0  0  0  0  0  0
   14.4920   13.9090   -7.0910 C   0  0  0  0  0  0
   14.2950   12.7730   -6.5960 O   0  5  0  0  0  0
   14.5770   14.9690   -6.4340 O   0  0  0  0  0  0
   14.2390   13.6210  -11.9930 N   0  0  0  0  0  0
   13.1480   13.0950  -12.7970 C   0  0  2  0  0  0
   13.6630   12.3590  -14.0220 C   0  0  0  0  0  0
   12.9290   11.5820  -14.6350 O   0  0  0  0  0  0
   12.3040   14.2770  -13.3050 C   0  0  0  0  0  0
   11.9110   15.3210  -12.2550 C   0  0  0  0  0  0
   10.3780   14.9820  -11.3580 S   0  0  0  0  0  0
   10.7290   13.2730  -10.9140 C   0  0  0  0  0  0
   14.9240   12.6090  -14.3690 N   0  0  0  0  0  0
   15.5500   12.0690  -15.5580 C   0  0  2  0  0  0
   16.7920   11.2750  -15.1380 C   0  0  0  0  0  0
   17.7200   11.0490  -15.9110 O   0  0  0  0  0  0
   15.7740   13.2170  -16.5490 C   0  0  0  0  0  0
   16.1250   12.6640  -17.9340 C   0  0  0  0  0  0
   16.1660   13.7550  -19.0010 C   0  0  0  0  0  0
   16.8020   14.8050  -18.7510 O   0  0  0  0  0  0
   15.5540   13.5250  -20.0710 O   0  5  0  0  0  0
   16.7780   10.8500  -13.8710 N   0  0  0  0  0  0
   17.7110    9.9030  -13.2830 C   0  0  2  0  0  0
   16.8880    8.6650  -12.9330 C   0  0  0  0  0  0
   15.6560    8.7080  -12.9820 O   0  0  0  0  0  0
   18.3580   10.5060  -12.0330 C   0  0  0  0  0  0
   19.2550   11.6980  -12.3770 C   0  0  0  0  0  0
   20.4430   11.2930  -13.2440 C   0  0  0  0  0  0
   20.9140   10.1400  -13.0970 O   0  5  0  0  0  0
   20.8830   12.1390  -14.0530 O   0  0  0  0  0  0
   17.5290    7.5500  -12.5810 N   0  0  0  0  0  0
   16.7940    6.2930  -12.5260 C   0  0  2  0  0  0
   16.2010    5.9680  -11.1550 C   0  0  0  0  0  0
   14.9780    5.8950  -11.0340 O   0  0  0  0  0  0
   17.6510    5.1540  -13.0860 C   0  0  0  0  0  0
   18.3500    5.6120  -14.3620 C   0  0  0  0  0  0
   18.7310    4.6320  -12.1460 C   0  0  0  0  0  0
   17.0230    5.7710  -10.1230 N   0  0  0  0  0  0
   16.5340    5.3810   -8.8060 C   0  0  2  0  0  0
   16.1830    6.6000   -7.9500 C   0  0  0  0  0  0
   15.6890    6.3920   -6.8210 O   0  0  0  0  0  0
   17.5680    4.5140   -8.0800 C   0  0  0  0  0  0
   18.9340    5.1950   -7.9590 C   0  0  0  0  0  0
   19.5800    5.4040   -9.0090 O   0  0  0  0  0  0
   19.3180    5.5020   -6.8080 O   0  5  0  0  0  0
   16.4100    7.7360   -8.4310 O   0  5  0  0  0  0
   22.4341   20.7874  -15.0339 H   0  0  0  0  0  0
   22.9959   19.1820  -15.6117 H   0  0  0  0  0  0
   22.7514   19.4693  -13.8554 H   0  0  0  0  0  0
   20.6812   19.4913  -16.0185 H   0  0  0  0  0  0
   21.5117   17.2148  -15.4627 H   0  0  0  0  0  0
   19.8153   17.4344  -14.9143 H   0  0  0  0  0  0
   21.1601   17.5078  -13.7257 H   0  0  0  0  0  0
   18.4871   18.9140  -14.7350 H   0  0  0  0  0  0
   18.3002   20.7703  -12.3280 H   0  0  0  0  0  0
   16.6747   21.0928  -14.9169 H   0  0  0  0  0  0
   16.3249   21.9540  -13.3798 H   0  0  0  0  0  0
   18.2183   17.8626  -12.8797 H   0  0  0  0  0  0
   15.4577   17.4353  -11.8462 H   0  0  0  0  0  0
   15.3842   15.3310  -13.5761 H   0  0  0  0  0  0
   17.7876   15.6014  -14.2917 H   0  0  0  0  0  0
   13.8616   17.2814  -13.8856 H   0  0  0  0  0  0
   14.4409   16.5984  -15.4427 H   0  0  0  0  0  0
   15.1570   18.1181  -14.8068 H   0  0  0  0  0  0
   15.0864   15.6319  -10.7131 H   0  0  0  0  0  0
   17.2429   13.4227  -10.7897 H   0  0  0  0  0  0
   16.2289   12.5645   -8.7441 H   0  0  0  0  0  0
   16.7667   14.2665   -8.5427 H   0  0  0  0  0  0
   14.4300   15.0331   -8.9188 H   0  0  0  0  0  0
   13.9051   13.3219   -9.0706 H   0  0  0  0  0  0
   14.3547   14.7075  -11.8664 H   0  0  0  0  0  0
   12.6056   12.4032  -12.1358 H   0  0  0  0  0  0
   12.8631   14.8198  -14.0814 H   0  0  0  0  0  0
   11.3615   13.8994  -13.7282 H   0  0  0  0  0  0
   12.7046   15.3953  -11.4969 H   0  0  0  0  0  0
   11.7764   16.2981  -12.7419 H   0  0  0  0  0  0
    9.8856   12.8629  -10.3392 H   0  0  0  0  0  0
   11.6429   13.2332  -10.3031 H   0  0  0  0  0  0
   10.8730   12.6788  -11.8284 H   0  0  0  0  0  0
   15.4958   13.2648  -13.6959 H   0  0  0  0  0  0
   14.8773   11.3531  -16.0529 H   0  0  0  0  0  0
   14.8570   13.8198  -16.6252 H   0  0  0  0  0  0
   16.6009   13.8505  -16.1955 H   0  0  0  0  0  0
   17.1151   12.1860  -17.8978 H   0  0  0  0  0  0
   15.3705   11.9222  -18.2346 H   0  0  0  0  0  0
   15.9729   11.2815  -13.2582 H   0  0  0  0  0  0
   18.5065    9.6792  -14.0090 H   0  0  0  0  0  0
   17.5730   10.8515  -11.3442 H   0  0  0  0  0  0
   18.9735    9.7428  -11.5342 H   0  0  0  0  0  0
   18.6705   12.4499  -12.9275 H   0  0  0  0  0  0
   19.6446   12.1434  -11.4497 H   0  0  0  0  0  0
   18.6006    7.5718  -12.3336 H   0  0  0  0  0  0
   15.9286    6.4723  -13.1809 H   0  0  0  0  0  0
   16.9437    4.3293  -13.2578 H   0  0  0  0  0  0
   17.6028    5.9979  -15.0711 H   0  0  0  0  0  0
   18.8804    4.7614  -14.8150 H   0  0  0  0  0  0
   19.0708    6.4069  -14.1201 H   0  0  0  0  0  0
   18.2674    4.2899  -11.2089 H   0  0  0  0  0  0
   19.4478    5.4374  -11.9278 H   0  0  0  0  0  0
   19.2573    3.7919  -12.6228 H   0  0  0  0  0  0
   18.1011    5.9120  -10.2898 H   0  0  0  0  0  0
   15.6211    4.8030   -9.0124 H   0  0  0  0  0  0
   17.2118    4.2928   -7.0630 H   0  0  0  0  0  0
   17.7097    3.5729   -8.6317 H   0  0  0  0  0  0
  1  2  1  0  0  0
  1 72  1  0  0  0
  1 73  1  0  0  0
  1 74  1  0  0  0
  2  3  1  0  0  0
  2  5  1  0  0  0
  2 75  1  0  0  0
  3  4  2  0  0  0
  3  6  1  0  0  0
  5 76  1  0  0  0
  5 77  1  0  0  0
  5 78  1  0  0  0
  6  7  1  0  0  0
  6 79  1  0  0  0
  7  8  1  0  0  0
  7 10  1  0  0  0
  7 80  1  0  0  0
  8  9  2  0  0  0
  8 14  1  0  0  0
 10 11  1  0  0  0
 10 81  1  0  0  0
 10 82  1  0  0  0
 11 12  2  0  0  0
 11 13  1  0  0  0
 14 15  1  0  0  0
 14 83  1  0  0  0
 15 16  1  0  0  0
 15 18  1  0  0  0
 15 84  1  0  0  0
 16 17  2  0  0  0
 16 21  1  0  0  0
 18 19  1  0  0  0
 18 20  1  0  0  0
 18 85  1  0  0  0
 19 86  1  0  0  0
 20 87  1  0  0  0
 20 88  1  0  0  0
 20 89  1  0  0  0
 21 22  1  0  0  0
 21 90  1  0  0  0
 22 23  1  0  0  0
 22 25  1  0  0  0
 22 91  1  0  0  0
 23 24  2  0  0  0
 23 30  1  0  0  0
 25 26  1  0  0  0
 25 92  1  0  0  0
 25 93  1  0  0  0
 26 27  1  0  0  0
 26 94  1  0  0  0
 26 95  1  0  0  0
 27 28  1  0  0  0
 27 29  2  0  0  0
 30 31  1  0  0  0
 30 96  1  0  0  0
 31 32  1  0  0  0
 31 34  1  0  0  0
 31 97  1  0  0  0
 32 33  2  0  0  0
 32 38  1  0  0  0
 34 35  1  0  0  0
 34 98  1  0  0  0
 34 99  1  0  0  0
 35 36  1  0  0  0
 35100  1  0  0  0
 35101  1  0  0  0
 36 37  1  0  0  0
 37102  1  0  0  0
 37103  1  0  0  0
 37104  1  0  0  0
 38 39  1  0  0  0
 38105  1  0  0  0
 39 40  1  0  0  0
 39 42  1  0  0  0
 39106  1  0  0  0
 40 41  2  0  0  0
 40 47  1  0  0  0
 42 43  1  0  0  0
 42107  1  0  0  0
 42108  1  0  0  0
 43 44  1  0  0  0
 43109  1  0  0  0
 43110  1  0  0  0
 44 45  2  0  0  0
 44 46  1  0  0  0
 47 48  1  0  0  0
 47111  1  0  0  0
 48 49  1  0  0  0
 48 51  1  0  0  0
 48112  1  0  0  0
 49 50  2  0  0  0
 49 56  1  0  0  0
 51 52  1  0  0  0
 51113  1  0  0  0
 51114  1  0  0  0
 52 53  1  0  0  0
 52115  1  0  0  0
 52116  1  0  0  0
 53 54  1  0  0  0
 53 55  2  0  0  0
 56 57  1  0  0  0
 56117  1  0  0  0
 57 58  1  0  0  0
 57 60  1  0  0  0
 57118  1  0  0  0
 58 59  2  0  0  0
 58 63  1  0  0  0
 60 61  1  0  0  0
 60 62  1  0  0  0
 60119  1  0  0  0
 61120  1  0  0  0
 61121  1  0  0  0
 61122  1  0  0  0
 62123  1  0  0  0
 62124  1  0  0  0
 62125  1  0  0  0
 63 64  1  0  0  0
 63126  1  0  0  0
 64 65  1  0  0  0
 64 67  1  0  0  0
 64127  1  0  0  0
 65 66  2  0  0  0
 65 71  1  0  0  0
 67 68  1  0  0  0
 67128  1  0  0  0
 67129  1  0  0  0
 68 69  2  0  0  0
 68 70  1  0  0  0
M  CHG  7   1   1  13  -1  28  -1  46  -1  54  -1  70  -1  71  -1
M  END
> <s_m_source_file>
../2lsv_ligand.sdf

> <i_m_source_file_index>
1

> <s_epik_input>
W05IMytdW0NAQEhdKFtDSDNdKUMoPU8pW05IXVtDQEBIXShbQ0gyXUMoPU8pW09IXSlDKD1PKVtOSF1bQ0BASF0oW0NASF0oW09IXSlbQ0gzXSlDKD1PKVtOSF1bQ0BASF0oW0NIMl1bQ0gyXUMoPU8pW09IXSlDKD1PKVtOSF1bQ0BASF0oW0NIMl1bQ0gyXVNbQ0gzXSlDKD1PKVtOSF1bQ0BASF0oW0NIMl1bQ0gyXUMoPU8pW09IXSlDKD1PKVtOSF1bQ0BASF0oW0NIMl1bQ0gyXUMoPU8pW09IXSlDKD1PKVtOSF1bQ0BASF0oW0NIXShbQ0gzXSlbQ0gzXSlDKD1PKVtOSF1bQ0BIXShDKD1PKVtPSF0pW0NIMl1DKD1PKVtPSF0=

> <s_epik_cmdline>
J2VwaWtfYXBwJywgJy1pbWFlJywgJ2xpZ2FuZF9wcm8ubWFlJywgJy1vbWFlJywgJ2xpZ2FuZF9wcmVwLm1hZScsICctbXMnLCAnMScsICctcGgnLCAnNycsICctcGh0JywgJzAuNScsICctbnQn

> <r_lp_tautomer_probability>
1

> <r_epik_Ionization_Penalty>
  0.1304

> <r_epik_Ionization_Penalty_Charging>
  0.1304

> <r_epik_Ionization_Penalty_Neutral>
  0.0000

> <r_epik_State_Penalty>
 -0.0000

> <r_epik_Charging_Adjusted_Penalty>
0.130441797845268

> <i_epik_Tot_Q>
-5

> <i_epik_Tot_abs_Q>
7

$$$$
