2ltv_ligand
                    3D
 Schrodinger Suite 2020-3.
191197  0  0  1  0            999 V2000
   -8.2160    8.5200   -6.1740 N   0  3  0  0  0  0
   -8.9480    7.9740   -5.0120 C   0  0  2  0  0  0
   -8.0440    7.9170   -3.7860 C   0  0  0  0  0  0
   -6.8490    7.6660   -3.9100 O   0  0  0  0  0  0
   -9.4310    6.5620   -5.3390 C   0  0  0  0  0  0
  -10.1770    6.5370   -6.5460 O   0  0  0  0  0  0
   -8.5950    8.1600   -2.5890 N   0  0  0  0  0  0
   -7.8880    7.8840   -1.3380 C   0  0  2  0  0  0
   -7.7650    6.3740   -1.1270 C   0  0  0  0  0  0
   -8.7090    5.6300   -1.4130 O   0  0  0  0  0  0
   -8.7850    8.5180   -0.2700 C   0  0  0  0  0  0
  -10.1440    8.5550   -0.8790 C   0  0  0  0  0  0
   -9.9340    8.7330   -2.3570 C   0  0  0  0  0  0
   -6.6150    5.8910   -0.6320 N   0  0  0  0  0  0
   -6.3700    4.4600   -0.4890 C   0  0  2  0  0  0
   -7.2290    3.8450    0.6100 C   0  0  0  0  0  0
   -7.3490    4.4060    1.7030 O   0  0  0  0  0  0
   -4.8790    4.3700   -0.1350 C   0  0  0  0  0  0
   -4.3290    5.7420   -0.3440 C   0  0  0  0  0  0
   -5.4790    6.6820   -0.1490 C   0  0  0  0  0  0
   -7.8380    2.6850    0.3170 N   0  0  0  0  0  0
   -8.7110    1.9560    1.2480 C   0  0  2  0  0  0
   -8.0830    1.7620    2.6240 C   0  0  0  0  0  0
   -6.8620    1.6110    2.7450 O   0  0  0  0  0  0
   -8.9110    0.5920    0.5650 C   0  0  0  0  0  0
   -7.9220    0.5550   -0.5510 C   0  0  0  0  0  0
   -7.7340    1.9800   -0.9620 C   0  0  0  0  0  0
   -8.9210    1.7560    3.6750 N   0  0  0  0  0  0
   -8.4710    1.5440    5.0520 C   0  0  2  0  0  0
   -7.5850    0.3110    5.1890 C   0  0  0  0  0  0
   -7.9670   -0.7910    4.8000 O   0  0  0  0  0  0
   -9.7750    1.3540    5.8270 C   0  0  0  0  0  0
  -10.7910    2.1020    5.0360 C   0  0  0  0  0  0
  -10.3820    1.9530    3.5990 C   0  0  0  0  0  0
   -6.4110    0.5210    5.7650 N   0  0  0  0  0  0
   -5.4070   -0.5250    5.9490 C   0  0  2  0  0  0
   -5.9180   -1.6690    6.8430 C   0  0  0  0  0  0
   -5.2900   -2.7250    6.9400 O   0  0  0  0  0  0
   -4.1230    0.1270    6.4980 C   0  0  0  0  0  0
   -3.2660   -0.7440    7.3890 C   0  0  0  0  0  0
   -2.4740   -1.7600    6.8710 C   0  0  0  0  0  0
   -3.2440   -0.5300    8.7570 C   0  0  0  0  0  0
   -1.6880   -2.5390    7.6970 C   0  0  0  0  0  0
   -2.4640   -1.3010    9.5890 C   0  0  0  0  0  0
   -1.6870   -2.3050    9.0570 C   0  0  0  0  0  0
   -0.9050   -3.0760    9.8860 O   0  0  0  0  0  0
   -7.0720   -1.4640    7.4700 N   0  0  0  0  0  0
   -7.6370   -2.4490    8.3820 C   0  0  2  0  0  0
   -7.8940   -3.7860    7.6750 C   0  0  0  0  0  0
   -7.7240   -4.8550    8.2700 O   0  0  0  0  0  0
   -8.9400   -1.9140    8.9740 C   0  0  0  0  0  0
   -8.8070   -0.5480    9.3380 O   0  0  0  0  0  0
   -8.3440   -3.7310    6.4230 N   0  0  0  0  0  0
   -8.5030   -4.9430    5.6330 C   0  0  2  0  0  0
   -8.3100   -4.6610    4.1480 C   0  0  0  0  0  0
   -8.3430   -3.5130    3.7130 O   0  0  0  0  0  0
   -9.8530   -5.6130    5.8630 C   0  0  0  0  0  0
   -9.7820   -7.1030    5.5820 C   0  0  0  0  0  0
   -9.2270   -7.8630    6.7740 C   0  0  0  0  0  0
  -10.2690   -8.2000    7.7370 N   0  0  0  0  0  0
  -10.3220   -7.7380    8.9860 C   0  0  0  0  0  0
   -9.4230   -6.8610    9.4240 N   0  0  0  0  0  0
  -11.2870   -8.1530    9.7940 N   0  0  0  0  0  0
   -8.1300   -5.7270    3.3770 N   0  0  0  0  0  0
   -7.8290   -5.6210    1.9580 C   0  0  2  0  0  0
   -9.1230   -5.6010    1.1520 C   0  0  0  0  0  0
   -9.9720   -6.4830    1.3070 O   0  0  0  0  0  0
   -6.9720   -6.8140    1.4940 C   0  0  0  0  0  0
   -5.7260   -7.0920    2.3230 C   0  0  0  0  0  0
   -5.4870   -6.4360    3.5210 C   0  0  0  0  0  0
   -4.8060   -8.0490    1.9140 C   0  0  0  0  0  0
   -4.3840   -6.7150    4.2860 C   0  0  0  0  0  0
   -3.6870   -8.3310    2.6730 C   0  0  0  0  0  0
   -3.4820   -7.6630    3.8610 C   0  0  0  0  0  0
   -2.3760   -7.9500    4.6300 O   0  0  0  0  0  0
   -9.2930   -4.5910    0.2900 N   0  0  0  0  0  0
  -10.4450   -4.5060   -0.6090 C   0  0  2  0  0  0
  -10.4660   -5.6600   -1.6090 C   0  0  0  0  0  0
   -9.4480   -5.9900   -2.2180 O   0  0  0  0  0  0
  -10.2430   -3.1690   -1.3340 C   0  0  0  0  0  0
   -8.7910   -2.8670   -1.1930 C   0  0  0  0  0  0
   -8.3770   -3.4510    0.1260 C   0  0  0  0  0  0
  -11.6280   -6.2750   -1.7710 N   0  0  0  0  0  0
  -11.7740   -7.3900   -2.6980 C   0  0  2  0  0  0
  -12.3140   -6.8870   -4.0360 C   0  0  0  0  0  0
  -12.6410   -7.6670   -4.9340 O   0  0  0  0  0  0
  -12.7080   -8.4460   -2.1000 C   0  0  0  0  0  0
  -12.5930   -9.8080   -2.7650 C   0  0  0  0  0  0
  -10.9270  -10.4960   -2.6480 S   0  0  0  0  0  0
  -10.7180  -10.6000   -0.8690 C   0  0  0  0  0  0
  -12.3820   -5.5710   -4.1610 N   0  0  0  0  0  0
  -12.8880   -4.9320   -5.3650 C   0  0  2  0  0  0
  -11.9850   -3.7790   -5.7710 C   0  0  0  0  0  0
  -10.8130   -4.0350   -6.1090 O   0  0  0  0  0  0
  -14.3150   -4.4180   -5.1440 C   0  0  0  0  0  0
  -15.3460   -5.5200   -5.1900 C   0  0  0  0  0  0
  -15.7590   -5.8990   -6.3090 O   0  0  0  0  0  0
  -15.7550   -6.0120   -4.1130 O   0  0  0  0  0  0
  -12.4570   -2.6270   -5.7680 O   0  0  0  0  0  0
   -7.8665    9.5369   -5.9423 H   0  0  0  0  0  0
   -8.8849    8.5521   -7.0466 H   0  0  0  0  0  0
   -7.3518    7.8774   -6.3979 H   0  0  0  0  0  0
   -9.7934    8.6508   -4.8192 H   0  0  0  0  0  0
   -8.5638    5.8945   -5.4505 H   0  0  0  0  0  0
  -10.0729    6.1961   -4.5241 H   0  0  0  0  0  0
  -10.5935    5.5884   -6.9156 H   0  0  0  0  0  0
   -6.8686    8.2970   -1.3573 H   0  0  0  0  0  0
   -8.7648    7.9000    0.6398 H   0  0  0  0  0  0
   -8.4180    9.5281   -0.0353 H   0  0  0  0  0  0
  -10.6680    7.6121   -0.6637 H   0  0  0  0  0  0
  -10.7129    9.3957   -0.4553 H   0  0  0  0  0  0
   -9.9362    9.7920   -2.6546 H   0  0  0  0  0  0
  -10.6766    8.1829   -2.9536 H   0  0  0  0  0  0
   -6.6452    3.9437   -1.4205 H   0  0  0  0  0  0
   -4.7694    4.0509    0.9120 H   0  0  0  0  0  0
   -4.3891    3.6385   -0.7945 H   0  0  0  0  0  0
   -3.5312    5.9327    0.3888 H   0  0  0  0  0  0
   -3.9188    5.8216   -1.3616 H   0  0  0  0  0  0
   -5.3891    7.5992   -0.7496 H   0  0  0  0  0  0
   -5.6401    6.9488    0.9059 H   0  0  0  0  0  0
   -9.6278    2.5402    1.4157 H   0  0  0  0  0  0
   -8.7262   -0.2126    1.2919 H   0  0  0  0  0  0
   -9.9424    0.5175    0.1899 H   0  0  0  0  0  0
   -6.9812    0.1119   -0.1926 H   0  0  0  0  0  0
   -8.3226   -0.0525   -1.3759 H   0  0  0  0  0  0
   -8.5199    2.3384   -1.6432 H   0  0  0  0  0  0
   -6.7469    2.1724   -1.4076 H   0  0  0  0  0  0
   -7.8593    2.3975    5.3797 H   0  0  0  0  0  0
  -10.0116    0.2816    5.8892 H   0  0  0  0  0  0
   -9.6617    1.7639    6.8415 H   0  0  0  0  0  0
  -11.7862    1.6688    5.2145 H   0  0  0  0  0  0
  -10.7903    3.1581    5.3435 H   0  0  0  0  0  0
  -10.6002    2.8535    3.0062 H   0  0  0  0  0  0
  -10.8456    1.0778    3.1204 H   0  0  0  0  0  0
   -6.2088    1.5448    6.1129 H   0  0  0  0  0  0
   -5.2248   -0.9619    4.9561 H   0  0  0  0  0  0
   -3.4797    0.4326    5.6597 H   0  0  0  0  0  0
   -4.3878    1.0102    7.0978 H   0  0  0  0  0  0
   -2.4726   -1.9454    5.7969 H   0  0  0  0  0  0
   -3.8563    0.2646    9.1834 H   0  0  0  0  0  0
   -1.0719   -3.3342    7.2772 H   0  0  0  0  0  0
   -2.4617   -1.1174   10.6634 H   0  0  0  0  0  0
   -0.2827   -3.8793    9.4647 H   0  0  0  0  0  0
   -7.6027   -0.5186    7.2839 H   0  0  0  0  0  0
   -6.8778   -2.5886    9.1656 H   0  0  0  0  0  0
   -9.7453   -2.0053    8.2303 H   0  0  0  0  0  0
   -9.2013   -2.4953    9.8705 H   0  0  0  0  0  0
   -9.6590   -0.0114    9.7809 H   0  0  0  0  0  0
   -8.5968   -2.7532    5.9871 H   0  0  0  0  0  0
   -7.7047   -5.6021    6.0049 H   0  0  0  0  0  0
  -10.1609   -5.4677    6.9090 H   0  0  0  0  0  0
  -10.6031   -5.1655    5.1944 H   0  0  0  0  0  0
  -10.7907   -7.4833    5.3631 H   0  0  0  0  0  0
   -9.1269   -7.2822    4.7167 H   0  0  0  0  0  0
   -8.7619   -8.7980    6.4284 H   0  0  0  0  0  0
   -8.4732   -7.2452    7.2841 H   0  0  0  0  0  0
  -11.0847   -8.8796    7.4494 H   0  0  0  0  0  0
   -8.6210   -6.5150    8.7553 H   0  0  0  0  0  0
   -9.4815   -6.4818   10.4549 H   0  0  0  0  0  0
  -12.0317   -8.8782    9.4342 H   0  0  0  0  0  0
   -8.2160   -6.7171    3.8485 H   0  0  0  0  0  0
   -7.2820   -4.6730    1.8476 H   0  0  0  0  0  0
   -7.5754   -7.7332    1.5257 H   0  0  0  0  0  0
   -6.6254   -6.6382    0.4649 H   0  0  0  0  0  0
   -6.1936   -5.6798    3.8630 H   0  0  0  0  0  0
   -4.9697   -8.5858    0.9796 H   0  0  0  0  0  0
   -4.2224   -6.1882    5.2265 H   0  0  0  0  0  0
   -2.9695   -9.0783    2.3341 H   0  0  0  0  0  0
   -2.2121   -7.4171    5.5782 H   0  0  0  0  0  0
  -11.3782   -4.5746   -0.0307 H   0  0  0  0  0  0
  -10.5339   -3.2766   -2.3894 H   0  0  0  0  0  0
  -10.8656   -2.3965   -0.8589 H   0  0  0  0  0  0
   -8.2381   -3.3285   -2.0245 H   0  0  0  0  0  0
   -8.6395   -1.7776   -1.2118 H   0  0  0  0  0  0
   -8.5144   -2.7473    0.9602 H   0  0  0  0  0  0
   -7.3384   -3.8132    0.1192 H   0  0  0  0  0  0
  -12.4936   -5.9276   -1.1879 H   0  0  0  0  0  0
  -10.7694   -7.8151   -2.8395 H   0  0  0  0  0  0
  -12.4740   -8.5808   -1.0336 H   0  0  0  0  0  0
  -13.7517   -8.1155   -2.2075 H   0  0  0  0  0  0
  -13.2851  -10.5123   -2.2803 H   0  0  0  0  0  0
  -12.8483   -9.7182   -3.8312 H   0  0  0  0  0  0
   -9.7241  -11.0120   -0.6401 H   0  0  0  0  0  0
  -11.4932  -11.2562   -0.4465 H   0  0  0  0  0  0
  -10.8086   -9.5955   -0.4299 H   0  0  0  0  0  0
  -12.0396   -4.9571   -3.3149 H   0  0  0  0  0  0
  -12.8743   -5.7132   -6.1393 H   0  0  0  0  0  0
  -10.1364   -3.2208   -6.4078 H   0  0  0  0  0  0
  -14.3822   -3.9353   -4.1579 H   0  0  0  0  0  0
  -14.5673   -3.6882   -5.9274 H   0  0  0  0  0  0
  -16.5059   -6.8157   -4.1256 H   0  0  0  0  0  0
  1  2  1  0  0  0
  1100  1  0  0  0
  1101  1  0  0  0
  1102  1  0  0  0
  2  3  1  0  0  0
  2  5  1  0  0  0
  2103  1  0  0  0
  3  4  2  0  0  0
  3  7  1  0  0  0
  5  6  1  0  0  0
  5104  1  0  0  0
  5105  1  0  0  0
  6106  1  0  0  0
  7  8  1  0  0  0
  7 13  1  0  0  0
  8  9  1  0  0  0
  8 11  1  0  0  0
  8107  1  0  0  0
  9 10  2  0  0  0
  9 14  1  0  0  0
 11 12  1  0  0  0
 11108  1  0  0  0
 11109  1  0  0  0
 12 13  1  0  0  0
 12110  1  0  0  0
 12111  1  0  0  0
 13112  1  0  0  0
 13113  1  0  0  0
 14 15  1  0  0  0
 14 20  1  0  0  0
 15 16  1  0  0  0
 15 18  1  0  0  0
 15114  1  0  0  0
 16 17  2  0  0  0
 16 21  1  0  0  0
 18 19  1  0  0  0
 18115  1  0  0  0
 18116  1  0  0  0
 19 20  1  0  0  0
 19117  1  0  0  0
 19118  1  0  0  0
 20119  1  0  0  0
 20120  1  0  0  0
 21 22  1  0  0  0
 21 27  1  0  0  0
 22 23  1  0  0  0
 22 25  1  0  0  0
 22121  1  0  0  0
 23 24  2  0  0  0
 23 28  1  0  0  0
 25 26  1  0  0  0
 25122  1  0  0  0
 25123  1  0  0  0
 26 27  1  0  0  0
 26124  1  0  0  0
 26125  1  0  0  0
 27126  1  0  0  0
 27127  1  0  0  0
 28 29  1  0  0  0
 28 34  1  0  0  0
 29 30  1  0  0  0
 29 32  1  0  0  0
 29128  1  0  0  0
 30 31  2  0  0  0
 30 35  1  0  0  0
 32 33  1  0  0  0
 32129  1  0  0  0
 32130  1  0  0  0
 33 34  1  0  0  0
 33131  1  0  0  0
 33132  1  0  0  0
 34133  1  0  0  0
 34134  1  0  0  0
 35 36  1  0  0  0
 35135  1  0  0  0
 36 37  1  0  0  0
 36 39  1  0  0  0
 36136  1  0  0  0
 37 38  2  0  0  0
 37 47  1  0  0  0
 39 40  1  0  0  0
 39137  1  0  0  0
 39138  1  0  0  0
 40 41  2  0  0  0
 40 42  1  0  0  0
 41 43  1  0  0  0
 41139  1  0  0  0
 42 44  2  0  0  0
 42140  1  0  0  0
 43 45  2  0  0  0
 43141  1  0  0  0
 44 45  1  0  0  0
 44142  1  0  0  0
 45 46  1  0  0  0
 46143  1  0  0  0
 47 48  1  0  0  0
 47144  1  0  0  0
 48 49  1  0  0  0
 48 51  1  0  0  0
 48145  1  0  0  0
 49 50  2  0  0  0
 49 53  1  0  0  0
 51 52  1  0  0  0
 51146  1  0  0  0
 51147  1  0  0  0
 52148  1  0  0  0
 53 54  1  0  0  0
 53149  1  0  0  0
 54 55  1  0  0  0
 54 57  1  0  0  0
 54150  1  0  0  0
 55 56  2  0  0  0
 55 64  1  0  0  0
 57 58  1  0  0  0
 57151  1  0  0  0
 57152  1  0  0  0
 58 59  1  0  0  0
 58153  1  0  0  0
 58154  1  0  0  0
 59 60  1  0  0  0
 59155  1  0  0  0
 59156  1  0  0  0
 60 61  1  0  0  0
 60157  1  0  0  0
 61 62  1  0  0  0
 61 63  2  0  0  0
 62158  1  0  0  0
 62159  1  0  0  0
 63160  1  0  0  0
 64 65  1  0  0  0
 64161  1  0  0  0
 65 66  1  0  0  0
 65 68  1  0  0  0
 65162  1  0  0  0
 66 67  2  0  0  0
 66 76  1  0  0  0
 68 69  1  0  0  0
 68163  1  0  0  0
 68164  1  0  0  0
 69 70  2  0  0  0
 69 71  1  0  0  0
 70 72  1  0  0  0
 70165  1  0  0  0
 71 73  2  0  0  0
 71166  1  0  0  0
 72 74  2  0  0  0
 72167  1  0  0  0
 73 74  1  0  0  0
 73168  1  0  0  0
 74 75  1  0  0  0
 75169  1  0  0  0
 76 77  1  0  0  0
 76 82  1  0  0  0
 77 78  1  0  0  0
 77 80  1  0  0  0
 77170  1  0  0  0
 78 79  2  0  0  0
 78 83  1  0  0  0
 80 81  1  0  0  0
 80171  1  0  0  0
 80172  1  0  0  0
 81 82  1  0  0  0
 81173  1  0  0  0
 81174  1  0  0  0
 82175  1  0  0  0
 82176  1  0  0  0
 83 84  1  0  0  0
 83177  1  0  0  0
 84 85  1  0  0  0
 84 87  1  0  0  0
 84178  1  0  0  0
 85 86  2  0  0  0
 85 91  1  0  0  0
 87 88  1  0  0  0
 87179  1  0  0  0
 87180  1  0  0  0
 88 89  1  0  0  0
 88181  1  0  0  0
 88182  1  0  0  0
 89 90  1  0  0  0
 90183  1  0  0  0
 90184  1  0  0  0
 90185  1  0  0  0
 91 92  1  0  0  0
 91186  1  0  0  0
 92 93  1  0  0  0
 92 95  1  0  0  0
 92187  1  0  0  0
 93 94  1  0  0  0
 93 99  2  0  0  0
 94188  1  0  0  0
 95 96  1  0  0  0
 95189  1  0  0  0
 95190  1  0  0  0
 96 97  2  0  0  0
 96 98  1  0  0  0
 98191  1  0  0  0
M  CHG  1   1   1
M  END
> <s_m_source_file>
../2ltv_ligand.sdf

> <i_m_source_file_index>
1

> <s_epik_input>
W09IXVtDSDJdW0NASF0oW05IMytdKUMoPU8pTjFbQ0BASF0oW0NIMl1bQ0gyXVtDSDJdMSlDKD1PKU4yW0NAQEhdKFtDSDJdW0NIMl1bQ0gyXTIpQyg9TylOM1tDQEBIXShbQ0gyXVtDSDJdW0NIMl0zKUMoPU8pTjRbQ0BASF0oW0NIMl1bQ0gyXVtDSDJdNClDKD1PKVtOSF1bQ0BASF0oW0NIMl1jNVtjSF1bY0hdYyhbT0hdKVtjSF1bY0hdNSlDKD1PKVtOSF1bQ0BASF0oW0NIMl1bT0hdKUMoPU8pW05IXVtDQEBIXShbQ0gyXVtDSDJdW0NIMl1bTkhdL0MoW05IMl0pPU5cW0hdKUMoPU8pW05IXVtDQEBIXShbQ0gyXWM2W2NIXVtjSF1jKFtPSF0pW2NIXVtjSF02KUMoPU8pTjdbQ0BASF0oW0NIMl1bQ0gyXVtDSDJdNylDKD1PKVtOSF1bQ0BASF0oW0NIMl1bQ0gyXVNbQ0gzXSlDKD1PKVtOSF1bQ0BIXShDKD1PKVtPSF0pW0NIMl1DKD1PKVtPSF0=

> <s_epik_cmdline>
J2VwaWtfYXBwJywgJy1pbWFlJywgJ2xpZ2FuZF9wcm8ubWFlJywgJy1vbWFlJywgJ2xpZ2FuZF9wcmVwLm1hZScsICctbXMnLCAnMScsICctcGgnLCAnNycsICctcGh0JywgJzAuNScsICctbnQn

> <s_epik_pKa_notes>
Molecule size exceeds maximum supported for generating protonation states

> <s_epik_Chemistry_Notes>
This compound has an imine and may undergo hydrolysis.

$$$$
