2ltw_ligand
                    3D
 Schrodinger Suite 2020-3.
214220  0  0  1  0            999 V2000
   -2.1770  -15.8380   -3.5890 N   0  3  0  0  0  0
   -3.6250  -15.6570   -3.8330 C   0  0  0  0  0  0
   -4.2230  -14.6290   -2.9030 C   0  0  0  0  0  0
   -4.7550  -14.9690   -1.8450 O   0  0  0  0  0  0
   -4.1370  -13.3680   -3.2980 N   0  0  0  0  0  0
   -4.6030  -12.2750   -2.4630 C   0  0  2  0  0  0
   -6.0300  -11.9200   -2.8490 C   0  0  0  0  0  0
   -6.4250  -12.0730   -4.0080 O   0  0  0  0  0  0
   -3.7240  -11.0260   -2.6280 C   0  0  0  0  0  0
   -2.2270  -11.2830   -2.8030 C   0  0  0  0  0  0
   -1.6460  -12.2780   -1.8190 C   0  0  0  0  0  0
   -1.3350  -11.8880   -0.6760 O   0  0  0  0  0  0
   -1.4560  -13.4530   -2.2040 O   0  0  0  0  0  0
   -6.7910  -11.4330   -1.8870 N   0  0  0  0  0  0
   -8.1220  -10.9200   -2.1530 C   0  0  2  0  0  0
   -8.0010   -9.4360   -2.4740 C   0  0  0  0  0  0
   -7.1250   -8.7750   -1.9300 O   0  0  0  0  0  0
   -9.0110  -11.1380   -0.9230 C   0  0  0  0  0  0
   -9.0600  -12.5130   -0.5720 O   0  0  0  0  0  0
   -8.8870   -8.8880   -3.3300 N   0  0  0  0  0  0
   -8.7470   -7.5230   -3.8640 C   0  0  2  0  0  0
   -8.4590   -6.5000   -2.7700 C   0  0  0  0  0  0
   -9.1240   -6.4850   -1.7310 O   0  0  0  0  0  0
  -10.1120   -7.2400   -4.5110 C   0  0  0  0  0  0
  -11.0000   -8.3720   -4.1060 C   0  0  0  0  0  0
  -10.0960   -9.5380   -3.8390 C   0  0  0  0  0  0
   -7.4870   -5.6060   -3.0060 N   0  0  0  0  0  0
   -6.9160   -4.7300   -2.0060 C   0  0  2  0  0  0
   -7.6580   -3.3840   -1.9970 C   0  0  0  0  0  0
   -8.6140   -3.1950   -2.7610 O   0  0  0  0  0  0
   -5.4440   -4.5950   -2.5160 C   0  0  0  0  0  0
   -5.4450   -5.2320   -3.8770 C   0  0  0  0  0  0
   -6.8770   -5.2390   -4.2700 C   0  0  0  0  0  0
   -7.2520   -2.4470   -1.1290 N   0  0  0  0  0  0
   -7.8710   -1.1150   -1.0150 C   0  0  2  0  0  0
   -8.0500   -0.4060   -2.3550 C   0  0  0  0  0  0
   -7.1700   -0.4580   -3.2190 O   0  0  0  0  0  0
   -6.8520   -0.3230   -0.1870 C   0  0  0  0  0  0
   -5.6460   -1.1890   -0.0990 C   0  0  0  0  0  0
   -6.1530   -2.5890   -0.1810 C   0  0  0  0  0  0
   -9.1880    0.2760   -2.5340 N   0  0  0  0  0  0
   -9.4000    1.1690   -3.6680 C   0  0  2  0  0  0
   -8.4800    2.3830   -3.5700 C   0  0  0  0  0  0
   -8.3250    2.9660   -2.4950 O   0  0  0  0  0  0
  -10.8700    1.5960   -3.5380 C   0  0  0  0  0  0
  -11.4760    0.6480   -2.5590 C   0  0  0  0  0  0
  -10.3590    0.2280   -1.6500 C   0  0  0  0  0  0
   -7.8970    2.7720   -4.6910 N   0  0  0  0  0  0
   -6.9100    3.8450   -4.7200 C   0  0  2  0  0  0
   -7.5150    5.2220   -4.4010 C   0  0  0  0  0  0
   -6.7780    6.1740   -4.1580 O   0  0  0  0  0  0
   -6.1630    3.8880   -6.0710 C   0  0  0  0  0  0
   -5.2100    5.0620   -6.1730 C   0  0  0  0  0  0
   -3.9410    4.9850   -5.6280 C   0  0  0  0  0  0
   -5.6000    6.2620   -6.7610 C   0  0  0  0  0  0
   -3.0850    6.0620   -5.6590 C   0  0  0  0  0  0
   -4.7430    7.3460   -6.8040 C   0  0  0  0  0  0
   -3.4880    7.2410   -6.2470 C   0  0  0  0  0  0
   -2.6310    8.3150   -6.2790 O   0  0  0  0  0  0
   -8.8410    5.3260   -4.3350 N   0  0  0  0  0  0
   -9.5020    6.6160   -4.5060 C   0  0  2  0  0  0
   -9.0240    7.6330   -3.4660 C   0  0  0  0  0  0
   -8.3510    8.5990   -3.8400 O   0  0  0  0  0  0
  -11.0200    6.4430   -4.4340 C   0  0  0  0  0  0
  -11.6950    7.5460   -5.0190 O   0  0  0  0  0  0
   -9.3480    7.4780   -2.1860 N   0  0  0  0  0  0
   -8.6870    8.3280   -1.2010 C   0  0  2  0  0  0
   -7.9070    7.5290   -0.1620 C   0  0  0  0  0  0
   -6.6780    7.5070   -0.1830 O   0  0  0  0  0  0
   -9.7060    9.2280   -0.4960 C   0  0  0  0  0  0
  -10.2640   10.3300   -1.3800 C   0  0  0  0  0  0
   -9.1660   11.2600   -1.8730 C   0  0  0  0  0  0
   -9.6850   12.2870   -2.7710 N   0  0  0  0  0  0
   -8.9220   13.1250   -3.4700 C   0  0  0  0  0  0
   -7.6010   13.1060   -3.3420 N   0  0  0  0  0  0
   -9.4870   13.9990   -4.2890 N   0  0  0  0  0  0
   -8.6250    6.8500    0.7280 N   0  0  0  0  0  0
   -7.9930    6.0670    1.7860 C   0  0  2  0  0  0
   -8.3950    4.5980    1.7100 C   0  0  0  0  0  0
   -9.5590    4.2910    1.4610 O   0  0  0  0  0  0
   -8.2990    6.6790    3.1610 C   0  0  0  0  0  0
   -7.3960    7.8550    3.4940 C   0  0  0  0  0  0
   -7.1930    8.8810    2.5790 C   0  0  0  0  0  0
   -6.7300    7.9310    4.7120 C   0  0  0  0  0  0
   -6.3580    9.9420    2.8590 C   0  0  0  0  0  0
   -5.8930    8.9960    5.0050 C   0  0  0  0  0  0
   -5.7110    9.9980    4.0710 C   0  0  0  0  0  0
   -4.8810   11.0640    4.3490 O   0  0  0  0  0  0
   -7.4450    3.6830    1.9580 N   0  0  0  0  0  0
   -7.7000    2.2370    1.9260 C   0  0  2  0  0  0
   -8.7430    1.7900    2.9480 C   0  0  0  0  0  0
   -9.8340    1.3540    2.5860 O   0  0  0  0  0  0
   -6.3350    1.6210    2.2550 C   0  0  0  0  0  0
   -5.3500    2.6900    1.9530 C   0  0  0  0  0  0
   -6.0400    3.9810    2.2700 C   0  0  0  0  0  0
   -8.4060    1.9150    4.2200 N   0  0  0  0  0  0
   -9.3000    1.4980    5.2880 C   0  0  2  0  0  0
   -9.5230    2.6610    6.2450 C   0  0  0  0  0  0
   -8.6350    3.4940    6.4280 O   0  0  0  0  0  0
   -8.7000    0.3030    6.0350 C   0  0  0  0  0  0
   -9.7280   -0.5190    6.7940 C   0  0  0  0  0  0
  -10.9010   -1.3360    5.6930 S   0  0  0  0  0  0
  -11.9790   -2.1400    6.8740 C   0  0  0  0  0  0
  -10.6910    2.7050    6.8700 N   0  0  0  0  0  0
  -11.0500    3.8220    7.7290 C   0  0  2  0  0  0
  -10.6100    3.5670    9.1650 C   0  0  0  0  0  0
   -9.7480    4.3230    9.6570 O   0  0  0  0  0  0
  -12.5580    4.1120    7.6550 C   0  0  0  0  0  0
  -13.4330    2.9860    8.1710 C   0  0  0  0  0  0
  -13.3510    1.8600    7.6350 O   0  0  0  0  0  0
  -14.2330    3.2370    9.1020 O   0  0  0  0  0  0
  -11.0900    2.5970    9.7890 O   0  0  0  0  0  0
   -1.7796  -16.5923   -4.2840 H   0  0  0  0  0  0
   -2.0188  -16.1739   -2.5536 H   0  0  0  0  0  0
   -1.6561  -14.8823   -3.7481 H   0  0  0  0  0  0
   -3.7832  -15.3211   -4.8684 H   0  0  0  0  0  0
   -4.1459  -16.6127   -3.6740 H   0  0  0  0  0  0
   -3.6996  -13.1581   -4.2852 H   0  0  0  0  0  0
   -4.5420  -12.6549   -1.4325 H   0  0  0  0  0  0
   -4.0455  -10.4665   -3.5188 H   0  0  0  0  0  0
   -3.8237  -10.3872   -1.7380 H   0  0  0  0  0  0
   -2.0386  -11.6802   -3.8113 H   0  0  0  0  0  0
   -1.6753  -10.3405   -2.6712 H   0  0  0  0  0  0
   -1.0355  -14.1974   -1.5118 H   0  0  0  0  0  0
   -6.3922  -11.4224   -0.8619 H   0  0  0  0  0  0
   -8.5335  -11.4704   -3.0119 H   0  0  0  0  0  0
   -8.6061  -10.5697   -0.0726 H   0  0  0  0  0  0
  -10.0319  -10.7920   -1.1424 H   0  0  0  0  0  0
   -9.6575  -12.8391    0.2921 H   0  0  0  0  0  0
   -7.8912   -7.4815   -4.5538 H   0  0  0  0  0  0
  -10.4998   -6.2785   -4.1433 H   0  0  0  0  0  0
   -9.9974   -7.1952   -5.6041 H   0  0  0  0  0  0
  -11.5620   -8.0921   -3.2028 H   0  0  0  0  0  0
  -11.7039   -8.5956   -4.9212 H   0  0  0  0  0  0
   -9.8514  -10.1067   -4.7483 H   0  0  0  0  0  0
  -10.4941  -10.2218   -3.0748 H   0  0  0  0  0  0
   -7.0236   -5.1393   -0.9906 H   0  0  0  0  0  0
   -5.1693   -3.5310   -2.5656 H   0  0  0  0  0  0
   -4.7668   -5.1167   -1.8237 H   0  0  0  0  0  0
   -4.8300   -4.6314   -4.5634 H   0  0  0  0  0  0
   -5.0298   -6.2482   -3.8066 H   0  0  0  0  0  0
   -7.1270   -5.9934   -5.0305 H   0  0  0  0  0  0
   -7.2566   -4.2571   -4.5890 H   0  0  0  0  0  0
   -8.8762   -1.2314   -0.5837 H   0  0  0  0  0  0
   -6.6266    0.6268   -0.6940 H   0  0  0  0  0  0
   -7.2701   -0.1166    0.8093 H   0  0  0  0  0  0
   -4.9673   -0.9583   -0.9333 H   0  0  0  0  0  0
   -5.1305   -1.0039    0.8549 H   0  0  0  0  0  0
   -6.5411   -2.9673    0.7762 H   0  0  0  0  0  0
   -5.4122   -3.2966   -0.5817 H   0  0  0  0  0  0
   -9.1662    0.6516   -4.6101 H   0  0  0  0  0  0
  -10.9198    2.6335   -3.1758 H   0  0  0  0  0  0
  -11.3602    1.5266   -4.5203 H   0  0  0  0  0  0
  -12.2742    1.1585   -2.0002 H   0  0  0  0  0  0
  -11.8982   -0.2140   -3.0964 H   0  0  0  0  0  0
  -10.4859   -0.7945   -1.2648 H   0  0  0  0  0  0
  -10.2120    0.9212   -0.8086 H   0  0  0  0  0  0
   -8.1782    2.2580   -5.6220 H   0  0  0  0  0  0
   -6.2248    3.5636   -3.9067 H   0  0  0  0  0  0
   -5.5769    2.9655   -6.1954 H   0  0  0  0  0  0
   -6.8919    3.9726   -6.8905 H   0  0  0  0  0  0
   -3.6130    4.0541   -5.1655 H   0  0  0  0  0  0
   -6.5965    6.3483   -7.1942 H   0  0  0  0  0  0
   -2.0907    5.9825   -5.2195 H   0  0  0  0  0  0
   -5.0584    8.2769   -7.2753 H   0  0  0  0  0  0
   -1.6283    8.2320   -5.8343 H   0  0  0  0  0  0
   -9.4392    4.4219   -4.1486 H   0  0  0  0  0  0
   -9.2064    6.9639   -5.5068 H   0  0  0  0  0  0
  -11.3109    5.5296   -4.9735 H   0  0  0  0  0  0
  -11.3303    6.3619   -3.3818 H   0  0  0  0  0  0
  -12.7945    7.5677   -5.0437 H   0  0  0  0  0  0
  -10.0911    6.7350   -1.8610 H   0  0  0  0  0  0
   -7.9775    8.9184   -1.7993 H   0  0  0  0  0  0
  -10.5571    8.6206   -0.1543 H   0  0  0  0  0  0
   -9.2304    9.7125    0.3695 H   0  0  0  0  0  0
  -10.7597    9.8830   -2.2543 H   0  0  0  0  0  0
  -10.9928   10.9242   -0.8093 H   0  0  0  0  0  0
   -8.6955   11.7598   -1.0135 H   0  0  0  0  0  0
   -8.4087   10.6770   -2.4176 H   0  0  0  0  0  0
  -10.7707   12.4046   -2.9030 H   0  0  0  0  0  0
   -7.1245   12.3829   -2.6637 H   0  0  0  0  0  0
   -6.9827   13.8133   -3.9142 H   0  0  0  0  0  0
  -10.5811   14.0208   -4.4003 H   0  0  0  0  0  0
   -9.7217    6.8886    0.6527 H   0  0  0  0  0  0
   -6.9120    6.1267    1.5916 H   0  0  0  0  0  0
   -9.3389    7.0371    3.1797 H   0  0  0  0  0  0
   -8.1598    5.9161    3.9411 H   0  0  0  0  0  0
   -7.7057    8.8463    1.6177 H   0  0  0  0  0  0
   -6.8685    7.1397    5.4488 H   0  0  0  0  0  0
   -6.2115   10.7326    2.1230 H   0  0  0  0  0  0
   -5.3814    9.0430    5.9663 H   0  0  0  0  0  0
   -4.7388   11.8596    3.6028 H   0  0  0  0  0  0
   -8.1104    1.9646    0.9424 H   0  0  0  0  0  0
   -6.3092    1.3324    3.3161 H   0  0  0  0  0  0
   -6.1738    0.7310    1.6289 H   0  0  0  0  0  0
   -4.4554    2.5514    2.5779 H   0  0  0  0  0  0
   -5.0671    2.6387    0.8912 H   0  0  0  0  0  0
   -5.6933    4.8138    1.6405 H   0  0  0  0  0  0
   -5.9512    4.2611    3.3300 H   0  0  0  0  0  0
   -7.4234    2.3461    4.4621 H   0  0  0  0  0  0
  -10.2495    1.2104    4.8129 H   0  0  0  0  0  0
   -8.2080   -0.3691    5.3165 H   0  0  0  0  0  0
   -7.9612    0.6615    6.7669 H   0  0  0  0  0  0
   -9.2156   -1.2950    7.3816 H   0  0  0  0  0  0
  -10.2959    0.1374    7.4697 H   0  0  0  0  0  0
  -12.7645   -2.6919    6.3369 H   0  0  0  0  0  0
  -12.4419   -1.3821    7.5231 H   0  0  0  0  0  0
  -11.3932   -2.8401    7.4878 H   0  0  0  0  0  0
  -11.3954    1.8722    6.7275 H   0  0  0  0  0  0
  -10.4881    4.6795    7.3304 H   0  0  0  0  0  0
  -12.7900    5.0030    8.2569 H   0  0  0  0  0  0
  -12.8460    4.2912    6.6086 H   0  0  0  0  0  0
  -14.8817    2.4423    9.4990 H   0  0  0  0  0  0
  -10.7801    2.4026   10.8264 H   0  0  0  0  0  0
  1  2  1  0  0  0
  1113  1  0  0  0
  1114  1  0  0  0
  1115  1  0  0  0
  2  3  1  0  0  0
  2116  1  0  0  0
  2117  1  0  0  0
  3  4  2  0  0  0
  3  5  1  0  0  0
  5  6  1  0  0  0
  5118  1  0  0  0
  6  7  1  0  0  0
  6  9  1  0  0  0
  6119  1  0  0  0
  7  8  2  0  0  0
  7 14  1  0  0  0
  9 10  1  0  0  0
  9120  1  0  0  0
  9121  1  0  0  0
 10 11  1  0  0  0
 10122  1  0  0  0
 10123  1  0  0  0
 11 12  2  0  0  0
 11 13  1  0  0  0
 13124  1  0  0  0
 14 15  1  0  0  0
 14125  1  0  0  0
 15 16  1  0  0  0
 15 18  1  0  0  0
 15126  1  0  0  0
 16 17  2  0  0  0
 16 20  1  0  0  0
 18 19  1  0  0  0
 18127  1  0  0  0
 18128  1  0  0  0
 19129  1  0  0  0
 20 21  1  0  0  0
 20 26  1  0  0  0
 21 22  1  0  0  0
 21 24  1  0  0  0
 21130  1  0  0  0
 22 23  2  0  0  0
 22 27  1  0  0  0
 24 25  1  0  0  0
 24131  1  0  0  0
 24132  1  0  0  0
 25 26  1  0  0  0
 25133  1  0  0  0
 25134  1  0  0  0
 26135  1  0  0  0
 26136  1  0  0  0
 27 28  1  0  0  0
 27 33  1  0  0  0
 28 29  1  0  0  0
 28 31  1  0  0  0
 28137  1  0  0  0
 29 30  2  0  0  0
 29 34  1  0  0  0
 31 32  1  0  0  0
 31138  1  0  0  0
 31139  1  0  0  0
 32 33  1  0  0  0
 32140  1  0  0  0
 32141  1  0  0  0
 33142  1  0  0  0
 33143  1  0  0  0
 34 35  1  0  0  0
 34 40  1  0  0  0
 35 36  1  0  0  0
 35 38  1  0  0  0
 35144  1  0  0  0
 36 37  2  0  0  0
 36 41  1  0  0  0
 38 39  1  0  0  0
 38145  1  0  0  0
 38146  1  0  0  0
 39 40  1  0  0  0
 39147  1  0  0  0
 39148  1  0  0  0
 40149  1  0  0  0
 40150  1  0  0  0
 41 42  1  0  0  0
 41 47  1  0  0  0
 42 43  1  0  0  0
 42 45  1  0  0  0
 42151  1  0  0  0
 43 44  2  0  0  0
 43 48  1  0  0  0
 45 46  1  0  0  0
 45152  1  0  0  0
 45153  1  0  0  0
 46 47  1  0  0  0
 46154  1  0  0  0
 46155  1  0  0  0
 47156  1  0  0  0
 47157  1  0  0  0
 48 49  1  0  0  0
 48158  1  0  0  0
 49 50  1  0  0  0
 49 52  1  0  0  0
 49159  1  0  0  0
 50 51  2  0  0  0
 50 60  1  0  0  0
 52 53  1  0  0  0
 52160  1  0  0  0
 52161  1  0  0  0
 53 54  2  0  0  0
 53 55  1  0  0  0
 54 56  1  0  0  0
 54162  1  0  0  0
 55 57  2  0  0  0
 55163  1  0  0  0
 56 58  2  0  0  0
 56164  1  0  0  0
 57 58  1  0  0  0
 57165  1  0  0  0
 58 59  1  0  0  0
 59166  1  0  0  0
 60 61  1  0  0  0
 60167  1  0  0  0
 61 62  1  0  0  0
 61 64  1  0  0  0
 61168  1  0  0  0
 62 63  2  0  0  0
 62 66  1  0  0  0
 64 65  1  0  0  0
 64169  1  0  0  0
 64170  1  0  0  0
 65171  1  0  0  0
 66 67  1  0  0  0
 66172  1  0  0  0
 67 68  1  0  0  0
 67 70  1  0  0  0
 67173  1  0  0  0
 68 69  2  0  0  0
 68 77  1  0  0  0
 70 71  1  0  0  0
 70174  1  0  0  0
 70175  1  0  0  0
 71 72  1  0  0  0
 71176  1  0  0  0
 71177  1  0  0  0
 72 73  1  0  0  0
 72178  1  0  0  0
 72179  1  0  0  0
 73 74  1  0  0  0
 73180  1  0  0  0
 74 75  1  0  0  0
 74 76  2  0  0  0
 75181  1  0  0  0
 75182  1  0  0  0
 76183  1  0  0  0
 77 78  1  0  0  0
 77184  1  0  0  0
 78 79  1  0  0  0
 78 81  1  0  0  0
 78185  1  0  0  0
 79 80  2  0  0  0
 79 89  1  0  0  0
 81 82  1  0  0  0
 81186  1  0  0  0
 81187  1  0  0  0
 82 83  2  0  0  0
 82 84  1  0  0  0
 83 85  1  0  0  0
 83188  1  0  0  0
 84 86  2  0  0  0
 84189  1  0  0  0
 85 87  2  0  0  0
 85190  1  0  0  0
 86 87  1  0  0  0
 86191  1  0  0  0
 87 88  1  0  0  0
 88192  1  0  0  0
 89 90  1  0  0  0
 89 95  1  0  0  0
 90 91  1  0  0  0
 90 93  1  0  0  0
 90193  1  0  0  0
 91 92  2  0  0  0
 91 96  1  0  0  0
 93 94  1  0  0  0
 93194  1  0  0  0
 93195  1  0  0  0
 94 95  1  0  0  0
 94196  1  0  0  0
 94197  1  0  0  0
 95198  1  0  0  0
 95199  1  0  0  0
 96 97  1  0  0  0
 96200  1  0  0  0
 97 98  1  0  0  0
 97100  1  0  0  0
 97201  1  0  0  0
 98 99  2  0  0  0
 98104  1  0  0  0
100101  1  0  0  0
100202  1  0  0  0
100203  1  0  0  0
101102  1  0  0  0
101204  1  0  0  0
101205  1  0  0  0
102103  1  0  0  0
103206  1  0  0  0
103207  1  0  0  0
103208  1  0  0  0
104105  1  0  0  0
104209  1  0  0  0
105106  1  0  0  0
105108  1  0  0  0
105210  1  0  0  0
106107  2  0  0  0
106112  1  0  0  0
108109  1  0  0  0
108211  1  0  0  0
108212  1  0  0  0
109110  2  0  0  0
109111  1  0  0  0
111213  1  0  0  0
112214  1  0  0  0
M  CHG  1   1   1
M  END
> <s_m_source_file>
../2ltw_ligand.sdf

> <i_m_source_file_index>
1

> <s_epik_input>
W05IMytdW0NIMl1DKD1PKVtOSF1bQ0BASF0oW0NIMl1bQ0gyXUMoPU8pW09IXSlDKD1PKVtOSF1bQ0BASF0oW0NIMl1bT0hdKUMoPU8pTjFbQ0BASF0oW0NIMl1bQ0gyXVtDSDJdMSlDKD1PKU4yW0NAQEhdKFtDSDJdW0NIMl1bQ0gyXTIpQyg9TylOM1tDQEBIXShbQ0gyXVtDSDJdW0NIMl0zKUMoPU8pTjRbQ0BASF0oW0NIMl1bQ0gyXVtDSDJdNClDKD1PKVtOSF1bQ0BASF0oW0NIMl1jNVtjSF1bY0hdYyhbT0hdKVtjSF1bY0hdNSlDKD1PKVtOSF1bQ0BASF0oW0NIMl1bT0hdKUMoPU8pW05IXVtDQEBIXShbQ0gyXVtDSDJdW0NIMl1bTkhdL0MoW05IMl0pPU5cW0hdKUMoPU8pW05IXVtDQEBIXShbQ0gyXWM2W2NIXVtjSF1jKFtPSF0pW2NIXVtjSF02KUMoPU8pTjdbQ0BASF0oW0NIMl1bQ0gyXVtDSDJdNylDKD1PKVtOSF1bQ0BASF0oW0NIMl1bQ0gyXVNbQ0gzXSlDKD1PKVtOSF1bQ0BIXShDKD1PKVtPSF0pW0NIMl1DKD1PKVtPSF0=

> <s_epik_cmdline>
J2VwaWtfYXBwJywgJy1pbWFlJywgJ2xpZ2FuZF9wcm8ubWFlJywgJy1vbWFlJywgJ2xpZ2FuZF9wcmVwLm1hZScsICctbXMnLCAnMScsICctcGgnLCAnNycsICctcGh0JywgJzAuNScsICctbnQn

> <s_epik_pKa_notes>
Molecule size exceeds maximum supported for generating protonation states

> <s_epik_Chemistry_Notes>
This compound has an imine and may undergo hydrolysis.

$$$$
