2ltx_ligand
                    3D
 Schrodinger Suite 2020-3.
242248  0  0  1  0            999 V2000
    1.5980  -12.7780    4.2880 N   0  3  0  0  0  0
    1.1240  -11.5650    4.9960 C   0  0  2  0  0  0
    0.8110  -11.8890    6.4500 C   0  0  0  0  0  0
    1.3630  -11.2730    7.3580 O   0  0  0  0  0  0
   -0.1230  -10.9760    4.3170 C   0  0  0  0  0  0
    0.1460  -10.3100    2.9720 C   0  0  0  0  0  0
    0.6050  -11.2840    1.9070 C   0  0  0  0  0  0
    1.7960  -11.6500    1.9070 O   0  0  0  0  0  0
   -0.2270  -11.7040    1.0810 O   0  0  0  0  0  0
   -0.0910  -12.8560    6.6530 N   0  0  0  0  0  0
   -0.4990  -13.3050    7.9910 C   0  0  2  0  0  0
   -1.2730  -12.2180    8.7410 C   0  0  0  0  0  0
   -1.5690  -12.3600    9.9260 O   0  0  0  0  0  0
    0.7200  -13.7540    8.8090 C   0  0  0  0  0  0
    1.5310  -14.8970    8.1920 C   0  0  0  0  0  0
    2.7210  -15.2400    9.0710 C   0  0  0  0  0  0
    0.6560  -16.1220    7.9780 C   0  0  0  0  0  0
   -1.6310  -11.1600    8.0310 N   0  0  0  0  0  0
   -2.3570  -10.0420    8.6180 C   0  0  2  0  0  0
   -3.8190  -10.0610    8.1950 C   0  0  0  0  0  0
   -4.2040  -10.8050    7.2920 O   0  0  0  0  0  0
   -1.7240   -8.7180    8.1860 C   0  0  0  0  0  0
   -0.4650   -8.3560    8.9510 C   0  0  0  0  0  0
   -0.7520   -8.0000   10.3950 C   0  0  0  0  0  0
   -0.7890   -8.9090   11.2460 O   0  0  0  0  0  0
   -0.9510   -6.8020   10.6870 O   0  0  0  0  0  0
   -4.6200   -9.2350    8.8570 N   0  0  0  0  0  0
   -6.0070   -9.0120    8.4730 C   0  0  2  0  0  0
   -6.0940   -8.4960    7.0390 C   0  0  0  0  0  0
   -5.1300   -7.9210    6.5330 O   0  0  0  0  0  0
   -6.6240   -7.9880    9.4210 C   0  0  0  0  0  0
   -5.7380   -6.9030    9.6350 O   0  0  0  0  0  0
   -7.2520   -8.6690    6.3760 N   0  0  0  0  0  0
   -7.4590   -8.1730    5.0130 C   0  0  2  0  0  0
   -7.1470   -6.6800    4.8920 C   0  0  0  0  0  0
   -7.7450   -5.8480    5.5770 O   0  0  0  0  0  0
   -8.9490   -8.4370    4.7430 C   0  0  0  0  0  0
   -9.5470   -8.7460    6.0750 C   0  0  0  0  0  0
   -8.4440   -9.3560    6.8880 C   0  0  0  0  0  0
   -6.1770   -6.3410    4.0330 N   0  0  0  0  0  0
   -5.7800   -4.9540    3.7650 C   0  0  2  0  0  0
   -6.9140   -4.1080    3.1770 C   0  0  0  0  0  0
   -7.8870   -4.6360    2.6310 O   0  0  0  0  0  0
   -4.6340   -5.1000    2.7520 C   0  0  0  0  0  0
   -4.7810   -6.4660    2.1880 C   0  0  0  0  0  0
   -5.3440   -7.2970    3.2960 C   0  0  0  0  0  0
   -6.7660   -2.7760    3.2470 N   0  0  0  0  0  0
   -7.7850   -1.8180    2.8020 C   0  0  2  0  0  0
   -7.9520   -1.8470    1.2810 C   0  0  0  0  0  0
   -6.9760   -1.7010    0.5480 O   0  0  0  0  0  0
   -7.2250   -0.4560    3.2680 C   0  0  0  0  0  0
   -6.1220   -0.7860    4.2070 C   0  0  0  0  0  0
   -5.5710   -2.0870    3.7360 C   0  0  0  0  0  0
   -9.1920   -2.0470    0.7920 N   0  0  0  0  0  0
   -9.4890   -2.1570   -0.6450 C   0  0  2  0  0  0
   -8.8670   -1.0220   -1.4570 C   0  0  0  0  0  0
   -9.0060    0.1530   -1.1030 O   0  0  0  0  0  0
  -11.0250   -2.0880   -0.7120 C   0  0  0  0  0  0
  -11.4740   -1.6940    0.6580 C   0  0  0  0  0  0
  -10.4090   -2.1740    1.6000 C   0  0  0  0  0  0
   -8.1990   -1.3800   -2.5550 N   0  0  0  0  0  0
   -7.4840   -0.4060   -3.3700 C   0  0  2  0  0  0
   -8.4190    0.6640   -3.9190 C   0  0  0  0  0  0
   -9.2250    0.4220   -4.8180 O   0  0  0  0  0  0
   -6.7120   -1.0880   -4.5210 C   0  0  0  0  0  0
   -6.1880   -0.1200   -5.5790 C   0  0  0  0  0  0
   -5.6750    1.1270   -5.2300 C   0  0  0  0  0  0
   -6.2330   -0.4420   -6.9340 C   0  0  0  0  0  0
   -5.2400    2.0190   -6.1920 C   0  0  0  0  0  0
   -5.7840    0.4510   -7.8930 C   0  0  0  0  0  0
   -5.3000    1.6670   -7.5180 C   0  0  0  0  0  0
   -4.8960    2.5450   -8.4900 O   0  0  0  0  0  0
   -8.3180    1.8340   -3.3210 N   0  0  0  0  0  0
   -8.9080    3.0350   -3.8600 C   0  0  2  0  0  0
   -7.7880    3.8210   -4.5210 C   0  0  0  0  0  0
   -6.6760    3.8470   -3.9940 O   0  0  0  0  0  0
   -9.5530    3.8420   -2.7330 C   0  0  0  0  0  0
  -10.4390    3.0300   -1.9730 O   0  0  0  0  0  0
   -8.0640    4.4680   -5.6460 N   0  0  0  0  0  0
   -7.0020    5.0750   -6.4390 C   0  0  2  0  0  0
   -6.2460    6.1150   -5.6280 C   0  0  0  0  0  0
   -5.0230    6.0670   -5.5300 O   0  0  0  0  0  0
   -7.5560    5.7450   -7.6970 C   0  0  0  0  0  0
   -8.3430    4.8320   -8.6180 C   0  0  0  0  0  0
   -8.7200    5.5640   -9.8930 C   0  0  0  0  0  0
   -9.7450    4.8620  -10.6600 N   0  0  0  0  0  0
  -10.6630    5.4770  -11.4040 C   0  0  0  0  0  0
  -10.6940    6.8040  -11.4680 N   0  0  0  0  0  0
  -11.5620    4.7670  -12.0740 N   0  0  0  0  0  0
   -6.9700    7.0540   -5.0540 N   0  0  0  0  0  0
   -6.3480    8.1010   -4.2660 C   0  0  2  0  0  0
   -6.8780    8.0430   -2.8450 C   0  0  0  0  0  0
   -7.9850    8.5050   -2.5610 O   0  0  0  0  0  0
   -6.5830    9.4820   -4.9020 C   0  0  0  0  0  0
   -5.8230    9.6890   -6.2010 C   0  0  0  0  0  0
   -5.8670    8.7380   -7.2110 C   0  0  0  0  0  0
   -5.0530   10.8230   -6.4130 C   0  0  0  0  0  0
   -5.1730    8.9010   -8.3870 C   0  0  0  0  0  0
   -4.3540   11.0010   -7.5930 C   0  0  0  0  0  0
   -4.4160   10.0360   -8.5790 C   0  0  0  0  0  0
   -3.7160   10.2080   -9.7540 O   0  0  0  0  0  0
   -6.1120    7.4080   -1.9490 N   0  0  0  0  0  0
   -6.5130    7.1640   -0.5760 C   0  0  2  0  0  0
   -6.1560    8.3300    0.3370 C   0  0  0  0  0  0
   -4.9850    8.6860    0.4850 O   0  0  0  0  0  0
   -5.7140    5.8990   -0.1960 C   0  0  0  0  0  0
   -4.7910    5.6240   -1.3510 C   0  0  0  0  0  0
   -4.7780    6.8650   -2.1920 C   0  0  0  0  0  0
   -7.1710    8.9410    0.9230 N   0  0  0  0  0  0
   -6.9650   10.0480    1.8390 C   0  0  2  0  0  0
   -7.4850    9.6780    3.2200 C   0  0  0  0  0  0
   -8.6960    9.5820    3.4470 O   0  0  0  0  0  0
   -7.6260   11.3320    1.3110 C   0  0  0  0  0  0
   -9.0890   11.1660    0.9240 C   0  0  0  0  0  0
   -9.7740   12.6320    0.1250 S   0  0  0  0  0  0
   -8.7220   12.7490   -1.3210 C   0  0  0  0  0  0
   -6.5560    9.4300    4.1270 N   0  0  0  0  0  0
   -6.8830    8.9690    5.4640 C   0  0  2  0  0  0
   -6.0160    9.6800    6.4920 C   0  0  0  0  0  0
   -6.5370   10.0180    7.5760 O   0  0  0  0  0  0
   -6.7080    7.4460    5.5700 C   0  0  0  0  0  0
   -5.2820    6.9910    5.3160 C   0  0  0  0  0  0
   -4.9320    6.7180    4.1460 O   0  0  0  0  0  0
   -4.5000    6.9060    6.2820 O   0  0  0  0  0  0
   -4.8280    9.9450    6.1930 O   0  0  0  0  0  0
    2.4890  -13.1748    4.7966 H   0  0  0  0  0  0
    1.8530  -12.5203    3.2495 H   0  0  0  0  0  0
    0.8038  -13.5391    4.2925 H   0  0  0  0  0  0
    1.9518  -10.8424    4.9449 H   0  0  0  0  0  0
   -0.8553  -11.7769    4.1371 H   0  0  0  0  0  0
   -0.5691  -10.2111    4.9696 H   0  0  0  0  0  0
   -0.7752   -9.8304    2.6096 H   0  0  0  0  0  0
    0.9329   -9.5505    3.0898 H   0  0  0  0  0  0
    2.1542  -12.3568    1.1440 H   0  0  0  0  0  0
   -0.5325  -13.3201    5.7587 H   0  0  0  0  0  0
   -1.1689  -14.1586    7.8104 H   0  0  0  0  0  0
    1.4121  -12.9076    8.9303 H   0  0  0  0  0  0
    0.3894  -14.1021    9.7987 H   0  0  0  0  0  0
    1.9102  -14.5721    7.2119 H   0  0  0  0  0  0
    3.3415  -14.3431    9.2145 H   0  0  0  0  0  0
    3.3193  -16.0263    8.5876 H   0  0  0  0  0  0
    2.3641  -15.5990   10.0476 H   0  0  0  0  0  0
   -0.1994  -15.8547    7.3401 H   0  0  0  0  0  0
    0.2896  -16.4851    8.9495 H   0  0  0  0  0  0
    1.2448  -16.9124    7.4895 H   0  0  0  0  0  0
   -1.3627  -11.1423    6.9644 H   0  0  0  0  0  0
   -2.2793  -10.1831    9.7061 H   0  0  0  0  0  0
   -1.4523   -8.7716    7.1214 H   0  0  0  0  0  0
   -2.4433   -7.9002    8.3401 H   0  0  0  0  0  0
    0.2278   -9.2103    8.9421 H   0  0  0  0  0  0
    0.0163   -7.4886    8.4756 H   0  0  0  0  0  0
   -1.1615   -6.5174   11.7285 H   0  0  0  0  0  0
   -4.1986   -8.7090    9.7263 H   0  0  0  0  0  0
   -6.5122   -9.9862    8.5485 H   0  0  0  0  0  0
   -7.5583   -7.6026    8.9868 H   0  0  0  0  0  0
   -6.8390   -8.4664   10.3879 H   0  0  0  0  0  0
   -6.0322   -6.0749   10.2965 H   0  0  0  0  0  0
   -6.7731   -8.6908    4.3264 H   0  0  0  0  0  0
   -9.4049   -7.5413    4.2960 H   0  0  0  0  0  0
   -9.0514   -9.2852    4.0501 H   0  0  0  0  0  0
   -9.9152   -7.8176    6.5359 H   0  0  0  0  0  0
  -10.3835   -9.4488    5.9473 H   0  0  0  0  0  0
   -8.3420  -10.4389    6.7236 H   0  0  0  0  0  0
   -8.5479   -9.1568    7.9648 H   0  0  0  0  0  0
   -5.5065   -4.4659    4.7121 H   0  0  0  0  0  0
   -4.7325   -4.3293    1.9733 H   0  0  0  0  0  0
   -3.6704   -4.9783    3.2684 H   0  0  0  0  0  0
   -5.4609   -6.4347    1.3239 H   0  0  0  0  0  0
   -3.7969   -6.8380    1.8669 H   0  0  0  0  0  0
   -4.5658   -7.6959    3.9633 H   0  0  0  0  0  0
   -5.9710   -8.1230    2.9290 H   0  0  0  0  0  0
   -8.7661   -2.0786    3.2258 H   0  0  0  0  0  0
   -6.8584    0.1071    2.3970 H   0  0  0  0  0  0
   -8.0211    0.1167    3.7662 H   0  0  0  0  0  0
   -5.3612    0.0077    4.1723 H   0  0  0  0  0  0
   -6.5218   -0.8663    5.2286 H   0  0  0  0  0  0
   -5.1136   -2.6757    4.5448 H   0  0  0  0  0  0
   -4.8505   -1.9733    2.9126 H   0  0  0  0  0  0
   -9.0526   -3.0864   -1.0397 H   0  0  0  0  0  0
  -11.3261   -1.3410   -1.4612 H   0  0  0  0  0  0
  -11.4243   -3.0730   -0.9953 H   0  0  0  0  0  0
  -11.5835   -0.6006    0.7077 H   0  0  0  0  0  0
  -12.4412   -2.1697    0.8778 H   0  0  0  0  0  0
  -10.5435   -3.2244    1.8977 H   0  0  0  0  0  0
  -10.3193   -1.5467    2.4991 H   0  0  0  0  0  0
   -8.1972   -2.4425   -2.8397 H   0  0  0  0  0  0
   -6.7829    0.0619   -2.6633 H   0  0  0  0  0  0
   -5.8421   -1.6232   -4.1125 H   0  0  0  0  0  0
   -7.3736   -1.8015   -5.0341 H   0  0  0  0  0  0
   -5.6154    1.4048   -4.1777 H   0  0  0  0  0  0
   -6.6270   -1.4100   -7.2436 H   0  0  0  0  0  0
   -4.8521    2.9949   -5.9002 H   0  0  0  0  0  0
   -5.8182    0.1801   -8.9482 H   0  0  0  0  0  0
   -4.5018    3.5329   -8.2094 H   0  0  0  0  0  0
   -7.7576    1.8731   -2.3753 H   0  0  0  0  0  0
   -9.6808    2.7505   -4.5893 H   0  0  0  0  0  0
   -8.7696    4.2317   -2.0664 H   0  0  0  0  0  0
  -10.1208    4.6811   -3.1614 H   0  0  0  0  0  0
  -10.9860    3.4608   -1.1214 H   0  0  0  0  0  0
   -9.1100    4.5432   -5.9782 H   0  0  0  0  0  0
   -6.3454    4.2329   -6.7032 H   0  0  0  0  0  0
   -8.2344    6.5616   -7.4090 H   0  0  0  0  0  0
   -6.7250    6.1514   -8.2922 H   0  0  0  0  0  0
   -7.7308    3.9553   -8.8760 H   0  0  0  0  0  0
   -9.2609    4.5015   -8.1099 H   0  0  0  0  0  0
   -9.1097    6.5615   -9.6416 H   0  0  0  0  0  0
   -7.8311    5.6681  -10.5326 H   0  0  0  0  0  0
   -9.7882    3.7630  -10.6433 H   0  0  0  0  0  0
   -9.9519    7.3988  -10.9152 H   0  0  0  0  0  0
  -11.4617    7.3076  -12.0738 H   0  0  0  0  0  0
  -11.5422    3.6682  -12.0256 H   0  0  0  0  0  0
   -8.0626    7.0358   -5.1797 H   0  0  0  0  0  0
   -5.2692    7.8863   -4.2637 H   0  0  0  0  0  0
   -7.6532    9.6063   -5.1236 H   0  0  0  0  0  0
   -6.2597   10.2674   -4.2030 H   0  0  0  0  0  0
   -6.4669    7.8391   -7.0684 H   0  0  0  0  0  0
   -4.9979   11.5864   -5.6369 H   0  0  0  0  0  0
   -5.2215    8.1367   -9.1626 H   0  0  0  0  0  0
   -3.7562   11.8998   -7.7443 H   0  0  0  0  0  0
   -3.7643    9.4404  -10.5404 H   0  0  0  0  0  0
   -7.6068    7.0621   -0.5198 H   0  0  0  0  0  0
   -5.1471    6.0871    0.7277 H   0  0  0  0  0  0
   -6.4084    5.0610   -0.0359 H   0  0  0  0  0  0
   -3.7843    5.3973   -0.9699 H   0  0  0  0  0  0
   -5.1678    4.7646   -1.9250 H   0  0  0  0  0  0
   -4.6564    6.6577   -3.2654 H   0  0  0  0  0  0
   -4.0207    7.5957   -1.8716 H   0  0  0  0  0  0
   -8.1906    8.5921    0.7024 H   0  0  0  0  0  0
   -5.8766   10.1995    1.8884 H   0  0  0  0  0  0
   -7.5833   12.1117    2.0858 H   0  0  0  0  0  0
   -7.0916   11.6772    0.4136 H   0  0  0  0  0  0
   -9.1896   10.3243    0.2230 H   0  0  0  0  0  0
   -9.6864   10.9656    1.8257 H   0  0  0  0  0  0
   -9.0237   13.6177   -1.9246 H   0  0  0  0  0  0
   -8.8212   11.8328   -1.9217 H   0  0  0  0  0  0
   -7.6754   12.8683   -1.0043 H   0  0  0  0  0  0
   -5.5053    9.5841    3.8400 H   0  0  0  0  0  0
   -7.9377    9.2394    5.6204 H   0  0  0  0  0  0
   -6.9885    7.1142    6.5806 H   0  0  0  0  0  0
   -7.3527    6.9504    4.8292 H   0  0  0  0  0  0
   -3.9029    6.3868    3.9429 H   0  0  0  0  0  0
   -4.1798   10.4586    6.9183 H   0  0  0  0  0  0
  1  2  1  0  0  0
  1126  1  0  0  0
  1127  1  0  0  0
  1128  1  0  0  0
  2  3  1  0  0  0
  2  5  1  0  0  0
  2129  1  0  0  0
  3  4  2  0  0  0
  3 10  1  0  0  0
  5  6  1  0  0  0
  5130  1  0  0  0
  5131  1  0  0  0
  6  7  1  0  0  0
  6132  1  0  0  0
  6133  1  0  0  0
  7  8  1  0  0  0
  7  9  2  0  0  0
  8134  1  0  0  0
 10 11  1  0  0  0
 10135  1  0  0  0
 11 12  1  0  0  0
 11 14  1  0  0  0
 11136  1  0  0  0
 12 13  2  0  0  0
 12 18  1  0  0  0
 14 15  1  0  0  0
 14137  1  0  0  0
 14138  1  0  0  0
 15 16  1  0  0  0
 15 17  1  0  0  0
 15139  1  0  0  0
 16140  1  0  0  0
 16141  1  0  0  0
 16142  1  0  0  0
 17143  1  0  0  0
 17144  1  0  0  0
 17145  1  0  0  0
 18 19  1  0  0  0
 18146  1  0  0  0
 19 20  1  0  0  0
 19 22  1  0  0  0
 19147  1  0  0  0
 20 21  2  0  0  0
 20 27  1  0  0  0
 22 23  1  0  0  0
 22148  1  0  0  0
 22149  1  0  0  0
 23 24  1  0  0  0
 23150  1  0  0  0
 23151  1  0  0  0
 24 25  2  0  0  0
 24 26  1  0  0  0
 26152  1  0  0  0
 27 28  1  0  0  0
 27153  1  0  0  0
 28 29  1  0  0  0
 28 31  1  0  0  0
 28154  1  0  0  0
 29 30  2  0  0  0
 29 33  1  0  0  0
 31 32  1  0  0  0
 31155  1  0  0  0
 31156  1  0  0  0
 32157  1  0  0  0
 33 34  1  0  0  0
 33 39  1  0  0  0
 34 35  1  0  0  0
 34 37  1  0  0  0
 34158  1  0  0  0
 35 36  2  0  0  0
 35 40  1  0  0  0
 37 38  1  0  0  0
 37159  1  0  0  0
 37160  1  0  0  0
 38 39  1  0  0  0
 38161  1  0  0  0
 38162  1  0  0  0
 39163  1  0  0  0
 39164  1  0  0  0
 40 41  1  0  0  0
 40 46  1  0  0  0
 41 42  1  0  0  0
 41 44  1  0  0  0
 41165  1  0  0  0
 42 43  2  0  0  0
 42 47  1  0  0  0
 44 45  1  0  0  0
 44166  1  0  0  0
 44167  1  0  0  0
 45 46  1  0  0  0
 45168  1  0  0  0
 45169  1  0  0  0
 46170  1  0  0  0
 46171  1  0  0  0
 47 48  1  0  0  0
 47 53  1  0  0  0
 48 49  1  0  0  0
 48 51  1  0  0  0
 48172  1  0  0  0
 49 50  2  0  0  0
 49 54  1  0  0  0
 51 52  1  0  0  0
 51173  1  0  0  0
 51174  1  0  0  0
 52 53  1  0  0  0
 52175  1  0  0  0
 52176  1  0  0  0
 53177  1  0  0  0
 53178  1  0  0  0
 54 55  1  0  0  0
 54 60  1  0  0  0
 55 56  1  0  0  0
 55 58  1  0  0  0
 55179  1  0  0  0
 56 57  2  0  0  0
 56 61  1  0  0  0
 58 59  1  0  0  0
 58180  1  0  0  0
 58181  1  0  0  0
 59 60  1  0  0  0
 59182  1  0  0  0
 59183  1  0  0  0
 60184  1  0  0  0
 60185  1  0  0  0
 61 62  1  0  0  0
 61186  1  0  0  0
 62 63  1  0  0  0
 62 65  1  0  0  0
 62187  1  0  0  0
 63 64  2  0  0  0
 63 73  1  0  0  0
 65 66  1  0  0  0
 65188  1  0  0  0
 65189  1  0  0  0
 66 67  2  0  0  0
 66 68  1  0  0  0
 67 69  1  0  0  0
 67190  1  0  0  0
 68 70  2  0  0  0
 68191  1  0  0  0
 69 71  2  0  0  0
 69192  1  0  0  0
 70 71  1  0  0  0
 70193  1  0  0  0
 71 72  1  0  0  0
 72194  1  0  0  0
 73 74  1  0  0  0
 73195  1  0  0  0
 74 75  1  0  0  0
 74 77  1  0  0  0
 74196  1  0  0  0
 75 76  2  0  0  0
 75 79  1  0  0  0
 77 78  1  0  0  0
 77197  1  0  0  0
 77198  1  0  0  0
 78199  1  0  0  0
 79 80  1  0  0  0
 79200  1  0  0  0
 80 81  1  0  0  0
 80 83  1  0  0  0
 80201  1  0  0  0
 81 82  2  0  0  0
 81 90  1  0  0  0
 83 84  1  0  0  0
 83202  1  0  0  0
 83203  1  0  0  0
 84 85  1  0  0  0
 84204  1  0  0  0
 84205  1  0  0  0
 85 86  1  0  0  0
 85206  1  0  0  0
 85207  1  0  0  0
 86 87  1  0  0  0
 86208  1  0  0  0
 87 88  1  0  0  0
 87 89  2  0  0  0
 88209  1  0  0  0
 88210  1  0  0  0
 89211  1  0  0  0
 90 91  1  0  0  0
 90212  1  0  0  0
 91 92  1  0  0  0
 91 94  1  0  0  0
 91213  1  0  0  0
 92 93  2  0  0  0
 92102  1  0  0  0
 94 95  1  0  0  0
 94214  1  0  0  0
 94215  1  0  0  0
 95 96  2  0  0  0
 95 97  1  0  0  0
 96 98  1  0  0  0
 96216  1  0  0  0
 97 99  2  0  0  0
 97217  1  0  0  0
 98100  2  0  0  0
 98218  1  0  0  0
 99100  1  0  0  0
 99219  1  0  0  0
100101  1  0  0  0
101220  1  0  0  0
102103  1  0  0  0
102108  1  0  0  0
103104  1  0  0  0
103106  1  0  0  0
103221  1  0  0  0
104105  2  0  0  0
104109  1  0  0  0
106107  1  0  0  0
106222  1  0  0  0
106223  1  0  0  0
107108  1  0  0  0
107224  1  0  0  0
107225  1  0  0  0
108226  1  0  0  0
108227  1  0  0  0
109110  1  0  0  0
109228  1  0  0  0
110111  1  0  0  0
110113  1  0  0  0
110229  1  0  0  0
111112  2  0  0  0
111117  1  0  0  0
113114  1  0  0  0
113230  1  0  0  0
113231  1  0  0  0
114115  1  0  0  0
114232  1  0  0  0
114233  1  0  0  0
115116  1  0  0  0
116234  1  0  0  0
116235  1  0  0  0
116236  1  0  0  0
117118  1  0  0  0
117237  1  0  0  0
118119  1  0  0  0
118121  1  0  0  0
118238  1  0  0  0
119120  2  0  0  0
119125  1  0  0  0
121122  1  0  0  0
121239  1  0  0  0
121240  1  0  0  0
122123  1  0  0  0
122124  2  0  0  0
123241  1  0  0  0
125242  1  0  0  0
M  CHG  1   1   1
M  END
> <s_m_source_file>
../2ltx_ligand.sdf

> <i_m_source_file_index>
1

> <s_epik_input>
W09IXUMoPU8pW0NIMl1bQ0gyXVtDQEhdKFtOSDMrXSlDKD1PKVtOSF1bQ0BASF0oW0NIMl1bQ0hdKFtDSDNdKVtDSDNdKUMoPU8pW05IXVtDQEBIXShbQ0gyXVtDSDJdQyg9TylbT0hdKUMoPU8pW05IXVtDQEBIXShbQ0gyXVtPSF0pQyg9TylOMVtDQEBIXShbQ0gyXVtDSDJdW0NIMl0xKUMoPU8pTjJbQ0BASF0oW0NIMl1bQ0gyXVtDSDJdMilDKD1PKU4zW0NAQEhdKFtDSDJdW0NIMl1bQ0gyXTMpQyg9TylONFtDQEBIXShbQ0gyXVtDSDJdW0NIMl00KUMoPU8pW05IXVtDQEBIXShbQ0gyXWM1W2NIXVtjSF1jKFtPSF0pW2NIXVtjSF01KUMoPU8pW05IXVtDQEBIXShbQ0gyXVtPSF0pQyg9TylbTkhdW0NAQEhdKFtDSDJdW0NIMl1bQ0gyXVtOSF0vQyhbTkgyXSk9TlxbSF0pQyg9TylbTkhdW0NAQEhdKFtDSDJdYzZbY0hdW2NIXWMoW09IXSlbY0hdW2NIXTYpQyg9TylON1tDQEBIXShbQ0gyXVtDSDJdW0NIMl03KUMoPU8pW05IXVtDQEBIXShbQ0gyXVtDSDJdU1tDSDNdKUMoPU8pW05IXVtDQEhdKEMoPU8pW09IXSlbQ0gyXUMoPU8pW09IXQ==

> <s_epik_cmdline>
J2VwaWtfYXBwJywgJy1pbWFlJywgJ2xpZ2FuZF9wcm8ubWFlJywgJy1vbWFlJywgJ2xpZ2FuZF9wcmVwLm1hZScsICctbXMnLCAnMScsICctcGgnLCAnNycsICctcGh0JywgJzAuNScsICctbnQn

> <s_epik_pKa_notes>
Molecule size exceeds maximum supported for generating protonation states

> <s_epik_Chemistry_Notes>
This compound has an imine and may undergo hydrolysis.

$$$$
