2lty_ligand
                    3D
 Schrodinger Suite 2020-3.
242248  0  0  1  0            999 V2000
   -0.8920  -12.1020   -3.2330 N   0  3  0  0  0  0
    0.1120  -11.8380   -4.2900 C   0  0  2  0  0  0
    1.3730  -12.6740   -4.0710 C   0  0  0  0  0  0
    2.1630  -12.8570   -4.9950 O   0  0  0  0  0  0
    0.4780  -10.3470   -4.3340 C   0  0  0  0  0  0
   -0.7230   -9.4140   -4.2960 C   0  0  0  0  0  0
   -1.8410   -9.8600   -5.2140 C   0  0  0  0  0  0
   -1.8090   -9.5260   -6.4160 O   0  0  0  0  0  0
   -2.7500  -10.5660   -4.7310 O   0  0  0  0  0  0
    1.5770  -13.1410   -2.8320 N   0  0  0  0  0  0
    2.7250  -13.9900   -2.4740 C   0  0  2  0  0  0
    4.0480  -13.2260   -2.5810 C   0  0  0  0  0  0
    5.1270  -13.8110   -2.4600 O   0  0  0  0  0  0
    2.7700  -15.2470   -3.3580 C   0  0  0  0  0  0
    1.5610  -16.1820   -3.2340 C   0  0  0  0  0  0
    1.7090  -17.3660   -4.1770 C   0  0  0  0  0  0
    1.3980  -16.6630   -1.7990 C   0  0  0  0  0  0
    3.9530  -11.9160   -2.7590 N   0  0  0  0  0  0
    5.1250  -11.0590   -2.8880 C   0  0  2  0  0  0
    5.7840  -10.8200   -1.5340 C   0  0  0  0  0  0
    5.1230  -10.8890   -0.4950 O   0  0  0  0  0  0
    4.7210   -9.7200   -3.5080 C   0  0  0  0  0  0
    4.4960   -9.7840   -5.0070 C   0  0  0  0  0  0
    5.7760  -10.0560   -5.7660 C   0  0  0  0  0  0
    6.6270   -9.1440   -5.8430 O   0  0  0  0  0  0
    5.9490  -11.1840   -6.2710 O   0  0  0  0  0  0
    7.0810  -10.5290   -1.5610 N   0  0  0  0  0  0
    7.8240  -10.1650   -0.3600 C   0  0  2  0  0  0
    7.1560   -8.9560    0.2930 C   0  0  0  0  0  0
    6.6490   -8.0850   -0.4090 O   0  0  0  0  0  0
    9.2800   -9.8440   -0.7360 C   0  0  0  0  0  0
   10.0720   -9.5660    0.4110 O   0  0  0  0  0  0
    7.1630   -8.8800    1.6360 N   0  0  0  0  0  0
    6.4720   -7.8180    2.3820 C   0  0  2  0  0  0
    6.7760   -6.4220    1.8420 C   0  0  0  0  0  0
    7.9360   -6.0920    1.5770 O   0  0  0  0  0  0
    7.0330   -7.9700    3.7920 C   0  0  0  0  0  0
    7.3520   -9.4160    3.8990 C   0  0  0  0  0  0
    7.8280   -9.8350    2.5390 C   0  0  0  0  0  0
    5.7250   -5.5950    1.6740 N   0  0  0  0  0  0
    5.8360   -4.2520    1.0890 C   0  0  2  0  0  0
    6.9460   -3.4090    1.7010 C   0  0  0  0  0  0
    7.2600   -3.5340    2.8890 O   0  0  0  0  0  0
    4.4830   -3.6260    1.4110 C   0  0  0  0  0  0
    3.5470   -4.7690    1.4410 C   0  0  0  0  0  0
    4.3230   -5.9120    2.0290 C   0  0  0  0  0  0
    7.5210   -2.5100    0.8890 N   0  0  0  0  0  0
    8.5900   -1.6070    1.3210 C   0  0  2  0  0  0
    8.1490   -0.7530    2.5060 C   0  0  0  0  0  0
    7.0330   -0.2240    2.5090 O   0  0  0  0  0  0
    8.8360   -0.7360    0.0810 C   0  0  0  0  0  0
    8.3270   -1.5460   -1.0580 C   0  0  0  0  0  0
    7.1500   -2.2890   -0.5180 C   0  0  0  0  0  0
    9.0200   -0.6060    3.5230 N   0  0  0  0  0  0
    8.7030    0.1300    4.7500 C   0  0  2  0  0  0
    8.0990    1.4990    4.4670 C   0  0  0  0  0  0
    8.7180    2.3520    3.8270 O   0  0  0  0  0  0
   10.0570    0.2690    5.4640 C   0  0  0  0  0  0
   11.0850   -0.1910    4.4810 C   0  0  0  0  0  0
   10.3850   -1.1410    3.5570 C   0  0  0  0  0  0
    6.8850    1.6980    4.9490 N   0  0  0  0  0  0
    6.1470    2.9090    4.6620 C   0  0  2  0  0  0
    6.4220    3.9710    5.7170 C   0  0  0  0  0  0
    6.1450    3.7710    6.8980 O   0  0  0  0  0  0
    4.6490    2.6110    4.5950 C   0  0  0  0  0  0
    3.8430    3.7420    4.0110 C   0  0  0  0  0  0
    3.7220    3.8800    2.6380 C   0  0  0  0  0  0
    3.2080    4.6720    4.8250 C   0  0  0  0  0  0
    2.9930    4.9090    2.0890 C   0  0  0  0  0  0
    2.4750    5.7060    4.2790 C   0  0  0  0  0  0
    2.3720    5.8150    2.9110 C   0  0  0  0  0  0
    1.6510    6.8410    2.3630 O   0  0  0  0  0  0
    6.9810    5.0930    5.2880 N   0  0  0  0  0  0
    7.2160    6.2070    6.1880 C   0  0  2  0  0  0
    6.1610    7.2950    5.9770 C   0  0  0  0  0  0
    5.2350    7.4320    6.7770 O   0  0  0  0  0  0
    8.6200    6.7690    5.9710 C   0  0  0  0  0  0
    9.6020    5.7540    6.1100 O   0  0  0  0  0  0
    6.2840    8.0530    4.8900 N   0  0  0  0  0  0
    5.2950    9.0760    4.5710 C   0  0  2  0  0  0
    4.6510    8.8090    3.2130 C   0  0  0  0  0  0
    3.4260    8.7710    3.0890 O   0  0  0  0  0  0
    5.9250   10.4700    4.6000 C   0  0  0  0  0  0
    4.9070   11.5900    4.4600 C   0  0  0  0  0  0
    5.5580   12.9590    4.5410 C   0  0  0  0  0  0
    4.5920   14.0350    4.3370 N   0  0  0  0  0  0
    4.9270   15.3160    4.1980 C   0  0  0  0  0  0
    6.1970   15.6930    4.2830 N   0  0  0  0  0  0
    3.9870   16.2260    3.9880 N   0  0  0  0  0  0
    5.4870    8.6410    2.1950 N   0  0  0  0  0  0
    5.0150    8.3560    0.8450 C   0  0  2  0  0  0
    5.5310    6.9960    0.3880 C   0  0  0  0  0  0
    6.6190    6.5760    0.7890 O   0  0  0  0  0  0
    5.4710    9.4480   -0.1310 C   0  0  0  0  0  0
    4.7590   10.7740    0.0500 C   0  0  0  0  0  0
    5.2480   11.7300    0.9250 C   0  0  0  0  0  0
    3.6010   11.0700   -0.6600 C   0  0  0  0  0  0
    4.6100   12.9420    1.0940 C   0  0  0  0  0  0
    2.9560   12.2840   -0.5000 C   0  0  0  0  0  0
    3.4660   13.2170    0.3790 C   0  0  0  0  0  0
    2.8310   14.4280    0.5490 O   0  0  0  0  0  0
    4.7580    6.3010   -0.4580 N   0  0  0  0  0  0
    5.1160    4.9650   -0.9560 C   0  0  2  0  0  0
    6.2950    4.9860   -1.9260 C   0  0  0  0  0  0
    6.3350    5.7890   -2.8580 O   0  0  0  0  0  0
    3.8510    4.5100   -1.6830 C   0  0  0  0  0  0
    3.1730    5.7710   -2.0860 C   0  0  0  0  0  0
    3.4650    6.7600   -0.9970 C   0  0  0  0  0  0
    7.2380    4.0830   -1.7110 N   0  0  0  0  0  0
    8.3950    3.9620   -2.5850 C   0  0  2  0  0  0
    8.7050    2.4860   -2.8330 C   0  0  0  0  0  0
    8.8760    1.7140   -1.8920 O   0  0  0  0  0  0
    9.6070    4.6900   -1.9800 C   0  0  0  0  0  0
   10.0570    4.1530   -0.6290 C   0  0  0  0  0  0
   11.4890    5.0350    0.0270 S   0  0  0  0  0  0
   10.8400    6.7020    0.1370 C   0  0  0  0  0  0
    8.7610    2.0960   -4.1020 N   0  0  0  0  0  0
    8.9710    0.7000   -4.4740 C   0  0  2  0  0  0
   10.0730    0.5940   -5.5170 C   0  0  0  0  0  0
    9.8980    1.1510   -6.6190 O   0  0  0  0  0  0
    7.6760    0.0920   -5.0210 C   0  0  0  0  0  0
    7.8220   -1.3740   -5.3910 C   0  0  0  0  0  0
    7.8000   -2.2300   -4.4810 O   0  0  0  0  0  0
    7.9410   -1.6820   -6.5970 O   0  0  0  0  0  0
   11.1010   -0.0530   -5.2430 O   0  0  0  0  0  0
   -1.1380  -13.1741   -3.2205 H   0  0  0  0  0  0
   -1.8022  -11.5193   -3.4381 H   0  0  0  0  0  0
   -0.4812  -11.8086   -2.2557 H   0  0  0  0  0  0
   -0.3656  -12.1378   -5.2345 H   0  0  0  0  0  0
    1.1095  -10.0988   -3.4682 H   0  0  0  0  0  0
    1.0273  -10.1315   -5.2623 H   0  0  0  0  0  0
   -1.1241   -9.3742   -3.2725 H   0  0  0  0  0  0
   -0.4139   -8.4055   -4.6081 H   0  0  0  0  0  0
   -3.5783  -10.9083   -5.3688 H   0  0  0  0  0  0
    0.8385  -12.8629   -2.0657 H   0  0  0  0  0  0
    2.5537  -14.2673   -1.4234 H   0  0  0  0  0  0
    2.8262  -14.9497   -4.4156 H   0  0  0  0  0  0
    3.6549  -15.8465   -3.0982 H   0  0  0  0  0  0
    0.6534  -15.6271   -3.5137 H   0  0  0  0  0  0
    1.8256  -17.0011   -5.2081 H   0  0  0  0  0  0
    0.8131  -18.0009   -4.1118 H   0  0  0  0  0  0
    2.5954  -17.9523   -3.8931 H   0  0  0  0  0  0
    1.2924  -15.7953   -1.1312 H   0  0  0  0  0  0
    2.2830  -17.2463   -1.5051 H   0  0  0  0  0  0
    0.5008  -17.2949   -1.7238 H   0  0  0  0  0  0
    2.9445  -11.4796   -2.8084 H   0  0  0  0  0  0
    5.8202  -11.6056   -3.5422 H   0  0  0  0  0  0
    3.7827   -9.3726   -3.0510 H   0  0  0  0  0  0
    5.5132   -8.9785   -3.3276 H   0  0  0  0  0  0
    3.7846  -10.5909   -5.2368 H   0  0  0  0  0  0
    4.0881   -8.8246   -5.3579 H   0  0  0  0  0  0
    7.5670   -9.3135   -6.3886 H   0  0  0  0  0  0
    7.5935  -10.5700   -2.5335 H   0  0  0  0  0  0
    7.7907  -11.0267    0.3229 H   0  0  0  0  0  0
    9.7215  -10.7043   -1.2604 H   0  0  0  0  0  0
    9.3031   -8.9625   -1.3936 H   0  0  0  0  0  0
   11.1377   -9.3187    0.2967 H   0  0  0  0  0  0
    5.3829   -7.9454    2.2952 H   0  0  0  0  0  0
    7.9278   -7.3395    3.9005 H   0  0  0  0  0  0
    6.2737   -7.6582    4.5243 H   0  0  0  0  0  0
    8.1349   -9.5636    4.6575 H   0  0  0  0  0  0
    6.4482   -9.9702    4.1924 H   0  0  0  0  0  0
    7.5178  -10.8588    2.2828 H   0  0  0  0  0  0
    8.9188   -9.7443    2.4298 H   0  0  0  0  0  0
    6.0849   -4.3406    0.0212 H   0  0  0  0  0  0
    4.5379   -3.1140    2.3831 H   0  0  0  0  0  0
    4.2196   -2.8994    0.6283 H   0  0  0  0  0  0
    2.6765   -4.5138    2.0631 H   0  0  0  0  0  0
    3.2126   -4.9961    0.4180 H   0  0  0  0  0  0
    4.0429   -6.8798    1.5876 H   0  0  0  0  0  0
    4.2251   -5.9661    3.1233 H   0  0  0  0  0  0
    9.4675   -2.1777    1.6591 H   0  0  0  0  0  0
    8.2881    0.2122    0.1844 H   0  0  0  0  0  0
    9.9122   -0.5291   -0.0142 H   0  0  0  0  0  0
    8.0386   -0.8780   -1.8830 H   0  0  0  0  0  0
    9.1150   -2.2327   -1.4007 H   0  0  0  0  0  0
    6.9968   -3.2591   -1.0135 H   0  0  0  0  0  0
    6.2204   -1.7027   -0.5644 H   0  0  0  0  0  0
    7.9403   -0.4218    5.3190 H   0  0  0  0  0  0
   10.2167    1.3202    5.7458 H   0  0  0  0  0  0
   10.0608   -0.3576    6.3681 H   0  0  0  0  0  0
   11.4806    0.6759    3.9315 H   0  0  0  0  0  0
   11.9055   -0.6917    5.0158 H   0  0  0  0  0  0
   10.3653   -2.1718    3.9404 H   0  0  0  0  0  0
   10.8064   -1.1357    2.5409 H   0  0  0  0  0  0
    6.4367    0.9175    5.5814 H   0  0  0  0  0  0
    6.5186    3.2515    3.6850 H   0  0  0  0  0  0
    4.4794    1.7240    3.9669 H   0  0  0  0  0  0
    4.2673    2.4207    5.6089 H   0  0  0  0  0  0
    4.2127    3.1612    1.9818 H   0  0  0  0  0  0
    3.2898    4.5838    5.9083 H   0  0  0  0  0  0
    2.9091    5.0042    1.0064 H   0  0  0  0  0  0
    1.9814    6.4308    4.9263 H   0  0  0  0  0  0
    1.5664    6.9314    1.2700 H   0  0  0  0  0  0
    7.2684    5.1713    4.2291 H   0  0  0  0  0  0
    7.1287    5.7966    7.2048 H   0  0  0  0  0  0
    8.6926    7.1934    4.9588 H   0  0  0  0  0  0
    8.8188    7.5558    6.7136 H   0  0  0  0  0  0
   10.6670    5.9981    5.9830 H   0  0  0  0  0  0
    7.1485    7.8983    4.2277 H   0  0  0  0  0  0
    4.5331    8.9947    5.3602 H   0  0  0  0  0  0
    6.4496   10.6154    5.5558 H   0  0  0  0  0  0
    6.6410   10.5662    3.7704 H   0  0  0  0  0  0
    4.4009   11.5060    3.4870 H   0  0  0  0  0  0
    4.1640   11.5133    5.2675 H   0  0  0  0  0  0
    6.0144   13.0898    5.5332 H   0  0  0  0  0  0
    6.3345   13.0422    3.7664 H   0  0  0  0  0  0
    3.5168   13.8074    4.2907 H   0  0  0  0  0  0
    6.9828   14.9432    4.4572 H   0  0  0  0  0  0
    6.4635   16.7552    4.1792 H   0  0  0  0  0  0
    2.9325   15.9211    3.9164 H   0  0  0  0  0  0
    6.5656    8.7229    2.3947 H   0  0  0  0  0  0
    3.9169    8.3431    0.9081 H   0  0  0  0  0  0
    6.5462    9.6359    0.0054 H   0  0  0  0  0  0
    5.2845    9.1180   -1.1636 H   0  0  0  0  0  0
    6.1553   11.5207    1.4917 H   0  0  0  0  0  0
    3.1945   10.3341   -1.3538 H   0  0  0  0  0  0
    5.0102   13.6786    1.7907 H   0  0  0  0  0  0
    2.0499   12.5018   -1.0654 H   0  0  0  0  0  0
    3.2401   15.1698    1.2506 H   0  0  0  0  0  0
    5.4281    4.3309   -0.1131 H   0  0  0  0  0  0
    4.1287    3.8989   -2.5545 H   0  0  0  0  0  0
    3.2299    3.9127   -0.9993 H   0  0  0  0  0  0
    3.5754    6.1112   -3.0516 H   0  0  0  0  0  0
    2.0920    5.5916   -2.1820 H   0  0  0  0  0  0
    2.7079    6.7417   -0.1992 H   0  0  0  0  0  0
    3.5704    7.7862   -1.3790 H   0  0  0  0  0  0
    7.1305    3.4134   -0.8449 H   0  0  0  0  0  0
    8.1140    4.4447   -3.5327 H   0  0  0  0  0  0
   10.4659    4.6009   -2.6614 H   0  0  0  0  0  0
    9.3620    5.7527   -1.8359 H   0  0  0  0  0  0
    9.2369    4.2535    0.0971 H   0  0  0  0  0  0
   10.3305    3.0922   -0.7287 H   0  0  0  0  0  0
   11.6176    7.3729    0.5310 H   0  0  0  0  0  0
    9.9703    6.7132    0.8105 H   0  0  0  0  0  0
   10.5338    7.0430   -0.8630 H   0  0  0  0  0  0
    8.6436    2.8616   -4.8830 H   0  0  0  0  0  0
    9.2761    0.1837   -3.5519 H   0  0  0  0  0  0
   10.6760    1.0928   -7.3944 H   0  0  0  0  0  0
    6.8851    0.1685   -4.2603 H   0  0  0  0  0  0
    7.3686    0.6370   -5.9257 H   0  0  0  0  0  0
    8.0480   -2.7377   -6.8871 H   0  0  0  0  0  0
  1  2  1  0  0  0
  1126  1  0  0  0
  1127  1  0  0  0
  1128  1  0  0  0
  2  3  1  0  0  0
  2  5  1  0  0  0
  2129  1  0  0  0
  3  4  2  0  0  0
  3 10  1  0  0  0
  5  6  1  0  0  0
  5130  1  0  0  0
  5131  1  0  0  0
  6  7  1  0  0  0
  6132  1  0  0  0
  6133  1  0  0  0
  7  8  2  0  0  0
  7  9  1  0  0  0
  9134  1  0  0  0
 10 11  1  0  0  0
 10135  1  0  0  0
 11 12  1  0  0  0
 11 14  1  0  0  0
 11136  1  0  0  0
 12 13  2  0  0  0
 12 18  1  0  0  0
 14 15  1  0  0  0
 14137  1  0  0  0
 14138  1  0  0  0
 15 16  1  0  0  0
 15 17  1  0  0  0
 15139  1  0  0  0
 16140  1  0  0  0
 16141  1  0  0  0
 16142  1  0  0  0
 17143  1  0  0  0
 17144  1  0  0  0
 17145  1  0  0  0
 18 19  1  0  0  0
 18146  1  0  0  0
 19 20  1  0  0  0
 19 22  1  0  0  0
 19147  1  0  0  0
 20 21  2  0  0  0
 20 27  1  0  0  0
 22 23  1  0  0  0
 22148  1  0  0  0
 22149  1  0  0  0
 23 24  1  0  0  0
 23150  1  0  0  0
 23151  1  0  0  0
 24 25  1  0  0  0
 24 26  2  0  0  0
 25152  1  0  0  0
 27 28  1  0  0  0
 27153  1  0  0  0
 28 29  1  0  0  0
 28 31  1  0  0  0
 28154  1  0  0  0
 29 30  2  0  0  0
 29 33  1  0  0  0
 31 32  1  0  0  0
 31155  1  0  0  0
 31156  1  0  0  0
 32157  1  0  0  0
 33 34  1  0  0  0
 33 39  1  0  0  0
 34 35  1  0  0  0
 34 37  1  0  0  0
 34158  1  0  0  0
 35 36  2  0  0  0
 35 40  1  0  0  0
 37 38  1  0  0  0
 37159  1  0  0  0
 37160  1  0  0  0
 38 39  1  0  0  0
 38161  1  0  0  0
 38162  1  0  0  0
 39163  1  0  0  0
 39164  1  0  0  0
 40 41  1  0  0  0
 40 46  1  0  0  0
 41 42  1  0  0  0
 41 44  1  0  0  0
 41165  1  0  0  0
 42 43  2  0  0  0
 42 47  1  0  0  0
 44 45  1  0  0  0
 44166  1  0  0  0
 44167  1  0  0  0
 45 46  1  0  0  0
 45168  1  0  0  0
 45169  1  0  0  0
 46170  1  0  0  0
 46171  1  0  0  0
 47 48  1  0  0  0
 47 53  1  0  0  0
 48 49  1  0  0  0
 48 51  1  0  0  0
 48172  1  0  0  0
 49 50  2  0  0  0
 49 54  1  0  0  0
 51 52  1  0  0  0
 51173  1  0  0  0
 51174  1  0  0  0
 52 53  1  0  0  0
 52175  1  0  0  0
 52176  1  0  0  0
 53177  1  0  0  0
 53178  1  0  0  0
 54 55  1  0  0  0
 54 60  1  0  0  0
 55 56  1  0  0  0
 55 58  1  0  0  0
 55179  1  0  0  0
 56 57  2  0  0  0
 56 61  1  0  0  0
 58 59  1  0  0  0
 58180  1  0  0  0
 58181  1  0  0  0
 59 60  1  0  0  0
 59182  1  0  0  0
 59183  1  0  0  0
 60184  1  0  0  0
 60185  1  0  0  0
 61 62  1  0  0  0
 61186  1  0  0  0
 62 63  1  0  0  0
 62 65  1  0  0  0
 62187  1  0  0  0
 63 64  2  0  0  0
 63 73  1  0  0  0
 65 66  1  0  0  0
 65188  1  0  0  0
 65189  1  0  0  0
 66 67  2  0  0  0
 66 68  1  0  0  0
 67 69  1  0  0  0
 67190  1  0  0  0
 68 70  2  0  0  0
 68191  1  0  0  0
 69 71  2  0  0  0
 69192  1  0  0  0
 70 71  1  0  0  0
 70193  1  0  0  0
 71 72  1  0  0  0
 72194  1  0  0  0
 73 74  1  0  0  0
 73195  1  0  0  0
 74 75  1  0  0  0
 74 77  1  0  0  0
 74196  1  0  0  0
 75 76  2  0  0  0
 75 79  1  0  0  0
 77 78  1  0  0  0
 77197  1  0  0  0
 77198  1  0  0  0
 78199  1  0  0  0
 79 80  1  0  0  0
 79200  1  0  0  0
 80 81  1  0  0  0
 80 83  1  0  0  0
 80201  1  0  0  0
 81 82  2  0  0  0
 81 90  1  0  0  0
 83 84  1  0  0  0
 83202  1  0  0  0
 83203  1  0  0  0
 84 85  1  0  0  0
 84204  1  0  0  0
 84205  1  0  0  0
 85 86  1  0  0  0
 85206  1  0  0  0
 85207  1  0  0  0
 86 87  1  0  0  0
 86208  1  0  0  0
 87 88  1  0  0  0
 87 89  2  0  0  0
 88209  1  0  0  0
 88210  1  0  0  0
 89211  1  0  0  0
 90 91  1  0  0  0
 90212  1  0  0  0
 91 92  1  0  0  0
 91 94  1  0  0  0
 91213  1  0  0  0
 92 93  2  0  0  0
 92102  1  0  0  0
 94 95  1  0  0  0
 94214  1  0  0  0
 94215  1  0  0  0
 95 96  2  0  0  0
 95 97  1  0  0  0
 96 98  1  0  0  0
 96216  1  0  0  0
 97 99  2  0  0  0
 97217  1  0  0  0
 98100  2  0  0  0
 98218  1  0  0  0
 99100  1  0  0  0
 99219  1  0  0  0
100101  1  0  0  0
101220  1  0  0  0
102103  1  0  0  0
102108  1  0  0  0
103104  1  0  0  0
103106  1  0  0  0
103221  1  0  0  0
104105  2  0  0  0
104109  1  0  0  0
106107  1  0  0  0
106222  1  0  0  0
106223  1  0  0  0
107108  1  0  0  0
107224  1  0  0  0
107225  1  0  0  0
108226  1  0  0  0
108227  1  0  0  0
109110  1  0  0  0
109228  1  0  0  0
110111  1  0  0  0
110113  1  0  0  0
110229  1  0  0  0
111112  2  0  0  0
111117  1  0  0  0
113114  1  0  0  0
113230  1  0  0  0
113231  1  0  0  0
114115  1  0  0  0
114232  1  0  0  0
114233  1  0  0  0
115116  1  0  0  0
116234  1  0  0  0
116235  1  0  0  0
116236  1  0  0  0
117118  1  0  0  0
117237  1  0  0  0
118119  1  0  0  0
118121  1  0  0  0
118238  1  0  0  0
119120  1  0  0  0
119125  2  0  0  0
120239  1  0  0  0
121122  1  0  0  0
121240  1  0  0  0
121241  1  0  0  0
122123  2  0  0  0
122124  1  0  0  0
124242  1  0  0  0
M  CHG  1   1   1
M  END
> <s_m_source_file>
../2lty_ligand.sdf

> <i_m_source_file_index>
1

> <s_epik_input>
Tz1DKFtPSF0pW0NIMl1bQ0gyXVtDQEhdKFtOSDMrXSlDKD1PKVtOSF1bQ0BASF0oW0NIMl1bQ0hdKFtDSDNdKVtDSDNdKUMoPU8pW05IXVtDQEBIXShbQ0gyXVtDSDJdQyg9TylbT0hdKUMoPU8pW05IXVtDQEBIXShbQ0gyXVtPSF0pQyg9TylOMVtDQEBIXShbQ0gyXVtDSDJdW0NIMl0xKUMoPU8pTjJbQ0BASF0oW0NIMl1bQ0gyXVtDSDJdMilDKD1PKU4zW0NAQEhdKFtDSDJdW0NIMl1bQ0gyXTMpQyg9TylONFtDQEBIXShbQ0gyXVtDSDJdW0NIMl00KUMoPU8pW05IXVtDQEBIXShbQ0gyXWM1W2NIXVtjSF1jKFtPSF0pW2NIXVtjSF01KUMoPU8pW05IXVtDQEBIXShbQ0gyXVtPSF0pQyg9TylbTkhdW0NAQEhdKFtDSDJdW0NIMl1bQ0gyXVtOSF0vQyhbTkgyXSk9TlxbSF0pQyg9TylbTkhdW0NAQEhdKFtDSDJdYzZbY0hdW2NIXWMoW09IXSlbY0hdW2NIXTYpQyg9TylON1tDQEBIXShbQ0gyXVtDSDJdW0NIMl03KUMoPU8pW05IXVtDQEBIXShbQ0gyXVtDSDJdU1tDSDNdKUMoPU8pW05IXVtDQEhdKEMoPU8pW09IXSlbQ0gyXUMoPU8pW09IXQ==

> <s_epik_cmdline>
J2VwaWtfYXBwJywgJy1pbWFlJywgJ2xpZ2FuZF9wcm8ubWFlJywgJy1vbWFlJywgJ2xpZ2FuZF9wcmVwLm1hZScsICctbXMnLCAnMScsICctcGgnLCAnNycsICctcGh0JywgJzAuNScsICctbnQn

> <s_epik_pKa_notes>
Molecule size exceeds maximum supported for generating protonation states

> <s_epik_Chemistry_Notes>
This compound has an imine and may undergo hydrolysis.

$$$$
