2ltz_ligand
                    3D
 Schrodinger Suite 2020-3.
242248  0  0  1  0            999 V2000
    3.6300   -8.9880   -6.2230 N   0  3  0  0  0  0
    2.9130   -9.1540   -4.9390 C   0  0  2  0  0  0
    2.3610  -10.5690   -4.8360 C   0  0  0  0  0  0
    1.6570  -11.0310   -5.7320 O   0  0  0  0  0  0
    1.7680   -8.1320   -4.8120 C   0  0  0  0  0  0
    2.2270   -6.6790   -4.7130 C   0  0  0  0  0  0
    2.9170   -6.1840   -5.9690 C   0  0  0  0  0  0
    4.1370   -6.4020   -6.1040 O   0  0  0  0  0  0
    2.2430   -5.5940   -6.8330 O   0  0  0  0  0  0
    2.6910  -11.2560   -3.7450 N   0  0  0  0  0  0
    2.2060  -12.6150   -3.5120 C   0  0  2  0  0  0
    0.7020  -12.6160   -3.2500 C   0  0  0  0  0  0
    0.0290  -13.6380   -3.3850 O   0  0  0  0  0  0
    2.9450  -13.2520   -2.3320 C   0  0  0  0  0  0
    2.6170  -14.7250   -2.0700 C   0  0  0  0  0  0
    3.0780  -15.5930   -3.2320 C   0  0  0  0  0  0
    3.2500  -15.1880   -0.7680 C   0  0  0  0  0  0
    0.1880  -11.4650   -2.8590 N   0  0  0  0  0  0
   -1.2350  -11.2950   -2.6490 C   0  0  2  0  0  0
   -1.8950  -10.9170   -3.9750 C   0  0  0  0  0  0
   -1.2070  -10.5460   -4.9270 O   0  0  0  0  0  0
   -1.4640  -10.2150   -1.5790 C   0  0  0  0  0  0
   -2.9220   -9.9830   -1.2040 C   0  0  0  0  0  0
   -3.6520  -11.2630   -0.8500 C   0  0  0  0  0  0
   -3.5250  -11.7380    0.2980 O   0  0  0  0  0  0
   -4.3560  -11.8040   -1.7300 O   0  0  0  0  0  0
   -3.2120  -11.0460   -4.0330 N   0  0  0  0  0  0
   -3.9980  -10.6520   -5.1940 C   0  0  2  0  0  0
   -3.6520   -9.2560   -5.6800 C   0  0  0  0  0  0
   -3.2220   -8.3890   -4.9220 O   0  0  0  0  0  0
   -5.4770  -10.7460   -4.8630 C   0  0  0  0  0  0
   -5.7390  -10.3850   -3.5120 O   0  0  0  0  0  0
   -3.8890   -9.0640   -6.9700 N   0  0  0  0  0  0
   -3.6090   -7.8230   -7.6890 C   0  0  2  0  0  0
   -4.1510   -6.5990   -6.9450 C   0  0  0  0  0  0
   -5.3550   -6.5010   -6.6910 O   0  0  0  0  0  0
   -4.3710   -8.0100   -9.0060 C   0  0  0  0  0  0
   -4.5270   -9.4860   -9.1880 C   0  0  0  0  0  0
   -4.4100  -10.1210   -7.8270 C   0  0  0  0  0  0
   -3.2660   -5.6540   -6.5700 N   0  0  0  0  0  0
   -3.6370   -4.5170   -5.7340 C   0  0  2  0  0  0
   -4.2980   -3.3690   -6.5010 C   0  0  0  0  0  0
   -4.2570   -3.3160   -7.7340 O   0  0  0  0  0  0
   -2.3020   -4.0510   -5.1270 C   0  0  0  0  0  0
   -1.2320   -4.9070   -5.7290 C   0  0  0  0  0  0
   -1.8380   -5.6180   -6.9050 C   0  0  0  0  0  0
   -4.9170   -2.4390   -5.7450 N   0  0  0  0  0  0
   -5.5450   -1.2270   -6.2880 C   0  0  2  0  0  0
   -4.6320   -0.4680   -7.2570 C   0  0  0  0  0  0
   -3.4490   -0.2670   -6.9740 O   0  0  0  0  0  0
   -5.7920   -0.3560   -5.0470 C   0  0  0  0  0  0
   -5.6970   -1.2480   -3.8590 C   0  0  0  0  0  0
   -5.0720   -2.5430   -4.2860 C   0  0  0  0  0  0
   -5.1780   -0.0360   -8.4100 N   0  0  0  0  0  0
   -4.4450    0.7830   -9.3880 C   0  0  2  0  0  0
   -3.8550    2.0280   -8.7340 C   0  0  0  0  0  0
   -4.4870    2.6300   -7.8600 O   0  0  0  0  0  0
   -5.5210    1.1740  -10.4040 C   0  0  0  0  0  0
   -6.5550    0.1100  -10.2890 C   0  0  0  0  0  0
   -6.5560   -0.3120   -8.8470 C   0  0  0  0  0  0
   -2.6590    2.4250   -9.1630 N   0  0  0  0  0  0
   -1.9330    3.4940   -8.4900 C   0  0  2  0  0  0
   -2.6360    4.8460   -8.5870 C   0  0  0  0  0  0
   -2.5310    5.5660   -9.5820 O   0  0  0  0  0  0
   -0.5000    3.6220   -8.9990 C   0  0  0  0  0  0
    0.3420    4.5570   -8.1530 C   0  0  0  0  0  0
    0.6580    4.2220   -6.8440 C   0  0  0  0  0  0
    0.8250    5.7640   -8.6530 C   0  0  0  0  0  0
    1.4270    5.0530   -6.0590 C   0  0  0  0  0  0
    1.5970    6.6040   -7.8630 C   0  0  0  0  0  0
    1.8930    6.2380   -6.5690 C   0  0  0  0  0  0
    2.6700    7.0530   -5.7810 O   0  0  0  0  0  0
   -3.3980    5.1340   -7.5600 N   0  0  0  0  0  0
   -3.8600    6.4660   -7.2640 C   0  0  2  0  0  0
   -3.2090    6.8490   -5.9490 C   0  0  0  0  0  0
   -2.9210    5.9590   -5.1450 O   0  0  0  0  0  0
   -5.3890    6.5010   -7.1790 C   0  0  0  0  0  0
   -5.8930    5.4250   -6.4050 O   0  0  0  0  0  0
   -2.9500    8.1320   -5.7150 N   0  0  0  0  0  0
   -2.1650    8.5110   -4.5470 C   0  0  2  0  0  0
   -2.8730    8.0250   -3.2980 C   0  0  0  0  0  0
   -2.2810    7.3620   -2.4500 O   0  0  0  0  0  0
   -2.0040   10.0310   -4.4190 C   0  0  0  0  0  0
   -1.4810   10.7460   -5.6400 C   0  0  0  0  0  0
   -1.2610   12.2300   -5.3740 C   0  0  0  0  0  0
   -0.7230   12.4760   -4.0360 N   0  0  0  0  0  0
    0.4390   13.0740   -3.7820 C   0  0  0  0  0  0
    1.2000   13.5120   -4.7740 N   0  0  0  0  0  0
    0.8230   13.2500   -2.5230 N   0  0  0  0  0  0
   -4.1280    8.4120   -3.1740 N   0  0  0  0  0  0
   -4.9500    7.9920   -2.0620 C   0  0  2  0  0  0
   -6.1640    7.2410   -2.5820 C   0  0  0  0  0  0
   -7.1810    7.8400   -2.9300 O   0  0  0  0  0  0
   -5.3190    9.2120   -1.2050 C   0  0  0  0  0  0
   -4.0970   10.0600   -0.9150 C   0  0  0  0  0  0
   -3.5610   10.8830   -1.8990 C   0  0  0  0  0  0
   -3.4320    9.9810    0.2990 C   0  0  0  0  0  0
   -2.4070   11.5970   -1.6900 C   0  0  0  0  0  0
   -2.2780   10.7090    0.5230 C   0  0  0  0  0  0
   -1.7660   11.5100   -0.4760 C   0  0  0  0  0  0
   -0.5950   12.2020   -0.2630 O   0  0  0  0  0  0
   -6.0320    5.9180   -2.6980 N   0  0  0  0  0  0
   -7.0720    5.0600   -3.2430 C   0  0  2  0  0  0
   -8.1510    4.7910   -2.2070 C   0  0  0  0  0  0
   -7.8600    4.3220   -1.1100 O   0  0  0  0  0  0
   -6.3310    3.7690   -3.6220 C   0  0  0  0  0  0
   -4.9440    3.8750   -3.0500 C   0  0  0  0  0  0
   -4.8530    5.1580   -2.2780 C   0  0  0  0  0  0
   -9.3950    5.0940   -2.5450 N   0  0  0  0  0  0
  -10.4670    5.0110   -1.5670 C   0  0  2  0  0  0
  -11.0450    3.6040   -1.4810 C   0  0  0  0  0  0
  -11.8000    3.1670   -2.3540 O   0  0  0  0  0  0
  -11.5760    6.0230   -1.8610 C   0  0  0  0  0  0
  -12.6190    6.0910   -0.7570 C   0  0  0  0  0  0
  -13.8810    7.3450   -1.0520 S   0  0  0  0  0  0
  -14.8420    7.2090    0.4550 C   0  0  0  0  0  0
  -10.6450    2.9020   -0.4360 N   0  0  0  0  0  0
  -11.1970    1.5980   -0.0950 C   0  0  2  0  0  0
  -10.8700    1.3100    1.3550 C   0  0  0  0  0  0
   -9.6690    1.1760    1.6560 O   0  0  0  0  0  0
  -10.6200    0.4870   -0.9730 C   0  0  0  0  0  0
  -11.3760   -0.8200   -0.8060 C   0  0  0  0  0  0
  -12.3990   -1.0050   -1.5040 O   0  0  0  0  0  0
  -10.9570   -1.6700    0.0040 O   0  0  0  0  0  0
  -11.7940    1.2650    2.1870 O   0  0  0  0  0  0
    4.4410   -9.7283   -6.2884 H   0  0  0  0  0  0
    4.0535   -7.9743   -6.2781 H   0  0  0  0  0  0
    2.9284   -9.1381   -7.0568 H   0  0  0  0  0  0
    3.6529   -8.9826   -4.1433 H   0  0  0  0  0  0
    1.1143   -8.2024   -5.6939 H   0  0  0  0  0  0
    1.1841   -8.3463   -3.9047 H   0  0  0  0  0  0
    1.3563   -6.0308   -4.5347 H   0  0  0  0  0  0
    2.9381   -6.5750   -3.8802 H   0  0  0  0  0  0
    4.6615   -6.0534   -7.0059 H   0  0  0  0  0  0
    3.3484  -10.7726   -3.0074 H   0  0  0  0  0  0
    2.4206  -13.1676   -4.4386 H   0  0  0  0  0  0
    4.0296  -13.2011   -2.5080 H   0  0  0  0  0  0
    2.6976  -12.7088   -1.4080 H   0  0  0  0  0  0
    1.5264  -14.8339   -1.9764 H   0  0  0  0  0  0
    2.6083  -15.2403   -4.1620 H   0  0  0  0  0  0
    2.7869  -16.6376   -3.0474 H   0  0  0  0  0  0
    4.1720  -15.5284   -3.3264 H   0  0  0  0  0  0
    2.9032  -14.5476    0.0564 H   0  0  0  0  0  0
    4.3450  -15.1212   -0.8486 H   0  0  0  0  0  0
    2.9599  -16.2303   -0.5696 H   0  0  0  0  0  0
    0.8733  -10.6208   -2.6923 H   0  0  0  0  0  0
   -1.6346  -12.2587   -2.3003 H   0  0  0  0  0  0
   -0.9410  -10.4988   -0.6538 H   0  0  0  0  0  0
   -1.0735   -9.2522   -1.9403 H   0  0  0  0  0  0
   -2.9744   -9.3157   -0.3311 H   0  0  0  0  0  0
   -3.4494   -9.5205   -2.0513 H   0  0  0  0  0  0
   -4.8989  -12.7340   -1.5053 H   0  0  0  0  0  0
   -3.7107  -11.4731   -3.1504 H   0  0  0  0  0  0
   -3.7251  -11.3660   -5.9851 H   0  0  0  0  0  0
   -6.0432  -10.0676   -5.5182 H   0  0  0  0  0  0
   -5.8226  -11.7787   -5.0181 H   0  0  0  0  0  0
   -6.7693  -10.4054   -3.1271 H   0  0  0  0  0  0
   -2.5225   -7.6831   -7.7891 H   0  0  0  0  0  0
   -5.3499   -7.5131   -8.9369 H   0  0  0  0  0  0
   -3.7925   -7.5675   -9.8304 H   0  0  0  0  0  0
   -5.5117   -9.6989   -9.6296 H   0  0  0  0  0  0
   -3.7370   -9.8585   -9.8567 H   0  0  0  0  0  0
   -3.7093  -10.9690   -7.8305 H   0  0  0  0  0  0
   -5.3867  -10.4540   -7.4460 H   0  0  0  0  0  0
   -4.3931   -4.8621   -5.0134 H   0  0  0  0  0  0
   -2.1382   -2.9911   -5.3715 H   0  0  0  0  0  0
   -2.3329   -4.1747   -4.0344 H   0  0  0  0  0  0
   -0.3932   -4.2727   -6.0516 H   0  0  0  0  0  0
   -0.8774   -5.6312   -4.9807 H   0  0  0  0  0  0
   -1.4617   -6.6455   -7.0172 H   0  0  0  0  0  0
   -1.6964   -5.0706   -7.8485 H   0  0  0  0  0  0
   -6.4428   -1.5170   -6.8535 H   0  0  0  0  0  0
   -5.0310    0.4368   -4.9981 H   0  0  0  0  0  0
   -6.7916    0.0987   -5.1112 H   0  0  0  0  0  0
   -5.0764   -0.7674   -3.0883 H   0  0  0  0  0  0
   -6.7042   -1.4315   -3.4568 H   0  0  0  0  0  0
   -5.7180   -3.4004   -4.0461 H   0  0  0  0  0  0
   -4.0851   -2.6863   -3.8217 H   0  0  0  0  0  0
   -3.6025    0.2183   -9.8138 H   0  0  0  0  0  0
   -5.9245    2.1647  -10.1477 H   0  0  0  0  0  0
   -5.0797    1.2071  -11.4110 H   0  0  0  0  0  0
   -7.5335    0.5161  -10.5850 H   0  0  0  0  0  0
   -6.2918   -0.7299  -10.9488 H   0  0  0  0  0  0
   -6.7721   -1.3835   -8.7236 H   0  0  0  0  0  0
   -7.2585    0.2762   -8.2383 H   0  0  0  0  0  0
   -2.2199    1.9306  -10.0421 H   0  0  0  0  0  0
   -1.9363    3.1575   -7.4427 H   0  0  0  0  0  0
   -0.0177    2.6334   -8.9890 H   0  0  0  0  0  0
   -0.5095    4.0150  -10.0264 H   0  0  0  0  0  0
    0.2908    3.2834   -6.4289 H   0  0  0  0  0  0
    0.5935    6.0525   -9.6783 H   0  0  0  0  0  0
    1.6648    4.7691   -5.0338 H   0  0  0  0  0  0
    1.9667    7.5476   -8.2643 H   0  0  0  0  0  0
    2.9046    6.7577   -4.7477 H   0  0  0  0  0  0
   -3.6835    4.2953   -6.9081 H   0  0  0  0  0  0
   -3.5534    7.1397   -8.0777 H   0  0  0  0  0  0
   -5.7088    7.4443   -6.7123 H   0  0  0  0  0  0
   -5.8142    6.4300   -8.1910 H   0  0  0  0  0  0
   -6.9772    5.3169   -6.2536 H   0  0  0  0  0  0
   -3.3262    8.9064   -6.3997 H   0  0  0  0  0  0
   -1.1875    8.0303   -4.7004 H   0  0  0  0  0  0
   -2.9801   10.4854   -4.1939 H   0  0  0  0  0  0
   -1.2979   10.2578   -3.6066 H   0  0  0  0  0  0
   -0.5205   10.3025   -5.9413 H   0  0  0  0  0  0
   -2.2051   10.6456   -6.4620 H   0  0  0  0  0  0
   -0.5483   12.6325   -6.1089 H   0  0  0  0  0  0
   -2.2186   12.7641   -5.4614 H   0  0  0  0  0  0
   -1.2899   12.1587   -3.1484 H   0  0  0  0  0  0
    0.8819   13.3662   -5.8169 H   0  0  0  0  0  0
    0.1911   12.8863   -1.6993 H   0  0  0  0  0  0
    1.7730   13.7595   -2.3038 H   0  0  0  0  0  0
   -4.5455    9.0732   -3.9477 H   0  0  0  0  0  0
   -4.3536    7.2953   -1.4546 H   0  0  0  0  0  0
   -6.0566    9.8271   -1.7412 H   0  0  0  0  0  0
   -5.7485    8.8733   -0.2506 H   0  0  0  0  0  0
   -4.0693   10.9634   -2.8599 H   0  0  0  0  0  0
   -3.8237    9.3371    1.0865 H   0  0  0  0  0  0
   -2.0016   12.2284   -2.4806 H   0  0  0  0  0  0
   -1.7738   10.6499    1.4876 H   0  0  0  0  0  0
   -0.1824   12.8423   -1.0566 H   0  0  0  0  0  0
   -7.5673    5.5553   -4.0911 H   0  0  0  0  0  0
   -6.8616    2.9037   -3.1980 H   0  0  0  0  0  0
   -6.2939    3.6756   -4.7174 H   0  0  0  0  0  0
   -4.7552    3.0192   -2.3852 H   0  0  0  0  0  0
   -4.2088    3.8728   -3.8682 H   0  0  0  0  0  0
   -3.9437    5.7247   -2.5270 H   0  0  0  0  0  0
   -4.8936    4.9887   -1.1919 H   0  0  0  0  0  0
   -9.6139    5.4106   -3.5755 H   0  0  0  0  0  0
   -9.9739    5.2612   -0.6161 H   0  0  0  0  0  0
  -11.1375    7.0258   -1.9712 H   0  0  0  0  0  0
  -12.0902    5.7433   -2.7923 H   0  0  0  0  0  0
  -13.1280    5.1195   -0.6731 H   0  0  0  0  0  0
  -12.1276    6.3311    0.1974 H   0  0  0  0  0  0
  -15.6725    7.9298    0.4266 H   0  0  0  0  0  0
  -14.1987    7.4247    1.3208 H   0  0  0  0  0  0
  -15.2446    6.1890    0.5424 H   0  0  0  0  0  0
   -9.8567    3.3462    0.1895 H   0  0  0  0  0  0
  -12.2812    1.6687   -0.2670 H   0  0  0  0  0  0
   -9.3831    0.9658    2.6972 H   0  0  0  0  0  0
  -10.6802    0.7863   -2.0298 H   0  0  0  0  0  0
   -9.5686    0.3131   -0.7006 H   0  0  0  0  0  0
  -12.9691   -1.9407   -1.4071 H   0  0  0  0  0  0
  1  2  1  0  0  0
  1126  1  0  0  0
  1127  1  0  0  0
  1128  1  0  0  0
  2  3  1  0  0  0
  2  5  1  0  0  0
  2129  1  0  0  0
  3  4  2  0  0  0
  3 10  1  0  0  0
  5  6  1  0  0  0
  5130  1  0  0  0
  5131  1  0  0  0
  6  7  1  0  0  0
  6132  1  0  0  0
  6133  1  0  0  0
  7  8  1  0  0  0
  7  9  2  0  0  0
  8134  1  0  0  0
 10 11  1  0  0  0
 10135  1  0  0  0
 11 12  1  0  0  0
 11 14  1  0  0  0
 11136  1  0  0  0
 12 13  2  0  0  0
 12 18  1  0  0  0
 14 15  1  0  0  0
 14137  1  0  0  0
 14138  1  0  0  0
 15 16  1  0  0  0
 15 17  1  0  0  0
 15139  1  0  0  0
 16140  1  0  0  0
 16141  1  0  0  0
 16142  1  0  0  0
 17143  1  0  0  0
 17144  1  0  0  0
 17145  1  0  0  0
 18 19  1  0  0  0
 18146  1  0  0  0
 19 20  1  0  0  0
 19 22  1  0  0  0
 19147  1  0  0  0
 20 21  2  0  0  0
 20 27  1  0  0  0
 22 23  1  0  0  0
 22148  1  0  0  0
 22149  1  0  0  0
 23 24  1  0  0  0
 23150  1  0  0  0
 23151  1  0  0  0
 24 25  2  0  0  0
 24 26  1  0  0  0
 26152  1  0  0  0
 27 28  1  0  0  0
 27153  1  0  0  0
 28 29  1  0  0  0
 28 31  1  0  0  0
 28154  1  0  0  0
 29 30  2  0  0  0
 29 33  1  0  0  0
 31 32  1  0  0  0
 31155  1  0  0  0
 31156  1  0  0  0
 32157  1  0  0  0
 33 34  1  0  0  0
 33 39  1  0  0  0
 34 35  1  0  0  0
 34 37  1  0  0  0
 34158  1  0  0  0
 35 36  2  0  0  0
 35 40  1  0  0  0
 37 38  1  0  0  0
 37159  1  0  0  0
 37160  1  0  0  0
 38 39  1  0  0  0
 38161  1  0  0  0
 38162  1  0  0  0
 39163  1  0  0  0
 39164  1  0  0  0
 40 41  1  0  0  0
 40 46  1  0  0  0
 41 42  1  0  0  0
 41 44  1  0  0  0
 41165  1  0  0  0
 42 43  2  0  0  0
 42 47  1  0  0  0
 44 45  1  0  0  0
 44166  1  0  0  0
 44167  1  0  0  0
 45 46  1  0  0  0
 45168  1  0  0  0
 45169  1  0  0  0
 46170  1  0  0  0
 46171  1  0  0  0
 47 48  1  0  0  0
 47 53  1  0  0  0
 48 49  1  0  0  0
 48 51  1  0  0  0
 48172  1  0  0  0
 49 50  2  0  0  0
 49 54  1  0  0  0
 51 52  1  0  0  0
 51173  1  0  0  0
 51174  1  0  0  0
 52 53  1  0  0  0
 52175  1  0  0  0
 52176  1  0  0  0
 53177  1  0  0  0
 53178  1  0  0  0
 54 55  1  0  0  0
 54 60  1  0  0  0
 55 56  1  0  0  0
 55 58  1  0  0  0
 55179  1  0  0  0
 56 57  2  0  0  0
 56 61  1  0  0  0
 58 59  1  0  0  0
 58180  1  0  0  0
 58181  1  0  0  0
 59 60  1  0  0  0
 59182  1  0  0  0
 59183  1  0  0  0
 60184  1  0  0  0
 60185  1  0  0  0
 61 62  1  0  0  0
 61186  1  0  0  0
 62 63  1  0  0  0
 62 65  1  0  0  0
 62187  1  0  0  0
 63 64  2  0  0  0
 63 73  1  0  0  0
 65 66  1  0  0  0
 65188  1  0  0  0
 65189  1  0  0  0
 66 67  2  0  0  0
 66 68  1  0  0  0
 67 69  1  0  0  0
 67190  1  0  0  0
 68 70  2  0  0  0
 68191  1  0  0  0
 69 71  2  0  0  0
 69192  1  0  0  0
 70 71  1  0  0  0
 70193  1  0  0  0
 71 72  1  0  0  0
 72194  1  0  0  0
 73 74  1  0  0  0
 73195  1  0  0  0
 74 75  1  0  0  0
 74 77  1  0  0  0
 74196  1  0  0  0
 75 76  2  0  0  0
 75 79  1  0  0  0
 77 78  1  0  0  0
 77197  1  0  0  0
 77198  1  0  0  0
 78199  1  0  0  0
 79 80  1  0  0  0
 79200  1  0  0  0
 80 81  1  0  0  0
 80 83  1  0  0  0
 80201  1  0  0  0
 81 82  2  0  0  0
 81 90  1  0  0  0
 83 84  1  0  0  0
 83202  1  0  0  0
 83203  1  0  0  0
 84 85  1  0  0  0
 84204  1  0  0  0
 84205  1  0  0  0
 85 86  1  0  0  0
 85206  1  0  0  0
 85207  1  0  0  0
 86 87  1  0  0  0
 86208  1  0  0  0
 87 88  2  0  0  0
 87 89  1  0  0  0
 88209  1  0  0  0
 89210  1  0  0  0
 89211  1  0  0  0
 90 91  1  0  0  0
 90212  1  0  0  0
 91 92  1  0  0  0
 91 94  1  0  0  0
 91213  1  0  0  0
 92 93  2  0  0  0
 92102  1  0  0  0
 94 95  1  0  0  0
 94214  1  0  0  0
 94215  1  0  0  0
 95 96  2  0  0  0
 95 97  1  0  0  0
 96 98  1  0  0  0
 96216  1  0  0  0
 97 99  2  0  0  0
 97217  1  0  0  0
 98100  2  0  0  0
 98218  1  0  0  0
 99100  1  0  0  0
 99219  1  0  0  0
100101  1  0  0  0
101220  1  0  0  0
102103  1  0  0  0
102108  1  0  0  0
103104  1  0  0  0
103106  1  0  0  0
103221  1  0  0  0
104105  2  0  0  0
104109  1  0  0  0
106107  1  0  0  0
106222  1  0  0  0
106223  1  0  0  0
107108  1  0  0  0
107224  1  0  0  0
107225  1  0  0  0
108226  1  0  0  0
108227  1  0  0  0
109110  1  0  0  0
109228  1  0  0  0
110111  1  0  0  0
110113  1  0  0  0
110229  1  0  0  0
111112  2  0  0  0
111117  1  0  0  0
113114  1  0  0  0
113230  1  0  0  0
113231  1  0  0  0
114115  1  0  0  0
114232  1  0  0  0
114233  1  0  0  0
115116  1  0  0  0
116234  1  0  0  0
116235  1  0  0  0
116236  1  0  0  0
117118  1  0  0  0
117237  1  0  0  0
118119  1  0  0  0
118121  1  0  0  0
118238  1  0  0  0
119120  1  0  0  0
119125  2  0  0  0
120239  1  0  0  0
121122  1  0  0  0
121240  1  0  0  0
121241  1  0  0  0
122123  1  0  0  0
122124  2  0  0  0
123242  1  0  0  0
M  CHG  1   1   1
M  END
> <s_m_source_file>
../2ltz_ligand.sdf

> <i_m_source_file_index>
1

> <s_epik_input>
W09IXUMoPU8pW0NIMl1bQ0gyXVtDQEhdKFtOSDMrXSlDKD1PKVtOSF1bQ0BASF0oW0NIMl1bQ0hdKFtDSDNdKVtDSDNdKUMoPU8pW05IXVtDQEBIXShbQ0gyXVtDSDJdQyg9TylbT0hdKUMoPU8pW05IXVtDQEBIXShbQ0gyXVtPSF0pQyg9TylOMVtDQEBIXShbQ0gyXVtDSDJdW0NIMl0xKUMoPU8pTjJbQ0BASF0oW0NIMl1bQ0gyXVtDSDJdMilDKD1PKU4zW0NAQEhdKFtDSDJdW0NIMl1bQ0gyXTMpQyg9TylONFtDQEBIXShbQ0gyXVtDSDJdW0NIMl00KUMoPU8pW05IXVtDQEBIXShbQ0gyXWM1W2NIXVtjSF1jKFtPSF0pW2NIXVtjSF01KUMoPU8pW05IXVtDQEBIXShbQ0gyXVtPSF0pQyg9TylbTkhdW0NAQEhdKFtDSDJdW0NIMl1bQ0gyXVtOSF0vQyg9TlxbSF0pW05IMl0pQyg9TylbTkhdW0NAQEhdKFtDSDJdYzZbY0hdW2NIXWMoW09IXSlbY0hdW2NIXTYpQyg9TylON1tDQEBIXShbQ0gyXVtDSDJdW0NIMl03KUMoPU8pW05IXVtDQEBIXShbQ0gyXVtDSDJdU1tDSDNdKUMoPU8pW05IXVtDQEhdKEMoPU8pW09IXSlbQ0gyXUMoPU8pW09IXQ==

> <s_epik_cmdline>
J2VwaWtfYXBwJywgJy1pbWFlJywgJ2xpZ2FuZF9wcm8ubWFlJywgJy1vbWFlJywgJ2xpZ2FuZF9wcmVwLm1hZScsICctbXMnLCAnMScsICctcGgnLCAnNycsICctcGh0JywgJzAuNScsICctbnQn

> <s_epik_pKa_notes>
Molecule size exceeds maximum supported for generating protonation states

> <s_epik_Chemistry_Notes>
This compound has an imine and may undergo hydrolysis.

$$$$
