2lwi_ligand
                    3D
 Schrodinger Suite 2020-3.
 34 35  0  0  1  0            999 V2000
    6.9880  -13.7700    6.3420 C   0  0  0  0  0  0
    6.7130  -12.4180    6.5160 C   0  0  0  0  0  0
    5.6770  -12.0240    7.3560 C   0  0  0  0  0  0
    5.4150  -10.7140    7.5350 F   0  0  0  0  0  0
    4.9160  -12.9800    8.0180 C   0  0  0  0  0  0
    5.1910  -14.3310    7.8420 C   0  0  0  0  0  0
    6.2290  -14.7280    7.0050 C   0  0  0  0  0  0
    6.5120  -16.0160    6.8230 N   0  0  0  0  0  0
    5.8220  -16.9780    7.4310 C   0  0  0  0  0  0
    4.5090  -16.5970    8.5240 S   0  0  0  0  0  0
    6.1360  -18.2530    7.2210 N   0  0  0  0  0  0
    7.0600  -18.5580    6.4680 N   0  0  0  0  0  0
    6.8120  -18.8480    5.1930 C   0  0  0  0  0  0
    5.5070  -18.7960    4.7160 C   0  0  0  0  0  0
    5.2490  -19.1090    3.3860 C   0  0  0  0  0  0
    6.2880  -19.4690    2.5370 C   0  0  0  0  0  0
    6.0330  -19.7780    1.2680 N   0  3  0  0  0  0
    7.0950  -20.1450    0.3990 O   0  0  0  0  0  0
    4.6980  -19.7410    0.7840 O   0  5  0  0  0  0
    7.5920  -19.5160    3.0150 C   0  0  0  0  0  0
    7.8540  -19.2050    4.3450 C   0  0  0  0  0  0
    9.1030  -19.2560    4.8010 N   0  3  0  0  0  0
    9.3800  -18.9460    6.1600 O   0  0  0  0  0  0
   10.1620  -19.6230    3.9280 O   0  5  0  0  0  0
    7.8004  -14.0794    5.6844 H   0  0  0  0  0  0
    7.3084  -11.6683    5.9949 H   0  0  0  0  0  0
    4.1035  -12.6703    8.6753 H   0  0  0  0  0  0
    4.5927  -15.0803    8.3603 H   0  0  0  0  0  0
    7.3354  -16.3092    6.1551 H   0  0  0  0  0  0
    8.0916  -18.5911    6.8485 H   0  0  0  0  0  0
    4.6912  -18.5116    5.3806 H   0  0  0  0  0  0
    4.2273  -19.0717    3.0080 H   0  0  0  0  0  0
    8.4080  -19.7961    2.3488 H   0  0  0  0  0  0
    5.5587  -19.0391    7.7297 H   0  0  0  0  0  0
  1  2  2  0  0  0
  1  7  1  0  0  0
  1 25  1  0  0  0
  2  3  1  0  0  0
  2 26  1  0  0  0
  3  4  1  0  0  0
  3  5  2  0  0  0
  5  6  1  0  0  0
  5 27  1  0  0  0
  6  7  2  0  0  0
  6 28  1  0  0  0
  7  8  1  0  0  0
  8  9  1  0  0  0
  8 29  1  0  0  0
  9 10  2  0  0  0
  9 11  1  0  0  0
 11 12  1  0  0  0
 11 34  1  0  0  0
 12 13  1  0  0  0
 12 30  1  0  0  0
 13 14  2  0  0  0
 13 21  1  0  0  0
 14 15  1  0  0  0
 14 31  1  0  0  0
 15 16  2  0  0  0
 15 32  1  0  0  0
 16 17  1  0  0  0
 16 20  1  0  0  0
 17 18  2  0  0  0
 17 19  1  0  0  0
 20 21  2  0  0  0
 20 33  1  0  0  0
 21 22  1  0  0  0
 22 23  2  0  0  0
 22 24  1  0  0  0
M  CHG  4  17   1  19  -1  22   1  24  -1
M  END
> <s_m_source_file>
../2lwi_ligand.sdf

> <i_m_source_file_index>
1

> <s_epik_input>
RmMxW2NIXVtjSF1jKFtjSF1bY0hdMSlbTkhdL0MoW1NIXSk9TlxbTkhdYzJbY0hdW2NIXWMoW04rXSg9TylbTy1dKVtjSF1jMltOK10oPU8pW08tXQ==

> <s_epik_cmdline>
J2VwaWtfYXBwJywgJy1pbWFlJywgJ2xpZ2FuZF9wcm8ubWFlJywgJy1vbWFlJywgJ2xpZ2FuZF9wcmVwLm1hZScsICctbXMnLCAnMScsICctcGgnLCAnNycsICctcGh0JywgJzAuNScsICctbnQn

> <r_lp_tautomer_probability>
1

> <r_epik_Ionization_Penalty>
  0.0047

> <r_epik_Ionization_Penalty_Charging>
  0.0000

> <r_epik_Ionization_Penalty_Neutral>
  0.0047

> <r_epik_State_Penalty>
 -0.0000

> <r_epik_Charging_Adjusted_Penalty>
0

> <i_epik_Tot_Q>
0

> <i_epik_Tot_abs_Q>
4

$$$$
