2ly0_ligand
                    3D
 Schrodinger Suite 2020-3.
 45 49  0  0  1  0            999 V2000
    0.5140   11.4390   -0.8780 O   0  0  0  0  0  0
    0.5640   14.0600    0.2650 S   0  0  0  0  0  0
    0.5300   14.9720    1.4070 C   0  0  0  0  0  0
    0.2990   10.1870   -1.2340 N   0  0  0  0  0  0
    0.2360   14.3530    2.5530 C   0  0  0  0  0  0
    0.2070    7.3590    0.6510 N   0  3  0  0  0  0
    0.0590   13.0540    2.3000 C   0  0  0  0  0  0
   -0.3360   10.3910    0.7470 C   0  0  0  0  0  0
   -0.5770    8.0870   -0.3530 C   0  0  0  0  0  0
   -0.2090    9.5420   -0.2780 C   0  0  0  0  0  0
    0.1980    5.8760    0.6400 C   0  0  0  0  0  0
    0.1450   11.5900    0.2960 C   0  0  0  0  0  0
    0.2370   12.8020    0.9660 C   0  0  0  0  0  0
   -1.2250    5.2940    0.8890 C   0  0  0  0  0  0
    1.1140    5.3170    1.7630 C   0  0  0  0  0  0
    0.7170    5.2870   -0.7080 C   0  0  0  0  0  0
   -1.2070    3.7470    0.8980 C   0  0  2  0  0  0
    1.1260    3.7730    1.7740 C   0  0  1  0  0  0
    0.7230    3.7430   -0.6850 C   0  0  1  0  0  0
   -0.2880    3.2390    2.0150 C   0  0  0  0  0  0
    1.6420    3.2390    0.4340 C   0  0  0  0  0  0
   -0.7000    3.2210   -0.4500 C   0  0  0  0  0  0
    0.7238   16.0420    1.3312 H   0  0  0  0  0  0
    0.1543   14.8282    3.5306 H   0  0  0  0  0  0
    1.2692    7.6271    0.5517 H   0  0  0  0  0  0
   -0.1464    7.6275    1.6575 H   0  0  0  0  0  0
   -0.1913   12.3019    3.0482 H   0  0  0  0  0  0
   -0.7389   10.1733    1.7361 H   0  0  0  0  0  0
   -0.3483    7.6920   -1.3538 H   0  0  0  0  0  0
   -1.6494    7.9587   -0.1445 H   0  0  0  0  0  0
   -1.5995    5.6449    1.8619 H   0  0  0  0  0  0
   -1.9037    5.6310    0.0916 H   0  0  0  0  0  0
    2.1438    5.6702    1.6059 H   0  0  0  0  0  0
    0.7512    5.6675    2.7405 H   0  0  0  0  0  0
    0.0654    5.6207   -1.5290 H   0  0  0  0  0  0
    1.7440    5.6367   -0.8898 H   0  0  0  0  0  0
   -2.2275    3.3752    1.0720 H   0  0  0  0  0  0
    1.7879    3.4268    2.5814 H   0  0  0  0  0  0
    1.0929    3.3673   -1.6504 H   0  0  0  0  0  0
   -0.6600    3.5961    2.9867 H   0  0  0  0  0  0
   -0.2765    2.1391    2.0086 H   0  0  0  0  0  0
    2.6673    3.6003    0.2657 H   0  0  0  0  0  0
    1.6391    2.1391    0.4520 H   0  0  0  0  0  0
   -0.6945    2.1211   -0.4358 H   0  0  0  0  0  0
   -1.3626    3.5740   -1.2540 H   0  0  0  0  0  0
  1  4  1  0  0  0
  1 12  1  0  0  0
  2  3  1  0  0  0
  2 13  1  0  0  0
  3  5  2  0  0  0
  3 23  1  0  0  0
  4 10  2  0  0  0
  5  7  1  0  0  0
  5 24  1  0  0  0
  6  9  1  0  0  0
  6 11  1  0  0  0
  6 25  1  0  0  0
  6 26  1  0  0  0
  7 13  2  0  0  0
  7 27  1  0  0  0
  8 10  1  0  0  0
  8 12  2  0  0  0
  8 28  1  0  0  0
  9 10  1  0  0  0
  9 29  1  0  0  0
  9 30  1  0  0  0
 11 14  1  0  0  0
 11 15  1  0  0  0
 11 16  1  0  0  0
 12 13  1  0  0  0
 14 17  1  0  0  0
 14 31  1  0  0  0
 14 32  1  0  0  0
 15 18  1  0  0  0
 15 33  1  0  0  0
 15 34  1  0  0  0
 16 19  1  0  0  0
 16 35  1  0  0  0
 16 36  1  0  0  0
 17 20  1  0  0  0
 17 22  1  0  0  0
 17 37  1  0  0  0
 18 20  1  0  0  0
 18 21  1  0  0  0
 18 38  1  0  0  0
 19 21  1  0  0  0
 19 22  1  0  0  0
 19 39  1  0  0  0
 20 40  1  0  0  0
 20 41  1  0  0  0
 21 42  1  0  0  0
 21 43  1  0  0  0
 22 44  1  0  0  0
 22 45  1  0  0  0
M  CHG  1   6   1
M  END
> <s_m_source_file>
../2ly0_ligand.sdf

> <i_m_source_file_index>
1

> <s_epik_input>
W2NIXTFbY0hdW2NIXXNjMS1jKFtjSF0yKW9uYzJbQ0gyXVtOSDIrXUMzNFtDSDJdW0NAQEhdNVtDSDJdW0NASF0oW0NIMl0zKVtDSDJdW0NASF0oW0NIMl00KVtDSDJdNQ==

> <s_epik_cmdline>
J2VwaWtfYXBwJywgJy1pbWFlJywgJ2xpZ2FuZF9wcm8ubWFlJywgJy1vbWFlJywgJ2xpZ2FuZF9wcmVwLm1hZScsICctbXMnLCAnMScsICctcGgnLCAnNycsICctcGh0JywgJzAuNScsICctbnQn

> <r_lp_tautomer_probability>
1

> <r_epik_Ionization_Penalty>
  0.0090

> <r_epik_Ionization_Penalty_Charging>
  0.0090

> <r_epik_Ionization_Penalty_Neutral>
  0.0000

> <r_epik_State_Penalty>
 -0.0000

> <r_epik_Charging_Adjusted_Penalty>
0.00899865063901597

> <i_epik_Tot_Q>
1

> <i_epik_Tot_abs_Q>
1

$$$$
