2lya_ligand
                    3D
 Schrodinger Suite 2020-3.
 82 81  0  0  1  0            999 V2000
    7.7810   14.4600  -29.1910 O   0  0  0  0  0  0
    9.3500   12.5470  -28.8570 O   0  5  0  0  0  0
    8.4450   13.6490  -28.1680 P   0  0  1  0  0  0
    9.3720   14.5210  -27.1990 O   0  0  0  0  0  0
   10.6150   15.0290  -27.7240 C   0  0  0  0  0  0
   11.4130   15.9080  -26.7220 C   0  0  0  0  0  0
   11.8910   15.2670  -25.4240 N   0  3  0  0  0  0
   12.5730   13.9380  -25.6580 C   0  0  0  0  0  0
   12.9050   16.2040  -24.8090 C   0  0  0  0  0  0
   10.7550   15.0700  -24.4450 C   0  0  0  0  0  0
    7.3640   12.8840  -27.2640 O   0  0  0  0  0  0
    6.1700   13.6140  -26.8910 C   0  0  0  0  0  0
    4.8520   12.7930  -27.0240 C   0  0  1  0  0  0
    4.9520   11.3480  -26.4820 C   0  0  0  0  0  0
    5.8850   10.5850  -27.2540 O   0  0  0  0  0  0
    7.0950   10.1170  -26.8340 C   0  0  0  0  0  0
    7.4280   10.1960  -25.6270 O   0  0  0  0  0  0
    7.9910    9.5460  -27.8610 C   0  0  0  0  0  0
    9.1860    8.7190  -27.3140 C   0  0  0  0  0  0
   10.1640    8.2800  -28.4370 C   0  0  0  0  0  0
    9.5080    7.3080  -29.4540 C   0  0  0  0  0  0
    8.9080    6.0510  -28.7700 C   0  0  0  0  0  0
    8.4260    4.9880  -29.7920 C   0  0  0  0  0  0
    8.6980    3.5420  -29.3200 C   0  0  0  0  0  0
    3.7270   13.4140  -26.3760 O   0  0  0  0  0  0
    2.4580   12.9250  -26.2320 C   0  0  0  0  0  0
    2.1360   12.2740  -25.2080 O   0  0  0  0  0  0
    1.4790   13.2140  -27.3040 C   0  0  0  0  0  0
    0.5350   12.0380  -27.6790 C   0  0  0  0  0  0
   -0.8400   12.1160  -26.9600 C   0  0  0  0  0  0
   -0.8970   11.2230  -25.6920 C   0  0  0  0  0  0
   -1.2470   12.0200  -24.4060 C   0  0  0  0  0  0
   -1.5910   11.0940  -23.2090 C   0  0  0  0  0  0
   -2.9560   10.3880  -23.3670 C   0  0  0  0  0  0
   11.2649   14.1876  -28.0062 H   0  0  0  0  0  0
   10.4128   15.6492  -28.6097 H   0  0  0  0  0  0
   12.3268   16.2804  -27.2080 H   0  0  0  0  0  0
   10.7924   16.7596  -26.4063 H   0  0  0  0  0  0
   13.4014   14.0712  -26.3694 H   0  0  0  0  0  0
   11.8475   13.2211  -26.0701 H   0  0  0  0  0  0
   12.9662   13.5548  -24.7048 H   0  0  0  0  0  0
   13.7375   16.3558  -25.5118 H   0  0  0  0  0  0
   13.2886   15.7673  -23.8751 H   0  0  0  0  0  0
   12.4269   17.1707  -24.5925 H   0  0  0  0  0  0
   10.0091   14.3891  -24.8810 H   0  0  0  0  0  0
   10.2840   16.0405  -24.2297 H   0  0  0  0  0  0
   11.1457   14.6371  -23.5123 H   0  0  0  0  0  0
    6.2477   13.9319  -25.8408 H   0  0  0  0  0  0
    6.0652   14.4994  -27.5353 H   0  0  0  0  0  0
    4.6142   12.7954  -28.0980 H   0  0  0  0  0  0
    5.2899   11.3715  -25.4354 H   0  0  0  0  0  0
    3.9647   10.8663  -26.5378 H   0  0  0  0  0  0
    7.4176    8.8714  -28.5138 H   0  0  0  0  0  0
    8.4236   10.3587  -28.4630 H   0  0  0  0  0  0
    9.7501    9.3248  -26.5896 H   0  0  0  0  0  0
    8.8083    7.8124  -26.8185 H   0  0  0  0  0  0
   10.5081    9.1661  -28.9906 H   0  0  0  0  0  0
   11.0291    7.7679  -27.9904 H   0  0  0  0  0  0
    8.6954    7.8260  -29.9845 H   0  0  0  0  0  0
   10.2634    6.9715  -30.1793 H   0  0  0  0  0  0
    9.6704    5.5827  -28.1301 H   0  0  0  0  0  0
    8.0440    6.3449  -28.1559 H   0  0  0  0  0  0
    7.3422    5.0938  -29.9474 H   0  0  0  0  0  0
    8.9496    5.1348  -30.7482 H   0  0  0  0  0  0
    8.3371    2.8340  -30.0806 H   0  0  0  0  0  0
    8.1715    3.3608  -28.3713 H   0  0  0  0  0  0
    9.7790    3.4018  -29.1721 H   0  0  0  0  0  0
    0.8307   14.0467  -26.9937 H   0  0  0  0  0  0
    2.0141   13.4893  -28.2248 H   0  0  0  0  0  0
    0.3481   12.0492  -28.7630 H   0  0  0  0  0  0
    1.0071   11.0850  -27.3982 H   0  0  0  0  0  0
   -1.0348   13.1542  -26.6529 H   0  0  0  0  0  0
   -1.6321   11.7819  -27.6462 H   0  0  0  0  0  0
   -1.6652   10.4469  -25.8243 H   0  0  0  0  0  0
    0.0820   10.7467  -25.5346 H   0  0  0  0  0  0
   -0.3885   12.6437  -24.1162 H   0  0  0  0  0  0
   -2.1187   12.6627  -24.5987 H   0  0  0  0  0  0
   -0.8202   10.3149  -23.1148 H   0  0  0  0  0  0
   -1.6266   11.6883  -22.2841 H   0  0  0  0  0  0
   -3.1419    9.7491  -22.4911 H   0  0  0  0  0  0
   -2.9457    9.7694  -24.2765 H   0  0  0  0  0  0
   -3.7522   11.1428  -23.4459 H   0  0  0  0  0  0
  1  3  2  0  0  0
  2  3  1  0  0  0
  3  4  1  0  0  0
  3 11  1  0  0  0
  4  5  1  0  0  0
  5  6  1  0  0  0
  5 35  1  0  0  0
  5 36  1  0  0  0
  6  7  1  0  0  0
  6 37  1  0  0  0
  6 38  1  0  0  0
  7  8  1  0  0  0
  7  9  1  0  0  0
  7 10  1  0  0  0
  8 39  1  0  0  0
  8 40  1  0  0  0
  8 41  1  0  0  0
  9 42  1  0  0  0
  9 43  1  0  0  0
  9 44  1  0  0  0
 10 45  1  0  0  0
 10 46  1  0  0  0
 10 47  1  0  0  0
 11 12  1  0  0  0
 12 13  1  0  0  0
 12 48  1  0  0  0
 12 49  1  0  0  0
 13 14  1  0  0  0
 13 25  1  0  0  0
 13 50  1  0  0  0
 14 15  1  0  0  0
 14 51  1  0  0  0
 14 52  1  0  0  0
 15 16  1  0  0  0
 16 17  2  0  0  0
 16 18  1  0  0  0
 18 19  1  0  0  0
 18 53  1  0  0  0
 18 54  1  0  0  0
 19 20  1  0  0  0
 19 55  1  0  0  0
 19 56  1  0  0  0
 20 21  1  0  0  0
 20 57  1  0  0  0
 20 58  1  0  0  0
 21 22  1  0  0  0
 21 59  1  0  0  0
 21 60  1  0  0  0
 22 23  1  0  0  0
 22 61  1  0  0  0
 22 62  1  0  0  0
 23 24  1  0  0  0
 23 63  1  0  0  0
 23 64  1  0  0  0
 24 65  1  0  0  0
 24 66  1  0  0  0
 24 67  1  0  0  0
 25 26  1  0  0  0
 26 27  2  0  0  0
 26 28  1  0  0  0
 28 29  1  0  0  0
 28 68  1  0  0  0
 28 69  1  0  0  0
 29 30  1  0  0  0
 29 70  1  0  0  0
 29 71  1  0  0  0
 30 31  1  0  0  0
 30 72  1  0  0  0
 30 73  1  0  0  0
 31 32  1  0  0  0
 31 74  1  0  0  0
 31 75  1  0  0  0
 32 33  1  0  0  0
 32 76  1  0  0  0
 32 77  1  0  0  0
 33 34  1  0  0  0
 33 78  1  0  0  0
 33 79  1  0  0  0
 34 80  1  0  0  0
 34 81  1  0  0  0
 34 82  1  0  0  0
M  CHG  2   2  -1   7   1
M  END
> <s_m_source_file>
../2lya_ligand.sdf

> <i_m_source_file_index>
1

> <s_epik_input>
W0NIM11bQ0gyXVtDSDJdW0NIMl1bQ0gyXVtDSDJdW0NIMl1DKD1PKU9bQ0BASF0oW0NIMl1PW1BAXSg9TykoW09IXSlPW0NIMl1bQ0gyXVtOK10oW0NIM10pKFtDSDNdKVtDSDNdKVtDSDJdT0MoPU8pW0NIMl1bQ0gyXVtDSDJdW0NIMl1bQ0gyXVtDSDJdW0NIM10=

> <s_epik_cmdline>
J2VwaWtfYXBwJywgJy1pbWFlJywgJ2xpZ2FuZF9wcm8ubWFlJywgJy1vbWFlJywgJ2xpZ2FuZF9wcmVwLm1hZScsICctbXMnLCAnMScsICctcGgnLCAnNycsICctcGh0JywgJzAuNScsICctbnQn

> <r_lp_tautomer_probability>
1

> <r_epik_Ionization_Penalty>
  0.0001

> <r_epik_Ionization_Penalty_Charging>
  0.0001

> <r_epik_Ionization_Penalty_Neutral>
  0.0000

> <r_epik_State_Penalty>
 -0.0000

> <r_epik_Charging_Adjusted_Penalty>
0.000145247197472972

> <i_epik_Tot_Q>
0

> <i_epik_Tot_abs_Q>
2

> <s_epik_Chemistry_Notes>
This compound has an ester and may undergo hydrolysis at high or low pH.

$$$$
