2lyb_ligand
                    3D
 Schrodinger Suite 2020-3.
 75 74  0  0  1  0            999 V2000
   -7.4820  -26.7810    4.6500 N   0  3  0  0  0  0
   -2.9070  -25.8420    6.6510 P   0  0  2  0  0  0
   -4.4770  -25.5660    6.5340 O   0  0  0  0  0  0
   -2.1470  -30.2100    2.3250 C   0  0  0  0  0  0
   -3.2990  -30.2450    2.8220 O   0  0  0  0  0  0
    0.4360  -25.5330    2.3230 C   0  0  0  0  0  0
    0.5250  -25.7250    1.0870 O   0  0  0  0  0  0
   -5.2840  -26.4550    5.7310 C   0  0  0  0  0  0
   -2.0130  -27.7170    2.1720 C   0  0  0  0  0  0
   -1.6450  -29.0530    1.8090 O   0  0  0  0  0  0
   -1.2700  -31.4000    2.2920 C   0  0  0  0  0  0
    1.5200  -24.8820    3.0910 C   0  0  0  0  0  0
   -6.5300  -25.7600    5.1250 C   0  0  1  0  0  0
   -1.1470  -27.2100    3.3510 C   0  0  1  0  0  0
   -0.6930  -25.8890    3.0040 O   0  0  0  0  0  0
   -2.1950  -24.8080    7.4050 O   0  0  0  0  0  0
   -1.6550  -32.5460    3.2680 C   0  0  0  0  0  0
    2.1650  -23.6390    2.4130 C   0  0  0  0  0  0
   -6.2060  -24.8570    4.0040 C   0  0  0  0  0  0
   -5.1190  -24.2380    3.9620 O   0  0  0  0  0  0
   -7.0680  -24.7130    2.9680 O   0  5  0  0  0  0
   -1.8910  -27.2520    4.7150 C   0  0  0  0  0  0
   -2.3180  -25.9420    5.1640 O   0  0  0  0  0  0
   -2.6960  -27.2510    7.3400 O   0  5  0  0  0  0
   -0.6930  -33.7600    3.1620 C   0  0  0  0  0  0
    3.7120  -23.6040    2.5610 C   0  0  0  0  0  0
   -0.8950  -34.7880    4.3060 C   0  0  0  0  0  0
    4.3120  -22.2100    2.2340 C   0  0  0  0  0  0
   -0.0370  -34.4630    5.5590 C   0  0  0  0  0  0
    4.9740  -22.1490    0.8310 C   0  0  0  0  0  0
   -0.7680  -34.8040    6.8860 C   0  0  0  0  0  0
    4.2220  -21.2010   -0.1420 C   0  0  0  0  0  0
    0.0430  -34.3970    8.1360 C   0  0  0  0  0  0
    5.1630  -20.2210   -0.8800 C   0  0  0  0  0  0
   -7.7324  -27.4618    5.4769 H   0  0  0  0  0  0
   -7.0261  -27.3536    3.8289 H   0  0  0  0  0  0
   -8.3977  -26.2892    4.2899 H   0  0  0  0  0  0
   -4.6810  -26.8457    4.8981 H   0  0  0  0  0  0
   -5.6369  -27.2915    6.3521 H   0  0  0  0  0  0
   -1.8654  -27.0491    1.3105 H   0  0  0  0  0  0
   -3.0705  -27.6972    2.4743 H   0  0  0  0  0  0
   -1.2825  -31.8368    1.2825 H   0  0  0  0  0  0
   -0.2424  -31.1055    2.5514 H   0  0  0  0  0  0
    1.1281  -24.5394    4.0601 H   0  0  0  0  0  0
    2.3342  -25.6024    3.2587 H   0  0  0  0  0  0
   -7.0080  -25.1312    5.8907 H   0  0  0  0  0  0
   -0.2384  -27.8168    3.4783 H   0  0  0  0  0  0
   -1.6202  -32.1737    4.3025 H   0  0  0  0  0  0
   -2.6720  -32.8969    3.0386 H   0  0  0  0  0  0
    1.9313  -23.6451    1.3381 H   0  0  0  0  0  0
    1.7639  -22.7225    2.8702 H   0  0  0  0  0  0
   -2.7868  -27.8840    4.6247 H   0  0  0  0  0  0
   -1.2240  -27.6691    5.4838 H   0  0  0  0  0  0
   -0.8635  -34.2807    2.2082 H   0  0  0  0  0  0
    0.3481  -33.4078    3.2065 H   0  0  0  0  0  0
    3.9871  -23.8556    3.5959 H   0  0  0  0  0  0
    4.1627  -24.3351    1.8738 H   0  0  0  0  0  0
   -1.9515  -34.7930    4.6121 H   0  0  0  0  0  0
   -0.6109  -35.7902    3.9528 H   0  0  0  0  0  0
    3.5150  -21.4523    2.2607 H   0  0  0  0  0  0
    5.0821  -21.9585    2.9782 H   0  0  0  0  0  0
    0.8950  -35.0464    5.5266 H   0  0  0  0  0  0
    0.2026  -33.3895    5.5709 H   0  0  0  0  0  0
    6.0069  -21.7834    0.9285 H   0  0  0  0  0  0
    4.9816  -23.1545    0.3851 H   0  0  0  0  0  0
   -1.7304  -34.2725    6.9215 H   0  0  0  0  0  0
   -0.9458  -35.8883    6.9385 H   0  0  0  0  0  0
    3.6979  -21.7975   -0.9032 H   0  0  0  0  0  0
    3.4914  -20.6018    0.4213 H   0  0  0  0  0  0
   -0.5220  -34.6618    9.0419 H   0  0  0  0  0  0
    0.2219  -33.3118    8.1196 H   0  0  0  0  0  0
    1.0066  -34.9276    8.1366 H   0  0  0  0  0  0
    4.5719  -19.5801   -1.5507 H   0  0  0  0  0  0
    5.8965  -20.7907   -1.4694 H   0  0  0  0  0  0
    5.6900  -19.5950   -0.1449 H   0  0  0  0  0  0
  1 13  1  0  0  0
  1 35  1  0  0  0
  1 36  1  0  0  0
  1 37  1  0  0  0
  2  3  1  0  0  0
  2 16  2  0  0  0
  2 23  1  0  0  0
  2 24  1  0  0  0
  3  8  1  0  0  0
  4  5  2  0  0  0
  4 10  1  0  0  0
  4 11  1  0  0  0
  6  7  2  0  0  0
  6 12  1  0  0  0
  6 15  1  0  0  0
  8 13  1  0  0  0
  8 38  1  0  0  0
  8 39  1  0  0  0
  9 10  1  0  0  0
  9 14  1  0  0  0
  9 40  1  0  0  0
  9 41  1  0  0  0
 11 17  1  0  0  0
 11 42  1  0  0  0
 11 43  1  0  0  0
 12 18  1  0  0  0
 12 44  1  0  0  0
 12 45  1  0  0  0
 13 19  1  0  0  0
 13 46  1  0  0  0
 14 15  1  0  0  0
 14 22  1  0  0  0
 14 47  1  0  0  0
 17 25  1  0  0  0
 17 48  1  0  0  0
 17 49  1  0  0  0
 18 26  1  0  0  0
 18 50  1  0  0  0
 18 51  1  0  0  0
 19 20  2  0  0  0
 19 21  1  0  0  0
 22 23  1  0  0  0
 22 52  1  0  0  0
 22 53  1  0  0  0
 25 27  1  0  0  0
 25 54  1  0  0  0
 25 55  1  0  0  0
 26 28  1  0  0  0
 26 56  1  0  0  0
 26 57  1  0  0  0
 27 29  1  0  0  0
 27 58  1  0  0  0
 27 59  1  0  0  0
 28 30  1  0  0  0
 28 60  1  0  0  0
 28 61  1  0  0  0
 29 31  1  0  0  0
 29 62  1  0  0  0
 29 63  1  0  0  0
 30 32  1  0  0  0
 30 64  1  0  0  0
 30 65  1  0  0  0
 31 33  1  0  0  0
 31 66  1  0  0  0
 31 67  1  0  0  0
 32 34  1  0  0  0
 32 68  1  0  0  0
 32 69  1  0  0  0
 33 70  1  0  0  0
 33 71  1  0  0  0
 33 72  1  0  0  0
 34 73  1  0  0  0
 34 74  1  0  0  0
 34 75  1  0  0  0
M  CHG  3   1   1  21  -1  24  -1
M  END
> <s_m_source_file>
../2lyb_ligand.sdf

> <i_m_source_file_index>
1

> <s_epik_input>
W0NIM11bQ0gyXVtDSDJdW0NIMl1bQ0gyXVtDSDJdW0NIMl1DKD1PKU9bQ0BASF0oW0NIMl1PW1BAXSg9TykoW09IXSlPW0NIMl1bQ0BIXShbTkgzK10pQyg9TylbT0hdKVtDSDJdT0MoPU8pW0NIMl1bQ0gyXVtDSDJdW0NIMl1bQ0gyXVtDSDJdW0NIM10=

> <s_epik_cmdline>
J2VwaWtfYXBwJywgJy1pbWFlJywgJ2xpZ2FuZF9wcm8ubWFlJywgJy1vbWFlJywgJ2xpZ2FuZF9wcmVwLm1hZScsICctbXMnLCAnMScsICctcGgnLCAnNycsICctcGh0JywgJzAuNScsICctbnQn

> <r_epik_Ionization_Penalty>
  0.0163

> <r_epik_Ionization_Penalty_Charging>
  0.0163

> <r_epik_Ionization_Penalty_Neutral>
  0.0000

> <r_epik_State_Penalty>
  0.0127

> <r_epik_Charging_Adjusted_Penalty>
0.0290181989976961

> <i_epik_Tot_Q>
-1

> <i_epik_Tot_abs_Q>
3

> <s_epik_Chemistry_Notes>
This compound has an ester and may undergo hydrolysis at high or low pH.

$$$$
