2lyw_ligand
                    3D
 Schrodinger Suite 2020-3.
241245  0  0  1  0            999 V2000
  -28.1340   42.8140  -21.1390 N   0  0  0  0  0  0
  -28.1200   43.2090  -19.7230 C   0  0  1  0  0  0
  -28.5890   41.9010  -19.0450 C   0  0  0  0  0  0
  -29.3730   41.1400  -20.1200 C   0  0  0  0  0  0
  -28.7800   41.6950  -21.3990 C   0  0  0  0  0  0
  -28.8470   41.1590  -22.5030 O   0  0  0  0  0  0
  -26.7570   43.7940  -19.2540 C   0  0  0  0  0  0
  -25.8700   44.0770  -20.0690 O   0  0  0  0  0  0
  -26.6050   44.0070  -17.9290 N   0  0  0  0  0  0
  -25.3900   44.6460  -17.3460 C   0  0  2  0  0  0
  -24.2780   43.5740  -17.1170 C   0  0  0  0  0  0
  -24.1630   42.9810  -16.0400 O   0  0  0  0  0  0
  -25.8010   45.4440  -16.0660 C   0  0  0  0  0  0
  -24.8640   46.5720  -15.5380 C   0  0  0  0  0  0
  -23.5000   46.0810  -15.0150 C   0  0  0  0  0  0
  -24.6820   47.7330  -16.5380 C   0  0  0  0  0  0
  -23.4670   43.3540  -18.1660 N   0  0  0  0  0  0
  -22.3200   42.4060  -18.1560 C   0  0  2  0  0  0
  -21.1320   43.0840  -18.8950 C   0  0  0  0  0  0
  -21.2860   43.5870  -20.0150 O   0  0  0  0  0  0
  -22.6680   40.9870  -18.7130 C   0  0  0  0  0  0
  -23.5720   40.8420  -19.9630 C   0  0  0  0  0  0
  -23.1340   41.2310  -21.2340 C   0  0  0  0  0  0
  -24.8560   40.2990  -19.8230 C   0  0  0  0  0  0
  -23.9740   41.1110  -22.3380 C   0  0  0  0  0  0
  -25.6870   40.1600  -20.9310 C   0  0  0  0  0  0
  -25.2520   40.5820  -22.1850 C   0  0  0  0  0  0
  -26.0900   40.5070  -23.2680 O   0  0  0  0  0  0
  -19.9420   43.0950  -18.2580 N   0  0  0  0  0  0
  -18.7360   43.7880  -18.7990 C   0  0  2  0  0  0
  -17.9200   42.8620  -19.7580 C   0  0  0  0  0  0
  -16.8290   42.3860  -19.4270 O   0  0  0  0  0  0
  -17.9470   44.3530  -17.5780 C   0  0  0  0  0  0
  -16.7230   45.2580  -17.8610 C   0  0  0  0  0  0
  -16.9670   46.5420  -18.6610 C   0  0  0  0  0  0
  -18.0740   47.1240  -18.5930 O   0  0  0  0  0  0
  -16.0270   46.9860  -19.3560 O   0  0  0  0  0  0
  -18.4740   42.6400  -20.9660 N   0  0  0  0  0  0
  -17.8780   41.7580  -22.0040 C   0  0  2  0  0  0
  -17.0850   42.6280  -23.0160 C   0  0  0  0  0  0
  -17.6530   43.1720  -23.9700 O   0  0  0  0  0  0
  -19.0130   40.9360  -22.6860 C   0  0  0  0  0  0
  -19.4430   39.6760  -21.9080 C   0  0  0  0  0  0
  -20.2500   39.7370  -20.9820 O   0  0  0  0  0  0
  -18.9080   38.5160  -22.2580 N   0  0  0  0  0  0
  -15.7650   42.7460  -22.7790 N   0  0  0  0  0  0
  -14.8370   43.5250  -23.6460 C   0  0  2  0  0  0
  -13.6600   42.6040  -24.1240 C   0  0  0  0  0  0
  -13.1920   41.7840  -23.3230 O   0  0  0  0  0  0
  -14.2630   44.7680  -22.9070 C   0  0  0  0  0  0
  -15.2580   45.8170  -22.3560 C   0  0  0  0  0  0
  -16.2040   46.4700  -23.3930 C   0  0  0  0  0  0
  -16.9890   47.7030  -22.8970 C   0  0  0  0  0  0
  -17.8740   47.4230  -21.7520 N   0  3  0  0  0  0
  -13.1140   42.7110  -25.3740 N   0  0  0  0  0  0
  -12.0230   41.8230  -25.8560 C   0  0  2  0  0  0
  -10.6230   42.1460  -25.2410 C   0  0  0  0  0  0
  -10.1250   43.2710  -25.3580 O   0  0  0  0  0  0
  -12.1110   42.0080  -27.3810 C   0  0  0  0  0  0
  -12.6720   43.4130  -27.5960 C   0  0  0  0  0  0
  -13.6560   43.5820  -26.4390 C   0  0  0  0  0  0
  -10.0300   41.1420  -24.5670 N   0  0  0  0  0  0
   -8.7970   41.3060  -23.7470 C   0  0  2  0  0  0
   -7.6970   40.3130  -24.2280 C   0  0  0  0  0  0
   -7.8960   39.0930  -24.2490 O   0  0  0  0  0  0
   -9.1130   41.0540  -22.2430 C   0  0  0  0  0  0
  -10.0130   42.1150  -21.5670 C   0  0  0  0  0  0
  -10.3850   41.7920  -20.1000 C   0  0  0  0  0  0
   -9.8490   42.7750  -19.1260 N   0  0  0  0  0  0
  -10.4650   43.9150  -18.7520 C   0  0  0  0  0  0
  -11.6560   44.2990  -19.2030 N   0  0  0  0  0  0
   -9.8480   44.7010  -17.8890 N   0  0  0  0  0  0
   -6.5090   40.8610  -24.5470 N   0  0  0  0  0  0
   -5.2720   40.0700  -24.8280 C   0  0  2  0  0  0
   -4.6230   39.4240  -23.5430 C   0  0  0  0  0  0
   -4.9720   39.8620  -22.4420 O   0  0  0  0  0  0
   -4.2800   40.9880  -25.6130 C   0  0  0  0  0  0
   -3.3910   41.9960  -24.8340 C   0  0  0  0  0  0
   -4.1090   43.1770  -24.1490 C   0  0  0  0  0  0
   -4.5480   44.1880  -25.1400 N   0  0  0  0  0  0
   -5.0610   45.3920  -24.8370 C   0  0  0  0  0  0
   -5.3840   45.7750  -23.6070 N   0  0  0  0  0  0
   -5.2360   46.2520  -25.8190 N   0  0  0  0  0  0
   -3.6670   38.4420  -23.6070 N   0  0  0  0  0  0
   -3.0410   37.8280  -22.3970 C   0  0  2  0  0  0
   -2.0120   38.7390  -21.6530 C   0  0  0  0  0  0
   -0.7970   38.6410  -21.8540 O   0  0  0  0  0  0
   -2.4450   36.5160  -22.9580 C   0  0  0  0  0  0
   -2.1910   36.7950  -24.4380 C   0  0  0  0  0  0
   -3.3680   37.6790  -24.8350 C   0  0  0  0  0  0
   -2.5390   39.6030  -20.7660 N   0  0  0  0  0  0
   -1.7340   40.5300  -19.9280 C   0  0  2  0  0  0
   -1.6030   39.9490  -18.4850 C   0  0  0  0  0  0
   -2.6130   39.6620  -17.8340 O   0  0  0  0  0  0
   -2.3270   41.9690  -20.0270 C   0  0  0  0  0  0
   -3.7060   42.2760  -19.3950 C   0  0  0  0  0  0
   -3.7780   42.5420  -18.0250 C   0  0  0  0  0  0
   -4.8750   42.3140  -20.1590 C   0  0  0  0  0  0
   -4.9990   42.8200  -17.4210 C   0  0  0  0  0  0
   -6.1040   42.5880  -19.5550 C   0  0  0  0  0  0
   -6.1560   42.8320  -18.1820 C   0  0  0  0  0  0
   -7.3540   43.0240  -17.5500 O   0  0  0  0  0  0
   -0.3650   39.7490  -17.9880 N   0  0  0  0  0  0
   -0.1170   38.9860  -16.7250 C   0  0  2  0  0  0
   -0.2870   39.8920  -15.4590 C   0  0  0  0  0  0
    0.5390   40.7640  -15.1820 O   0  0  0  0  0  0
    1.2200   38.1630  -16.8070 C   0  0  2  0  0  0
    1.3240   37.1260  -15.6500 C   0  0  0  0  0  0
    2.5120   39.0120  -16.9180 C   0  0  0  0  0  0
    2.3930   36.0340  -15.8110 C   0  0  0  0  0  0
   -1.3700   39.6470  -14.6970 N   0  0  0  0  0  0
   -1.7340   40.4290  -13.4850 C   0  0  2  0  0  0
   -0.9970   40.0090  -12.2020 C   0  0  0  0  0  0
   -0.4940   40.9050  -11.4890 O   0  0  0  0  0  0
   -3.2730   40.4330  -13.2590 C   0  0  0  0  0  0
   -4.0040   39.1430  -12.7650 C   0  0  0  0  0  0
   -5.4670   39.4680  -12.4170 C   0  0  0  0  0  0
   -3.9490   37.9540  -13.7470 C   0  0  0  0  0  0
   -0.9580   38.8000  -11.8750 O   0  0  0  0  0  0
  -27.6282   43.4393  -21.8895 H   0  0  0  0  0  0
  -28.7885   44.0583  -19.5186 H   0  0  0  0  0  0
  -27.7126   41.3288  -18.7066 H   0  0  0  0  0  0
  -29.2246   42.1435  -18.1806 H   0  0  0  0  0  0
  -29.2041   40.0596  -20.0011 H   0  0  0  0  0  0
  -30.4461   41.3572  -20.0139 H   0  0  0  0  0  0
  -27.4269   43.6865  -17.2719 H   0  0  0  0  0  0
  -24.9857   45.3642  -18.0745 H   0  0  0  0  0  0
  -26.7631   45.9477  -16.2411 H   0  0  0  0  0  0
  -25.8991   44.7509  -15.2175 H   0  0  0  0  0  0
  -25.3952   46.9715  -14.6615 H   0  0  0  0  0  0
  -23.6552   45.2550  -14.3053 H   0  0  0  0  0  0
  -22.9826   46.9083  -14.5073 H   0  0  0  0  0  0
  -22.8887   45.7292  -15.8591 H   0  0  0  0  0  0
  -25.6672   48.0658  -16.8967 H   0  0  0  0  0  0
  -24.0776   47.3908  -17.3910 H   0  0  0  0  0  0
  -24.1715   48.5700  -16.0391 H   0  0  0  0  0  0
  -23.6964   43.9302  -19.0745 H   0  0  0  0  0  0
  -22.0712   42.2383  -17.0977 H   0  0  0  0  0  0
  -21.7410   40.4665  -18.9954 H   0  0  0  0  0  0
  -23.1925   40.4077  -17.9389 H   0  0  0  0  0  0
  -22.1279   41.6308  -21.3606 H   0  0  0  0  0  0
  -25.2064   39.9834  -18.8403 H   0  0  0  0  0  0
  -23.6307   41.4313  -23.3217 H   0  0  0  0  0  0
  -26.6781   39.7209  -20.8173 H   0  0  0  0  0  0
  -25.7424   40.8414  -24.2566 H   0  0  0  0  0  0
  -19.8852   42.5613  -17.2979 H   0  0  0  0  0  0
  -19.0532   44.6258  -19.4373 H   0  0  0  0  0  0
  -18.6189   44.9656  -16.9589 H   0  0  0  0  0  0
  -17.5539   43.5192  -16.9778 H   0  0  0  0  0  0
  -16.2819   45.5866  -16.9084 H   0  0  0  0  0  0
  -15.9745   44.6932  -18.4361 H   0  0  0  0  0  0
  -18.2471   48.0456  -19.1681 H   0  0  0  0  0  0
  -19.4241   43.1578  -21.1637 H   0  0  0  0  0  0
  -17.1784   41.0644  -21.5147 H   0  0  0  0  0  0
  -19.9077   41.5666  -22.7949 H   0  0  0  0  0  0
  -18.6775   40.6011  -23.6786 H   0  0  0  0  0  0
  -18.1870   38.4708  -23.0875 H   0  0  0  0  0  0
  -19.1847   37.5978  -21.7192 H   0  0  0  0  0  0
  -15.3805   42.2272  -21.8885 H   0  0  0  0  0  0
  -15.4532   43.8672  -24.4905 H   0  0  0  0  0  0
  -13.6845   44.4391  -22.0311 H   0  0  0  0  0  0
  -13.6080   45.3300  -23.5890 H   0  0  0  0  0  0
  -15.9090   45.3458  -21.6049 H   0  0  0  0  0  0
  -14.6999   46.6430  -21.8910 H   0  0  0  0  0  0
  -15.6195   46.8051  -24.2625 H   0  0  0  0  0  0
  -16.9556   45.7352  -23.7175 H   0  0  0  0  0  0
  -16.2825   48.4844  -22.5804 H   0  0  0  0  0  0
  -17.6204   48.0877  -23.7115 H   0  0  0  0  0  0
  -18.3961   48.3455  -21.4580 H   0  0  0  0  0  0
  -17.2742   47.0557  -20.9062 H   0  0  0  0  0  0
  -18.6121   46.6589  -22.0373 H   0  0  0  0  0  0
  -12.1876   40.7832  -25.5372 H   0  0  0  0  0  0
  -11.1080   41.9063  -27.8211 H   0  0  0  0  0  0
  -12.7770   41.2423  -27.8054 H   0  0  0  0  0  0
  -11.8517   44.1449  -27.5594 H   0  0  0  0  0  0
  -13.1657   43.4644  -28.5776 H   0  0  0  0  0  0
  -14.6693   43.2475  -26.7060 H   0  0  0  0  0  0
  -13.6958   44.6205  -26.0786 H   0  0  0  0  0  0
  -10.5097   40.1554  -24.6477 H   0  0  0  0  0  0
   -8.4661   42.3443  -23.8966 H   0  0  0  0  0  0
   -9.6323   40.0905  -22.1339 H   0  0  0  0  0  0
   -8.1744   41.0315  -21.6699 H   0  0  0  0  0  0
   -9.4951   43.0855  -21.5617 H   0  0  0  0  0  0
  -10.9561   42.2057  -22.1259 H   0  0  0  0  0  0
  -11.4797   41.7839  -19.9926 H   0  0  0  0  0  0
   -9.9826   40.8049  -19.8285 H   0  0  0  0  0  0
   -8.8746   42.5992  -18.6468 H   0  0  0  0  0  0
  -12.2003   43.6703  -19.9230 H   0  0  0  0  0  0
  -12.0966   45.2453  -18.8560 H   0  0  0  0  0  0
   -8.8616   44.4167  -17.4939 H   0  0  0  0  0  0
   -6.4821   41.9596  -24.5950 H   0  0  0  0  0  0
   -5.5941   39.2224  -25.4507 H   0  0  0  0  0  0
   -3.5618   40.3640  -26.1651 H   0  0  0  0  0  0
   -4.8422   41.6141  -26.3214 H   0  0  0  0  0  0
   -2.8561   41.4684  -24.0306 H   0  0  0  0  0  0
   -2.6631   42.4508  -25.5220 H   0  0  0  0  0  0
   -4.9943   42.8061  -23.6118 H   0  0  0  0  0  0
   -3.4235   43.6596  -23.4368 H   0  0  0  0  0  0
   -4.4644   43.9758  -26.2161 H   0  0  0  0  0  0
   -5.2510   45.0827  -22.7626 H   0  0  0  0  0  0
   -5.7845   46.7846  -23.4327 H   0  0  0  0  0  0
   -4.9792   45.9688  -26.8504 H   0  0  0  0  0  0
   -3.7997   37.6662  -21.6171 H   0  0  0  0  0  0
   -1.5126   36.2793  -22.4246 H   0  0  0  0  0  0
   -3.1655   35.6967  -22.8181 H   0  0  0  0  0  0
   -1.2237   37.3057  -24.5541 H   0  0  0  0  0  0
   -2.1729   35.8451  -24.9924 H   0  0  0  0  0  0
   -4.2508   37.0903  -25.1249 H   0  0  0  0  0  0
   -3.1095   38.3759  -25.6459 H   0  0  0  0  0  0
   -3.6357   39.5967  -20.6812 H   0  0  0  0  0  0
   -0.7138   40.5856  -20.3355 H   0  0  0  0  0  0
   -1.6442   42.6812  -19.5406 H   0  0  0  0  0  0
   -2.4497   42.2430  -21.0852 H   0  0  0  0  0  0
   -2.8685   42.5314  -17.4244 H   0  0  0  0  0  0
   -4.8276   42.1288  -21.2321 H   0  0  0  0  0  0
   -5.0455   43.0278  -16.3520 H   0  0  0  0  0  0
   -7.0159   42.6111  -20.1516 H   0  0  0  0  0  0
   -7.3801   43.2154  -16.4671 H   0  0  0  0  0  0
    0.4806   40.1724  -18.5498 H   0  0  0  0  0  0
   -0.9247   38.2425  -16.6556 H   0  0  0  0  0  0
    1.1699   37.6240  -17.7646 H   0  0  0  0  0  0
    1.5619   37.6471  -14.7109 H   0  0  0  0  0  0
    0.3649   36.5980  -15.5435 H   0  0  0  0  0  0
    2.4073   39.7330  -17.7421 H   0  0  0  0  0  0
    3.3690   38.3513  -17.1155 H   0  0  0  0  0  0
    2.6766   39.5542  -15.9752 H   0  0  0  0  0  0
    2.3699   35.3666  -14.9369 H   0  0  0  0  0  0
    3.3857   36.5014  -15.8893 H   0  0  0  0  0  0
    2.1886   35.4523  -16.7220 H   0  0  0  0  0  0
   -2.0033   38.8079  -15.0209 H   0  0  0  0  0  0
   -1.3661   41.4352  -13.7345 H   0  0  0  0  0  0
   -3.5301   41.1861  -12.4996 H   0  0  0  0  0  0
   -3.7817   40.6762  -14.2035 H   0  0  0  0  0  0
   -3.4655   38.8041  -11.8677 H   0  0  0  0  0  0
   -5.4977   40.3160  -11.7171 H   0  0  0  0  0  0
   -5.9365   38.5898  -11.9498 H   0  0  0  0  0  0
   -6.0127   39.7305  -13.3353 H   0  0  0  0  0  0
   -2.9004   37.7280  -13.9907 H   0  0  0  0  0  0
   -4.4918   38.2136  -14.6679 H   0  0  0  0  0  0
   -4.4156   37.0729  -13.2824 H   0  0  0  0  0  0
   -0.4321   38.4949  -10.9583 H   0  0  0  0  0  0
  1  2  1  0  0  0
  1  5  1  0  0  0
  1120  1  0  0  0
  2  3  1  0  0  0
  2  7  1  0  0  0
  2121  1  0  0  0
  3  4  1  0  0  0
  3122  1  0  0  0
  3123  1  0  0  0
  4  5  1  0  0  0
  4124  1  0  0  0
  4125  1  0  0  0
  5  6  2  0  0  0
  7  8  2  0  0  0
  7  9  1  0  0  0
  9 10  1  0  0  0
  9126  1  0  0  0
 10 11  1  0  0  0
 10 13  1  0  0  0
 10127  1  0  0  0
 11 12  2  0  0  0
 11 17  1  0  0  0
 13 14  1  0  0  0
 13128  1  0  0  0
 13129  1  0  0  0
 14 15  1  0  0  0
 14 16  1  0  0  0
 14130  1  0  0  0
 15131  1  0  0  0
 15132  1  0  0  0
 15133  1  0  0  0
 16134  1  0  0  0
 16135  1  0  0  0
 16136  1  0  0  0
 17 18  1  0  0  0
 17137  1  0  0  0
 18 19  1  0  0  0
 18 21  1  0  0  0
 18138  1  0  0  0
 19 20  2  0  0  0
 19 29  1  0  0  0
 21 22  1  0  0  0
 21139  1  0  0  0
 21140  1  0  0  0
 22 23  2  0  0  0
 22 24  1  0  0  0
 23 25  1  0  0  0
 23141  1  0  0  0
 24 26  2  0  0  0
 24142  1  0  0  0
 25 27  2  0  0  0
 25143  1  0  0  0
 26 27  1  0  0  0
 26144  1  0  0  0
 27 28  1  0  0  0
 28145  1  0  0  0
 29 30  1  0  0  0
 29146  1  0  0  0
 30 31  1  0  0  0
 30 33  1  0  0  0
 30147  1  0  0  0
 31 32  2  0  0  0
 31 38  1  0  0  0
 33 34  1  0  0  0
 33148  1  0  0  0
 33149  1  0  0  0
 34 35  1  0  0  0
 34150  1  0  0  0
 34151  1  0  0  0
 35 36  1  0  0  0
 35 37  2  0  0  0
 36152  1  0  0  0
 38 39  1  0  0  0
 38153  1  0  0  0
 39 40  1  0  0  0
 39 42  1  0  0  0
 39154  1  0  0  0
 40 41  2  0  0  0
 40 46  1  0  0  0
 42 43  1  0  0  0
 42155  1  0  0  0
 42156  1  0  0  0
 43 44  2  0  0  0
 43 45  1  0  0  0
 45157  1  0  0  0
 45158  1  0  0  0
 46 47  1  0  0  0
 46159  1  0  0  0
 47 48  1  0  0  0
 47 50  1  0  0  0
 47160  1  0  0  0
 48 49  2  0  0  0
 48 55  1  0  0  0
 50 51  1  0  0  0
 50161  1  0  0  0
 50162  1  0  0  0
 51 52  1  0  0  0
 51163  1  0  0  0
 51164  1  0  0  0
 52 53  1  0  0  0
 52165  1  0  0  0
 52166  1  0  0  0
 53 54  1  0  0  0
 53167  1  0  0  0
 53168  1  0  0  0
 54169  1  0  0  0
 54170  1  0  0  0
 54171  1  0  0  0
 55 56  1  0  0  0
 55 61  1  0  0  0
 56 57  1  0  0  0
 56 59  1  0  0  0
 56172  1  0  0  0
 57 58  2  0  0  0
 57 62  1  0  0  0
 59 60  1  0  0  0
 59173  1  0  0  0
 59174  1  0  0  0
 60 61  1  0  0  0
 60175  1  0  0  0
 60176  1  0  0  0
 61177  1  0  0  0
 61178  1  0  0  0
 62 63  1  0  0  0
 62179  1  0  0  0
 63 64  1  0  0  0
 63 66  1  0  0  0
 63180  1  0  0  0
 64 65  2  0  0  0
 64 73  1  0  0  0
 66 67  1  0  0  0
 66181  1  0  0  0
 66182  1  0  0  0
 67 68  1  0  0  0
 67183  1  0  0  0
 67184  1  0  0  0
 68 69  1  0  0  0
 68185  1  0  0  0
 68186  1  0  0  0
 69 70  1  0  0  0
 69187  1  0  0  0
 70 71  1  0  0  0
 70 72  2  0  0  0
 71188  1  0  0  0
 71189  1  0  0  0
 72190  1  0  0  0
 73 74  1  0  0  0
 73191  1  0  0  0
 74 75  1  0  0  0
 74 77  1  0  0  0
 74192  1  0  0  0
 75 76  2  0  0  0
 75 84  1  0  0  0
 77 78  1  0  0  0
 77193  1  0  0  0
 77194  1  0  0  0
 78 79  1  0  0  0
 78195  1  0  0  0
 78196  1  0  0  0
 79 80  1  0  0  0
 79197  1  0  0  0
 79198  1  0  0  0
 80 81  1  0  0  0
 80199  1  0  0  0
 81 82  1  0  0  0
 81 83  2  0  0  0
 82200  1  0  0  0
 82201  1  0  0  0
 83202  1  0  0  0
 84 85  1  0  0  0
 84 90  1  0  0  0
 85 86  1  0  0  0
 85 88  1  0  0  0
 85203  1  0  0  0
 86 87  2  0  0  0
 86 91  1  0  0  0
 88 89  1  0  0  0
 88204  1  0  0  0
 88205  1  0  0  0
 89 90  1  0  0  0
 89206  1  0  0  0
 89207  1  0  0  0
 90208  1  0  0  0
 90209  1  0  0  0
 91 92  1  0  0  0
 91210  1  0  0  0
 92 93  1  0  0  0
 92 95  1  0  0  0
 92211  1  0  0  0
 93 94  2  0  0  0
 93103  1  0  0  0
 95 96  1  0  0  0
 95212  1  0  0  0
 95213  1  0  0  0
 96 97  2  0  0  0
 96 98  1  0  0  0
 97 99  1  0  0  0
 97214  1  0  0  0
 98100  2  0  0  0
 98215  1  0  0  0
 99101  2  0  0  0
 99216  1  0  0  0
100101  1  0  0  0
100217  1  0  0  0
101102  1  0  0  0
102218  1  0  0  0
103104  1  0  0  0
103219  1  0  0  0
104105  1  0  0  0
104107  1  0  0  0
104220  1  0  0  0
105106  2  0  0  0
105111  1  0  0  0
107108  1  0  0  0
107109  1  0  0  0
107221  1  0  0  0
108110  1  0  0  0
108222  1  0  0  0
108223  1  0  0  0
109224  1  0  0  0
109225  1  0  0  0
109226  1  0  0  0
110227  1  0  0  0
110228  1  0  0  0
110229  1  0  0  0
111112  1  0  0  0
111230  1  0  0  0
112113  1  0  0  0
112115  1  0  0  0
112231  1  0  0  0
113114  2  0  0  0
113119  1  0  0  0
115116  1  0  0  0
115232  1  0  0  0
115233  1  0  0  0
116117  1  0  0  0
116118  1  0  0  0
116234  1  0  0  0
117235  1  0  0  0
117236  1  0  0  0
117237  1  0  0  0
118238  1  0  0  0
118239  1  0  0  0
118240  1  0  0  0
119241  1  0  0  0
M  CHG  1  54   1
M  END
> <s_m_source_file>
../2lyw_ligand.sdf

> <i_m_source_file_index>
1

> <s_epik_input>
W0NIMl0xW0NIMl1DKD1PKVtOSF1bQ0BASF0xQyg9TylbTkhdW0NAQEhdKFtDSDJdW0NIXShbQ0gzXSlbQ0gzXSlDKD1PKVtOSF1bQ0BASF0oW0NIMl1jMltjSF1bY0hdYyhbT0hdKVtjSF1bY0hdMilDKD1PKVtOSF1bQ0BASF0oW0NIMl1bQ0gyXUMoPU8pW09IXSlDKD1PKVtOSF1bQ0BASF0oW0NIMl1DKD1PKVtOSDJdKUMoPU8pW05IXVtDQEBIXShbQ0gyXVtDSDJdW0NIMl1bQ0gyXVtOSDMrXSlDKD1PKU4zW0NAQEhdKFtDSDJdW0NIMl1bQ0gyXTMpQyg9TylbTkhdW0NAQEhdKFtDSDJdW0NIMl1bQ0gyXVtOSF0vQyhbTkgyXSk9TlxbSF0pQyg9TylbTkhdW0NAQEhdKFtDSDJdW0NIMl1bQ0gyXVtOSF0vQyhbTkgyXSk9TlxbSF0pQyg9TylONFtDQEBIXShbQ0gyXVtDSDJdW0NIMl00KUMoPU8pW05IXVtDQEBIXShbQ0gyXWM1W2NIXVtjSF1jKFtPSF0pW2NIXVtjSF01KUMoPU8pW05IXVtDQEBIXShbQ0BASF0oW0NIM10pW0NIMl1bQ0gzXSlDKD1PKVtOSF1bQ0BIXShDKD1PKVtPSF0pW0NIMl1bQ0hdKFtDSDNdKVtDSDNd

> <s_epik_cmdline>
J2VwaWtfYXBwJywgJy1pbWFlJywgJ2xpZ2FuZF9wcm8ubWFlJywgJy1vbWFlJywgJ2xpZ2FuZF9wcmVwLm1hZScsICctbXMnLCAnMScsICctcGgnLCAnNycsICctcGh0JywgJzAuNScsICctbnQn

> <s_epik_pKa_notes>
Molecule size exceeds maximum supported for generating protonation states

> <s_epik_Chemistry_Notes>
This compound has an imine and may undergo hydrolysis.

$$$$
