2lzg_ligand
                    3D
 Schrodinger Suite 2020-3.
 51 54  0  0  1  0            999 V2000
    8.1380    3.4730    0.7650 C   0  0  0  0  0  0
    7.0500    3.7920   -0.0390 C   0  0  0  0  0  0
    5.9270    2.9720   -0.0460 C   0  0  0  0  0  0
    5.8960    1.8300    0.7460 C   0  0  0  0  0  0
    6.9850    1.5120    1.5520 C   0  0  0  0  0  0
    8.1050    2.3350    1.5650 C   0  0  0  0  0  0
    9.1700    2.0410    2.4100 C   0  0  1  0  0  0
   10.4080    1.7920    1.6370 N   0  0  0  0  0  0
   12.5850    1.9630    1.3510 O   0  0  0  0  0  0
   11.6080    2.2300    2.0500 C   0  0  0  0  0  0
   12.2480    6.3480    4.2400 O   0  0  0  0  0  0
   11.8000    2.9630    3.2180 C   0  0  2  0  0  0
   10.6370    2.8370    4.1920 C   0  0  0  0  0  0
    9.3740    3.1630    3.4130 C   0  0  2  0  0  0
    8.2610    3.2700    4.2420 C   0  0  0  0  0  0
    8.1450    2.4840    5.3840 C   0  0  0  0  0  0
    7.2470    4.1630    3.9160 C   0  0  0  0  0  0
    6.1210    4.2700    4.7250 C   0  0  0  0  0  0
   13.2110    4.4610    4.9260 O   0  5  0  0  0  0
    6.0070    3.4840    5.8660 C   0  0  0  0  0  0
    7.0210    2.5910    6.1950 C   0  0  0  0  0  0
   10.3510    0.8780    0.4730 C   0  0  0  0  0  0
   10.5030    1.7340   -0.7870 C   0  0  0  0  0  0
   11.7970    1.3100   -1.4730 C   0  0  0  0  0  0
   10.5050    1.4180   -2.2680 C   0  0  0  0  0  0
   12.0490    4.4300    2.8530 C   0  0  0  0  0  0
   12.5340    5.1370    4.1210 C   0  0  0  0  0  0
    4.5530    3.3980   -0.9980 Cl  0  0  0  0  0  0
    4.8610    5.3710    4.3070 Cl  0  0  0  0  0  0
    9.0186    4.1154    0.7688 H   0  0  0  0  0  0
    7.0771    4.6847   -0.6639 H   0  0  0  0  0  0
    5.0185    1.1835    0.7357 H   0  0  0  0  0  0
    6.9596    0.6169    2.1735 H   0  0  0  0  0  0
    8.8677    1.1053    2.9031 H   0  0  0  0  0  0
   12.6814    2.4785    3.6635 H   0  0  0  0  0  0
   10.5985    1.8108    4.5862 H   0  0  0  0  0  0
   10.7764    3.5441    5.0230 H   0  0  0  0  0  0
    9.4143    4.1650    2.9609 H   0  0  0  0  0  0
    8.9377    1.7823    5.6436 H   0  0  0  0  0  0
    7.3347    4.7817    3.0229 H   0  0  0  0  0  0
    5.1251    3.5675    6.5011 H   0  0  0  0  0  0
    6.9344    1.9744    7.0896 H   0  0  0  0  0  0
   11.1681    0.1449    0.5422 H   0  0  0  0  0  0
    9.3853    0.3513    0.4673 H   0  0  0  0  0  0
    9.9212    2.5456   -0.3257 H   0  0  0  0  0  0
   12.5455    2.1095   -1.3703 H   0  0  0  0  0  0
   12.1764    0.3902   -1.0039 H   0  0  0  0  0  0
    9.8134    0.5859   -2.4663 H   0  0  0  0  0  0
   10.1826    2.3052   -2.8327 H   0  0  0  0  0  0
   12.8121    4.4868    2.0628 H   0  0  0  0  0  0
   11.1133    4.8820    2.4922 H   0  0  0  0  0  0
  1  2  2  0  0  0
  1  6  1  0  0  0
  1 30  1  0  0  0
  2  3  1  0  0  0
  2 31  1  0  0  0
  3  4  2  0  0  0
  3 28  1  0  0  0
  4  5  1  0  0  0
  4 32  1  0  0  0
  5  6  2  0  0  0
  5 33  1  0  0  0
  6  7  1  0  0  0
  7  8  1  0  0  0
  7 14  1  0  0  0
  7 34  1  0  0  0
  8 10  1  0  0  0
  8 22  1  0  0  0
  9 10  2  0  0  0
 10 12  1  0  0  0
 11 27  2  0  0  0
 12 13  1  0  0  0
 12 26  1  0  0  0
 12 35  1  0  0  0
 13 14  1  0  0  0
 13 36  1  0  0  0
 13 37  1  0  0  0
 14 15  1  0  0  0
 14 38  1  0  0  0
 15 16  2  0  0  0
 15 17  1  0  0  0
 16 21  1  0  0  0
 16 39  1  0  0  0
 17 18  2  0  0  0
 17 40  1  0  0  0
 18 20  1  0  0  0
 18 29  1  0  0  0
 19 27  1  0  0  0
 20 21  2  0  0  0
 20 41  1  0  0  0
 21 42  1  0  0  0
 22 23  1  0  0  0
 22 43  1  0  0  0
 22 44  1  0  0  0
 23 24  1  0  0  0
 23 25  1  0  0  0
 23 45  1  0  0  0
 24 25  1  0  0  0
 24 46  1  0  0  0
 24 47  1  0  0  0
 25 48  1  0  0  0
 25 49  1  0  0  0
 26 27  1  0  0  0
 26 50  1  0  0  0
 26 51  1  0  0  0
M  CHG  1  19  -1
M  END
> <s_m_source_file>
../2lzg_ligand.sdf

> <i_m_source_file_index>
1

> <s_epik_input>
Q2xjMVtjSF1bY0hdYyhbY0hdW2NIXTEpW0NASF0yTihbQ0gyXVtDSF0zW0NIMl1bQ0gyXTMpQyg9TylbQ0BASF0oW0NIMl1DKD1PKVtPSF0pW0NIMl1bQ0BASF0yYzRbY0hdW2NIXVtjSF1jKENsKVtjSF00

> <s_epik_cmdline>
J2VwaWtfYXBwJywgJy1pbWFlJywgJ2xpZ2FuZF9wcm8ubWFlJywgJy1vbWFlJywgJ2xpZ2FuZF9wcmVwLm1hZScsICctbXMnLCAnMScsICctcGgnLCAnNycsICctcGh0JywgJzAuNScsICctbnQn

> <r_lp_tautomer_probability>
1

> <r_epik_Ionization_Penalty>
  0.0048

> <r_epik_Ionization_Penalty_Charging>
  0.0048

> <r_epik_Ionization_Penalty_Neutral>
  0.0000

> <r_epik_State_Penalty>
 -0.0000

> <r_epik_Charging_Adjusted_Penalty>
0.00480505144949822

> <i_epik_Tot_Q>
-1

> <i_epik_Tot_abs_Q>
1

$$$$
