2m0o_ligand
                    3D
 Schrodinger Suite 2020-3.
185187  0  0  1  0            999 V2000
  -19.4920   -4.1990  -16.4160 N   0  3  0  0  0  0
  -18.3090   -3.3070  -16.5310 C   0  0  2  0  0  0
  -18.4310   -2.1110  -15.5930 C   0  0  0  0  0  0
  -19.5070   -1.5170  -15.4730 O   0  0  0  0  0  0
  -18.1410   -2.8350  -17.9670 C   0  0  0  0  0  0
  -17.3200   -1.7710  -14.9340 N   0  0  0  0  0  0
  -17.2780   -0.6450  -13.9990 C   0  0  2  0  0  0
  -16.3320    0.4520  -14.5020 C   0  0  0  0  0  0
  -15.3270    0.1620  -15.1580 O   0  0  0  0  0  0
  -16.8800   -1.0990  -12.5560 C   0  0  2  0  0  0
  -16.8120    0.0330  -11.6770 O   0  0  0  0  0  0
  -15.5450   -1.8520  -12.5180 C   0  0  0  0  0  0
  -16.6720    1.7050  -14.1830 N   0  0  0  0  0  0
  -15.8620    2.8420  -14.5990 C   0  0  0  0  0  0
  -16.2280    4.1110  -13.8550 C   0  0  0  0  0  0
  -16.9430    4.9630  -14.3910 O   0  0  0  0  0  0
  -15.7320    4.2280  -12.6200 N   0  0  0  0  0  0
  -16.0110    5.3990  -11.7980 C   0  0  0  0  0  0
  -15.1460    5.4690  -10.5500 C   0  0  0  0  0  0
  -14.8330    6.5630  -10.0710 O   0  0  0  0  0  0
  -14.7610    4.2970  -10.0260 N   0  0  0  0  0  0
  -13.9270    4.2110   -8.8210 C   0  0  2  0  0  0
  -12.4280    4.1090   -9.1900 C   0  0  0  0  0  0
  -11.9200    4.9670   -9.9180 O   0  0  0  0  0  0
  -14.3750    3.0380   -7.8860 C   0  0  0  0  0  0
  -15.6280    3.4280   -7.1150 C   0  0  0  0  0  0
  -14.6110    1.7330   -8.6540 C   0  0  0  0  0  0
  -11.7270    3.0690   -8.6940 N   0  0  0  0  0  0
  -10.2890    2.8680   -8.9760 C   0  0  1  0  0  0
   -9.6720    1.7930   -8.0580 C   0  0  0  0  0  0
  -10.6420    0.7350   -7.5600 C   0  0  0  0  0  0
   -9.9460   -0.2210   -6.6120 C   0  0  0  0  0  0
  -10.8730   -0.6720   -5.4680 C   0  0  0  0  0  0
  -10.7200    0.0840   -4.1500 N   0  3  0  0  0  0
  -10.0270    2.5190  -10.4400 C   0  0  0  0  0  0
  -10.8130    1.8120  -11.0750 O   0  0  0  0  0  0
   -9.3390    0.0390   -3.6070 C   0  0  0  0  0  0
  -11.6320   -0.5670   -3.1790 C   0  0  0  0  0  0
  -11.0870    1.5150   -4.2830 C   0  0  0  0  0  0
   -8.9040    3.0340  -10.9520 N   0  0  0  0  0  0
   -8.4970    2.8240  -12.3440 C   0  0  2  0  0  0
   -7.0460    2.2750  -12.4240 C   0  0  0  0  0  0
   -6.1400    2.9680  -12.9050 O   0  0  0  0  0  0
   -8.6680    4.1400  -13.1580 C   0  0  0  0  0  0
   -7.9920    5.3920  -12.5630 C   0  0  0  0  0  0
   -8.8440    6.0620  -11.4780 C   0  0  0  0  0  0
   -9.3520    7.4240  -11.9250 C   0  0  0  0  0  0
  -10.0810    8.1290  -10.8320 N   0  3  0  0  0  0
   -6.8020    1.0120  -11.9450 N   0  0  0  0  0  0
   -5.4600    0.3720  -11.9610 C   0  0  2  0  0  0
   -4.9480    0.0570  -13.3780 C   0  0  0  0  0  0
   -5.2650    0.7790  -14.3280 O   0  0  0  0  0  0
   -5.6810   -0.9240  -11.1490 C   0  0  0  0  0  0
   -6.9250   -0.6830  -10.3870 C   0  0  0  0  0  0
   -7.7880    0.1100  -11.3140 C   0  0  0  0  0  0
   -4.1510   -1.0260  -13.5040 N   0  0  0  0  0  0
   -3.5690   -1.4630  -14.7860 C   0  0  2  0  0  0
   -4.6490   -1.6820  -15.8660 C   0  0  0  0  0  0
   -4.4760   -1.2800  -17.0210 O   0  0  0  0  0  0
   -2.7260   -2.7440  -14.5530 C   0  0  0  0  0  0
   -3.5090   -4.0240  -14.4690 C   0  0  0  0  0  0
   -3.4410   -5.0210  -15.4180 N   0  0  0  0  0  0
   -4.3810   -4.4540  -13.5340 C   0  0  0  0  0  0
   -4.2430   -6.0110  -15.0670 C   0  0  0  0  0  0
   -4.8250   -5.6910  -13.9260 N   0  0  0  0  0  0
   -5.7550   -2.3220  -15.4590 N   0  0  0  0  0  0
   -6.8890   -2.6120  -16.3410 C   0  0  2  0  0  0
   -8.1740   -2.7430  -15.5270 C   0  0  0  0  0  0
   -9.2480   -2.3360  -15.9810 O   0  0  0  0  0  0
   -6.6530   -3.9050  -17.1380 C   0  0  0  0  0  0
   -6.3080   -3.6680  -18.5990 C   0  0  0  0  0  0
   -6.3610   -4.9600  -19.4010 C   0  0  0  0  0  0
   -7.5990   -5.0710  -20.1810 N   0  0  0  0  0  0
   -7.6670   -5.4970  -21.4510 C   0  0  0  0  0  0
   -6.5710   -5.8620  -22.1140 N   0  0  0  0  0  0
   -8.8430   -5.5570  -22.0590 N   0  0  0  0  0  0
   -8.0480   -3.3160  -14.3190 N   0  0  0  0  0  0
   -9.1910   -3.5160  -13.4190 C   0  0  2  0  0  0
   -8.7820   -3.2870  -11.9660 C   0  0  0  0  0  0
   -9.7990   -4.9280  -13.5760 C   0  0  0  0  0  0
   -8.7890   -6.0460  -13.7950 C   0  0  0  0  0  0
   -8.0480   -6.5660  -12.7380 C   0  0  0  0  0  0
   -8.5840   -6.5800  -15.0620 C   0  0  0  0  0  0
   -7.1310   -7.5810  -12.9400 C   0  0  0  0  0  0
   -7.6710   -7.5950  -15.2700 C   0  0  0  0  0  0
   -6.9480   -8.0920  -14.2080 C   0  0  0  0  0  0
   -6.0370   -9.1040  -14.4140 O   0  0  0  0  0  0
  -19.6003   -4.5318  -15.3731 H   0  0  0  0  0  0
  -19.3559   -5.0744  -17.0680 H   0  0  0  0  0  0
  -20.3955   -3.6510  -16.7218 H   0  0  0  0  0  0
  -17.4337   -3.9044  -16.2361 H   0  0  0  0  0  0
  -18.0543   -3.7071  -18.6318 H   0  0  0  0  0  0
  -17.2318   -2.2210  -18.0471 H   0  0  0  0  0  0
  -19.0153   -2.2356  -18.2606 H   0  0  0  0  0  0
  -16.4155   -2.3705  -15.1139 H   0  0  0  0  0  0
  -18.3093   -0.2624  -14.0030 H   0  0  0  0  0  0
  -17.6655   -1.7501  -12.1449 H   0  0  0  0  0  0
  -17.6808    0.6991  -11.5698 H   0  0  0  0  0  0
  -15.5946   -2.7205  -13.1912 H   0  0  0  0  0  0
  -15.3463   -2.1945  -11.4917 H   0  0  0  0  0  0
  -14.7363   -1.1812  -12.8438 H   0  0  0  0  0  0
  -17.5860    1.8674  -13.5930 H   0  0  0  0  0  0
  -14.8009    2.6269  -14.4047 H   0  0  0  0  0  0
  -16.0085    3.0228  -15.6741 H   0  0  0  0  0  0
  -15.1013    3.4173  -12.2263 H   0  0  0  0  0  0
  -15.8257    6.3111  -12.3843 H   0  0  0  0  0  0
  -17.0623    5.3781  -11.4749 H   0  0  0  0  0  0
  -15.0925    3.3784  -10.5321 H   0  0  0  0  0  0
  -14.1016    5.1677   -8.3069 H   0  0  0  0  0  0
  -13.5691    2.8383   -7.1645 H   0  0  0  0  0  0
  -15.4455    4.3652   -6.5688 H   0  0  0  0  0  0
  -15.8821    2.6308   -6.4009 H   0  0  0  0  0  0
  -16.4619    3.5698   -7.8182 H   0  0  0  0  0  0
  -13.6990    1.4625   -9.2063 H   0  0  0  0  0  0
  -15.4416    1.8694   -9.3621 H   0  0  0  0  0  0
  -14.8618    0.9304   -7.9448 H   0  0  0  0  0  0
  -12.2676    2.3540   -8.0564 H   0  0  0  0  0  0
   -9.8403    3.8497   -8.7641 H   0  0  0  0  0  0
   -8.8776    1.2595   -8.6006 H   0  0  0  0  0  0
   -9.2467    2.2738   -7.1647 H   0  0  0  0  0  0
  -11.4740    1.2210   -7.0294 H   0  0  0  0  0  0
  -11.0351    0.1661   -8.4155 H   0  0  0  0  0  0
   -9.6218   -1.1148   -7.1652 H   0  0  0  0  0  0
   -9.0692    0.2746   -6.1697 H   0  0  0  0  0  0
  -11.9218   -0.5454   -5.7744 H   0  0  0  0  0  0
  -10.6834   -1.7309   -5.2382 H   0  0  0  0  0  0
   -9.0244   -1.0087   -3.4916 H   0  0  0  0  0  0
   -9.3136    0.5395   -2.6278 H   0  0  0  0  0  0
   -8.6559    0.5528   -4.2993 H   0  0  0  0  0  0
  -11.3626   -1.6287   -3.0779 H   0  0  0  0  0  0
  -12.6687   -0.4843   -3.5374 H   0  0  0  0  0  0
  -11.5413   -0.0710   -2.2014 H   0  0  0  0  0  0
  -10.4122    2.0012   -5.0029 H   0  0  0  0  0  0
  -10.9968    2.0091   -3.3044 H   0  0  0  0  0  0
  -12.1242    1.5958   -4.6404 H   0  0  0  0  0  0
   -8.2756    3.6372  -10.2803 H   0  0  0  0  0  0
   -9.1821    2.0573  -12.7348 H   0  0  0  0  0  0
   -8.2393    4.0082  -14.1624 H   0  0  0  0  0  0
   -9.7377    4.3811  -13.2447 H   0  0  0  0  0  0
   -7.0300    5.1093  -12.1107 H   0  0  0  0  0  0
   -7.8194    6.1296  -13.3606 H   0  0  0  0  0  0
   -9.7120    5.4263  -11.2488 H   0  0  0  0  0  0
   -8.2394    6.1986  -10.5693 H   0  0  0  0  0  0
   -8.5012    8.0499  -12.2323 H   0  0  0  0  0  0
  -10.0401    7.2982  -12.7739 H   0  0  0  0  0  0
  -10.4306    9.1066  -11.1955 H   0  0  0  0  0  0
   -9.4056    8.2761   -9.9763 H   0  0  0  0  0  0
  -10.9446    7.5244  -10.5178 H   0  0  0  0  0  0
   -4.7129    1.0623  -11.5423 H   0  0  0  0  0  0
   -5.7828   -1.7755  -11.8380 H   0  0  0  0  0  0
   -4.8209   -1.0912  -10.4840 H   0  0  0  0  0  0
   -7.3856   -1.6464  -10.1229 H   0  0  0  0  0  0
   -6.6902   -0.1248   -9.4687 H   0  0  0  0  0  0
   -8.5499    0.7074  -10.7918 H   0  0  0  0  0  0
   -8.2710   -0.5044  -12.0881 H   0  0  0  0  0  0
   -3.9429   -1.5921  -12.5841 H   0  0  0  0  0  0
   -2.9304   -0.6341  -15.1252 H   0  0  0  0  0  0
   -2.0127   -2.8691  -15.3810 H   0  0  0  0  0  0
   -2.1753   -2.6532  -13.6051 H   0  0  0  0  0  0
   -4.7517   -4.0072  -12.5997 H   0  0  0  0  0  0
   -4.3977   -6.9347  -15.6247 H   0  0  0  0  0  0
   -5.7848   -2.6334  -14.4044 H   0  0  0  0  0  0
   -6.9535   -1.7515  -17.0232 H   0  0  0  0  0  0
   -5.8177   -4.4640  -16.6909 H   0  0  0  0  0  0
   -7.5628   -4.5227  -17.1125 H   0  0  0  0  0  0
   -7.0263   -2.9580  -19.0348 H   0  0  0  0  0  0
   -5.2918   -3.2536  -18.6732 H   0  0  0  0  0  0
   -5.5110   -4.9938  -20.0983 H   0  0  0  0  0  0
   -6.3078   -5.8192  -18.7161 H   0  0  0  0  0  0
   -8.5619   -4.7943  -19.7268 H   0  0  0  0  0  0
   -5.5890   -5.8167  -21.6205 H   0  0  0  0  0  0
   -6.6479   -6.2087  -23.1551 H   0  0  0  0  0  0
   -9.7555   -5.2583  -21.5223 H   0  0  0  0  0  0
   -7.0428   -3.6402  -14.0118 H   0  0  0  0  0  0
   -9.9227   -2.7541  -13.7259 H   0  0  0  0  0  0
   -8.3502   -2.2808  -11.8609 H   0  0  0  0  0  0
   -8.0349   -4.0391  -11.6725 H   0  0  0  0  0  0
   -9.6662   -3.3761  -11.3178 H   0  0  0  0  0  0
  -10.3625   -5.1876  -12.6677 H   0  0  0  0  0  0
  -10.4753   -4.9417  -14.4435 H   0  0  0  0  0  0
   -8.1929   -6.1665  -11.7342 H   0  0  0  0  0  0
   -9.1537   -6.1908  -15.9058 H   0  0  0  0  0  0
   -6.5560   -7.9750  -12.1020 H   0  0  0  0  0  0
   -7.5230   -8.0013  -16.2706 H   0  0  0  0  0  0
   -5.4579   -9.5033  -13.5683 H   0  0  0  0  0  0
  1  2  1  0  0  0
  1 88  1  0  0  0
  1 89  1  0  0  0
  1 90  1  0  0  0
  2  3  1  0  0  0
  2  5  1  0  0  0
  2 91  1  0  0  0
  3  4  2  0  0  0
  3  6  1  0  0  0
  5 92  1  0  0  0
  5 93  1  0  0  0
  5 94  1  0  0  0
  6  7  1  0  0  0
  6 95  1  0  0  0
  7  8  1  0  0  0
  7 10  1  0  0  0
  7 96  1  0  0  0
  8  9  2  0  0  0
  8 13  1  0  0  0
 10 11  1  0  0  0
 10 12  1  0  0  0
 10 97  1  0  0  0
 11 98  1  0  0  0
 12 99  1  0  0  0
 12100  1  0  0  0
 12101  1  0  0  0
 13 14  1  0  0  0
 13102  1  0  0  0
 14 15  1  0  0  0
 14103  1  0  0  0
 14104  1  0  0  0
 15 16  2  0  0  0
 15 17  1  0  0  0
 17 18  1  0  0  0
 17105  1  0  0  0
 18 19  1  0  0  0
 18106  1  0  0  0
 18107  1  0  0  0
 19 20  2  0  0  0
 19 21  1  0  0  0
 21 22  1  0  0  0
 21108  1  0  0  0
 22 23  1  0  0  0
 22 25  1  0  0  0
 22109  1  0  0  0
 23 24  2  0  0  0
 23 28  1  0  0  0
 25 26  1  0  0  0
 25 27  1  0  0  0
 25110  1  0  0  0
 26111  1  0  0  0
 26112  1  0  0  0
 26113  1  0  0  0
 27114  1  0  0  0
 27115  1  0  0  0
 27116  1  0  0  0
 28 29  1  0  0  0
 28117  1  0  0  0
 29 30  1  0  0  0
 29 35  1  0  0  0
 29118  1  0  0  0
 30 31  1  0  0  0
 30119  1  0  0  0
 30120  1  0  0  0
 31 32  1  0  0  0
 31121  1  0  0  0
 31122  1  0  0  0
 32 33  1  0  0  0
 32123  1  0  0  0
 32124  1  0  0  0
 33 34  1  0  0  0
 33125  1  0  0  0
 33126  1  0  0  0
 34 37  1  0  0  0
 34 38  1  0  0  0
 34 39  1  0  0  0
 35 36  2  0  0  0
 35 40  1  0  0  0
 37127  1  0  0  0
 37128  1  0  0  0
 37129  1  0  0  0
 38130  1  0  0  0
 38131  1  0  0  0
 38132  1  0  0  0
 39133  1  0  0  0
 39134  1  0  0  0
 39135  1  0  0  0
 40 41  1  0  0  0
 40136  1  0  0  0
 41 42  1  0  0  0
 41 44  1  0  0  0
 41137  1  0  0  0
 42 43  2  0  0  0
 42 49  1  0  0  0
 44 45  1  0  0  0
 44138  1  0  0  0
 44139  1  0  0  0
 45 46  1  0  0  0
 45140  1  0  0  0
 45141  1  0  0  0
 46 47  1  0  0  0
 46142  1  0  0  0
 46143  1  0  0  0
 47 48  1  0  0  0
 47144  1  0  0  0
 47145  1  0  0  0
 48146  1  0  0  0
 48147  1  0  0  0
 48148  1  0  0  0
 49 50  1  0  0  0
 49 55  1  0  0  0
 50 51  1  0  0  0
 50 53  1  0  0  0
 50149  1  0  0  0
 51 52  2  0  0  0
 51 56  1  0  0  0
 53 54  1  0  0  0
 53150  1  0  0  0
 53151  1  0  0  0
 54 55  1  0  0  0
 54152  1  0  0  0
 54153  1  0  0  0
 55154  1  0  0  0
 55155  1  0  0  0
 56 57  1  0  0  0
 56156  1  0  0  0
 57 58  1  0  0  0
 57 60  1  0  0  0
 57157  1  0  0  0
 58 59  2  0  0  0
 58 66  1  0  0  0
 60 61  1  0  0  0
 60158  1  0  0  0
 60159  1  0  0  0
 61 62  2  0  0  0
 61 63  1  0  0  0
 62 64  1  0  0  0
 63 65  2  0  0  0
 63160  1  0  0  0
 64 65  1  0  0  0
 64161  1  0  0  0
 66 67  1  0  0  0
 66162  1  0  0  0
 67 68  1  0  0  0
 67 70  1  0  0  0
 67163  1  0  0  0
 68 69  2  0  0  0
 68 77  1  0  0  0
 70 71  1  0  0  0
 70164  1  0  0  0
 70165  1  0  0  0
 71 72  1  0  0  0
 71166  1  0  0  0
 71167  1  0  0  0
 72 73  1  0  0  0
 72168  1  0  0  0
 72169  1  0  0  0
 73 74  1  0  0  0
 73170  1  0  0  0
 74 75  1  0  0  0
 74 76  2  0  0  0
 75171  1  0  0  0
 75172  1  0  0  0
 76173  1  0  0  0
 77 78  1  0  0  0
 77174  1  0  0  0
 78 79  1  0  0  0
 78 80  1  0  0  0
 78175  1  0  0  0
 79176  1  0  0  0
 79177  1  0  0  0
 79178  1  0  0  0
 80 81  1  0  0  0
 80179  1  0  0  0
 80180  1  0  0  0
 81 82  2  0  0  0
 81 83  1  0  0  0
 82 84  1  0  0  0
 82181  1  0  0  0
 83 85  2  0  0  0
 83182  1  0  0  0
 84 86  2  0  0  0
 84183  1  0  0  0
 85 86  1  0  0  0
 85184  1  0  0  0
 86 87  1  0  0  0
 87185  1  0  0  0
M  CHG  3   1   1  34   1  48   1
M  END
> <s_m_source_file>
../2m0o_ligand.sdf

> <i_m_source_file_index>
1

> <s_epik_input>
W05IMytdW0NAQEhdKFtDSDNdKUMoPU8pW05IXVtDQEBIXShbQ0BIXShbT0hdKVtDSDNdKUMoPU8pW05IXVtDSDJdQyg9TylbTkhdW0NIMl1DKD1PKVtOSF1bQ0BASF0oW0NIXShbQ0gzXSlbQ0gzXSlDKD1PKVtOSF1bQ0BASF0oW0NIMl1bQ0gyXVtDSDJdW0NIMl1bTitdKFtDSDNdKShbQ0gzXSlbQ0gzXSlDKD1PKVtOSF1bQ0BASF0oW0NIMl1bQ0gyXVtDSDJdW0NIMl1bTkgzK10pQyg9TylOMVtDQEBIXShbQ0gyXVtDSDJdW0NIMl0xKUMoPU8pW05IXVtDQEBIXShbQ0gyXUMyPU5bQ0gyXU49W0NIXTIpQyg9TylbTkhdW0NAQEhdKFtDSDJdW0NIMl1bQ0gyXVtOSF0vQyhbTkgyXSk9TlxbSF0pQyg9TylbTkhdW0NASF0oW0NIM10pW0NIMl1jM1tjSF1bY0hdYyhbT0hdKVtjSF1bY0hdMw==

> <s_epik_cmdline>
J2VwaWtfYXBwJywgJy1pbWFlJywgJ2xpZ2FuZF9wcm8ubWFlJywgJy1vbWFlJywgJ2xpZ2FuZF9wcmVwLm1hZScsICctbXMnLCAnMScsICctcGgnLCAnNycsICctcGh0JywgJzAuNScsICctbnQn

> <s_epik_pKa_notes>
Molecule size exceeds maximum supported for generating protonation states

> <s_epik_Chemistry_Notes>
This compound has an imine and may undergo hydrolysis.

$$$$
