2m0u_ligand
                    3D
 Schrodinger Suite 2020-3.
 89 88  0  0  1  0            999 V2000
  -18.4420   24.4030    0.9410 N   0  3  0  0  0  0
  -18.2860   24.3360   -0.5300 C   0  0  2  0  0  0
  -17.2800   23.2530   -0.8880 C   0  0  0  0  0  0
  -16.3570   23.4810   -1.6770 O   0  0  0  0  0  0
  -17.8040   25.6830   -1.0770 C   0  0  0  0  0  0
  -18.6750   26.8620   -0.6780 C   0  0  0  0  0  0
  -18.1190   28.1800   -1.1740 C   0  0  0  0  0  0
  -16.9070   28.3330   -1.3350 O   0  0  0  0  0  0
  -18.9930   29.1400   -1.4110 N   0  0  0  0  0  0
  -17.4670   22.0760   -0.2910 N   0  0  0  0  0  0
  -16.5380   20.9550   -0.4310 C   0  0  2  0  0  0
  -15.1900   21.3220    0.1770 C   0  0  0  0  0  0
  -15.0580   22.3440    0.8560 O   0  0  0  0  0  0
  -16.3570   20.5420   -1.9000 C   0  0  0  0  0  0
  -17.6670   20.2240   -2.5930 C   0  0  0  0  0  0
  -18.5560   19.6230   -1.9590 O   0  0  0  0  0  0
  -17.8220   20.5940   -3.7760 O   0  5  0  0  0  0
  -14.1980   20.4800   -0.0400 N   0  0  0  0  0  0
  -12.8560   20.7500    0.4420 C   0  0  2  0  0  0
  -11.8320   20.3460   -0.6090 C   0  0  0  0  0  0
  -11.7760   19.1840   -1.0160 O   0  0  0  0  0  0
  -12.5830   19.9970    1.7580 C   0  0  2  0  0  0
  -13.6350   20.2770    2.6950 O   0  0  0  0  0  0
  -11.2440   20.4080    2.3560 C   0  0  0  0  0  0
  -11.0420   21.3080   -1.0630 N   0  0  0  0  0  0
  -10.0740   21.0540   -2.1180 C   0  0  2  0  0  0
   -8.7450   20.5950   -1.5320 C   0  0  0  0  0  0
   -8.2490   21.1630   -0.5550 O   0  0  0  0  0  0
   -9.8600   22.3110   -2.9660 C   0  0  0  0  0  0
   -9.1470   22.0460   -4.2860 C   0  0  0  0  0  0
   -7.9320   22.9450   -4.4580 C   0  0  0  0  0  0
   -6.8320   22.5500   -3.5820 N   0  0  0  0  0  0
   -6.2200   23.3680   -2.7280 C   0  0  0  0  0  0
   -6.6010   24.6320   -2.6040 N   0  0  0  0  0  0
   -5.2150   22.9120   -1.9950 N   0  3  0  0  0  0
   -8.1920   19.5530   -2.1200 N   0  0  0  0  0  0
   -6.8920   19.0510   -1.7310 C   0  0  2  0  0  0
   -5.8990   19.2430   -2.8650 C   0  0  0  0  0  0
   -5.2270   20.2940   -2.8960 O   0  5  0  0  0  0
   -7.0020   17.5790   -1.3410 C   0  0  0  0  0  0
   -7.3680   17.3410    0.1210 C   0  0  0  0  0  0
   -8.1400   16.0460    0.2820 C   0  0  0  0  0  0
   -6.1080   17.3070    0.9650 C   0  0  0  0  0  0
   -5.8140   18.3580   -3.7340 O   0  0  0  0  0  0
  -18.7882   23.4292    1.3177 H   0  0  0  0  0  0
  -19.1794   25.1782    1.1966 H   0  0  0  0  0  0
  -17.4743   24.6513    1.4014 H   0  0  0  0  0  0
  -19.2729   24.0908   -0.9494 H   0  0  0  0  0  0
  -16.7900   25.8887   -0.7036 H   0  0  0  0  0  0
  -17.7899   25.6485   -2.1764 H   0  0  0  0  0  0
  -19.6814   26.7349   -1.1034 H   0  0  0  0  0  0
  -18.7441   26.9123    0.4187 H   0  0  0  0  0  0
  -20.0663   28.9580   -1.2531 H   0  0  0  0  0  0
  -18.6482   30.1222   -1.7665 H   0  0  0  0  0  0
  -18.3688   21.9688    0.3297 H   0  0  0  0  0  0
  -17.0006   20.1262    0.1249 H   0  0  0  0  0  0
  -15.8766   21.3614   -2.4547 H   0  0  0  0  0  0
  -15.7249   19.6433   -1.9530 H   0  0  0  0  0  0
  -14.4058   19.5563   -0.6000 H   0  0  0  0  0  0
  -12.8217   21.8370    0.6073 H   0  0  0  0  0  0
  -12.5935   18.9095    1.5931 H   0  0  0  0  0  0
  -14.6786   20.0453    2.4357 H   0  0  0  0  0  0
  -10.4398   20.1928    1.6370 H   0  0  0  0  0  0
  -11.0677   19.8431    3.2833 H   0  0  0  0  0  0
  -11.2574   21.4849    2.5796 H   0  0  0  0  0  0
  -11.1285   22.3140   -0.6265 H   0  0  0  0  0  0
  -10.5140   20.2489   -2.7249 H   0  0  0  0  0  0
  -10.8343   22.7621   -3.2052 H   0  0  0  0  0  0
   -9.2497   23.0331   -2.4038 H   0  0  0  0  0  0
   -8.8109   20.9991   -4.3174 H   0  0  0  0  0  0
   -9.8385   22.2343   -5.1205 H   0  0  0  0  0  0
   -7.5796   22.8901   -5.4986 H   0  0  0  0  0  0
   -8.2068   23.9828   -4.2183 H   0  0  0  0  0  0
   -6.4575   21.5159   -3.6015 H   0  0  0  0  0  0
   -7.4347   25.0171   -3.2095 H   0  0  0  0  0  0
   -6.0834   25.2955   -1.8956 H   0  0  0  0  0  0
   -4.8938   21.8645   -2.0929 H   0  0  0  0  0  0
   -8.7512   19.0622   -2.9301 H   0  0  0  0  0  0
   -6.5726   19.6469   -0.8633 H   0  0  0  0  0  0
   -7.7803   17.0956   -1.9497 H   0  0  0  0  0  0
   -6.0373   17.0802   -1.5159 H   0  0  0  0  0  0
   -8.0119   18.1636    0.4656 H   0  0  0  0  0  0
   -9.0505   16.0829   -0.3342 H   0  0  0  0  0  0
   -8.4172   15.9133    1.3382 H   0  0  0  0  0  0
   -7.5124   15.2024   -0.0412 H   0  0  0  0  0  0
   -5.5573   18.2509    0.8398 H   0  0  0  0  0  0
   -5.4742   16.4673    0.6439 H   0  0  0  0  0  0
   -6.3790   17.1781    2.0233 H   0  0  0  0  0  0
   -4.7017   23.5809   -1.2885 H   0  0  0  0  0  0
  1  2  1  0  0  0
  1 45  1  0  0  0
  1 46  1  0  0  0
  1 47  1  0  0  0
  2  3  1  0  0  0
  2  5  1  0  0  0
  2 48  1  0  0  0
  3  4  2  0  0  0
  3 10  1  0  0  0
  5  6  1  0  0  0
  5 49  1  0  0  0
  5 50  1  0  0  0
  6  7  1  0  0  0
  6 51  1  0  0  0
  6 52  1  0  0  0
  7  8  2  0  0  0
  7  9  1  0  0  0
  9 53  1  0  0  0
  9 54  1  0  0  0
 10 11  1  0  0  0
 10 55  1  0  0  0
 11 12  1  0  0  0
 11 14  1  0  0  0
 11 56  1  0  0  0
 12 13  2  0  0  0
 12 18  1  0  0  0
 14 15  1  0  0  0
 14 57  1  0  0  0
 14 58  1  0  0  0
 15 16  2  0  0  0
 15 17  1  0  0  0
 18 19  1  0  0  0
 18 59  1  0  0  0
 19 20  1  0  0  0
 19 22  1  0  0  0
 19 60  1  0  0  0
 20 21  2  0  0  0
 20 25  1  0  0  0
 22 23  1  0  0  0
 22 24  1  0  0  0
 22 61  1  0  0  0
 23 62  1  0  0  0
 24 63  1  0  0  0
 24 64  1  0  0  0
 24 65  1  0  0  0
 25 26  1  0  0  0
 25 66  1  0  0  0
 26 27  1  0  0  0
 26 29  1  0  0  0
 26 67  1  0  0  0
 27 28  2  0  0  0
 27 36  1  0  0  0
 29 30  1  0  0  0
 29 68  1  0  0  0
 29 69  1  0  0  0
 30 31  1  0  0  0
 30 70  1  0  0  0
 30 71  1  0  0  0
 31 32  1  0  0  0
 31 72  1  0  0  0
 31 73  1  0  0  0
 32 33  1  0  0  0
 32 74  1  0  0  0
 33 34  1  0  0  0
 33 35  2  0  0  0
 34 75  1  0  0  0
 34 76  1  0  0  0
 35 77  1  0  0  0
 35 89  1  0  0  0
 36 37  1  0  0  0
 36 78  1  0  0  0
 37 38  1  0  0  0
 37 40  1  0  0  0
 37 79  1  0  0  0
 38 39  1  0  0  0
 38 44  2  0  0  0
 40 41  1  0  0  0
 40 80  1  0  0  0
 40 81  1  0  0  0
 41 42  1  0  0  0
 41 43  1  0  0  0
 41 82  1  0  0  0
 42 83  1  0  0  0
 42 84  1  0  0  0
 42 85  1  0  0  0
 43 86  1  0  0  0
 43 87  1  0  0  0
 43 88  1  0  0  0
M  CHG  4   1   1  17  -1  35   1  39  -1
M  END
> <s_m_source_file>
../2m0u_ligand.sdf

> <i_m_source_file_index>
1

> <s_epik_input>
Tz1DKFtOSDJdKVtDSDJdW0NIMl1bQ0BIXShbTkgzK10pQyg9TylbTkhdW0NAQEhdKFtDSDJdQyg9TylbT0hdKUMoPU8pW05IXVtDQEBIXShbQ0BIXShbT0hdKVtDSDNdKUMoPU8pW05IXVtDQEhdKEMoPU8pW05IXVtDQEhdKEMoPU8pW09IXSlbQ0gyXVtDSF0oW0NIM10pW0NIM10pW0NIMl1bQ0gyXVtDSDJdW05IXS9DKFtOSDJdKT1OXFtIXQ==

> <s_epik_cmdline>
J2VwaWtfYXBwJywgJy1pbWFlJywgJ2xpZ2FuZF9wcm8ubWFlJywgJy1vbWFlJywgJ2xpZ2FuZF9wcmVwLm1hZScsICctbXMnLCAnMScsICctcGgnLCAnNycsICctcGh0JywgJzAuNScsICctbnQn

> <r_epik_Ionization_Penalty>
  0.1711

> <r_epik_Ionization_Penalty_Charging>
  0.1711

> <r_epik_Ionization_Penalty_Neutral>
  0.0000

> <r_epik_State_Penalty>
  0.1592

> <r_epik_Charging_Adjusted_Penalty>
0.330256920568435

> <i_epik_Tot_Q>
0

> <i_epik_Tot_abs_Q>
4

> <s_epik_Chemistry_Notes>
This compound has an imine and may undergo hydrolysis.

$$$$
