2m0v_ligand
                    3D
 Schrodinger Suite 2020-3.
 89 88  0  0  1  0            999 V2000
    5.2720   30.6500    9.8220 N   0  3  0  0  0  0
    5.9900   30.5590    8.5290 C   0  0  2  0  0  0
    5.2860   29.5540    7.6230 C   0  0  0  0  0  0
    4.4290   29.9330    6.8180 O   0  0  0  0  0  0
    7.4490   30.1500    8.7670 C   0  0  0  0  0  0
    8.3220   30.2300    7.5250 C   0  0  0  0  0  0
    9.7700   29.8700    7.8060 C   0  0  0  0  0  0
   10.0680   29.0660    8.6930 O   0  0  0  0  0  0
   10.6810   30.4720    7.0580 N   0  0  0  0  0  0
    5.6390   28.2760    7.7760 N   0  0  0  0  0  0
    4.9300   27.1770    7.1130 C   0  0  2  0  0  0
    4.9960   27.2690    5.5930 C   0  0  0  0  0  0
    5.7040   28.1010    5.0240 O   0  0  0  0  0  0
    3.4520   27.1550    7.5270 C   0  0  0  0  0  0
    3.2280   26.8650    8.9930 C   0  0  0  0  0  0
    3.8970   27.4820    9.8460 O   0  0  0  0  0  0
    2.3550   26.0260    9.2990 O   0  5  0  0  0  0
    4.2600   26.3710    4.9570 N   0  0  0  0  0  0
    4.0370   26.3900    3.5230 C   0  0  2  0  0  0
    2.6280   25.8860    3.2450 C   0  0  0  0  0  0
    2.2930   24.7550    3.5900 O   0  0  0  0  0  0
    5.0500   25.4910    2.7860 C   0  0  2  0  0  0
    6.3850   25.9360    3.0540 O   0  0  0  0  0  0
    4.8070   25.5000    1.2820 C   0  0  0  0  0  0
    1.7960   26.7150    2.6500 N   0  0  0  0  0  0
    0.4310   26.3110    2.3710 C   0  0  2  0  0  0
    0.2400   26.0000    0.8990 C   0  0  0  0  0  0
    0.7510   26.7060    0.0280 O   0  0  0  0  0  0
   -0.5720   27.3740    2.8190 C   0  0  0  0  0  0
   -1.0790   27.1720    4.2340 C   0  0  0  0  0  0
   -2.3650   27.9450    4.4810 C   0  0  0  0  0  0
   -3.4110   27.5740    3.5270 N   0  0  0  0  0  0
   -4.6980   27.4120    3.8380 C   0  0  0  0  0  0
   -5.1150   27.5680    5.0910 N   0  0  0  0  0  0
   -5.5650   27.0760    2.8910 N   0  3  0  0  0  0
   -0.4900   24.9310    0.6400 N   0  0  0  0  0  0
   -0.8160   24.5150   -0.7090 C   0  0  2  0  0  0
   -2.2620   24.0500   -0.7460 C   0  0  0  0  0  0
   -3.1630   24.9090   -0.7990 O   0  5  0  0  0  0
    0.1150   23.3850   -1.1670 C   0  0  0  0  0  0
    1.5500   23.8040   -1.5080 C   0  0  0  0  0  0
    2.4730   22.5980   -1.5160 C   0  0  0  0  0  0
    1.5930   24.5000   -2.8620 C   0  0  0  0  0  0
   -2.4980   22.8310   -0.7090 O   0  0  0  0  0  0
    4.2274   30.9436    9.6414 H   0  0  0  0  0  0
    5.7593   31.4021   10.4598 H   0  0  0  0  0  0
    5.2963   29.6718   10.3245 H   0  0  0  0  0  0
    5.9622   31.5533    8.0593 H   0  0  0  0  0  0
    7.8968   30.8122    9.5227 H   0  0  0  0  0  0
    7.4848   29.1100    9.1234 H   0  0  0  0  0  0
    7.9418   29.5325    6.7641 H   0  0  0  0  0  0
    8.2997   31.2551    7.1266 H   0  0  0  0  0  0
   10.3701   31.1824    6.2778 H   0  0  0  0  0  0
   11.7491   30.2619    7.2165 H   0  0  0  0  0  0
    6.4978   28.0618    8.4291 H   0  0  0  0  0  0
    5.4692   26.2804    7.4528 H   0  0  0  0  0  0
    2.9978   28.1346    7.3170 H   0  0  0  0  0  0
    2.9233   26.3762    6.9578 H   0  0  0  0  0  0
    3.8065   25.5811    5.5737 H   0  0  0  0  0  0
    4.1645   27.4380    3.2142 H   0  0  0  0  0  0
    4.9898   24.4605    3.1661 H   0  0  0  0  0  0
    6.7467   25.9969    4.0911 H   0  0  0  0  0  0
    3.7822   25.1585    1.0741 H   0  0  0  0  0  0
    5.5247   24.8266    0.7906 H   0  0  0  0  0  0
    4.9387   26.5214    0.8954 H   0  0  0  0  0  0
    2.1417   27.7194    2.3641 H   0  0  0  0  0  0
    0.2953   25.3934    2.9623 H   0  0  0  0  0  0
   -0.0979   28.3657    2.7784 H   0  0  0  0  0  0
   -1.4461   27.3579    2.1514 H   0  0  0  0  0  0
   -1.2773   26.1034    4.4034 H   0  0  0  0  0  0
   -0.3198   27.5219    4.9490 H   0  0  0  0  0  0
   -2.7312   27.7326    5.4963 H   0  0  0  0  0  0
   -2.1702   29.0228    4.3795 H   0  0  0  0  0  0
   -3.1573   27.4084    2.4695 H   0  0  0  0  0  0
   -4.3990   27.8465    5.8783 H   0  0  0  0  0  0
   -6.1759   27.4186    5.3402 H   0  0  0  0  0  0
   -5.2234   26.9462    1.8535 H   0  0  0  0  0  0
   -0.8546   24.3480    1.4986 H   0  0  0  0  0  0
   -0.6744   25.3984   -1.3489 H   0  0  0  0  0  0
    0.1948   22.6303   -0.3707 H   0  0  0  0  0  0
   -0.2942   22.9181   -2.0750 H   0  0  0  0  0  0
    1.9039   24.5049   -0.7376 H   0  0  0  0  0  0
    2.4360   22.1015   -0.5351 H   0  0  0  0  0  0
    3.5026   22.9256   -1.7225 H   0  0  0  0  0  0
    2.1489   21.8934   -2.2961 H   0  0  0  0  0  0
    0.9222   25.3717   -2.8476 H   0  0  0  0  0  0
    1.2671   23.7994   -3.6449 H   0  0  0  0  0  0
    2.6207   24.8316   -3.0713 H   0  0  0  0  0  0
   -6.6252   26.9274    3.1436 H   0  0  0  0  0  0
  1  2  1  0  0  0
  1 45  1  0  0  0
  1 46  1  0  0  0
  1 47  1  0  0  0
  2  3  1  0  0  0
  2  5  1  0  0  0
  2 48  1  0  0  0
  3  4  2  0  0  0
  3 10  1  0  0  0
  5  6  1  0  0  0
  5 49  1  0  0  0
  5 50  1  0  0  0
  6  7  1  0  0  0
  6 51  1  0  0  0
  6 52  1  0  0  0
  7  8  2  0  0  0
  7  9  1  0  0  0
  9 53  1  0  0  0
  9 54  1  0  0  0
 10 11  1  0  0  0
 10 55  1  0  0  0
 11 12  1  0  0  0
 11 14  1  0  0  0
 11 56  1  0  0  0
 12 13  2  0  0  0
 12 18  1  0  0  0
 14 15  1  0  0  0
 14 57  1  0  0  0
 14 58  1  0  0  0
 15 16  2  0  0  0
 15 17  1  0  0  0
 18 19  1  0  0  0
 18 59  1  0  0  0
 19 20  1  0  0  0
 19 22  1  0  0  0
 19 60  1  0  0  0
 20 21  2  0  0  0
 20 25  1  0  0  0
 22 23  1  0  0  0
 22 24  1  0  0  0
 22 61  1  0  0  0
 23 62  1  0  0  0
 24 63  1  0  0  0
 24 64  1  0  0  0
 24 65  1  0  0  0
 25 26  1  0  0  0
 25 66  1  0  0  0
 26 27  1  0  0  0
 26 29  1  0  0  0
 26 67  1  0  0  0
 27 28  2  0  0  0
 27 36  1  0  0  0
 29 30  1  0  0  0
 29 68  1  0  0  0
 29 69  1  0  0  0
 30 31  1  0  0  0
 30 70  1  0  0  0
 30 71  1  0  0  0
 31 32  1  0  0  0
 31 72  1  0  0  0
 31 73  1  0  0  0
 32 33  1  0  0  0
 32 74  1  0  0  0
 33 34  1  0  0  0
 33 35  2  0  0  0
 34 75  1  0  0  0
 34 76  1  0  0  0
 35 77  1  0  0  0
 35 89  1  0  0  0
 36 37  1  0  0  0
 36 78  1  0  0  0
 37 38  1  0  0  0
 37 40  1  0  0  0
 37 79  1  0  0  0
 38 39  1  0  0  0
 38 44  2  0  0  0
 40 41  1  0  0  0
 40 80  1  0  0  0
 40 81  1  0  0  0
 41 42  1  0  0  0
 41 43  1  0  0  0
 41 82  1  0  0  0
 42 83  1  0  0  0
 42 84  1  0  0  0
 42 85  1  0  0  0
 43 86  1  0  0  0
 43 87  1  0  0  0
 43 88  1  0  0  0
M  CHG  4   1   1  17  -1  35   1  39  -1
M  END
> <s_m_source_file>
../2m0v_ligand.sdf

> <i_m_source_file_index>
1

> <s_epik_input>
Tz1DKFtOSDJdKVtDSDJdW0NIMl1bQ0BIXShbTkgzK10pQyg9TylbTkhdW0NAQEhdKFtDSDJdQyg9TylbT0hdKUMoPU8pW05IXVtDQEBIXShbQ0BIXShbT0hdKVtDSDNdKUMoPU8pW05IXVtDQEhdKEMoPU8pW05IXVtDQEhdKEMoPU8pW09IXSlbQ0gyXVtDSF0oW0NIM10pW0NIM10pW0NIMl1bQ0gyXVtDSDJdW05IXS9DKFtOSDJdKT1OXFtIXQ==

> <s_epik_cmdline>
J2VwaWtfYXBwJywgJy1pbWFlJywgJ2xpZ2FuZF9wcm8ubWFlJywgJy1vbWFlJywgJ2xpZ2FuZF9wcmVwLm1hZScsICctbXMnLCAnMScsICctcGgnLCAnNycsICctcGh0JywgJzAuNScsICctbnQn

> <r_epik_Ionization_Penalty>
  0.1711

> <r_epik_Ionization_Penalty_Charging>
  0.1711

> <r_epik_Ionization_Penalty_Neutral>
  0.0000

> <r_epik_State_Penalty>
  0.1592

> <r_epik_Charging_Adjusted_Penalty>
0.330256920568435

> <i_epik_Tot_Q>
0

> <i_epik_Tot_abs_Q>
4

> <s_epik_Chemistry_Notes>
This compound has an imine and may undergo hydrolysis.

$$$$
