2m3m_ligand
                    3D
 Schrodinger Suite 2020-3.
196196  0  0  1  0            999 V2000
   22.3680   -8.6360   18.5260 N   0  3  0  0  0  0
   22.5120   -7.4040   19.2980 C   0  0  1  0  0  0
   23.1450   -7.7610   20.6330 C   0  0  0  0  0  0
   23.2930   -9.2530   20.5690 C   0  0  0  0  0  0
   23.2520   -9.6290   19.0960 C   0  0  2  0  0  0
   24.2810   -9.9670   18.5120 O   0  0  0  0  0  0
   23.3780   -6.4040   18.5310 C   0  0  0  0  0  0
   24.0560   -5.5370   19.1190 O   0  0  0  0  0  0
   23.2750   -6.4700   17.2280 N   0  0  0  0  0  0
   24.0570   -5.6750   16.3200 C   0  0  2  0  0  0
   23.2060   -4.4890   15.9700 C   0  0  0  0  0  0
   23.5990   -3.3410   16.1590 O   0  0  0  0  0  0
   24.3170   -6.5120   15.0840 C   0  0  0  0  0  0
   24.8350   -7.9040   15.4120 C   0  0  0  0  0  0
   24.6020   -8.8420   14.2470 C   0  0  0  0  0  0
   23.1530   -8.9530   13.9970 N   0  0  0  0  0  0
   22.5550   -9.5090   12.9480 C   0  0  0  0  0  0
   23.2710  -10.0620   11.9660 N   0  0  0  0  0  0
   21.2300   -9.4940   12.8890 N   0  0  0  0  0  0
   22.0200   -4.7840   15.4850 N   0  0  0  0  0  0
   21.0360   -3.7810   15.2780 C   0  0  2  0  0  0
   20.2290   -3.7480   16.5710 C   0  0  0  0  0  0
   20.1620   -4.7600   17.2770 O   0  0  0  0  0  0
   20.1940   -4.0400   13.9930 C   0  0  2  0  0  0
   21.0890   -4.4250   12.9400 O   0  0  0  0  0  0
   19.5560   -2.7490   13.5860 C   0  0  0  0  0  0
   19.6530   -2.6360   16.9120 N   0  0  0  0  0  0
   19.1950   -2.4790   18.2640 C   0  0  2  0  0  0
   18.0700   -1.4890   18.3140 C   0  0  0  0  0  0
   17.8080   -0.8030   17.3360 O   0  0  0  0  0  0
   20.4030   -1.9480   19.0290 C   0  0  0  0  0  0
   20.3380   -1.8930   20.5370 C   0  0  0  0  0  0
   21.6730   -1.3810   21.0590 C   0  0  0  0  0  0
   22.7980   -2.2150   20.5570 N   0  0  0  0  0  0
   23.7040   -1.8310   19.6190 C   0  0  0  0  0  0
   23.6360   -0.6040   19.0670 N   0  0  0  0  0  0
   24.6140   -2.7090   19.1740 N   0  0  0  0  0  0
   17.3930   -1.4540   19.4150 N   0  0  0  0  0  0
   16.3430   -0.5150   19.6390 C   0  0  2  0  0  0
   16.9090    0.8080   20.1620 C   0  0  0  0  0  0
   17.9900    0.8310   20.7420 O   0  0  0  0  0  0
   15.2320   -1.0810   20.5600 C   0  0  0  0  0  0
   15.7030   -1.7400   21.8550 C   0  0  0  0  0  0
   16.2410   -3.1470   21.6650 C   0  0  0  0  0  0
   17.4250   -3.3390   21.4380 O   0  0  0  0  0  0
   15.3750   -4.1250   21.7320 N   0  0  0  0  0  0
   16.1410    1.8810   19.9760 N   0  0  0  0  0  0
   16.5330    3.2700   20.2740 C   0  0  2  0  0  0
   17.6470    3.7660   19.3690 C   0  0  0  0  0  0
   18.3690    4.6890   19.7140 O   0  0  0  0  0  0
   16.8430    3.5370   21.7670 C   0  0  0  0  0  0
   15.6030    3.7450   22.6400 C   0  0  0  0  0  0
   14.7900    2.4790   22.8290 C   0  0  0  0  0  0
   15.4960    1.4950   23.6670 N   0  0  0  0  0  0
   14.9010    0.5030   24.3470 C   0  0  0  0  0  0
   13.5730    0.3430   24.2740 N   0  0  0  0  0  0
   15.6350   -0.3240   25.1030 N   0  0  0  0  0  0
   17.7210    3.1870   18.1800 N   0  0  0  0  0  0
   18.6550    3.6330   17.1570 C   0  0  2  0  0  0
   18.1950    3.1530   15.8050 C   0  0  0  0  0  0
   17.6080    2.0630   15.7140 O   0  0  0  0  0  0
   20.1540    3.2430   17.4660 C   0  0  0  0  0  0
   20.5520    1.7330   17.4650 C   0  0  0  0  0  0
   21.4040    1.3010   18.2660 O   0  0  0  0  0  0
   20.0350    0.9440   16.5600 N   0  0  0  0  0  0
   18.3910    3.9390   14.7720 N   0  0  0  0  0  0
   18.0300    3.4970   13.4500 C   0  0  2  0  0  0
   19.2320    2.8230   12.8190 C   0  0  0  0  0  0
   20.3580    2.9600   13.3080 O   0  0  0  0  0  0
   17.4920    4.6450   12.5510 C   0  0  0  0  0  0
   18.5230    5.5910   11.9380 C   0  0  0  0  0  0
   19.3600    6.3460   12.9330 C   0  0  0  0  0  0
   18.8710    6.6650   14.0100 O   0  0  0  0  0  0
   20.5160    6.6680   12.5980 O   0  0  0  0  0  0
   19.0150    2.0450   11.8070 N   0  0  0  0  0  0
   20.1040    1.3950   11.1380 C   0  0  2  0  0  0
   19.7980    1.2400    9.6460 C   0  0  0  0  0  0
   18.6420    1.0010    9.2590 O   0  0  0  0  0  0
   20.4000    0.0180   11.7920 C   0  0  2  0  0  0
   20.6370    0.2080   13.2030 O   0  0  0  0  0  0
   21.6340   -0.6420   11.1770 C   0  0  0  0  0  0
   20.8150    1.4470    8.8230 N   0  0  0  0  0  0
   20.7120    1.2890    7.3880 C   0  0  2  0  0  0
   20.5900   -0.1840    7.0370 C   0  0  0  0  0  0
   21.2660   -1.0350    7.6400 O   0  0  0  0  0  0
   21.9400    1.8960    6.7030 C   0  0  0  0  0  0
   21.9500    1.7840    5.1790 C   0  0  0  0  0  0
   23.2260    2.3270    4.5720 C   0  0  0  0  0  0
   23.8460    3.2220    5.1110 O   0  0  0  0  0  0
   23.6190    1.8000    3.4450 N   0  0  0  0  0  0
   19.7410   -0.4730    6.0930 N   0  0  0  0  0  0
   19.5010   -1.8140    5.6420 C   0  0  2  0  0  0
   20.3670   -2.1780    4.4400 C   0  0  0  0  0  0
   20.1350   -1.6510    3.3140 O   0  0  0  0  0  0
   18.0000   -2.1020    5.3950 C   0  0  0  0  0  0
   17.2870   -2.1820    6.7230 C   0  0  0  0  0  0
   17.3630   -1.0140    4.5490 C   0  0  0  0  0  0
   21.2960   -3.0010    4.6440 O   0  0  0  0  0  0
   21.3251   -8.9819   18.5787 H   0  0  0  0  0  0
   22.6384   -8.4451   17.4770 H   0  0  0  0  0  0
   21.5127   -6.9696   19.4485 H   0  0  0  0  0  0
   24.1143   -7.2497   20.7276 H   0  0  0  0  0  0
   22.4812   -7.4427   21.4504 H   0  0  0  0  0  0
   24.2512   -9.5462   21.0227 H   0  0  0  0  0  0
   22.4667   -9.7274   21.1187 H   0  0  0  0  0  0
   23.0652  -10.6646   18.7756 H   0  0  0  0  0  0
   24.2450  -10.2378   17.4465 H   0  0  0  0  0  0
   22.5373   -7.1860   16.8368 H   0  0  0  0  0  0
   25.0040   -5.3674   16.7876 H   0  0  0  0  0  0
   23.3822   -6.6270   14.5158 H   0  0  0  0  0  0
   25.0693   -6.0135   14.4551 H   0  0  0  0  0  0
   25.9137   -7.8539   15.6213 H   0  0  0  0  0  0
   24.3078   -8.2927   16.2957 H   0  0  0  0  0  0
   25.1021   -8.4453   13.3512 H   0  0  0  0  0  0
   25.0125   -9.8339   14.4871 H   0  0  0  0  0  0
   22.4364   -8.5477   14.7265 H   0  0  0  0  0  0
   24.3695  -10.0698   12.0235 H   0  0  0  0  0  0
   22.7624  -10.5098   11.0995 H   0  0  0  0  0  0
   20.6484   -9.0362   13.7027 H   0  0  0  0  0  0
   21.7970   -5.8325   15.2383 H   0  0  0  0  0  0
   21.5534   -2.8248   15.1107 H   0  0  0  0  0  0
   19.4436   -4.8354   14.1125 H   0  0  0  0  0  0
   21.6721   -5.3537   13.0259 H   0  0  0  0  0  0
   18.8599   -2.4203   14.3717 H   0  0  0  0  0  0
   19.0051   -2.8930   12.6448 H   0  0  0  0  0  0
   20.3340   -1.9848   13.4423 H   0  0  0  0  0  0
   19.5131   -1.8217   16.1858 H   0  0  0  0  0  0
   18.8141   -3.4392   18.6420 H   0  0  0  0  0  0
   21.2801   -2.5746   18.8099 H   0  0  0  0  0  0
   20.6061   -0.9120   18.7202 H   0  0  0  0  0  0
   19.5290   -1.2140   20.8446 H   0  0  0  0  0  0
   20.1414   -2.9004   20.9325 H   0  0  0  0  0  0
   21.8251   -0.3448   20.7227 H   0  0  0  0  0  0
   21.6736   -1.4134   22.1585 H   0  0  0  0  0  0
   22.9465   -3.2319   20.9492 H   0  0  0  0  0  0
   22.8915    0.1209   19.4278 H   0  0  0  0  0  0
   24.3250   -0.3270   18.2555 H   0  0  0  0  0  0
   24.6745   -3.7124   19.6207 H   0  0  0  0  0  0
   17.6530   -2.1847   20.1950 H   0  0  0  0  0  0
   15.9262   -0.3648   18.6322 H   0  0  0  0  0  0
   14.5557   -0.2675   20.8612 H   0  0  0  0  0  0
   14.6621   -1.8496   20.0174 H   0  0  0  0  0  0
   16.5097   -1.1389   22.2999 H   0  0  0  0  0  0
   14.8617   -1.8043   22.5608 H   0  0  0  0  0  0
   14.3164   -3.9091   21.9389 H   0  0  0  0  0  0
   15.7053   -5.1634   21.5815 H   0  0  0  0  0  0
   15.1430    1.6671   19.5657 H   0  0  0  0  0  0
   15.6185    3.8247   20.0170 H   0  0  0  0  0  0
   17.3919    2.6809   22.1863 H   0  0  0  0  0  0
   17.4564    4.4456   21.8574 H   0  0  0  0  0  0
   15.9106    4.0955   23.6363 H   0  0  0  0  0  0
   14.9478    4.4954   22.1735 H   0  0  0  0  0  0
   13.8353    2.7257   23.3165 H   0  0  0  0  0  0
   14.5933    2.0198   21.8490 H   0  0  0  0  0  0
   16.5903    1.5432   23.7683 H   0  0  0  0  0  0
   12.9705    1.0223   23.6531 H   0  0  0  0  0  0
   13.0850   -0.4677   24.8350 H   0  0  0  0  0  0
   16.7255   -0.1924   25.1628 H   0  0  0  0  0  0
   17.0458    2.3424   17.9778 H   0  0  0  0  0  0
   18.5675    4.7294   17.1737 H   0  0  0  0  0  0
   20.8149    3.7058   16.7183 H   0  0  0  0  0  0
   20.4271    3.6024   18.4691 H   0  0  0  0  0  0
   19.2837    1.3320   15.8565 H   0  0  0  0  0  0
   20.3513   -0.1080   16.5020 H   0  0  0  0  0  0
   18.8316    4.9364   14.9173 H   0  0  0  0  0  0
   17.2190    2.7723   13.6146 H   0  0  0  0  0  0
   16.9423    4.2171   11.6997 H   0  0  0  0  0  0
   16.8175    5.2854   13.1384 H   0  0  0  0  0  0
   19.2200    5.0166   11.3101 H   0  0  0  0  0  0
   18.0094    6.3435   11.3217 H   0  0  0  0  0  0
   21.1580    7.2211   13.2994 H   0  0  0  0  0  0
   17.9830    1.8849   11.4615 H   0  0  0  0  0  0
   20.9558    2.0786   11.2690 H   0  0  0  0  0  0
   19.5332   -0.6511   11.6872 H   0  0  0  0  0  0
   19.8639    0.6722   13.8330 H   0  0  0  0  0  0
   21.4700   -0.7943   10.1000 H   0  0  0  0  0  0
   21.8103   -1.6134   11.6620 H   0  0  0  0  0  0
   22.5096    0.0068   11.3264 H   0  0  0  0  0  0
   21.7701    1.7520    9.2756 H   0  0  0  0  0  0
   19.7991    1.8236    7.0867 H   0  0  0  0  0  0
   21.9998    2.9683    6.9407 H   0  0  0  0  0  0
   22.8480    1.3896    7.0623 H   0  0  0  0  0  0
   21.8572    0.7271    4.8884 H   0  0  0  0  0  0
   21.1057    2.3539    4.7639 H   0  0  0  0  0  0
   23.0346    0.9907    2.9829 H   0  0  0  0  0  0
   24.5347    2.1650    2.9569 H   0  0  0  0  0  0
   19.1959    0.3665    5.6368 H   0  0  0  0  0  0
   19.8417   -2.4082    6.5027 H   0  0  0  0  0  0
   20.7580   -1.9119    2.4458 H   0  0  0  0  0  0
   17.8889   -3.0558    4.8585 H   0  0  0  0  0  0
   17.7460   -2.9695    7.3387 H   0  0  0  0  0  0
   16.2259   -2.4190    6.5558 H   0  0  0  0  0  0
   17.3695   -1.2158    7.2422 H   0  0  0  0  0  0
   17.8803   -0.9529    3.5801 H   0  0  0  0  0  0
   17.4454   -0.0488    5.0702 H   0  0  0  0  0  0
   16.3019   -1.2521    4.3838 H   0  0  0  0  0  0
  1  2  1  0  0  0
  1  5  1  0  0  0
  1 99  1  0  0  0
  1100  1  0  0  0
  2  3  1  0  0  0
  2  7  1  0  0  0
  2101  1  0  0  0
  3  4  1  0  0  0
  3102  1  0  0  0
  3103  1  0  0  0
  4  5  1  0  0  0
  4104  1  0  0  0
  4105  1  0  0  0
  5  6  1  0  0  0
  5106  1  0  0  0
  6107  1  0  0  0
  7  8  2  0  0  0
  7  9  1  0  0  0
  9 10  1  0  0  0
  9108  1  0  0  0
 10 11  1  0  0  0
 10 13  1  0  0  0
 10109  1  0  0  0
 11 12  2  0  0  0
 11 20  1  0  0  0
 13 14  1  0  0  0
 13110  1  0  0  0
 13111  1  0  0  0
 14 15  1  0  0  0
 14112  1  0  0  0
 14113  1  0  0  0
 15 16  1  0  0  0
 15114  1  0  0  0
 15115  1  0  0  0
 16 17  1  0  0  0
 16116  1  0  0  0
 17 18  1  0  0  0
 17 19  2  0  0  0
 18117  1  0  0  0
 18118  1  0  0  0
 19119  1  0  0  0
 20 21  1  0  0  0
 20120  1  0  0  0
 21 22  1  0  0  0
 21 24  1  0  0  0
 21121  1  0  0  0
 22 23  2  0  0  0
 22 27  1  0  0  0
 24 25  1  0  0  0
 24 26  1  0  0  0
 24122  1  0  0  0
 25123  1  0  0  0
 26124  1  0  0  0
 26125  1  0  0  0
 26126  1  0  0  0
 27 28  1  0  0  0
 27127  1  0  0  0
 28 29  1  0  0  0
 28 31  1  0  0  0
 28128  1  0  0  0
 29 30  2  0  0  0
 29 38  1  0  0  0
 31 32  1  0  0  0
 31129  1  0  0  0
 31130  1  0  0  0
 32 33  1  0  0  0
 32131  1  0  0  0
 32132  1  0  0  0
 33 34  1  0  0  0
 33133  1  0  0  0
 33134  1  0  0  0
 34 35  1  0  0  0
 34135  1  0  0  0
 35 36  1  0  0  0
 35 37  2  0  0  0
 36136  1  0  0  0
 36137  1  0  0  0
 37138  1  0  0  0
 38 39  1  0  0  0
 38139  1  0  0  0
 39 40  1  0  0  0
 39 42  1  0  0  0
 39140  1  0  0  0
 40 41  2  0  0  0
 40 47  1  0  0  0
 42 43  1  0  0  0
 42141  1  0  0  0
 42142  1  0  0  0
 43 44  1  0  0  0
 43143  1  0  0  0
 43144  1  0  0  0
 44 45  2  0  0  0
 44 46  1  0  0  0
 46145  1  0  0  0
 46146  1  0  0  0
 47 48  1  0  0  0
 47147  1  0  0  0
 48 49  1  0  0  0
 48 51  1  0  0  0
 48148  1  0  0  0
 49 50  2  0  0  0
 49 58  1  0  0  0
 51 52  1  0  0  0
 51149  1  0  0  0
 51150  1  0  0  0
 52 53  1  0  0  0
 52151  1  0  0  0
 52152  1  0  0  0
 53 54  1  0  0  0
 53153  1  0  0  0
 53154  1  0  0  0
 54 55  1  0  0  0
 54155  1  0  0  0
 55 56  1  0  0  0
 55 57  2  0  0  0
 56156  1  0  0  0
 56157  1  0  0  0
 57158  1  0  0  0
 58 59  1  0  0  0
 58159  1  0  0  0
 59 60  1  0  0  0
 59 62  1  0  0  0
 59160  1  0  0  0
 60 61  2  0  0  0
 60 66  1  0  0  0
 62 63  1  0  0  0
 62161  1  0  0  0
 62162  1  0  0  0
 63 64  2  0  0  0
 63 65  1  0  0  0
 65163  1  0  0  0
 65164  1  0  0  0
 66 67  1  0  0  0
 66165  1  0  0  0
 67 68  1  0  0  0
 67 70  1  0  0  0
 67166  1  0  0  0
 68 69  2  0  0  0
 68 75  1  0  0  0
 70 71  1  0  0  0
 70167  1  0  0  0
 70168  1  0  0  0
 71 72  1  0  0  0
 71169  1  0  0  0
 71170  1  0  0  0
 72 73  2  0  0  0
 72 74  1  0  0  0
 74171  1  0  0  0
 75 76  1  0  0  0
 75172  1  0  0  0
 76 77  1  0  0  0
 76 79  1  0  0  0
 76173  1  0  0  0
 77 78  2  0  0  0
 77 82  1  0  0  0
 79 80  1  0  0  0
 79 81  1  0  0  0
 79174  1  0  0  0
 80175  1  0  0  0
 81176  1  0  0  0
 81177  1  0  0  0
 81178  1  0  0  0
 82 83  1  0  0  0
 82179  1  0  0  0
 83 84  1  0  0  0
 83 86  1  0  0  0
 83180  1  0  0  0
 84 85  2  0  0  0
 84 91  1  0  0  0
 86 87  1  0  0  0
 86181  1  0  0  0
 86182  1  0  0  0
 87 88  1  0  0  0
 87183  1  0  0  0
 87184  1  0  0  0
 88 89  2  0  0  0
 88 90  1  0  0  0
 90185  1  0  0  0
 90186  1  0  0  0
 91 92  1  0  0  0
 91187  1  0  0  0
 92 93  1  0  0  0
 92 95  1  0  0  0
 92188  1  0  0  0
 93 94  1  0  0  0
 93 98  2  0  0  0
 94189  1  0  0  0
 95 96  1  0  0  0
 95 97  1  0  0  0
 95190  1  0  0  0
 96191  1  0  0  0
 96192  1  0  0  0
 96193  1  0  0  0
 97194  1  0  0  0
 97195  1  0  0  0
 97196  1  0  0  0
M  CHG  1   1   1
M  END
> <s_m_source_file>
../2m3m_ligand.sdf

> <i_m_source_file_index>
1

> <s_epik_input>
W0NIMl0xW0NIMl1bQ0BIXShbT0hdKVtOSDIrXVtDQEBIXTFDKD1PKVtOSF1bQ0BASF0oW0NIMl1bQ0gyXVtDSDJdW05IXS9DKFtOSDJdKT1OXFtIXSlDKD1PKVtOSF1bQ0BASF0oW0NASF0oW09IXSlbQ0gzXSlDKD1PKVtOSF1bQ0BASF0oW0NIMl1bQ0gyXVtDSDJdW05IXS9DKFtOSDJdKT1OXFtIXSlDKD1PKVtOSF1bQ0BASF0oW0NIMl1bQ0gyXUMoPU8pW05IMl0pQyg9TylbTkhdW0NAQEhdKFtDSDJdW0NIMl1bQ0gyXVtOSF0vQyhbTkgyXSk9TlxbSF0pQyg9TylbTkhdW0NAQEhdKFtDSDJdQyg9TylbTkgyXSlDKD1PKVtOSF1bQ0BASF0oW0NIMl1bQ0gyXUMoPU8pW09IXSlDKD1PKVtOSF1bQ0BASF0oW0NASF0oW09IXSlbQ0gzXSlDKD1PKVtOSF1bQ0BASF0oW0NIMl1bQ0gyXUMoPU8pW05IMl0pQyg9TylbTkhdW0NASF0oQyg9TylbT0hdKVtDSF0oW0NIM10pW0NIM10=

> <s_epik_cmdline>
J2VwaWtfYXBwJywgJy1pbWFlJywgJ2xpZ2FuZF9wcm8ubWFlJywgJy1vbWFlJywgJ2xpZ2FuZF9wcmVwLm1hZScsICctbXMnLCAnMScsICctcGgnLCAnNycsICctcGh0JywgJzAuNScsICctbnQn

> <s_epik_pKa_notes>
Molecule size exceeds maximum supported for generating protonation states

> <s_epik_Chemistry_Notes>
This compound has an imine and may undergo hydrolysis. This compound contains an acetal/aminal-like group ( X-CH(R)-Y where X, Y are N, S, or O) that may be acid/base labile, releasing an aldehyde.

$$$$
