2m3o_ligand
                    3D
 Schrodinger Suite 2020-3.
151154  0  0  1  0            999 V2000
  -12.5700  -25.8520    1.0060 N   0  3  0  0  0  0
  -12.3990  -27.2490    1.3850 C   0  0  2  0  0  0
  -11.6170  -28.0140    0.3180 C   0  0  0  0  0  0
  -11.0170  -29.0550    0.5910 O   0  0  0  0  0  0
  -13.7680  -27.9180    1.6070 C   0  0  2  0  0  0
  -14.6300  -27.6340    0.4950 O   0  0  0  0  0  0
  -14.4090  -27.4200    2.8960 C   0  0  0  0  0  0
  -11.6330  -27.4850   -0.8960 N   0  0  0  0  0  0
  -10.9390  -28.1010   -2.0140 C   0  0  2  0  0  0
   -9.9740  -27.1070   -2.6540 C   0  0  0  0  0  0
  -10.2550  -25.9090   -2.7020 O   0  0  0  0  0  0
  -11.9410  -28.6090   -3.0440 C   0  0  0  0  0  0
   -8.8200  -27.5820   -3.1370 N   0  0  0  0  0  0
   -7.8420  -26.7340   -3.8160 C   0  0  2  0  0  0
   -8.2300  -26.4780   -5.2720 C   0  0  0  0  0  0
   -8.8960  -27.3030   -5.8980 O   0  0  0  0  0  0
   -6.5580  -27.5600   -3.7320 C   0  0  0  0  0  0
   -7.0220  -28.9770   -3.7270 C   0  0  0  0  0  0
   -8.3730  -28.9840   -3.0560 C   0  0  0  0  0  0
   -7.8320  -25.3320   -5.8310 N   0  0  0  0  0  0
   -8.1450  -24.9960   -7.2130 C   0  0  2  0  0  0
   -7.1890  -25.6670   -8.1950 C   0  0  0  0  0  0
   -6.0310  -25.9310   -7.8600 O   0  0  0  0  0  0
   -7.9820  -23.4800   -7.2430 C   0  0  0  0  0  0
   -6.9550  -23.1830   -6.2040 C   0  0  0  0  0  0
   -7.0520  -24.2750   -5.1650 C   0  0  0  0  0  0
   -7.6670  -25.9620   -9.4150 N   0  0  0  0  0  0
   -6.8470  -26.5860  -10.4560 C   0  0  2  0  0  0
   -5.6380  -25.7330  -10.8220 C   0  0  0  0  0  0
   -5.7360  -24.5070  -10.9050 O   0  0  0  0  0  0
   -7.7940  -26.6930  -11.6570 C   0  0  0  0  0  0
   -8.8960  -25.7340  -11.3720 C   0  0  0  0  0  0
   -9.0420  -25.7140   -9.8800 C   0  0  0  0  0  0
   -4.5070  -26.3860  -11.0400 N   0  0  0  0  0  0
   -3.2770  -25.6940  -11.3910 C   0  0  2  0  0  0
   -3.3710  -25.0810  -12.7840 C   0  0  0  0  0  0
   -4.2350  -25.4460  -13.5840 O   0  0  0  0  0  0
   -2.0940  -26.6470  -11.3020 C   0  0  0  0  0  0
   -2.4600  -24.1650  -13.0680 N   0  0  0  0  0  0
   -2.4410  -23.4450  -14.3350 C   0  0  2  0  0  0
   -2.2540  -24.4030  -15.5080 C   0  0  0  0  0  0
   -2.8890  -24.2540  -16.5530 O   0  0  0  0  0  0
   -1.3230  -22.3980  -14.3130 C   0  0  0  0  0  0
   -1.2070  -21.5900  -15.5840 C   0  0  0  0  0  0
   -2.1810  -20.6650  -15.9300 C   0  0  0  0  0  0
   -0.1200  -21.7520  -16.4340 C   0  0  0  0  0  0
   -2.0770  -19.9220  -17.0890 C   0  0  0  0  0  0
   -0.0090  -21.0130  -17.5940 C   0  0  0  0  0  0
   -0.9880  -20.1000  -17.9180 C   0  0  0  0  0  0
   -0.8790  -19.3610  -19.0740 O   0  0  0  0  0  0
   -1.3970  -25.3950  -15.3160 N   0  0  0  0  0  0
   -1.1300  -26.3890  -16.3520 C   0  0  2  0  0  0
   -2.2820  -27.3780  -16.4410 C   0  0  0  0  0  0
   -2.4690  -28.0580  -17.4470 O   0  0  0  0  0  0
    0.1730  -27.1200  -16.0650 C   0  0  0  0  0  0
   -3.0530  -27.4420  -15.3690 N   0  0  0  0  0  0
   -4.1960  -28.3330  -15.2790 C   0  0  2  0  0  0
   -5.3880  -27.7670  -16.0450 C   0  0  0  0  0  0
   -6.1450  -28.5020  -16.6770 O   0  0  0  0  0  0
   -4.5850  -28.5400  -13.8020 C   0  0  2  0  0  0
   -3.4840  -29.1180  -13.0930 O   0  0  0  0  0  0
   -5.8050  -29.4320  -13.6590 C   0  0  0  0  0  0
   -5.5400  -26.4530  -15.9890 N   0  0  0  0  0  0
   -6.6610  -25.7820  -16.6310 C   0  0  2  0  0  0
   -6.3210  -25.3700  -18.0620 C   0  0  0  0  0  0
   -7.1830  -24.8920  -18.8010 O   0  0  0  0  0  0
   -7.0910  -24.5720  -15.7880 C   0  0  0  0  0  0
   -5.9950  -23.5450  -15.4870 C   0  0  0  0  0  0
   -5.8730  -22.5190  -16.6040 C   0  0  0  0  0  0
   -6.2700  -22.8660  -14.1590 C   0  0  0  0  0  0
   -5.0660  -25.5550  -18.4500 N   0  0  0  0  0  0
   -4.6430  -25.1960  -19.7900 C   0  0  0  0  0  0
   -4.4510  -26.4110  -20.6720 C   0  0  0  0  0  0
   -4.2497  -27.5413  -20.1528 O   0  0  0  0  0  0
   -4.4925  -26.2920  -21.9257 O   0  0  0  0  0  0
  -11.5835  -25.3906    0.8517 H   0  0  0  0  0  0
  -13.1036  -25.3178    1.8059 H   0  0  0  0  0  0
  -13.1520  -25.7934    0.0744 H   0  0  0  0  0  0
  -11.8200  -27.2207    2.3199 H   0  0  0  0  0  0
  -13.6669  -29.0128    1.6410 H   0  0  0  0  0  0
  -14.3288  -27.9238   -0.5225 H   0  0  0  0  0  0
  -13.7446  -27.6400    3.7447 H   0  0  0  0  0  0
  -15.3741  -27.9263    3.0450 H   0  0  0  0  0  0
  -14.5711  -26.3341    2.8291 H   0  0  0  0  0  0
  -12.1939  -26.5504   -1.0443 H   0  0  0  0  0  0
  -10.3779  -28.9469   -1.5903 H   0  0  0  0  0  0
  -12.6277  -29.3233   -2.5662 H   0  0  0  0  0  0
  -11.4033  -29.1091   -3.8630 H   0  0  0  0  0  0
  -12.5151  -27.7613   -3.4461 H   0  0  0  0  0  0
   -7.7849  -25.7470   -3.3337 H   0  0  0  0  0  0
   -5.9231  -27.3403   -4.6030 H   0  0  0  0  0  0
   -6.0166  -27.3033   -2.8095 H   0  0  0  0  0  0
   -7.0956  -29.3424   -4.7619 H   0  0  0  0  0  0
   -6.3035  -29.5962   -3.1698 H   0  0  0  0  0  0
   -8.3096  -29.2882   -2.0008 H   0  0  0  0  0  0
   -9.0927  -29.6293   -3.5810 H   0  0  0  0  0  0
   -9.1521  -25.3540   -7.4732 H   0  0  0  0  0  0
   -7.6501  -23.1667   -8.2438 H   0  0  0  0  0  0
   -8.9454  -23.0029   -7.0102 H   0  0  0  0  0  0
   -5.9572  -23.1736   -6.6669 H   0  0  0  0  0  0
   -7.1606  -22.1997   -5.7558 H   0  0  0  0  0  0
   -7.5833  -23.9414   -4.2614 H   0  0  0  0  0  0
   -6.0641  -24.6695   -4.8849 H   0  0  0  0  0  0
   -6.4560  -27.5459  -10.0875 H   0  0  0  0  0  0
   -7.2523  -26.4248  -12.5761 H   0  0  0  0  0  0
   -8.1670  -27.7246  -11.7391 H   0  0  0  0  0  0
   -8.6273  -24.7406  -11.7606 H   0  0  0  0  0  0
   -9.8192  -26.0809  -11.8593 H   0  0  0  0  0  0
   -9.7041  -26.5095   -9.5074 H   0  0  0  0  0  0
   -9.3877  -24.7413   -9.5001 H   0  0  0  0  0  0
   -4.5146  -27.4822  -10.9491 H   0  0  0  0  0  0
   -3.1671  -24.8899  -10.6485 H   0  0  0  0  0  0
   -2.0449  -27.0771  -10.2908 H   0  0  0  0  0  0
   -1.1643  -26.0980  -11.5125 H   0  0  0  0  0  0
   -2.2176  -27.4547  -12.0384 H   0  0  0  0  0  0
   -1.6969  -23.9544  -12.3042 H   0  0  0  0  0  0
   -3.4253  -22.9620  -14.4238 H   0  0  0  0  0  0
   -1.5029  -21.6867  -13.4935 H   0  0  0  0  0  0
   -0.3554  -22.8980  -14.1588 H   0  0  0  0  0  0
   -3.0418  -20.5225  -15.2767 H   0  0  0  0  0  0
    0.6567  -22.4736  -16.1808 H   0  0  0  0  0  0
   -2.8505  -19.1990  -17.3478 H   0  0  0  0  0  0
    0.8497  -21.1512  -18.2510 H   0  0  0  0  0  0
   -1.6591  -18.6310  -19.3357 H   0  0  0  0  0  0
   -0.8810  -25.4587  -14.3466 H   0  0  0  0  0  0
   -1.0412  -25.8330  -17.2970 H   0  0  0  0  0  0
    0.9957  -26.3924  -16.0036 H   0  0  0  0  0  0
    0.3771  -27.8369  -16.8740 H   0  0  0  0  0  0
    0.0882  -27.6592  -15.1100 H   0  0  0  0  0  0
   -2.7998  -26.7852  -14.5238 H   0  0  0  0  0  0
   -3.8666  -29.2729  -15.7460 H   0  0  0  0  0  0
   -4.7920  -27.5717  -13.3228 H   0  0  0  0  0  0
   -2.5085  -28.6098  -13.0831 H   0  0  0  0  0  0
   -6.6505  -28.9870  -14.2041 H   0  0  0  0  0  0
   -6.0654  -29.5293  -12.5947 H   0  0  0  0  0  0
   -5.5831  -30.4260  -14.0746 H   0  0  0  0  0  0
   -4.7900  -25.8663  -15.4383 H   0  0  0  0  0  0
   -7.4690  -26.5273  -16.6733 H   0  0  0  0  0  0
   -7.8888  -24.0251  -16.3119 H   0  0  0  0  0  0
   -7.4634  -24.9184  -14.8126 H   0  0  0  0  0  0
   -5.0302  -24.0687  -15.4175 H   0  0  0  0  0  0
   -5.6740  -23.0344  -17.5552 H   0  0  0  0  0  0
   -5.0452  -21.8300  -16.3802 H   0  0  0  0  0  0
   -6.8115  -21.9509  -16.6841 H   0  0  0  0  0  0
   -6.3539  -23.6266  -13.3688 H   0  0  0  0  0  0
   -7.2109  -22.2999  -14.2245 H   0  0  0  0  0  0
   -5.4446  -22.1790  -13.9206 H   0  0  0  0  0  0
   -4.3429  -25.9862  -17.7420 H   0  0  0  0  0  0
   -5.4045  -24.5526  -20.2548 H   0  0  0  0  0  0
   -3.6866  -24.6548  -19.7400 H   0  0  0  0  0  0
   -4.1102  -28.4241  -20.7940 H   0  0  0  0  0  0
  1  2  1  0  0  0
  1 76  1  0  0  0
  1 77  1  0  0  0
  1 78  1  0  0  0
  2  3  1  0  0  0
  2  5  1  0  0  0
  2 79  1  0  0  0
  3  4  2  0  0  0
  3  8  1  0  0  0
  5  6  1  0  0  0
  5  7  1  0  0  0
  5 80  1  0  0  0
  6 81  1  0  0  0
  7 82  1  0  0  0
  7 83  1  0  0  0
  7 84  1  0  0  0
  8  9  1  0  0  0
  8 85  1  0  0  0
  9 10  1  0  0  0
  9 12  1  0  0  0
  9 86  1  0  0  0
 10 11  2  0  0  0
 10 13  1  0  0  0
 12 87  1  0  0  0
 12 88  1  0  0  0
 12 89  1  0  0  0
 13 14  1  0  0  0
 13 19  1  0  0  0
 14 15  1  0  0  0
 14 17  1  0  0  0
 14 90  1  0  0  0
 15 16  2  0  0  0
 15 20  1  0  0  0
 17 18  1  0  0  0
 17 91  1  0  0  0
 17 92  1  0  0  0
 18 19  1  0  0  0
 18 93  1  0  0  0
 18 94  1  0  0  0
 19 95  1  0  0  0
 19 96  1  0  0  0
 20 21  1  0  0  0
 20 26  1  0  0  0
 21 22  1  0  0  0
 21 24  1  0  0  0
 21 97  1  0  0  0
 22 23  2  0  0  0
 22 27  1  0  0  0
 24 25  1  0  0  0
 24 98  1  0  0  0
 24 99  1  0  0  0
 25 26  1  0  0  0
 25100  1  0  0  0
 25101  1  0  0  0
 26102  1  0  0  0
 26103  1  0  0  0
 27 28  1  0  0  0
 27 33  1  0  0  0
 28 29  1  0  0  0
 28 31  1  0  0  0
 28104  1  0  0  0
 29 30  2  0  0  0
 29 34  1  0  0  0
 31 32  1  0  0  0
 31105  1  0  0  0
 31106  1  0  0  0
 32 33  1  0  0  0
 32107  1  0  0  0
 32108  1  0  0  0
 33109  1  0  0  0
 33110  1  0  0  0
 34 35  1  0  0  0
 34111  1  0  0  0
 35 36  1  0  0  0
 35 38  1  0  0  0
 35112  1  0  0  0
 36 37  2  0  0  0
 36 39  1  0  0  0
 38113  1  0  0  0
 38114  1  0  0  0
 38115  1  0  0  0
 39 40  1  0  0  0
 39116  1  0  0  0
 40 41  1  0  0  0
 40 43  1  0  0  0
 40117  1  0  0  0
 41 42  2  0  0  0
 41 51  1  0  0  0
 43 44  1  0  0  0
 43118  1  0  0  0
 43119  1  0  0  0
 44 45  2  0  0  0
 44 46  1  0  0  0
 45 47  1  0  0  0
 45120  1  0  0  0
 46 48  2  0  0  0
 46121  1  0  0  0
 47 49  2  0  0  0
 47122  1  0  0  0
 48 49  1  0  0  0
 48123  1  0  0  0
 49 50  1  0  0  0
 50124  1  0  0  0
 51 52  1  0  0  0
 51125  1  0  0  0
 52 53  1  0  0  0
 52 55  1  0  0  0
 52126  1  0  0  0
 53 54  2  0  0  0
 53 56  1  0  0  0
 55127  1  0  0  0
 55128  1  0  0  0
 55129  1  0  0  0
 56 57  1  0  0  0
 56130  1  0  0  0
 57 58  1  0  0  0
 57 60  1  0  0  0
 57131  1  0  0  0
 58 59  2  0  0  0
 58 63  1  0  0  0
 60 61  1  0  0  0
 60 62  1  0  0  0
 60132  1  0  0  0
 61133  1  0  0  0
 62134  1  0  0  0
 62135  1  0  0  0
 62136  1  0  0  0
 63 64  1  0  0  0
 63137  1  0  0  0
 64 65  1  0  0  0
 64 67  1  0  0  0
 64138  1  0  0  0
 65 66  2  0  0  0
 65 71  1  0  0  0
 67 68  1  0  0  0
 67139  1  0  0  0
 67140  1  0  0  0
 68 69  1  0  0  0
 68 70  1  0  0  0
 68141  1  0  0  0
 69142  1  0  0  0
 69143  1  0  0  0
 69144  1  0  0  0
 70145  1  0  0  0
 70146  1  0  0  0
 70147  1  0  0  0
 71 72  1  0  0  0
 71148  1  0  0  0
 72 73  1  0  0  0
 72149  1  0  0  0
 72150  1  0  0  0
 73 74  1  0  0  0
 73 75  2  0  0  0
 74151  1  0  0  0
M  CHG  1   1   1
M  END
> <s_m_source_file>
../2m3o_ligand.sdf

> <i_m_source_file_index>
1

> <s_epik_input>
W09IXVtDQEhdKFtDSDNdKVtDQEhdKFtOSDMrXSlDKD1PKVtOSF1bQ0BASF0oW0NIM10pQyg9TylOMVtDQEBIXShbQ0gyXVtDSDJdW0NIMl0xKUMoPU8pTjJbQ0BASF0oW0NIMl1bQ0gyXVtDSDJdMilDKD1PKU4zW0NAQEhdKFtDSDJdW0NIMl1bQ0gyXTMpQyg9TylbTkhdW0NAQEhdKFtDSDNdKUMoPU8pW05IXVtDQEBIXShbQ0gyXWM0W2NIXVtjSF1jKFtPSF0pW2NIXVtjSF00KUMoPU8pW05IXVtDQEBIXShbQ0gzXSlDKD1PKVtOSF1bQ0BASF0oW0NASF0oW09IXSlbQ0gzXSlDKD1PKVtOSF1bQ0BASF0oW0NIMl1bQ0hdKFtDSDNdKVtDSDNdKUMoPU8pW05IXVtDSDJdQyg9TylbT0hd

> <s_epik_cmdline>
J2VwaWtfYXBwJywgJy1pbWFlJywgJ2xpZ2FuZF9wcm8ubWFlJywgJy1vbWFlJywgJ2xpZ2FuZF9wcmVwLm1hZScsICctbXMnLCAnMScsICctcGgnLCAnNycsICctcGh0JywgJzAuNScsICctbnQn

> <s_epik_pKa_notes>
Molecule size exceeds maximum supported for generating protonation states

$$$$
