2m3z_ligand
                    3D
 Schrodinger Suite 2020-3.
 37 40  0  0  1  0            999 V2000
   -8.8370    2.6480   34.9840 C   0  0  0  0  0  0
   -9.3470    3.9190   35.1290 C   0  0  0  0  0  0
   -9.2000    6.0890   32.4320 C   0  0  0  0  0  0
   -5.7720   -0.9390   31.7740 C   0  0  0  0  0  0
   -5.0740   -2.7860   33.4580 C   0  0  0  0  0  0
   -4.0990   -3.7650   33.6850 C   0  0  0  0  0  0
   -7.1490   -0.4770   33.7040 N   0  0  0  0  0  0
   -3.0800   -4.0010   32.7430 C   0  0  0  0  0  0
   -4.0240   -2.3170   31.3540 C   0  0  0  0  0  0
   -3.0480   -3.2770   31.5470 C   0  0  0  0  0  0
   -4.9960   -2.0470   32.2820 C   0  0  0  0  0  0
   -6.7270   -0.2330   32.2960 N   0  0  0  0  0  0
   -7.7740    0.5250   34.2140 C   0  0  0  0  0  0
   -5.1820   -0.5680   30.4580 C   0  0  0  0  0  0
   -5.4250    0.3350   29.6730 O   0  0  0  0  0  0
   -4.1670   -1.4220   30.2830 N   0  0  0  0  0  0
   -8.1540    2.0780   33.4890 S   0  0  0  0  0  0
   -9.4100    4.9020   34.2090 C   0  0  0  0  0  0
   -8.7710    1.6280   36.0210 C   0  0  0  0  0  0
   -9.1360    1.6950   37.1770 O   0  0  0  0  0  0
   -8.2070    0.5450   35.5110 N   0  0  0  0  0  0
   -8.9560    4.8260   32.9150 O   0  0  0  0  0  0
   -9.7940    6.9150   33.3460 C   0  0  0  0  0  0
   -9.9320    6.1280   34.5270 C   0  0  0  0  0  0
   -4.1630   -4.6790   35.2200 S   0  0  0  0  0  0
   -3.1050   -5.6950   35.1420 O   0  0  0  0  0  0
   -3.9610   -3.6600   36.2620 O   0  5  0  0  0  0
   -5.5260   -5.2290   35.2390 O   0  0  0  0  0  0
   -9.7717    4.2345   36.0934 H   0  0  0  0  0  0
   -8.9451    6.4020   31.4195 H   0  0  0  0  0  0
   -5.8701   -2.6083   34.1810 H   0  0  0  0  0  0
   -2.3143   -4.7496   32.9462 H   0  0  0  0  0  0
   -2.2816   -3.4628   30.7945 H   0  0  0  0  0  0
   -3.4806   -1.4767   29.4252 H   0  0  0  0  0  0
   -8.0883   -0.3466   36.1443 H   0  0  0  0  0  0
  -10.0969    7.9522   33.2025 H   0  0  0  0  0  0
  -10.3615    6.4363   35.4802 H   0  0  0  0  0  0
  1  2  2  0  0  0
  1 17  1  0  0  0
  1 19  1  0  0  0
  2 18  1  0  0  0
  2 29  1  0  0  0
  3 22  1  0  0  0
  3 23  2  0  0  0
  3 30  1  0  0  0
  4 11  1  0  0  0
  4 12  2  0  0  0
  4 14  1  0  0  0
  5  6  2  0  0  0
  5 11  1  0  0  0
  5 31  1  0  0  0
  6  8  1  0  0  0
  6 25  1  0  0  0
  7 12  1  0  0  0
  7 13  2  0  0  0
  8 10  2  0  0  0
  8 32  1  0  0  0
  9 10  1  0  0  0
  9 11  2  0  0  0
  9 16  1  0  0  0
 10 33  1  0  0  0
 13 17  1  0  0  0
 13 21  1  0  0  0
 14 15  2  0  0  0
 14 16  1  0  0  0
 16 34  1  0  0  0
 18 22  1  0  0  0
 18 24  2  0  0  0
 19 20  2  0  0  0
 19 21  1  0  0  0
 21 35  1  0  0  0
 23 24  1  0  0  0
 23 36  1  0  0  0
 24 37  1  0  0  0
 25 26  2  0  0  0
 25 27  1  0  0  0
 25 28  2  0  0  0
M  CHG  1  27  -1
M  END
> <s_m_source_file>
../2m3z_ligand.sdf

> <i_m_source_file_index>
1

> <s_epik_input>
W2NIXTFbY0hdW2NIXW9jMS9bQ0hdPUMyXFNcQyhbTkhdQzI9Tyk9Ti9OPUMoQyg9TylbTkhdMylcYyhjMzQpW2NIXWMoW2NIXVtjSF00KVMoPU8pKD1PKVtPSF0=

> <s_epik_cmdline>
J2VwaWtfYXBwJywgJy1pbWFlJywgJ2xpZ2FuZF9wcm8ubWFlJywgJy1vbWFlJywgJ2xpZ2FuZF9wcmVwLm1hZScsICctbXMnLCAnMScsICctcGgnLCAnNycsICctcGh0JywgJzAuNScsICctbnQn

> <r_lp_tautomer_probability>
1

> <r_epik_Ionization_Penalty>
  0.0000

> <r_epik_Ionization_Penalty_Charging>
  0.0000

> <r_epik_Ionization_Penalty_Neutral>
  0.0000

> <r_epik_State_Penalty>
 -0.0000

> <r_epik_Charging_Adjusted_Penalty>
6.98569532319845e-07

> <i_epik_Tot_Q>
-1

> <i_epik_Tot_abs_Q>
1

> <s_epik_Chemistry_Notes>
This compound has an imine and may undergo hydrolysis.

$$$$
