2m41_ligand
                    3D
 Schrodinger Suite 2020-3.
244251  0  0  1  0            999 V2000
  -18.8950   -4.7600   -5.2090 N   0  3  0  0  0  0
  -17.5860   -4.6490   -4.5220 C   0  0  2  0  0  0
  -16.4780   -4.3200   -5.5010 C   0  0  0  0  0  0
  -16.6870   -4.2720   -6.7120 O   0  0  0  0  0  0
  -17.1910   -5.9530   -3.8030 C   0  0  0  0  0  0
  -18.0490   -6.1950   -2.5850 C   0  0  0  0  0  0
  -17.2650   -7.1370   -4.7530 C   0  0  0  0  0  0
  -15.2970   -4.0960   -4.9550 N   0  0  0  0  0  0
  -14.1030   -3.9120   -5.7510 C   0  0  2  0  0  0
  -13.0750   -4.9580   -5.3710 C   0  0  0  0  0  0
  -12.9280   -5.2750   -4.1860 O   0  0  0  0  0  0
  -13.5290   -2.5110   -5.5410 C   0  0  0  0  0  0
  -14.1190   -1.4930   -6.4660 C   0  0  0  0  0  0
  -15.4680   -1.1990   -6.4230 C   0  0  0  0  0  0
  -13.3230   -0.8450   -7.3900 C   0  0  0  0  0  0
  -16.0150   -0.2730   -7.2830 C   0  0  0  0  0  0
  -13.8620    0.0820   -8.2570 C   0  0  0  0  0  0
  -15.2100    0.3700   -8.2030 C   0  0  0  0  0  0
  -12.3810   -5.5360   -6.3660 N   0  0  0  0  0  0
  -11.2870   -6.4730   -6.1170 C   0  0  2  0  0  0
  -10.2830   -5.8590   -5.1550 C   0  0  0  0  0  0
   -9.8000   -4.7470   -5.3950 O   0  0  0  0  0  0
  -10.6660   -6.6800   -7.5000 C   0  0  0  0  0  0
  -11.7570   -6.3670   -8.4620 C   0  0  0  0  0  0
  -12.6100   -5.3160   -7.8070 C   0  0  0  0  0  0
   -9.9800   -6.5800   -4.0770 N   0  0  0  0  0  0
   -9.2410   -6.0290   -2.9490 C   0  0  2  0  0  0
   -7.9550   -5.2960   -3.3460 C   0  0  0  0  0  0
   -7.5200   -4.3880   -2.6360 O   0  0  0  0  0  0
   -8.9470   -7.1090   -1.9080 C   0  0  0  0  0  0
   -8.3040   -8.3420   -2.4580 C   0  0  0  0  0  0
   -8.9100   -9.3440   -3.1580 C   0  0  0  0  0  0
   -6.9370   -8.7200   -2.3200 C   0  0  0  0  0  0
   -7.9960  -10.3100   -3.4850 N   0  0  0  0  0  0
   -6.7770   -9.9510   -2.9780 C   0  0  0  0  0  0
   -5.8280   -8.1320   -1.7120 C   0  0  0  0  0  0
   -5.5550  -10.6040   -3.0390 C   0  0  0  0  0  0
   -4.6160   -8.7840   -1.7760 C   0  0  0  0  0  0
   -4.4890  -10.0090   -2.4350 C   0  0  0  0  0  0
   -7.3360   -5.6770   -4.4670 N   0  0  0  0  0  0
   -6.2020   -4.9210   -4.9890 C   0  0  2  0  0  0
   -6.6640   -3.5650   -5.5480 C   0  0  0  0  0  0
   -6.6580   -3.3260   -6.7520 O   0  0  0  0  0  0
   -5.4390   -5.7290   -6.0530 C   0  0  0  0  0  0
   -6.2340   -6.0940   -7.2790 C   0  0  0  0  0  0
   -6.1050   -5.4380   -8.4860 N   0  0  0  0  0  0
   -7.1500   -7.0670   -7.4840 C   0  0  0  0  0  0
   -6.9050   -5.9920   -9.3760 C   0  0  0  0  0  0
   -7.5520   -6.9840   -8.7930 N   0  0  0  0  0  0
   -7.0820   -2.6840   -4.6590 N   0  0  0  0  0  0
   -7.5940   -1.3830   -5.0520 C   0  0  2  0  0  0
   -6.8120   -0.2620   -4.3600 C   0  0  0  0  0  0
   -6.8480    0.8930   -4.7790 O   0  0  0  0  0  0
   -9.0890   -1.3110   -4.6980 C   0  0  0  0  0  0
   -9.6550   -0.0490   -5.0110 O   0  0  0  0  0  0
   -6.0870   -0.6230   -3.3110 N   0  0  0  0  0  0
   -5.4190    0.3550   -2.4520 C   0  0  2  0  0  0
   -3.9990   -0.0910   -2.1240 C   0  0  0  0  0  0
   -3.2710    0.6100   -1.4310 O   0  0  0  0  0  0
   -6.2200    0.5310   -1.1610 C   0  0  0  0  0  0
   -7.3270   -0.5090   -0.9540 C   0  0  0  0  0  0
   -7.5340   -0.7910    0.5150 C   0  0  0  0  0  0
   -8.6360   -0.0360   -1.5730 C   0  0  0  0  0  0
   -3.6100   -1.2610   -2.6210 N   0  0  0  0  0  0
   -2.2820   -1.7790   -2.3820 C   0  0  2  0  0  0
   -1.3550   -1.4080   -3.5410 C   0  0  0  0  0  0
   -1.5240   -1.8800   -4.6670 O   0  0  0  0  0  0
   -2.3090   -3.3140   -2.1630 C   0  0  0  0  0  0
   -3.0430   -4.0320   -3.2890 C   0  0  0  0  0  0
   -0.9040   -3.8540   -2.0210 C   0  0  0  0  0  0
   -0.3890   -0.5190   -3.2870 N   0  0  0  0  0  0
    0.5540   -0.0750   -4.2990 C   0  0  2  0  0  0
    1.7670   -0.9880   -4.3800 C   0  0  0  0  0  0
    1.9670   -1.8570   -3.5290 O   0  0  0  0  0  0
    0.9520    1.3070   -3.7930 C   0  0  0  0  0  0
    0.8990    1.1890   -2.3080 C   0  0  0  0  0  0
   -0.1310    0.1270   -1.9900 C   0  0  0  0  0  0
    2.5730   -0.7890   -5.4020 N   0  0  0  0  0  0
    3.7650   -1.5870   -5.5850 C   0  0  2  0  0  0
    4.9790   -0.6840   -5.4680 C   0  0  0  0  0  0
    4.9930    0.4120   -6.0270 O   0  0  0  0  0  0
    3.7470   -2.2750   -6.9550 C   0  0  0  0  0  0
    2.3800   -2.7310   -7.3900 C   0  0  0  0  0  0
    1.6220   -3.5780   -6.5930 C   0  0  0  0  0  0
    1.8520   -2.3060   -8.5980 C   0  0  0  0  0  0
    0.3650   -3.9880   -6.9970 C   0  0  0  0  0  0
    0.5970   -2.7150   -9.0060 C   0  0  0  0  0  0
   -0.1480   -3.5560   -8.2040 C   0  0  0  0  0  0
    5.9920   -1.1340   -4.7430 N   0  0  0  0  0  0
    7.2010   -0.3390   -4.5540 C   0  0  2  0  0  0
    8.1150   -0.4520   -5.7820 C   0  0  0  0  0  0
    9.3350   -0.5010   -5.6690 O   0  0  0  0  0  0
    7.9130   -0.7170   -3.2160 C   0  0  0  0  0  0
    8.6170   -2.0960   -3.0590 C   0  0  0  0  0  0
    7.9040   -3.2170   -3.7920 C   0  0  0  0  0  0
   10.0860   -2.0200   -3.4660 C   0  0  0  0  0  0
    7.4840   -0.4230   -6.9640 N   0  0  0  0  0  0
    8.1420   -0.7130   -8.2390 C   0  0  2  0  0  0
    8.4460   -2.2060   -8.3360 C   0  0  0  0  0  0
    8.4500   -2.9050   -7.3220 O   0  0  0  0  0  0
    9.4060    0.1270   -8.4160 C   0  0  0  0  0  0
    8.6430   -2.7310   -9.5600 N   0  0  0  0  0  0
    9.0130   -4.1320   -9.7670 C   0  0  2  0  0  0
   10.2100   -4.5340   -8.9130 C   0  0  0  0  0  0
   11.3540   -4.1860   -9.2170 O   0  0  0  0  0  0
    9.3630   -4.2120  -11.2600 C   0  0  0  0  0  0
    9.4060   -2.7990  -11.7430 C   0  0  0  0  0  0
    8.5010   -2.0220  -10.8370 C   0  0  0  0  0  0
    9.9290   -5.2450   -7.8330 N   0  0  0  0  0  0
   10.9530   -5.6770   -6.9050 C   0  0  2  0  0  0
   11.8270   -6.7650   -7.5210 C   0  0  0  0  0  0
   11.4550   -7.3890   -8.5180 O   0  0  0  0  0  0
   10.2970   -6.1690   -5.6130 C   0  0  0  0  0  0
    9.1890   -7.0100   -5.8950 O   0  0  0  0  0  0
   12.9920   -6.9720   -6.9360 N   0  0  0  0  0  0
   13.9280   -7.9560   -7.4290 C   0  0  2  0  0  0
   13.8520   -9.2330   -6.6050 C   0  0  0  0  0  0
   13.3070  -10.2320   -7.1180 O   0  0  0  0  0  0
   15.3500   -7.3820   -7.4530 C   0  0  0  0  0  0
   15.7440   -6.6340   -6.1860 C   0  0  0  0  0  0
   17.0540   -5.8880   -6.3390 C   0  0  0  0  0  0
   17.9410   -6.3060   -7.0860 O   0  0  0  0  0  0
   17.1820   -4.7720   -5.6410 N   0  0  0  0  0  0
   14.2990   -9.2280   -5.4430 O   0  0  0  0  0  0
  -19.1307   -3.8069   -5.7050 H   0  0  0  0  0  0
  -19.6774   -4.9931   -4.4718 H   0  0  0  0  0  0
  -18.8481   -5.5624   -5.9600 H   0  0  0  0  0  0
  -17.7328   -3.8274   -3.8055 H   0  0  0  0  0  0
  -16.1534   -5.8576   -3.4504 H   0  0  0  0  0  0
  -17.9819   -5.3282   -1.9111 H   0  0  0  0  0  0
  -17.6958   -7.0952   -2.0607 H   0  0  0  0  0  0
  -19.0945   -6.3380   -2.8955 H   0  0  0  0  0  0
  -16.6341   -6.9413   -5.6326 H   0  0  0  0  0  0
  -18.3066   -7.2847   -5.0744 H   0  0  0  0  0  0
  -16.9079   -8.0419   -4.2396 H   0  0  0  0  0  0
  -15.2386   -4.0512   -3.8575 H   0  0  0  0  0  0
  -14.4115   -4.0413   -6.7989 H   0  0  0  0  0  0
  -13.7305   -2.1829   -4.5106 H   0  0  0  0  0  0
  -12.4428   -2.5300   -5.7140 H   0  0  0  0  0  0
  -16.1070   -1.7059   -5.6999 H   0  0  0  0  0  0
  -12.2571   -1.0687   -7.4344 H   0  0  0  0  0  0
  -17.0806   -0.0480   -7.2378 H   0  0  0  0  0  0
  -13.2244    0.5860   -8.9833 H   0  0  0  0  0  0
  -15.6392    1.1038   -8.8852 H   0  0  0  0  0  0
  -11.6537   -7.4011   -5.6543 H   0  0  0  0  0  0
   -9.8092   -6.0011   -7.6225 H   0  0  0  0  0  0
  -10.3254   -7.7214   -7.5969 H   0  0  0  0  0  0
  -11.3221   -5.9933   -9.4007 H   0  0  0  0  0  0
  -12.3395   -7.2778   -8.6648 H   0  0  0  0  0  0
  -13.6791   -5.4442   -8.0321 H   0  0  0  0  0  0
  -12.2983   -4.2960   -8.0763 H   0  0  0  0  0  0
  -10.3100   -7.6292   -4.0586 H   0  0  0  0  0  0
   -9.9407   -5.2819   -2.5463 H   0  0  0  0  0  0
   -8.2653   -6.7063   -1.1444 H   0  0  0  0  0  0
   -9.8868   -7.4241   -1.4310 H   0  0  0  0  0  0
   -9.9679   -9.3717   -3.4191 H   0  0  0  0  0  0
   -5.9184   -7.1758   -1.1966 H   0  0  0  0  0  0
   -5.4513  -11.5599   -3.5523 H   0  0  0  0  0  0
   -3.7413   -8.3362   -1.3043 H   0  0  0  0  0  0
   -3.5160  -10.4993   -2.4666 H   0  0  0  0  0  0
   -7.6910   -6.5727   -4.9978 H   0  0  0  0  0  0
   -5.5457   -4.7571   -4.1216 H   0  0  0  0  0  0
   -4.5740   -5.1475   -6.4045 H   0  0  0  0  0  0
   -5.0906   -6.6757   -5.6145 H   0  0  0  0  0  0
   -7.5777   -7.8370   -6.8251 H   0  0  0  0  0  0
   -7.0135   -5.6834  -10.4158 H   0  0  0  0  0  0
   -7.0348   -2.9579   -3.5947 H   0  0  0  0  0  0
   -7.4422   -1.3015   -6.1384 H   0  0  0  0  0  0
   -9.6369   -2.0799   -5.2625 H   0  0  0  0  0  0
   -9.2193   -1.4852   -3.6197 H   0  0  0  0  0  0
  -10.7194    0.1416   -4.8094 H   0  0  0  0  0  0
   -5.9960   -1.6977   -3.0949 H   0  0  0  0  0  0
   -5.3821    1.2940   -3.0238 H   0  0  0  0  0  0
   -5.5438    0.4552   -0.2967 H   0  0  0  0  0  0
   -6.7046    1.5185   -1.1619 H   0  0  0  0  0  0
   -7.0163   -1.4443   -1.4425 H   0  0  0  0  0  0
   -6.5876   -1.1323    0.9597 H   0  0  0  0  0  0
   -8.2982   -1.5732    0.6341 H   0  0  0  0  0  0
   -7.8670    0.1271    1.0212 H   0  0  0  0  0  0
   -8.4828    0.1687   -2.6429 H   0  0  0  0  0  0
   -8.9696    0.8825   -1.0680 H   0  0  0  0  0  0
   -9.4009   -0.8177   -1.4551 H   0  0  0  0  0  0
   -4.3247   -1.8380   -3.2262 H   0  0  0  0  0  0
   -1.9483   -1.2753   -1.4628 H   0  0  0  0  0  0
   -2.8504   -3.5289   -1.2299 H   0  0  0  0  0  0
   -4.0621   -3.6277   -3.3787 H   0  0  0  0  0  0
   -3.0937   -5.1080   -3.0660 H   0  0  0  0  0  0
   -2.5030   -3.8786   -4.2350 H   0  0  0  0  0  0
   -0.3889   -3.3257   -1.2052 H   0  0  0  0  0  0
   -0.3551   -3.6999   -2.9617 H   0  0  0  0  0  0
   -0.9458   -4.9293   -1.7928 H   0  0  0  0  0  0
    0.0904   -0.0924   -5.2964 H   0  0  0  0  0  0
    1.9636    1.5507   -4.1497 H   0  0  0  0  0  0
    0.2397    2.0551   -4.1712 H   0  0  0  0  0  0
    1.8895    0.8985   -1.9277 H   0  0  0  0  0  0
    0.6088    2.1569   -1.8734 H   0  0  0  0  0  0
   -1.0657    0.5590   -1.6032 H   0  0  0  0  0  0
    0.2501   -0.6197   -1.2778 H   0  0  0  0  0  0
    2.3248    0.0025   -6.1244 H   0  0  0  0  0  0
    3.7620   -2.3432   -4.7862 H   0  0  0  0  0  0
    4.1165   -1.5770   -7.7207 H   0  0  0  0  0  0
    4.3935   -3.1645   -6.9272 H   0  0  0  0  0  0
    2.0217   -3.9231   -5.6395 H   0  0  0  0  0  0
    2.4342   -1.6402   -9.2350 H   0  0  0  0  0  0
   -0.2213   -4.6526   -6.3624 H   0  0  0  0  0  0
    0.1955   -2.3739   -9.9602 H   0  0  0  0  0  0
   -1.1392   -3.8784   -8.5229 H   0  0  0  0  0  0
    5.9092   -2.1279   -4.2790 H   0  0  0  0  0  0
    6.8623    0.7056   -4.4898 H   0  0  0  0  0  0
    8.7125    0.0094   -3.0082 H   0  0  0  0  0  0
    7.1816   -0.7023   -2.3945 H   0  0  0  0  0  0
    8.5743   -2.3701   -1.9946 H   0  0  0  0  0  0
    6.8499   -3.2473   -3.4792 H   0  0  0  0  0  0
    8.3855   -4.1765   -3.5520 H   0  0  0  0  0  0
    7.9598   -3.0398   -4.8762 H   0  0  0  0  0  0
   10.5758   -1.2003   -2.9199 H   0  0  0  0  0  0
   10.1576   -1.8341   -4.5478 H   0  0  0  0  0  0
   10.5833   -2.9708   -3.2236 H   0  0  0  0  0  0
    6.4151   -0.1643   -6.9431 H   0  0  0  0  0  0
    7.4273   -0.4279   -9.0251 H   0  0  0  0  0  0
    9.1505    1.1943   -8.3405 H   0  0  0  0  0  0
    9.8457   -0.0758   -9.4037 H   0  0  0  0  0  0
   10.1317   -0.1327   -7.6312 H   0  0  0  0  0  0
    8.1801   -4.7823   -9.4613 H   0  0  0  0  0  0
   10.3384   -4.7057  -11.3820 H   0  0  0  0  0  0
    8.5905   -4.7910  -11.7872 H   0  0  0  0  0  0
   10.4387   -2.4241  -11.6882 H   0  0  0  0  0  0
    9.0553   -2.7567  -12.7848 H   0  0  0  0  0  0
    7.4491   -2.0511  -11.1576 H   0  0  0  0  0  0
    8.8176   -0.9759  -10.7128 H   0  0  0  0  0  0
    8.8762   -5.5068   -7.6513 H   0  0  0  0  0  0
   11.5751   -4.7909   -6.7105 H   0  0  0  0  0  0
   11.0307   -6.7375   -5.0227 H   0  0  0  0  0  0
    9.9457   -5.3060   -5.0284 H   0  0  0  0  0  0
    8.6070   -7.4478   -5.0706 H   0  0  0  0  0  0
   13.2422   -6.3705   -6.0496 H   0  0  0  0  0  0
   13.6024   -8.1791   -8.4557 H   0  0  0  0  0  0
   13.2349  -11.1714   -6.5503 H   0  0  0  0  0  0
   16.0736   -8.2004   -7.5823 H   0  0  0  0  0  0
   15.4452   -6.6730   -8.2886 H   0  0  0  0  0  0
   14.9631   -5.9010   -5.9352 H   0  0  0  0  0  0
   15.8553   -7.3491   -5.3576 H   0  0  0  0  0  0
   16.3645   -4.4360   -4.9862 H   0  0  0  0  0  0
   18.1060   -4.1798   -5.7152 H   0  0  0  0  0  0
  1  2  1  0  0  0
  1125  1  0  0  0
  1126  1  0  0  0
  1127  1  0  0  0
  2  3  1  0  0  0
  2  5  1  0  0  0
  2128  1  0  0  0
  3  4  2  0  0  0
  3  8  1  0  0  0
  5  6  1  0  0  0
  5  7  1  0  0  0
  5129  1  0  0  0
  6130  1  0  0  0
  6131  1  0  0  0
  6132  1  0  0  0
  7133  1  0  0  0
  7134  1  0  0  0
  7135  1  0  0  0
  8  9  1  0  0  0
  8136  1  0  0  0
  9 10  1  0  0  0
  9 12  1  0  0  0
  9137  1  0  0  0
 10 11  2  0  0  0
 10 19  1  0  0  0
 12 13  1  0  0  0
 12138  1  0  0  0
 12139  1  0  0  0
 13 14  2  0  0  0
 13 15  1  0  0  0
 14 16  1  0  0  0
 14140  1  0  0  0
 15 17  2  0  0  0
 15141  1  0  0  0
 16 18  2  0  0  0
 16142  1  0  0  0
 17 18  1  0  0  0
 17143  1  0  0  0
 18144  1  0  0  0
 19 20  1  0  0  0
 19 25  1  0  0  0
 20 21  1  0  0  0
 20 23  1  0  0  0
 20145  1  0  0  0
 21 22  2  0  0  0
 21 26  1  0  0  0
 23 24  1  0  0  0
 23146  1  0  0  0
 23147  1  0  0  0
 24 25  1  0  0  0
 24148  1  0  0  0
 24149  1  0  0  0
 25150  1  0  0  0
 25151  1  0  0  0
 26 27  1  0  0  0
 26152  1  0  0  0
 27 28  1  0  0  0
 27 30  1  0  0  0
 27153  1  0  0  0
 28 29  2  0  0  0
 28 40  1  0  0  0
 30 31  1  0  0  0
 30154  1  0  0  0
 30155  1  0  0  0
 31 32  2  0  0  0
 31 33  1  0  0  0
 32 34  1  0  0  0
 32156  1  0  0  0
 33 35  2  0  0  0
 33 36  1  0  0  0
 34 35  1  0  0  0
 35 37  1  0  0  0
 36 38  2  0  0  0
 36157  1  0  0  0
 37 39  2  0  0  0
 37158  1  0  0  0
 38 39  1  0  0  0
 38159  1  0  0  0
 39160  1  0  0  0
 40 41  1  0  0  0
 40161  1  0  0  0
 41 42  1  0  0  0
 41 44  1  0  0  0
 41162  1  0  0  0
 42 43  2  0  0  0
 42 50  1  0  0  0
 44 45  1  0  0  0
 44163  1  0  0  0
 44164  1  0  0  0
 45 46  2  0  0  0
 45 47  1  0  0  0
 46 48  1  0  0  0
 47 49  2  0  0  0
 47165  1  0  0  0
 48 49  1  0  0  0
 48166  1  0  0  0
 50 51  1  0  0  0
 50167  1  0  0  0
 51 52  1  0  0  0
 51 54  1  0  0  0
 51168  1  0  0  0
 52 53  2  0  0  0
 52 56  1  0  0  0
 54 55  1  0  0  0
 54169  1  0  0  0
 54170  1  0  0  0
 55171  1  0  0  0
 56 57  1  0  0  0
 56172  1  0  0  0
 57 58  1  0  0  0
 57 60  1  0  0  0
 57173  1  0  0  0
 58 59  2  0  0  0
 58 64  1  0  0  0
 60 61  1  0  0  0
 60174  1  0  0  0
 60175  1  0  0  0
 61 62  1  0  0  0
 61 63  1  0  0  0
 61176  1  0  0  0
 62177  1  0  0  0
 62178  1  0  0  0
 62179  1  0  0  0
 63180  1  0  0  0
 63181  1  0  0  0
 63182  1  0  0  0
 64 65  1  0  0  0
 64183  1  0  0  0
 65 66  1  0  0  0
 65 68  1  0  0  0
 65184  1  0  0  0
 66 67  2  0  0  0
 66 71  1  0  0  0
 68 69  1  0  0  0
 68 70  1  0  0  0
 68185  1  0  0  0
 69186  1  0  0  0
 69187  1  0  0  0
 69188  1  0  0  0
 70189  1  0  0  0
 70190  1  0  0  0
 70191  1  0  0  0
 71 72  1  0  0  0
 71 77  1  0  0  0
 72 73  1  0  0  0
 72 75  1  0  0  0
 72192  1  0  0  0
 73 74  2  0  0  0
 73 78  1  0  0  0
 75 76  1  0  0  0
 75193  1  0  0  0
 75194  1  0  0  0
 76 77  1  0  0  0
 76195  1  0  0  0
 76196  1  0  0  0
 77197  1  0  0  0
 77198  1  0  0  0
 78 79  1  0  0  0
 78199  1  0  0  0
 79 80  1  0  0  0
 79 82  1  0  0  0
 79200  1  0  0  0
 80 81  2  0  0  0
 80 89  1  0  0  0
 82 83  1  0  0  0
 82201  1  0  0  0
 82202  1  0  0  0
 83 84  2  0  0  0
 83 85  1  0  0  0
 84 86  1  0  0  0
 84203  1  0  0  0
 85 87  2  0  0  0
 85204  1  0  0  0
 86 88  2  0  0  0
 86205  1  0  0  0
 87 88  1  0  0  0
 87206  1  0  0  0
 88207  1  0  0  0
 89 90  1  0  0  0
 89208  1  0  0  0
 90 91  1  0  0  0
 90 93  1  0  0  0
 90209  1  0  0  0
 91 92  2  0  0  0
 91 97  1  0  0  0
 93 94  1  0  0  0
 93210  1  0  0  0
 93211  1  0  0  0
 94 95  1  0  0  0
 94 96  1  0  0  0
 94212  1  0  0  0
 95213  1  0  0  0
 95214  1  0  0  0
 95215  1  0  0  0
 96216  1  0  0  0
 96217  1  0  0  0
 96218  1  0  0  0
 97 98  1  0  0  0
 97219  1  0  0  0
 98 99  1  0  0  0
 98101  1  0  0  0
 98220  1  0  0  0
 99100  2  0  0  0
 99102  1  0  0  0
101221  1  0  0  0
101222  1  0  0  0
101223  1  0  0  0
102103  1  0  0  0
102108  1  0  0  0
103104  1  0  0  0
103106  1  0  0  0
103224  1  0  0  0
104105  2  0  0  0
104109  1  0  0  0
106107  1  0  0  0
106225  1  0  0  0
106226  1  0  0  0
107108  1  0  0  0
107227  1  0  0  0
107228  1  0  0  0
108229  1  0  0  0
108230  1  0  0  0
109110  1  0  0  0
109231  1  0  0  0
110111  1  0  0  0
110113  1  0  0  0
110232  1  0  0  0
111112  2  0  0  0
111115  1  0  0  0
113114  1  0  0  0
113233  1  0  0  0
113234  1  0  0  0
114235  1  0  0  0
115116  1  0  0  0
115236  1  0  0  0
116117  1  0  0  0
116119  1  0  0  0
116237  1  0  0  0
117118  1  0  0  0
117124  2  0  0  0
118238  1  0  0  0
119120  1  0  0  0
119239  1  0  0  0
119240  1  0  0  0
120121  1  0  0  0
120241  1  0  0  0
120242  1  0  0  0
121122  2  0  0  0
121123  1  0  0  0
123243  1  0  0  0
123244  1  0  0  0
M  CHG  1   1   1
M  END
> <s_m_source_file>
../2m41_ligand.sdf

> <i_m_source_file_index>
1

> <s_epik_input>
W2NIXTFbY0hdW2NIXVtjSF1bY0hdYzFbQ0gyXVtDQEhdKFtOSF1DKD1PKVtDQEBIXShbTkgzK10pW0NIXShbQ0gzXSlbQ0gzXSlDKD1PKU4yW0NAQEhdKFtDSDJdW0NIMl1bQ0gyXTIpQyg9TylbTkhdW0NAQEhdKFtDSDJdYzNbY0hdW25IXWMoYzM0KVtjSF1bY0hdW2NIXVtjSF00KUMoPU8pW05IXVtDQEBIXShbQ0gyXUM1PU5bQ0gyXU49W0NIXTUpQyg9TylbTkhdW0NAQEhdKFtDSDJdW09IXSlDKD1PKVtOSF1bQ0BASF0oW0NIMl1bQ0hdKFtDSDNdKVtDSDNdKUMoPU8pW05IXVtDQEBIXShbQ0hdKFtDSDNdKVtDSDNdKUMoPU8pTjZbQ0BASF0oW0NIMl1bQ0gyXVtDSDJdNilDKD1PKVtOSF1bQ0BASF0oW0NIMl1jN1tjSF1bY0hdW2NIXVtjSF1bY0hdNylDKD1PKVtOSF1bQ0BASF0oW0NIMl1bQ0hdKFtDSDNdKVtDSDNdKUMoPU8pW05IXVtDQEBIXShbQ0gzXSlDKD1PKU44W0NAQEhdKFtDSDJdW0NIMl1bQ0gyXTgpQyg9TylbTkhdW0NAQEhdKFtDSDJdW09IXSlDKD1PKVtOSF1bQ0BIXShDKD1PKVtPSF0pW0NIMl1bQ0gyXUMoPU8pW05IMl0=

> <s_epik_cmdline>
J2VwaWtfYXBwJywgJy1pbWFlJywgJ2xpZ2FuZF9wcm8ubWFlJywgJy1vbWFlJywgJ2xpZ2FuZF9wcmVwLm1hZScsICctbXMnLCAnMScsICctcGgnLCAnNycsICctcGh0JywgJzAuNScsICctbnQn

> <s_epik_pKa_notes>
Molecule size exceeds maximum supported for generating protonation states

> <s_epik_Chemistry_Notes>
This compound has an imine and may undergo hydrolysis.

$$$$
