2mas_ligand
                    3D
 Schrodinger Suite 2020-3.
 33 34  0  0  1  0            999 V2000
  107.1160   36.4820   81.8630 C   0  0  0  0  0  0
  106.5220   35.2020   82.0070 C   0  0  0  0  0  0
  107.0330   34.1130   81.2640 C   0  0  0  0  0  0
  107.8940   34.3480   80.1840 C   0  0  0  0  0  0
  108.4400   35.6460   80.0050 C   0  0  0  0  0  0
  109.2770   35.8850   78.9900 N   0  0  0  0  0  0
  108.1240   36.6860   80.9080 C   0  0  0  0  0  0
  105.3330   35.0040   82.9310 C   0  0  1  0  0  0
  105.1370   36.1330   83.9270 C   0  0  2  0  0  0
  105.3650   35.6820   85.2530 O   0  0  0  0  0  0
  103.6700   36.5690   83.7690 C   0  0  2  0  0  0
  102.8450   35.9830   84.7620 O   0  0  0  0  0  0
  103.2690   36.0990   82.3930 C   0  0  2  0  0  0
  104.0380   34.8720   82.2770 N   0  3  0  0  0  0
  103.5970   37.0450   81.2280 C   0  0  0  0  0  0
  103.7070   36.3140   80.0080 O   0  0  0  0  0  0
  106.7893   37.3080   82.4947 H   0  0  0  0  0  0
  106.7576   33.0927   81.5309 H   0  0  0  0  0  0
  108.1414   33.5445   79.4902 H   0  0  0  0  0  0
  109.5279   35.0806   78.2829 H   0  0  0  0  0  0
  109.7147   36.8860   78.8621 H   0  0  0  0  0  0
  108.6570   37.6357   80.8633 H   0  0  0  0  0  0
  105.5767   34.0396   83.4007 H   0  0  0  0  0  0
  105.8736   36.9409   83.8055 H   0  0  0  0  0  0
  106.3638   35.3294   85.5499 H   0  0  0  0  0  0
  103.4965   37.6431   83.9310 H   0  0  0  0  0  0
  103.0067   36.2230   85.8233 H   0  0  0  0  0  0
  102.1798   35.9616   82.3239 H   0  0  0  0  0  0
  104.1870   34.6485   81.2103 H   0  0  0  0  0  0
  103.4714   34.0547   82.7471 H   0  0  0  0  0  0
  102.7965   37.7925   81.1262 H   0  0  0  0  0  0
  104.5513   37.5546   81.4270 H   0  0  0  0  0  0
  103.9391   36.8404   79.0704 H   0  0  0  0  0  0
  1  7  2  0  0  0
  1  2  1  0  0  0
  1 17  1  0  0  0
  2  8  1  0  0  0
  2  3  2  0  0  0
  3  4  1  0  0  0
  3 18  1  0  0  0
  4  5  2  0  0  0
  4 19  1  0  0  0
  5  7  1  0  0  0
  5  6  1  0  0  0
  6 20  1  0  0  0
  6 21  1  0  0  0
  7 22  1  0  0  0
  8 14  1  0  0  0
  8  9  1  0  0  0
  8 23  1  0  0  0
  9 11  1  0  0  0
  9 10  1  0  0  0
  9 24  1  0  0  0
 10 25  1  0  0  0
 11 13  1  0  0  0
 11 12  1  0  0  0
 11 26  1  0  0  0
 12 27  1  0  0  0
 13 15  1  0  0  0
 13 14  1  0  0  0
 13 28  1  0  0  0
 14 29  1  0  0  0
 14 30  1  0  0  0
 15 16  1  0  0  0
 15 31  1  0  0  0
 15 32  1  0  0  0
 16 33  1  0  0  0
M  CHG  1  14   1
M  END
> <s_m_source_file>
../2mas_ligand.sdf

> <i_m_source_file_index>
1

> <s_epik_input>
W2NIXTFbY0hdYyhbTkgyXSlbY0hdW2NIXWMxW0NASF0yW0NASF0oW09IXSlbQ0BIXShbT0hdKVtDQEhdKFtOSDIrXTIpW0NIMl1bT0hd

> <s_epik_cmdline>
J2VwaWtfYXBwJywgJy1pbWFlJywgJ2xpZ2FuZF9wcm8ubWFlJywgJy1vbWFlJywgJ2xpZ2FuZF9wcmVwLm1hZScsICctbXMnLCAnMScsICctcGgnLCAnNycsICctcGh0JywgJzAuNScsICctbnQn

> <r_epik_Ionization_Penalty>
  0.0099

> <r_epik_Ionization_Penalty_Charging>
  0.0096

> <r_epik_Ionization_Penalty_Neutral>
  0.0003

> <r_epik_State_Penalty>
  0.0073

> <r_epik_Charging_Adjusted_Penalty>
0.0168398217576662

> <i_epik_Tot_Q>
1

> <i_epik_Tot_abs_Q>
1

$$$$
