2mc1_ligand
                    3D
 Schrodinger Suite 2020-3.
204207  0  0  1  0            999 V2000
   15.1710    2.1550    6.9350 N   0  3  0  0  0  0
   16.1500    1.0600    7.1760 C   0  0  2  0  0  0
   15.4950   -0.0620    7.9880 C   0  0  0  0  0  0
   15.0150   -1.0490    7.4260 O   0  0  0  0  0  0
   17.3530    1.6320    7.9320 C   0  0  0  0  0  0
   16.8660    2.4570    9.1080 C   0  0  0  0  0  0
   16.4780    3.5870    8.8840 O   0  0  0  0  0  0
   16.8500    1.9220   10.2100 O   0  0  0  0  0  0
   15.5020    0.0920    9.3090 N   0  0  0  0  0  0
   14.9410   -0.9070   10.2150 C   0  0  2  0  0  0
   13.5050   -0.5710   10.6070 C   0  0  0  0  0  0
   12.9520   -1.1730   11.5280 O   0  0  0  0  0  0
   15.8070   -0.9770   11.4800 C   0  0  2  0  0  0
   17.0660   -0.3580   11.2340 O   0  0  0  0  0  0
   16.0320   -2.4370   11.8720 C   0  0  0  0  0  0
   12.9030    0.3870    9.9120 N   0  0  0  0  0  0
   11.5310    0.7870   10.2070 C   0  0  2  0  0  0
   10.5570    0.1700    9.2020 C   0  0  0  0  0  0
   10.9660   -0.5350    8.2780 O   0  0  0  0  0  0
   11.4260    2.3180   10.1750 C   0  0  0  0  0  0
   11.0480    2.8110    8.7660 C   0  0  0  0  0  0
   11.8750    2.1110    7.6880 C   0  0  0  0  0  0
   13.0570    1.8870    7.9130 O   0  0  0  0  0  0
   11.3130    1.8140    6.6470 O   0  0  0  0  0  0
    9.2690    0.4490    9.3890 N   0  0  0  0  0  0
    8.2340   -0.0690    8.4960 C   0  0  2  0  0  0
    6.9600    0.7720    8.6250 C   0  0  0  0  0  0
    7.0220    1.9730    8.8920 O   0  0  0  0  0  0
    7.9230   -1.5410    8.8300 C   0  0  0  0  0  0
    9.1020   -2.4320    8.4390 C   0  0  0  0  0  0
    7.6590   -1.6830   10.3310 C   0  0  0  0  0  0
    5.8100    0.1290    8.4420 N   0  0  0  0  0  0
    4.5200    0.8100    8.5510 C   0  0  2  0  0  0
    3.8510    0.4570    9.8780 C   0  0  0  0  0  0
    3.2750   -0.6220   10.0230 O   0  0  0  0  0  0
    3.5910    0.4110    7.3890 C   0  0  0  0  0  0
    4.0130   -0.9140    6.7880 C   0  0  0  0  0  0
    4.3660   -1.9950    7.6140 C   0  0  0  0  0  0
    4.0550   -1.0630    5.3970 C   0  0  0  0  0  0
    4.7620   -3.2110    7.0460 C   0  0  0  0  0  0
    4.4530   -2.2760    4.8370 C   0  0  0  0  0  0
    4.8060   -3.3480    5.6590 C   0  0  0  0  0  0
    5.2230   -4.5370    5.0930 O   0  0  0  0  0  0
    3.9340    1.3670   10.8470 N   0  0  0  0  0  0
    3.3330    1.1320   12.1590 C   0  0  2  0  0  0
    1.8430    0.8270   12.0150 C   0  0  0  0  0  0
    1.4320   -0.3370   12.0130 O   0  0  0  0  0  0
    3.5280    2.3630   13.0540 C   0  0  0  0  0  0
    5.0230    2.5610   13.3460 C   0  0  0  0  0  0
    5.7750    2.9270   12.0710 C   0  0  0  0  0  0
    5.1880    3.5810   11.2210 O   0  0  0  0  0  0
    6.9240    2.5410   11.9520 O   0  0  0  0  0  0
    1.0380    1.8790   11.8890 N   0  0  0  0  0  0
   -0.4080    1.7220   11.7370 C   0  0  2  0  0  0
   -1.1180    3.0680   11.8290 C   0  0  0  0  0  0
   -1.6770    3.4060   12.8720 O   0  0  0  0  0  0
   -0.9600    0.7910   12.8170 C   0  0  0  0  0  0
   -0.7960   -0.5560   12.3880 O   0  0  0  0  0  0
   -1.1190    3.8290   10.7610 N   0  0  0  0  0  0
   -1.7880    5.1600   10.7190 C   0  0  2  0  0  0
   -3.0990    5.1780   11.5140 C   0  0  0  0  0  0
   -3.2930    6.0330   12.3820 O   0  0  0  0  0  0
   -2.0110    5.3640    9.2170 C   0  0  0  0  0  0
   -0.8330    4.7190    8.5860 C   0  0  0  0  0  0
   -0.4820    3.5130    9.4670 C   0  0  0  0  0  0
   -3.9920    4.2250   11.2270 N   0  0  0  0  0  0
   -5.2750    4.1600   11.9360 C   0  0  2  0  0  0
   -5.9650    2.7960   11.7570 C   0  0  0  0  0  0
   -5.7240    2.0780   10.7830 O   0  0  0  0  0  0
   -6.2060    5.2890   11.4430 C   0  0  0  0  0  0
   -5.4630    6.1750   10.4630 C   0  0  0  0  0  0
   -5.1310    5.6940    9.1890 C   0  0  0  0  0  0
   -5.0790    7.4650   10.8440 C   0  0  0  0  0  0
   -4.4140    6.5010    8.2980 C   0  0  0  0  0  0
   -4.3680    8.2730    9.9540 C   0  0  0  0  0  0
   -4.0320    7.7900    8.6850 C   0  0  0  0  0  0
   -3.3080    8.5870    7.8200 O   0  0  0  0  0  0
   -1.7700    8.9910    8.2130 P   0  0  0  0  0  0
   -0.7450    8.5590    7.1610 O   0  0  0  0  0  0
   -1.7830   10.5210    8.2930 O   0  0  0  0  0  0
   -1.3860    8.4110    9.5730 O   0  0  0  0  0  0
   -6.8340    2.4710   12.7160 N   0  0  0  0  0  0
   -7.6080    1.2200   12.7250 C   0  0  2  0  0  0
   -8.9700    1.5050   13.3400 C   0  0  0  0  0  0
   -9.1560    2.5280   14.0020 O   0  0  0  0  0  0
   -6.8780    0.1570   13.5510 C   0  0  0  0  0  0
   -9.9210    0.6200   13.1030 N   0  0  0  0  0  0
  -11.2660    0.8080   13.6160 C   0  0  2  0  0  0
  -11.6390   -0.3020   14.6020 C   0  0  0  0  0  0
  -11.6590   -1.4800   14.2440 O   0  0  0  0  0  0
  -12.2430    0.8170   12.4400 C   0  0  0  0  0  0
  -11.7670    1.7780   11.3480 C   0  0  0  0  0  0
  -10.7190    1.5300   10.7640 O   0  0  0  0  0  0
  -12.4850    2.7270   11.0730 O   0  0  0  0  0  0
  -11.9270    0.0590   15.8310 N   0  0  0  0  0  0
  -12.3040   -0.9170   16.8970 C   0  0  2  0  0  0
  -13.7650   -1.3570   16.8130 C   0  0  0  0  0  0
  -14.4980   -0.9540   15.9060 O   0  0  0  0  0  0
  -12.0520   -0.1340   18.1840 C   0  0  0  0  0  0
  -12.2770    1.2960   17.8240 C   0  0  0  0  0  0
  -11.9240    1.4420   16.3430 C   0  0  0  0  0  0
  -14.1720   -2.1860   17.7690 N   0  0  0  0  0  0
  -15.5400   -2.6840   17.8170 C   0  0  2  0  0  0
  -16.4930   -1.6200   18.3720 C   0  0  0  0  0  0
  -16.0140   -0.6600   18.9590 O   0  0  0  0  0  0
  -15.5980   -3.9440   18.6920 C   0  0  0  0  0  0
  -14.9590   -3.6640   20.0590 C   0  0  0  0  0  0
  -13.4660   -3.9790   20.0220 C   0  0  0  0  0  0
  -12.7260   -3.1860   19.4590 O   0  0  0  0  0  0
  -13.0860   -5.0080   20.5550 O   0  0  0  0  0  0
  -17.6930   -1.7800   18.2000 O   0  0  0  0  0  0
   14.3013    1.7564    6.3921 H   0  0  0  0  0  0
   15.6459    2.9462    6.3363 H   0  0  0  0  0  0
   14.8423    2.5716    7.8985 H   0  0  0  0  0  0
   16.4665    0.6598    6.2015 H   0  0  0  0  0  0
   17.9818    0.8071    8.2983 H   0  0  0  0  0  0
   17.9417    2.2694    7.2559 H   0  0  0  0  0  0
   16.5040    2.4847   11.0896 H   0  0  0  0  0  0
   15.9508    1.0112    9.7137 H   0  0  0  0  0  0
   14.9477   -1.8529    9.6535 H   0  0  0  0  0  0
   15.3516   -0.4089   12.3045 H   0  0  0  0  0  0
   17.1099    0.7004   10.9376 H   0  0  0  0  0  0
   15.0619   -2.9190   12.0630 H   0  0  0  0  0  0
   16.6489   -2.4815   12.7816 H   0  0  0  0  0  0
   16.5471   -2.9612   11.0535 H   0  0  0  0  0  0
   13.4578    0.8816    9.1011 H   0  0  0  0  0  0
   11.3099    0.3991   11.2123 H   0  0  0  0  0  0
   10.6531    2.6474   10.8850 H   0  0  0  0  0  0
   12.3941    2.7579   10.4566 H   0  0  0  0  0  0
    9.9841    2.6039    8.5783 H   0  0  0  0  0  0
   11.2288    3.8938    8.6956 H   0  0  0  0  0  0
   13.6756    1.3846    7.1548 H   0  0  0  0  0  0
    8.9914    1.0867   10.2412 H   0  0  0  0  0  0
    8.6462    0.0157    7.4797 H   0  0  0  0  0  0
    7.0334   -1.8596    8.2669 H   0  0  0  0  0  0
    9.2948   -2.3326    7.3606 H   0  0  0  0  0  0
    8.8634   -3.4798    8.6738 H   0  0  0  0  0  0
    9.9961   -2.1247    9.0012 H   0  0  0  0  0  0
    6.8110   -1.0431   10.6163 H   0  0  0  0  0  0
    8.5545   -1.3764   10.8914 H   0  0  0  0  0  0
    7.4218   -2.7316   10.5640 H   0  0  0  0  0  0
    5.8470   -0.9440    8.2028 H   0  0  0  0  0  0
    4.7510    1.8847    8.5090 H   0  0  0  0  0  0
    2.5595    0.3180    7.7596 H   0  0  0  0  0  0
    3.6311    1.1825    6.6060 H   0  0  0  0  0  0
    4.3313   -1.8860    8.6980 H   0  0  0  0  0  0
    3.7764   -0.2302    4.7513 H   0  0  0  0  0  0
    5.0355   -4.0495    7.6865 H   0  0  0  0  0  0
    4.4888   -2.3880    3.7534 H   0  0  0  0  0  0
    5.5021   -5.3844    5.7365 H   0  0  0  0  0  0
    4.4662    2.3086   10.6465 H   0  0  0  0  0  0
    3.8543    0.2599   12.5804 H   0  0  0  0  0  0
    3.1358    3.2542   12.5422 H   0  0  0  0  0  0
    2.9882    2.2169   14.0013 H   0  0  0  0  0  0
    5.1492    3.3713   14.0792 H   0  0  0  0  0  0
    5.4436    1.6296   13.7529 H   0  0  0  0  0  0
    5.7026    3.8612   10.2901 H   0  0  0  0  0  0
    1.4838    2.8845   11.9011 H   0  0  0  0  0  0
   -0.5472    1.2893   10.7353 H   0  0  0  0  0  0
   -0.4108    0.9528   13.7563 H   0  0  0  0  0  0
   -2.0274    1.0048   12.9749 H   0  0  0  0  0  0
   -1.1332   -1.3828   13.0305 H   0  0  0  0  0  0
   -1.1764    5.9441   11.1892 H   0  0  0  0  0  0
   -2.9548    4.8845    8.9180 H   0  0  0  0  0  0
   -2.0607    6.4405    8.9966 H   0  0  0  0  0  0
   -1.0919    4.4012    7.5652 H   0  0  0  0  0  0
    0.0003    5.4360    8.5465 H   0  0  0  0  0  0
    0.6031    3.4024    9.6098 H   0  0  0  0  0  0
   -0.8977    2.5737    9.0734 H   0  0  0  0  0  0
   -3.7554    3.4842   10.4490 H   0  0  0  0  0  0
   -5.0153    4.2906   12.9969 H   0  0  0  0  0  0
   -7.0826    4.8498   10.9443 H   0  0  0  0  0  0
   -6.5365    5.8927   12.3011 H   0  0  0  0  0  0
   -5.4318    4.6894    8.8915 H   0  0  0  0  0  0
   -5.3346    7.8395   11.8352 H   0  0  0  0  0  0
   -4.1546    6.1270    7.3076 H   0  0  0  0  0  0
   -4.0747    9.2807   10.2485 H   0  0  0  0  0  0
   -0.8588    8.8839    6.1163 H   0  0  0  0  0  0
   -2.0389   11.1161    7.4040 H   0  0  0  0  0  0
   -6.9563    3.1993   13.5313 H   0  0  0  0  0  0
   -7.7111    0.8765   11.6851 H   0  0  0  0  0  0
   -5.8944   -0.0448   13.1018 H   0  0  0  0  0  0
   -7.4720   -0.7688   13.5643 H   0  0  0  0  0  0
   -6.7433    0.5211   14.5802 H   0  0  0  0  0  0
   -9.6798   -0.2716   12.5056 H   0  0  0  0  0  0
  -11.2623    1.7737   14.1427 H   0  0  0  0  0  0
  -12.3153   -0.1953   12.0157 H   0  0  0  0  0  0
  -13.2348    1.1397   12.7897 H   0  0  0  0  0  0
  -10.3557    2.2053    9.9753 H   0  0  0  0  0  0
  -11.7194   -1.8438   16.8007 H   0  0  0  0  0  0
  -12.7543   -0.4701   18.9611 H   0  0  0  0  0  0
  -11.0199   -0.3075   18.5227 H   0  0  0  0  0  0
  -13.3308    1.5572   18.0011 H   0  0  0  0  0  0
  -11.6315    1.9360   18.4434 H   0  0  0  0  0  0
  -10.9273    1.8844   16.1984 H   0  0  0  0  0  0
  -12.6717    2.0366   15.7976 H   0  0  0  0  0  0
  -13.4469   -2.4951   18.5363 H   0  0  0  0  0  0
  -15.8092   -2.9117   16.7750 H   0  0  0  0  0  0
  -16.6735    0.1195   19.3681 H   0  0  0  0  0  0
  -16.6470   -4.2416   18.8371 H   0  0  0  0  0  0
  -15.0506   -4.7597   18.1970 H   0  0  0  0  0  0
  -15.0954   -2.6035   20.3172 H   0  0  0  0  0  0
  -15.4391   -4.2922   20.8238 H   0  0  0  0  0  0
  -11.6443   -3.3806   19.4129 H   0  0  0  0  0  0
  1  2  1  0  0  0
  1112  1  0  0  0
  1113  1  0  0  0
  1114  1  0  0  0
  2  3  1  0  0  0
  2  5  1  0  0  0
  2115  1  0  0  0
  3  4  2  0  0  0
  3  9  1  0  0  0
  5  6  1  0  0  0
  5116  1  0  0  0
  5117  1  0  0  0
  6  7  2  0  0  0
  6  8  1  0  0  0
  8118  1  0  0  0
  9 10  1  0  0  0
  9119  1  0  0  0
 10 11  1  0  0  0
 10 13  1  0  0  0
 10120  1  0  0  0
 11 12  2  0  0  0
 11 16  1  0  0  0
 13 14  1  0  0  0
 13 15  1  0  0  0
 13121  1  0  0  0
 14122  1  0  0  0
 15123  1  0  0  0
 15124  1  0  0  0
 15125  1  0  0  0
 16 17  1  0  0  0
 16126  1  0  0  0
 17 18  1  0  0  0
 17 20  1  0  0  0
 17127  1  0  0  0
 18 19  2  0  0  0
 18 25  1  0  0  0
 20 21  1  0  0  0
 20128  1  0  0  0
 20129  1  0  0  0
 21 22  1  0  0  0
 21130  1  0  0  0
 21131  1  0  0  0
 22 23  1  0  0  0
 22 24  2  0  0  0
 23132  1  0  0  0
 25 26  1  0  0  0
 25133  1  0  0  0
 26 27  1  0  0  0
 26 29  1  0  0  0
 26134  1  0  0  0
 27 28  2  0  0  0
 27 32  1  0  0  0
 29 30  1  0  0  0
 29 31  1  0  0  0
 29135  1  0  0  0
 30136  1  0  0  0
 30137  1  0  0  0
 30138  1  0  0  0
 31139  1  0  0  0
 31140  1  0  0  0
 31141  1  0  0  0
 32 33  1  0  0  0
 32142  1  0  0  0
 33 34  1  0  0  0
 33 36  1  0  0  0
 33143  1  0  0  0
 34 35  2  0  0  0
 34 44  1  0  0  0
 36 37  1  0  0  0
 36144  1  0  0  0
 36145  1  0  0  0
 37 38  2  0  0  0
 37 39  1  0  0  0
 38 40  1  0  0  0
 38146  1  0  0  0
 39 41  2  0  0  0
 39147  1  0  0  0
 40 42  2  0  0  0
 40148  1  0  0  0
 41 42  1  0  0  0
 41149  1  0  0  0
 42 43  1  0  0  0
 43150  1  0  0  0
 44 45  1  0  0  0
 44151  1  0  0  0
 45 46  1  0  0  0
 45 48  1  0  0  0
 45152  1  0  0  0
 46 47  2  0  0  0
 46 53  1  0  0  0
 48 49  1  0  0  0
 48153  1  0  0  0
 48154  1  0  0  0
 49 50  1  0  0  0
 49155  1  0  0  0
 49156  1  0  0  0
 50 51  1  0  0  0
 50 52  2  0  0  0
 51157  1  0  0  0
 53 54  1  0  0  0
 53158  1  0  0  0
 54 55  1  0  0  0
 54 57  1  0  0  0
 54159  1  0  0  0
 55 56  2  0  0  0
 55 59  1  0  0  0
 57 58  1  0  0  0
 57160  1  0  0  0
 57161  1  0  0  0
 58162  1  0  0  0
 59 60  1  0  0  0
 59 65  1  0  0  0
 60 61  1  0  0  0
 60 63  1  0  0  0
 60163  1  0  0  0
 61 62  2  0  0  0
 61 66  1  0  0  0
 63 64  1  0  0  0
 63164  1  0  0  0
 63165  1  0  0  0
 64 65  1  0  0  0
 64166  1  0  0  0
 64167  1  0  0  0
 65168  1  0  0  0
 65169  1  0  0  0
 66 67  1  0  0  0
 66170  1  0  0  0
 67 68  1  0  0  0
 67 70  1  0  0  0
 67171  1  0  0  0
 68 69  2  0  0  0
 68 82  1  0  0  0
 70 71  1  0  0  0
 70172  1  0  0  0
 70173  1  0  0  0
 71 72  2  0  0  0
 71 73  1  0  0  0
 72 74  1  0  0  0
 72174  1  0  0  0
 73 75  2  0  0  0
 73175  1  0  0  0
 74 76  2  0  0  0
 74176  1  0  0  0
 75 76  1  0  0  0
 75177  1  0  0  0
 76 77  1  0  0  0
 77 78  1  0  0  0
 78 79  1  0  0  0
 78 80  1  0  0  0
 78 81  2  0  0  0
 79178  1  0  0  0
 80179  1  0  0  0
 82 83  1  0  0  0
 82180  1  0  0  0
 83 84  1  0  0  0
 83 86  1  0  0  0
 83181  1  0  0  0
 84 85  2  0  0  0
 84 87  1  0  0  0
 86182  1  0  0  0
 86183  1  0  0  0
 86184  1  0  0  0
 87 88  1  0  0  0
 87185  1  0  0  0
 88 89  1  0  0  0
 88 91  1  0  0  0
 88186  1  0  0  0
 89 90  2  0  0  0
 89 95  1  0  0  0
 91 92  1  0  0  0
 91187  1  0  0  0
 91188  1  0  0  0
 92 93  1  0  0  0
 92 94  2  0  0  0
 93189  1  0  0  0
 95 96  1  0  0  0
 95101  1  0  0  0
 96 97  1  0  0  0
 96 99  1  0  0  0
 96190  1  0  0  0
 97 98  2  0  0  0
 97102  1  0  0  0
 99100  1  0  0  0
 99191  1  0  0  0
 99192  1  0  0  0
100101  1  0  0  0
100193  1  0  0  0
100194  1  0  0  0
101195  1  0  0  0
101196  1  0  0  0
102103  1  0  0  0
102197  1  0  0  0
103104  1  0  0  0
103106  1  0  0  0
103198  1  0  0  0
104105  1  0  0  0
104111  2  0  0  0
105199  1  0  0  0
106107  1  0  0  0
106200  1  0  0  0
106201  1  0  0  0
107108  1  0  0  0
107202  1  0  0  0
107203  1  0  0  0
108109  1  0  0  0
108110  2  0  0  0
109204  1  0  0  0
M  CHG  1   1   1
M  END
> <s_m_source_file>
../2mc1_ligand.sdf

> <i_m_source_file_index>
1

> <s_epik_input>
Tz1DKFtPSF0pW0NIMl1bQ0BIXShbTkgzK10pQyg9TylbTkhdW0NAQEhdKFtDQEhdKFtPSF0pW0NIM10pQyg9TylbTkhdW0NAQEhdKFtDSDJdW0NIMl1DKD1PKVtPSF0pQyg9TylbTkhdW0NAQEhdKFtDSF0oW0NIM10pW0NIM10pQyg9TylbTkhdW0NAQEhdKFtDSDJdYzFbY0hdW2NIXWMoW09IXSlbY0hdW2NIXTEpQyg9TylbTkhdW0NAQEhdKFtDSDJdW0NIMl1DKD1PKVtPSF0pQyg9TylbTkhdW0NAQEhdKFtDSDJdW09IXSlDKD1PKU4yW0NAQEhdKFtDSDJdW0NIMl1bQ0gyXTIpQyg9TylbTkhdW0NAQEhdKFtDSDJdYzNbY0hdW2NIXWMoW2NIXVtjSF0zKU9QKD1PKShbT0hdKVtPSF0pQyg9TylbTkhdW0NAQEhdKFtDSDNdKUMoPU8pW05IXVtDQEBIXShbQ0gyXUMoPU8pW09IXSlDKD1PKU40W0NAQEhdKFtDSDJdW0NIMl1bQ0gyXTQpQyg9TylbTkhdW0NASF0oQyg9TylbT0hdKVtDSDJdW0NIMl1DKD1PKVtPSF0=

> <s_epik_cmdline>
J2VwaWtfYXBwJywgJy1pbWFlJywgJ2xpZ2FuZF9wcm8ubWFlJywgJy1vbWFlJywgJ2xpZ2FuZF9wcmVwLm1hZScsICctbXMnLCAnMScsICctcGgnLCAnNycsICctcGh0JywgJzAuNScsICctbnQn

> <s_epik_pKa_notes>
Molecule size exceeds maximum supported for generating protonation states

$$$$
