2mg5_ligand
                    3D
 Schrodinger Suite 2020-3.
251251  0  0  1  0            999 V2000
    8.9900    2.4810   -1.2490 N   0  3  0  0  0  0
    9.2990    3.5390   -0.2510 C   0  0  1  0  0  0
    8.7440    4.9150   -0.6880 C   0  0  1  0  0  0
    9.7830    5.7080   -1.4630 C   0  0  0  0  0  0
    7.5720    4.7490   -1.4940 O   0  0  0  0  0  0
    8.7180    3.1860    1.1100 C   0  0  0  0  0  0
    7.5740    2.7660    1.2060 O   0  0  0  0  0  0
    9.5170    3.3390    2.1640 N   0  0  0  0  0  0
    9.0630    3.0410    3.5250 C   0  0  2  0  0  0
    8.1560    4.1440    4.0900 C   0  0  0  0  0  0
    7.2220    3.8420    4.8280 O   0  0  0  0  0  0
   10.2580    2.7370    4.4330 C   0  0  0  0  0  0
   10.2490    1.2800    4.8020 C   0  0  0  0  0  0
   10.7390    0.3160    3.9290 C   0  0  0  0  0  0
    9.6790    0.8710    5.9900 C   0  0  0  0  0  0
   10.6570   -1.0260    4.2430 C   0  0  0  0  0  0
    9.6030   -0.4700    6.3130 C   0  0  0  0  0  0
   10.0880   -1.4190    5.4360 C   0  0  0  0  0  0
    8.4270    5.4110    3.7230 N   0  0  0  0  0  0
    7.6480    6.5700    4.2160 C   0  0  2  0  0  0
    6.2430    6.7720    3.5890 C   0  0  0  0  0  0
    5.2480    6.8040    4.3170 O   0  0  0  0  0  0
    8.4770    7.8430    4.0260 C   0  0  0  0  0  0
    9.7630    7.8300    4.8260 C   0  0  0  0  0  0
   10.7530    8.8600    4.3120 C   0  0  0  0  0  0
   11.9740    8.9590    5.2120 C   0  0  0  0  0  0
   12.9580    9.9550    4.7060 N   0  3  0  0  0  0
    6.1700    6.9080    2.2480 N   0  0  0  0  0  0
    4.8880    7.1610    1.5350 C   0  0  2  0  0  0
    4.0100    5.9180    1.3290 C   0  0  0  0  0  0
    2.7840    5.9930    1.4470 O   0  0  0  0  0  0
    5.1150    7.8790    0.1850 C   0  0  0  0  0  0
    6.2990    7.3780   -0.6390 C   0  0  0  0  0  0
    7.5980    8.0720   -0.2750 C   0  0  0  0  0  0
    8.2980    7.5850    0.6370 O   0  0  0  0  0  0
    7.9150    9.1040   -0.9030 O   0  0  0  0  0  0
    4.6530    4.7880    1.0190 N   0  0  0  0  0  0
    3.9840    3.4950    0.7480 C   0  0  2  0  0  0
    2.9690    3.0660    1.8360 C   0  0  0  0  0  0
    2.0400    2.3100    1.5390 O   0  0  0  0  0  0
    5.0370    2.3830    0.4670 C   0  0  0  0  0  0
    4.4800    0.9720    0.6340 C   0  0  0  0  0  0
    5.5840    2.5370   -0.9460 C   0  0  0  0  0  0
    3.1530    3.5390    3.0790 N   0  0  0  0  0  0
    2.2720    3.1790    4.2120 C   0  0  2  0  0  0
    0.7830    3.3390    3.8900 C   0  0  0  0  0  0
   -0.0270    2.4930    4.2730 O   0  0  0  0  0  0
    2.6010    4.0520    5.4030 C   0  0  0  0  0  0
    0.4390    4.4210    3.1850 N   0  0  0  0  0  0
   -0.9450    4.6930    2.7860 C   0  0  2  0  0  0
   -1.3950    3.7270    1.6680 C   0  0  0  0  0  0
   -2.5940    3.4920    1.4880 O   0  0  0  0  0  0
   -1.0660    6.1610    2.3520 C   0  0  0  0  0  0
   -2.5070    6.6330    2.2140 C   0  0  0  0  0  0
   -3.1010    7.1410    3.1640 O   0  0  0  0  0  0
   -3.0720    6.4640    1.0240 N   0  0  0  0  0  0
   -0.4120    3.1800    0.9290 N   0  0  0  0  0  0
   -0.6610    2.2270   -0.1630 C   0  0  2  0  0  0
   -0.9750    0.8180    0.3640 C   0  0  0  0  0  0
   -1.9460    0.1980   -0.0690 O   0  0  0  0  0  0
    0.5280    2.1920   -1.1150 C   0  0  0  0  0  0
   -0.1350    0.3110    1.2880 N   0  0  0  0  0  0
   -0.3320   -1.0260    1.8880 C   0  0  2  0  0  0
   -1.5290   -1.0320    2.8770 C   0  0  0  0  0  0
   -2.1710   -2.0680    3.0720 O   0  0  0  0  0  0
    0.9800   -1.5730    2.5750 C   0  0  0  0  0  0
    1.4850   -0.6490    3.6840 C   0  0  0  0  0  0
    0.7790   -2.9920    3.1120 C   0  0  0  0  0  0
   -1.8080    0.1350    3.4870 N   0  0  0  0  0  0
   -2.9020    0.2860    4.4650 C   0  0  2  0  0  0
   -4.2990    0.2440    3.8170 C   0  0  0  0  0  0
   -5.2950    0.0450    4.5190 O   0  0  0  0  0  0
   -2.7320    1.5990    5.2400 C   0  0  0  0  0  0
   -3.2860    1.5600    6.6590 C   0  0  0  0  0  0
   -3.1370    2.9070    7.3530 C   0  0  0  0  0  0
   -3.7740    2.9020    8.7360 C   0  0  0  0  0  0
   -2.9720    2.1240    9.7230 N   0  3  0  0  0  0
   -4.3710    0.4300    2.4850 N   0  0  0  0  0  0
   -5.6580    0.4070    1.7600 C   0  0  2  0  0  0
   -6.2090   -1.0380    1.6000 C   0  0  0  0  0  0
   -7.2410   -1.2480    0.9560 O   0  0  0  0  0  0
   -5.5380    1.1450    0.3800 C   0  0  2  0  0  0
   -6.9140    1.5950   -0.1410 C   0  0  0  0  0  0
   -4.8270    0.2930   -0.6740 C   0  0  0  0  0  0
   -6.9310    3.0280   -0.6380 C   0  0  0  0  0  0
   -5.5030   -2.0060    2.1960 N   0  0  0  0  0  0
   -5.8950   -3.4170    2.1500 C   0  0  2  0  0  0
   -6.6270   -3.8240    3.4390 C   0  0  0  0  0  0
   -6.9110   -5.0080    3.6600 O   0  0  0  0  0  0
   -4.6510   -4.2920    1.9550 C   0  0  0  0  0  0
   -3.8750   -3.8440    0.8570 O   0  0  0  0  0  0
   -6.9470   -2.8240    4.2740 N   0  0  0  0  0  0
   -7.6280   -3.0450    5.5540 C   0  0  2  0  0  0
   -9.1570   -3.1120    5.4150 C   0  0  0  0  0  0
   -9.8530   -3.4450    6.3800 O   0  0  0  0  0  0
   -7.2370   -1.9500    6.5350 C   0  0  0  0  0  0
   -9.6720   -2.8050    4.2140 N   0  0  0  0  0  0
  -11.1150   -2.8320    3.9570 C   0  0  2  0  0  0
  -11.5820   -4.2300    3.5400 C   0  0  0  0  0  0
  -12.5030   -4.7830    4.1470 O   0  0  0  0  0  0
  -11.4920   -1.7950    2.8920 C   0  0  0  0  0  0
  -11.6410   -0.5090    3.4660 O   0  0  0  0  0  0
  -10.9290   -4.8040    2.5190 N   0  0  0  0  0  0
  -11.2810   -6.1440    2.0280 C   0  0  2  0  0  0
  -10.5550   -7.2470    2.8100 C   0  0  0  0  0  0
  -10.9310   -8.4200    2.7260 O   0  0  0  0  0  0
  -10.9750   -6.2680    0.5280 C   0  0  0  0  0  0
  -12.0150   -5.6400   -0.4160 C   0  0  0  0  0  0
  -11.3800   -5.2890   -1.7530 C   0  0  0  0  0  0
  -13.1960   -6.5820   -0.6310 C   0  0  0  0  0  0
   -9.5170   -6.8590    3.5660 N   0  0  0  0  0  0
   -8.7410   -7.7990    4.3760 C   0  0  2  0  0  0
   -8.5230   -7.2320    5.7830 C   0  0  0  0  0  0
   -9.0010   -7.8600    6.7520 O   0  0  0  0  0  0
   -7.3930   -8.1130    3.7000 C   0  0  0  0  0  0
   -6.7690   -9.4370    4.1380 C   0  0  0  0  0  0
   -7.8050  -10.8610    3.7450 S   0  0  0  0  0  0
   -7.1730  -12.0700    4.9060 C   0  0  0  0  0  0
   -7.8850   -6.1630    5.9030 O   0  0  0  0  0  0
    9.4197    2.7587   -2.2227 H   0  0  0  0  0  0
    7.8994    2.3758   -1.3461 H   0  0  0  0  0  0
    9.4223    1.5258   -0.9164 H   0  0  0  0  0  0
   10.3972    3.5656   -0.1948 H   0  0  0  0  0  0
    8.4196    5.4907    0.1914 H   0  0  0  0  0  0
   10.6834    5.8357   -0.8441 H   0  0  0  0  0  0
    9.3728    6.6953   -1.7216 H   0  0  0  0  0  0
   10.0449    5.1670   -2.3843 H   0  0  0  0  0  0
    6.7064    4.1970   -1.0989 H   0  0  0  0  0  0
   10.5421    3.6994    1.9927 H   0  0  0  0  0  0
    8.4489    2.1331    3.4323 H   0  0  0  0  0  0
   11.1916    2.9751    3.9023 H   0  0  0  0  0  0
   10.1894    3.3469    5.3459 H   0  0  0  0  0  0
   11.1928    0.6226    2.9866 H   0  0  0  0  0  0
    9.2839    1.6148    6.6819 H   0  0  0  0  0  0
   11.0414   -1.7735    3.5491 H   0  0  0  0  0  0
    9.1602   -0.7785    7.2600 H   0  0  0  0  0  0
   10.0213   -2.4778    5.6861 H   0  0  0  0  0  0
    9.2653    5.5673    3.0282 H   0  0  0  0  0  0
    7.4841    6.3149    5.2734 H   0  0  0  0  0  0
    8.7427    7.9525    2.9642 H   0  0  0  0  0  0
    7.8891    8.7150    4.3486 H   0  0  0  0  0  0
    9.5419    8.0572    5.8793 H   0  0  0  0  0  0
   10.2288    6.8360    4.7553 H   0  0  0  0  0  0
   11.0870    8.5760    3.3032 H   0  0  0  0  0  0
   10.2687    9.8469    4.2736 H   0  0  0  0  0  0
   11.6617    9.2657    6.2212 H   0  0  0  0  0  0
   12.4716    7.9794    5.2640 H   0  0  0  0  0  0
   13.8225    9.9939    5.3851 H   0  0  0  0  0  0
   12.4843   10.9466    4.6581 H   0  0  0  0  0  0
   13.2942    9.6603    3.7009 H   0  0  0  0  0  0
    7.1082    6.8248    1.6798 H   0  0  0  0  0  0
    4.3578    7.8147    2.2433 H   0  0  0  0  0  0
    4.2243    7.7580   -0.4490 H   0  0  0  0  0  0
    5.2945    8.9493    0.3645 H   0  0  0  0  0  0
    6.4333    6.2994   -0.4697 H   0  0  0  0  0  0
    6.1062    7.5604   -1.7065 H   0  0  0  0  0  0
    8.8509    9.6291   -0.6615 H   0  0  0  0  0  0
    5.7496    4.8606    0.9711 H   0  0  0  0  0  0
    3.3916    3.7028   -0.1553 H   0  0  0  0  0  0
    5.8473    2.4935    1.2026 H   0  0  0  0  0  0
    4.0827    0.8528    1.6528 H   0  0  0  0  0  0
    5.2824    0.2387    0.4652 H   0  0  0  0  0  0
    3.6734    0.8075   -0.0957 H   0  0  0  0  0  0
    5.9876    3.5522   -1.0743 H   0  0  0  0  0  0
    4.7753    2.3694   -1.6725 H   0  0  0  0  0  0
    6.3842    1.8006   -1.1117 H   0  0  0  0  0  0
    4.0012    4.2214    3.2371 H   0  0  0  0  0  0
    2.4844    2.1186    4.4130 H   0  0  0  0  0  0
    3.6682    3.9496    5.6490 H   0  0  0  0  0  0
    1.9943    3.7393    6.2656 H   0  0  0  0  0  0
    2.3797    5.1018    5.1604 H   0  0  0  0  0  0
    1.2400    5.1206    2.9041 H   0  0  0  0  0  0
   -1.5706    4.5160    3.6733 H   0  0  0  0  0  0
   -0.5770    6.8052    3.0975 H   0  0  0  0  0  0
   -0.5789    6.2959    1.3750 H   0  0  0  0  0  0
   -2.5005    6.0045    0.2041 H   0  0  0  0  0  0
   -4.1115    6.7835    0.8583 H   0  0  0  0  0  0
    0.6180    3.4776    1.1751 H   0  0  0  0  0  0
   -1.5466    2.6138   -0.6885 H   0  0  0  0  0  0
    0.7355    3.2087   -1.4799 H   0  0  0  0  0  0
    0.2960    1.5367   -1.9675 H   0  0  0  0  0  0
    1.4109    1.8053   -0.5849 H   0  0  0  0  0  0
    0.7216    0.9299    1.5931 H   0  0  0  0  0  0
   -0.5830   -1.6567    1.0224 H   0  0  0  0  0  0
    1.7764   -1.6141    1.8173 H   0  0  0  0  0  0
    1.6238    0.3652    3.2814 H   0  0  0  0  0  0
    2.4448   -1.0261    4.0667 H   0  0  0  0  0  0
    0.7496   -0.6215    4.5015 H   0  0  0  0  0  0
    0.4161   -3.6424    2.3025 H   0  0  0  0  0  0
    0.0406   -2.9744    3.9271 H   0  0  0  0  0  0
    1.7358   -3.3791    3.4923 H   0  0  0  0  0  0
   -1.1785    0.9991    3.2281 H   0  0  0  0  0  0
   -2.7985   -0.5860    5.1275 H   0  0  0  0  0  0
   -1.6623    1.8436    5.3168 H   0  0  0  0  0  0
   -3.2560    2.4081    4.7101 H   0  0  0  0  0  0
   -4.3545    1.3003    6.6284 H   0  0  0  0  0  0
   -2.7416    0.8045    7.2445 H   0  0  0  0  0  0
   -2.0690    3.1457    7.4648 H   0  0  0  0  0  0
   -3.6257    3.6863    6.7498 H   0  0  0  0  0  0
   -3.8595    3.9351    9.1040 H   0  0  0  0  0  0
   -4.7750    2.4497    8.6770 H   0  0  0  0  0  0
   -3.4712    2.1499   10.7029 H   0  0  0  0  0  0
   -1.9688    2.5667    9.8107 H   0  0  0  0  0  0
   -2.8843    1.0813    9.3837 H   0  0  0  0  0  0
   -3.4335    0.6029    1.9361 H   0  0  0  0  0  0
   -6.3475    0.9580    2.4165 H   0  0  0  0  0  0
   -4.9202    2.0421    0.5335 H   0  0  0  0  0  0
   -7.2170    0.9510   -0.9797 H   0  0  0  0  0  0
   -7.6557    1.5171    0.6676 H   0  0  0  0  0  0
   -3.8456   -0.0220   -0.2897 H   0  0  0  0  0  0
   -4.6891    0.8842   -1.5913 H   0  0  0  0  0  0
   -5.4353   -0.5956   -0.8985 H   0  0  0  0  0  0
   -7.9408    3.2807   -0.9937 H   0  0  0  0  0  0
   -6.2130    3.1381   -1.4640 H   0  0  0  0  0  0
   -6.6516    3.7043    0.1833 H   0  0  0  0  0  0
   -4.5939   -1.7051    2.7372 H   0  0  0  0  0  0
   -6.5758   -3.5141    1.2915 H   0  0  0  0  0  0
   -4.0298   -4.2535    2.8620 H   0  0  0  0  0  0
   -4.9594   -5.3308    1.7656 H   0  0  0  0  0  0
   -2.9474   -4.3705    0.5878 H   0  0  0  0  0  0
   -6.6769   -1.8038    3.9636 H   0  0  0  0  0  0
   -7.2690   -4.0262    5.8981 H   0  0  0  0  0  0
   -6.1413   -1.9127    6.6252 H   0  0  0  0  0  0
   -7.6789   -2.1646    7.5192 H   0  0  0  0  0  0
   -7.6081   -0.9810    6.1699 H   0  0  0  0  0  0
   -8.9752   -2.5269    3.4096 H   0  0  0  0  0  0
  -11.5843   -2.5703    4.9168 H   0  0  0  0  0  0
  -10.7022   -1.7507    2.1276 H   0  0  0  0  0  0
  -12.4431   -2.0830    2.4202 H   0  0  0  0  0  0
  -11.9112    0.3483    2.8320 H   0  0  0  0  0  0
  -10.1093   -4.2429    2.0465 H   0  0  0  0  0  0
  -12.3630   -6.2323    2.2055 H   0  0  0  0  0  0
  -10.0177   -5.7733    0.3070 H   0  0  0  0  0  0
  -10.9101   -7.3313    0.2537 H   0  0  0  0  0  0
  -12.3900   -4.7146    0.0456 H   0  0  0  0  0  0
  -10.5303   -4.6102   -1.5884 H   0  0  0  0  0  0
  -12.1249   -4.7952   -2.3943 H   0  0  0  0  0  0
  -11.0257   -6.2078   -2.2431 H   0  0  0  0  0  0
  -13.6486   -6.8302    0.3404 H   0  0  0  0  0  0
  -12.8458   -7.5037   -1.1186 H   0  0  0  0  0  0
  -13.9450   -6.0911   -1.2698 H   0  0  0  0  0  0
   -9.2563   -5.7904    3.5626 H   0  0  0  0  0  0
   -9.3474   -8.7147    4.4366 H   0  0  0  0  0  0
   -7.5329   -8.1659    2.6102 H   0  0  0  0  0  0
   -6.6695   -7.3196    3.9387 H   0  0  0  0  0  0
   -5.8032   -9.5732    3.6293 H   0  0  0  0  0  0
   -6.6117   -9.4258    5.2266 H   0  0  0  0  0  0
   -7.7204  -13.0163    4.7843 H   0  0  0  0  0  0
   -7.3075  -11.6979    5.9324 H   0  0  0  0  0  0
   -6.1030  -12.2381    4.7142 H   0  0  0  0  0  0
   -7.7139   -5.7337    6.9012 H   0  0  0  0  0  0
  1  2  1  0  0  0
  1120  1  0  0  0
  1121  1  0  0  0
  1122  1  0  0  0
  2  3  1  0  0  0
  2  6  1  0  0  0
  2123  1  0  0  0
  3  4  1  0  0  0
  3  5  1  0  0  0
  3124  1  0  0  0
  4125  1  0  0  0
  4126  1  0  0  0
  4127  1  0  0  0
  5128  1  0  0  0
  6  7  2  0  0  0
  6  8  1  0  0  0
  8  9  1  0  0  0
  8129  1  0  0  0
  9 10  1  0  0  0
  9 12  1  0  0  0
  9130  1  0  0  0
 10 11  2  0  0  0
 10 19  1  0  0  0
 12 13  1  0  0  0
 12131  1  0  0  0
 12132  1  0  0  0
 13 14  2  0  0  0
 13 15  1  0  0  0
 14 16  1  0  0  0
 14133  1  0  0  0
 15 17  2  0  0  0
 15134  1  0  0  0
 16 18  2  0  0  0
 16135  1  0  0  0
 17 18  1  0  0  0
 17136  1  0  0  0
 18137  1  0  0  0
 19 20  1  0  0  0
 19138  1  0  0  0
 20 21  1  0  0  0
 20 23  1  0  0  0
 20139  1  0  0  0
 21 22  2  0  0  0
 21 28  1  0  0  0
 23 24  1  0  0  0
 23140  1  0  0  0
 23141  1  0  0  0
 24 25  1  0  0  0
 24142  1  0  0  0
 24143  1  0  0  0
 25 26  1  0  0  0
 25144  1  0  0  0
 25145  1  0  0  0
 26 27  1  0  0  0
 26146  1  0  0  0
 26147  1  0  0  0
 27148  1  0  0  0
 27149  1  0  0  0
 27150  1  0  0  0
 28 29  1  0  0  0
 28151  1  0  0  0
 29 30  1  0  0  0
 29 32  1  0  0  0
 29152  1  0  0  0
 30 31  2  0  0  0
 30 37  1  0  0  0
 32 33  1  0  0  0
 32153  1  0  0  0
 32154  1  0  0  0
 33 34  1  0  0  0
 33155  1  0  0  0
 33156  1  0  0  0
 34 35  2  0  0  0
 34 36  1  0  0  0
 36157  1  0  0  0
 37 38  1  0  0  0
 37158  1  0  0  0
 38 39  1  0  0  0
 38 41  1  0  0  0
 38159  1  0  0  0
 39 40  2  0  0  0
 39 44  1  0  0  0
 41 42  1  0  0  0
 41 43  1  0  0  0
 41160  1  0  0  0
 42161  1  0  0  0
 42162  1  0  0  0
 42163  1  0  0  0
 43164  1  0  0  0
 43165  1  0  0  0
 43166  1  0  0  0
 44 45  1  0  0  0
 44167  1  0  0  0
 45 46  1  0  0  0
 45 48  1  0  0  0
 45168  1  0  0  0
 46 47  2  0  0  0
 46 49  1  0  0  0
 48169  1  0  0  0
 48170  1  0  0  0
 48171  1  0  0  0
 49 50  1  0  0  0
 49172  1  0  0  0
 50 51  1  0  0  0
 50 53  1  0  0  0
 50173  1  0  0  0
 51 52  2  0  0  0
 51 57  1  0  0  0
 53 54  1  0  0  0
 53174  1  0  0  0
 53175  1  0  0  0
 54 55  2  0  0  0
 54 56  1  0  0  0
 56176  1  0  0  0
 56177  1  0  0  0
 57 58  1  0  0  0
 57178  1  0  0  0
 58 59  1  0  0  0
 58 61  1  0  0  0
 58179  1  0  0  0
 59 60  2  0  0  0
 59 62  1  0  0  0
 61180  1  0  0  0
 61181  1  0  0  0
 61182  1  0  0  0
 62 63  1  0  0  0
 62183  1  0  0  0
 63 64  1  0  0  0
 63 66  1  0  0  0
 63184  1  0  0  0
 64 65  2  0  0  0
 64 69  1  0  0  0
 66 67  1  0  0  0
 66 68  1  0  0  0
 66185  1  0  0  0
 67186  1  0  0  0
 67187  1  0  0  0
 67188  1  0  0  0
 68189  1  0  0  0
 68190  1  0  0  0
 68191  1  0  0  0
 69 70  1  0  0  0
 69192  1  0  0  0
 70 71  1  0  0  0
 70 73  1  0  0  0
 70193  1  0  0  0
 71 72  2  0  0  0
 71 78  1  0  0  0
 73 74  1  0  0  0
 73194  1  0  0  0
 73195  1  0  0  0
 74 75  1  0  0  0
 74196  1  0  0  0
 74197  1  0  0  0
 75 76  1  0  0  0
 75198  1  0  0  0
 75199  1  0  0  0
 76 77  1  0  0  0
 76200  1  0  0  0
 76201  1  0  0  0
 77202  1  0  0  0
 77203  1  0  0  0
 77204  1  0  0  0
 78 79  1  0  0  0
 78205  1  0  0  0
 79 80  1  0  0  0
 79 82  1  0  0  0
 79206  1  0  0  0
 80 81  2  0  0  0
 80 86  1  0  0  0
 82 83  1  0  0  0
 82 84  1  0  0  0
 82207  1  0  0  0
 83 85  1  0  0  0
 83208  1  0  0  0
 83209  1  0  0  0
 84210  1  0  0  0
 84211  1  0  0  0
 84212  1  0  0  0
 85213  1  0  0  0
 85214  1  0  0  0
 85215  1  0  0  0
 86 87  1  0  0  0
 86216  1  0  0  0
 87 88  1  0  0  0
 87 90  1  0  0  0
 87217  1  0  0  0
 88 89  2  0  0  0
 88 92  1  0  0  0
 90 91  1  0  0  0
 90218  1  0  0  0
 90219  1  0  0  0
 91220  1  0  0  0
 92 93  1  0  0  0
 92221  1  0  0  0
 93 94  1  0  0  0
 93 96  1  0  0  0
 93222  1  0  0  0
 94 95  2  0  0  0
 94 97  1  0  0  0
 96223  1  0  0  0
 96224  1  0  0  0
 96225  1  0  0  0
 97 98  1  0  0  0
 97226  1  0  0  0
 98 99  1  0  0  0
 98101  1  0  0  0
 98227  1  0  0  0
 99100  2  0  0  0
 99103  1  0  0  0
101102  1  0  0  0
101228  1  0  0  0
101229  1  0  0  0
102230  1  0  0  0
103104  1  0  0  0
103231  1  0  0  0
104105  1  0  0  0
104107  1  0  0  0
104232  1  0  0  0
105106  2  0  0  0
105111  1  0  0  0
107108  1  0  0  0
107233  1  0  0  0
107234  1  0  0  0
108109  1  0  0  0
108110  1  0  0  0
108235  1  0  0  0
109236  1  0  0  0
109237  1  0  0  0
109238  1  0  0  0
110239  1  0  0  0
110240  1  0  0  0
110241  1  0  0  0
111112  1  0  0  0
111242  1  0  0  0
112113  1  0  0  0
112115  1  0  0  0
112243  1  0  0  0
113114  2  0  0  0
113119  1  0  0  0
115116  1  0  0  0
115244  1  0  0  0
115245  1  0  0  0
116117  1  0  0  0
116246  1  0  0  0
116247  1  0  0  0
117118  1  0  0  0
118248  1  0  0  0
118249  1  0  0  0
118250  1  0  0  0
119251  1  0  0  0
M  CHG  3   1   1  27   1  77   1
M  END
> <s_m_source_file>
../2mg5_ligand.sdf

> <i_m_source_file_index>
1

> <s_epik_input>
W2NIXTFbY0hdW2NIXVtjSF1bY0hdYzFbQ0gyXVtDQEhdKFtOSF1DKD1PKVtDQEBIXShbTkgzK10pW0NAQEhdKFtDSDNdKVtPSF0pQyg9TylbTkhdW0NAQEhdKFtDSDJdW0NIMl1bQ0gyXVtDSDJdW05IMytdKUMoPU8pW05IXVtDQEBIXShbQ0gyXVtDSDJdQyg9TylbT0hdKUMoPU8pW05IXVtDQEBIXShbQ0hdKFtDSDNdKVtDSDNdKUMoPU8pW05IXVtDQEBIXShbQ0gzXSlDKD1PKVtOSF1bQ0BASF0oW0NIMl1DKD1PKVtOSDJdKUMoPU8pW05IXVtDQEBIXShbQ0gzXSlDKD1PKVtOSF1bQ0BASF0oW0NIXShbQ0gzXSlbQ0gzXSlDKD1PKVtOSF1bQ0BASF0oW0NIMl1bQ0gyXVtDSDJdW0NIMl1bTkgzK10pQyg9TylbTkhdW0NAQEhdKFtDQEBIXShbQ0gzXSlbQ0gyXVtDSDNdKUMoPU8pW05IXVtDQEBIXShbQ0gyXVtPSF0pQyg9TylbTkhdW0NAQEhdKFtDSDNdKUMoPU8pW05IXVtDQEBIXShbQ0gyXVtPSF0pQyg9TylbTkhdW0NAQEhdKFtDSDJdW0NIXShbQ0gzXSlbQ0gzXSlDKD1PKVtOSF1bQ0BIXShDKD1PKVtPSF0pW0NIMl1bQ0gyXVNbQ0gzXQ==

> <s_epik_cmdline>
J2VwaWtfYXBwJywgJy1pbWFlJywgJ2xpZ2FuZF9wcm8ubWFlJywgJy1vbWFlJywgJ2xpZ2FuZF9wcmVwLm1hZScsICctbXMnLCAnMScsICctcGgnLCAnNycsICctcGh0JywgJzAuNScsICctbnQn

> <s_epik_pKa_notes>
Molecule size exceeds maximum supported for generating protonation states

$$$$
