2mip_ligand
                    3D
 Schrodinger Suite 2020-3.
116117  0  0  1  0            999 V2000
   20.4680   38.2330   -9.0280 N   0  3  0  0  0  0
   19.1850   38.4960   -8.3590 C   0  0  2  0  0  0
   19.3280   39.3440   -7.1200 C   0  0  0  0  0  0
   20.0950   39.0390   -6.1930 O   0  0  0  0  0  0
   18.3560   37.2360   -8.0020 C   0  0  0  0  0  0
   17.6220   36.7000   -9.1730 C   0  0  0  0  0  0
   16.6580   37.4550   -9.8440 C   0  0  0  0  0  0
   17.9400   35.4420   -9.6740 C   0  0  0  0  0  0
   16.0240   36.9610  -10.9870 C   0  0  0  0  0  0
   17.2620   34.8980  -10.7710 C   0  0  0  0  0  0
   16.3330   35.6840  -11.4570 C   0  0  0  0  0  0
   18.5670   40.4300   -7.1130 N   0  0  0  0  0  0
   18.5950   41.3610   -6.0150 C   0  0  2  0  0  0
   17.2140   41.9510   -5.7870 C   0  0  0  0  0  0
   16.6470   42.6620   -6.6280 O   0  0  0  0  0  0
   19.7400   42.4110   -6.1340 C   0  0  0  0  0  0
   20.9510   41.9820   -6.9990 C   0  0  0  0  0  0
   19.1760   43.7720   -6.6410 C   0  0  0  0  0  0
   16.6720   41.6290   -4.6490 N   0  0  0  0  0  0
   15.3360   42.1300   -4.3150 C   0  0  2  0  0  0
   15.2980   43.1470   -3.1870 C   0  0  0  0  0  0
   14.3290   40.9740   -4.1110 C   0  0  0  0  0  0
   14.4500   39.9570   -5.2330 C   0  0  0  0  0  0
   13.9420   40.2340   -6.5050 C   0  0  0  0  0  0
   15.0570   38.7200   -5.0170 C   0  0  0  0  0  0
   14.0390   39.3190   -7.5560 C   0  0  0  0  0  0
   15.1650   37.7870   -6.0510 C   0  0  0  0  0  0
   14.6580   38.0880   -7.3180 C   0  0  0  0  0  0
   15.7810   44.4310   -3.8490 N   0  3  0  0  0  0
   14.9490   45.5650   -3.5350 C   0  0  2  0  0  0
   13.4950   45.3940   -3.9830 C   0  0  0  0  0  0
   13.1630   44.7690   -4.9920 O   0  0  0  0  0  0
   15.5430   46.9070   -4.0240 C   0  0  0  0  0  0
   14.6120   48.1030   -3.8360 C   0  0  0  0  0  0
   14.6570   48.6320   -2.3970 C   0  0  0  0  0  0
   14.9370   49.2340   -4.8190 C   0  0  0  0  0  0
   12.6310   46.0310   -3.2390 N   0  0  0  0  0  0
   11.2460   45.9500   -3.5270 C   0  0  2  0  0  0
   10.5330   46.9540   -2.6390 C   0  0  0  0  0  0
   10.1140   46.6890   -1.4820 O   0  0  0  0  0  0
   10.8960   44.4670   -3.3510 C   0  0  0  0  0  0
    9.5480   44.0930   -3.9360 C   0  0  0  0  0  0
    8.5370   44.1130   -2.8450 C   0  0  0  0  0  0
    8.1600   45.3370   -2.4970 O   0  5  0  0  0  0
    8.2560   43.0940   -2.2560 O   0  0  0  0  0  0
   10.4960   48.1750   -3.1880 N   0  0  0  0  0  0
   10.0050   49.3710   -2.5930 C   0  0  2  0  0  0
    8.4770   49.4480   -2.5970 C   0  0  0  0  0  0
    7.8610   49.9220   -3.6090 O   0  0  0  0  0  0
   10.7270   50.5670   -3.1810 C   0  0  2  0  0  0
   10.2860   51.8840   -2.5800 C   0  0  0  0  0  0
   10.6050   50.5950   -4.7130 C   0  0  0  0  0  0
    9.9380   52.9200   -3.6440 C   0  0  0  0  0  0
    7.8140   48.9570   -1.5530 N   0  0  0  0  0  0
   20.2960   37.6126   -9.9199 H   0  0  0  0  0  0
   21.1400   37.7032   -8.3369 H   0  0  0  0  0  0
   20.9275   39.1865   -9.3275 H   0  0  0  0  0  0
   18.6770   39.0703   -9.1477 H   0  0  0  0  0  0
   19.0277   36.4486   -7.6295 H   0  0  0  0  0  0
   17.6208   37.4891   -7.2239 H   0  0  0  0  0  0
   16.3960   38.4449   -9.4705 H   0  0  0  0  0  0
   18.7358   34.8664   -9.2013 H   0  0  0  0  0  0
   15.2891   37.5723  -11.5108 H   0  0  0  0  0  0
   17.4566   33.8729  -11.0864 H   0  0  0  0  0  0
   15.8510   35.3010  -12.3565 H   0  0  0  0  0  0
   17.9039   40.6119   -7.9716 H   0  0  0  0  0  0
   18.8282   40.7347   -5.1413 H   0  0  0  0  0  0
   20.1447   42.5069   -5.1157 H   0  0  0  0  0  0
   21.3410   41.0209   -6.6328 H   0  0  0  0  0  0
   21.7387   42.7469   -6.9320 H   0  0  0  0  0  0
   20.6333   41.8736   -8.0465 H   0  0  0  0  0  0
   18.3171   44.0670   -6.0203 H   0  0  0  0  0  0
   18.8536   43.6683   -7.6876 H   0  0  0  0  0  0
   19.9591   44.5415   -6.5731 H   0  0  0  0  0  0
   17.2110   40.9843   -3.9391 H   0  0  0  0  0  0
   15.0738   42.7067   -5.2143 H   0  0  0  0  0  0
   14.2697   43.2337   -2.8060 H   0  0  0  0  0  0
   15.9634   42.8189   -2.3749 H   0  0  0  0  0  0
   14.5338   40.4742   -3.1528 H   0  0  0  0  0  0
   13.3053   41.3765   -4.1031 H   0  0  0  0  0  0
   13.4553   41.1931   -6.6824 H   0  0  0  0  0  0
   15.4516   38.4785   -4.0301 H   0  0  0  0  0  0
   13.6403   39.5597   -8.5415 H   0  0  0  0  0  0
   15.6443   36.8250   -5.8697 H   0  0  0  0  0  0
   14.7455   37.3598   -8.1244 H   0  0  0  0  0  0
   16.8021   44.6575   -3.5084 H   0  0  0  0  0  0
   15.7788   44.3035   -4.9416 H   0  0  0  0  0  0
   14.9736   45.5325   -2.4358 H   0  0  0  0  0  0
   16.4666   47.1237   -3.4672 H   0  0  0  0  0  0
   15.7700   46.8378   -5.0981 H   0  0  0  0  0  0
   13.5949   47.7402   -4.0455 H   0  0  0  0  0  0
   14.4229   47.8151   -1.6986 H   0  0  0  0  0  0
   13.9178   49.4381   -2.2794 H   0  0  0  0  0  0
   15.6625   49.0222   -2.1811 H   0  0  0  0  0  0
   14.9027   48.8466   -5.8480 H   0  0  0  0  0  0
   15.9431   49.6254   -4.6079 H   0  0  0  0  0  0
   14.1984   50.0413   -4.7063 H   0  0  0  0  0  0
   12.9813   46.6317   -2.3867 H   0  0  0  0  0  0
   11.0010   46.2528   -4.5557 H   0  0  0  0  0  0
   11.6562   43.8490   -3.8513 H   0  0  0  0  0  0
   10.8707   44.2209   -2.2792 H   0  0  0  0  0  0
    9.2727   44.8184   -4.7158 H   0  0  0  0  0  0
    9.6056   43.0863   -4.3756 H   0  0  0  0  0  0
   10.9020   48.1957   -4.2101 H   0  0  0  0  0  0
   10.2866   49.3022   -1.5319 H   0  0  0  0  0  0
   11.7832   50.4445   -2.8991 H   0  0  0  0  0  0
    9.3933   51.7225   -1.9579 H   0  0  0  0  0  0
   11.0965   52.2934   -1.9591 H   0  0  0  0  0  0
   10.9309   49.6283   -5.1245 H   0  0  0  0  0  0
   11.2393   51.3979   -5.1167 H   0  0  0  0  0  0
    9.5575   50.7788   -4.9941 H   0  0  0  0  0  0
    9.6249   53.8551   -3.1567 H   0  0  0  0  0  0
    9.1175   52.5405   -4.2707 H   0  0  0  0  0  0
   10.8207   53.1114   -4.2719 H   0  0  0  0  0  0
    8.3659   48.5534   -0.6913 H   0  0  0  0  0  0
    6.7140   48.9547   -1.5517 H   0  0  0  0  0  0
  1  2  1  0  0  0
  1 55  1  0  0  0
  1 56  1  0  0  0
  1 57  1  0  0  0
  2  5  1  0  0  0
  2  3  1  0  0  0
  2 58  1  0  0  0
  3  4  2  0  0  0
  3 12  1  0  0  0
  5  6  1  0  0  0
  5 59  1  0  0  0
  5 60  1  0  0  0
  6  7  2  0  0  0
  6  8  1  0  0  0
  7  9  1  0  0  0
  7 61  1  0  0  0
  8 10  2  0  0  0
  8 62  1  0  0  0
  9 11  2  0  0  0
  9 63  1  0  0  0
 10 11  1  0  0  0
 10 64  1  0  0  0
 11 65  1  0  0  0
 12 13  1  0  0  0
 12 66  1  0  0  0
 13 16  1  0  0  0
 13 14  1  0  0  0
 13 67  1  0  0  0
 14 15  2  0  0  0
 14 19  1  0  0  0
 16 18  1  0  0  0
 16 17  1  0  0  0
 16 68  1  0  0  0
 17 69  1  0  0  0
 17 70  1  0  0  0
 17 71  1  0  0  0
 18 72  1  0  0  0
 18 73  1  0  0  0
 18 74  1  0  0  0
 19 20  1  0  0  0
 19 75  1  0  0  0
 20 22  1  0  0  0
 20 21  1  0  0  0
 20 76  1  0  0  0
 21 29  1  0  0  0
 21 77  1  0  0  0
 21 78  1  0  0  0
 22 23  1  0  0  0
 22 79  1  0  0  0
 22 80  1  0  0  0
 23 24  2  0  0  0
 23 25  1  0  0  0
 24 26  1  0  0  0
 24 81  1  0  0  0
 25 27  2  0  0  0
 25 82  1  0  0  0
 26 28  2  0  0  0
 26 83  1  0  0  0
 27 28  1  0  0  0
 27 84  1  0  0  0
 28 85  1  0  0  0
 29 30  1  0  0  0
 29 86  1  0  0  0
 29 87  1  0  0  0
 30 33  1  0  0  0
 30 31  1  0  0  0
 30 88  1  0  0  0
 31 32  2  0  0  0
 31 37  1  0  0  0
 33 34  1  0  0  0
 33 89  1  0  0  0
 33 90  1  0  0  0
 34 35  1  0  0  0
 34 36  1  0  0  0
 34 91  1  0  0  0
 35 92  1  0  0  0
 35 93  1  0  0  0
 35 94  1  0  0  0
 36 95  1  0  0  0
 36 96  1  0  0  0
 36 97  1  0  0  0
 37 38  1  0  0  0
 37 98  1  0  0  0
 38 41  1  0  0  0
 38 39  1  0  0  0
 38 99  1  0  0  0
 39 40  2  0  0  0
 39 46  1  0  0  0
 41 42  1  0  0  0
 41100  1  0  0  0
 41101  1  0  0  0
 42 43  1  0  0  0
 42102  1  0  0  0
 42103  1  0  0  0
 43 45  2  0  0  0
 43 44  1  0  0  0
 46 47  1  0  0  0
 46104  1  0  0  0
 47 50  1  0  0  0
 47 48  1  0  0  0
 47105  1  0  0  0
 48 49  2  0  0  0
 48 54  1  0  0  0
 50 52  1  0  0  0
 50 51  1  0  0  0
 50106  1  0  0  0
 51 53  1  0  0  0
 51107  1  0  0  0
 51108  1  0  0  0
 52109  1  0  0  0
 52110  1  0  0  0
 52111  1  0  0  0
 53112  1  0  0  0
 53113  1  0  0  0
 53114  1  0  0  0
 54115  1  0  0  0
 54116  1  0  0  0
M  CHG  3   1   1  29   1  44  -1
M  END
> <s_m_source_file>
../2mip_ligand.sdf

> <i_m_source_file_index>
1

> <s_epik_input>
W2NIXTFbY0hdW2NIXVtjSF1bY0hdYzFbQ0gyXVtDQEhdKFtOSDMrXSlDKD1PKVtOSF1bQ0BASF0oW0NIXShbQ0gzXSlbQ0gzXSlDKD1PKVtOSF1bQ0BASF0oW0NIMl1jMltjSF1bY0hdW2NIXVtjSF1bY0hdMilbQ0gyXVtOSDIrXVtDQEBIXShbQ0gyXVtDSF0oW0NIM10pW0NIM10pQyg9TylbTkhdW0NAQEhdKFtDSDJdW0NIMl1DKD1PKVtPSF0pQyg9TylbTkhdW0NASF0oQyg9TylbTkgyXSlbQ0BASF0oW0NIM10pW0NIMl1bQ0gzXQ==

> <s_epik_cmdline>
J2VwaWtfYXBwJywgJy1pbWFlJywgJ2xpZ2FuZF9wcm8ubWFlJywgJy1vbWFlJywgJ2xpZ2FuZF9wcmVwLm1hZScsICctbXMnLCAnMScsICctcGgnLCAnNycsICctcGh0JywgJzAuNScsICctbnQn

> <r_lp_tautomer_probability>
1

> <r_epik_Ionization_Penalty>
  0.3956

> <r_epik_Ionization_Penalty_Charging>
  0.3956

> <r_epik_Ionization_Penalty_Neutral>
  0.0000

> <r_epik_State_Penalty>
 -0.0000

> <r_epik_Charging_Adjusted_Penalty>
0.395569298111054

> <i_epik_Tot_Q>
1

> <i_epik_Tot_abs_Q>
3

$$$$
