2mji_ligand
                    3D
 Schrodinger Suite 2020-3.
 31 33  0  0  1  0            999 V2000
    1.2820    3.8590   -3.2450 O   0  0  0  0  0  0
   -1.0310    0.1660   -4.1390 C   0  0  0  0  0  0
    0.0010    0.5080   -3.3750 C   0  0  0  0  0  0
    1.9780   -0.2170   -2.4140 C   0  0  0  0  0  0
    0.7790   -0.5840   -3.2090 N   0  0  0  0  0  0
    1.6060    1.0060   -1.6670 C   0  0  0  0  0  0
    0.6280    1.6670   -2.6070 C   0  0  1  0  0  0
    1.3220    2.6490   -3.5540 C   0  0  0  0  0  0
    1.5250   -3.4770   -5.1820 C   0  0  0  0  0  0
    2.3040   -2.5700   -5.8940 C   0  0  0  0  0  0
    3.0040   -2.9720   -7.0240 C   0  0  0  0  0  0
    2.9280   -4.2920   -7.4520 C   0  0  0  0  0  0
    2.1530   -5.2060   -6.7490 C   0  0  0  0  0  0
    1.4560   -4.7970   -5.6190 C   0  0  0  0  0  0
    0.5710   -3.8120   -3.0060 O   0  0  0  0  0  0
    0.7550   -3.0300   -3.9390 C   0  0  0  0  0  0
    0.2130   -1.6020   -3.8670 C   0  0  0  0  0  0
   -0.8980   -1.1650   -4.4470 C   0  0  0  0  0  0
    1.8750    2.1660   -4.5660 O   0  5  0  0  0  0
   -1.8376    0.8237   -4.4627 H   0  0  0  0  0  0
    2.2312   -1.0410   -1.7307 H   0  0  0  0  0  0
    2.8240   -0.0295   -3.0916 H   0  0  0  0  0  0
    1.1538    0.7245   -0.7046 H   0  0  0  0  0  0
    2.5054    1.6129   -1.4860 H   0  0  0  0  0  0
   -0.1148    2.2627   -2.0561 H   0  0  0  0  0  0
    2.3654   -1.5338   -5.5615 H   0  0  0  0  0  0
    3.6118   -2.2537   -7.5741 H   0  0  0  0  0  0
    3.4762   -4.6101   -8.3388 H   0  0  0  0  0  0
    2.0920   -6.2417   -7.0833 H   0  0  0  0  0  0
    0.8493   -5.5165   -5.0692 H   0  0  0  0  0  0
   -1.5810   -1.7559   -5.0573 H   0  0  0  0  0  0
  1  8  2  0  0  0
  2  3  2  0  0  0
  2 18  1  0  0  0
  2 20  1  0  0  0
  3  5  1  0  0  0
  3  7  1  0  0  0
  4  5  1  0  0  0
  4  6  1  0  0  0
  4 21  1  0  0  0
  4 22  1  0  0  0
  5 17  1  0  0  0
  6  7  1  0  0  0
  6 23  1  0  0  0
  6 24  1  0  0  0
  7  8  1  0  0  0
  7 25  1  0  0  0
  8 19  1  0  0  0
  9 10  2  0  0  0
  9 14  1  0  0  0
  9 16  1  0  0  0
 10 11  1  0  0  0
 10 26  1  0  0  0
 11 12  2  0  0  0
 11 27  1  0  0  0
 12 13  1  0  0  0
 12 28  1  0  0  0
 13 14  2  0  0  0
 13 29  1  0  0  0
 14 30  1  0  0  0
 15 16  2  0  0  0
 16 17  1  0  0  0
 17 18  2  0  0  0
 18 31  1  0  0  0
M  CHG  1  19  -1
M  END
> <s_m_source_file>
../2mji_ligand.sdf

> <i_m_source_file_index>
1

> <s_epik_input>
Tz1DKFtPSF0pW0NAQEhdMVtDSDJdW0NIMl1uKGMxMiljKFtjSF1bY0hdMilDKD1PKWMzW2NIXVtjSF1bY0hdW2NIXVtjSF0z

> <s_epik_cmdline>
J2VwaWtfYXBwJywgJy1pbWFlJywgJ2xpZ2FuZF9wcm8ubWFlJywgJy1vbWFlJywgJ2xpZ2FuZF9wcmVwLm1hZScsICctbXMnLCAnMScsICctcGgnLCAnNycsICctcGh0JywgJzAuNScsICctbnQn

> <r_lp_tautomer_probability>
1

> <r_epik_Ionization_Penalty>
  0.0004

> <r_epik_Ionization_Penalty_Charging>
  0.0004

> <r_epik_Ionization_Penalty_Neutral>
  0.0000

> <r_epik_State_Penalty>
 -0.0000

> <r_epik_Charging_Adjusted_Penalty>
0.000439604820424986

> <i_epik_Tot_Q>
-1

> <i_epik_Tot_abs_Q>
1

$$$$
