2mkr_ligand
                    3D
 Schrodinger Suite 2020-3.
216219  0  0  1  0            999 V2000
  -17.0870  -14.4850   -1.6940 N   0  3  0  0  0  0
  -15.9800  -14.4790   -2.6430 C   0  0  2  0  0  0
  -15.6500  -13.0570   -3.0850 C   0  0  0  0  0  0
  -16.0600  -12.6200   -4.1600 O   0  0  0  0  0  0
  -16.3220  -15.3380   -3.8620 C   0  0  0  0  0  0
  -15.8940  -16.7820   -3.6900 C   0  0  0  0  0  0
  -14.7710  -17.0140   -3.1960 O   0  0  0  0  0  0
  -16.6830  -17.6820   -4.0480 O   0  0  0  0  0  0
  -14.9060  -12.3410   -2.2490 N   0  0  0  0  0  0
  -14.5200  -10.9670   -2.5540 C   0  0  2  0  0  0
  -13.0280  -10.7420   -2.3100 C   0  0  0  0  0  0
  -12.5580   -9.6040   -2.3070 O   0  0  0  0  0  0
  -15.3380   -9.9890   -1.7090 C   0  0  0  0  0  0
  -16.8540  -10.1620   -1.8040 C   0  0  0  0  0  0
  -17.5430   -9.4890   -0.6270 C   0  0  0  0  0  0
  -17.3720   -9.6010   -3.1200 C   0  0  0  0  0  0
  -12.2860  -11.8280   -2.1070 N   0  0  0  0  0  0
  -10.8510  -11.7370   -1.8640 C   0  0  2  0  0  0
  -10.1050  -11.3620   -3.1410 C   0  0  0  0  0  0
   -9.3470  -10.3920   -3.1670 O   0  0  0  0  0  0
  -10.3190  -13.0640   -1.3210 C   0  0  0  0  0  0
  -10.7330  -13.3070    0.1170 C   0  0  0  0  0  0
  -11.9090  -13.6590    0.3450 O   0  0  0  0  0  0
   -9.8800  -13.1460    1.0160 O   0  0  0  0  0  0
  -10.3250  -12.1370   -4.1980 N   0  0  0  0  0  0
   -9.6740  -11.8860   -5.4790 C   0  0  2  0  0  0
  -10.0300  -10.5010   -6.0090 C   0  0  0  0  0  0
   -9.1770   -9.7910   -6.5420 O   0  0  0  0  0  0
  -10.0760  -12.9540   -6.4970 C   0  0  0  0  0  0
  -11.5800  -13.1270   -6.6360 C   0  0  0  0  0  0
  -12.1340  -12.4360   -7.8670 C   0  0  0  0  0  0
  -11.6910  -11.3070   -8.1650 O   0  0  0  0  0  0
  -13.0110  -13.0250   -8.5340 O   0  0  0  0  0  0
  -11.2950  -10.1230   -5.8590 N   0  0  0  0  0  0
  -11.7650   -8.8230   -6.3220 C   0  0  2  0  0  0
  -11.0180   -7.6920   -5.6220 C   0  0  0  0  0  0
  -10.8360   -6.6120   -6.1850 O   0  0  0  0  0  0
  -13.2690   -8.6840   -6.0780 C   0  0  0  0  0  0
  -13.8970   -7.9900   -7.1430 O   0  0  0  0  0  0
  -10.5870   -7.9470   -4.3910 N   0  0  0  0  0  0
   -9.8590   -6.9500   -3.6130 C   0  0  2  0  0  0
   -8.5920   -6.5070   -4.3380 C   0  0  0  0  0  0
   -8.1310   -5.3780   -4.1700 O   0  0  0  0  0  0
   -9.5040   -7.5090   -2.2330 C   0  0  0  0  0  0
   -9.7310   -6.5330   -1.1200 C   0  0  0  0  0  0
   -8.8820   -6.2540   -0.0880 C   0  0  0  0  0  0
  -10.8840   -5.7060   -0.9260 C   0  0  0  0  0  0
   -9.4360   -5.3040    0.7350 N   0  0  0  0  0  0
  -10.6650   -4.9520    0.2420 C   0  0  0  0  0  0
  -12.0810   -5.5290   -1.6270 C   0  0  0  0  0  0
  -11.5980   -4.0370    0.7240 C   0  0  0  0  0  0
  -13.0060   -4.6210   -1.1480 C   0  0  0  0  0  0
  -12.7600   -3.8840    0.0170 C   0  0  0  0  0  0
   -8.0320   -7.4040   -5.1450 N   0  0  0  0  0  0
   -6.8180   -7.1030   -5.8940 C   0  0  2  0  0  0
   -7.1310   -6.2560   -7.1230 C   0  0  0  0  0  0
   -6.3090   -5.4510   -7.5610 O   0  0  0  0  0  0
   -6.1210   -8.3980   -6.3170 C   0  0  0  0  0  0
   -4.6950   -8.1640   -6.7740 C   0  0  0  0  0  0
   -3.9730   -7.3990   -6.1000 O   0  0  0  0  0  0
   -4.2990   -8.7460   -7.8060 O   0  0  0  0  0  0
   -8.3250   -6.4430   -7.6770 N   0  0  0  0  0  0
   -8.7460   -5.6950   -8.8560 C   0  0  2  0  0  0
   -9.0260   -4.2370   -8.5060 C   0  0  0  0  0  0
   -8.6450   -3.3280   -9.2430 O   0  0  0  0  0  0
   -9.9930   -6.3330   -9.4710 C   0  0  0  0  0  0
   -9.6850   -7.3560  -10.5420 C   0  0  0  0  0  0
   -9.4900   -6.9700  -11.8620 C   0  0  0  0  0  0
   -9.5890   -8.7060  -10.2320 C   0  0  0  0  0  0
   -9.2080   -7.9010  -12.8430 C   0  0  0  0  0  0
   -9.3070   -9.6440  -11.2070 C   0  0  0  0  0  0
   -9.1180   -9.2360  -12.5110 C   0  0  0  0  0  0
   -8.8370  -10.1660  -13.4850 O   0  0  0  0  0  0
   -9.6950   -4.0220   -7.3780 N   0  0  0  0  0  0
  -10.0260   -2.6740   -6.9300 C   0  0  2  0  0  0
   -8.7670   -1.8310   -6.7390 C   0  0  0  0  0  0
   -8.8040   -0.6070   -6.8640 O   0  0  0  0  0  0
  -10.8250   -2.7010   -5.6110 C   0  0  2  0  0  0
  -11.2200   -1.2830   -5.1930 C   0  0  0  0  0  0
  -10.0180   -3.3790   -4.5130 C   0  0  0  0  0  0
  -12.0310   -1.2320   -3.9170 C   0  0  0  0  0  0
   -7.6550   -2.4930   -6.4360 N   0  0  0  0  0  0
   -6.3880   -1.8010   -6.2280 C   0  0  2  0  0  0
   -5.4960   -1.9150   -7.4600 C   0  0  0  0  0  0
   -4.7100   -1.0140   -7.7540 O   0  0  0  0  0  0
   -5.6660   -2.3730   -5.0060 C   0  0  0  0  0  0
   -6.3830   -2.1140   -3.7120 C   0  0  0  0  0  0
   -6.6890   -0.8200   -3.3220 C   0  0  0  0  0  0
   -6.7510   -3.1640   -2.8860 C   0  0  0  0  0  0
   -7.3500   -0.5780   -2.1320 C   0  0  0  0  0  0
   -7.4110   -2.9280   -1.6960 C   0  0  0  0  0  0
   -7.7110   -1.6340   -1.3180 C   0  0  0  0  0  0
   -5.6240   -3.0260   -8.1770 N   0  0  0  0  0  0
   -4.8290   -3.2560   -9.3780 C   0  0  2  0  0  0
   -5.1330   -2.2050  -10.4410 C   0  0  0  0  0  0
   -4.2460   -1.4670  -10.8700 O   0  0  0  0  0  0
   -5.1000   -4.6540   -9.9350 C   0  0  0  0  0  0
   -4.2100   -5.7310   -9.3360 C   0  0  0  0  0  0
   -2.9600   -5.9770  -10.1580 C   0  0  0  0  0  0
   -2.3840   -4.9950  -10.6720 O   0  0  0  0  0  0
   -2.5560   -7.1520  -10.2880 O   0  0  0  0  0  0
   -6.3920   -2.1430  -10.8620 N   0  0  0  0  0  0
   -6.8130   -1.1820  -11.8740 C   0  0  2  0  0  0
   -7.4920    0.0230  -11.2320 C   0  0  0  0  0  0
   -7.5530    0.1340  -10.0070 O   0  0  0  0  0  0
   -7.7630   -1.8450  -12.8730 C   0  0  2  0  0  0
   -8.9720   -2.2240  -12.2390 O   0  0  0  0  0  0
   -7.1800   -3.0790  -13.5250 C   0  0  0  0  0  0
   -8.0020    0.9240  -12.0660 N   0  0  0  0  0  0
   -8.6770    2.1210  -11.5790 C   0  0  2  0  0  0
   -9.7290    2.5960  -12.5770 C   0  0  0  0  0  0
  -10.9210    2.6240  -12.2710 O   0  0  0  0  0  0
   -7.6620    3.2350  -11.3210 C   0  0  2  0  0  0
   -6.7330    3.3240  -12.3870 O   0  0  0  0  0  0
   -6.8760    3.0440  -10.0420 C   0  0  0  0  0  0
   -9.3732    2.9641  -13.7283 O   0  0  0  0  0  0
  -16.8273  -13.8642   -0.8238 H   0  0  0  0  0  0
  -17.2813  -15.5161   -1.3639 H   0  0  0  0  0  0
  -17.9874  -14.0792   -2.1784 H   0  0  0  0  0  0
  -15.1243  -14.9049   -2.0986 H   0  0  0  0  0  0
  -17.4094  -15.3235   -4.0273 H   0  0  0  0  0  0
  -15.8109  -14.9357   -4.7491 H   0  0  0  0  0  0
  -16.3995  -18.7388   -3.9352 H   0  0  0  0  0  0
  -14.5801  -12.8078   -1.3078 H   0  0  0  0  0  0
  -14.7410  -10.8358   -3.6236 H   0  0  0  0  0  0
  -15.0735  -10.1109   -0.6482 H   0  0  0  0  0  0
  -15.1187   -8.9586   -2.0255 H   0  0  0  0  0  0
  -17.0898  -11.2359   -1.7704 H   0  0  0  0  0  0
  -17.1552   -9.9079    0.3133 H   0  0  0  0  0  0
  -18.6272   -9.6650   -0.6872 H   0  0  0  0  0  0
  -17.3450   -8.4074   -0.6558 H   0  0  0  0  0  0
  -16.8621  -10.0999   -3.9573 H   0  0  0  0  0  0
  -17.1731   -8.5199   -3.1613 H   0  0  0  0  0  0
  -18.4553   -9.7776   -3.1928 H   0  0  0  0  0  0
  -12.7794  -12.8109   -2.1256 H   0  0  0  0  0  0
  -10.7309  -10.9390   -1.1165 H   0  0  0  0  0  0
  -10.7082  -13.8923   -1.9313 H   0  0  0  0  0  0
   -9.2198  -13.0629   -1.3626 H   0  0  0  0  0  0
  -10.1516  -13.3150    2.0685 H   0  0  0  0  0  0
  -11.0174  -12.9849   -4.0897 H   0  0  0  0  0  0
   -8.5944  -11.9366   -5.2744 H   0  0  0  0  0  0
   -9.6838  -12.6820   -7.4880 H   0  0  0  0  0  0
   -9.6605  -13.9259   -6.1923 H   0  0  0  0  0  0
  -11.8204  -14.1977   -6.7123 H   0  0  0  0  0  0
  -12.0812  -12.7006   -5.7545 H   0  0  0  0  0  0
  -13.4316  -12.5486   -9.4319 H   0  0  0  0  0  0
  -11.9937  -10.8188   -5.3715 H   0  0  0  0  0  0
  -11.5452   -8.8000   -7.3996 H   0  0  0  0  0  0
  -13.7208   -9.6835   -5.9946 H   0  0  0  0  0  0
  -13.4392   -8.1257   -5.1456 H   0  0  0  0  0  0
  -14.9815   -7.8080   -7.1171 H   0  0  0  0  0  0
  -10.7913   -8.9385   -3.9607 H   0  0  0  0  0  0
  -10.5453   -6.0956   -3.5186 H   0  0  0  0  0  0
  -10.1218   -8.3953   -2.0264 H   0  0  0  0  0  0
   -8.4408   -7.7906   -2.2139 H   0  0  0  0  0  0
   -7.9068   -6.7175    0.0611 H   0  0  0  0  0  0
  -12.2809   -6.0973   -2.5354 H   0  0  0  0  0  0
  -11.4096   -3.4634    1.6315 H   0  0  0  0  0  0
  -13.9428   -4.4760   -1.6860 H   0  0  0  0  0  0
  -13.5090   -3.1741    0.3679 H   0  0  0  0  0  0
   -8.5063   -8.3919   -5.2402 H   0  0  0  0  0  0
   -6.1827   -6.5297   -5.2028 H   0  0  0  0  0  0
   -6.0950   -9.0951   -5.4665 H   0  0  0  0  0  0
   -6.6737   -8.8566   -7.1502 H   0  0  0  0  0  0
   -2.9339   -7.2104   -6.4077 H   0  0  0  0  0  0
   -9.0015   -7.1830   -7.2246 H   0  0  0  0  0  0
   -7.8991   -5.7501   -9.5558 H   0  0  0  0  0  0
  -10.5690   -6.8437   -8.6853 H   0  0  0  0  0  0
  -10.6149   -5.5518   -9.9325 H   0  0  0  0  0  0
   -9.5606   -5.9154  -12.1282 H   0  0  0  0  0  0
   -9.7385   -9.0314   -9.2025 H   0  0  0  0  0  0
   -9.0574   -7.5816  -13.8742 H   0  0  0  0  0  0
   -9.2344  -10.7001  -10.9470 H   0  0  0  0  0  0
   -8.6858   -9.8438  -14.5258 H   0  0  0  0  0  0
  -10.0002   -4.8916   -6.7775 H   0  0  0  0  0  0
  -10.6357   -2.2639   -7.7486 H   0  0  0  0  0  0
  -11.7456   -3.2841   -5.7608 H   0  0  0  0  0  0
  -10.3128   -0.6827   -5.0299 H   0  0  0  0  0  0
  -11.8267   -0.8224   -5.9866 H   0  0  0  0  0  0
   -9.7447   -4.3953   -4.8332 H   0  0  0  0  0  0
  -10.6215   -3.4336   -3.5949 H   0  0  0  0  0  0
   -9.1046   -2.7981   -4.3174 H   0  0  0  0  0  0
  -12.2770   -0.1863   -3.6805 H   0  0  0  0  0  0
  -11.4459   -1.6665   -3.0931 H   0  0  0  0  0  0
  -12.9598   -1.8062   -4.0497 H   0  0  0  0  0  0
   -7.7054   -3.5879   -6.3430 H   0  0  0  0  0  0
   -6.6535   -0.7466   -6.0612 H   0  0  0  0  0  0
   -5.5671   -3.4631   -5.1155 H   0  0  0  0  0  0
   -4.6667   -1.9204   -4.9254 H   0  0  0  0  0  0
   -6.4054    0.0166   -3.9606 H   0  0  0  0  0  0
   -6.5170   -4.1876   -3.1787 H   0  0  0  0  0  0
   -7.5859    0.4444   -1.8367 H   0  0  0  0  0  0
   -7.6950   -3.7628   -1.0553 H   0  0  0  0  0  0
   -8.2317   -1.4463   -0.3790 H   0  0  0  0  0  0
   -6.3508   -3.7821   -7.8454 H   0  0  0  0  0  0
   -3.7806   -3.1665   -9.0574 H   0  0  0  0  0  0
   -6.1425   -4.9361   -9.7264 H   0  0  0  0  0  0
   -4.9304   -4.6549  -11.0218 H   0  0  0  0  0  0
   -3.8963   -5.4277   -8.3263 H   0  0  0  0  0  0
   -4.7679   -6.6772   -9.2778 H   0  0  0  0  0  0
   -1.6518   -7.3605  -10.8788 H   0  0  0  0  0  0
   -7.1236   -2.8401  -10.4274 H   0  0  0  0  0  0
   -5.8880   -0.8612  -12.3755 H   0  0  0  0  0  0
   -8.0169   -1.1004  -13.6419 H   0  0  0  0  0  0
   -9.5677   -1.4742  -11.6977 H   0  0  0  0  0  0
   -6.2372   -2.8174  -14.0277 H   0  0  0  0  0  0
   -7.8923   -3.4743  -14.2642 H   0  0  0  0  0  0
   -6.9866   -3.8427  -12.7573 H   0  0  0  0  0  0
   -7.9049    0.7489  -13.1476 H   0  0  0  0  0  0
   -9.1652    1.8210  -10.6400 H   0  0  0  0  0  0
   -8.2105    4.1878  -11.2857 H   0  0  0  0  0  0
   -7.0904    3.4657  -13.4176 H   0  0  0  0  0  0
   -7.5706    2.9710   -9.1922 H   0  0  0  0  0  0
   -6.2036    3.9017   -9.8933 H   0  0  0  0  0  0
   -6.2825    2.1204  -10.1108 H   0  0  0  0  0  0
  -10.1260    3.3077  -14.4530 H   0  0  0  0  0  0
  1  2  1  0  0  0
  1117  1  0  0  0
  1118  1  0  0  0
  1119  1  0  0  0
  2  3  1  0  0  0
  2  5  1  0  0  0
  2120  1  0  0  0
  3  4  2  0  0  0
  3  9  1  0  0  0
  5  6  1  0  0  0
  5121  1  0  0  0
  5122  1  0  0  0
  6  7  2  0  0  0
  6  8  1  0  0  0
  8123  1  0  0  0
  9 10  1  0  0  0
  9124  1  0  0  0
 10 11  1  0  0  0
 10 13  1  0  0  0
 10125  1  0  0  0
 11 12  2  0  0  0
 11 17  1  0  0  0
 13 14  1  0  0  0
 13126  1  0  0  0
 13127  1  0  0  0
 14 15  1  0  0  0
 14 16  1  0  0  0
 14128  1  0  0  0
 15129  1  0  0  0
 15130  1  0  0  0
 15131  1  0  0  0
 16132  1  0  0  0
 16133  1  0  0  0
 16134  1  0  0  0
 17 18  1  0  0  0
 17135  1  0  0  0
 18 19  1  0  0  0
 18 21  1  0  0  0
 18136  1  0  0  0
 19 20  2  0  0  0
 19 25  1  0  0  0
 21 22  1  0  0  0
 21137  1  0  0  0
 21138  1  0  0  0
 22 23  2  0  0  0
 22 24  1  0  0  0
 24139  1  0  0  0
 25 26  1  0  0  0
 25140  1  0  0  0
 26 27  1  0  0  0
 26 29  1  0  0  0
 26141  1  0  0  0
 27 28  2  0  0  0
 27 34  1  0  0  0
 29 30  1  0  0  0
 29142  1  0  0  0
 29143  1  0  0  0
 30 31  1  0  0  0
 30144  1  0  0  0
 30145  1  0  0  0
 31 32  2  0  0  0
 31 33  1  0  0  0
 33146  1  0  0  0
 34 35  1  0  0  0
 34147  1  0  0  0
 35 36  1  0  0  0
 35 38  1  0  0  0
 35148  1  0  0  0
 36 37  2  0  0  0
 36 40  1  0  0  0
 38 39  1  0  0  0
 38149  1  0  0  0
 38150  1  0  0  0
 39151  1  0  0  0
 40 41  1  0  0  0
 40152  1  0  0  0
 41 42  1  0  0  0
 41 44  1  0  0  0
 41153  1  0  0  0
 42 43  2  0  0  0
 42 54  1  0  0  0
 44 45  1  0  0  0
 44154  1  0  0  0
 44155  1  0  0  0
 45 46  2  0  0  0
 45 47  1  0  0  0
 46 48  1  0  0  0
 46156  1  0  0  0
 47 49  2  0  0  0
 47 50  1  0  0  0
 48 49  1  0  0  0
 49 51  1  0  0  0
 50 52  2  0  0  0
 50157  1  0  0  0
 51 53  2  0  0  0
 51158  1  0  0  0
 52 53  1  0  0  0
 52159  1  0  0  0
 53160  1  0  0  0
 54 55  1  0  0  0
 54161  1  0  0  0
 55 56  1  0  0  0
 55 58  1  0  0  0
 55162  1  0  0  0
 56 57  2  0  0  0
 56 62  1  0  0  0
 58 59  1  0  0  0
 58163  1  0  0  0
 58164  1  0  0  0
 59 60  1  0  0  0
 59 61  2  0  0  0
 60165  1  0  0  0
 62 63  1  0  0  0
 62166  1  0  0  0
 63 64  1  0  0  0
 63 66  1  0  0  0
 63167  1  0  0  0
 64 65  2  0  0  0
 64 74  1  0  0  0
 66 67  1  0  0  0
 66168  1  0  0  0
 66169  1  0  0  0
 67 68  2  0  0  0
 67 69  1  0  0  0
 68 70  1  0  0  0
 68170  1  0  0  0
 69 71  2  0  0  0
 69171  1  0  0  0
 70 72  2  0  0  0
 70172  1  0  0  0
 71 72  1  0  0  0
 71173  1  0  0  0
 72 73  1  0  0  0
 73174  1  0  0  0
 74 75  1  0  0  0
 74175  1  0  0  0
 75 76  1  0  0  0
 75 78  1  0  0  0
 75176  1  0  0  0
 76 77  2  0  0  0
 76 82  1  0  0  0
 78 79  1  0  0  0
 78 80  1  0  0  0
 78177  1  0  0  0
 79 81  1  0  0  0
 79178  1  0  0  0
 79179  1  0  0  0
 80180  1  0  0  0
 80181  1  0  0  0
 80182  1  0  0  0
 81183  1  0  0  0
 81184  1  0  0  0
 81185  1  0  0  0
 82 83  1  0  0  0
 82186  1  0  0  0
 83 84  1  0  0  0
 83 86  1  0  0  0
 83187  1  0  0  0
 84 85  2  0  0  0
 84 93  1  0  0  0
 86 87  1  0  0  0
 86188  1  0  0  0
 86189  1  0  0  0
 87 88  2  0  0  0
 87 89  1  0  0  0
 88 90  1  0  0  0
 88190  1  0  0  0
 89 91  2  0  0  0
 89191  1  0  0  0
 90 92  2  0  0  0
 90192  1  0  0  0
 91 92  1  0  0  0
 91193  1  0  0  0
 92194  1  0  0  0
 93 94  1  0  0  0
 93195  1  0  0  0
 94 95  1  0  0  0
 94 97  1  0  0  0
 94196  1  0  0  0
 95 96  2  0  0  0
 95102  1  0  0  0
 97 98  1  0  0  0
 97197  1  0  0  0
 97198  1  0  0  0
 98 99  1  0  0  0
 98199  1  0  0  0
 98200  1  0  0  0
 99100  2  0  0  0
 99101  1  0  0  0
101201  1  0  0  0
102103  1  0  0  0
102202  1  0  0  0
103104  1  0  0  0
103106  1  0  0  0
103203  1  0  0  0
104105  2  0  0  0
104109  1  0  0  0
106107  1  0  0  0
106108  1  0  0  0
106204  1  0  0  0
107205  1  0  0  0
108206  1  0  0  0
108207  1  0  0  0
108208  1  0  0  0
109110  1  0  0  0
109209  1  0  0  0
110111  1  0  0  0
110113  1  0  0  0
110210  1  0  0  0
111112  2  0  0  0
111116  1  0  0  0
113114  1  0  0  0
113115  1  0  0  0
113211  1  0  0  0
114212  1  0  0  0
115213  1  0  0  0
115214  1  0  0  0
115215  1  0  0  0
116216  1  0  0  0
M  CHG  1   1   1
M  END
> <s_m_source_file>
../2mkr_ligand.sdf

> <i_m_source_file_index>
1

> <s_epik_input>
Tz1DKFtPSF0pW0NIMl1bQ0BIXShbTkgzK10pQyg9TylbTkhdW0NAQEhdKFtDSDJdW0NIXShbQ0gzXSlbQ0gzXSlDKD1PKVtOSF1bQ0BASF0oW0NIMl1DKD1PKVtPSF0pQyg9TylbTkhdW0NAQEhdKFtDSDJdW0NIMl1DKD1PKVtPSF0pQyg9TylbTkhdW0NAQEhdKFtDSDJdW09IXSlDKD1PKVtOSF1bQ0BASF0oW0NIMl1jMVtjSF1bbkhdYyhjMTIpW2NIXVtjSF1bY0hdW2NIXTIpQyg9TylbTkhdW0NAQEhdKFtDSDJdQyg9TylbT0hdKUMoPU8pW05IXVtDQEBIXShbQ0gyXWMzW2NIXVtjSF1jKFtPSF0pW2NIXVtjSF0zKUMoPU8pW05IXVtDQEBIXShbQ0BASF0oW0NIM10pW0NIMl1bQ0gzXSlDKD1PKVtOSF1bQ0BASF0oW0NIMl1jNFtjSF1bY0hdW2NIXVtjSF1bY0hdNClDKD1PKVtOSF1bQ0BASF0oW0NIMl1bQ0gyXUMoPU8pW09IXSlDKD1PKVtOSF1bQ0BASF0oW0NASF0oW09IXSlbQ0gzXSlDKD1PKVtOSF1bQ0BIXShDKD1PKVtPSF0pW0NASF0oW09IXSlbQ0gzXQ==

> <s_epik_cmdline>
J2VwaWtfYXBwJywgJy1pbWFlJywgJ2xpZ2FuZF9wcm8ubWFlJywgJy1vbWFlJywgJ2xpZ2FuZF9wcmVwLm1hZScsICctbXMnLCAnMScsICctcGgnLCAnNycsICctcGh0JywgJzAuNScsICctbnQn

> <s_epik_pKa_notes>
Molecule size exceeds maximum supported for generating protonation states

$$$$
