2mlm_ligand
                    3D
 Schrodinger Suite 2020-3.
 47 50  0  0  1  0            999 V2000
   20.6450   20.2940   13.6910 S   0  5  0  0  0  0
   20.5830   21.2790   12.2400 C   0  0  0  0  0  0
   19.3850   21.8880   11.8520 C   0  0  0  0  0  0
   21.7260   21.4370   11.4520 C   0  0  0  0  0  0
   19.3310   22.6410   10.6850 C   0  0  0  0  0  0
   20.4680   22.7920    9.9010 C   0  0  0  0  0  0
   21.6620   22.1910   10.2830 C   0  0  0  0  0  0
   22.9430   20.8750   11.8370 C   0  0  0  0  0  0
   23.4650   21.1600   12.9210 O   0  0  0  0  0  0
   23.4910   20.0500   10.9320 N   0  0  0  0  0  0
   24.9470   19.9320   10.7660 C   0  0  0  0  0  0
   25.4000   18.4910   11.0090 C   0  0  0  0  0  0
   24.8160   17.7600   11.8090 O   0  0  0  0  0  0
   26.4680   18.1130   10.2920 N   0  0  0  0  0  0
   26.9630   16.7290   10.3470 C   0  0  0  0  0  0
   25.8580   15.7670    9.9510 C   0  0  0  0  0  0
   26.3830   14.3400    9.9900 C   0  0  1  0  0  0
   27.5450   14.1980    9.0180 C   0  0  0  0  0  0
   28.6520   15.1580    9.4220 C   0  0  1  0  0  0
   28.1290   16.5820    9.3870 C   0  0  0  0  0  0
   29.1230   14.8320   10.8300 C   0  0  0  0  0  0
   27.9630   14.9740   11.7990 C   0  0  1  0  0  0
   27.4310   16.3990   11.7590 C   0  0  0  0  0  0
   26.8580   14.0140   11.3990 C   0  0  0  0  0  0
   18.4920   21.7718   12.4661 H   0  0  0  0  0  0
   18.3958   23.1135   10.3846 H   0  0  0  0  0  0
   20.4239   23.3822    8.9857 H   0  0  0  0  0  0
   22.5518   22.3105    9.6649 H   0  0  0  0  0  0
   22.8155   19.4511   10.3035 H   0  0  0  0  0  0
   25.2244   20.2256    9.7428 H   0  0  0  0  0  0
   25.4529   20.5915   11.4865 H   0  0  0  0  0  0
   26.9754   18.8537    9.6565 H   0  0  0  0  0  0
   25.0170   15.8656   10.6531 H   0  0  0  0  0  0
   25.5149   16.0018    8.9326 H   0  0  0  0  0  0
   25.5790   13.6466    9.7022 H   0  0  0  0  0  0
   27.9225   13.1652    9.0462 H   0  0  0  0  0  0
   27.2026   14.4356    8.0000 H   0  0  0  0  0  0
   29.4924   15.0579    8.7194 H   0  0  0  0  0  0
   27.7958   16.8207    8.3662 H   0  0  0  0  0  0
   28.9346   17.2712    9.6803 H   0  0  0  0  0  0
   29.5010   13.7994   10.8603 H   0  0  0  0  0  0
   29.9271   15.5254   11.1174 H   0  0  0  0  0  0
   28.3077   14.7406   12.8172 H   0  0  0  0  0  0
   28.2295   17.0962   12.0529 H   0  0  0  0  0  0
   26.5861   16.4940   12.4569 H   0  0  0  0  0  0
   26.0170   14.1119   12.1013 H   0  0  0  0  0  0
   27.2414   12.9834   11.4275 H   0  0  0  0  0  0
  1  2  1  0  0  0
  2  3  2  0  0  0
  2  4  1  0  0  0
  3  5  1  0  0  0
  3 25  1  0  0  0
  4  7  2  0  0  0
  4  8  1  0  0  0
  5  6  2  0  0  0
  5 26  1  0  0  0
  6  7  1  0  0  0
  6 27  1  0  0  0
  7 28  1  0  0  0
  8  9  2  0  0  0
  8 10  1  0  0  0
 10 11  1  0  0  0
 10 29  1  0  0  0
 11 12  1  0  0  0
 11 30  1  0  0  0
 11 31  1  0  0  0
 12 13  2  0  0  0
 12 14  1  0  0  0
 14 15  1  0  0  0
 14 32  1  0  0  0
 15 16  1  0  0  0
 15 20  1  0  0  0
 15 23  1  0  0  0
 16 17  1  0  0  0
 16 33  1  0  0  0
 16 34  1  0  0  0
 17 18  1  0  0  0
 17 24  1  0  0  0
 17 35  1  0  0  0
 18 19  1  0  0  0
 18 36  1  0  0  0
 18 37  1  0  0  0
 19 20  1  0  0  0
 19 21  1  0  0  0
 19 38  1  0  0  0
 20 39  1  0  0  0
 20 40  1  0  0  0
 21 22  1  0  0  0
 21 41  1  0  0  0
 21 42  1  0  0  0
 22 23  1  0  0  0
 22 24  1  0  0  0
 22 43  1  0  0  0
 23 44  1  0  0  0
 23 45  1  0  0  0
 24 46  1  0  0  0
 24 47  1  0  0  0
M  CHG  1   1  -1
M  END
> <s_m_source_file>
../2mlm_ligand.sdf

> <i_m_source_file_index>
1

> <s_epik_input>
W1NIXWMxW2NIXVtjSF1bY0hdW2NIXWMxQyg9TylbTkhdW0NIMl1DKD1PKVtOSF1DMjNbQ0gyXVtDQEhdNFtDSDJdW0NAQEhdKFtDSDJdMilbQ0gyXVtDQEBIXShbQ0gyXTMpW0NIMl00

> <s_epik_cmdline>
J2VwaWtfYXBwJywgJy1pbWFlJywgJ2xpZ2FuZF9wcm8ubWFlJywgJy1vbWFlJywgJ2xpZ2FuZF9wcmVwLm1hZScsICctbXMnLCAnMScsICctcGgnLCAnNycsICctcGh0JywgJzAuNScsICctbnQn

> <r_epik_Ionization_Penalty>
  0.0237

> <r_epik_Ionization_Penalty_Charging>
  0.0237

> <r_epik_Ionization_Penalty_Neutral>
  0.0000

> <r_epik_State_Penalty>
  0.0192

> <r_epik_Charging_Adjusted_Penalty>
0.042864306288317

> <i_epik_Tot_Q>
-1

> <i_epik_Tot_abs_Q>
1

$$$$
