2mnz_ligand
                    3D
 Schrodinger Suite 2020-3.
170169  0  0  1  0            999 V2000
   -3.6270   -1.8480    7.5470 N   0  3  0  0  0  0
   -2.6820   -1.8110    6.3970 C   0  0  2  0  0  0
   -1.2590   -1.9970    6.9050 C   0  0  0  0  0  0
   -0.9420   -1.6440    8.0230 O   0  0  0  0  0  0
   -2.7830   -0.4620    5.6790 C   0  0  0  0  0  0
   -0.4010   -2.5440    6.0910 N   0  0  0  0  0  0
    1.0080   -2.7470    6.5250 C   0  0  2  0  0  0
    1.9190   -1.8460    5.6870 C   0  0  0  0  0  0
    1.7350   -1.6900    4.4970 O   0  0  0  0  0  0
    1.3700   -4.2200    6.3450 C   0  0  0  0  0  0
    0.5950   -5.0440    7.3740 C   0  0  0  0  0  0
    0.4930   -6.4940    6.9040 C   0  0  0  0  0  0
    1.8460   -7.1160    6.9020 N   0  0  0  0  0  0
    2.0980   -8.1260    6.1130 C   0  0  0  0  0  0
    1.1630   -8.5910    5.3280 N   0  0  0  0  0  0
    3.2830   -8.6710    6.1080 N   0  0  0  0  0  0
    2.8790   -1.2210    6.3140 N   0  0  0  0  0  0
    3.7810   -0.2920    5.5760 C   0  0  2  0  0  0
    4.8300   -1.0600    4.7700 C   0  0  0  0  0  0
    5.3850   -2.0430    5.2160 O   0  0  0  0  0  0
    4.4900    0.6240    6.5800 C   0  0  2  0  0  0
    3.7090    1.7910    6.7860 O   0  0  0  0  0  0
    5.8680    1.0140    6.0430 C   0  0  0  0  0  0
    5.1180   -0.5850    3.5870 N   0  0  0  0  0  0
    6.1470   -1.2420    2.7370 C   0  0  2  0  0  0
    7.0890   -0.1590    2.2040 C   0  0  0  0  0  0
    6.6640    0.9350    1.8770 O   0  0  0  0  0  0
    5.4740   -1.9650    1.5660 C   0  0  0  0  0  0
    5.9890   -3.4040    1.4830 C   0  0  0  0  0  0
    5.2870   -4.2550    2.5440 C   0  0  0  0  0  0
    5.8820   -5.6630    2.5440 C   0  0  0  0  0  0
    7.3700   -5.5690    2.5460 N   0  3  0  0  0  0
    8.3620   -0.4490    2.1290 N   0  0  0  0  0  0
    9.3350    0.5690    1.6350 C   0  0  2  0  0  0
   10.2100   -0.0350    0.5380 C   0  0  0  0  0  0
   10.4130   -1.2320    0.4830 O   0  0  0  0  0  0
   10.2310    1.0040    2.7950 C   0  0  0  0  0  0
   11.1300   -0.1640    3.2090 C   0  0  0  0  0  0
   11.8290    0.1720    4.5260 C   0  0  0  0  0  0
   11.2270    0.7300    5.4240 O   0  0  0  0  0  0
   13.0850   -0.1470    4.6850 N   0  0  0  0  0  0
   10.7410    0.7830   -0.3320 N   0  0  0  0  0  0
   11.6140    0.2360   -1.4130 C   0  0  2  0  0  0
   12.7460    1.2190   -1.7170 C   0  0  0  0  0  0
   12.5170    2.3870   -1.9680 O   0  0  0  0  0  0
   10.7880    0.0110   -2.6780 C   0  0  2  0  0  0
    9.6110   -0.7150   -2.3530 O   0  0  0  0  0  0
   11.6130   -0.7800   -3.6940 C   0  0  0  0  0  0
   13.9650    0.7540   -1.7120 N   0  0  0  0  0  0
   15.1100    1.6590   -2.0110 C   0  0  2  0  0  0
   16.1750    0.8920   -2.7960 C   0  0  0  0  0  0
   16.2920   -0.3120   -2.6820 O   0  0  0  0  0  0
   15.7120    2.1700   -0.6990 C   0  0  0  0  0  0
   16.9510    1.5800   -3.5900 N   0  0  0  0  0  0
   18.0100    0.8930   -4.3860 C   0  0  2  0  0  0
   19.3630    1.5540   -4.1120 C   0  0  0  0  0  0
   19.4500    2.7480   -3.9020 O   0  0  0  0  0  0
   17.6810    1.0080   -5.8770 C   0  0  0  0  0  0
   16.3770    0.2630   -6.1720 C   0  0  0  0  0  0
   16.1040    0.2880   -7.6760 C   0  0  0  0  0  0
   14.7400   -0.2490   -7.9410 N   0  0  0  0  0  0
   13.6890    0.4650   -7.6420 C   0  0  0  0  0  0
   13.8320    1.6480   -7.1100 N   0  0  0  0  0  0
   12.4930   -0.0050   -7.8740 N   0  0  0  0  0  0
   20.4190    0.7850   -4.1170 N   0  0  0  0  0  0
   21.7690    1.3630   -3.8610 C   0  0  2  0  0  0
   22.5820    1.3430   -5.1560 C   0  0  0  0  0  0
   22.4510    0.4490   -5.9690 O   0  0  0  0  0  0
   22.4890    0.5290   -2.7970 C   0  0  0  0  0  0
   21.6090    0.3980   -1.5470 C   0  0  0  0  0  0
   21.4130    1.7740   -0.9020 C   0  0  0  0  0  0
   20.8720    1.5960    0.5170 C   0  0  0  0  0  0
   20.5420    2.9300    1.0950 N   0  3  0  0  0  0
   23.4220    2.3200   -5.3560 N   0  0  0  0  0  0
   24.2420    2.3550   -6.6000 C   0  0  2  0  0  0
   25.2000    3.5460   -6.5460 C   0  0  0  0  0  0
   26.3940    3.3280   -6.6720 O   0  0  0  0  0  0
   23.3220    2.4950   -7.8140 C   0  0  0  0  0  0
   22.2010    3.2950   -7.4620 O   0  0  0  0  0  0
   24.7240    4.6570   -6.3810 O   0  0  0  0  0  0
   -3.5473   -2.8199    8.0560 H   0  0  0  0  0  0
   -4.6551   -1.7088    7.1814 H   0  0  0  0  0  0
   -3.3768   -1.0426    8.2532 H   0  0  0  0  0  0
   -2.9558   -2.6288    5.7143 H   0  0  0  0  0  0
   -3.8089   -0.3197    5.3086 H   0  0  0  0  0  0
   -2.0815   -0.4441    4.8319 H   0  0  0  0  0  0
   -2.5311    0.3467    6.3809 H   0  0  0  0  0  0
   -0.7168   -2.8556    5.0844 H   0  0  0  0  0  0
    1.1074   -2.4772    7.5867 H   0  0  0  0  0  0
    1.1004   -4.5422    5.3284 H   0  0  0  0  0  0
    2.4513   -4.3531    6.4972 H   0  0  0  0  0  0
    1.1193   -5.0107    8.3404 H   0  0  0  0  0  0
   -0.4163   -4.6273    7.4910 H   0  0  0  0  0  0
   -0.1654   -7.0544    7.5840 H   0  0  0  0  0  0
    0.0772   -6.5211    5.8860 H   0  0  0  0  0  0
    2.6321   -6.7249    7.5646 H   0  0  0  0  0  0
    0.1633   -8.1320    5.3315 H   0  0  0  0  0  0
    1.3754   -9.4415    4.6635 H   0  0  0  0  0  0
    4.0709   -8.2802    6.7686 H   0  0  0  0  0  0
    3.0200   -1.3833    7.3928 H   0  0  0  0  0  0
    3.1489    0.2847    4.8848 H   0  0  0  0  0  0
    4.5730    0.1492    7.5688 H   0  0  0  0  0  0
    2.6824    1.7048    7.1716 H   0  0  0  0  0  0
    6.4700    0.1070    5.8848 H   0  0  0  0  0  0
    6.3732    1.6673    6.7696 H   0  0  0  0  0  0
    5.7518    1.5482    5.0884 H   0  0  0  0  0  0
    4.5917    0.3090    3.2214 H   0  0  0  0  0  0
    6.6934   -1.9731    3.3509 H   0  0  0  0  0  0
    4.3848   -1.9760    1.7191 H   0  0  0  0  0  0
    5.7071   -1.4398    0.6280 H   0  0  0  0  0  0
    5.7766   -3.8124    0.4839 H   0  0  0  0  0  0
    7.0745   -3.4158    1.6607 H   0  0  0  0  0  0
    5.4289   -3.7971    3.5341 H   0  0  0  0  0  0
    4.2122   -4.3113    2.3167 H   0  0  0  0  0  0
    5.5459   -6.2031    3.4414 H   0  0  0  0  0  0
    5.5482   -6.2021    1.6451 H   0  0  0  0  0  0
    7.8013   -6.5809    2.5460 H   0  0  0  0  0  0
    7.7020   -5.0289    3.4449 H   0  0  0  0  0  0
    7.7044   -5.0279    1.6486 H   0  0  0  0  0  0
    8.7150   -1.4461    2.4311 H   0  0  0  0  0  0
    8.7631    1.4197    1.2358 H   0  0  0  0  0  0
   10.8545    1.8531    2.4782 H   0  0  0  0  0  0
    9.6057    1.3064    3.6479 H   0  0  0  0  0  0
   10.5185   -1.0691    3.3392 H   0  0  0  0  0  0
   11.8846   -0.3405    2.4283 H   0  0  0  0  0  0
   13.6312   -0.6516    3.8744 H   0  0  0  0  0  0
   13.5970    0.0888    5.6296 H   0  0  0  0  0  0
   10.5503    1.8648   -0.2736 H   0  0  0  0  0  0
   12.0286   -0.7183   -1.0561 H   0  0  0  0  0  0
   10.4383    0.9641   -3.1014 H   0  0  0  0  0  0
    8.8902   -0.3003   -1.6329 H   0  0  0  0  0  0
   12.5240   -0.2167   -3.9447 H   0  0  0  0  0  0
   11.0178   -0.9391   -4.6053 H   0  0  0  0  0  0
   11.8906   -1.7531   -3.2628 H   0  0  0  0  0  0
   14.1470   -0.3072   -1.4868 H   0  0  0  0  0  0
   14.7316    2.5006   -2.6098 H   0  0  0  0  0  0
   14.9459    2.7217   -0.1344 H   0  0  0  0  0  0
   16.5574    2.8384   -0.9193 H   0  0  0  0  0  0
   16.0651    1.3170   -0.1009 H   0  0  0  0  0  0
   16.8219    2.6694   -3.6708 H   0  0  0  0  0  0
   18.0353   -0.1638   -4.0819 H   0  0  0  0  0  0
   17.5660    2.0683   -6.1464 H   0  0  0  0  0  0
   18.4969    0.5661   -6.4677 H   0  0  0  0  0  0
   16.4657   -0.7797   -5.8330 H   0  0  0  0  0  0
   15.5471    0.7519   -5.6408 H   0  0  0  0  0  0
   16.1688    1.3229   -8.0432 H   0  0  0  0  0  0
   16.8499   -0.3324   -8.1944 H   0  0  0  0  0  0
   14.6190   -1.2466   -8.3884 H   0  0  0  0  0  0
   14.8390    2.0449   -6.9141 H   0  0  0  0  0  0
   12.3713   -1.0021   -8.3224 H   0  0  0  0  0  0
   11.6072    0.5961   -7.6210 H   0  0  0  0  0  0
   20.3097   -0.2922   -4.3109 H   0  0  0  0  0  0
   21.6369    2.3969   -3.5094 H   0  0  0  0  0  0
   22.6995   -0.4736   -3.1975 H   0  0  0  0  0  0
   23.4344    1.0205   -2.5236 H   0  0  0  0  0  0
   20.6289   -0.0134   -1.8301 H   0  0  0  0  0  0
   22.0947   -0.2754   -0.8255 H   0  0  0  0  0  0
   22.3773    2.3020   -0.8644 H   0  0  0  0  0  0
   20.6973    2.3596   -1.4977 H   0  0  0  0  0  0
   19.9648    0.9746    0.4882 H   0  0  0  0  0  0
   21.6333    1.1047    1.1407 H   0  0  0  0  0  0
   20.1529    2.8012    2.1158 H   0  0  0  0  0  0
   19.7805    3.4215    0.4716 H   0  0  0  0  0  0
   21.4491    3.5515    1.1241 H   0  0  0  0  0  0
   23.5254    3.1184   -4.6065 H   0  0  0  0  0  0
   24.8094    1.4146   -6.6610 H   0  0  0  0  0  0
   27.1117    4.1609   -6.6383 H   0  0  0  0  0  0
   23.8722    2.9731   -8.6378 H   0  0  0  0  0  0
   22.9794    1.4990   -8.1312 H   0  0  0  0  0  0
   21.4225    3.5099   -8.2088 H   0  0  0  0  0  0
  1  2  1  0  0  0
  1 81  1  0  0  0
  1 82  1  0  0  0
  1 83  1  0  0  0
  2  3  1  0  0  0
  2  5  1  0  0  0
  2 84  1  0  0  0
  3  4  2  0  0  0
  3  6  1  0  0  0
  5 85  1  0  0  0
  5 86  1  0  0  0
  5 87  1  0  0  0
  6  7  1  0  0  0
  6 88  1  0  0  0
  7  8  1  0  0  0
  7 10  1  0  0  0
  7 89  1  0  0  0
  8  9  2  0  0  0
  8 17  1  0  0  0
 10 11  1  0  0  0
 10 90  1  0  0  0
 10 91  1  0  0  0
 11 12  1  0  0  0
 11 92  1  0  0  0
 11 93  1  0  0  0
 12 13  1  0  0  0
 12 94  1  0  0  0
 12 95  1  0  0  0
 13 14  1  0  0  0
 13 96  1  0  0  0
 14 15  1  0  0  0
 14 16  2  0  0  0
 15 97  1  0  0  0
 15 98  1  0  0  0
 16 99  1  0  0  0
 17 18  1  0  0  0
 17100  1  0  0  0
 18 19  1  0  0  0
 18 21  1  0  0  0
 18101  1  0  0  0
 19 20  2  0  0  0
 19 24  1  0  0  0
 21 22  1  0  0  0
 21 23  1  0  0  0
 21102  1  0  0  0
 22103  1  0  0  0
 23104  1  0  0  0
 23105  1  0  0  0
 23106  1  0  0  0
 24 25  1  0  0  0
 24107  1  0  0  0
 25 26  1  0  0  0
 25 28  1  0  0  0
 25108  1  0  0  0
 26 27  2  0  0  0
 26 33  1  0  0  0
 28 29  1  0  0  0
 28109  1  0  0  0
 28110  1  0  0  0
 29 30  1  0  0  0
 29111  1  0  0  0
 29112  1  0  0  0
 30 31  1  0  0  0
 30113  1  0  0  0
 30114  1  0  0  0
 31 32  1  0  0  0
 31115  1  0  0  0
 31116  1  0  0  0
 32117  1  0  0  0
 32118  1  0  0  0
 32119  1  0  0  0
 33 34  1  0  0  0
 33120  1  0  0  0
 34 35  1  0  0  0
 34 37  1  0  0  0
 34121  1  0  0  0
 35 36  2  0  0  0
 35 42  1  0  0  0
 37 38  1  0  0  0
 37122  1  0  0  0
 37123  1  0  0  0
 38 39  1  0  0  0
 38124  1  0  0  0
 38125  1  0  0  0
 39 40  2  0  0  0
 39 41  1  0  0  0
 41126  1  0  0  0
 41127  1  0  0  0
 42 43  1  0  0  0
 42128  1  0  0  0
 43 44  1  0  0  0
 43 46  1  0  0  0
 43129  1  0  0  0
 44 45  2  0  0  0
 44 49  1  0  0  0
 46 47  1  0  0  0
 46 48  1  0  0  0
 46130  1  0  0  0
 47131  1  0  0  0
 48132  1  0  0  0
 48133  1  0  0  0
 48134  1  0  0  0
 49 50  1  0  0  0
 49135  1  0  0  0
 50 51  1  0  0  0
 50 53  1  0  0  0
 50136  1  0  0  0
 51 52  2  0  0  0
 51 54  1  0  0  0
 53137  1  0  0  0
 53138  1  0  0  0
 53139  1  0  0  0
 54 55  1  0  0  0
 54140  1  0  0  0
 55 56  1  0  0  0
 55 58  1  0  0  0
 55141  1  0  0  0
 56 57  2  0  0  0
 56 65  1  0  0  0
 58 59  1  0  0  0
 58142  1  0  0  0
 58143  1  0  0  0
 59 60  1  0  0  0
 59144  1  0  0  0
 59145  1  0  0  0
 60 61  1  0  0  0
 60146  1  0  0  0
 60147  1  0  0  0
 61 62  1  0  0  0
 61148  1  0  0  0
 62 63  2  0  0  0
 62 64  1  0  0  0
 63149  1  0  0  0
 64150  1  0  0  0
 64151  1  0  0  0
 65 66  1  0  0  0
 65152  1  0  0  0
 66 67  1  0  0  0
 66 69  1  0  0  0
 66153  1  0  0  0
 67 68  2  0  0  0
 67 74  1  0  0  0
 69 70  1  0  0  0
 69154  1  0  0  0
 69155  1  0  0  0
 70 71  1  0  0  0
 70156  1  0  0  0
 70157  1  0  0  0
 71 72  1  0  0  0
 71158  1  0  0  0
 71159  1  0  0  0
 72 73  1  0  0  0
 72160  1  0  0  0
 72161  1  0  0  0
 73162  1  0  0  0
 73163  1  0  0  0
 73164  1  0  0  0
 74 75  1  0  0  0
 74165  1  0  0  0
 75 76  1  0  0  0
 75 78  1  0  0  0
 75166  1  0  0  0
 76 77  1  0  0  0
 76 80  2  0  0  0
 77167  1  0  0  0
 78 79  1  0  0  0
 78168  1  0  0  0
 78169  1  0  0  0
 79170  1  0  0  0
M  CHG  3   1   1  32   1  73   1
M  END
> <s_m_source_file>
../2mnz_ligand.sdf

> <i_m_source_file_index>
1

> <s_epik_input>
W0hdL049QyhbTkgyXSlcW05IXVtDSDJdW0NIMl1bQ0gyXVtDQEhdKFtOSF1DKD1PKVtDQEBIXShbTkgzK10pW0NIM10pQyg9TylbTkhdW0NAQEhdKFtDQEhdKFtPSF0pW0NIM10pQyg9TylbTkhdW0NAQEhdKFtDSDJdW0NIMl1bQ0gyXVtDSDJdW05IMytdKUMoPU8pW05IXVtDQEBIXShbQ0gyXVtDSDJdQyg9TylbTkgyXSlDKD1PKVtOSF1bQ0BASF0oW0NASF0oW09IXSlbQ0gzXSlDKD1PKVtOSF1bQ0BASF0oW0NIM10pQyg9TylbTkhdW0NAQEhdKFtDSDJdW0NIMl1bQ0gyXVtOSF0vQyg9TlxbSF0pW05IMl0pQyg9TylbTkhdW0NASF0oQyg9TylbTkhdW0NASF0oQyg9TylbT0hdKVtDSDJdW09IXSlbQ0gyXVtDSDJdW0NIMl1bQ0gyXVtOSDMrXQ==

> <s_epik_cmdline>
J2VwaWtfYXBwJywgJy1pbWFlJywgJ2xpZ2FuZF9wcm8ubWFlJywgJy1vbWFlJywgJ2xpZ2FuZF9wcmVwLm1hZScsICctbXMnLCAnMScsICctcGgnLCAnNycsICctcGh0JywgJzAuNScsICctbnQn

> <s_epik_pKa_notes>
Molecule size exceeds maximum supported for generating protonation states

> <s_epik_Chemistry_Notes>
This compound has an imine and may undergo hydrolysis.

$$$$
