2mov_ligand
                    3D
 Schrodinger Suite 2020-3.
 37 37  0  0  1  0            999 V2000
   10.6880   -2.8570   -4.9460 N   0  3  0  0  0  0
    9.7350   -3.9290   -5.2470 C   0  0  2  0  0  0
    9.8850   -5.0720   -4.2840 C   0  0  0  0  0  0
    9.1480   -5.1260   -3.2940 O   0  0  0  0  0  0
   10.0790   -4.5520   -6.6640 C   0  0  0  0  0  0
   11.5300   -4.9870   -6.6420 C   0  0  0  0  0  0
   12.4400   -4.2740   -7.5160 C   0  0  0  0  0  0
   11.8930   -4.5130   -8.8180 N   0  0  2  0  0  0
   11.2810   -3.5110   -9.4570 C   0  0  3  0  0  0
   11.1800   -2.2580   -8.9100 N   0  3  2  0  0  0
   10.6600   -3.5560  -10.7200 N   0  3  2  0  0  0
   10.2460   -1.5870   -9.7170 C   0  0  1  0  0  0
   10.2170   -0.1740   -9.6830 O   0  5  0  0  0  0
   10.3080   -2.2270  -11.0790 C   0  0  1  0  0  0
   11.4740   -1.6170  -11.8710 C   0  0  0  0  0  0
   10.7517   -5.9646   -4.4834 O   0  5  0  0  0  0
   10.4525   -2.4222   -3.9634 H   0  0  0  0  0  0
   10.6183   -2.0769   -5.7184 H   0  0  0  0  0  0
   11.7085   -3.2673   -4.9303 H   0  0  0  0  0  0
    8.7477   -3.4555   -5.1426 H   0  0  0  0  0  0
    9.4254   -5.4163   -6.8530 H   0  0  0  0  0  0
    9.9205   -3.7946   -7.4458 H   0  0  0  0  0  0
   11.9346   -4.8629   -5.6267 H   0  0  0  0  0  0
   11.6004   -6.0440   -6.9381 H   0  0  0  0  0  0
   12.4440   -3.2069   -7.2492 H   0  0  0  0  0  0
   13.4543   -4.6841   -7.4025 H   0  0  0  0  0  0
   12.6961   -4.8265   -9.5012 H   0  0  0  0  0  0
   10.3276   -3.7933   -8.9865 H   0  0  0  0  0  0
   10.8346   -2.3392   -7.8688 H   0  0  0  0  0  0
   11.3588   -3.9780  -11.4573 H   0  0  0  0  0  0
    9.2818   -1.6887   -9.1975 H   0  0  0  0  0  0
    9.3817   -2.1767  -11.6701 H   0  0  0  0  0  0
   11.5234   -2.0814  -12.8669 H   0  0  0  0  0  0
   12.4168   -1.7991  -11.3343 H   0  0  0  0  0  0
   11.3168   -0.5337  -11.9790 H   0  0  0  0  0  0
    9.7607   -4.1870  -10.6642 H   0  0  0  0  0  0
   12.1644   -1.7676   -8.9325 H   0  0  0  0  0  0
  1  2  1  0  0  0
  1 17  1  0  0  0
  1 18  1  0  0  0
  1 19  1  0  0  0
  2  3  1  0  0  0
  2  5  1  0  0  0
  2 20  1  0  0  0
  3  4  2  0  0  0
  3 16  1  0  0  0
  5  6  1  0  0  0
  5 21  1  0  0  0
  5 22  1  0  0  0
  6  7  1  0  0  0
  6 23  1  0  0  0
  6 24  1  0  0  0
  7  8  1  0  0  0
  7 25  1  0  0  0
  7 26  1  0  0  0
  8  9  1  0  0  0
  8 27  1  0  0  0
  9 10  1  0  0  0
  9 11  1  0  0  0
  9 28  1  0  0  0
 10 12  1  0  0  0
 10 29  1  0  0  0
 10 37  1  0  0  0
 11 14  1  0  0  0
 11 30  1  0  0  0
 11 36  1  0  0  0
 12 13  1  0  0  0
 12 14  1  0  0  0
 12 31  1  0  0  0
 14 15  1  0  0  0
 14 32  1  0  0  0
 15 33  1  0  0  0
 15 34  1  0  0  0
 15 35  1  0  0  0
M  CHG  5   1   1  10   1  11   1  13  -1  16  -1
M  END
> <s_m_source_file>
../2mov_ligand.sdf

> <i_m_source_file_index>
1

> <s_epik_input>
Tz1DKFtPSF0pW0NAQEhdKFtOSDMrXSlbQ0gyXVtDSDJdW0NIMl1bTkhdW0NIXTFbTkhdW0NAQEhdKFtPSF0pW0NASF0oW05IXTEpW0NIM10=

> <s_epik_cmdline>
J2VwaWtfYXBwJywgJy1pbWFlJywgJ2xpZ2FuZF9wcm8ubWFlJywgJy1vbWFlJywgJ2xpZ2FuZF9wcmVwLm1hZScsICctbXMnLCAnMScsICctcGgnLCAnNycsICctcGh0JywgJzAuNScsICctbnQn

> <r_lp_tautomer_probability>
1

> <r_epik_Ionization_Penalty>
  0.0028

> <r_epik_Ionization_Penalty_Charging>
  0.0028

> <r_epik_Ionization_Penalty_Neutral>
  0.0000

> <r_epik_State_Penalty>
 -0.0000

> <r_epik_Charging_Adjusted_Penalty>
0.00280896454363397

> <i_epik_Tot_Q>
1

> <i_epik_Tot_abs_Q>
5

> <s_epik_Chemistry_Notes>
This compound contains an acetal/aminal-like group ( X-CH(R)-Y where X, Y are N, S, or O) that may be acid/base labile, releasing an aldehyde.

$$$$
