2mow_ligand
                    3D
 Schrodinger Suite 2020-3.
182184  0  0  1  0            999 V2000
  -18.5330   -5.5820   24.0470 N   0  3  0  0  0  0
  -17.8970   -6.0910   22.8380 C   0  0  2  0  0  0
  -16.3850   -5.9020   22.8980 C   0  0  0  0  0  0
  -15.8910   -4.7750   22.9240 O   0  0  0  0  0  0
  -18.4630   -5.3880   21.6030 C   0  0  0  0  0  0
  -19.9150   -5.7440   21.3480 C   0  0  0  0  0  0
  -20.4170   -6.6860   21.9960 O   0  0  0  0  0  0
  -20.5480   -5.0800   20.5010 O   0  0  0  0  0  0
  -15.6560   -7.0130   22.9210 N   0  0  0  0  0  0
  -14.1990   -6.9700   22.9780 C   0  0  2  0  0  0
  -13.6080   -6.7230   21.5930 C   0  0  0  0  0  0
  -13.4170   -7.6560   20.8130 O   0  0  0  0  0  0
  -13.6510   -8.2760   23.5540 C   0  0  0  0  0  0
  -12.2500   -8.1200   24.1120 C   0  0  0  0  0  0
  -11.8480   -6.9720   24.3950 O   0  0  0  0  0  0
  -11.5560   -9.1470   24.2660 O   0  0  0  0  0  0
  -13.3220   -5.4600   21.2940 N   0  0  0  0  0  0
  -12.7530   -5.0900   20.0040 C   0  0  2  0  0  0
  -12.0550   -3.7360   20.0860 C   0  0  0  0  0  0
  -12.0510   -2.9700   19.1230 O   0  0  0  0  0  0
  -13.8450   -5.0510   18.9330 C   0  0  0  0  0  0
  -13.3290   -5.4500   17.5650 C   0  0  0  0  0  0
  -12.4730   -6.3570   17.4940 O   0  0  0  0  0  0
  -13.7810   -4.8550   16.5640 O   0  0  0  0  0  0
  -11.4660   -3.4490   21.2430 N   0  0  0  0  0  0
  -10.7670   -2.1860   21.4500 C   0  0  2  0  0  0
  -11.6720   -1.0020   21.1190 C   0  0  0  0  0  0
  -11.2350   -0.0250   20.5110 O   0  0  0  0  0  0
   -9.5020   -2.1310   20.5910 C   0  0  0  0  0  0
   -8.4060   -3.0720   21.0610 C   0  0  0  0  0  0
   -7.0330   -2.6650   20.5620 C   0  0  0  0  0  0
   -6.9290   -2.2380   19.3930 O   0  0  0  0  0  0
   -6.0630   -2.7730   21.3410 O   0  0  0  0  0  0
  -12.9330   -1.0990   21.5240 N   0  0  0  0  0  0
  -13.9000   -0.0370   21.2710 C   0  0  2  0  0  0
  -13.4980    1.2470   21.9920 C   0  0  0  0  0  0
  -12.4980    1.2820   22.7070 O   0  0  0  0  0  0
  -15.2960   -0.4720   21.7190 C   0  0  0  0  0  0
  -15.9390   -1.4420   20.7480 C   0  0  0  0  0  0
  -15.4100   -1.5980   19.6280 O   0  0  0  0  0  0
  -16.9730   -2.0450   21.1070 O   0  0  0  0  0  0
  -14.2860    2.3000   21.7980 N   0  0  0  0  0  0
  -13.9950    3.5710   22.4340 C   0  0  0  0  0  0
  -12.6630    4.1480   21.9960 C   0  0  0  0  0  0
  -11.6540    3.9900   22.6830 O   0  0  0  0  0  0
  -12.6600    4.8180   20.8490 N   0  0  0  0  0  0
  -11.4410    5.4170   20.3170 C   0  0  2  0  0  0
  -11.3260    6.8790   20.7350 C   0  0  0  0  0  0
  -12.1140    7.7220   20.3060 O   0  0  0  0  0  0
  -11.4180    5.3070   18.7920 C   0  0  0  0  0  0
  -10.4790    6.2890   18.1280 C   0  0  0  0  0  0
   -9.1330    5.9900   17.9620 C   0  0  0  0  0  0
  -10.9400    7.5160   17.6670 C   0  0  0  0  0  0
   -8.2720    6.8850   17.3570 C   0  0  0  0  0  0
  -10.0860    8.4170   17.0600 C   0  0  0  0  0  0
   -8.7530    8.0970   16.9070 C   0  0  0  0  0  0
   -7.8990    8.9910   16.3030 O   0  0  0  0  0  0
  -10.3380    7.1730   21.5740 N   0  0  0  0  0  0
  -10.1180    8.5330   22.0500 C   0  0  2  0  0  0
   -9.0870    9.2520   21.1860 C   0  0  0  0  0  0
   -8.0530    8.6950   20.8160 O   0  0  0  0  0  0
   -9.6560    8.5170   23.5080 C   0  0  0  0  0  0
  -10.0490    9.7780   24.2540 C   0  0  0  0  0  0
   -9.3900   10.8110   24.1390 O   0  0  0  0  0  0
  -11.1280    9.6970   25.0240 N   0  0  0  0  0  0
   -9.3730   10.5210   20.8550 N   0  0  0  0  0  0
   -8.4830   11.3440   20.0320 C   0  0  2  0  0  0
   -7.1990   11.7210   20.7640 C   0  0  0  0  0  0
   -6.1710   11.9820   20.1400 O   0  0  0  0  0  0
   -9.3200   12.5930   19.7440 C   0  0  0  0  0  0
  -10.2860   12.6700   20.8750 C   0  0  0  0  0  0
  -10.5870   11.2490   21.2610 C   0  0  0  0  0  0
   -7.2670   11.7470   22.0910 N   0  0  0  0  0  0
   -6.1100   12.0930   22.9080 C   0  0  2  0  0  0
   -5.1060   10.9460   22.9460 C   0  0  0  0  0  0
   -3.9580   11.1210   23.3570 O   0  0  0  0  0  0
   -6.5510   12.4470   24.3300 C   0  0  0  0  0  0
   -5.9640   13.7420   24.8420 C   0  0  0  0  0  0
   -4.6420   14.0800   24.5810 C   0  0  0  0  0  0
   -6.7320   14.6300   25.5850 C   0  0  0  0  0  0
   -4.1010   15.2620   25.0470 C   0  0  0  0  0  0
   -6.2000   15.8150   26.0550 C   0  0  0  0  0  0
   -4.8840   16.1270   25.7830 C   0  0  0  0  0  0
   -4.3490   17.3060   26.2490 O   0  0  0  0  0  0
   -5.5460    9.7680   22.5130 N   0  0  0  0  0  0
   -4.6870    8.5910   22.4960 C   0  0  2  0  0  0
   -4.7260    7.9010   21.1380 C   0  0  0  0  0  0
   -5.7800    7.4430   20.6920 O   0  0  0  0  0  0
   -5.0990    7.5810   23.5840 C   0  0  2  0  0  0
   -6.2710    6.8680   23.1730 O   0  0  0  0  0  0
   -5.3660    8.2870   24.9050 C   0  0  0  0  0  0
   -3.5730    7.8270   20.4830 N   0  0  0  0  0  0
   -3.4750    7.1910   19.1740 C   0  0  2  0  0  0
   -3.4310    5.6730   19.3080 C   0  0  0  0  0  0
   -4.2210    5.0820   20.0440 O   0  0  0  0  0  0
   -2.2280    7.6850   18.4370 C   0  0  0  0  0  0
   -2.0660    7.2030   16.9960 C   0  0  0  0  0  0
   -1.4650    8.3000   16.1300 C   0  0  0  0  0  0
   -1.2030    5.9500   16.9460 C   0  0  0  0  0  0
   -2.5755    5.0154   18.6574 O   0  0  0  0  0  0
  -18.1159   -6.0966   24.9252 H   0  0  0  0  0  0
  -19.6166   -5.7640   23.9957 H   0  0  0  0  0  0
  -18.3463   -4.5013   24.1323 H   0  0  0  0  0  0
  -18.1346   -7.1647   22.8119 H   0  0  0  0  0  0
  -18.4001   -4.2984   21.7403 H   0  0  0  0  0  0
  -17.8815   -5.6800   20.7161 H   0  0  0  0  0  0
  -21.4678   -6.9674   21.8328 H   0  0  0  0  0  0
  -16.1771   -7.9814   22.8960 H   0  0  0  0  0  0
  -13.9556   -6.1265   23.6408 H   0  0  0  0  0  0
  -14.3045   -8.6199   24.3693 H   0  0  0  0  0  0
  -13.6181   -9.0401   22.7634 H   0  0  0  0  0  0
  -10.5356   -9.0660   24.6688 H   0  0  0  0  0  0
  -13.5249   -4.6854   22.0482 H   0  0  0  0  0  0
  -12.0158   -5.8732   19.7736 H   0  0  0  0  0  0
  -14.6522   -5.7462   19.2070 H   0  0  0  0  0  0
  -14.2493   -4.0307   18.8586 H   0  0  0  0  0  0
  -12.0805   -6.6673   16.5144 H   0  0  0  0  0  0
  -11.5146   -4.1901   22.0544 H   0  0  0  0  0  0
  -10.5076   -2.1676   22.5188 H   0  0  0  0  0  0
   -9.7498   -2.4069   19.5554 H   0  0  0  0  0  0
   -9.0898   -1.1113   20.6102 H   0  0  0  0  0  0
   -8.3765   -3.0803   22.1606 H   0  0  0  0  0  0
   -8.6116   -4.0877   20.6921 H   0  0  0  0  0  0
   -5.9458   -1.9353   19.0035 H   0  0  0  0  0  0
  -13.2419   -2.0074   22.0619 H   0  0  0  0  0  0
  -13.8793    0.1259   20.1833 H   0  0  0  0  0  0
  -15.2289   -0.9672   22.6989 H   0  0  0  0  0  0
  -15.9474    0.4108   21.7982 H   0  0  0  0  0  0
  -17.4612   -2.7549   20.4231 H   0  0  0  0  0  0
  -15.1669    2.1997   21.1468 H   0  0  0  0  0  0
  -14.7797    4.2977   22.1770 H   0  0  0  0  0  0
  -13.9632    3.4362   23.5252 H   0  0  0  0  0  0
  -13.6068    4.9156   20.2976 H   0  0  0  0  0  0
  -10.6138    4.8408   20.7570 H   0  0  0  0  0  0
  -11.0947    4.2963   18.5021 H   0  0  0  0  0  0
  -12.4262    5.4973   18.3954 H   0  0  0  0  0  0
   -8.7494    5.0328   18.3151 H   0  0  0  0  0  0
  -11.9928    7.7721   17.7861 H   0  0  0  0  0  0
   -7.2180    6.6348   17.2358 H   0  0  0  0  0  0
  -10.4637    9.3755   16.7040 H   0  0  0  0  0  0
   -6.8355    8.7384   16.1797 H   0  0  0  0  0  0
   -9.6778    6.3595   21.9090 H   0  0  0  0  0  0
  -11.0922    9.0358   21.9597 H   0  0  0  0  0  0
  -10.1102    7.6602   24.0272 H   0  0  0  0  0  0
   -8.5601    8.4288   23.5445 H   0  0  0  0  0  0
  -11.6840    8.7504   25.0939 H   0  0  0  0  0  0
  -11.4657   10.5765   25.5919 H   0  0  0  0  0  0
   -8.1714   10.7793   19.1409 H   0  0  0  0  0  0
   -8.6628   13.4743   19.7074 H   0  0  0  0  0  0
   -9.8315   12.4767   18.7771 H   0  0  0  0  0  0
   -9.8290   13.2203   21.7107 H   0  0  0  0  0  0
  -11.1957   13.1932   20.5453 H   0  0  0  0  0  0
  -11.4556   10.8428   20.7220 H   0  0  0  0  0  0
  -10.7399   11.1318   22.3440 H   0  0  0  0  0  0
   -8.2252   11.4994   22.5712 H   0  0  0  0  0  0
   -5.6552   12.9652   22.4156 H   0  0  0  0  0  0
   -7.6459   12.5489   24.3597 H   0  0  0  0  0  0
   -6.2381   11.6496   25.0202 H   0  0  0  0  0  0
   -4.0207   13.4001   23.9980 H   0  0  0  0  0  0
   -7.7725   14.3873   25.8008 H   0  0  0  0  0  0
   -3.0611   15.5101   24.8345 H   0  0  0  0  0  0
   -6.8165   16.4997   26.6375 H   0  0  0  0  0  0
   -3.2999   17.5571   26.0335 H   0  0  0  0  0  0
   -6.5860    9.6950   22.1621 H   0  0  0  0  0  0
   -3.6815    8.9925   22.6902 H   0  0  0  0  0  0
   -4.3180    6.8183   23.7194 H   0  0  0  0  0  0
   -6.2649    6.2943   22.2345 H   0  0  0  0  0  0
   -4.4639    8.8335   25.2176 H   0  0  0  0  0  0
   -5.6282    7.5432   25.6718 H   0  0  0  0  0  0
   -6.1988    8.9948   24.7807 H   0  0  0  0  0  0
   -2.6776    8.2608   20.9521 H   0  0  0  0  0  0
   -4.3866    7.4875   18.6345 H   0  0  0  0  0  0
   -2.2402    8.7840   18.3916 H   0  0  0  0  0  0
   -1.3281    7.3502   18.9737 H   0  0  0  0  0  0
   -3.0597    6.9542   16.5953 H   0  0  0  0  0  0
   -2.1015    9.1958   16.1789 H   0  0  0  0  0  0
   -1.4016    7.9516   15.0886 H   0  0  0  0  0  0
   -0.4574    8.5457   16.4965 H   0  0  0  0  0  0
   -1.6529    5.1695   17.5771 H   0  0  0  0  0  0
   -0.1941    6.1846   17.3163 H   0  0  0  0  0  0
   -1.1383    5.5905   15.9084 H   0  0  0  0  0  0
   -2.5378    3.9199   18.7491 H   0  0  0  0  0  0
  1  2  1  0  0  0
  1101  1  0  0  0
  1102  1  0  0  0
  1103  1  0  0  0
  2  3  1  0  0  0
  2  5  1  0  0  0
  2104  1  0  0  0
  3  4  2  0  0  0
  3  9  1  0  0  0
  5  6  1  0  0  0
  5105  1  0  0  0
  5106  1  0  0  0
  6  7  1  0  0  0
  6  8  2  0  0  0
  7107  1  0  0  0
  9 10  1  0  0  0
  9108  1  0  0  0
 10 11  1  0  0  0
 10 13  1  0  0  0
 10109  1  0  0  0
 11 12  2  0  0  0
 11 17  1  0  0  0
 13 14  1  0  0  0
 13110  1  0  0  0
 13111  1  0  0  0
 14 15  2  0  0  0
 14 16  1  0  0  0
 16112  1  0  0  0
 17 18  1  0  0  0
 17113  1  0  0  0
 18 19  1  0  0  0
 18 21  1  0  0  0
 18114  1  0  0  0
 19 20  2  0  0  0
 19 25  1  0  0  0
 21 22  1  0  0  0
 21115  1  0  0  0
 21116  1  0  0  0
 22 23  1  0  0  0
 22 24  2  0  0  0
 23117  1  0  0  0
 25 26  1  0  0  0
 25118  1  0  0  0
 26 27  1  0  0  0
 26 29  1  0  0  0
 26119  1  0  0  0
 27 28  2  0  0  0
 27 34  1  0  0  0
 29 30  1  0  0  0
 29120  1  0  0  0
 29121  1  0  0  0
 30 31  1  0  0  0
 30122  1  0  0  0
 30123  1  0  0  0
 31 32  1  0  0  0
 31 33  2  0  0  0
 32124  1  0  0  0
 34 35  1  0  0  0
 34125  1  0  0  0
 35 36  1  0  0  0
 35 38  1  0  0  0
 35126  1  0  0  0
 36 37  2  0  0  0
 36 42  1  0  0  0
 38 39  1  0  0  0
 38127  1  0  0  0
 38128  1  0  0  0
 39 40  2  0  0  0
 39 41  1  0  0  0
 41129  1  0  0  0
 42 43  1  0  0  0
 42130  1  0  0  0
 43 44  1  0  0  0
 43131  1  0  0  0
 43132  1  0  0  0
 44 45  2  0  0  0
 44 46  1  0  0  0
 46 47  1  0  0  0
 46133  1  0  0  0
 47 48  1  0  0  0
 47 50  1  0  0  0
 47134  1  0  0  0
 48 49  2  0  0  0
 48 58  1  0  0  0
 50 51  1  0  0  0
 50135  1  0  0  0
 50136  1  0  0  0
 51 52  2  0  0  0
 51 53  1  0  0  0
 52 54  1  0  0  0
 52137  1  0  0  0
 53 55  2  0  0  0
 53138  1  0  0  0
 54 56  2  0  0  0
 54139  1  0  0  0
 55 56  1  0  0  0
 55140  1  0  0  0
 56 57  1  0  0  0
 57141  1  0  0  0
 58 59  1  0  0  0
 58142  1  0  0  0
 59 60  1  0  0  0
 59 62  1  0  0  0
 59143  1  0  0  0
 60 61  2  0  0  0
 60 66  1  0  0  0
 62 63  1  0  0  0
 62144  1  0  0  0
 62145  1  0  0  0
 63 64  2  0  0  0
 63 65  1  0  0  0
 65146  1  0  0  0
 65147  1  0  0  0
 66 67  1  0  0  0
 66 72  1  0  0  0
 67 68  1  0  0  0
 67 70  1  0  0  0
 67148  1  0  0  0
 68 69  2  0  0  0
 68 73  1  0  0  0
 70 71  1  0  0  0
 70149  1  0  0  0
 70150  1  0  0  0
 71 72  1  0  0  0
 71151  1  0  0  0
 71152  1  0  0  0
 72153  1  0  0  0
 72154  1  0  0  0
 73 74  1  0  0  0
 73155  1  0  0  0
 74 75  1  0  0  0
 74 77  1  0  0  0
 74156  1  0  0  0
 75 76  2  0  0  0
 75 85  1  0  0  0
 77 78  1  0  0  0
 77157  1  0  0  0
 77158  1  0  0  0
 78 79  2  0  0  0
 78 80  1  0  0  0
 79 81  1  0  0  0
 79159  1  0  0  0
 80 82  2  0  0  0
 80160  1  0  0  0
 81 83  2  0  0  0
 81161  1  0  0  0
 82 83  1  0  0  0
 82162  1  0  0  0
 83 84  1  0  0  0
 84163  1  0  0  0
 85 86  1  0  0  0
 85164  1  0  0  0
 86 87  1  0  0  0
 86 89  1  0  0  0
 86165  1  0  0  0
 87 88  2  0  0  0
 87 92  1  0  0  0
 89 90  1  0  0  0
 89 91  1  0  0  0
 89166  1  0  0  0
 90167  1  0  0  0
 91168  1  0  0  0
 91169  1  0  0  0
 91170  1  0  0  0
 92 93  1  0  0  0
 92171  1  0  0  0
 93 94  1  0  0  0
 93 96  1  0  0  0
 93172  1  0  0  0
 94 95  2  0  0  0
 94100  1  0  0  0
 96 97  1  0  0  0
 96173  1  0  0  0
 96174  1  0  0  0
 97 98  1  0  0  0
 97 99  1  0  0  0
 97175  1  0  0  0
 98176  1  0  0  0
 98177  1  0  0  0
 98178  1  0  0  0
 99179  1  0  0  0
 99180  1  0  0  0
 99181  1  0  0  0
100182  1  0  0  0
M  CHG  1   1   1
M  END
> <s_m_source_file>
../2mow_ligand.sdf

> <i_m_source_file_index>
1

> <s_epik_input>
W09IXUMoPU8pW0NIMl1bQ0BIXShbTkgzK10pQyg9TylbTkhdW0NAQEhdKFtDSDJdQyg9TylbT0hdKUMoPU8pW05IXVtDQEBIXShbQ0gyXUMoPU8pW09IXSlDKD1PKVtOSF1bQ0BASF0oW0NIMl1bQ0gyXUMoPU8pW09IXSlDKD1PKVtOSF1bQ0BASF0oW0NIMl1DKD1PKVtPSF0pQyg9TylbTkhdW0NIMl1DKD1PKVtOSF1bQ0BASF0oW0NIMl1jMVtjSF1bY0hdYyhbT0hdKVtjSF1bY0hdMSlDKD1PKVtOSF1bQ0BASF0oW0NIMl1DKD1PKVtOSDJdKUMoPU8pTjJbQ0BASF0oW0NIMl1bQ0gyXVtDSDJdMilDKD1PKVtOSF1bQ0BASF0oW0NIMl1jM1tjSF1bY0hdYyhbT0hdKVtjSF1bY0hdMylDKD1PKVtOSF1bQ0BASF0oW0NASF0oW09IXSlbQ0gzXSlDKD1PKVtOSF1bQ0BIXShDKD1PKVtPSF0pW0NIMl1bQ0hdKFtDSDNdKVtDSDNd

> <s_epik_cmdline>
J2VwaWtfYXBwJywgJy1pbWFlJywgJ2xpZ2FuZF9wcm8ubWFlJywgJy1vbWFlJywgJ2xpZ2FuZF9wcmVwLm1hZScsICctbXMnLCAnMScsICctcGgnLCAnNycsICctcGh0JywgJzAuNScsICctbnQn

> <s_epik_pKa_notes>
Molecule size exceeds maximum supported for generating protonation states

$$$$
