2mpa_ligand
                    3D
 Schrodinger Suite 2020-3.
188191  0  0  1  0            999 V2000
  -14.2710   10.6420   47.8440 N   0  0  0  0  0  0
  -14.8290   11.4530   46.9570 C   0  0  0  0  0  0
  -14.2400   11.8470   45.9480 O   0  0  0  0  0  0
  -16.2600   11.8900   47.2490 C   0  0  0  0  0  0
  -12.9110   10.1410   47.6930 C   0  0  1  0  0  0
  -12.4530    9.5000   49.0130 C   0  0  2  0  0  0
  -12.2330   10.5350   49.9770 O   0  0  0  0  0  0
  -11.1890    8.6670   48.8180 C   0  0  0  0  0  0
  -12.8030    9.1140   46.5670 C   0  0  0  0  0  0
  -13.7880    8.4580   46.2250 O   0  0  0  0  0  0
  -11.6090    8.9730   45.9970 N   0  0  0  0  0  0
  -11.4020    8.0040   44.9290 C   0  0  2  0  0  0
  -10.0950    7.2040   45.0850 C   0  0  0  0  0  0
   -9.1410    7.6810   45.7030 O   0  0  0  0  0  0
  -11.4400    8.7090   43.5630 C   0  0  0  0  0  0
  -10.3260    9.7020   43.3150 C   0  0  0  0  0  0
  -10.3700   10.2440   41.8790 C   0  0  0  0  0  0
  -11.5460   11.1820   41.5990 C   0  0  0  0  0  0
  -11.4020   12.5320   42.2400 N   0  3  0  0  0  0
  -10.0710    5.9850   44.5380 N   0  0  0  0  0  0
   -8.8970    5.0940   44.5840 C   0  0  2  0  0  0
   -7.6680    5.6870   43.9270 C   0  0  0  0  0  0
   -7.6580    6.8450   43.5200 O   0  0  0  0  0  0
   -9.1480    3.7820   43.8300 C   0  0  0  0  0  0
  -10.2090    2.9420   44.4560 C   0  0  0  0  0  0
  -10.2480    2.8690   45.7050 O   0  0  0  0  0  0
  -10.9860    2.3230   43.6980 O   0  0  0  0  0  0
   -6.6510    4.8380   43.8010 N   0  0  0  0  0  0
   -5.3970    5.1690   43.1360 C   0  0  2  0  0  0
   -5.6980    4.9650   41.6520 C   0  0  0  0  0  0
   -4.9430    5.3770   40.7770 O   0  0  0  0  0  0
   -4.2750    4.1940   43.5470 C   0  0  2  0  0  0
   -4.0580    4.2970   44.9570 O   0  0  0  0  0  0
   -2.9770    4.5080   42.8040 C   0  0  0  0  0  0
   -6.8160    4.3040   41.3910 N   0  0  0  0  0  0
   -7.2560    4.0460   40.0330 C   0  0  2  0  0  0
   -8.4290    4.9670   39.7030 C   0  0  0  0  0  0
   -9.0970    4.8050   38.6960 O   0  0  0  0  0  0
   -7.6690    2.5810   39.8840 C   0  0  0  0  0  0
   -6.5330    1.6290   40.1640 C   0  0  0  0  0  0
   -5.4390    1.7670   39.6000 O   0  0  0  0  0  0
   -6.7820    0.6450   41.0310 N   0  0  0  0  0  0
   -8.6780    5.9260   40.5830 N   0  0  0  0  0  0
   -9.7380    6.9030   40.4100 C   0  0  2  0  0  0
  -11.1640    6.3690   40.5000 C   0  0  0  0  0  0
  -12.0770    6.9480   39.9120 O   0  0  0  0  0  0
   -9.5280    7.6630   39.0940 C   0  0  0  0  0  0
   -8.1680    8.3630   39.0360 C   0  0  0  0  0  0
   -7.8270    9.1320   39.9270 O   0  0  0  0  0  0
   -7.3980    8.0990   37.9950 N   0  0  0  0  0  0
  -11.3610    5.2740   41.2370 N   0  0  0  0  0  0
  -12.7050    4.7170   41.4280 C   0  0  2  0  0  0
  -13.2620    5.3070   42.7400 C   0  0  0  0  0  0
  -12.5040    5.5940   43.6630 O   0  0  0  0  0  0
  -12.6900    3.1790   41.5650 C   0  0  0  0  0  0
  -12.0340    2.4650   40.3900 C   0  0  0  0  0  0
  -12.3320    2.7300   39.2290 O   0  0  0  0  0  0
  -11.1570    1.5140   40.7000 N   0  0  0  0  0  0
  -14.5770    5.4850   42.8350 N   0  0  0  0  0  0
  -15.1400    6.0330   44.0640 C   0  0  2  0  0  0
  -15.1020    5.0340   45.2110 C   0  0  0  0  0  0
  -15.7150    3.9650   45.1500 O   0  0  0  0  0  0
  -16.5770    6.5120   43.8520 C   0  0  0  0  0  0
  -16.7200    7.8720   43.1680 C   0  0  0  0  0  0
  -18.1950    8.1980   42.9730 C   0  0  0  0  0  0
  -16.0500    8.9410   44.0200 C   0  0  0  0  0  0
   -2.2440    5.9600   52.0380 C   0  0  0  0  0  0
   -1.5500    6.8470   52.5770 O   0  0  0  0  0  0
   -1.5750    4.9090   51.3850 C   0  0  0  0  0  0
   -2.2920    3.9050   50.7090 C   0  0  0  0  0  0
   -1.5020    2.8640   50.0620 O   0  0  0  0  0  0
   -2.2260    1.8260   49.3640 C   0  0  0  0  0  0
   -1.4750    0.8030   48.7500 C   0  0  0  0  0  0
   -2.1240   -0.2460   48.0690 C   0  0  0  0  0  0
   -1.4860   -1.2280   47.6430 O   0  0  0  0  0  0
   -3.5400   -0.2500   47.9830 C   0  0  0  0  0  0
   -4.3000    0.7770   48.5930 C   0  0  0  0  0  0
   -3.6640    1.8280   49.2970 C   0  0  0  0  0  0
   -4.4000    2.8930   49.9580 C   0  0  0  0  0  0
   -3.7080    3.9290   50.6710 C   0  0  0  0  0  0
   -4.3890    5.0020   51.3430 C   0  0  0  0  0  0
   -3.6610    6.0030   52.0190 C   0  0  0  0  0  0
   -5.8330    2.9720   49.8900 C   0  0  0  0  0  0
   -6.5680    2.8420   51.0750 C   0  0  0  0  0  0
   -7.9570    2.9090   51.0560 C   0  0  0  0  0  0
   -8.6570    3.0990   49.8630 C   0  0  0  0  0  0
   -7.9390    3.2250   48.6660 C   0  0  0  0  0  0
   -6.5410    3.1700   48.6400 C   0  0  0  0  0  0
   -5.8860    3.3600   47.4020 C   0  0  0  0  0  0
   -4.7190    3.8150   47.2780 O   0  0  0  0  0  0
   -6.4300    3.0610   46.3050 O   0  0  0  0  0  0
   -9.9850    3.1470   49.8930 N   0  0  0  0  0  0
  -11.0270    3.8960   49.5590 C   0  0  0  0  0  0
  -10.9590    4.9420   48.9140 O   0  0  0  0  0  0
  -12.3590    3.3100   49.9190 C   0  0  0  0  0  0
  -12.8720    2.3210   48.5360 S   0  0  0  0  0  0
  -13.0320    3.6120   47.2590 C   0  0  0  0  0  0
  -14.2660    4.5080   47.4130 C   0  0  2  0  0  0
  -14.3800    5.3870   46.2670 N   0  0  0  0  0  0
  -13.2380    6.1240   48.8390 O   0  0  0  0  0  0
  -14.1670    5.3330   48.6740 C   0  0  0  0  0  0
  -15.1330    5.1560   49.5720 N   0  0  0  0  0  0
  -14.8715   10.3484   48.7176 H   0  0  0  0  0  0
  -16.5989   11.4309   48.1894 H   0  0  0  0  0  0
  -16.9164   11.5689   46.4268 H   0  0  0  0  0  0
  -16.2972   12.9855   47.3414 H   0  0  0  0  0  0
  -12.3099   11.0245   47.4318 H   0  0  0  0  0  0
  -13.2380    8.8550   49.4346 H   0  0  0  0  0  0
  -13.0471   11.2283   50.2352 H   0  0  0  0  0  0
  -11.3802    7.8791   48.0746 H   0  0  0  0  0  0
  -10.9021    8.2065   49.7749 H   0  0  0  0  0  0
  -10.3738    9.3151   48.4640 H   0  0  0  0  0  0
  -10.7726    9.5990   46.3414 H   0  0  0  0  0  0
  -12.2469    7.3087   45.0420 H   0  0  0  0  0  0
  -11.3728    7.9589   42.7613 H   0  0  0  0  0  0
  -12.3826    9.2674   43.4646 H   0  0  0  0  0  0
  -10.4270   10.5477   44.0111 H   0  0  0  0  0  0
   -9.3547    9.2106   43.4736 H   0  0  0  0  0  0
   -9.4495   10.8096   41.6722 H   0  0  0  0  0  0
  -10.4511    9.4047   41.1726 H   0  0  0  0  0  0
  -11.6381   11.3409   40.5144 H   0  0  0  0  0  0
  -12.4733   10.7324   41.9837 H   0  0  0  0  0  0
  -12.2796   13.1489   41.9966 H   0  0  0  0  0  0
  -10.4928   13.0223   41.8618 H   0  0  0  0  0  0
  -11.3281   12.4138   43.3311 H   0  0  0  0  0  0
  -10.9914    5.6564   44.0332 H   0  0  0  0  0  0
   -8.7513    4.9662   45.6668 H   0  0  0  0  0  0
   -9.4640    4.0055   42.8003 H   0  0  0  0  0  0
   -8.2221    3.1884   43.8087 H   0  0  0  0  0  0
  -11.0190    2.2573   46.1964 H   0  0  0  0  0  0
   -6.7965    3.8374   44.2341 H   0  0  0  0  0  0
   -5.1035    6.1924   43.4125 H   0  0  0  0  0  0
   -4.5693    3.1516   43.3553 H   0  0  0  0  0  0
   -4.8850    4.1044   45.6563 H   0  0  0  0  0  0
   -3.1465    4.4281   41.7201 H   0  0  0  0  0  0
   -2.1986    3.7923   43.1072 H   0  0  0  0  0  0
   -2.6517    5.5296   43.0500 H   0  0  0  0  0  0
   -7.4165    3.9473   42.2408 H   0  0  0  0  0  0
   -6.3998    4.2597   39.3763 H   0  0  0  0  0  0
   -8.4816    2.3555   40.5903 H   0  0  0  0  0  0
   -8.0162    2.4006   38.8559 H   0  0  0  0  0  0
   -7.7716    0.5669   41.5050 H   0  0  0  0  0  0
   -5.9976   -0.0877   41.2715 H   0  0  0  0  0  0
   -8.0379    5.9615   41.4768 H   0  0  0  0  0  0
   -9.6063    7.5371   41.2991 H   0  0  0  0  0  0
   -9.5840    6.9587   38.2509 H   0  0  0  0  0  0
  -10.3096    8.4292   38.9843 H   0  0  0  0  0  0
   -7.7440    7.4018   37.2177 H   0  0  0  0  0  0
   -6.4110    8.5765   37.9058 H   0  0  0  0  0  0
  -10.4925    4.7879   41.7055 H   0  0  0  0  0  0
  -13.2770    4.9959   40.5308 H   0  0  0  0  0  0
  -12.1336    2.8970   42.4710 H   0  0  0  0  0  0
  -13.7227    2.8073   41.6384 H   0  0  0  0  0  0
  -10.9182    1.3084   41.7539 H   0  0  0  0  0  0
  -10.6706    0.9332   39.9024 H   0  0  0  0  0  0
  -15.2385    5.2226   41.9962 H   0  0  0  0  0  0
  -14.4774    6.8795   44.2970 H   0  0  0  0  0  0
  -17.1155    5.7885   43.2223 H   0  0  0  0  0  0
  -17.0821    6.5983   44.8253 H   0  0  0  0  0  0
  -16.2332    7.8463   42.1819 H   0  0  0  0  0  0
  -18.6646    7.4175   42.3563 H   0  0  0  0  0  0
  -18.2920    9.1711   42.4694 H   0  0  0  0  0  0
  -18.6937    8.2408   43.9525 H   0  0  0  0  0  0
  -14.9867    8.6918   44.1517 H   0  0  0  0  0  0
  -16.5404    8.9866   45.0036 H   0  0  0  0  0  0
  -16.1387    9.9170   43.5204 H   0  0  0  0  0  0
   -0.4528    6.7695   52.5659 H   0  0  0  0  0  0
   -0.4858    4.8720   51.4030 H   0  0  0  0  0  0
   -0.3865    0.8237   48.8024 H   0  0  0  0  0  0
   -0.3877   -1.2385   47.7033 H   0  0  0  0  0  0
   -4.0468   -1.0499   47.4431 H   0  0  0  0  0  0
   -5.3874    0.7584   48.5198 H   0  0  0  0  0  0
   -4.2957    1.8501   50.2917 H   0  0  0  0  0  0
   -5.4782    5.0423   51.3299 H   0  0  0  0  0  0
   -4.1882    6.8104   52.5273 H   0  0  0  0  0  0
   -6.0472    2.6870   52.0199 H   0  0  0  0  0  0
   -8.5097    2.8113   51.9904 H   0  0  0  0  0  0
   -8.4829    3.3694   47.7325 H   0  0  0  0  0  0
   -5.8894    3.2230   45.3608 H   0  0  0  0  0  0
  -10.5556    2.3163   50.3338 H   0  0  0  0  0  0
  -12.2558    2.6935   50.8241 H   0  0  0  0  0  0
  -13.0775    4.1212   50.1079 H   0  0  0  0  0  0
  -12.1519    4.2710   47.2916 H   0  0  0  0  0  0
  -13.1005    3.1405   46.2675 H   0  0  0  0  0  0
  -15.1825    3.9005   47.4423 H   0  0  0  0  0  0
  -13.8649    6.3589   46.2659 H   0  0  0  0  0  0
  -15.9412    4.4361   49.3758 H   0  0  0  0  0  0
  -15.1233    5.7296   50.5105 H   0  0  0  0  0  0
  1  2  1  0  0  0
  1  5  1  0  0  0
  1103  1  0  0  0
  2  3  2  0  0  0
  2  4  1  0  0  0
  4104  1  0  0  0
  4105  1  0  0  0
  4106  1  0  0  0
  5  6  1  0  0  0
  5  9  1  0  0  0
  5107  1  0  0  0
  6  7  1  0  0  0
  6  8  1  0  0  0
  6108  1  0  0  0
  7109  1  0  0  0
  8110  1  0  0  0
  8111  1  0  0  0
  8112  1  0  0  0
  9 10  2  0  0  0
  9 11  1  0  0  0
 11 12  1  0  0  0
 11113  1  0  0  0
 12 13  1  0  0  0
 12 15  1  0  0  0
 12114  1  0  0  0
 13 14  2  0  0  0
 13 20  1  0  0  0
 15 16  1  0  0  0
 15115  1  0  0  0
 15116  1  0  0  0
 16 17  1  0  0  0
 16117  1  0  0  0
 16118  1  0  0  0
 17 18  1  0  0  0
 17119  1  0  0  0
 17120  1  0  0  0
 18 19  1  0  0  0
 18121  1  0  0  0
 18122  1  0  0  0
 19123  1  0  0  0
 19124  1  0  0  0
 19125  1  0  0  0
 20 21  1  0  0  0
 20126  1  0  0  0
 21 22  1  0  0  0
 21 24  1  0  0  0
 21127  1  0  0  0
 22 23  2  0  0  0
 22 28  1  0  0  0
 24 25  1  0  0  0
 24128  1  0  0  0
 24129  1  0  0  0
 25 26  1  0  0  0
 25 27  2  0  0  0
 26130  1  0  0  0
 28 29  1  0  0  0
 28131  1  0  0  0
 29 30  1  0  0  0
 29 32  1  0  0  0
 29132  1  0  0  0
 30 31  2  0  0  0
 30 35  1  0  0  0
 32 33  1  0  0  0
 32 34  1  0  0  0
 32133  1  0  0  0
 33134  1  0  0  0
 34135  1  0  0  0
 34136  1  0  0  0
 34137  1  0  0  0
 35 36  1  0  0  0
 35138  1  0  0  0
 36 37  1  0  0  0
 36 39  1  0  0  0
 36139  1  0  0  0
 37 38  2  0  0  0
 37 43  1  0  0  0
 39 40  1  0  0  0
 39140  1  0  0  0
 39141  1  0  0  0
 40 41  2  0  0  0
 40 42  1  0  0  0
 42142  1  0  0  0
 42143  1  0  0  0
 43 44  1  0  0  0
 43144  1  0  0  0
 44 45  1  0  0  0
 44 47  1  0  0  0
 44145  1  0  0  0
 45 46  2  0  0  0
 45 51  1  0  0  0
 47 48  1  0  0  0
 47146  1  0  0  0
 47147  1  0  0  0
 48 49  2  0  0  0
 48 50  1  0  0  0
 50148  1  0  0  0
 50149  1  0  0  0
 51 52  1  0  0  0
 51150  1  0  0  0
 52 53  1  0  0  0
 52 55  1  0  0  0
 52151  1  0  0  0
 53 54  2  0  0  0
 53 59  1  0  0  0
 55 56  1  0  0  0
 55152  1  0  0  0
 55153  1  0  0  0
 56 57  2  0  0  0
 56 58  1  0  0  0
 58154  1  0  0  0
 58155  1  0  0  0
 59 60  1  0  0  0
 59156  1  0  0  0
 60 61  1  0  0  0
 60 63  1  0  0  0
 60157  1  0  0  0
 61 62  2  0  0  0
 61 99  1  0  0  0
 63 64  1  0  0  0
 63158  1  0  0  0
 63159  1  0  0  0
 64 65  1  0  0  0
 64 66  1  0  0  0
 64160  1  0  0  0
 65161  1  0  0  0
 65162  1  0  0  0
 65163  1  0  0  0
 66164  1  0  0  0
 66165  1  0  0  0
 66166  1  0  0  0
 67 68  1  0  0  0
 67 69  2  0  0  0
 67 82  1  0  0  0
 68167  1  0  0  0
 69 70  1  0  0  0
 69168  1  0  0  0
 70 71  1  0  0  0
 70 80  2  0  0  0
 71 72  1  0  0  0
 72 73  2  0  0  0
 72 78  1  0  0  0
 73 74  1  0  0  0
 73169  1  0  0  0
 74 75  1  0  0  0
 74 76  2  0  0  0
 75170  1  0  0  0
 76 77  1  0  0  0
 76171  1  0  0  0
 77 78  2  0  0  0
 77172  1  0  0  0
 78 79  1  0  0  0
 79 80  1  0  0  0
 79 83  1  0  0  0
 79173  1  0  0  0
 80 81  1  0  0  0
 81 82  2  0  0  0
 81174  1  0  0  0
 82175  1  0  0  0
 83 84  2  0  0  0
 83 88  1  0  0  0
 84 85  1  0  0  0
 84176  1  0  0  0
 85 86  2  0  0  0
 85177  1  0  0  0
 86 87  1  0  0  0
 86 92  1  0  0  0
 87 88  2  0  0  0
 87178  1  0  0  0
 88 89  1  0  0  0
 89 90  2  0  0  0
 89 91  1  0  0  0
 91179  1  0  0  0
 92 93  1  0  0  0
 92180  1  0  0  0
 93 94  2  0  0  0
 93 95  1  0  0  0
 95 96  1  0  0  0
 95181  1  0  0  0
 95182  1  0  0  0
 96 97  1  0  0  0
 97 98  1  0  0  0
 97183  1  0  0  0
 97184  1  0  0  0
 98 99  1  0  0  0
 98101  1  0  0  0
 98185  1  0  0  0
 99186  1  0  0  0
100101  2  0  0  0
101102  1  0  0  0
102187  1  0  0  0
102188  1  0  0  0
M  CHG  1  19   1
M  END
> <s_m_source_file>
../2mpa_ligand.sdf

> <i_m_source_file_index>
1

> <s_epik_input>
Tz1DKFtDSDNdKVtOSF1bQ0BASF0oW0NASF0oW09IXSlbQ0gzXSlDKD1PKVtOSF1bQ0BASF0oW0NIMl1bQ0gyXVtDSDJdW0NIMl1bTkgzK10pQyg9TylbTkhdW0NAQEhdKFtDSDJdQyg9TylbT0hdKUMoPU8pW05IXVtDQEBIXShbQ0BIXShbT0hdKVtDSDNdKUMoPU8pW05IXVtDQEBIXShbQ0gyXUMoPU8pW05IMl0pQyg9TylbTkhdW0NAQEhdKFtDSDJdQyg9TylbTkgyXSlDKD1PKVtOSF1bQ0BASF0oW0NIMl1DKD1PKVtOSDJdKUMoPU8pW05IXVtDQEBIXShbQ0gyXVtDSF0oW0NIM10pW0NIM10pQyg9TylbTkhdW0NASF0oQyg9TylbTkgyXSlbQ0gyXVNbQ0gyXUMoPU8pW05IXWMoW2NIXWMxQyg9TylbT0hdKVtjSF1bY0hdYzFbQ0hdKGMoYzIzKVtjSF1bY0hdYyhbT0hdKVtjSF0yKWM0YyhPMylbY0hdYyhbT0hdKVtjSF1bY0hdNA==

> <s_epik_cmdline>
J2VwaWtfYXBwJywgJy1pbWFlJywgJ2xpZ2FuZF9wcm8ubWFlJywgJy1vbWFlJywgJ2xpZ2FuZF9wcmVwLm1hZScsICctbXMnLCAnMScsICctcGgnLCAnNycsICctcGh0JywgJzAuNScsICctbnQn

> <s_epik_pKa_notes>
Molecule size exceeds maximum supported for generating protonation states

$$$$
