2mpm_ligand
                    3D
 Schrodinger Suite 2020-3.
253255  0  0  1  0            999 V2000
  -13.4970    8.9000   13.0690 N   0  3  0  0  0  0
  -12.8020    8.9450   14.3880 C   0  0  2  0  0  0
  -11.3360    9.3050   14.1750 C   0  0  0  0  0  0
  -10.8000    9.1440   13.0790 O   0  0  0  0  0  0
  -12.9120    7.5790   15.0660 C   0  0  0  0  0  0
  -14.3860    7.1950   15.2070 C   0  0  0  0  0  0
  -12.1930    6.5300   14.2170 C   0  0  0  0  0  0
  -10.6920    9.7930   15.2310 N   0  0  0  0  0  0
   -9.2860   10.1710   15.1480 C   0  0  2  0  0  0
   -9.0920   11.2650   14.0970 C   0  0  0  0  0  0
   -9.7970   12.2740   14.1060 O   0  0  0  0  0  0
   -8.4380    8.9410   14.7960 C   0  0  0  0  0  0
   -6.9750    9.1860   15.1840 C   0  0  0  0  0  0
   -6.8000    9.0290   16.6920 C   0  0  0  0  0  0
   -6.9350    7.9150   17.1700 O   0  0  0  0  0  0
   -6.5340   10.0250   17.3450 O   0  0  0  0  0  0
   -8.1360   11.0610   13.1960 N   0  0  0  0  0  0
   -7.8650   12.0390   12.1490 C   0  0  2  0  0  0
   -7.0720   11.4010   11.0130 C   0  0  0  0  0  0
   -5.8420   11.4470   11.0010 O   0  0  0  0  0  0
   -7.0780   13.2180   12.7260 C   0  0  2  0  0  0
   -7.7590   13.7280   13.8640 O   0  0  0  0  0  0
   -6.9520   14.3160   11.6690 C   0  0  0  0  0  0
   -7.7840   10.8090   10.0600 N   0  0  0  0  0  0
   -7.1350   10.1660    8.9230 C   0  0  2  0  0  0
   -6.5970   11.2160    7.9540 C   0  0  0  0  0  0
   -7.0760   11.3350    6.8260 O   0  0  0  0  0  0
   -8.1330    9.2520    8.1970 C   0  0  0  0  0  0
   -8.3180    7.9650    8.9780 C   0  0  0  0  0  0
   -8.8690    8.0030   10.2660 C   0  0  0  0  0  0
   -7.9410    6.7350    8.4150 C   0  0  0  0  0  0
   -9.0410    6.8170   10.9910 C   0  0  0  0  0  0
   -8.1150    5.5510    9.1410 C   0  0  0  0  0  0
   -8.6640    5.5920   10.4280 C   0  0  0  0  0  0
   -5.6010   11.9750    8.4000 N   0  0  0  0  0  0
   -5.0070   13.0100    7.5620 C   0  0  0  0  0  0
   -4.2590   14.0380    8.4060 C   0  0  0  0  0  0
   -4.8630   14.7690    9.1900 O   0  0  0  0  0  0
   -2.9410   14.0870    8.2380 N   0  0  0  0  0  0
   -2.1180   15.0310    8.9880 C   0  0  2  0  0  0
   -0.7140   15.1060    8.3950 C   0  0  0  0  0  0
   -0.3010   14.2270    7.6400 O   0  0  0  0  0  0
   -2.0330   14.6000   10.4550 C   0  0  2  0  0  0
   -3.3440   14.4510   10.9800 O   0  0  0  0  0  0
   -1.2740   15.6560   11.2630 C   0  0  0  0  0  0
    0.0140   16.1640    8.7400 N   0  0  0  0  0  0
    1.3710   16.3450    8.2340 C   0  0  2  0  0  0
    2.3110   15.3010    8.8280 C   0  0  0  0  0  0
    2.0330   14.7290    9.8830 O   0  0  0  0  0  0
    1.8750   17.7470    8.5850 C   0  0  2  0  0  0
    1.8520   17.9170    9.9940 O   0  0  0  0  0  0
    0.9760   18.7950    7.9270 C   0  0  0  0  0  0
    3.4240   15.0570    8.1440 N   0  0  0  0  0  0
    4.4010   14.0790    8.6100 C   0  0  2  0  0  0
    3.7360   12.7280    8.8500 C   0  0  0  0  0  0
    2.5100   12.6290    8.8990 O   0  0  0  0  0  0
    5.0510   14.5680    9.9050 C   0  0  0  0  0  0
    5.7760   13.4990   10.4980 O   0  0  0  0  0  0
    4.5520   11.6890    9.0040 N   0  0  0  0  0  0
    4.0290   10.3460    9.2410 C   0  0  1  0  0  0
    3.5550    9.7300    7.9220 C   0  0  0  0  0  0
    3.1440    8.2890    8.1460 C   0  0  0  0  0  0
    3.8110    7.2570    7.4720 C   0  0  0  0  0  0
    2.0990    7.9850    9.0290 C   0  0  0  0  0  0
    3.4330    5.9240    7.6830 C   0  0  0  0  0  0
    1.7230    6.6530    9.2370 C   0  0  0  0  0  0
    2.3900    5.6230    8.5650 C   0  0  0  0  0  0
    2.0200    4.3130    8.7720 O   0  0  0  0  0  0
    0.6150    3.8380    8.3730 S   0  0  0  0  0  0
    0.4880    3.8550    6.8880 O   0  0  0  0  0  0
    0.3970    2.4520    8.8750 O   0  0  0  0  0  0
   -0.4040    4.7480    8.9690 O   0  0  0  0  0  0
    5.0970    9.4620    9.8870 C   0  0  0  0  0  0
    4.8350    8.3130   10.2410 O   0  0  0  0  0  0
    6.2960   10.0190   10.0540 N   0  0  0  0  0  0
    7.4020    9.2920   10.6790 C   0  0  1  0  0  0
    8.2260    8.5370    9.6180 C   0  0  0  0  0  0
    7.5320    7.2440    9.2300 C   0  0  0  0  0  0
    7.0910    7.0480    7.9130 C   0  0  0  0  0  0
    7.3400    6.2380   10.1860 C   0  0  0  0  0  0
    6.4600    5.8500    7.5560 C   0  0  0  0  0  0
    6.7060    5.0410    9.8270 C   0  0  0  0  0  0
    6.2650    4.8490    8.5130 C   0  0  0  0  0  0
    5.6450    3.6710    8.1620 O   0  0  0  0  0  0
    4.6000    3.0440    9.0960 S   0  0  0  0  0  0
    4.0390    4.0960    9.9900 O   0  0  0  0  0  0
    3.5040    2.4430    8.2850 O   0  0  0  0  0  0
    5.2450    1.9840    9.9210 O   0  0  0  0  0  0
    8.3010   10.2750   11.4280 C   0  0  0  0  0  0
    9.5280   10.1990   11.3500 O   0  0  0  0  0  0
    7.6780   11.2000   12.1520 N   0  0  0  0  0  0
    8.4240   12.1980   12.9100 C   0  0  2  0  0  0
    9.5760   11.5490   13.6690 C   0  0  0  0  0  0
   10.6000   12.1830   13.9240 O   0  0  0  0  0  0
    7.4950   12.9060   13.8980 C   0  0  0  0  0  0
    6.9450   11.9020   14.9060 C   0  0  0  0  0  0
    6.4020   10.8970   14.4760 O   0  0  0  0  0  0
    7.0750   12.1540   16.0930 O   0  0  0  0  0  0
    9.4030   10.2820   14.0280 N   0  0  0  0  0  0
   10.4370    9.5580   14.7580 C   0  0  2  0  0  0
   11.6080    9.2250   13.8380 C   0  0  0  0  0  0
   12.7560    9.1680   14.2770 O   0  0  0  0  0  0
    9.8590    8.2650   15.3390 C   0  0  0  0  0  0
    8.8950    8.5910   16.4740 C   0  0  0  0  0  0
    9.2880    9.3230   17.3680 O   0  0  0  0  0  0
    7.7770    8.1030   16.4340 O   0  0  0  0  0  0
   11.3050    9.0090   12.5620 N   0  0  0  0  0  0
   12.3340    8.6820   11.5800 C   0  0  2  0  0  0
   13.0200    7.3680   11.9380 C   0  0  0  0  0  0
   12.8450    6.3600   11.2520 O   0  0  0  0  0  0
   13.3730    9.8040   11.5110 C   0  0  0  0  0  0
   14.2160    9.6460   10.2440 C   0  0  0  0  0  0
   12.6580   11.1570   11.4810 C   0  0  0  0  0  0
   13.7990    7.3810   13.0170 N   0  0  0  0  0  0
   14.5020    6.1790   13.4560 C   0  0  0  0  0  0
   13.5740    4.9680   13.4250 C   0  0  0  0  0  0
   14.0250    3.8240   13.4800 O   0  0  0  0  0  0
   12.2740    5.2330   13.3310 N   0  0  0  0  0  0
   11.2740    4.1700   13.2860 C   0  0  2  0  0  0
   11.7560    3.0270   12.3930 C   0  0  0  0  0  0
   11.6210    1.8540   12.7420 O   0  0  0  0  0  0
    9.9510    4.7580   12.7610 C   0  0  0  0  0  0
    8.8540    3.6790   12.5980 C   0  0  0  0  0  0
    9.1050    2.7920   11.3550 C   0  0  0  0  0  0
    8.7770    2.8130   13.8650 C   0  0  0  0  0  0
   12.3330    3.3800   11.2450 N   0  0  0  0  0  0
   12.8470    2.3800   10.3050 C   0  0  2  0  0  0
   13.5140    1.2250   11.0560 C   0  0  0  0  0  0
   14.5930    1.4340   11.5870 O   0  0  0  0  0  0
   13.8590    3.0430    9.3510 C   0  0  0  0  0  0
   13.9430    2.2880    8.0070 C   0  0  0  0  0  0
   14.1610    0.7910    8.2530 C   0  0  0  0  0  0
   12.6580    2.4980    7.1800 C   0  0  0  0  0  0
   12.9340    0.1510   11.0870 O   0  0  0  0  0  0
  -13.4189    9.8821   12.5797 H   0  0  0  0  0  0
  -14.5572    8.6496   13.2216 H   0  0  0  0  0  0
  -13.0274    8.1351   12.4331 H   0  0  0  0  0  0
  -13.2845    9.7122   15.0114 H   0  0  0  0  0  0
  -12.4483    7.6272   16.0623 H   0  0  0  0  0  0
  -14.9045    7.9489   15.8176 H   0  0  0  0  0  0
  -14.4638    6.2119   15.6942 H   0  0  0  0  0  0
  -14.8496    7.1482   14.2106 H   0  0  0  0  0  0
  -11.1328    6.8049   14.1148 H   0  0  0  0  0  0
  -12.6574    6.4834   13.2209 H   0  0  0  0  0  0
  -12.2716    5.5471   14.7046 H   0  0  0  0  0  0
  -11.2379    9.9098   16.1788 H   0  0  0  0  0  0
   -9.0122   10.5576   16.1408 H   0  0  0  0  0  0
   -8.8166    8.0656   15.3441 H   0  0  0  0  0  0
   -8.4991    8.7509   13.7143 H   0  0  0  0  0  0
   -6.3319    8.4579   14.6679 H   0  0  0  0  0  0
   -6.6836   10.2053   14.8906 H   0  0  0  0  0  0
   -6.4009    9.9492   18.4343 H   0  0  0  0  0  0
   -7.5447   10.1350   13.2500 H   0  0  0  0  0  0
   -8.8487   12.3674   11.7823 H   0  0  0  0  0  0
   -6.0897   12.9021   13.0913 H   0  0  0  0  0  0
   -7.9434   13.0777   14.7318 H   0  0  0  0  0  0
   -6.4246   13.9191   10.7891 H   0  0  0  0  0  0
   -6.3857   15.1622   12.0851 H   0  0  0  0  0  0
   -7.9551   14.6564   11.3726 H   0  0  0  0  0  0
   -8.8812   10.8093   10.1391 H   0  0  0  0  0  0
   -6.3027    9.5813    9.3418 H   0  0  0  0  0  0
   -9.1022    9.7647    8.1082 H   0  0  0  0  0  0
   -7.7502    9.0152    7.1933 H   0  0  0  0  0  0
   -9.1640    8.9565   10.7040 H   0  0  0  0  0  0
   -7.5131    6.7023    7.4131 H   0  0  0  0  0  0
   -9.4683    6.8478   11.9933 H   0  0  0  0  0  0
   -7.8228    4.5962    8.7038 H   0  0  0  0  0  0
   -8.7981    4.6692   10.9924 H   0  0  0  0  0  0
   -5.2256   11.8112    9.4209 H   0  0  0  0  0  0
   -4.2980   12.5497    6.8581 H   0  0  0  0  0  0
   -5.7992   13.5259    6.9996 H   0  0  0  0  0  0
   -2.4723   13.3995    7.5185 H   0  0  0  0  0  0
   -2.6178   16.0065    8.8950 H   0  0  0  0  0  0
   -1.5621   13.6108   10.5541 H   0  0  0  0  0  0
   -4.0404   13.7315   10.5246 H   0  0  0  0  0  0
   -0.2588   15.7701   10.8550 H   0  0  0  0  0  0
   -1.2131   15.3392   12.3146 H   0  0  0  0  0  0
   -1.8048   16.6174   11.1998 H   0  0  0  0  0  0
   -0.4238   16.9102    9.4194 H   0  0  0  0  0  0
    1.3056   16.2120    7.1440 H   0  0  0  0  0  0
    2.9260   17.8826    8.2902 H   0  0  0  0  0  0
    2.4429   17.2494   10.6383 H   0  0  0  0  0  0
    0.9954   18.6613    6.8353 H   0  0  0  0  0  0
    1.3406   19.8016    8.1797 H   0  0  0  0  0  0
   -0.0545   18.6758    8.2928 H   0  0  0  0  0  0
    3.6014   15.6094    7.2094 H   0  0  0  0  0  0
    5.1469   13.9918    7.8062 H   0  0  0  0  0  0
    5.7365   15.3985    9.6803 H   0  0  0  0  0  0
    4.2708   14.9140   10.5990 H   0  0  0  0  0  0
    6.3158   13.6581   11.4432 H   0  0  0  0  0  0
    5.6381   11.8547    8.9502 H   0  0  0  0  0  0
    3.1812   10.4652    9.9317 H   0  0  0  0  0  0
    2.6940   10.2983    7.5404 H   0  0  0  0  0  0
    4.3722    9.7647    7.1865 H   0  0  0  0  0  0
    4.6234    7.4910    6.7840 H   0  0  0  0  0  0
    1.5789    8.7862    9.5540 H   0  0  0  0  0  0
    3.9522    5.1213    7.1594 H   0  0  0  0  0  0
    0.9095    6.4178    9.9234 H   0  0  0  0  0  0
   -0.4021    5.8180    8.7140 H   0  0  0  0  0  0
    6.4431   11.0528    9.7081 H   0  0  0  0  0  0
    6.9413    8.5790   11.3786 H   0  0  0  0  0  0
    8.3362    9.1668    8.7229 H   0  0  0  0  0  0
    9.2203    8.3015   10.0252 H   0  0  0  0  0  0
    7.2396    7.8287    7.1670 H   0  0  0  0  0  0
    7.6840    6.3865   11.2096 H   0  0  0  0  0  0
    6.1206    5.6975    6.5315 H   0  0  0  0  0  0
    6.5563    4.2592   10.5716 H   0  0  0  0  0  0
    3.5213    4.9655    9.5588 H   0  0  0  0  0  0
    6.5782   11.2030   12.1722 H   0  0  0  0  0  0
    8.8179   12.9052   12.1652 H   0  0  0  0  0  0
    8.0554   13.6868   14.4331 H   0  0  0  0  0  0
    6.6586   13.3650   13.3505 H   0  0  0  0  0  0
    5.9937   10.1511   15.1738 H   0  0  0  0  0  0
    8.4605    9.7791   13.7656 H   0  0  0  0  0  0
   10.7678   10.2345   15.5598 H   0  0  0  0  0  0
    9.3201    7.7179   14.5514 H   0  0  0  0  0  0
   10.6767    7.6393   15.7262 H   0  0  0  0  0  0
    7.0548    8.3163   17.2358 H   0  0  0  0  0  0
   10.2521    9.0813   12.2520 H   0  0  0  0  0  0
   11.8079    8.5800   10.6193 H   0  0  0  0  0  0
   14.0276    9.7515   12.3934 H   0  0  0  0  0  0
   14.7303    8.6738   10.2647 H   0  0  0  0  0  0
   14.9609   10.4540   10.1961 H   0  0  0  0  0  0
   13.5628    9.6966    9.3604 H   0  0  0  0  0  0
   12.0516   11.2715   12.3916 H   0  0  0  0  0  0
   12.0052   11.2072   10.5970 H   0  0  0  0  0  0
   13.4033   11.9646   11.4328 H   0  0  0  0  0  0
   13.9084    8.3190   13.5810 H   0  0  0  0  0  0
   15.3556    5.9892   12.7887 H   0  0  0  0  0  0
   14.8652    6.3216   14.4845 H   0  0  0  0  0  0
   11.9595    6.2862   13.2869 H   0  0  0  0  0  0
   11.1552    3.7905   14.3116 H   0  0  0  0  0  0
    9.5812    5.5164   13.4667 H   0  0  0  0  0  0
   10.1206    5.2230   11.7787 H   0  0  0  0  0  0
    7.8903    4.1900   12.4562 H   0  0  0  0  0  0
    9.1576    3.4254   10.4572 H   0  0  0  0  0  0
    8.2817    2.0705   11.2471 H   0  0  0  0  0  0
   10.0542    2.2496   11.4772 H   0  0  0  0  0  0
    8.5985    3.4568   14.7389 H   0  0  0  0  0  0
    9.7249    2.2707   13.9966 H   0  0  0  0  0  0
    7.9525    2.0916   13.7665 H   0  0  0  0  0  0
   12.4189    4.4512   11.0100 H   0  0  0  0  0  0
   11.9747    1.9996    9.7532 H   0  0  0  0  0  0
   13.5494    4.0794    9.1507 H   0  0  0  0  0  0
   14.8561    3.0414    9.8155 H   0  0  0  0  0  0
   14.7986    2.6834    7.4399 H   0  0  0  0  0  0
   15.0781    0.6461    8.8429 H   0  0  0  0  0  0
   14.2595    0.2715    7.2884 H   0  0  0  0  0  0
   13.3019    0.3811    8.8042 H   0  0  0  0  0  0
   12.5056    3.5734    7.0060 H   0  0  0  0  0  0
   11.7972    2.0900    7.7301 H   0  0  0  0  0  0
   12.7548    1.9804    6.2143 H   0  0  0  0  0  0
   13.3832   -0.7016   11.6174 H   0  0  0  0  0  0
  1  2  1  0  0  0
  1135  1  0  0  0
  1136  1  0  0  0
  1137  1  0  0  0
  2  3  1  0  0  0
  2  5  1  0  0  0
  2138  1  0  0  0
  3  4  2  0  0  0
  3  8  1  0  0  0
  5  6  1  0  0  0
  5  7  1  0  0  0
  5139  1  0  0  0
  6140  1  0  0  0
  6141  1  0  0  0
  6142  1  0  0  0
  7143  1  0  0  0
  7144  1  0  0  0
  7145  1  0  0  0
  8  9  1  0  0  0
  8146  1  0  0  0
  9 10  1  0  0  0
  9 12  1  0  0  0
  9147  1  0  0  0
 10 11  2  0  0  0
 10 17  1  0  0  0
 12 13  1  0  0  0
 12148  1  0  0  0
 12149  1  0  0  0
 13 14  1  0  0  0
 13150  1  0  0  0
 13151  1  0  0  0
 14 15  2  0  0  0
 14 16  1  0  0  0
 16152  1  0  0  0
 17 18  1  0  0  0
 17153  1  0  0  0
 18 19  1  0  0  0
 18 21  1  0  0  0
 18154  1  0  0  0
 19 20  2  0  0  0
 19 24  1  0  0  0
 21 22  1  0  0  0
 21 23  1  0  0  0
 21155  1  0  0  0
 22156  1  0  0  0
 23157  1  0  0  0
 23158  1  0  0  0
 23159  1  0  0  0
 24 25  1  0  0  0
 24160  1  0  0  0
 25 26  1  0  0  0
 25 28  1  0  0  0
 25161  1  0  0  0
 26 27  2  0  0  0
 26 35  1  0  0  0
 28 29  1  0  0  0
 28162  1  0  0  0
 28163  1  0  0  0
 29 30  2  0  0  0
 29 31  1  0  0  0
 30 32  1  0  0  0
 30164  1  0  0  0
 31 33  2  0  0  0
 31165  1  0  0  0
 32 34  2  0  0  0
 32166  1  0  0  0
 33 34  1  0  0  0
 33167  1  0  0  0
 34168  1  0  0  0
 35 36  1  0  0  0
 35169  1  0  0  0
 36 37  1  0  0  0
 36170  1  0  0  0
 36171  1  0  0  0
 37 38  2  0  0  0
 37 39  1  0  0  0
 39 40  1  0  0  0
 39172  1  0  0  0
 40 41  1  0  0  0
 40 43  1  0  0  0
 40173  1  0  0  0
 41 42  2  0  0  0
 41 46  1  0  0  0
 43 44  1  0  0  0
 43 45  1  0  0  0
 43174  1  0  0  0
 44175  1  0  0  0
 45176  1  0  0  0
 45177  1  0  0  0
 45178  1  0  0  0
 46 47  1  0  0  0
 46179  1  0  0  0
 47 48  1  0  0  0
 47 50  1  0  0  0
 47180  1  0  0  0
 48 49  2  0  0  0
 48 53  1  0  0  0
 50 51  1  0  0  0
 50 52  1  0  0  0
 50181  1  0  0  0
 51182  1  0  0  0
 52183  1  0  0  0
 52184  1  0  0  0
 52185  1  0  0  0
 53 54  1  0  0  0
 53186  1  0  0  0
 54 55  1  0  0  0
 54 57  1  0  0  0
 54187  1  0  0  0
 55 56  2  0  0  0
 55 59  1  0  0  0
 57 58  1  0  0  0
 57188  1  0  0  0
 57189  1  0  0  0
 58190  1  0  0  0
 59 60  1  0  0  0
 59191  1  0  0  0
 60 61  1  0  0  0
 60 73  1  0  0  0
 60192  1  0  0  0
 61 62  1  0  0  0
 61193  1  0  0  0
 61194  1  0  0  0
 62 63  2  0  0  0
 62 64  1  0  0  0
 63 65  1  0  0  0
 63195  1  0  0  0
 64 66  2  0  0  0
 64196  1  0  0  0
 65 67  2  0  0  0
 65197  1  0  0  0
 66 67  1  0  0  0
 66198  1  0  0  0
 67 68  1  0  0  0
 68 69  1  0  0  0
 69 70  2  0  0  0
 69 71  2  0  0  0
 69 72  1  0  0  0
 72199  1  0  0  0
 73 74  2  0  0  0
 73 75  1  0  0  0
 75 76  1  0  0  0
 75200  1  0  0  0
 76 77  1  0  0  0
 76 89  1  0  0  0
 76201  1  0  0  0
 77 78  1  0  0  0
 77202  1  0  0  0
 77203  1  0  0  0
 78 79  2  0  0  0
 78 80  1  0  0  0
 79 81  1  0  0  0
 79204  1  0  0  0
 80 82  2  0  0  0
 80205  1  0  0  0
 81 83  2  0  0  0
 81206  1  0  0  0
 82 83  1  0  0  0
 82207  1  0  0  0
 83 84  1  0  0  0
 84 85  1  0  0  0
 85 86  1  0  0  0
 85 87  2  0  0  0
 85 88  2  0  0  0
 86208  1  0  0  0
 89 90  2  0  0  0
 89 91  1  0  0  0
 91 92  1  0  0  0
 91209  1  0  0  0
 92 93  1  0  0  0
 92 95  1  0  0  0
 92210  1  0  0  0
 93 94  2  0  0  0
 93 99  1  0  0  0
 95 96  1  0  0  0
 95211  1  0  0  0
 95212  1  0  0  0
 96 97  1  0  0  0
 96 98  2  0  0  0
 97213  1  0  0  0
 99100  1  0  0  0
 99214  1  0  0  0
100101  1  0  0  0
100103  1  0  0  0
100215  1  0  0  0
101102  2  0  0  0
101107  1  0  0  0
103104  1  0  0  0
103216  1  0  0  0
103217  1  0  0  0
104105  2  0  0  0
104106  1  0  0  0
106218  1  0  0  0
107108  1  0  0  0
107219  1  0  0  0
108109  1  0  0  0
108111  1  0  0  0
108220  1  0  0  0
109110  2  0  0  0
109114  1  0  0  0
111112  1  0  0  0
111113  1  0  0  0
111221  1  0  0  0
112222  1  0  0  0
112223  1  0  0  0
112224  1  0  0  0
113225  1  0  0  0
113226  1  0  0  0
113227  1  0  0  0
114115  1  0  0  0
114228  1  0  0  0
115116  1  0  0  0
115229  1  0  0  0
115230  1  0  0  0
116117  2  0  0  0
116118  1  0  0  0
118119  1  0  0  0
118231  1  0  0  0
119120  1  0  0  0
119122  1  0  0  0
119232  1  0  0  0
120121  2  0  0  0
120126  1  0  0  0
122123  1  0  0  0
122233  1  0  0  0
122234  1  0  0  0
123124  1  0  0  0
123125  1  0  0  0
123235  1  0  0  0
124236  1  0  0  0
124237  1  0  0  0
124238  1  0  0  0
125239  1  0  0  0
125240  1  0  0  0
125241  1  0  0  0
126127  1  0  0  0
126242  1  0  0  0
127128  1  0  0  0
127130  1  0  0  0
127243  1  0  0  0
128129  2  0  0  0
128134  1  0  0  0
130131  1  0  0  0
130244  1  0  0  0
130245  1  0  0  0
131132  1  0  0  0
131133  1  0  0  0
131246  1  0  0  0
132247  1  0  0  0
132248  1  0  0  0
132249  1  0  0  0
133250  1  0  0  0
133251  1  0  0  0
133252  1  0  0  0
134253  1  0  0  0
M  CHG  1   1   1
M  END
> <s_m_source_file>
../2mpm_ligand.sdf

> <i_m_source_file_index>
1

> <s_epik_input>
W0NIM11bQ0hdKFtDSDNdKVtDQEhdKFtOSDMrXSlDKD1PKVtOSF1bQ0BASF0oW0NIMl1bQ0gyXUMoPU8pW09IXSlDKD1PKVtOSF1bQ0BASF0oW0NASF0oW09IXSlbQ0gzXSlDKD1PKVtOSF1bQ0BASF0oW0NIMl1jMVtjSF1bY0hdW2NIXVtjSF1bY0hdMSlDKD1PKVtOSF1bQ0gyXUMoPU8pW05IXVtDQEBIXShbQ0BIXShbT0hdKVtDSDNdKUMoPU8pW05IXVtDQEBIXShbQ0BIXShbT0hdKVtDSDNdKUMoPU8pW05IXVtDQEBIXShbQ0gyXVtPSF0pQyg9TylbTkhdW0NAQEhdKFtDSDJdYzJbY0hdW2NIXWMoW2NIXVtjSF0yKU9TKD1PKSg9TylbT0hdKUMoPU8pW05IXVtDQEBIXShbQ0gyXWMzW2NIXVtjSF1jKFtjSF1bY0hdMylPUyg9TykoPU8pW09IXSlDKD1PKVtOSF1bQ0BASF0oW0NIMl1DKD1PKVtPSF0pQyg9TylbTkhdW0NAQEhdKFtDSDJdQyg9TylbT0hdKUMoPU8pW05IXVtDQEBIXShbQ0hdKFtDSDNdKVtDSDNdKUMoPU8pW05IXVtDSDJdQyg9TylbTkhdW0NAQEhdKFtDSDJdW0NIXShbQ0gzXSlbQ0gzXSlDKD1PKVtOSF1bQ0BIXShDKD1PKVtPSF0pW0NIMl1bQ0hdKFtDSDNdKVtDSDNd

> <s_epik_cmdline>
J2VwaWtfYXBwJywgJy1pbWFlJywgJ2xpZ2FuZF9wcm8ubWFlJywgJy1vbWFlJywgJ2xpZ2FuZF9wcmVwLm1hZScsICctbXMnLCAnMScsICctcGgnLCAnNycsICctcGh0JywgJzAuNScsICctbnQn

> <s_epik_pKa_notes>
Molecule size exceeds maximum supported for generating protonation states

$$$$
