2mps_ligand
                    3D
 Schrodinger Suite 2020-3.
237241  0  0  1  0            999 V2000
   61.0240    0.1560    9.3120 N   0  3  0  0  0  0
   60.0600   -0.5230   10.2040 C   0  0  2  0  0  0
   60.7560   -1.2690   11.3240 C   0  0  0  0  0  0
   60.1200   -1.9740   12.1130 O   0  0  0  0  0  0
   59.1350   -1.4580    9.4340 C   0  0  0  0  0  0
   59.8820   -2.4760    8.6330 C   0  0  0  0  0  0
   60.2930   -3.5050    9.1680 O   0  0  0  0  0  0
   60.0660   -2.2670    7.4260 O   0  0  0  0  0  0
   62.0400   -1.1130   11.4010 N   0  0  0  0  0  0
   62.7920   -1.6990   12.4530 C   0  0  0  0  0  0
   63.6030   -2.8590   11.9810 C   0  0  0  0  0  0
   64.6510   -2.6940   11.3360 O   0  0  0  0  0  0
   63.1130   -3.9990   12.2650 N   0  0  0  0  0  0
   63.7600   -5.2310   11.9210 C   0  0  0  0  0  0
   62.7730   -6.3440   12.0340 C   0  0  0  0  0  0
   62.9210   -7.2570   12.8610 O   0  0  0  0  0  0
   61.7630   -6.2610   11.2280 N   0  0  0  0  0  0
   60.6690   -7.1710   11.2580 C   0  0  2  0  0  0
   61.0620   -8.5580   10.7290 C   0  0  0  0  0  0
   61.7900   -8.6800    9.7310 O   0  0  0  0  0  0
   59.4670   -6.5420   10.5270 C   0  0  2  0  0  0
   59.8810   -6.0260    9.2440 O   0  0  0  0  0  0
   58.9250   -5.3910   11.3660 C   0  0  0  0  0  0
   60.6220   -9.5920   11.4360 N   0  0  0  0  0  0
   61.0170  -10.9460   11.1230 C   0  0  2  0  0  0
   60.4560  -11.4180    9.7980 C   0  0  0  0  0  0
   59.2640  -11.1920    9.4810 O   0  0  0  0  0  0
   60.6700  -11.9680   12.2580 C   0  0  2  0  0  0
   61.1200  -13.2840   11.8940 O   0  0  0  0  0  0
   59.1750  -12.0180   12.5480 C   0  0  0  0  0  0
   61.3170  -12.1050    9.0380 N   0  0  0  0  0  0
   60.9780  -12.6670    7.7430 C   0  0  2  0  0  0
   59.8020  -13.6370    7.8690 C   0  0  0  0  0  0
   58.9940  -13.7780    6.9610 O   0  0  0  0  0  0
   62.2050  -13.3680    7.1250 C   0  0  0  0  0  0
   61.9510  -13.9620    5.7710 C   0  0  0  0  0  0
   62.0520  -13.1860    4.6400 C   0  0  0  0  0  0
   61.5990  -15.2940    5.6320 C   0  0  0  0  0  0
   61.8070  -13.7200    3.4020 C   0  0  0  0  0  0
   61.3540  -15.8310    4.3960 C   0  0  0  0  0  0
   61.4580  -15.0390    3.2810 C   0  0  0  0  0  0
   59.6870  -14.2400    9.0340 N   0  0  0  0  0  0
   58.6620  -15.2180    9.3120 C   0  0  2  0  0  0
   57.2640  -14.5930    9.2240 C   0  0  0  0  0  0
   56.3250  -15.2050    8.7040 O   0  0  0  0  0  0
   58.8850  -15.7820   10.7110 C   0  0  0  0  0  0
   57.9170  -16.8750   11.1100 C   0  0  0  0  0  0
   58.1380  -17.3400   12.5170 C   0  0  0  0  0  0
   58.9310  -18.2720   12.7280 O   0  0  0  0  0  0
   57.5220  -16.7860   13.4370 O   0  0  0  0  0  0
   57.1470  -13.3580    9.6620 N   0  0  0  0  0  0
   55.8510  -12.7420    9.7700 C   0  0  2  0  0  0
   55.5080  -11.9260    8.5420 C   0  0  0  0  0  0
   54.4950  -12.1740    7.9110 O   0  0  0  0  0  0
   55.7530  -11.8700   11.0330 C   0  0  0  0  0  0
   54.3870  -11.2700   11.2690 C   0  0  0  0  0  0
   54.0860   -9.9500   11.0140 N   0  0  0  0  0  0
   53.2490  -11.8240   11.7480 C   0  0  0  0  0  0
   52.8330   -9.7130   11.3190 C   0  0  0  0  0  0
   52.2940  -10.8330   11.7700 N   0  0  0  0  0  0
   56.3760  -11.0040    8.1760 N   0  0  0  0  0  0
   56.0560  -10.0180    7.1290 C   0  0  2  0  0  0
   55.8660  -10.6470    5.7400 C   0  0  0  0  0  0
   55.2350  -10.0590    4.8600 O   0  0  0  0  0  0
   57.0840   -8.8610    7.1270 C   0  0  0  0  0  0
   58.4020   -8.9860    6.3290 C   0  0  0  0  0  0
   59.3360   -7.9120    6.7490 C   0  0  0  0  0  0
   59.0880  -10.2960    6.4950 C   0  0  0  0  0  0
   56.4000  -11.8340    5.5720 N   0  0  0  0  0  0
   56.2760  -12.5690    4.3500 C   0  0  2  0  0  0
   54.9640  -13.3420    4.3470 C   0  0  0  0  0  0
   54.2070  -13.2910    3.4010 O   0  0  0  0  0  0
   57.4850  -13.5010    4.1800 C   0  0  0  0  0  0
   57.3870  -14.4480    3.0280 C   0  0  0  0  0  0
   57.0220  -15.7410    3.0900 C   0  0  0  0  0  0
   57.6520  -14.1790    1.6520 C   0  0  0  0  0  0
   57.0360  -16.2990    1.8420 N   0  0  0  0  0  0
   57.4210  -15.3710    0.9430 C   0  0  0  0  0  0
   58.0570  -13.0600    0.9580 C   0  0  0  0  0  0
   57.5820  -15.4720   -0.4320 C   0  0  0  0  0  0
   58.2190  -13.1530   -0.4020 C   0  0  0  0  0  0
   57.9840  -14.3510   -1.0890 C   0  0  0  0  0  0
   54.6710  -13.9840    5.4540 N   0  0  0  0  0  0
   53.4890  -14.8130    5.5730 C   0  0  2  0  0  0
   52.2100  -13.9630    5.7340 C   0  0  0  0  0  0
   51.1120  -14.4690    5.6210 O   0  0  0  0  0  0
   53.6490  -15.7340    6.7810 C   0  0  0  0  0  0
   54.8890  -16.4440    6.7350 O   0  0  0  0  0  0
   52.3860  -12.6830    5.9820 N   0  0  0  0  0  0
   51.3040  -11.7610    6.2700 C   0  0  2  0  0  0
   51.1880  -10.6750    5.1970 C   0  0  0  0  0  0
   50.6020   -9.6000    5.4410 O   0  0  0  0  0  0
   51.5420  -11.1250    7.6360 C   0  0  0  0  0  0
   51.6050  -12.1190    8.6550 O   0  0  0  0  0  0
   51.7210  -10.9250    4.0150 N   0  0  0  0  0  0
   51.7430   -9.8740    3.0260 C   0  0  2  0  0  0
   50.5800   -9.9810    2.0660 C   0  0  0  0  0  0
   50.4020   -9.1220    1.2220 O   0  0  0  0  0  0
   53.1230   -9.7560    2.3070 C   0  0  0  0  0  0
   53.6240  -10.9190    1.4240 C   0  0  0  0  0  0
   52.9140  -10.9630    0.0760 C   0  0  0  0  0  0
   55.1200  -10.8120    1.2200 C   0  0  0  0  0  0
   49.7610  -10.9930    2.2520 N   0  0  0  0  0  0
   48.6500  -11.2520    1.3660 C   0  0  2  0  0  0
   47.5420  -10.1990    1.5930 C   0  0  0  0  0  0
   47.4670   -9.6130    2.6770 O   0  0  0  0  0  0
   48.0880  -12.6720    1.5870 C   0  0  0  0  0  0
   47.3380  -12.8550    2.8860 C   0  0  0  0  0  0
   48.1820  -13.0680    4.1020 C   0  0  0  0  0  0
   48.5500  -12.0780    4.7490 O   0  0  0  0  0  0
   48.4170  -14.2260    4.4720 O   0  0  0  0  0  0
   46.6810   -9.9510    0.5920 N   0  0  0  0  0  0
   45.6140   -8.9450    0.6880 C   0  0  2  0  0  0
   44.6820   -9.1650    1.8730 C   0  0  0  0  0  0
   44.7210   -8.4020    2.8450 O   0  0  0  0  0  0
   44.8620   -9.0470   -0.6480 C   0  0  0  0  0  0
   45.3510  -10.3020   -1.2970 C   0  0  0  0  0  0
   46.7050  -10.6070   -0.7150 C   0  0  0  0  0  0
   43.9050  -10.2140    1.8280 N   0  0  0  0  0  0
   42.9660  -10.5060    2.8760 C   0  0  2  0  0  0
   42.6000  -11.9470    2.8240 C   0  0  0  0  0  0
   42.0580  -12.3830    1.7970 O   0  0  0  0  0  0
   41.7180   -9.6360    2.7790 C   0  0  0  0  0  0
   40.6700  -10.0130    3.8160 C   0  0  0  0  0  0
   40.7880   -9.5590    4.9770 O   0  0  0  0  0  0
   39.7230  -10.7570    3.4960 O   0  0  0  0  0  0
   42.8670  -12.6730    3.7910 O   0  0  0  0  0  0
   61.6698    0.8188    9.9067 H   0  0  0  0  0  0
   60.4769    0.7504    8.5655 H   0  0  0  0  0  0
   61.6425   -0.5960    8.8002 H   0  0  0  0  0  0
   59.4636    0.2900   10.6438 H   0  0  0  0  0  0
   58.4855   -1.9952   10.1408 H   0  0  0  0  0  0
   58.5153   -0.8711    8.7400 H   0  0  0  0  0  0
   60.6129   -3.0023    6.8176 H   0  0  0  0  0  0
   62.5467   -0.5129   10.6308 H   0  0  0  0  0  0
   63.4776   -0.9495   12.8752 H   0  0  0  0  0  0
   62.1087   -2.0544   13.2383 H   0  0  0  0  0  0
   62.1506   -4.0132   12.7976 H   0  0  0  0  0  0
   64.1366   -5.1717   10.8892 H   0  0  0  0  0  0
   64.6003   -5.4083   12.6084 H   0  0  0  0  0  0
   61.7757   -5.4401   10.4959 H   0  0  0  0  0  0
   60.4333   -7.2967   12.3251 H   0  0  0  0  0  0
   58.6902   -7.2927   10.3194 H   0  0  0  0  0  0
   60.3038   -6.7047    8.4886 H   0  0  0  0  0  0
   58.6057   -5.7714   12.3475 H   0  0  0  0  0  0
   58.0657   -4.9355   10.8520 H   0  0  0  0  0  0
   59.7124   -4.6354   11.5040 H   0  0  0  0  0  0
   59.9408   -9.3984   12.2777 H   0  0  0  0  0  0
   62.1059  -10.8290   11.0202 H   0  0  0  0  0  0
   61.2040  -11.7048   13.1830 H   0  0  0  0  0  0
   62.1780  -13.4545   11.6460 H   0  0  0  0  0  0
   58.8220  -11.0144   12.8276 H   0  0  0  0  0  0
   58.9853  -12.7172   13.3757 H   0  0  0  0  0  0
   58.6385  -12.3585   11.6501 H   0  0  0  0  0  0
   62.3307  -12.2339    9.4452 H   0  0  0  0  0  0
   60.6767  -11.8101    7.1226 H   0  0  0  0  0  0
   63.0239  -12.6422    7.0125 H   0  0  0  0  0  0
   62.5293  -14.1875    7.7832 H   0  0  0  0  0  0
   62.3297  -12.1358    4.7293 H   0  0  0  0  0  0
   61.5158  -15.9235    6.5179 H   0  0  0  0  0  0
   61.8899  -13.0948    2.5130 H   0  0  0  0  0  0
   61.0781  -16.8811    4.2991 H   0  0  0  0  0  0
   61.2622  -15.4607    2.2951 H   0  0  0  0  0  0
   60.4153  -13.9699    9.8129 H   0  0  0  0  0  0
   58.7740  -15.9940    8.5405 H   0  0  0  0  0  0
   59.8958  -16.2110   10.7765 H   0  0  0  0  0  0
   58.7800  -14.9761   11.4523 H   0  0  0  0  0  0
   56.8864  -16.4984   11.0323 H   0  0  0  0  0  0
   58.0431  -17.7388   10.4407 H   0  0  0  0  0  0
   59.1041  -18.6249   13.7554 H   0  0  0  0  0  0
   58.0486  -12.7958    9.9466 H   0  0  0  0  0  0
   55.1661  -13.6008    9.8285 H   0  0  0  0  0  0
   55.9950  -12.4774   11.9176 H   0  0  0  0  0  0
   56.4633  -11.0335   10.9571 H   0  0  0  0  0  0
   52.9960  -12.8393   12.0873 H   0  0  0  0  0  0
   52.3224   -8.7553   11.2179 H   0  0  0  0  0  0
   57.3579  -10.9812    8.6714 H   0  0  0  0  0  0
   55.0700   -9.6280    7.4219 H   0  0  0  0  0  0
   56.6150   -7.9545    6.7167 H   0  0  0  0  0  0
   57.4192   -8.6665    8.1565 H   0  0  0  0  0  0
   58.1682   -8.9001    5.2576 H   0  0  0  0  0  0
   58.8460   -6.9340    6.6333 H   0  0  0  0  0  0
   60.2394   -7.9459    6.1223 H   0  0  0  0  0  0
   59.6149   -8.0600    7.8027 H   0  0  0  0  0  0
   58.4103  -11.1063    6.1881 H   0  0  0  0  0  0
   59.3682  -10.4321    7.5500 H   0  0  0  0  0  0
   59.9926  -10.3180    5.8696 H   0  0  0  0  0  0
   56.9604  -12.2615    6.4165 H   0  0  0  0  0  0
   56.2598  -11.8223    3.5425 H   0  0  0  0  0  0
   58.3921  -12.8995    4.0205 H   0  0  0  0  0  0
   57.6059  -14.1137    5.0855 H   0  0  0  0  0  0
   56.7533  -16.2689    4.0050 H   0  0  0  0  0  0
   58.2449  -12.1205    1.4778 H   0  0  0  0  0  0
   57.3949  -16.4066   -0.9608 H   0  0  0  0  0  0
   58.5382  -12.2733   -0.9609 H   0  0  0  0  0  0
   58.1258  -14.3854   -2.1692 H   0  0  0  0  0  0
   55.3562  -13.8773    6.3079 H   0  0  0  0  0  0
   53.4416  -15.3828    4.6333 H   0  0  0  0  0  0
   53.6232  -15.1360    7.7039 H   0  0  0  0  0  0
   52.8280  -16.4660    6.7953 H   0  0  0  0  0  0
   55.1494  -17.1487    7.5385 H   0  0  0  0  0  0
   53.4251  -12.3226    5.9623 H   0  0  0  0  0  0
   50.3878  -12.3698    6.2662 H   0  0  0  0  0  0
   52.4926  -10.5717    7.6222 H   0  0  0  0  0  0
   50.7185  -10.4333    7.8669 H   0  0  0  0  0  0
   51.7723  -11.8241    9.7014 H   0  0  0  0  0  0
   52.1434  -11.9125    3.7776 H   0  0  0  0  0  0
   51.5732   -8.9684    3.6268 H   0  0  0  0  0  0
   53.1109   -8.8889    1.6302 H   0  0  0  0  0  0
   53.9171   -9.6248    3.0568 H   0  0  0  0  0  0
   53.4041  -11.8651    1.9403 H   0  0  0  0  0  0
   51.8284  -11.0407    0.2357 H   0  0  0  0  0  0
   53.2641  -11.8359   -0.4945 H   0  0  0  0  0  0
   53.1371  -10.0441   -0.4861 H   0  0  0  0  0  0
   55.6221  -10.7810    2.1982 H   0  0  0  0  0  0
   55.3490   -9.8927    0.6610 H   0  0  0  0  0  0
   55.4760  -11.6845    0.6526 H   0  0  0  0  0  0
   49.9425  -11.6522    3.1137 H   0  0  0  0  0  0
   49.0739  -11.1701    0.3543 H   0  0  0  0  0  0
   47.3872  -12.9193    0.7760 H   0  0  0  0  0  0
   48.9151  -13.3972    1.5908 H   0  0  0  0  0  0
   46.7300  -11.9607    3.0874 H   0  0  0  0  0  0
   46.6821  -13.7348    2.8099 H   0  0  0  0  0  0
   49.1715  -12.2080    5.6473 H   0  0  0  0  0  0
   46.0710   -7.9613    0.8710 H   0  0  0  0  0  0
   43.7797   -9.0925   -0.4570 H   0  0  0  0  0  0
   45.0887   -8.1648   -1.2647 H   0  0  0  0  0  0
   44.6471  -11.1211   -1.0881 H   0  0  0  0  0  0
   45.4231  -10.1487   -2.3839 H   0  0  0  0  0  0
   47.5217  -10.1875   -1.3208 H   0  0  0  0  0  0
   46.8657  -11.6868   -0.5804 H   0  0  0  0  0  0
   43.9834  -10.8823    0.9578 H   0  0  0  0  0  0
   43.4955  -10.2871    3.8150 H   0  0  0  0  0  0
   41.7769  -13.4445    1.7317 H   0  0  0  0  0  0
   41.9920   -8.5827    2.9386 H   0  0  0  0  0  0
   41.2677   -9.7507    1.7820 H   0  0  0  0  0  0
   40.0446   -9.8156    5.7461 H   0  0  0  0  0  0
  1  2  1  0  0  0
  1128  1  0  0  0
  1129  1  0  0  0
  1130  1  0  0  0
  2  3  1  0  0  0
  2  5  1  0  0  0
  2131  1  0  0  0
  3  4  2  0  0  0
  3  9  1  0  0  0
  5  6  1  0  0  0
  5132  1  0  0  0
  5133  1  0  0  0
  6  7  2  0  0  0
  6  8  1  0  0  0
  8134  1  0  0  0
  9 10  1  0  0  0
  9135  1  0  0  0
 10 11  1  0  0  0
 10136  1  0  0  0
 10137  1  0  0  0
 11 12  2  0  0  0
 11 13  1  0  0  0
 13 14  1  0  0  0
 13138  1  0  0  0
 14 15  1  0  0  0
 14139  1  0  0  0
 14140  1  0  0  0
 15 16  2  0  0  0
 15 17  1  0  0  0
 17 18  1  0  0  0
 17141  1  0  0  0
 18 19  1  0  0  0
 18 21  1  0  0  0
 18142  1  0  0  0
 19 20  2  0  0  0
 19 24  1  0  0  0
 21 22  1  0  0  0
 21 23  1  0  0  0
 21143  1  0  0  0
 22144  1  0  0  0
 23145  1  0  0  0
 23146  1  0  0  0
 23147  1  0  0  0
 24 25  1  0  0  0
 24148  1  0  0  0
 25 26  1  0  0  0
 25 28  1  0  0  0
 25149  1  0  0  0
 26 27  2  0  0  0
 26 31  1  0  0  0
 28 29  1  0  0  0
 28 30  1  0  0  0
 28150  1  0  0  0
 29151  1  0  0  0
 30152  1  0  0  0
 30153  1  0  0  0
 30154  1  0  0  0
 31 32  1  0  0  0
 31155  1  0  0  0
 32 33  1  0  0  0
 32 35  1  0  0  0
 32156  1  0  0  0
 33 34  2  0  0  0
 33 42  1  0  0  0
 35 36  1  0  0  0
 35157  1  0  0  0
 35158  1  0  0  0
 36 37  2  0  0  0
 36 38  1  0  0  0
 37 39  1  0  0  0
 37159  1  0  0  0
 38 40  2  0  0  0
 38160  1  0  0  0
 39 41  2  0  0  0
 39161  1  0  0  0
 40 41  1  0  0  0
 40162  1  0  0  0
 41163  1  0  0  0
 42 43  1  0  0  0
 42164  1  0  0  0
 43 44  1  0  0  0
 43 46  1  0  0  0
 43165  1  0  0  0
 44 45  2  0  0  0
 44 51  1  0  0  0
 46 47  1  0  0  0
 46166  1  0  0  0
 46167  1  0  0  0
 47 48  1  0  0  0
 47168  1  0  0  0
 47169  1  0  0  0
 48 49  1  0  0  0
 48 50  2  0  0  0
 49170  1  0  0  0
 51 52  1  0  0  0
 51171  1  0  0  0
 52 53  1  0  0  0
 52 55  1  0  0  0
 52172  1  0  0  0
 53 54  2  0  0  0
 53 61  1  0  0  0
 55 56  1  0  0  0
 55173  1  0  0  0
 55174  1  0  0  0
 56 57  2  0  0  0
 56 58  1  0  0  0
 57 59  1  0  0  0
 58 60  2  0  0  0
 58175  1  0  0  0
 59 60  1  0  0  0
 59176  1  0  0  0
 61 62  1  0  0  0
 61177  1  0  0  0
 62 63  1  0  0  0
 62 65  1  0  0  0
 62178  1  0  0  0
 63 64  2  0  0  0
 63 69  1  0  0  0
 65 66  1  0  0  0
 65179  1  0  0  0
 65180  1  0  0  0
 66 67  1  0  0  0
 66 68  1  0  0  0
 66181  1  0  0  0
 67182  1  0  0  0
 67183  1  0  0  0
 67184  1  0  0  0
 68185  1  0  0  0
 68186  1  0  0  0
 68187  1  0  0  0
 69 70  1  0  0  0
 69188  1  0  0  0
 70 71  1  0  0  0
 70 73  1  0  0  0
 70189  1  0  0  0
 71 72  2  0  0  0
 71 83  1  0  0  0
 73 74  1  0  0  0
 73190  1  0  0  0
 73191  1  0  0  0
 74 75  2  0  0  0
 74 76  1  0  0  0
 75 77  1  0  0  0
 75192  1  0  0  0
 76 78  2  0  0  0
 76 79  1  0  0  0
 77 78  1  0  0  0
 78 80  1  0  0  0
 79 81  2  0  0  0
 79193  1  0  0  0
 80 82  2  0  0  0
 80194  1  0  0  0
 81 82  1  0  0  0
 81195  1  0  0  0
 82196  1  0  0  0
 83 84  1  0  0  0
 83197  1  0  0  0
 84 85  1  0  0  0
 84 87  1  0  0  0
 84198  1  0  0  0
 85 86  2  0  0  0
 85 89  1  0  0  0
 87 88  1  0  0  0
 87199  1  0  0  0
 87200  1  0  0  0
 88201  1  0  0  0
 89 90  1  0  0  0
 89202  1  0  0  0
 90 91  1  0  0  0
 90 93  1  0  0  0
 90203  1  0  0  0
 91 92  2  0  0  0
 91 95  1  0  0  0
 93 94  1  0  0  0
 93204  1  0  0  0
 93205  1  0  0  0
 94206  1  0  0  0
 95 96  1  0  0  0
 95207  1  0  0  0
 96 97  1  0  0  0
 96 99  1  0  0  0
 96208  1  0  0  0
 97 98  2  0  0  0
 97103  1  0  0  0
 99100  1  0  0  0
 99209  1  0  0  0
 99210  1  0  0  0
100101  1  0  0  0
100102  1  0  0  0
100211  1  0  0  0
101212  1  0  0  0
101213  1  0  0  0
101214  1  0  0  0
102215  1  0  0  0
102216  1  0  0  0
102217  1  0  0  0
103104  1  0  0  0
103218  1  0  0  0
104105  1  0  0  0
104107  1  0  0  0
104219  1  0  0  0
105106  2  0  0  0
105112  1  0  0  0
107108  1  0  0  0
107220  1  0  0  0
107221  1  0  0  0
108109  1  0  0  0
108222  1  0  0  0
108223  1  0  0  0
109110  1  0  0  0
109111  2  0  0  0
110224  1  0  0  0
112113  1  0  0  0
112118  1  0  0  0
113114  1  0  0  0
113116  1  0  0  0
113225  1  0  0  0
114115  2  0  0  0
114119  1  0  0  0
116117  1  0  0  0
116226  1  0  0  0
116227  1  0  0  0
117118  1  0  0  0
117228  1  0  0  0
117229  1  0  0  0
118230  1  0  0  0
118231  1  0  0  0
119120  1  0  0  0
119232  1  0  0  0
120121  1  0  0  0
120123  1  0  0  0
120233  1  0  0  0
121122  1  0  0  0
121127  2  0  0  0
122234  1  0  0  0
123124  1  0  0  0
123235  1  0  0  0
123236  1  0  0  0
124125  1  0  0  0
124126  2  0  0  0
125237  1  0  0  0
M  CHG  1   1   1
M  END
> <s_m_source_file>
../2mps_ligand.sdf

> <i_m_source_file_index>
1

> <s_epik_input>
Tz1DKFtPSF0pW0NIMl1bQ0BIXShbTkgzK10pQyg9TylbTkhdW0NIMl1DKD1PKVtOSF1bQ0gyXUMoPU8pW05IXVtDQEBIXShbQ0BIXShbT0hdKVtDSDNdKUMoPU8pW05IXVtDQEBIXShbQ0BIXShbT0hdKVtDSDNdKUMoPU8pW05IXVtDQEBIXShbQ0gyXWMxW2NIXVtjSF1bY0hdW2NIXVtjSF0xKUMoPU8pW05IXVtDQEBIXShbQ0gyXVtDSDJdQyg9TylbT0hdKUMoPU8pW05IXVtDQEBIXShbQ0gyXUMyPU5bQ0gyXU49W0NIXTIpQyg9TylbTkhdW0NAQEhdKFtDSDJdW0NIXShbQ0gzXSlbQ0gzXSlDKD1PKVtOSF1bQ0BASF0oW0NIMl1jM1tjSF1bbkhdYyhjMzQpW2NIXVtjSF1bY0hdW2NIXTQpQyg9TylbTkhdW0NAQEhdKFtDSDJdW09IXSlDKD1PKVtOSF1bQ0BASF0oW0NIMl1bT0hdKUMoPU8pW05IXVtDQEBIXShbQ0gyXVtDSF0oW0NIM10pW0NIM10pQyg9TylbTkhdW0NAQEhdKFtDSDJdW0NIMl1DKD1PKVtPSF0pQyg9TylONVtDQEBIXShbQ0gyXVtDSDJdW0NIMl01KUMoPU8pW05IXVtDQEhdKEMoPU8pW09IXSlbQ0gyXUMoPU8pW09IXQ==

> <s_epik_cmdline>
J2VwaWtfYXBwJywgJy1pbWFlJywgJ2xpZ2FuZF9wcm8ubWFlJywgJy1vbWFlJywgJ2xpZ2FuZF9wcmVwLm1hZScsICctbXMnLCAnMScsICctcGgnLCAnNycsICctcGh0JywgJzAuNScsICctbnQn

> <s_epik_pKa_notes>
Molecule size exceeds maximum supported for generating protonation states

> <s_epik_Chemistry_Notes>
This compound has an imine and may undergo hydrolysis.

$$$$
