2ms4_ligand
                    3D
 Schrodinger Suite 2020-3.
129133  0  0  1  0            999 V2000
   -2.0480   -0.1960  -16.8940 N   0  3  0  0  0  0
   -1.5560   -1.4040  -17.6200 C   0  0  2  0  0  0
   -0.8610   -2.3770  -16.6410 C   0  0  0  0  0  0
    0.0440   -3.1310  -17.0190 O   0  0  0  0  0  0
   -0.6110   -0.9260  -18.7530 C   0  0  0  0  0  0
   -0.9570    0.5260  -18.8930 C   0  0  0  0  0  0
   -1.3710    0.9770  -17.4970 C   0  0  0  0  0  0
   -1.3320   -2.3680  -15.3880 N   0  0  0  0  0  0
   -0.7680   -3.1570  -14.2800 C   0  0  2  0  0  0
   -1.8180   -3.2110  -13.1400 C   0  0  0  0  0  0
   -2.7900   -2.4300  -13.1650 O   0  0  0  0  0  0
    0.5830   -2.5250  -13.7840 C   0  0  0  0  0  0
    0.4680   -1.1880  -13.0140 C   0  0  0  0  0  0
   -0.0410   -0.0120  -13.8720 C   0  0  0  0  0  0
   -1.2540    0.1770  -13.9770 O   0  0  0  0  0  0
    0.7760    0.7360  -14.4320 O   0  5  0  0  0  0
   -1.6900   -4.1500  -12.1550 N   0  0  0  0  0  0
   -2.5340   -4.1250  -10.9430 C   0  0  2  0  0  0
   -2.2080   -2.8930  -10.0610 C   0  0  0  0  0  0
   -1.2600   -2.9080   -9.2660 O   0  0  0  0  0  0
   -2.2070   -5.4690  -10.2420 C   0  0  0  0  0  0
   -0.8390   -5.8410  -10.7420 C   0  0  0  0  0  0
   -0.7730   -5.3270  -12.1660 C   0  0  0  0  0  0
   -2.9790   -1.8150  -10.2660 N   0  0  0  0  0  0
   -2.7930   -0.5620   -9.5420 C   0  0  0  0  0  0
   -3.8130    0.5040   -9.9690 C   0  0  0  0  0  0
   -4.2150    0.5230  -11.1380 O   0  0  0  0  0  0
   -4.2440    1.4210   -9.0370 N   0  0  0  0  0  0
   -5.2640    2.4790   -9.3200 C   0  0  2  0  0  0
   -4.7690    3.5690  -10.3000 C   0  0  0  0  0  0
   -3.5620    3.7160  -10.5300 O   0  0  0  0  0  0
   -5.5570    3.0900   -7.9200 C   0  0  0  0  0  0
   -5.0030    2.1010   -6.9400 C   0  0  0  0  0  0
   -3.8040    1.4840   -7.6210 C   0  0  0  0  0  0
   -5.7210    4.3570  -10.8450 N   0  0  0  0  0  0
   -5.4440    5.3990  -11.8610 C   0  0  2  0  0  0
   -6.0620    6.7450  -11.4570 C   0  0  0  0  0  0
   -7.0190    6.7940  -10.6670 O   0  0  0  0  0  0
   -6.0000    4.9720  -13.2450 C   0  0  0  0  0  0
   -5.4750    3.6120  -13.7050 C   0  0  0  0  0  0
   -4.1430    3.4510  -14.0850 C   0  0  0  0  0  0
   -6.2930    2.4810  -13.7030 C   0  0  0  0  0  0
   -3.6570    2.2190  -14.4550 C   0  0  0  0  0  0
   -5.8010    1.2500  -14.0610 C   0  0  0  0  0  0
   -4.4850    1.1210  -14.4390 C   0  0  0  0  0  0
   -3.9880   -0.1220  -14.7670 O   0  0  0  0  0  0
   -5.4840    7.8120  -12.0260 N   0  0  0  0  0  0
   -5.9550    9.1960  -11.8910 C   0  0  2  0  0  0
   -5.1670   10.1020  -12.8360 C   0  0  0  0  0  0
   -4.1930    9.6570  -13.4650 O   0  0  0  0  0  0
   -5.8070    9.7080  -10.4520 C   0  0  0  0  0  0
   -5.6010   11.3830  -12.9050 N   0  0  0  0  0  0
   -4.8920   12.4620  -13.6160 C   0  0  2  0  0  0
   -4.8180   12.1790  -15.1390 C   0  0  0  0  0  0
   -3.8590   11.5540  -15.6090 O   0  0  0  0  0  0
   -3.4890   12.6950  -12.9920 C   0  0  0  0  0  0
   -3.5200   13.1270  -11.5070 C   0  0  0  0  0  0
   -2.1440   13.1430  -10.8380 C   0  0  0  0  0  0
   -1.1190   13.3030  -11.4930 O   0  0  0  0  0  0
   -2.1140   13.0160   -9.5230 N   0  0  0  0  0  0
   -5.8760   12.5950  -15.9170 N   0  0  0  0  0  0
   -5.9680   12.3440  -17.3810 C   0  0  2  0  0  0
   -4.7920   12.9710  -18.1820 C   0  0  0  0  0  0
   -4.0350   12.2270  -18.8330 O   0  5  0  0  0  0
   -7.3350   12.9780  -17.7730 C   0  0  0  0  0  0
   -8.1060   13.0550  -16.4890 C   0  0  0  0  0  0
   -7.0730   13.3290  -15.4220 C   0  0  0  0  0  0
   -4.6170   14.2010  -18.1360 O   0  0  0  0  0  0
   -3.1390   -0.1175  -17.0101 H   0  0  0  0  0  0
   -1.7982   -0.2828  -15.8263 H   0  0  0  0  0  0
   -2.4165   -1.9385  -18.0488 H   0  0  0  0  0  0
    0.4345   -1.0835  -18.4494 H   0  0  0  0  0  0
   -0.8172   -1.4994  -19.6688 H   0  0  0  0  0  0
   -0.0767    1.0798  -19.2515 H   0  0  0  0  0  0
   -1.7799    0.6390  -19.6141 H   0  0  0  0  0  0
   -2.0716    1.8241  -17.5371 H   0  0  0  0  0  0
   -0.4987    1.2513  -16.8856 H   0  0  0  0  0  0
   -2.1997   -1.7151  -15.2124 H   0  0  0  0  0  0
   -0.5737   -4.1670  -14.6701 H   0  0  0  0  0  0
    1.0872   -3.2259  -13.1024 H   0  0  0  0  0  0
    1.2325   -2.3230  -14.6485 H   0  0  0  0  0  0
   -0.2348   -1.3067  -12.1762 H   0  0  0  0  0  0
    1.4567   -0.9024  -12.6255 H   0  0  0  0  0  0
   -3.5975   -4.0277  -11.2066 H   0  0  0  0  0  0
   -2.2171   -5.3257   -9.1514 H   0  0  0  0  0  0
   -2.9607   -6.2205  -10.5200 H   0  0  0  0  0  0
   -0.0754   -5.3663  -10.1083 H   0  0  0  0  0  0
   -0.7193   -6.9338  -10.7040 H   0  0  0  0  0  0
   -1.1349   -6.0669  -12.8951 H   0  0  0  0  0  0
    0.2393   -5.0006  -12.4465 H   0  0  0  0  0  0
   -3.7785   -1.9032  -11.0163 H   0  0  0  0  0  0
   -2.9130   -0.7406   -8.4632 H   0  0  0  0  0  0
   -1.7838   -0.1711   -9.7389 H   0  0  0  0  0  0
   -6.1315    2.0225   -9.8191 H   0  0  0  0  0  0
   -5.0594    4.0673   -7.8351 H   0  0  0  0  0  0
   -6.6423    3.2192   -7.7961 H   0  0  0  0  0  0
   -4.7149    2.6229   -6.0156 H   0  0  0  0  0  0
   -5.7677    1.3443   -6.7107 H   0  0  0  0  0  0
   -3.5813    0.4688   -7.2607 H   0  0  0  0  0  0
   -2.9002    2.1064   -7.5452 H   0  0  0  0  0  0
   -6.7501    4.1911  -10.4938 H   0  0  0  0  0  0
   -4.3483    5.4919  -11.8882 H   0  0  0  0  0  0
   -7.0970    4.9076  -13.1954 H   0  0  0  0  0  0
   -5.7102    5.7157  -14.0019 H   0  0  0  0  0  0
   -3.4774    4.3142  -14.0888 H   0  0  0  0  0  0
   -7.3392    2.5765  -13.4126 H   0  0  0  0  0  0
   -2.6162    2.1127  -14.7608 H   0  0  0  0  0  0
   -6.4526    0.3763  -14.0456 H   0  0  0  0  0  0
   -2.9362   -0.2314  -15.0701 H   0  0  0  0  0  0
   -4.5925    7.5910  -12.6313 H   0  0  0  0  0  0
   -7.0206    9.1703  -12.1629 H   0  0  0  0  0  0
   -6.3740    9.0564   -9.7709 H   0  0  0  0  0  0
   -6.1965   10.7346  -10.3862 H   0  0  0  0  0  0
   -4.7445    9.7000  -10.1674 H   0  0  0  0  0  0
   -6.5470   11.5956  -12.3855 H   0  0  0  0  0  0
   -5.5049   13.3630  -13.4660 H   0  0  0  0  0  0
   -2.9048   11.7645  -13.0455 H   0  0  0  0  0  0
   -2.9674   13.4879  -13.5481 H   0  0  0  0  0  0
   -3.9318   14.1441  -11.4295 H   0  0  0  0  0  0
   -4.1520   12.4311  -10.9358 H   0  0  0  0  0  0
   -3.0498   12.8736   -8.9627 H   0  0  0  0  0  0
   -1.1532   13.0526   -8.9887 H   0  0  0  0  0  0
   -5.8973   11.2635  -17.5747 H   0  0  0  0  0  0
   -7.1660   13.9747  -18.2067 H   0  0  0  0  0  0
   -7.8380   12.3370  -18.5120 H   0  0  0  0  0  0
   -8.8455   13.8668  -16.5535 H   0  0  0  0  0  0
   -8.6239   12.1004  -16.3144 H   0  0  0  0  0  0
   -7.3658   12.9322  -14.4387 H   0  0  0  0  0  0
   -6.8348   14.3989  -15.3294 H   0  0  0  0  0  0
  1  2  1  0  0  0
  1  7  1  0  0  0
  1 69  1  0  0  0
  1 70  1  0  0  0
  2  3  1  0  0  0
  2  5  1  0  0  0
  2 71  1  0  0  0
  3  4  2  0  0  0
  3  8  1  0  0  0
  5  6  1  0  0  0
  5 72  1  0  0  0
  5 73  1  0  0  0
  6  7  1  0  0  0
  6 74  1  0  0  0
  6 75  1  0  0  0
  7 76  1  0  0  0
  7 77  1  0  0  0
  8  9  1  0  0  0
  8 78  1  0  0  0
  9 10  1  0  0  0
  9 12  1  0  0  0
  9 79  1  0  0  0
 10 11  2  0  0  0
 10 17  1  0  0  0
 12 13  1  0  0  0
 12 80  1  0  0  0
 12 81  1  0  0  0
 13 14  1  0  0  0
 13 82  1  0  0  0
 13 83  1  0  0  0
 14 15  2  0  0  0
 14 16  1  0  0  0
 17 18  1  0  0  0
 17 23  1  0  0  0
 18 19  1  0  0  0
 18 21  1  0  0  0
 18 84  1  0  0  0
 19 20  2  0  0  0
 19 24  1  0  0  0
 21 22  1  0  0  0
 21 85  1  0  0  0
 21 86  1  0  0  0
 22 23  1  0  0  0
 22 87  1  0  0  0
 22 88  1  0  0  0
 23 89  1  0  0  0
 23 90  1  0  0  0
 24 25  1  0  0  0
 24 91  1  0  0  0
 25 26  1  0  0  0
 25 92  1  0  0  0
 25 93  1  0  0  0
 26 27  2  0  0  0
 26 28  1  0  0  0
 28 29  1  0  0  0
 28 34  1  0  0  0
 29 30  1  0  0  0
 29 32  1  0  0  0
 29 94  1  0  0  0
 30 31  2  0  0  0
 30 35  1  0  0  0
 32 33  1  0  0  0
 32 95  1  0  0  0
 32 96  1  0  0  0
 33 34  1  0  0  0
 33 97  1  0  0  0
 33 98  1  0  0  0
 34 99  1  0  0  0
 34100  1  0  0  0
 35 36  1  0  0  0
 35101  1  0  0  0
 36 37  1  0  0  0
 36 39  1  0  0  0
 36102  1  0  0  0
 37 38  2  0  0  0
 37 47  1  0  0  0
 39 40  1  0  0  0
 39103  1  0  0  0
 39104  1  0  0  0
 40 41  2  0  0  0
 40 42  1  0  0  0
 41 43  1  0  0  0
 41105  1  0  0  0
 42 44  2  0  0  0
 42106  1  0  0  0
 43 45  2  0  0  0
 43107  1  0  0  0
 44 45  1  0  0  0
 44108  1  0  0  0
 45 46  1  0  0  0
 46109  1  0  0  0
 47 48  1  0  0  0
 47110  1  0  0  0
 48 49  1  0  0  0
 48 51  1  0  0  0
 48111  1  0  0  0
 49 50  2  0  0  0
 49 52  1  0  0  0
 51112  1  0  0  0
 51113  1  0  0  0
 51114  1  0  0  0
 52 53  1  0  0  0
 52115  1  0  0  0
 53 54  1  0  0  0
 53 56  1  0  0  0
 53116  1  0  0  0
 54 55  2  0  0  0
 54 61  1  0  0  0
 56 57  1  0  0  0
 56117  1  0  0  0
 56118  1  0  0  0
 57 58  1  0  0  0
 57119  1  0  0  0
 57120  1  0  0  0
 58 59  2  0  0  0
 58 60  1  0  0  0
 60121  1  0  0  0
 60122  1  0  0  0
 61 62  1  0  0  0
 61 67  1  0  0  0
 62 63  1  0  0  0
 62 65  1  0  0  0
 62123  1  0  0  0
 63 64  1  0  0  0
 63 68  2  0  0  0
 65 66  1  0  0  0
 65124  1  0  0  0
 65125  1  0  0  0
 66 67  1  0  0  0
 66126  1  0  0  0
 66127  1  0  0  0
 67128  1  0  0  0
 67129  1  0  0  0
M  CHG  3   1   1  16  -1  64  -1
M  END
> <s_m_source_file>
../2ms4_ligand.sdf

> <i_m_source_file_index>
1

> <s_epik_input>
W0NIMl0xW0NIMl1bQ0gyXVtOSDIrXVtDQEBIXTFDKD1PKVtOSF1bQ0BASF0oW0NIMl1bQ0gyXUMoPU8pW09IXSlDKD1PKU4yW0NAQEhdKFtDSDJdW0NIMl1bQ0gyXTIpQyg9TylbTkhdW0NIMl1DKD1PKU4zW0NAQEhdKFtDSDJdW0NIMl1bQ0gyXTMpQyg9TylbTkhdW0NAQEhdKFtDSDJdYzRbY0hdW2NIXWMoW09IXSlbY0hdW2NIXTQpQyg9TylbTkhdW0NAQEhdKFtDSDNdKUMoPU8pW05IXVtDQEBIXShbQ0gyXVtDSDJdQyg9TylbTkgyXSlDKD1PKU41W0NASF0oQyg9TylbT0hdKVtDSDJdW0NIMl1bQ0gyXTU=

> <s_epik_cmdline>
J2VwaWtfYXBwJywgJy1pbWFlJywgJ2xpZ2FuZF9wcm8ubWFlJywgJy1vbWFlJywgJ2xpZ2FuZF9wcmVwLm1hZScsICctbXMnLCAnMScsICctcGgnLCAnNycsICctcGh0JywgJzAuNScsICctbnQn

> <r_lp_tautomer_probability>
0.999999999997365

> <r_epik_Ionization_Penalty>
  0.0410

> <r_epik_Ionization_Penalty_Charging>
  0.0402

> <r_epik_Ionization_Penalty_Neutral>
  0.0009

> <r_epik_State_Penalty>
  0.0323

> <r_epik_Charging_Adjusted_Penalty>
0.0724256854022463

> <i_epik_Tot_Q>
-1

> <i_epik_Tot_abs_Q>
3

$$$$
