2mwo_ligand
                    3D
 Schrodinger Suite 2020-3.
242243  0  0  1  0            999 V2000
    1.5920  -16.8170   20.6810 N   0  3  0  0  0  0
    0.6730  -17.9050   20.2340 C   0  0  2  0  0  0
    0.2110  -17.6520   18.7890 C   0  0  0  0  0  0
    0.0610  -16.4990   18.3730 O   0  0  0  0  0  0
   -0.5250  -18.0630   21.2100 C   0  0  0  0  0  0
   -1.4580  -19.2540   20.8930 C   0  0  0  0  0  0
   -2.5640  -19.4280   21.9430 C   0  0  0  0  0  0
   -2.0260  -19.8400   23.2560 N   0  0  0  0  0  0
   -2.6920  -19.8290   24.4210 C   0  0  0  0  0  0
   -3.9690  -19.4580   24.4710 N   0  0  0  0  0  0
   -2.0680  -20.1900   25.5390 N   0  0  0  0  0  0
   -0.0460  -18.7280   18.0350 N   0  0  0  0  0  0
   -0.6520  -18.7060   16.7060 C   0  0  2  0  0  0
   -1.7030  -19.8220   16.6290 C   0  0  0  0  0  0
   -1.8460  -20.6250   17.5570 O   0  0  0  0  0  0
    0.4420  -18.8820   15.6400 C   0  0  0  0  0  0
   -2.4330  -19.8620   15.5160 N   0  0  0  0  0  0
   -3.3380  -20.9520   15.1550 C   0  0  2  0  0  0
   -2.5830  -22.2870   14.9980 C   0  0  0  0  0  0
   -1.3490  -22.3570   15.0570 O   0  0  0  0  0  0
   -4.0930  -20.5750   13.8680 C   0  0  0  0  0  0
   -3.1670  -20.0610   12.7940 C   0  0  0  0  0  0
   -3.1060  -18.7320   12.3600 N   0  0  0  0  0  0
   -2.2450  -20.8020   12.1100 C   0  0  0  0  0  0
   -2.1220  -18.6990   11.4460 C   0  0  0  0  0  0
   -1.5800  -19.9190   11.2960 N   0  0  0  0  0  0
   -3.3620  -23.3540   14.8080 N   0  0  0  0  0  0
   -2.9550  -24.7500   14.7010 C   0  0  2  0  0  0
   -1.9880  -25.0400   13.5370 C   0  0  0  0  0  0
   -1.6750  -24.1710   12.7220 O   0  0  0  0  0  0
   -4.2420  -25.5700   14.5480 C   0  0  0  0  0  0
   -5.2230  -25.1420   15.4800 O   0  0  0  0  0  0
   -1.5450  -26.2980   13.4360 N   0  0  0  0  0  0
   -0.5440  -26.7930   12.4920 C   0  0  2  0  0  0
   -0.8970  -26.6430   11.0020 C   0  0  0  0  0  0
   -0.0360  -26.9270   10.1630 O   0  0  0  0  0  0
   -0.3290  -28.2840   12.7860 C   0  0  0  0  0  0
   -0.2300  -28.5410   14.1880 O   0  0  0  0  0  0
   -2.1180  -26.2080   10.6550 N   0  0  0  0  0  0
   -2.6410  -26.2490    9.2930 C   0  0  2  0  0  0
   -2.4020  -27.6590    8.7520 C   0  0  0  0  0  0
   -2.7150  -28.6480    9.4220 O   0  0  0  0  0  0
   -2.0660  -25.1190    8.4120 C   0  0  0  0  0  0
   -2.8870  -24.8790    7.1700 C   0  0  0  0  0  0
   -4.2240  -24.4940    7.1780 N   0  0  0  0  0  0
   -2.4610  -24.9900    5.8740 C   0  0  0  0  0  0
   -4.5650  -24.3310    5.8920 C   0  0  0  0  0  0
   -3.5320  -24.6290    5.0840 N   0  0  0  0  0  0
   -1.8070  -27.7710    7.5720 N   0  0  0  0  0  0
   -1.4030  -29.0110    6.9610 C   0  0  2  0  0  0
    0.0900  -28.8870    6.7290 C   0  0  0  0  0  0
    0.5350  -27.8360    6.2720 O   0  0  0  0  0  0
   -2.1710  -29.1450    5.6490 C   0  0  0  0  0  0
   -1.6860  -30.2910    4.7450 C   0  0  0  0  0  0
   -2.3150  -31.6160    5.1700 C   0  0  0  0  0  0
   -2.0690  -29.9570    3.3060 C   0  0  0  0  0  0
    0.8380  -29.9490    7.0110 N   0  0  0  0  0  0
    2.2370  -30.1050    6.6670 C   0  0  1  0  0  0
    3.1640  -29.8270    7.8660 C   0  0  0  0  0  0
    3.0130  -28.4030    8.4450 C   0  0  0  0  0  0
    3.4060  -27.2750    7.4630 C   0  0  0  0  0  0
    2.7210  -25.9480    7.8250 C   0  0  0  0  0  0
    2.7720  -24.9360    6.7300 N   0  3  0  0  0  0
    4.1170  -24.4940    6.3050 C   0  0  0  0  0  0
    1.8570  -25.1600    5.5780 C   0  0  0  0  0  0
    2.3590  -31.5080    6.0940 C   0  0  0  0  0  0
    2.5150  -32.4950    6.8110 O   0  0  0  0  0  0
    2.2160  -31.5400    4.7680 N   0  0  0  0  0  0
    2.1070  -32.6980    3.8760 C   0  0  2  0  0  0
    3.2450  -33.7260    4.0050 C   0  0  0  0  0  0
    3.1190  -34.8450    3.5040 O   0  0  0  0  0  0
    1.9860  -32.1730    2.4350 C   0  0  0  0  0  0
    2.7960  -31.0060    2.2500 O   0  0  0  0  0  0
    4.3470  -33.3750    4.6890 N   0  0  0  0  0  0
    5.4590  -34.2900    4.9640 C   0  0  2  0  0  0
    5.0170  -35.5640    5.6990 C   0  0  0  0  0  0
    5.6850  -36.5940    5.5700 O   0  0  0  0  0  0
    6.5930  -33.5610    5.7110 C   0  0  0  0  0  0
    6.2180  -33.0620    7.1190 C   0  0  0  0  0  0
    7.4300  -32.4310    7.8180 C   0  0  0  0  0  0
    7.0340  -31.9200    9.2130 C   0  0  0  0  0  0
    8.1970  -31.3670    9.9590 N   0  3  0  0  0  0
    3.9030  -35.5190    6.4390 N   0  0  0  0  0  0
    3.2630  -36.6710    7.0810 C   0  0  2  0  0  0
    1.7480  -36.5160    6.9220 C   0  0  0  0  0  0
    1.2620  -35.4080    6.6760 O   0  0  0  0  0  0
    3.6430  -36.7550    8.5730 C   0  0  0  0  0  0
    5.1160  -37.1300    8.8040 C   0  0  0  0  0  0
    5.4120  -37.3020   10.3040 C   0  0  0  0  0  0
    6.8880  -37.6230   10.5900 C   0  0  0  0  0  0
    7.2930  -38.9830   10.1470 N   0  3  0  0  0  0
    1.0040  -37.6170    7.0600 N   0  0  0  0  0  0
   -0.4550  -37.5870    7.0790 C   0  0  0  0  0  0
   -0.9680  -36.9980    8.3940 C   0  0  0  0  0  0
   -0.2490  -36.9830    9.3960 O   0  0  0  0  0  0
   -2.2230  -36.5330    8.3930 N   0  0  0  0  0  0
   -2.8840  -35.8990    9.5440 C   0  0  2  0  0  0
   -4.2990  -36.4710    9.7820 C   0  0  0  0  0  0
   -5.0350  -35.9320   10.6110 O   0  0  0  0  0  0
   -2.8650  -34.3680    9.3490 C   0  0  0  0  0  0
   -1.4870  -33.7680    9.6860 C   0  0  0  0  0  0
   -1.4060  -32.2760    9.3650 C   0  0  0  0  0  0
   -0.6320  -31.8570    8.5080 O   0  0  0  0  0  0
   -2.1870  -31.4420   10.0270 N   0  0  0  0  0  0
   -4.6450  -37.5750    9.1030 N   0  0  0  0  0  0
   -5.8300  -38.4120    9.3070 C   0  0  2  0  0  0
   -7.0970  -37.6450    9.7350 C   0  0  0  0  0  0
   -7.5540  -37.7650   10.8820 O   0  0  0  0  0  0
   -5.4640  -39.5490   10.2680 C   0  0  0  0  0  0
   -4.2950  -40.2320    9.8210 O   0  0  0  0  0  0
   -7.6520  -36.8520    8.8060 N   0  0  0  0  0  0
   -8.9560  -36.2120    8.9450 C   0  0  2  0  0  0
   -9.9960  -37.2430    9.4150 C   0  0  0  0  0  0
  -10.7470  -36.9520   10.3770 O   0  0  0  0  0  0
   -9.3640  -35.5680    7.6060 C   0  0  2  0  0  0
   -8.2600  -34.9030    7.0140 O   0  0  0  0  0  0
  -10.4950  -34.5470    7.7850 C   0  0  0  0  0  0
  -10.0670  -38.3530    8.8300 O   0  0  0  0  0  0
    2.4284  -16.7291   19.9719 H   0  0  0  0  0  0
    1.9828  -17.0551   21.6813 H   0  0  0  0  0  0
    1.0420  -15.8651   20.7192 H   0  0  0  0  0  0
    1.2568  -18.8371   20.2513 H   0  0  0  0  0  0
   -0.1477  -18.2157   22.2319 H   0  0  0  0  0  0
   -1.1447  -17.1547   21.1799 H   0  0  0  0  0  0
   -1.9392  -19.0931   19.9170 H   0  0  0  0  0  0
   -0.8696  -20.1829   20.8630 H   0  0  0  0  0  0
   -3.0969  -18.4749   22.0756 H   0  0  0  0  0  0
   -3.2715  -20.1998   21.6059 H   0  0  0  0  0  0
   -0.9886  -20.1963   23.3380 H   0  0  0  0  0  0
   -4.4911  -19.1583   23.5504 H   0  0  0  0  0  0
   -4.5025  -19.4511   25.4330 H   0  0  0  0  0  0
   -1.0125  -20.4978   25.5049 H   0  0  0  0  0  0
    0.2390  -19.6863   18.4937 H   0  0  0  0  0  0
   -1.1352  -17.7276   16.5675 H   0  0  0  0  0  0
    1.1738  -18.0654   15.7274 H   0  0  0  0  0  0
   -0.0142  -18.8600   14.6393 H   0  0  0  0  0  0
    0.9490  -19.8465   15.7907 H   0  0  0  0  0  0
   -2.3200  -18.9964   14.8467 H   0  0  0  0  0  0
   -4.0403  -21.0544   15.9954 H   0  0  0  0  0  0
   -4.6132  -21.4610   13.4752 H   0  0  0  0  0  0
   -4.8277  -19.7874   14.0912 H   0  0  0  0  0  0
   -1.9748  -21.8683   12.1016 H   0  0  0  0  0  0
   -1.8077  -17.8079   10.9027 H   0  0  0  0  0  0
   -4.4255  -23.0837   14.7310 H   0  0  0  0  0  0
   -2.3998  -24.9684   15.6251 H   0  0  0  0  0  0
   -4.6391  -25.4426   13.5301 H   0  0  0  0  0  0
   -4.0227  -26.6332   14.7256 H   0  0  0  0  0  0
   -6.2090  -25.6291   15.5033 H   0  0  0  0  0  0
   -2.0107  -26.9874   14.1556 H   0  0  0  0  0  0
    0.3255  -26.1472   12.6844 H   0  0  0  0  0  0
   -1.1764  -28.8620   12.3886 H   0  0  0  0  0  0
    0.6019  -28.6217   12.3071 H   0  0  0  0  0  0
   -0.0746  -29.5683   14.5492 H   0  0  0  0  0  0
   -2.7361  -25.8023   11.4695 H   0  0  0  0  0  0
   -3.7228  -26.0556    9.3415 H   0  0  0  0  0  0
   -2.0414  -24.1819    8.9875 H   0  0  0  0  0  0
   -1.0456  -25.3827    8.0971 H   0  0  0  0  0  0
   -1.5096  -25.2870    5.4085 H   0  0  0  0  0  0
   -5.5456  -24.0019    5.5481 H   0  0  0  0  0  0
   -1.6268  -26.8179    7.0533 H   0  0  0  0  0  0
   -1.6269  -29.8690    7.6119 H   0  0  0  0  0  0
   -3.2334  -29.3325    5.8636 H   0  0  0  0  0  0
   -2.0725  -28.2150    5.0698 H   0  0  0  0  0  0
   -0.5948  -30.4040    4.8252 H   0  0  0  0  0  0
   -2.0292  -31.8413    6.2081 H   0  0  0  0  0  0
   -1.9587  -32.4198    4.5089 H   0  0  0  0  0  0
   -3.4102  -31.5414    5.0991 H   0  0  0  0  0  0
   -1.6083  -29.0010    3.0164 H   0  0  0  0  0  0
   -3.1631  -29.8754    3.2273 H   0  0  0  0  0  0
   -1.7116  -30.7538    2.6371 H   0  0  0  0  0  0
    0.3115  -30.7504    7.5500 H   0  0  0  0  0  0
    2.5091  -29.3517    5.9130 H   0  0  0  0  0  0
    2.9392  -30.5370    8.6756 H   0  0  0  0  0  0
    4.2122  -29.9461    7.5544 H   0  0  0  0  0  0
    1.9643  -28.2323    8.7298 H   0  0  0  0  0  0
    3.6555  -28.2976    9.3316 H   0  0  0  0  0  0
    4.4951  -27.1242    7.4948 H   0  0  0  0  0  0
    3.1043  -27.5552    6.4430 H   0  0  0  0  0  0
    1.6612  -26.1330    8.0542 H   0  0  0  0  0  0
    3.2149  -25.5082    8.7040 H   0  0  0  0  0  0
    2.3564  -24.0654    7.2585 H   0  0  0  0  0  0
    4.7506  -24.3436    7.1915 H   0  0  0  0  0  0
    4.0336  -23.5484    5.7492 H   0  0  0  0  0  0
    4.5676  -25.2611    5.6581 H   0  0  0  0  0  0
    0.8740  -25.4862    5.9486 H   0  0  0  0  0  0
    2.2773  -25.9360    4.9214 H   0  0  0  0  0  0
    1.7433  -24.2233    5.0125 H   0  0  0  0  0  0
    2.1829  -30.5216    4.3537 H   0  0  0  0  0  0
    1.2020  -33.2244    4.2135 H   0  0  0  0  0  0
    2.3187  -32.9510    1.7322 H   0  0  0  0  0  0
    0.9376  -31.9141    2.2259 H   0  0  0  0  0  0
    2.8227  -30.5045    1.2713 H   0  0  0  0  0  0
    4.3872  -32.3365    5.0495 H   0  0  0  0  0  0
    5.8062  -34.5959    3.9661 H   0  0  0  0  0  0
    7.4490  -34.2412    5.8319 H   0  0  0  0  0  0
    6.9047  -32.6785    5.1331 H   0  0  0  0  0  0
    5.4225  -32.3064    7.0404 H   0  0  0  0  0  0
    5.8615  -33.9080    7.7250 H   0  0  0  0  0  0
    8.2254  -33.1835    7.9233 H   0  0  0  0  0  0
    7.8010  -31.5870    7.2180 H   0  0  0  0  0  0
    6.2823  -31.1233    9.1119 H   0  0  0  0  0  0
    6.6130  -32.7487    9.8012 H   0  0  0  0  0  0
    7.8652  -31.0155   10.9471 H   0  0  0  0  0  0
    8.6273  -30.5257    9.3960 H   0  0  0  0  0  0
    8.9580  -32.1511   10.0853 H   0  0  0  0  0  0
    3.4658  -34.5155    6.5479 H   0  0  0  0  0  0
    3.6286  -37.5743    6.5707 H   0  0  0  0  0  0
    3.4702  -35.7794    9.0508 H   0  0  0  0  0  0
    3.0248  -37.5195    9.0664 H   0  0  0  0  0  0
    5.3384  -38.0766    8.2896 H   0  0  0  0  0  0
    5.7636  -36.3352    8.4054 H   0  0  0  0  0  0
    5.1624  -36.3721   10.8360 H   0  0  0  0  0  0
    4.8060  -38.1278   10.7050 H   0  0  0  0  0  0
    7.5290  -36.8999   10.0644 H   0  0  0  0  0  0
    7.0741  -37.5591   11.6723 H   0  0  0  0  0  0
    8.3556  -39.1438   10.3817 H   0  0  0  0  0  0
    7.1390  -39.0761    9.0618 H   0  0  0  0  0  0
    6.6841  -39.7354   10.6697 H   0  0  0  0  0  0
    1.5358  -38.5745    7.1619 H   0  0  0  0  0  0
   -0.8199  -36.9676    6.2464 H   0  0  0  0  0  0
   -0.8442  -38.6103    6.9727 H   0  0  0  0  0  0
   -2.7661  -36.6523    7.4439 H   0  0  0  0  0  0
   -2.2933  -36.1602   10.4344 H   0  0  0  0  0  0
   -3.0999  -34.1289    8.3013 H   0  0  0  0  0  0
   -3.6146  -33.9051   10.0077 H   0  0  0  0  0  0
   -1.2842  -33.8956   10.7596 H   0  0  0  0  0  0
   -0.7100  -34.2833    9.1023 H   0  0  0  0  0  0
   -2.8773  -31.8254   10.7928 H   0  0  0  0  0  0
   -2.1473  -30.3638    9.8126 H   0  0  0  0  0  0
   -3.9192  -37.8314    8.3172 H   0  0  0  0  0  0
   -6.0694  -38.8056    8.3081 H   0  0  0  0  0  0
   -5.2724  -39.1355   11.2692 H   0  0  0  0  0  0
   -6.2960  -40.2667   10.3207 H   0  0  0  0  0  0
   -3.8969  -41.0781   10.4004 H   0  0  0  0  0  0
   -7.0575  -36.6965    7.8937 H   0  0  0  0  0  0
   -8.8465  -35.4309    9.7117 H   0  0  0  0  0  0
   -9.6540  -36.3611    6.9012 H   0  0  0  0  0  0
   -7.3353  -35.4580    6.7974 H   0  0  0  0  0  0
  -11.3648  -35.0400    8.2437 H   0  0  0  0  0  0
  -10.7797  -34.1394    6.8038 H   0  0  0  0  0  0
  -10.1514  -33.7295    8.4359 H   0  0  0  0  0  0
  -10.8060  -39.1000    9.1555 H   0  0  0  0  0  0
  1  2  1  0  0  0
  1119  1  0  0  0
  1120  1  0  0  0
  1121  1  0  0  0
  2  3  1  0  0  0
  2  5  1  0  0  0
  2122  1  0  0  0
  3  4  2  0  0  0
  3 12  1  0  0  0
  5  6  1  0  0  0
  5123  1  0  0  0
  5124  1  0  0  0
  6  7  1  0  0  0
  6125  1  0  0  0
  6126  1  0  0  0
  7  8  1  0  0  0
  7127  1  0  0  0
  7128  1  0  0  0
  8  9  1  0  0  0
  8129  1  0  0  0
  9 10  1  0  0  0
  9 11  2  0  0  0
 10130  1  0  0  0
 10131  1  0  0  0
 11132  1  0  0  0
 12 13  1  0  0  0
 12133  1  0  0  0
 13 14  1  0  0  0
 13 16  1  0  0  0
 13134  1  0  0  0
 14 15  2  0  0  0
 14 17  1  0  0  0
 16135  1  0  0  0
 16136  1  0  0  0
 16137  1  0  0  0
 17 18  1  0  0  0
 17138  1  0  0  0
 18 19  1  0  0  0
 18 21  1  0  0  0
 18139  1  0  0  0
 19 20  2  0  0  0
 19 27  1  0  0  0
 21 22  1  0  0  0
 21140  1  0  0  0
 21141  1  0  0  0
 22 23  2  0  0  0
 22 24  1  0  0  0
 23 25  1  0  0  0
 24 26  2  0  0  0
 24142  1  0  0  0
 25 26  1  0  0  0
 25143  1  0  0  0
 27 28  1  0  0  0
 27144  1  0  0  0
 28 29  1  0  0  0
 28 31  1  0  0  0
 28145  1  0  0  0
 29 30  2  0  0  0
 29 33  1  0  0  0
 31 32  1  0  0  0
 31146  1  0  0  0
 31147  1  0  0  0
 32148  1  0  0  0
 33 34  1  0  0  0
 33149  1  0  0  0
 34 35  1  0  0  0
 34 37  1  0  0  0
 34150  1  0  0  0
 35 36  2  0  0  0
 35 39  1  0  0  0
 37 38  1  0  0  0
 37151  1  0  0  0
 37152  1  0  0  0
 38153  1  0  0  0
 39 40  1  0  0  0
 39154  1  0  0  0
 40 41  1  0  0  0
 40 43  1  0  0  0
 40155  1  0  0  0
 41 42  2  0  0  0
 41 49  1  0  0  0
 43 44  1  0  0  0
 43156  1  0  0  0
 43157  1  0  0  0
 44 45  2  0  0  0
 44 46  1  0  0  0
 45 47  1  0  0  0
 46 48  2  0  0  0
 46158  1  0  0  0
 47 48  1  0  0  0
 47159  1  0  0  0
 49 50  1  0  0  0
 49160  1  0  0  0
 50 51  1  0  0  0
 50 53  1  0  0  0
 50161  1  0  0  0
 51 52  2  0  0  0
 51 57  1  0  0  0
 53 54  1  0  0  0
 53162  1  0  0  0
 53163  1  0  0  0
 54 55  1  0  0  0
 54 56  1  0  0  0
 54164  1  0  0  0
 55165  1  0  0  0
 55166  1  0  0  0
 55167  1  0  0  0
 56168  1  0  0  0
 56169  1  0  0  0
 56170  1  0  0  0
 57 58  1  0  0  0
 57171  1  0  0  0
 58 59  1  0  0  0
 58 66  1  0  0  0
 58172  1  0  0  0
 59 60  1  0  0  0
 59173  1  0  0  0
 59174  1  0  0  0
 60 61  1  0  0  0
 60175  1  0  0  0
 60176  1  0  0  0
 61 62  1  0  0  0
 61177  1  0  0  0
 61178  1  0  0  0
 62 63  1  0  0  0
 62179  1  0  0  0
 62180  1  0  0  0
 63 64  1  0  0  0
 63 65  1  0  0  0
 63181  1  0  0  0
 64182  1  0  0  0
 64183  1  0  0  0
 64184  1  0  0  0
 65185  1  0  0  0
 65186  1  0  0  0
 65187  1  0  0  0
 66 67  2  0  0  0
 66 68  1  0  0  0
 68 69  1  0  0  0
 68188  1  0  0  0
 69 70  1  0  0  0
 69 72  1  0  0  0
 69189  1  0  0  0
 70 71  2  0  0  0
 70 74  1  0  0  0
 72 73  1  0  0  0
 72190  1  0  0  0
 72191  1  0  0  0
 73192  1  0  0  0
 74 75  1  0  0  0
 74193  1  0  0  0
 75 76  1  0  0  0
 75 78  1  0  0  0
 75194  1  0  0  0
 76 77  2  0  0  0
 76 83  1  0  0  0
 78 79  1  0  0  0
 78195  1  0  0  0
 78196  1  0  0  0
 79 80  1  0  0  0
 79197  1  0  0  0
 79198  1  0  0  0
 80 81  1  0  0  0
 80199  1  0  0  0
 80200  1  0  0  0
 81 82  1  0  0  0
 81201  1  0  0  0
 81202  1  0  0  0
 82203  1  0  0  0
 82204  1  0  0  0
 82205  1  0  0  0
 83 84  1  0  0  0
 83206  1  0  0  0
 84 85  1  0  0  0
 84 87  1  0  0  0
 84207  1  0  0  0
 85 86  2  0  0  0
 85 92  1  0  0  0
 87 88  1  0  0  0
 87208  1  0  0  0
 87209  1  0  0  0
 88 89  1  0  0  0
 88210  1  0  0  0
 88211  1  0  0  0
 89 90  1  0  0  0
 89212  1  0  0  0
 89213  1  0  0  0
 90 91  1  0  0  0
 90214  1  0  0  0
 90215  1  0  0  0
 91216  1  0  0  0
 91217  1  0  0  0
 91218  1  0  0  0
 92 93  1  0  0  0
 92219  1  0  0  0
 93 94  1  0  0  0
 93220  1  0  0  0
 93221  1  0  0  0
 94 95  2  0  0  0
 94 96  1  0  0  0
 96 97  1  0  0  0
 96222  1  0  0  0
 97 98  1  0  0  0
 97100  1  0  0  0
 97223  1  0  0  0
 98 99  2  0  0  0
 98105  1  0  0  0
100101  1  0  0  0
100224  1  0  0  0
100225  1  0  0  0
101102  1  0  0  0
101226  1  0  0  0
101227  1  0  0  0
102103  2  0  0  0
102104  1  0  0  0
104228  1  0  0  0
104229  1  0  0  0
105106  1  0  0  0
105230  1  0  0  0
106107  1  0  0  0
106109  1  0  0  0
106231  1  0  0  0
107108  2  0  0  0
107111  1  0  0  0
109110  1  0  0  0
109232  1  0  0  0
109233  1  0  0  0
110234  1  0  0  0
111112  1  0  0  0
111235  1  0  0  0
112113  1  0  0  0
112115  1  0  0  0
112236  1  0  0  0
113114  2  0  0  0
113118  1  0  0  0
115116  1  0  0  0
115117  1  0  0  0
115237  1  0  0  0
116238  1  0  0  0
117239  1  0  0  0
117240  1  0  0  0
117241  1  0  0  0
118242  1  0  0  0
M  CHG  4   1   1  63   1  82   1  91   1
M  END
> <s_m_source_file>
../2mwo_ligand.sdf

> <i_m_source_file_index>
1

> <s_epik_input>
W0hdL049QyhbTkgyXSlcW05IXVtDSDJdW0NIMl1bQ0gyXVtDQEhdKFtOSDMrXSlDKD1PKVtOSF1bQ0BASF0oW0NIM10pQyg9TylbTkhdW0NAQEhdKFtDSDJdQzE9TltDSDJdTj1bQ0hdMSlDKD1PKVtOSF1bQ0BASF0oW0NIMl1bT0hdKUMoPU8pW05IXVtDQEBIXShbQ0gyXVtPSF0pQyg9TylbTkhdW0NAQEhdKFtDSDJdQzI9TltDSDJdTj1bQ0hdMilDKD1PKVtOSF1bQ0BASF0oW0NIMl1bQ0hdKFtDSDNdKVtDSDNdKUMoPU8pW05IXVtDQEBIXShbQ0gyXVtDSDJdW0NIMl1bQ0gyXVtOSCtdKFtDSDNdKVtDSDNdKUMoPU8pW05IXVtDQEBIXShbQ0gyXVtPSF0pQyg9TylbTkhdW0NAQEhdKFtDSDJdW0NIMl1bQ0gyXVtDSDJdW05IMytdKUMoPU8pW05IXVtDQEBIXShbQ0gyXVtDSDJdW0NIMl1bQ0gyXVtOSDMrXSlDKD1PKVtOSF1bQ0gyXUMoPU8pW05IXVtDQEBIXShbQ0gyXVtDSDJdQyg9TylbTkgyXSlDKD1PKVtOSF1bQ0BASF0oW0NIMl1bT0hdKUMoPU8pW05IXVtDQEhdKEMoPU8pW09IXSlbQ0BIXShbT0hdKVtDSDNd

> <s_epik_cmdline>
J2VwaWtfYXBwJywgJy1pbWFlJywgJ2xpZ2FuZF9wcm8ubWFlJywgJy1vbWFlJywgJ2xpZ2FuZF9wcmVwLm1hZScsICctbXMnLCAnMScsICctcGgnLCAnNycsICctcGh0JywgJzAuNScsICctbnQn

> <s_epik_pKa_notes>
Molecule size exceeds maximum supported for generating protonation states

> <s_epik_Chemistry_Notes>
This compound has an imine and may undergo hydrolysis.

$$$$
