2mwp_ligand
                    3D
 Schrodinger Suite 2020-3.
221222  0  0  1  0            999 V2000
   46.7980  -15.2660   -3.1850 N   0  3  0  0  0  0
   46.3830  -14.5800   -4.4410 C   0  0  2  0  0  0
   44.8580  -14.5620   -4.6000 C   0  0  0  0  0  0
   44.1550  -15.3120   -3.9210 O   0  0  0  0  0  0
   47.0460  -15.2330   -5.6660 C   0  0  0  0  0  0
   48.4560  -15.2410   -5.4870 O   0  0  0  0  0  0
   44.3240  -13.7160   -5.4910 N   0  0  0  0  0  0
   42.8760  -13.6230   -5.8010 C   0  0  2  0  0  0
   42.6130  -13.2630   -7.2750 C   0  0  0  0  0  0
   43.5510  -13.0550   -8.0540 O   0  0  0  0  0  0
   42.1820  -12.6300   -4.8470 C   0  0  2  0  0  0
   40.7830  -12.8310   -4.8990 O   0  0  0  0  0  0
   42.4370  -11.1630   -5.1940 C   0  0  0  0  0  0
   41.3310  -13.1670   -7.6450 N   0  0  0  0  0  0
   40.8370  -12.9980   -9.0230 C   0  0  2  0  0  0
   39.7160  -11.9480   -9.1510 C   0  0  0  0  0  0
   39.0370  -11.9080  -10.1770 O   0  0  0  0  0  0
   40.3380  -14.3570   -9.5360 C   0  0  0  0  0  0
   41.3750  -15.3340   -9.5150 O   0  0  0  0  0  0
   39.5050  -11.0990   -8.1260 N   0  0  0  0  0  0
   38.3720  -10.1530   -8.0140 C   0  0  2  0  0  0
   38.7920   -8.6900   -7.7900 C   0  0  0  0  0  0
   39.9010   -8.3890   -7.3490 O   0  0  0  0  0  0
   37.4180  -10.6240   -6.8990 C   0  0  0  0  0  0
   36.4770  -11.7360   -7.3770 C   0  0  0  0  0  0
   35.3650  -12.0310   -6.3570 C   0  0  0  0  0  0
   35.7120  -13.1130   -5.4170 N   0  0  0  0  0  0
   34.9960  -13.4880   -4.3700 C   0  0  0  0  0  0
   34.0030  -12.8130   -3.8820 N   0  0  0  0  0  0
   35.2510  -14.5910   -3.7540 N   0  0  0  0  0  0
   37.8630   -7.7880   -8.1200 N   0  0  0  0  0  0
   38.0130   -6.3260   -8.0680 C   0  0  2  0  0  0
   38.0050   -5.7280   -6.6450 C   0  0  0  0  0  0
   37.7020   -6.4110   -5.6660 O   0  0  0  0  0  0
   36.9060   -5.7110   -8.9410 C   0  0  0  0  0  0
   37.0930   -4.2460   -9.2500 C   0  0  0  0  0  0
   38.2910   -3.6390   -9.6320 N   0  0  0  0  0  0
   36.1470   -3.2830   -9.0810 C   0  0  0  0  0  0
   38.0190   -2.3260   -9.7450 C   0  0  0  0  0  0
   36.7380   -2.0840   -9.4160 N   0  0  0  0  0  0
   38.3010   -4.4210   -6.5840 N   0  0  0  0  0  0
   38.3790   -3.4760   -5.4530 C   0  0  2  0  0  0
   37.8480   -3.9560   -4.0890 C   0  0  0  0  0  0
   38.6510   -4.1150   -3.1700 O   0  0  0  0  0  0
   37.7580   -2.1510   -5.9430 C   0  0  0  0  0  0
   37.7710   -1.0130   -4.9090 C   0  0  0  0  0  0
   37.5070    0.3730   -5.5280 C   0  0  0  0  0  0
   38.6200    0.9020   -6.4550 C   0  0  0  0  0  0
   39.8770    1.2340   -5.7180 N   0  3  0  0  0  0
   36.5350   -4.1770   -3.9510 N   0  0  0  0  0  0
   35.8940   -4.4620   -2.6530 C   0  0  1  0  0  0
   34.9430   -3.2950   -2.3530 C   0  0  0  0  0  0
   34.4580   -3.2480   -0.8850 C   0  0  0  0  0  0
   32.9290   -3.1350   -0.7800 C   0  0  0  0  0  0
   32.1770   -4.4650   -0.9760 C   0  0  0  0  0  0
   30.7730   -4.2620   -1.4390 N   0  3  0  0  0  0
   30.6110   -4.0990   -2.9110 C   0  0  0  0  0  0
   29.9440   -3.3060   -0.6500 C   0  0  0  0  0  0
   35.1430   -5.8030   -2.5960 C   0  0  0  0  0  0
   35.0320   -6.4000   -1.5280 O   0  0  0  0  0  0
   34.6280   -6.2750   -3.7360 N   0  0  0  0  0  0
   33.7760   -7.4670   -3.8660 C   0  0  2  0  0  0
   34.5200   -8.8110   -3.7430 C   0  0  0  0  0  0
   33.9730   -9.8830   -4.0010 O   0  0  0  0  0  0
   32.8310   -7.3490   -5.0820 C   0  0  0  0  0  0
   33.3940   -7.0340   -6.4720 C   0  0  0  0  0  0
   34.0190   -5.6460   -6.5740 C   0  0  0  0  0  0
   34.4200   -8.0570   -6.9320 C   0  0  0  0  0  0
   35.7780   -8.7710   -3.3060 N   0  0  0  0  0  0
   36.5420   -9.9330   -2.8390 C   0  0  2  0  0  0
   36.0950  -10.2460   -1.3840 C   0  0  0  0  0  0
   36.8840  -10.2820   -0.4390 O   0  0  0  0  0  0
   38.0400   -9.6350   -3.0220 C   0  0  0  0  0  0
   38.9390  -10.8730   -3.1800 C   0  0  0  0  0  0
   39.1810  -11.9770   -1.7580 S   0  0  0  0  0  0
   37.8790  -13.2080   -2.0500 C   0  0  0  0  0  0
   34.7740  -10.3480   -1.1860 N   0  0  0  0  0  0
   34.1250  -10.6980    0.0810 C   0  0  2  0  0  0
   34.3280  -12.1860    0.4420 C   0  0  0  0  0  0
   34.8500  -12.9700   -0.3580 O   0  0  0  0  0  0
   32.6440  -10.2700    0.0280 C   0  0  0  0  0  0
   31.9060  -10.4670   -1.2870 C   0  0  0  0  0  0
   31.6740  -11.7590   -1.7930 C   0  0  0  0  0  0
   31.4460   -9.3500   -2.0100 C   0  0  0  0  0  0
   31.0080  -11.9300   -3.0190 C   0  0  0  0  0  0
   30.7900   -9.5160   -3.2450 C   0  0  0  0  0  0
   30.5720  -10.8100   -3.7510 C   0  0  0  0  0  0
   33.9380  -12.5730    1.6700 N   0  0  0  0  0  0
   34.2370  -13.8900    2.2730 C   0  0  2  0  0  0
   33.8430  -15.0980    1.4050 C   0  0  0  0  0  0
   34.5800  -16.0880    1.3780 O   0  0  0  0  0  0
   33.5790  -13.9990    3.6610 C   0  0  0  0  0  0
   34.1970  -13.0400    4.6930 C   0  0  0  0  0  0
   33.5410  -13.2230    6.0720 C   0  0  0  0  0  0
   34.0930  -12.2590    7.1330 C   0  0  0  0  0  0
   35.4950  -12.5810    7.5350 N   0  3  0  0  0  0
   32.7110  -15.0110    0.6990 N   0  0  0  0  0  0
   32.2870  -15.9690   -0.3440 C   0  0  2  0  0  0
   33.0900  -15.7460   -1.6290 C   0  0  0  0  0  0
   32.8550  -14.7410   -2.3310 O   0  0  0  0  0  0
   30.7870  -15.8540   -0.6340 C   0  0  2  0  0  0
   30.0730  -16.0140    0.5790 O   0  0  0  0  0  0
   30.3050  -16.9390   -1.6030 C   0  0  0  0  0  0
   33.9940  -16.5510   -1.9460 O   0  0  0  0  0  0
   46.3119  -14.7820   -2.3251 H   0  0  0  0  0  0
   47.8904  -15.1989   -3.0743 H   0  0  0  0  0  0
   46.4981  -16.3234   -3.2285 H   0  0  0  0  0  0
   46.7341  -13.5424   -4.3405 H   0  0  0  0  0  0
   46.6821  -16.2655   -5.7730 H   0  0  0  0  0  0
   46.7923  -14.6593   -6.5696 H   0  0  0  0  0  0
   49.1065  -15.6705   -6.2631 H   0  0  0  0  0  0
   45.0404  -13.0610   -6.0084 H   0  0  0  0  0  0
   42.4813  -14.6358   -5.6322 H   0  0  0  0  0  0
   42.5230  -12.8369   -3.8218 H   0  0  0  0  0  0
   40.3615  -13.8237   -4.6824 H   0  0  0  0  0  0
   43.5181  -10.9620   -5.1652 H   0  0  0  0  0  0
   41.9247  -10.5191   -4.4639 H   0  0  0  0  0  0
   42.0516  -10.9525   -6.2025 H   0  0  0  0  0  0
   40.6188  -13.2250   -6.8087 H   0  0  0  0  0  0
   41.7043  -12.6298   -9.5907 H   0  0  0  0  0  0
   39.5138  -14.7094   -8.8984 H   0  0  0  0  0  0
   39.9809  -14.2497  -10.5709 H   0  0  0  0  0  0
   41.1707  -16.3603   -9.8542 H   0  0  0  0  0  0
   40.2621  -11.1472   -7.3294 H   0  0  0  0  0  0
   37.8897  -10.1900   -9.0019 H   0  0  0  0  0  0
   38.0053  -11.0120   -6.0536 H   0  0  0  0  0  0
   36.8033   -9.7770   -6.5603 H   0  0  0  0  0  0
   36.0031  -11.4340   -8.3226 H   0  0  0  0  0  0
   37.0519  -12.6606   -7.5339 H   0  0  0  0  0  0
   35.1626  -11.1272   -5.7635 H   0  0  0  0  0  0
   34.4505  -12.3330   -6.8886 H   0  0  0  0  0  0
   36.6391  -13.6879   -5.5581 H   0  0  0  0  0  0
   33.7094  -11.8573   -4.3407 H   0  0  0  0  0  0
   33.4538  -13.1958   -3.0092 H   0  0  0  0  0  0
   36.0764  -15.2332   -4.0949 H   0  0  0  0  0  0
   36.9143   -8.2319   -8.4559 H   0  0  0  0  0  0
   39.0198   -6.1278   -8.4643 H   0  0  0  0  0  0
   36.8644   -6.2382   -9.9055 H   0  0  0  0  0  0
   35.9379   -5.8082   -8.4279 H   0  0  0  0  0  0
   35.0969   -3.3063   -8.7542 H   0  0  0  0  0  0
   38.7353   -1.5666  -10.0586 H   0  0  0  0  0  0
   38.5097   -4.0734   -7.6066 H   0  0  0  0  0  0
   39.4524   -3.3887   -5.2287 H   0  0  0  0  0  0
   38.3129   -1.7886   -6.8210 H   0  0  0  0  0  0
   36.7061   -2.3185   -6.2176 H   0  0  0  0  0  0
   36.9909   -1.1939   -4.1549 H   0  0  0  0  0  0
   38.7544   -0.9753   -4.4175 H   0  0  0  0  0  0
   36.5884    0.3359   -6.1320 H   0  0  0  0  0  0
   37.3886    1.1163   -4.7258 H   0  0  0  0  0  0
   38.8635    0.1383   -7.2083 H   0  0  0  0  0  0
   38.2738    1.8166   -6.9587 H   0  0  0  0  0  0
   40.6312    1.6046   -6.4278 H   0  0  0  0  0  0
   40.2573    0.3317   -5.2167 H   0  0  0  0  0  0
   39.6676    2.0100   -4.9670 H   0  0  0  0  0  0
   35.9279   -4.1381   -4.8675 H   0  0  0  0  0  0
   36.7145   -4.5478   -1.9253 H   0  0  0  0  0  0
   35.4543   -2.3431   -2.5590 H   0  0  0  0  0  0
   34.0499   -3.3768   -2.9899 H   0  0  0  0  0  0
   34.7683   -4.1673   -0.3668 H   0  0  0  0  0  0
   34.8997   -2.3759   -0.3806 H   0  0  0  0  0  0
   32.6569   -2.7568    0.2164 H   0  0  0  0  0  0
   32.5589   -2.4412   -1.5492 H   0  0  0  0  0  0
   32.6984   -5.0734   -1.7296 H   0  0  0  0  0  0
   32.1443   -5.0118   -0.0221 H   0  0  0  0  0  0
   30.3313   -5.2416   -1.2037 H   0  0  0  0  0  0
   31.2460   -4.8300   -3.4329 H   0  0  0  0  0  0
   30.9087   -3.0808   -3.2021 H   0  0  0  0  0  0
   29.5587   -4.2658   -3.1847 H   0  0  0  0  0  0
   30.1086   -3.4778    0.4240 H   0  0  0  0  0  0
   28.8810   -3.4600   -0.8873 H   0  0  0  0  0  0
   30.2309   -2.2751   -0.9047 H   0  0  0  0  0  0
   34.8918   -5.6876   -4.6278 H   0  0  0  0  0  0
   33.1602   -7.4348   -2.9551 H   0  0  0  0  0  0
   32.2966   -8.2998   -5.2247 H   0  0  0  0  0  0
   32.1040   -6.5428   -4.9045 H   0  0  0  0  0  0
   32.5192   -7.0742   -7.1377 H   0  0  0  0  0  0
   33.2903   -4.8907   -6.2447 H   0  0  0  0  0  0
   34.3055   -5.4487   -7.6175 H   0  0  0  0  0  0
   34.9118   -5.5979   -5.9333 H   0  0  0  0  0  0
   33.9870   -9.0660   -6.8655 H   0  0  0  0  0  0
   35.3109   -7.9972   -6.2895 H   0  0  0  0  0  0
   34.7045   -7.8480   -7.9738 H   0  0  0  0  0  0
   36.2422   -7.7738   -3.3117 H   0  0  0  0  0  0
   36.3213  -10.8151   -3.4581 H   0  0  0  0  0  0
   38.1848   -9.0253   -3.9260 H   0  0  0  0  0  0
   38.4144   -9.0858   -2.1455 H   0  0  0  0  0  0
   38.5311  -11.5243   -3.9670 H   0  0  0  0  0  0
   39.9551  -10.5554   -3.4571 H   0  0  0  0  0  0
   37.9013  -13.9621   -1.2495 H   0  0  0  0  0  0
   38.0486  -13.6979   -3.0202 H   0  0  0  0  0  0
   36.8983  -12.7098   -2.0572 H   0  0  0  0  0  0
   34.1641  -10.1429   -2.0781 H   0  0  0  0  0  0
   34.6380  -10.1190    0.8631 H   0  0  0  0  0  0
   32.0705  -10.8409    0.7731 H   0  0  0  0  0  0
   32.5647   -9.1954    0.2491 H   0  0  0  0  0  0
   32.0119  -12.6306   -1.2324 H   0  0  0  0  0  0
   31.5990   -8.3476   -1.6102 H   0  0  0  0  0  0
   30.8286  -12.9338   -3.4041 H   0  0  0  0  0  0
   30.4525   -8.6449   -3.8066 H   0  0  0  0  0  0
   30.0668  -10.9450   -4.7074 H   0  0  0  0  0  0
   33.3573  -11.8287    2.2346 H   0  0  0  0  0  0
   35.3349  -13.8900    2.3405 H   0  0  0  0  0  0
   32.5086  -13.7589    3.5792 H   0  0  0  0  0  0
   33.6967  -15.0237    4.0432 H   0  0  0  0  0  0
   35.2742  -13.2435    4.7835 H   0  0  0  0  0  0
   34.0465  -12.0011    4.3644 H   0  0  0  0  0  0
   32.4587  -13.0445    5.9898 H   0  0  0  0  0  0
   33.7174  -14.2485    6.4288 H   0  0  0  0  0  0
   34.0848  -11.2332    6.7361 H   0  0  0  0  0  0
   33.4654  -12.3081    8.0351 H   0  0  0  0  0  0
   35.8338  -11.8598    8.2934 H   0  0  0  0  0  0
   36.1515  -12.5226    6.6543 H   0  0  0  0  0  0
   35.5322  -13.5977    7.9533 H   0  0  0  0  0  0
   32.0755  -14.1470    0.9433 H   0  0  0  0  0  0
   32.4974  -16.9678    0.0660 H   0  0  0  0  0  0
   30.5629  -14.8516   -1.0276 H   0  0  0  0  0  0
   30.2628  -15.3342    1.4227 H   0  0  0  0  0  0
   30.8419  -16.8423   -2.5582 H   0  0  0  0  0  0
   29.2249  -16.8226   -1.7760 H   0  0  0  0  0  0
   30.5022  -17.9309   -1.1703 H   0  0  0  0  0  0
   34.5723  -16.3933   -2.8683 H   0  0  0  0  0  0
  1  2  1  0  0  0
  1105  1  0  0  0
  1106  1  0  0  0
  1107  1  0  0  0
  2  3  1  0  0  0
  2  5  1  0  0  0
  2108  1  0  0  0
  3  4  2  0  0  0
  3  7  1  0  0  0
  5  6  1  0  0  0
  5109  1  0  0  0
  5110  1  0  0  0
  6111  1  0  0  0
  7  8  1  0  0  0
  7112  1  0  0  0
  8  9  1  0  0  0
  8 11  1  0  0  0
  8113  1  0  0  0
  9 10  2  0  0  0
  9 14  1  0  0  0
 11 12  1  0  0  0
 11 13  1  0  0  0
 11114  1  0  0  0
 12115  1  0  0  0
 13116  1  0  0  0
 13117  1  0  0  0
 13118  1  0  0  0
 14 15  1  0  0  0
 14119  1  0  0  0
 15 16  1  0  0  0
 15 18  1  0  0  0
 15120  1  0  0  0
 16 17  2  0  0  0
 16 20  1  0  0  0
 18 19  1  0  0  0
 18121  1  0  0  0
 18122  1  0  0  0
 19123  1  0  0  0
 20 21  1  0  0  0
 20124  1  0  0  0
 21 22  1  0  0  0
 21 24  1  0  0  0
 21125  1  0  0  0
 22 23  2  0  0  0
 22 31  1  0  0  0
 24 25  1  0  0  0
 24126  1  0  0  0
 24127  1  0  0  0
 25 26  1  0  0  0
 25128  1  0  0  0
 25129  1  0  0  0
 26 27  1  0  0  0
 26130  1  0  0  0
 26131  1  0  0  0
 27 28  1  0  0  0
 27132  1  0  0  0
 28 29  1  0  0  0
 28 30  2  0  0  0
 29133  1  0  0  0
 29134  1  0  0  0
 30135  1  0  0  0
 31 32  1  0  0  0
 31136  1  0  0  0
 32 33  1  0  0  0
 32 35  1  0  0  0
 32137  1  0  0  0
 33 34  2  0  0  0
 33 41  1  0  0  0
 35 36  1  0  0  0
 35138  1  0  0  0
 35139  1  0  0  0
 36 37  2  0  0  0
 36 38  1  0  0  0
 37 39  1  0  0  0
 38 40  2  0  0  0
 38140  1  0  0  0
 39 40  1  0  0  0
 39141  1  0  0  0
 41 42  1  0  0  0
 41142  1  0  0  0
 42 43  1  0  0  0
 42 45  1  0  0  0
 42143  1  0  0  0
 43 44  2  0  0  0
 43 50  1  0  0  0
 45 46  1  0  0  0
 45144  1  0  0  0
 45145  1  0  0  0
 46 47  1  0  0  0
 46146  1  0  0  0
 46147  1  0  0  0
 47 48  1  0  0  0
 47148  1  0  0  0
 47149  1  0  0  0
 48 49  1  0  0  0
 48150  1  0  0  0
 48151  1  0  0  0
 49152  1  0  0  0
 49153  1  0  0  0
 49154  1  0  0  0
 50 51  1  0  0  0
 50155  1  0  0  0
 51 52  1  0  0  0
 51 59  1  0  0  0
 51156  1  0  0  0
 52 53  1  0  0  0
 52157  1  0  0  0
 52158  1  0  0  0
 53 54  1  0  0  0
 53159  1  0  0  0
 53160  1  0  0  0
 54 55  1  0  0  0
 54161  1  0  0  0
 54162  1  0  0  0
 55 56  1  0  0  0
 55163  1  0  0  0
 55164  1  0  0  0
 56 57  1  0  0  0
 56 58  1  0  0  0
 56165  1  0  0  0
 57166  1  0  0  0
 57167  1  0  0  0
 57168  1  0  0  0
 58169  1  0  0  0
 58170  1  0  0  0
 58171  1  0  0  0
 59 60  2  0  0  0
 59 61  1  0  0  0
 61 62  1  0  0  0
 61172  1  0  0  0
 62 63  1  0  0  0
 62 65  1  0  0  0
 62173  1  0  0  0
 63 64  2  0  0  0
 63 69  1  0  0  0
 65 66  1  0  0  0
 65174  1  0  0  0
 65175  1  0  0  0
 66 67  1  0  0  0
 66 68  1  0  0  0
 66176  1  0  0  0
 67177  1  0  0  0
 67178  1  0  0  0
 67179  1  0  0  0
 68180  1  0  0  0
 68181  1  0  0  0
 68182  1  0  0  0
 69 70  1  0  0  0
 69183  1  0  0  0
 70 71  1  0  0  0
 70 73  1  0  0  0
 70184  1  0  0  0
 71 72  2  0  0  0
 71 77  1  0  0  0
 73 74  1  0  0  0
 73185  1  0  0  0
 73186  1  0  0  0
 74 75  1  0  0  0
 74187  1  0  0  0
 74188  1  0  0  0
 75 76  1  0  0  0
 76189  1  0  0  0
 76190  1  0  0  0
 76191  1  0  0  0
 77 78  1  0  0  0
 77192  1  0  0  0
 78 79  1  0  0  0
 78 81  1  0  0  0
 78193  1  0  0  0
 79 80  2  0  0  0
 79 88  1  0  0  0
 81 82  1  0  0  0
 81194  1  0  0  0
 81195  1  0  0  0
 82 83  2  0  0  0
 82 84  1  0  0  0
 83 85  1  0  0  0
 83196  1  0  0  0
 84 86  2  0  0  0
 84197  1  0  0  0
 85 87  2  0  0  0
 85198  1  0  0  0
 86 87  1  0  0  0
 86199  1  0  0  0
 87200  1  0  0  0
 88 89  1  0  0  0
 88201  1  0  0  0
 89 90  1  0  0  0
 89 92  1  0  0  0
 89202  1  0  0  0
 90 91  2  0  0  0
 90 97  1  0  0  0
 92 93  1  0  0  0
 92203  1  0  0  0
 92204  1  0  0  0
 93 94  1  0  0  0
 93205  1  0  0  0
 93206  1  0  0  0
 94 95  1  0  0  0
 94207  1  0  0  0
 94208  1  0  0  0
 95 96  1  0  0  0
 95209  1  0  0  0
 95210  1  0  0  0
 96211  1  0  0  0
 96212  1  0  0  0
 96213  1  0  0  0
 97 98  1  0  0  0
 97214  1  0  0  0
 98 99  1  0  0  0
 98101  1  0  0  0
 98215  1  0  0  0
 99100  2  0  0  0
 99104  1  0  0  0
101102  1  0  0  0
101103  1  0  0  0
101216  1  0  0  0
102217  1  0  0  0
103218  1  0  0  0
103219  1  0  0  0
103220  1  0  0  0
104221  1  0  0  0
M  CHG  4   1   1  49   1  56   1  96   1
M  END
> <s_m_source_file>
../2mwp_ligand.sdf

> <i_m_source_file_index>
1

> <s_epik_input>
W09IXVtDSDJdW0NASF0oW05IMytdKUMoPU8pW05IXVtDQEBIXShbQ0BIXShbT0hdKVtDSDNdKUMoPU8pW05IXVtDQEBIXShbQ0gyXVtPSF0pQyg9TylbTkhdW0NAQEhdKFtDSDJdW0NIMl1bQ0gyXVtOSF0vQyhbTkgyXSk9TlxbSF0pQyg9TylbTkhdW0NAQEhdKFtDSDJdQzE9TltDSDJdTj1bQ0hdMSlDKD1PKVtOSF1bQ0BASF0oW0NIMl1bQ0gyXVtDSDJdW0NIMl1bTkgzK10pQyg9TylbTkhdW0NAQEhdKFtDSDJdW0NIMl1bQ0gyXVtDSDJdW05IK10oW0NIM10pW0NIM10pQyg9TylbTkhdW0NAQEhdKFtDSDJdW0NIXShbQ0gzXSlbQ0gzXSlDKD1PKVtOSF1bQ0BASF0oW0NIMl1bQ0gyXVNbQ0gzXSlDKD1PKVtOSF1bQ0BASF0oW0NIMl1jMltjSF1bY0hdW2NIXVtjSF1bY0hdMilDKD1PKVtOSF1bQ0BIXShDKD1PKVtOSF1bQ0BIXShDKD1PKVtPSF0pW0NASF0oW09IXSlbQ0gzXSlbQ0gyXVtDSDJdW0NIMl1bQ0gyXVtOSDMrXQ==

> <s_epik_cmdline>
J2VwaWtfYXBwJywgJy1pbWFlJywgJ2xpZ2FuZF9wcm8ubWFlJywgJy1vbWFlJywgJ2xpZ2FuZF9wcmVwLm1hZScsICctbXMnLCAnMScsICctcGgnLCAnNycsICctcGh0JywgJzAuNScsICctbnQn

> <s_epik_pKa_notes>
Molecule size exceeds maximum supported for generating protonation states

> <s_epik_Chemistry_Notes>
This compound has an imine and may undergo hydrolysis.

$$$$
