2nmb_ligand
                    3D
 Schrodinger Suite 2020-3.
117119  0  0  1  0            999 V2000
  -13.0810   -5.9220    0.9010 N   0  3  0  0  0  0
  -12.7090   -4.5860    0.3710 C   0  0  2  0  0  0
  -12.8320   -4.5470   -1.1500 C   0  0  0  0  0  0
  -13.7160   -3.8830   -1.6930 O   0  0  0  0  0  0
  -11.2920   -4.2250    0.7940 C   0  0  0  0  0  0
  -11.9430   -5.2620   -1.8300 N   0  0  0  0  0  0
  -11.9550   -5.3100   -3.2890 C   0  0  2  0  0  0
  -11.1300   -6.4860   -3.8080 C   0  0  0  0  0  0
  -11.6570   -7.5810   -4.0070 O   0  0  0  0  0  0
  -11.4380   -3.9950   -3.8980 C   0  0  0  0  0  0
  -10.6410   -3.1180   -2.9490 C   0  0  0  0  0  0
   -9.7140   -3.6630   -2.0630 C   0  0  0  0  0  0
  -10.7970   -1.7370   -2.9620 C   0  0  0  0  0  0
   -8.9890   -2.8570   -1.2050 C   0  0  0  0  0  0
  -10.0720   -0.9260   -2.1110 C   0  0  0  0  0  0
   -9.1690   -1.4900   -1.2350 C   0  0  0  0  0  0
   -8.4450   -0.6860   -0.3860 O   0  0  0  0  0  0
   -9.8380   -6.2600   -4.0370 N   0  0  0  0  0  0
   -8.9590   -7.3130   -4.5330 C   0  0  2  0  0  0
   -7.9860   -7.7620   -3.4490 C   0  0  0  0  0  0
   -7.8850   -8.9510   -3.1460 O   0  0  0  0  0  0
   -8.1580   -6.8600   -5.7730 C   0  0  2  0  0  0
   -8.9710   -5.8770   -6.6210 C   0  0  0  0  0  0
   -7.7530   -8.0660   -6.6060 C   0  0  0  0  0  0
  -10.3510   -6.3850   -6.9830 C   0  0  0  0  0  0
   -7.2810   -6.8040   -2.8570 N   0  0  0  0  0  0
   -6.3300   -7.1240   -1.8090 C   0  0  0  0  0  0
   -6.9380   -7.9850   -0.7170 C   0  0  0  0  0  0
   -6.6930   -9.1900   -0.6670 O   0  0  0  0  0  0
   -7.7710   -7.3970    0.1580 N   0  0  0  0  0  0
   -8.4080   -8.1180    1.2730 C   0  0  2  0  0  0
   -9.4970   -9.0930    0.8210 C   0  0  0  0  0  0
  -10.6110   -9.0610    1.3430 O   0  0  0  0  0  0
   -9.0380   -6.9970    2.1150 C   0  0  0  0  0  0
   -8.4180   -5.7320    1.6280 C   0  0  0  0  0  0
   -8.1020   -5.9670    0.1810 C   0  0  0  0  0  0
   -9.1680   -9.9700   -0.1280 N   0  0  0  0  0  0
  -10.1190  -10.9630   -0.6260 C   0  0  2  0  0  0
   -9.4980  -11.7890   -1.7460 C   0  0  0  0  0  0
   -9.2600  -12.9880   -1.5910 O   0  0  0  0  0  0
  -11.3970  -10.2870   -1.1420 C   0  0  0  0  0  0
  -12.5490  -11.2440   -1.3820 C   0  0  0  0  0  0
  -12.5570  -12.5150   -0.8160 C   0  0  0  0  0  0
  -13.7170  -10.8040   -1.9910 C   0  0  0  0  0  0
  -13.7270  -13.2460   -0.7240 C   0  0  0  0  0  0
  -14.9120  -11.4720   -1.8000 C   0  0  0  0  0  0
  -14.9140  -12.6840   -1.1400 C   0  0  0  0  0  0
  -16.1630  -13.3230   -0.8180 O   0  0  0  0  0  0
  -16.8220  -13.1520    0.6630 P   0  0  0  0  0  0
  -15.7150  -13.4880    1.6500 O   0  5  0  0  0  0
  -17.9800  -14.1350    0.7180 O   0  5  0  0  0  0
  -17.2720  -11.7030    0.7510 O   0  0  0  0  0  0
   -9.2470  -11.1400   -2.8760 N   0  0  0  0  0  0
   -8.6630  -11.8080   -4.0340 C   0  0  2  0  0  0
   -7.1490  -11.6210   -4.0620 C   0  0  0  0  0  0
   -6.6930  -10.5520   -4.5210 O   0  5  0  0  0  0
   -9.2810  -11.2710   -5.3300 C   0  0  0  0  0  0
  -10.6630  -10.6250   -5.1820 C   0  0  0  0  0  0
  -11.1600  -10.1150   -6.5270 C   0  0  0  0  0  0
  -11.6520  -11.6150   -4.5850 C   0  0  0  0  0  0
   -6.4320  -12.5430   -3.6200 O   0  0  0  0  0  0
  -14.1061   -6.1684    0.5874 H   0  0  0  0  0  0
  -13.0268   -5.9087    1.9996 H   0  0  0  0  0  0
  -12.3856   -6.6787    0.5087 H   0  0  0  0  0  0
  -13.4176   -3.8667    0.8075 H   0  0  0  0  0  0
  -11.2175   -4.2569    1.8910 H   0  0  0  0  0  0
  -11.0503   -3.2122    0.4394 H   0  0  0  0  0  0
  -10.5843   -4.9450    0.3573 H   0  0  0  0  0  0
  -11.1851   -5.8267   -1.2673 H   0  0  0  0  0  0
  -13.0140   -5.4563   -3.5479 H   0  0  0  0  0  0
  -10.7779   -4.2195   -4.7488 H   0  0  0  0  0  0
  -12.2899   -3.3914   -4.2443 H   0  0  0  0  0  0
   -9.5580   -4.7416   -2.0461 H   0  0  0  0  0  0
  -11.5049   -1.2854   -3.6570 H   0  0  0  0  0  0
   -8.2780   -3.3002   -0.5077 H   0  0  0  0  0  0
  -10.2130    0.1546   -2.1318 H   0  0  0  0  0  0
   -7.7239   -1.1335    0.3138 H   0  0  0  0  0  0
   -9.4368   -5.2541   -3.8443 H   0  0  0  0  0  0
   -9.6493   -8.1283   -4.7952 H   0  0  0  0  0  0
   -7.2431   -6.3485   -5.4393 H   0  0  0  0  0  0
   -9.1026   -4.9362   -6.0665 H   0  0  0  0  0  0
   -8.4378   -5.6764   -7.5620 H   0  0  0  0  0  0
   -7.1706   -8.7621   -5.9844 H   0  0  0  0  0  0
   -7.1406   -7.7345   -7.4575 H   0  0  0  0  0  0
   -8.6548   -8.5738   -6.9786 H   0  0  0  0  0  0
  -10.8726   -5.6294   -7.5889 H   0  0  0  0  0  0
  -10.9238   -6.5771   -6.0638 H   0  0  0  0  0  0
  -10.2589   -7.3174   -7.5593 H   0  0  0  0  0  0
   -7.4244   -5.7590   -3.1692 H   0  0  0  0  0  0
   -5.4802   -7.6735   -2.2403 H   0  0  0  0  0  0
   -5.9683   -6.1942   -1.3457 H   0  0  0  0  0  0
   -7.6473   -8.7275    1.7827 H   0  0  0  0  0  0
  -10.1276   -6.9931    1.9639 H   0  0  0  0  0  0
   -8.8159   -7.1683    3.1786 H   0  0  0  0  0  0
   -9.1301   -4.9029    1.7527 H   0  0  0  0  0  0
   -7.5069   -5.5232    2.2080 H   0  0  0  0  0  0
   -7.2363   -5.3846   -0.1675 H   0  0  0  0  0  0
   -8.9608   -5.7787   -0.4801 H   0  0  0  0  0  0
   -8.1477   -9.9318   -0.5374 H   0  0  0  0  0  0
  -10.3426  -11.6041    0.2394 H   0  0  0  0  0  0
  -11.7408   -9.5438   -0.4076 H   0  0  0  0  0  0
  -11.1866   -9.7868   -2.0988 H   0  0  0  0  0  0
  -11.6270  -12.9408   -0.4395 H   0  0  0  0  0  0
  -13.6911   -9.9200   -2.6282 H   0  0  0  0  0  0
  -13.7103  -14.2602   -0.3250 H   0  0  0  0  0  0
  -15.8451  -11.0450   -2.1676 H   0  0  0  0  0  0
   -9.4920  -10.0687   -2.9246 H   0  0  0  0  0  0
   -8.9020  -12.8742   -3.9069 H   0  0  0  0  0  0
   -8.6224  -10.5013   -5.7588 H   0  0  0  0  0  0
   -9.3985  -12.0950   -6.0491 H   0  0  0  0  0  0
  -10.5837   -9.7665   -4.4989 H   0  0  0  0  0  0
  -10.4317   -9.4019   -6.9406 H   0  0  0  0  0  0
  -12.1295   -9.6129   -6.3932 H   0  0  0  0  0  0
  -11.2780  -10.9616   -7.2193 H   0  0  0  0  0  0
  -11.2744  -11.9707   -3.6150 H   0  0  0  0  0  0
  -11.7726  -12.4694   -5.2672 H   0  0  0  0  0  0
  -12.6241  -11.1206   -4.4411 H   0  0  0  0  0  0
  1  2  1  0  0  0
  1 62  1  0  0  0
  1 63  1  0  0  0
  1 64  1  0  0  0
  2  3  1  0  0  0
  2  5  1  0  0  0
  2 65  1  0  0  0
  3  4  2  0  0  0
  3  6  1  0  0  0
  5 66  1  0  0  0
  5 67  1  0  0  0
  5 68  1  0  0  0
  6  7  1  0  0  0
  6 69  1  0  0  0
  7  8  1  0  0  0
  7 10  1  0  0  0
  7 70  1  0  0  0
  8  9  2  0  0  0
  8 18  1  0  0  0
 10 11  1  0  0  0
 10 71  1  0  0  0
 10 72  1  0  0  0
 11 12  2  0  0  0
 11 13  1  0  0  0
 12 14  1  0  0  0
 12 73  1  0  0  0
 13 15  2  0  0  0
 13 74  1  0  0  0
 14 16  2  0  0  0
 14 75  1  0  0  0
 15 16  1  0  0  0
 15 76  1  0  0  0
 16 17  1  0  0  0
 17 77  1  0  0  0
 18 19  1  0  0  0
 18 78  1  0  0  0
 19 20  1  0  0  0
 19 22  1  0  0  0
 19 79  1  0  0  0
 20 21  2  0  0  0
 20 26  1  0  0  0
 22 23  1  0  0  0
 22 24  1  0  0  0
 22 80  1  0  0  0
 23 25  1  0  0  0
 23 81  1  0  0  0
 23 82  1  0  0  0
 24 83  1  0  0  0
 24 84  1  0  0  0
 24 85  1  0  0  0
 25 86  1  0  0  0
 25 87  1  0  0  0
 25 88  1  0  0  0
 26 27  1  0  0  0
 26 89  1  0  0  0
 27 28  1  0  0  0
 27 90  1  0  0  0
 27 91  1  0  0  0
 28 29  2  0  0  0
 28 30  1  0  0  0
 30 31  1  0  0  0
 30 36  1  0  0  0
 31 32  1  0  0  0
 31 34  1  0  0  0
 31 92  1  0  0  0
 32 33  2  0  0  0
 32 37  1  0  0  0
 34 35  1  0  0  0
 34 93  1  0  0  0
 34 94  1  0  0  0
 35 36  1  0  0  0
 35 95  1  0  0  0
 35 96  1  0  0  0
 36 97  1  0  0  0
 36 98  1  0  0  0
 37 38  1  0  0  0
 37 99  1  0  0  0
 38 39  1  0  0  0
 38 41  1  0  0  0
 38100  1  0  0  0
 39 40  2  0  0  0
 39 53  1  0  0  0
 41 42  1  0  0  0
 41101  1  0  0  0
 41102  1  0  0  0
 42 43  2  0  0  0
 42 44  1  0  0  0
 43 45  1  0  0  0
 43103  1  0  0  0
 44 46  2  0  0  0
 44104  1  0  0  0
 45 47  2  0  0  0
 45105  1  0  0  0
 46 47  1  0  0  0
 46106  1  0  0  0
 47 48  1  0  0  0
 48 49  1  0  0  0
 49 50  1  0  0  0
 49 51  1  0  0  0
 49 52  2  0  0  0
 53 54  1  0  0  0
 53107  1  0  0  0
 54 55  1  0  0  0
 54 57  1  0  0  0
 54108  1  0  0  0
 55 56  1  0  0  0
 55 61  2  0  0  0
 57 58  1  0  0  0
 57109  1  0  0  0
 57110  1  0  0  0
 58 59  1  0  0  0
 58 60  1  0  0  0
 58111  1  0  0  0
 59112  1  0  0  0
 59113  1  0  0  0
 59114  1  0  0  0
 60115  1  0  0  0
 60116  1  0  0  0
 60117  1  0  0  0
M  CHG  4   1   1  50  -1  51  -1  56  -1
M  END
> <s_m_source_file>
../2nmb_ligand.sdf

> <i_m_source_file_index>
1

> <s_epik_input>
W2NIXTFbY0hdYyhbT0hdKVtjSF1bY0hdYzFbQ0gyXVtDQEhdKFtOSF1DKD1PKVtDQEBIXShbTkgzK10pW0NIM10pQyg9TylbTkhdW0NAQEhdKFtDQEBIXShbQ0gzXSlbQ0gyXVtDSDNdKUMoPU8pW05IXVtDSDJdQyg9TylOMltDQEBIXShbQ0gyXVtDSDJdW0NIMl0yKUMoPU8pW05IXVtDQEhdKEMoPU8pW05IXVtDQEhdKEMoPU8pW09IXSlbQ0gyXVtDSF0oW0NIM10pW0NIM10pW0NIMl1jM1tjSF1bY0hdYyhbY0hdW2NIXTMpT1AoPU8pKFtPSF0pW09IXQ==

> <s_epik_cmdline>
J2VwaWtfYXBwJywgJy1pbWFlJywgJ2xpZ2FuZF9wcm8ubWFlJywgJy1vbWFlJywgJ2xpZ2FuZF9wcmVwLm1hZScsICctbXMnLCAnMScsICctcGgnLCAnNycsICctcGh0JywgJzAuNScsICctbnQn

> <r_lp_tautomer_probability>
1

> <r_epik_Ionization_Penalty>
  0.2160

> <r_epik_Ionization_Penalty_Charging>
  0.2151

> <r_epik_Ionization_Penalty_Neutral>
  0.0009

> <r_epik_State_Penalty>
 -0.0000

> <r_epik_Charging_Adjusted_Penalty>
0.215120684353575

> <i_epik_Tot_Q>
-2

> <i_epik_Tot_abs_Q>
4

$$$$
