2nmy_ligand
                    3D
 Schrodinger Suite 2020-3.
100104  0  0  1  0            999 V2000
   21.3160   28.0230   18.7860 O   0  0  0  0  0  0
   21.7490   26.8050   18.7900 C   0  0  0  0  0  0
   23.3760   25.0100   19.2660 N   0  0  0  0  0  0
   22.8630   26.2350   19.5820 C   0  0  0  0  0  0
   23.4120   26.9840   20.6270 C   0  0  0  0  0  0
   24.5010   26.4220   21.3230 C   0  0  0  0  0  0
   25.0350   25.1550   20.9980 C   0  0  0  0  0  0
   26.1110   24.5650   21.6620 C   0  0  0  0  0  0
   26.5900   23.3250   21.3010 C   0  0  0  0  0  0
   26.0060   22.6300   20.2570 C   0  0  0  0  0  0
   24.9460   23.1980   19.5950 C   0  0  0  0  0  0
   24.4350   24.4580   19.9370 C   0  0  0  0  0  0
   21.1920   25.9130   17.9020 N   0  0  0  0  0  0
   19.9340   26.1320   17.0460 C   0  0  2  0  0  0
   18.8800   24.9880   17.2750 C   0  0  0  0  0  0
   18.8350   23.9360   16.5710 O   0  0  0  0  0  0
   20.2840   26.2720   15.5030 C   0  0  0  0  0  0
   21.2790   27.3910   15.3910 C   0  0  0  0  0  0
   22.5290   27.1740   15.1770 O   0  0  0  0  0  0
   20.8740   28.6270   15.5050 N   0  0  0  0  0  0
   15.6590   24.7940   18.4730 C   0  0  1  0  0  0
   15.3100   25.8970   19.3130 O   0  0  0  0  0  0
   17.0730   24.2490   18.8020 C   0  0  1  0  0  0
   18.1020   25.1880   18.3350 N   0  0  0  0  0  0
   17.2550   23.9090   20.3430 C   0  0  0  0  0  0
   18.7020   23.6360   20.7300 C   0  0  0  0  0  0
   19.3300   22.4280   20.3850 C   0  0  0  0  0  0
   19.4280   24.5580   21.4450 C   0  0  0  0  0  0
   20.6250   22.1710   20.7480 C   0  0  0  0  0  0
   20.7280   24.3030   21.8100 C   0  0  0  0  0  0
   21.3710   23.1000   21.4740 C   0  0  0  0  0  0
   14.4650   22.9930   17.2080 N   0  3  1  0  0  0
   14.5760   23.7260   18.4630 C   0  0  0  0  0  0
   13.8350   21.6460   17.3150 C   0  0  2  0  0  0
   14.5280   20.7830   18.3590 C   0  0  0  0  0  0
   15.7260   20.5630   18.2430 O   0  0  0  0  0  0
   13.8440   20.9340   15.9790 C   0  0  0  0  0  0
   13.1820   21.7180   14.8750 C   0  0  2  0  0  0
   13.2990   21.0840   13.4710 C   0  0  0  0  0  0
   14.7250   21.2020   12.9000 C   0  0  0  0  0  0
   15.0460   22.6730   12.7470 C   0  0  0  0  0  0
   15.0920   23.2290   14.1710 C   0  0  0  0  0  0
   13.7210   23.1660   14.8180 C   0  0  2  0  0  0
   13.7230   23.7890   16.1940 C   0  0  0  0  0  0
   13.7430   20.1270   19.2750 N   0  0  0  0  0  0
   14.1900   19.1990   20.3240 C   0  0  0  0  0  0
   12.9740   18.7690   21.0910 C   0  0  0  0  0  0
   15.1320   19.9730   21.2380 C   0  0  0  0  0  0
   14.9270   18.0370   19.6990 C   0  0  0  0  0  0
   23.0138   27.9632   20.8928 H   0  0  0  0  0  0
   24.9477   26.9855   22.1421 H   0  0  0  0  0  0
   26.5841   25.0983   22.4865 H   0  0  0  0  0  0
   27.4319   22.8899   21.8396 H   0  0  0  0  0  0
   26.3809   21.6489   19.9653 H   0  0  0  0  0  0
   24.4849   22.6495   18.7737 H   0  0  0  0  0  0
   21.7428   24.9630   17.8372 H   0  0  0  0  0  0
   19.5044   27.0803   17.4011 H   0  0  0  0  0  0
   20.7123   25.3272   15.1370 H   0  0  0  0  0  0
   19.3683   26.5024   14.9387 H   0  0  0  0  0  0
   19.8110   28.8428   15.6882 H   0  0  0  0  0  0
   21.5957   29.4525   15.4179 H   0  0  0  0  0  0
   15.6746   25.2370   17.4663 H   0  0  0  0  0  0
   15.9995   26.7475   19.4188 H   0  0  0  0  0  0
   17.2348   23.3373   18.2082 H   0  0  0  0  0  0
   18.2699   26.1324   18.8735 H   0  0  0  0  0  0
   16.9031   24.7565   20.9495 H   0  0  0  0  0  0
   16.6695   23.0117   20.5922 H   0  0  0  0  0  0
   18.7757   21.6806   19.8173 H   0  0  0  0  0  0
   18.9664   25.5045   21.7264 H   0  0  0  0  0  0
   21.0817   21.2228   20.4644 H   0  0  0  0  0  0
   21.2761   25.0558   22.3765 H   0  0  0  0  0  0
   22.4023   22.9021   21.7662 H   0  0  0  0  0  0
   15.5152   22.8414   16.9182 H   0  0  0  0  0  0
   14.7838   22.9857   19.2496 H   0  0  0  0  0  0
   13.5979   24.1938   18.6489 H   0  0  0  0  0  0
   12.7951   21.8240   17.6265 H   0  0  0  0  0  0
   14.8830   20.7452   15.6712 H   0  0  0  0  0  0
   13.3089   19.9772   16.0698 H   0  0  0  0  0  0
   12.1205   21.6938   15.1625 H   0  0  0  0  0  0
   13.0396   20.0165   13.5280 H   0  0  0  0  0  0
   12.6100   21.5924   12.7805 H   0  0  0  0  0  0
   15.4371   20.7272   13.5910 H   0  0  0  0  0  0
   14.7715   20.6990   11.9229 H   0  0  0  0  0  0
   16.0153   22.7859   12.2393 H   0  0  0  0  0  0
   14.2606   23.1596   12.1501 H   0  0  0  0  0  0
   15.7961   22.6363   14.7734 H   0  0  0  0  0  0
   15.4241   24.2774   14.1448 H   0  0  0  0  0  0
   13.0544   23.7751   14.1898 H   0  0  0  0  0  0
   12.6740   23.8955   16.5074 H   0  0  0  0  0  0
   14.1812   24.7848   16.1025 H   0  0  0  0  0  0
   12.6733   20.3587   19.1649 H   0  0  0  0  0  0
   12.4805   19.6528   21.5214 H   0  0  0  0  0  0
   13.2731   18.0859   21.8996 H   0  0  0  0  0  0
   12.2771   18.2531   20.4142 H   0  0  0  0  0  0
   14.5919   20.8176   21.6907 H   0  0  0  0  0  0
   15.9816   20.3530   20.6518 H   0  0  0  0  0  0
   15.5025   19.3071   22.0313 H   0  0  0  0  0  0
   14.2437   17.4811   19.0402 H   0  0  0  0  0  0
   15.2973   17.3691   20.4907 H   0  0  0  0  0  0
   15.7764   18.4151   19.1112 H   0  0  0  0  0  0
  1  2  2  0  0  0
  2  4  1  0  0  0
  2 13  1  0  0  0
  3  4  2  0  0  0
  3 12  1  0  0  0
  4  5  1  0  0  0
  5  6  2  0  0  0
  5 50  1  0  0  0
  6  7  1  0  0  0
  6 51  1  0  0  0
  7  8  1  0  0  0
  7 12  2  0  0  0
  8  9  2  0  0  0
  8 52  1  0  0  0
  9 10  1  0  0  0
  9 53  1  0  0  0
 10 11  2  0  0  0
 10 54  1  0  0  0
 11 12  1  0  0  0
 11 55  1  0  0  0
 13 14  1  0  0  0
 13 56  1  0  0  0
 14 15  1  0  0  0
 14 17  1  0  0  0
 14 57  1  0  0  0
 15 16  2  0  0  0
 15 24  1  0  0  0
 17 18  1  0  0  0
 17 58  1  0  0  0
 17 59  1  0  0  0
 18 19  2  0  0  0
 18 20  1  0  0  0
 20 60  1  0  0  0
 20 61  1  0  0  0
 21 22  1  0  0  0
 21 23  1  0  0  0
 21 33  1  0  0  0
 21 62  1  0  0  0
 22 63  1  0  0  0
 23 24  1  0  0  0
 23 25  1  0  0  0
 23 64  1  0  0  0
 24 65  1  0  0  0
 25 26  1  0  0  0
 25 66  1  0  0  0
 25 67  1  0  0  0
 26 27  2  0  0  0
 26 28  1  0  0  0
 27 29  1  0  0  0
 27 68  1  0  0  0
 28 30  2  0  0  0
 28 69  1  0  0  0
 29 31  2  0  0  0
 29 70  1  0  0  0
 30 31  1  0  0  0
 30 71  1  0  0  0
 31 72  1  0  0  0
 32 33  1  0  0  0
 32 34  1  0  0  0
 32 44  1  0  0  0
 32 73  1  0  0  0
 33 74  1  0  0  0
 33 75  1  0  0  0
 34 35  1  0  0  0
 34 37  1  0  0  0
 34 76  1  0  0  0
 35 36  2  0  0  0
 35 45  1  0  0  0
 37 38  1  0  0  0
 37 77  1  0  0  0
 37 78  1  0  0  0
 38 39  1  0  0  0
 38 43  1  0  0  0
 38 79  1  0  0  0
 39 40  1  0  0  0
 39 80  1  0  0  0
 39 81  1  0  0  0
 40 41  1  0  0  0
 40 82  1  0  0  0
 40 83  1  0  0  0
 41 42  1  0  0  0
 41 84  1  0  0  0
 41 85  1  0  0  0
 42 43  1  0  0  0
 42 86  1  0  0  0
 42 87  1  0  0  0
 43 44  1  0  0  0
 43 88  1  0  0  0
 44 89  1  0  0  0
 44 90  1  0  0  0
 45 46  1  0  0  0
 45 91  1  0  0  0
 46 47  1  0  0  0
 46 48  1  0  0  0
 46 49  1  0  0  0
 47 92  1  0  0  0
 47 93  1  0  0  0
 47 94  1  0  0  0
 48 95  1  0  0  0
 48 96  1  0  0  0
 48 97  1  0  0  0
 49 98  1  0  0  0
 49 99  1  0  0  0
 49100  1  0  0  0
M  CHG  1  32   1
M  END
> <s_m_source_file>
../2nmy_ligand.sdf

> <i_m_source_file_index>
1

> <s_epik_input>
W2NIXTFbY0hdW2NIXVtjSF1jKGMxMiluYyhbY0hdW2NIXTIpQyg9TylbTkhdW0NAQEhdKFtDSDJdQyg9TylbTkgyXSlDKD1PKVtOSF1bQ0BASF0oW0NIMl1jM1tjSF1bY0hdW2NIXVtjSF1bY0hdMylbQ0BIXShbT0hdKVtDSDJdW05AQEgrXShbQ0BASF0oW0NIMl00KUMoPU8pW05IXUMoW0NIM10pKFtDSDNdKVtDSDNdKVtDSDJdW0NASF0oW0NASF00NSlbQ0gyXVtDSDJdW0NIMl1bQ0gyXTU=

> <s_epik_cmdline>
J2VwaWtfYXBwJywgJy1pbWFlJywgJ2xpZ2FuZF9wcm8ubWFlJywgJy1vbWFlJywgJ2xpZ2FuZF9wcmVwLm1hZScsICctbXMnLCAnMScsICctcGgnLCAnNycsICctcGh0JywgJzAuNScsICctbnQn

> <r_epik_Ionization_Penalty>
  0.0170

> <r_epik_Ionization_Penalty_Charging>
  0.0167

> <r_epik_Ionization_Penalty_Neutral>
  0.0002

> <r_epik_State_Penalty>
  0.0132

> <r_epik_Charging_Adjusted_Penalty>
0.0299262088794582

> <i_epik_Tot_Q>
1

> <i_epik_Tot_abs_Q>
1

$$$$
