2nmz_ligand
                    3D
 Schrodinger Suite 2020-3.
100104  0  0  1  0            999 V2000
   18.8080   35.1930   19.1060 O   0  0  0  0  0  0
   19.4420   35.7070   18.0870 C   0  0  0  0  0  0
   20.5190   37.5130   16.8160 N   0  0  0  0  0  0
   20.3810   36.8550   18.0380 C   0  0  0  0  0  0
   21.0610   37.3250   19.1550 C   0  0  0  0  0  0
   21.9900   38.3620   19.0420 C   0  0  0  0  0  0
   22.0520   39.0840   17.8470 C   0  0  0  0  0  0
   22.8740   40.2130   17.7490 C   0  0  0  0  0  0
   22.8750   40.9410   16.5830 C   0  0  0  0  0  0
   22.2200   40.4090   15.5010 C   0  0  0  0  0  0
   21.5670   39.2210   15.4910 C   0  0  0  0  0  0
   21.3480   38.6040   16.7390 C   0  0  0  0  0  0
   19.1240   35.1770   16.9000 N   0  0  0  0  0  0
   18.3220   33.9500   16.7130 C   0  0  2  0  0  0
   19.1400   32.9980   15.8530 C   0  0  0  0  0  0
   19.1080   33.1340   14.6100 O   0  0  0  0  0  0
   16.9670   34.1710   16.1770 C   0  0  0  0  0  0
   16.2190   35.0510   17.1230 C   0  0  0  0  0  0
   15.9560   36.2410   16.8850 O   0  0  0  0  0  0
   15.8500   34.5260   18.1580 N   0  0  0  0  0  0
   20.1470   29.7160   16.0930 C   0  0  1  0  0  0
   20.3780   29.4140   17.4620 O   0  0  0  0  0  0
   20.6840   31.1000   15.7290 C   0  0  1  0  0  0
   19.8940   32.0840   16.4740 N   0  0  0  0  0  0
   22.1470   31.3120   16.0740 C   0  0  0  0  0  0
   22.5950   32.7250   16.1290 C   0  0  0  0  0  0
   22.8400   33.4010   14.9200 C   0  0  0  0  0  0
   22.7840   33.3930   17.3260 C   0  0  0  0  0  0
   23.2900   34.6910   14.9660 C   0  0  0  0  0  0
   23.1740   34.7100   17.3230 C   0  0  0  0  0  0
   23.4750   35.3600   16.1490 C   0  0  0  0  0  0
   19.8250   28.6180   13.9350 N   0  3  1  0  0  0
   20.5760   28.5920   15.1630 C   0  0  0  0  0  0
   20.5310   28.0220   12.7960 C   0  0  2  0  0  0
   21.8210   28.7490   12.3920 C   0  0  0  0  0  0
   21.7120   29.9440   12.1960 O   0  0  0  0  0  0
   19.7080   28.1670   11.5340 C   0  0  0  0  0  0
   18.3780   27.4230   11.6980 C   0  0  2  0  0  0
   17.4920   27.6600   10.4740 C   0  0  0  0  0  0
   17.0860   29.1530   10.3250 C   0  0  0  0  0  0
   16.1960   29.4130   11.5460 C   0  0  0  0  0  0
   17.1140   29.3220   12.7320 C   0  0  0  0  0  0
   17.6670   27.9340   12.9730 C   0  0  2  0  0  0
   18.5950   27.8430   14.1640 C   0  0  0  0  0  0
   22.8690   27.9140   12.2830 N   0  0  0  0  0  0
   24.2190   28.2970   11.8940 C   0  0  0  0  0  0
   25.0000   27.0040   11.7370 C   0  0  0  0  0  0
   24.4880   29.4030   12.7460 C   0  0  0  0  0  0
   24.1310   29.0940   10.5730 C   0  0  0  0  0  0
   20.8672   36.8793   20.1307 H   0  0  0  0  0  0
   22.6548   38.6038   19.8712 H   0  0  0  0  0  0
   23.5050   40.5109   18.5864 H   0  0  0  0  0  0
   23.3779   41.9060   16.5202 H   0  0  0  0  0  0
   22.2251   40.9870   14.5769 H   0  0  0  0  0  0
   21.2273   38.7644   14.5613 H   0  0  0  0  0  0
   19.5057   35.7233   16.0249 H   0  0  0  0  0  0
   18.1034   33.5408   17.7104 H   0  0  0  0  0  0
   17.0369   34.6543   15.1913 H   0  0  0  0  0  0
   16.4506   33.2050   16.0759 H   0  0  0  0  0  0
   16.0902   33.4709   18.3556 H   0  0  0  0  0  0
   15.2765   35.1069   18.8953 H   0  0  0  0  0  0
   19.0498   29.7545   16.0243 H   0  0  0  0  0  0
   20.1112   30.1453   18.2392 H   0  0  0  0  0  0
   20.5824   31.2405   14.6427 H   0  0  0  0  0  0
   19.9110   32.0840   17.5739 H   0  0  0  0  0  0
   22.3559   30.8829   17.0651 H   0  0  0  0  0  0
   22.7770   30.8173   15.3201 H   0  0  0  0  0  0
   22.6740   32.9051   13.9636 H   0  0  0  0  0  0
   22.6234   32.8742   18.2711 H   0  0  0  0  0  0
   23.5093   35.2056   14.0305 H   0  0  0  0  0  0
   23.2462   35.2493   18.2675 H   0  0  0  0  0  0
   23.8517   36.3828   16.1584 H   0  0  0  0  0  0
   19.6529   29.6773   13.6939 H   0  0  0  0  0  0
   21.6441   28.7016   14.9238 H   0  0  0  0  0  0
   20.4083   27.6234   15.6567 H   0  0  0  0  0  0
   20.6976   26.9986   13.1634 H   0  0  0  0  0  0
   19.5096   29.2325   11.3461 H   0  0  0  0  0  0
   20.2619   27.7417   10.6841 H   0  0  0  0  0  0
   18.5712   26.3432   11.7798 H   0  0  0  0  0  0
   18.0346   27.3606    9.5651 H   0  0  0  0  0  0
   16.5727   27.0629   10.5656 H   0  0  0  0  0  0
   17.9894   29.7806   10.3271 H   0  0  0  0  0  0
   16.5445   29.2930    9.3778 H   0  0  0  0  0  0
   15.7420   30.4115   11.4628 H   0  0  0  0  0  0
   15.4029   28.6521   11.5903 H   0  0  0  0  0  0
   17.9724   29.9936   12.5836 H   0  0  0  0  0  0
   16.5695   29.6182   13.6407 H   0  0  0  0  0  0
   16.8010   27.3072   13.2322 H   0  0  0  0  0  0
   18.8528   26.7866   14.3302 H   0  0  0  0  0  0
   18.0730   28.2366   15.0486 H   0  0  0  0  0  0
   22.6411   26.8635   12.5167 H   0  0  0  0  0  0
   25.0333   26.4763   12.7016 H   0  0  0  0  0  0
   26.0246   27.2322   11.4083 H   0  0  0  0  0  0
   24.5077   26.3670   10.9874 H   0  0  0  0  0  0
   24.5928   29.0503   13.7826 H   0  0  0  0  0  0
   23.6583   30.1226   12.6856 H   0  0  0  0  0  0
   25.4211   29.8917   12.4289 H   0  0  0  0  0  0
   23.9197   28.4046    9.7423 H   0  0  0  0  0  0
   25.0867   29.6069   10.3898 H   0  0  0  0  0  0
   23.3239   29.8378   10.6466 H   0  0  0  0  0  0
  1  2  2  0  0  0
  2  4  1  0  0  0
  2 13  1  0  0  0
  3  4  2  0  0  0
  3 12  1  0  0  0
  4  5  1  0  0  0
  5  6  2  0  0  0
  5 50  1  0  0  0
  6  7  1  0  0  0
  6 51  1  0  0  0
  7  8  1  0  0  0
  7 12  2  0  0  0
  8  9  2  0  0  0
  8 52  1  0  0  0
  9 10  1  0  0  0
  9 53  1  0  0  0
 10 11  2  0  0  0
 10 54  1  0  0  0
 11 12  1  0  0  0
 11 55  1  0  0  0
 13 14  1  0  0  0
 13 56  1  0  0  0
 14 15  1  0  0  0
 14 17  1  0  0  0
 14 57  1  0  0  0
 15 16  2  0  0  0
 15 24  1  0  0  0
 17 18  1  0  0  0
 17 58  1  0  0  0
 17 59  1  0  0  0
 18 19  2  0  0  0
 18 20  1  0  0  0
 20 60  1  0  0  0
 20 61  1  0  0  0
 21 22  1  0  0  0
 21 23  1  0  0  0
 21 33  1  0  0  0
 21 62  1  0  0  0
 22 63  1  0  0  0
 23 24  1  0  0  0
 23 25  1  0  0  0
 23 64  1  0  0  0
 24 65  1  0  0  0
 25 26  1  0  0  0
 25 66  1  0  0  0
 25 67  1  0  0  0
 26 27  2  0  0  0
 26 28  1  0  0  0
 27 29  1  0  0  0
 27 68  1  0  0  0
 28 30  2  0  0  0
 28 69  1  0  0  0
 29 31  2  0  0  0
 29 70  1  0  0  0
 30 31  1  0  0  0
 30 71  1  0  0  0
 31 72  1  0  0  0
 32 33  1  0  0  0
 32 34  1  0  0  0
 32 44  1  0  0  0
 32 73  1  0  0  0
 33 74  1  0  0  0
 33 75  1  0  0  0
 34 35  1  0  0  0
 34 37  1  0  0  0
 34 76  1  0  0  0
 35 36  2  0  0  0
 35 45  1  0  0  0
 37 38  1  0  0  0
 37 77  1  0  0  0
 37 78  1  0  0  0
 38 39  1  0  0  0
 38 43  1  0  0  0
 38 79  1  0  0  0
 39 40  1  0  0  0
 39 80  1  0  0  0
 39 81  1  0  0  0
 40 41  1  0  0  0
 40 82  1  0  0  0
 40 83  1  0  0  0
 41 42  1  0  0  0
 41 84  1  0  0  0
 41 85  1  0  0  0
 42 43  1  0  0  0
 42 86  1  0  0  0
 42 87  1  0  0  0
 43 44  1  0  0  0
 43 88  1  0  0  0
 44 89  1  0  0  0
 44 90  1  0  0  0
 45 46  1  0  0  0
 45 91  1  0  0  0
 46 47  1  0  0  0
 46 48  1  0  0  0
 46 49  1  0  0  0
 47 92  1  0  0  0
 47 93  1  0  0  0
 47 94  1  0  0  0
 48 95  1  0  0  0
 48 96  1  0  0  0
 48 97  1  0  0  0
 49 98  1  0  0  0
 49 99  1  0  0  0
 49100  1  0  0  0
M  CHG  1  32   1
M  END
> <s_m_source_file>
../2nmz_ligand.sdf

> <i_m_source_file_index>
1

> <s_epik_input>
W2NIXTFbY0hdW2NIXVtjSF1jKGMxMiluYyhbY0hdW2NIXTIpQyg9TylbTkhdW0NAQEhdKFtDSDJdQyg9TylbTkgyXSlDKD1PKVtOSF1bQ0BASF0oW0NIMl1jM1tjSF1bY0hdW2NIXVtjSF1bY0hdMylbQ0BIXShbT0hdKVtDSDJdW05AQEgrXShbQ0BASF0oW0NIMl00KUMoPU8pW05IXUMoW0NIM10pKFtDSDNdKVtDSDNdKVtDSDJdW0NASF0oW0NASF00NSlbQ0gyXVtDSDJdW0NIMl1bQ0gyXTU=

> <s_epik_cmdline>
J2VwaWtfYXBwJywgJy1pbWFlJywgJ2xpZ2FuZF9wcm8ubWFlJywgJy1vbWFlJywgJ2xpZ2FuZF9wcmVwLm1hZScsICctbXMnLCAnMScsICctcGgnLCAnNycsICctcGh0JywgJzAuNScsICctbnQn

> <r_epik_Ionization_Penalty>
  0.0170

> <r_epik_Ionization_Penalty_Charging>
  0.0167

> <r_epik_Ionization_Penalty_Neutral>
  0.0002

> <r_epik_State_Penalty>
  0.0132

> <r_epik_Charging_Adjusted_Penalty>
0.0299262088794582

> <i_epik_Tot_Q>
1

> <i_epik_Tot_abs_Q>
1

$$$$
