2nn8_ligand
                    3D
 Schrodinger Suite 2020-3.
 45 46  0  0  1  0            999 V2000
   20.2520   37.6300   32.8210 C   0  0  2  0  0  0
   18.7740   38.0010   32.7830 C   0  0  1  0  0  0
   17.9010   36.7820   33.0530 C   0  0  2  0  0  0
   18.2970   35.6230   32.1550 C   0  0  2  0  0  0
   19.7890   35.3500   32.3000 C   0  0  1  0  0  0
   20.2490   34.2170   31.3990 C   0  0  0  0  0  0
   21.0060   38.7560   32.3800 O   0  0  0  0  0  0
   18.5190   38.9840   33.7920 O   0  0  0  0  0  0
   16.5300   37.1130   32.8200 O   0  0  0  0  0  0
   17.9690   35.9540   30.7930 O   0  0  0  0  0  0
   20.5220   36.5290   31.9490 O   0  0  0  0  0  0
   21.6570   34.0580   31.5740 O   0  0  0  0  0  0
   25.0600   39.8950   32.7080 C   0  0  2  0  0  0
   24.6360   39.0970   31.4720 C   0  0  1  0  0  0
   23.1200   39.1070   31.3010 C   0  0  2  0  0  0
   22.4180   38.6520   32.5770 C   0  0  1  0  0  0
   22.8980   39.5070   33.7630 C   0  0  1  0  0  0
   22.3130   39.0650   35.1050 C   0  0  0  0  0  0
   26.4560   39.6730   32.9310 O   0  0  0  0  0  0
   25.2510   39.6350   30.2970 O   0  0  0  0  0  0
   22.7690   38.2560   30.2060 O   0  0  0  0  0  0
   24.3300   39.4410   33.8570 O   0  0  0  0  0  0
   22.5920   37.6770   35.3410 O   0  0  0  0  0  0
   20.5896   37.3355   33.8256 H   0  0  0  0  0  0
   18.5159   38.4486   31.8119 H   0  0  0  0  0  0
   17.9779   36.4870   34.1099 H   0  0  0  0  0  0
   17.7239   34.7148   32.3931 H   0  0  0  0  0  0
   20.0137   35.1103   33.3498 H   0  0  0  0  0  0
   19.7246   33.2910   31.6776 H   0  0  0  0  0  0
   20.0221   34.4660   30.3519 H   0  0  0  0  0  0
   19.0555   39.9441   33.7726 H   0  0  0  0  0  0
   16.0592   37.9334   33.3815 H   0  0  0  0  0  0
   16.9284   36.1800   30.5172 H   0  0  0  0  0  0
   22.1975   33.2841   31.0093 H   0  0  0  0  0  0
   24.8825   40.9760   32.6083 H   0  0  0  0  0  0
   25.0023   38.0632   31.5565 H   0  0  0  0  0  0
   22.7660   40.1131   31.0319 H   0  0  0  0  0  0
   22.5912   37.5874   32.7931 H   0  0  0  0  0  0
   22.6164   40.5529   33.5712 H   0  0  0  0  0  0
   22.7591   39.6621   35.9139 H   0  0  0  0  0  0
   21.2232   39.2145   35.0971 H   0  0  0  0  0  0
   27.1880   39.9564   32.1604 H   0  0  0  0  0  0
   26.3467   39.7089   30.2344 H   0  0  0  0  0  0
   23.1892   38.4437   29.2069 H   0  0  0  0  0  0
   22.2409   37.1948   36.2653 H   0  0  0  0  0  0
  1  2  1  0  0  0
  1  7  1  0  0  0
  1 11  1  0  0  0
  1 24  1  0  0  0
  2  3  1  0  0  0
  2  8  1  0  0  0
  2 25  1  0  0  0
  3  4  1  0  0  0
  3  9  1  0  0  0
  3 26  1  0  0  0
  4  5  1  0  0  0
  4 10  1  0  0  0
  4 27  1  0  0  0
  5  6  1  0  0  0
  5 11  1  0  0  0
  5 28  1  0  0  0
  6 12  1  0  0  0
  6 29  1  0  0  0
  6 30  1  0  0  0
  7 16  1  0  0  0
  8 31  1  0  0  0
  9 32  1  0  0  0
 10 33  1  0  0  0
 12 34  1  0  0  0
 13 14  1  0  0  0
 13 19  1  0  0  0
 13 22  1  0  0  0
 13 35  1  0  0  0
 14 15  1  0  0  0
 14 20  1  0  0  0
 14 36  1  0  0  0
 15 16  1  0  0  0
 15 21  1  0  0  0
 15 37  1  0  0  0
 16 17  1  0  0  0
 16 38  1  0  0  0
 17 18  1  0  0  0
 17 22  1  0  0  0
 17 39  1  0  0  0
 18 23  1  0  0  0
 18 40  1  0  0  0
 18 41  1  0  0  0
 19 42  1  0  0  0
 20 43  1  0  0  0
 21 44  1  0  0  0
 23 45  1  0  0  0
M  END
> <s_m_source_file>
../2nn8_ligand.sdf

> <i_m_source_file_index>
1

> <s_epik_input>
W09IXVtDQEhdMVtDQEhdKFtPSF0pW0NAQEhdKFtPSF0pW0NAQEhdKFtDQEhdKE8xKVtDSDJdW09IXSlPW0NASF0yW0NASF0oW09IXSlbQ0BASF0oW09IXSlbQ0BASF0oW09IXSlbQ0BIXShPMilbQ0gyXVtPSF0=

> <s_epik_cmdline>
J2VwaWtfYXBwJywgJy1pbWFlJywgJ2xpZ2FuZF9wcm8ubWFlJywgJy1vbWFlJywgJ2xpZ2FuZF9wcmVwLm1hZScsICctbXMnLCAnMScsICctcGgnLCAnNycsICctcGh0JywgJzAuNScsICctbnQn

> <r_lp_tautomer_probability>
1

> <r_epik_Ionization_Penalty>
  0.0000

> <r_epik_Ionization_Penalty_Charging>
  0.0000

> <r_epik_Ionization_Penalty_Neutral>
  0.0000

> <r_epik_State_Penalty>
 -0.0000

> <r_epik_Charging_Adjusted_Penalty>
0

> <i_epik_Tot_Q>
0

> <i_epik_Tot_abs_Q>
0

> <s_epik_Chemistry_Notes>
This compound contains an acetal/aminal-like group ( X-CH(R)-Y where X, Y are N, S, or O) that may be acid/base labile, releasing an aldehyde.

$$$$
