2nnd_ligand
                    3D
 Schrodinger Suite 2020-3.
 26 26  0  0  1  0            999 V2000
   50.2220   22.7330   42.6440 N   0  0  0  0  0  0
   50.2270   23.4220   41.4790 C   0  0  0  0  0  0
   51.3990   23.4670   40.7230 C   0  0  0  0  0  0
   52.4990   22.8350   41.1810 N   0  0  0  0  0  0
   52.4750   22.1470   42.3280 C   0  0  0  0  0  0
   51.3130   22.1010   43.0850 C   0  0  0  0  0  0
   48.9370   24.0740   41.0140 C   0  0  0  0  0  0
   48.8530   25.5790   41.1280 C   0  0  0  0  0  0
   48.6560   26.0310   42.5680 C   0  0  0  0  0  0
   47.6780   26.0350   40.2720 C   0  0  0  0  0  0
   51.4490   24.1800   39.5540 O   0  0  0  0  0  0
   52.6300   24.2120   38.7450 C   0  0  0  0  0  0
   53.3681   21.6226   42.6679 H   0  0  0  0  0  0
   51.2908   21.5555   44.0284 H   0  0  0  0  0  0
   48.7743   23.8471   39.9500 H   0  0  0  0  0  0
   48.0952   23.6839   41.6049 H   0  0  0  0  0  0
   49.8004   26.0181   40.7823 H   0  0  0  0  0  0
   49.5090   25.6971   43.1771 H   0  0  0  0  0  0
   47.7281   25.5942   42.9657 H   0  0  0  0  0  0
   48.5886   27.1284   42.6019 H   0  0  0  0  0  0
   47.8300   25.7036   39.2342 H   0  0  0  0  0  0
   47.6081   27.1324   40.3000 H   0  0  0  0  0  0
   46.7476   25.5982   40.6638 H   0  0  0  0  0  0
   52.4509   24.8395   37.8594 H   0  0  0  0  0  0
   52.8833   23.1904   38.4254 H   0  0  0  0  0  0
   53.4630   24.6307   39.3287 H   0  0  0  0  0  0
  1  2  2  0  0  0
  1  6  1  0  0  0
  2  3  1  0  0  0
  2  7  1  0  0  0
  3  4  2  0  0  0
  3 11  1  0  0  0
  4  5  1  0  0  0
  5  6  2  0  0  0
  5 13  1  0  0  0
  6 14  1  0  0  0
  7  8  1  0  0  0
  7 15  1  0  0  0
  7 16  1  0  0  0
  8  9  1  0  0  0
  8 10  1  0  0  0
  8 17  1  0  0  0
  9 18  1  0  0  0
  9 19  1  0  0  0
  9 20  1  0  0  0
 10 21  1  0  0  0
 10 22  1  0  0  0
 10 23  1  0  0  0
 11 12  1  0  0  0
 12 24  1  0  0  0
 12 25  1  0  0  0
 12 26  1  0  0  0
M  END
> <s_m_source_file>
../2nnd_ligand.sdf

> <i_m_source_file_index>
1

> <s_epik_input>
W0NIM11bQ0hdKFtDSDNdKVtDSDJdYzFuW2NIXVtjSF1uYzFPW0NIM10=

> <s_epik_cmdline>
J2VwaWtfYXBwJywgJy1pbWFlJywgJ2xpZ2FuZF9wcm8ubWFlJywgJy1vbWFlJywgJ2xpZ2FuZF9wcmVwLm1hZScsICctbXMnLCAnMScsICctcGgnLCAnNycsICctcGh0JywgJzAuNScsICctbnQn

> <r_lp_tautomer_probability>
1

> <r_epik_Ionization_Penalty>
  0.0000

> <r_epik_Ionization_Penalty_Charging>
  0.0000

> <r_epik_Ionization_Penalty_Neutral>
  0.0000

> <r_epik_State_Penalty>
 -0.0000

> <r_epik_Charging_Adjusted_Penalty>
0

> <i_epik_Tot_Q>
0

> <i_epik_Tot_abs_Q>
0

$$$$
