2nng_ligand
                    3D
 Schrodinger Suite 2020-3.
 26 26  0  0  1  0            999 V2000
   -5.2110    2.2850   15.7470 C   0  0  0  0  0  0
   -3.8580    2.2760   15.4320 C   0  0  0  0  0  0
   -3.3380    3.3490   14.7060 C   0  0  0  0  0  0
   -4.1320    4.4050   14.2860 C   0  0  0  0  0  0
   -5.4890    4.3670   14.5920 C   0  0  0  0  0  0
   -6.0230    3.3260   15.3110 C   0  0  0  0  0  0
   -5.8950    0.9400   16.7130 S   0  0  0  0  0  0
   -7.3120    1.0580   16.5550 O   0  0  0  0  0  0
   -5.3200    1.1250   18.0250 O   0  0  0  0  0  0
   -5.3770   -0.4270   16.0610 N   0  0  0  0  0  0
   -3.6430    5.5140   13.3710 C   0  0  0  0  0  0
   -2.5690    6.4240   13.8810 C   0  0  0  0  0  0
   -2.1560    7.1920   12.6700 N   0  3  0  0  0  0
   -3.2178    1.4509   15.7442 H   0  0  0  0  0  0
   -2.2757    3.3568   14.4620 H   0  0  0  0  0  0
   -6.1379    5.1758   14.2559 H   0  0  0  0  0  0
   -7.0884    3.3158   15.5410 H   0  0  0  0  0  0
   -5.7779   -1.2793   16.6293 H   0  0  0  0  0  0
   -4.2776   -0.4527   16.0882 H   0  0  0  0  0  0
   -3.2318    5.0749   12.4500 H   0  0  0  0  0  0
   -4.4830    6.1775   13.1176 H   0  0  0  0  0  0
   -2.9815    7.0734   14.6672 H   0  0  0  0  0  0
   -1.7460    5.8235   14.2958 H   0  0  0  0  0  0
   -1.3585    7.9002   12.9393 H   0  0  0  0  0  0
   -3.0203    7.7459   12.2747 H   0  0  0  0  0  0
   -1.7848    6.4960   11.9034 H   0  0  0  0  0  0
  1  2  2  0  0  0
  1  6  1  0  0  0
  1  7  1  0  0  0
  2  3  1  0  0  0
  2 14  1  0  0  0
  3  4  2  0  0  0
  3 15  1  0  0  0
  4  5  1  0  0  0
  4 11  1  0  0  0
  5  6  2  0  0  0
  5 16  1  0  0  0
  6 17  1  0  0  0
  7  8  2  0  0  0
  7  9  2  0  0  0
  7 10  1  0  0  0
 10 18  1  0  0  0
 10 19  1  0  0  0
 11 12  1  0  0  0
 11 20  1  0  0  0
 11 21  1  0  0  0
 12 13  1  0  0  0
 12 22  1  0  0  0
 12 23  1  0  0  0
 13 24  1  0  0  0
 13 25  1  0  0  0
 13 26  1  0  0  0
M  CHG  1  13   1
M  END
> <s_m_source_file>
../2nng_ligand.sdf

> <i_m_source_file_index>
1

> <s_epik_input>
Tz1TKD1PKShbTkgyXSljMVtjSF1bY0hdYyhbY0hdW2NIXTEpW0NIMl1bQ0gyXVtOSDMrXQ==

> <s_epik_cmdline>
J2VwaWtfYXBwJywgJy1pbWFlJywgJ2xpZ2FuZF9wcm8ubWFlJywgJy1vbWFlJywgJ2xpZ2FuZF9wcmVwLm1hZScsICctbXMnLCAnMScsICctcGgnLCAnNycsICctcGh0JywgJzAuNScsICctbnQn

> <r_lp_tautomer_probability>
1

> <r_epik_Ionization_Penalty>
  0.0019

> <r_epik_Ionization_Penalty_Charging>
  0.0011

> <r_epik_Ionization_Penalty_Neutral>
  0.0008

> <r_epik_State_Penalty>
 -0.0000

> <r_epik_Charging_Adjusted_Penalty>
0.00114915322880164

> <i_epik_Tot_Q>
1

> <i_epik_Tot_abs_Q>
1

$$$$
