2nnk_ligand
                    3D
 Schrodinger Suite 2020-3.
100104  0  0  1  0            999 V2000
   20.7520   27.7130   18.5390 O   0  0  0  0  0  0
   21.2350   26.5690   18.5810 C   0  0  0  0  0  0
   23.0660   25.0510   19.1090 N   0  0  0  0  0  0
   22.3650   26.1700   19.4590 C   0  0  0  0  0  0
   22.7380   26.8830   20.5950 C   0  0  0  0  0  0
   23.7990   26.4250   21.3900 C   0  0  0  0  0  0
   24.5230   25.3050   20.9890 C   0  0  0  0  0  0
   25.5870   24.8350   21.7410 C   0  0  0  0  0  0
   26.3160   23.7440   21.3650 C   0  0  0  0  0  0
   25.9150   23.0790   20.2240 C   0  0  0  0  0  0
   24.8420   23.5020   19.4800 C   0  0  0  0  0  0
   24.1230   24.6100   19.8580 C   0  0  0  0  0  0
   20.7680   25.6410   17.7360 N   0  0  0  0  0  0
   19.6000   25.8650   16.8840 C   0  0  2  0  0  0
   18.6340   24.6930   17.0990 C   0  0  0  0  0  0
   18.8200   23.6130   16.5490 O   0  0  0  0  0  0
   20.0530   25.9160   15.4530 C   0  0  0  0  0  0
   20.9810   27.0640   15.2760 C   0  0  0  0  0  0
   22.1990   26.9220   15.1310 O   0  0  0  0  0  0
   20.4550   28.2320   15.2580 N   0  0  0  0  0  0
   15.2740   24.5680   17.8620 C   0  0  1  0  0  0
   14.9060   25.6440   18.7270 O   0  0  0  0  0  0
   16.6230   23.9700   18.2590 C   0  0  1  0  0  0
   17.6060   24.9810   17.9200 N   0  0  0  0  0  0
   16.6840   23.6100   19.7430 C   0  0  0  0  0  0
   18.1080   23.4300   20.2500 C   0  0  0  0  0  0
   18.8030   22.2210   20.2010 C   0  0  0  0  0  0
   18.7530   24.4880   20.8280 C   0  0  0  0  0  0
   20.1080   22.1350   20.6080 C   0  0  0  0  0  0
   20.0490   24.3880   21.2570 C   0  0  0  0  0  0
   20.7130   23.2070   21.2230 C   0  0  0  0  0  0
   14.2430   22.7720   16.5400 N   0  3  1  0  0  0
   14.1900   23.5300   17.7680 C   0  0  0  0  0  0
   13.6250   21.4220   16.6740 C   0  0  2  0  0  0
   14.3350   20.5970   17.7830 C   0  0  0  0  0  0
   15.5800   20.5990   17.8190 O   0  0  0  0  0  0
   13.8440   20.6440   15.3820 C   0  0  0  0  0  0
   13.2420   21.3920   14.1810 C   0  0  2  0  0  0
   13.5470   20.7180   12.8440 C   0  0  0  0  0  0
   14.9950   20.8020   12.4310 C   0  0  0  0  0  0
   15.4650   22.2280   12.3140 C   0  0  0  0  0  0
   15.2600   22.8590   13.6820 C   0  0  0  0  0  0
   13.8290   22.8080   14.1250 C   0  0  2  0  0  0
   13.6130   23.5110   15.4540 C   0  0  0  0  0  0
   13.5260   19.9540   18.6370 N   0  0  0  0  0  0
   13.9170   19.0820   19.7280 C   0  0  0  0  0  0
   12.6610   18.4930   20.3080 C   0  0  0  0  0  0
   14.6470   19.8590   20.7790 C   0  0  0  0  0  0
   14.7350   17.9450   19.1770 C   0  0  0  0  0  0
   22.2067   27.7953   20.8661 H   0  0  0  0  0  0
   24.0549   26.9419   22.3149 H   0  0  0  0  0  0
   25.8507   25.3532   22.6630 H   0  0  0  0  0  0
   27.1791   23.4117   21.9419 H   0  0  0  0  0  0
   26.4654   22.1939   19.9051 H   0  0  0  0  0  0
   24.5579   22.9542   18.5815 H   0  0  0  0  0  0
   21.3002   24.6790   17.6980 H   0  0  0  0  0  0
   19.1320   26.8259   17.1441 H   0  0  0  0  0  0
   20.5709   24.9794   15.1988 H   0  0  0  0  0  0
   19.1797   26.0420   14.7962 H   0  0  0  0  0  0
   19.3689   28.3482   15.3881 H   0  0  0  0  0  0
   21.0894   29.1187   15.1125 H   0  0  0  0  0  0
   15.3612   25.0421   16.8732 H   0  0  0  0  0  0
   15.6025   26.4791   18.8930 H   0  0  0  0  0  0
   16.8486   23.0463   17.7058 H   0  0  0  0  0  0
   17.5166   25.9959   18.3346 H   0  0  0  0  0  0
   16.2164   24.4112   20.3342 H   0  0  0  0  0  0
   16.1454   22.6662   19.9138 H   0  0  0  0  0  0
   18.2979   21.3284   19.8319 H   0  0  0  0  0  0
   18.2231   25.4327   20.9500 H   0  0  0  0  0  0
   20.6688   21.2148   20.4443 H   0  0  0  0  0  0
   20.5571   25.2758   21.6334 H   0  0  0  0  0  0
   21.7015   23.1088   21.6716 H   0  0  0  0  0  0
   15.3125   22.6512   16.3131 H   0  0  0  0  0  0
   14.2875   22.8214   18.6037 H   0  0  0  0  0  0
   13.2069   24.0211   17.8165 H   0  0  0  0  0  0
   12.5610   21.5960   16.8920 H   0  0  0  0  0  0
   14.9227   20.5125   15.2115 H   0  0  0  0  0  0
   13.3625   19.6582   15.4615 H   0  0  0  0  0  0
   12.1510   21.3964   14.3212 H   0  0  0  0  0  0
   13.2879   19.6506   12.9040 H   0  0  0  0  0  0
   12.9546   21.1950   12.0493 H   0  0  0  0  0  0
   15.6200   20.2942   13.1803 H   0  0  0  0  0  0
   15.1263   20.3152   11.4533 H   0  0  0  0  0  0
   16.5271   22.2417   12.0283 H   0  0  0  0  0  0
   14.8722   22.7477   11.5469 H   0  0  0  0  0  0
   15.8660   22.3232   14.4274 H   0  0  0  0  0  0
   15.5683   23.9144   13.6489 H   0  0  0  0  0  0
   13.3023   23.3632   13.3349 H   0  0  0  0  0  0
   12.5320   23.5885   15.6420 H   0  0  0  0  0  0
   14.0482   24.5196   15.3959 H   0  0  0  0  0  0
   12.4608   20.1459   18.4410 H   0  0  0  0  0  0
   12.0357   19.2979   20.7218 H   0  0  0  0  0  0
   12.9235   17.7846   21.1076 H   0  0  0  0  0  0
   12.1050   17.9656   19.5189 H   0  0  0  0  0  0
   14.0050   20.6739   21.1447 H   0  0  0  0  0  0
   15.5672   20.2818   20.3495 H   0  0  0  0  0  0
   14.9051   19.1922   21.6149 H   0  0  0  0  0  0
   14.1521   17.4109   18.4121 H   0  0  0  0  0  0
   14.9943   17.2518   19.9908 H   0  0  0  0  0  0
   15.6564   18.3414   18.7254 H   0  0  0  0  0  0
  1  2  2  0  0  0
  2  4  1  0  0  0
  2 13  1  0  0  0
  3  4  2  0  0  0
  3 12  1  0  0  0
  4  5  1  0  0  0
  5  6  2  0  0  0
  5 50  1  0  0  0
  6  7  1  0  0  0
  6 51  1  0  0  0
  7  8  1  0  0  0
  7 12  2  0  0  0
  8  9  2  0  0  0
  8 52  1  0  0  0
  9 10  1  0  0  0
  9 53  1  0  0  0
 10 11  2  0  0  0
 10 54  1  0  0  0
 11 12  1  0  0  0
 11 55  1  0  0  0
 13 14  1  0  0  0
 13 56  1  0  0  0
 14 15  1  0  0  0
 14 17  1  0  0  0
 14 57  1  0  0  0
 15 16  2  0  0  0
 15 24  1  0  0  0
 17 18  1  0  0  0
 17 58  1  0  0  0
 17 59  1  0  0  0
 18 19  2  0  0  0
 18 20  1  0  0  0
 20 60  1  0  0  0
 20 61  1  0  0  0
 21 22  1  0  0  0
 21 23  1  0  0  0
 21 33  1  0  0  0
 21 62  1  0  0  0
 22 63  1  0  0  0
 23 24  1  0  0  0
 23 25  1  0  0  0
 23 64  1  0  0  0
 24 65  1  0  0  0
 25 26  1  0  0  0
 25 66  1  0  0  0
 25 67  1  0  0  0
 26 27  2  0  0  0
 26 28  1  0  0  0
 27 29  1  0  0  0
 27 68  1  0  0  0
 28 30  2  0  0  0
 28 69  1  0  0  0
 29 31  2  0  0  0
 29 70  1  0  0  0
 30 31  1  0  0  0
 30 71  1  0  0  0
 31 72  1  0  0  0
 32 33  1  0  0  0
 32 34  1  0  0  0
 32 44  1  0  0  0
 32 73  1  0  0  0
 33 74  1  0  0  0
 33 75  1  0  0  0
 34 35  1  0  0  0
 34 37  1  0  0  0
 34 76  1  0  0  0
 35 36  2  0  0  0
 35 45  1  0  0  0
 37 38  1  0  0  0
 37 77  1  0  0  0
 37 78  1  0  0  0
 38 39  1  0  0  0
 38 43  1  0  0  0
 38 79  1  0  0  0
 39 40  1  0  0  0
 39 80  1  0  0  0
 39 81  1  0  0  0
 40 41  1  0  0  0
 40 82  1  0  0  0
 40 83  1  0  0  0
 41 42  1  0  0  0
 41 84  1  0  0  0
 41 85  1  0  0  0
 42 43  1  0  0  0
 42 86  1  0  0  0
 42 87  1  0  0  0
 43 44  1  0  0  0
 43 88  1  0  0  0
 44 89  1  0  0  0
 44 90  1  0  0  0
 45 46  1  0  0  0
 45 91  1  0  0  0
 46 47  1  0  0  0
 46 48  1  0  0  0
 46 49  1  0  0  0
 47 92  1  0  0  0
 47 93  1  0  0  0
 47 94  1  0  0  0
 48 95  1  0  0  0
 48 96  1  0  0  0
 48 97  1  0  0  0
 49 98  1  0  0  0
 49 99  1  0  0  0
 49100  1  0  0  0
M  CHG  1  32   1
M  END
> <s_m_source_file>
../2nnk_ligand.sdf

> <i_m_source_file_index>
1

> <s_epik_input>
W2NIXTFbY0hdW2NIXVtjSF1jKGMxMiluYyhbY0hdW2NIXTIpQyg9TylbTkhdW0NAQEhdKFtDSDJdQyg9TylbTkgyXSlDKD1PKVtOSF1bQ0BASF0oW0NIMl1jM1tjSF1bY0hdW2NIXVtjSF1bY0hdMylbQ0BIXShbT0hdKVtDSDJdW05AQEgrXShbQ0BASF0oW0NIMl00KUMoPU8pW05IXUMoW0NIM10pKFtDSDNdKVtDSDNdKVtDSDJdW0NASF0oW0NASF00NSlbQ0gyXVtDSDJdW0NIMl1bQ0gyXTU=

> <s_epik_cmdline>
J2VwaWtfYXBwJywgJy1pbWFlJywgJ2xpZ2FuZF9wcm8ubWFlJywgJy1vbWFlJywgJ2xpZ2FuZF9wcmVwLm1hZScsICctbXMnLCAnMScsICctcGgnLCAnNycsICctcGh0JywgJzAuNScsICctbnQn

> <r_epik_Ionization_Penalty>
  0.0170

> <r_epik_Ionization_Penalty_Charging>
  0.0167

> <r_epik_Ionization_Penalty_Neutral>
  0.0002

> <r_epik_State_Penalty>
  0.0132

> <r_epik_Charging_Adjusted_Penalty>
0.0299262088794582

> <i_epik_Tot_Q>
1

> <i_epik_Tot_abs_Q>
1

$$$$
