2nno_ligand
                    3D
 Schrodinger Suite 2020-3.
 25 25  0  0  1  0            999 V2000
   -5.2250    2.2620   15.7630 C   0  0  0  0  0  0
   -6.0360    3.3290   15.3740 C   0  0  0  0  0  0
   -5.5100    4.3470   14.6030 C   0  0  0  0  0  0
   -4.1730    4.3810   14.2540 C   0  0  0  0  0  0
   -3.3800    3.3140   14.6600 C   0  0  0  0  0  0
   -3.8870    2.2390   15.3770 C   0  0  0  0  0  0
   -5.9090    0.9430   16.7400 S   0  0  0  0  0  0
   -7.3410    1.0560   16.6070 O   0  0  0  0  0  0
   -5.3450    1.1320   18.0680 O   0  0  0  0  0  0
   -5.4050   -0.4380   16.1190 N   0  0  0  0  0  0
   -3.6750    5.5010   13.4070 C   0  0  0  0  0  0
   -2.3920    6.1030   13.8980 C   0  0  0  0  0  0
   -1.7880    7.2010   13.0550 C   0  0  0  0  0  0
   -0.5620    7.2180   12.8070 O   0  5  0  0  0  0
   -2.5090    8.1280   12.6510 O   0  0  0  0  0  0
   -7.0823    3.3589   15.6780 H   0  0  0  0  0  0
   -6.1675    5.1459   14.2602 H   0  0  0  0  0  0
   -2.3201    3.3217   14.4058 H   0  0  0  0  0  0
   -3.2498    1.3926   15.6332 H   0  0  0  0  0  0
   -5.8138   -1.2744   16.7050 H   0  0  0  0  0  0
   -4.3059   -0.4732   16.1471 H   0  0  0  0  0  0
   -3.4957    5.1361   12.3849 H   0  0  0  0  0  0
   -4.4259    6.3045   13.3830 H   0  0  0  0  0  0
   -2.5515    6.5452   14.8925 H   0  0  0  0  0  0
   -1.6215    5.3207   13.9639 H   0  0  0  0  0  0
  1  2  2  0  0  0
  1  6  1  0  0  0
  1  7  1  0  0  0
  2  3  1  0  0  0
  2 16  1  0  0  0
  3  4  2  0  0  0
  3 17  1  0  0  0
  4  5  1  0  0  0
  4 11  1  0  0  0
  5  6  2  0  0  0
  5 18  1  0  0  0
  6 19  1  0  0  0
  7  8  2  0  0  0
  7  9  2  0  0  0
  7 10  1  0  0  0
 10 20  1  0  0  0
 10 21  1  0  0  0
 11 12  1  0  0  0
 11 22  1  0  0  0
 11 23  1  0  0  0
 12 13  1  0  0  0
 12 24  1  0  0  0
 12 25  1  0  0  0
 13 14  1  0  0  0
 13 15  2  0  0  0
M  CHG  1  14  -1
M  END
> <s_m_source_file>
../2nno_ligand.sdf

> <i_m_source_file_index>
1

> <s_epik_input>
Tz1TKD1PKShbTkgyXSljMVtjSF1bY0hdYyhbY0hdW2NIXTEpW0NIMl1bQ0gyXUMoPU8pW09IXQ==

> <s_epik_cmdline>
J2VwaWtfYXBwJywgJy1pbWFlJywgJ2xpZ2FuZF9wcm8ubWFlJywgJy1vbWFlJywgJ2xpZ2FuZF9wcmVwLm1hZScsICctbXMnLCAnMScsICctcGgnLCAnNycsICctcGh0JywgJzAuNScsICctbnQn

> <r_lp_tautomer_probability>
1

> <r_epik_Ionization_Penalty>
  0.0019

> <r_epik_Ionization_Penalty_Charging>
  0.0015

> <r_epik_Ionization_Penalty_Neutral>
  0.0004

> <r_epik_State_Penalty>
 -0.0000

> <r_epik_Charging_Adjusted_Penalty>
0.00152306905538939

> <i_epik_Tot_Q>
-1

> <i_epik_Tot_abs_Q>
1

$$$$
