2nnp_ligand
                    3D
 Schrodinger Suite 2020-3.
100104  0  0  1  0            999 V2000
   19.2130   35.3340   19.1760 O   0  0  0  0  0  0
   19.6520   35.8120   18.0950 C   0  0  0  0  0  0
   20.7250   37.6540   16.9300 N   0  0  0  0  0  0
   20.5790   36.9510   18.0970 C   0  0  0  0  0  0
   21.2810   37.3230   19.2450 C   0  0  0  0  0  0
   22.1180   38.4300   19.2200 C   0  0  0  0  0  0
   22.3380   39.0670   17.9960 C   0  0  0  0  0  0
   23.1350   40.2280   17.9540 C   0  0  0  0  0  0
   23.1890   40.9060   16.7690 C   0  0  0  0  0  0
   22.5000   40.5200   15.6420 C   0  0  0  0  0  0
   21.6180   39.4490   15.7010 C   0  0  0  0  0  0
   21.6120   38.6860   16.8650 C   0  0  0  0  0  0
   19.2770   35.3430   16.8750 N   0  0  0  0  0  0
   18.4250   34.1510   16.7170 C   0  0  2  0  0  0
   19.1610   33.2060   15.7870 C   0  0  0  0  0  0
   19.1310   33.3780   14.5640 O   0  0  0  0  0  0
   17.0750   34.4030   16.1670 C   0  0  0  0  0  0
   16.3920   35.3830   17.0430 C   0  0  0  0  0  0
   16.1310   36.5780   16.9070 O   0  0  0  0  0  0
   15.9670   34.9310   18.1090 N   0  0  0  0  0  0
   20.0820   29.8420   15.9690 C   0  0  1  0  0  0
   20.2620   29.4040   17.3020 O   0  0  0  0  0  0
   20.5930   31.2410   15.6580 C   0  0  1  0  0  0
   19.8350   32.1880   16.4250 N   0  0  0  0  0  0
   22.1030   31.2830   15.9690 C   0  0  0  0  0  0
   22.6140   32.7060   16.0370 C   0  0  0  0  0  0
   23.0940   33.3330   14.8950 C   0  0  0  0  0  0
   22.6810   33.3020   17.2540 C   0  0  0  0  0  0
   23.5410   34.6510   14.9970 C   0  0  0  0  0  0
   23.0320   34.6400   17.3190 C   0  0  0  0  0  0
   23.4640   35.3070   16.1770 C   0  0  0  0  0  0
   19.6790   28.8880   13.8150 N   0  3  1  0  0  0
   20.4330   28.7430   15.0020 C   0  0  0  0  0  0
   20.4260   28.2850   12.6950 C   0  0  2  0  0  0
   21.7720   28.9420   12.4620 C   0  0  0  0  0  0
   21.8210   30.1690   12.4790 O   0  0  0  0  0  0
   19.6140   28.4870   11.4260 C   0  0  0  0  0  0
   18.2880   27.7230   11.5340 C   0  0  2  0  0  0
   17.3780   27.9210   10.3320 C   0  0  0  0  0  0
   17.0190   29.3830   10.1110 C   0  0  0  0  0  0
   16.1590   29.7490   11.2960 C   0  0  0  0  0  0
   17.0600   29.6330   12.5160 C   0  0  0  0  0  0
   17.5370   28.2340   12.7700 C   0  0  2  0  0  0
   18.3920   28.2070   13.9830 C   0  0  0  0  0  0
   22.7670   28.0770   12.2290 N   0  0  0  0  0  0
   24.1380   28.4400   11.9330 C   0  0  0  0  0  0
   24.9070   27.1140   11.7270 C   0  0  0  0  0  0
   24.7830   29.1180   13.1130 C   0  0  0  0  0  0
   24.2390   29.3070   10.7090 C   0  0  0  0  0  0
   21.1717   36.7436   20.1618 H   0  0  0  0  0  0
   22.5916   38.7932   20.1321 H   0  0  0  0  0  0
   23.6854   40.5710   18.8301 H   0  0  0  0  0  0
   23.8105   41.7997   16.7134 H   0  0  0  0  0  0
   22.6465   41.0547   14.7035 H   0  0  0  0  0  0
   20.9557   39.2149   14.8676 H   0  0  0  0  0  0
   19.6325   35.8865   15.9872 H   0  0  0  0  0  0
   18.2423   33.7679   17.7318 H   0  0  0  0  0  0
   17.1639   34.8059   15.1473 H   0  0  0  0  0  0
   16.5080   33.4608   16.1408 H   0  0  0  0  0  0
   16.1299   33.8729   18.3616 H   0  0  0  0  0  0
   15.4251   35.5860   18.8071 H   0  0  0  0  0  0
   18.9930   29.9862   15.9115 H   0  0  0  0  0  0
   20.0497   30.0861   18.1385 H   0  0  0  0  0  0
   20.4124   31.5482   14.6173 H   0  0  0  0  0  0
   19.7928   32.1003   17.5207 H   0  0  0  0  0  0
   22.2914   30.7980   16.9382 H   0  0  0  0  0  0
   22.6549   30.7515   15.1797 H   0  0  0  0  0  0
   23.1211   32.8076   13.9404 H   0  0  0  0  0  0
   22.4631   32.7393   18.1617 H   0  0  0  0  0  0
   23.9538   35.1536   14.1223 H   0  0  0  0  0  0
   22.9696   35.1724   18.2681 H   0  0  0  0  0  0
   23.7408   36.3598   16.2335 H   0  0  0  0  0  0
   19.5182   29.9618   13.6384 H   0  0  0  0  0  0
   21.5047   28.7961   14.7599 H   0  0  0  0  0  0
   20.2080   27.7676   15.4580 H   0  0  0  0  0  0
   20.5795   27.2311   12.9704 H   0  0  0  0  0  0
   19.4074   29.5588   11.2896 H   0  0  0  0  0  0
   20.1827   28.1105   10.5630 H   0  0  0  0  0  0
   18.5316   26.6517   11.5878 H   0  0  0  0  0  0
   17.8825   27.5544    9.4259 H   0  0  0  0  0  0
   16.4435   27.3609   10.4834 H   0  0  0  0  0  0
   17.9391   29.9847   10.0724 H   0  0  0  0  0  0
   16.4728   29.4870    9.1619 H   0  0  0  0  0  0
   15.7842   30.7759   11.1738 H   0  0  0  0  0  0
   15.3090   29.0538   11.3609 H   0  0  0  0  0  0
   17.9488   30.2660   12.3769 H   0  0  0  0  0  0
   16.5109   29.9633   13.4101 H   0  0  0  0  0  0
   16.6785   27.5793   12.9806 H   0  0  0  0  0  0
   18.5663   27.1508   14.2360 H   0  0  0  0  0  0
   17.8249   28.6892   14.7929 H   0  0  0  0  0  0
   22.4765   27.0171   12.2759 H   0  0  0  0  0  0
   24.8205   26.4955   12.6326 H   0  0  0  0  0  0
   25.9674   27.3317   11.5315 H   0  0  0  0  0  0
   24.4800   26.5718   10.8705 H   0  0  0  0  0  0
   24.7000   28.4705   13.9984 H   0  0  0  0  0  0
   24.2755   30.0741   13.3090 H   0  0  0  0  0  0
   25.8446   29.3046   12.8934 H   0  0  0  0  0  0
   23.7636   28.7970    9.8582 H   0  0  0  0  0  0
   25.2982   29.4944   10.4789 H   0  0  0  0  0  0
   23.7291   30.2639   10.8944 H   0  0  0  0  0  0
  1  2  2  0  0  0
  2  4  1  0  0  0
  2 13  1  0  0  0
  3  4  2  0  0  0
  3 12  1  0  0  0
  4  5  1  0  0  0
  5  6  2  0  0  0
  5 50  1  0  0  0
  6  7  1  0  0  0
  6 51  1  0  0  0
  7  8  1  0  0  0
  7 12  2  0  0  0
  8  9  2  0  0  0
  8 52  1  0  0  0
  9 10  1  0  0  0
  9 53  1  0  0  0
 10 11  2  0  0  0
 10 54  1  0  0  0
 11 12  1  0  0  0
 11 55  1  0  0  0
 13 14  1  0  0  0
 13 56  1  0  0  0
 14 15  1  0  0  0
 14 17  1  0  0  0
 14 57  1  0  0  0
 15 16  2  0  0  0
 15 24  1  0  0  0
 17 18  1  0  0  0
 17 58  1  0  0  0
 17 59  1  0  0  0
 18 19  2  0  0  0
 18 20  1  0  0  0
 20 60  1  0  0  0
 20 61  1  0  0  0
 21 22  1  0  0  0
 21 23  1  0  0  0
 21 33  1  0  0  0
 21 62  1  0  0  0
 22 63  1  0  0  0
 23 24  1  0  0  0
 23 25  1  0  0  0
 23 64  1  0  0  0
 24 65  1  0  0  0
 25 26  1  0  0  0
 25 66  1  0  0  0
 25 67  1  0  0  0
 26 27  2  0  0  0
 26 28  1  0  0  0
 27 29  1  0  0  0
 27 68  1  0  0  0
 28 30  2  0  0  0
 28 69  1  0  0  0
 29 31  2  0  0  0
 29 70  1  0  0  0
 30 31  1  0  0  0
 30 71  1  0  0  0
 31 72  1  0  0  0
 32 33  1  0  0  0
 32 34  1  0  0  0
 32 44  1  0  0  0
 32 73  1  0  0  0
 33 74  1  0  0  0
 33 75  1  0  0  0
 34 35  1  0  0  0
 34 37  1  0  0  0
 34 76  1  0  0  0
 35 36  2  0  0  0
 35 45  1  0  0  0
 37 38  1  0  0  0
 37 77  1  0  0  0
 37 78  1  0  0  0
 38 39  1  0  0  0
 38 43  1  0  0  0
 38 79  1  0  0  0
 39 40  1  0  0  0
 39 80  1  0  0  0
 39 81  1  0  0  0
 40 41  1  0  0  0
 40 82  1  0  0  0
 40 83  1  0  0  0
 41 42  1  0  0  0
 41 84  1  0  0  0
 41 85  1  0  0  0
 42 43  1  0  0  0
 42 86  1  0  0  0
 42 87  1  0  0  0
 43 44  1  0  0  0
 43 88  1  0  0  0
 44 89  1  0  0  0
 44 90  1  0  0  0
 45 46  1  0  0  0
 45 91  1  0  0  0
 46 47  1  0  0  0
 46 48  1  0  0  0
 46 49  1  0  0  0
 47 92  1  0  0  0
 47 93  1  0  0  0
 47 94  1  0  0  0
 48 95  1  0  0  0
 48 96  1  0  0  0
 48 97  1  0  0  0
 49 98  1  0  0  0
 49 99  1  0  0  0
 49100  1  0  0  0
M  CHG  1  32   1
M  END
> <s_m_source_file>
../2nnp_ligand.sdf

> <i_m_source_file_index>
1

> <s_epik_input>
W2NIXTFbY0hdW2NIXVtjSF1jKGMxMiluYyhbY0hdW2NIXTIpQyg9TylbTkhdW0NAQEhdKFtDSDJdQyg9TylbTkgyXSlDKD1PKVtOSF1bQ0BASF0oW0NIMl1jM1tjSF1bY0hdW2NIXVtjSF1bY0hdMylbQ0BIXShbT0hdKVtDSDJdW05AQEgrXShbQ0BASF0oW0NIMl00KUMoPU8pW05IXUMoW0NIM10pKFtDSDNdKVtDSDNdKVtDSDJdW0NASF0oW0NASF00NSlbQ0gyXVtDSDJdW0NIMl1bQ0gyXTU=

> <s_epik_cmdline>
J2VwaWtfYXBwJywgJy1pbWFlJywgJ2xpZ2FuZF9wcm8ubWFlJywgJy1vbWFlJywgJ2xpZ2FuZF9wcmVwLm1hZScsICctbXMnLCAnMScsICctcGgnLCAnNycsICctcGh0JywgJzAuNScsICctbnQn

> <r_epik_Ionization_Penalty>
  0.0170

> <r_epik_Ionization_Penalty_Charging>
  0.0167

> <r_epik_Ionization_Penalty_Neutral>
  0.0002

> <r_epik_State_Penalty>
  0.0132

> <r_epik_Charging_Adjusted_Penalty>
0.0299262088794582

> <i_epik_Tot_Q>
1

> <i_epik_Tot_abs_Q>
1

$$$$
