2nnq_ligand
                    3D
 Schrodinger Suite 2020-3.
 61 65  0  0  1  0            999 V2000
    2.3600   10.6210   15.5130 C   0  0  0  0  0  0
    6.0970   10.0740   16.3860 C   0  0  0  0  0  0
    6.4370    8.6900   16.2580 C   0  0  0  0  0  0
    4.9160   11.7070   14.8380 C   0  0  0  0  0  0
    3.7310   12.2490   14.2720 C   0  0  0  0  0  0
    6.9200    5.7870   16.8350 C   0  0  0  0  0  0
    6.7200    5.2070   15.4380 C   0  0  0  0  0  0
    7.5930    8.1560   16.9270 C   0  0  0  0  0  0
    8.4080    9.0190   17.7190 C   0  0  0  0  0  0
    8.0780   10.4000   17.8420 C   0  0  0  0  0  0
    6.9260   10.9280   17.1780 C   0  0  0  0  0  0
    3.3590    6.9490   14.4400 C   0  0  0  0  0  0
    2.5280    5.5810   18.2210 C   0  0  0  0  0  0
    3.0490    6.9750   17.9580 C   0  0  0  0  0  0
    2.8930    7.7040   16.8070 C   0  0  0  0  0  0
    2.2770    7.1780   15.5020 C   0  0  0  0  0  0
    2.9070    3.2440   18.9290 C   0  0  0  0  0  0
    4.1060    6.6740   22.5750 C   0  0  0  0  0  0
    4.3410    7.5550   20.2760 C   0  0  0  0  0  0
    1.1270    5.2900   18.0640 C   0  0  0  0  0  0
    2.4560   11.7100   14.6080 C   0  0  0  0  0  0
    5.6860    7.9410   20.5700 C   0  0  0  0  0  0
    3.5450   10.0610   16.0900 C   0  0  0  0  0  0
    4.8400   10.6120   15.7530 C   0  0  0  0  0  0
    7.2750    5.7190   14.4680 O   0  0  0  0  0  0
    5.9360    4.1630   15.2630 O   0  5  0  0  0  0
    7.9380    6.8180   16.8020 O   0  0  0  0  0  0
    3.4130    4.5430   18.6550 C   0  0  0  0  0  0
    3.4580    8.9580   16.9990 N   0  0  0  0  0  0
    3.9960    9.0000   18.3230 N   0  0  0  0  0  0
    3.7940    7.8620   18.9220 C   0  0  0  0  0  0
    3.5500    6.9180   21.2880 C   0  0  0  0  0  0
    5.4470    7.0620   22.8580 C   0  0  0  0  0  0
    6.2380    7.6950   21.8610 C   0  0  0  0  0  0
    1.5210    2.9690   18.7680 C   0  0  0  0  0  0
    0.6320    3.9900   18.3350 C   0  0  0  0  0  0
    1.3833   10.2104   15.7691 H   0  0  0  0  0  0
    5.8147    8.0348   15.6484 H   0  0  0  0  0  0
    5.8861   12.1277   14.5735 H   0  0  0  0  0  0
    3.7980   13.0842   13.5749 H   0  0  0  0  0  0
    5.9745    6.2230   17.1898 H   0  0  0  0  0  0
    7.2359    4.9881   17.5220 H   0  0  0  0  0  0
    9.2844    8.6213   18.2308 H   0  0  0  0  0  0
    8.7058   11.0566   18.4444 H   0  0  0  0  0  0
    6.6795   11.9852   17.2763 H   0  0  0  0  0  0
    2.8932    6.5732   13.5171 H   0  0  0  0  0  0
    4.0860    6.2113   14.8104 H   0  0  0  0  0  0
    3.8740    7.8982   14.2306 H   0  0  0  0  0  0
    1.5500    7.9157   15.1316 H   0  0  0  0  0  0
    1.7620    6.2288   15.7114 H   0  0  0  0  0  0
    3.5825    2.4565   19.2633 H   0  0  0  0  0  0
    3.5052    6.1898   23.3449 H   0  0  0  0  0  0
    0.4438    6.0731   17.7352 H   0  0  0  0  0  0
    1.5529   12.1345   14.1695 H   0  0  0  0  0  0
    6.2916    8.4253   19.8039 H   0  0  0  0  0  0
    4.4765    4.7495   18.7754 H   0  0  0  0  0  0
    2.5238    6.6209   21.0718 H   0  0  0  0  0  0
    5.8691    6.8724   23.8449 H   0  0  0  0  0  0
    7.2632    7.9913   22.0829 H   0  0  0  0  0  0
    1.1385    1.9701   18.9777 H   0  0  0  0  0  0
   -0.4291    3.7734   18.2115 H   0  0  0  0  0  0
  1 21  2  0  0  0
  1 23  1  0  0  0
  1 37  1  0  0  0
  2  3  2  0  0  0
  2 11  1  0  0  0
  2 24  1  0  0  0
  3  8  1  0  0  0
  3 38  1  0  0  0
  4  5  2  0  0  0
  4 24  1  0  0  0
  4 39  1  0  0  0
  5 21  1  0  0  0
  5 40  1  0  0  0
  6  7  1  0  0  0
  6 27  1  0  0  0
  6 41  1  0  0  0
  6 42  1  0  0  0
  7 25  2  0  0  0
  7 26  1  0  0  0
  8  9  2  0  0  0
  8 27  1  0  0  0
  9 10  1  0  0  0
  9 43  1  0  0  0
 10 11  2  0  0  0
 10 44  1  0  0  0
 11 45  1  0  0  0
 12 16  1  0  0  0
 12 46  1  0  0  0
 12 47  1  0  0  0
 12 48  1  0  0  0
 13 14  1  0  0  0
 13 20  2  0  0  0
 13 28  1  0  0  0
 14 15  2  0  0  0
 14 31  1  0  0  0
 15 16  1  0  0  0
 15 29  1  0  0  0
 16 49  1  0  0  0
 16 50  1  0  0  0
 17 28  2  0  0  0
 17 35  1  0  0  0
 17 51  1  0  0  0
 18 32  2  0  0  0
 18 33  1  0  0  0
 18 52  1  0  0  0
 19 22  2  0  0  0
 19 31  1  0  0  0
 19 32  1  0  0  0
 20 36  1  0  0  0
 20 53  1  0  0  0
 21 54  1  0  0  0
 22 34  1  0  0  0
 22 55  1  0  0  0
 23 24  2  0  0  0
 23 29  1  0  0  0
 28 56  1  0  0  0
 29 30  1  0  0  0
 30 31  2  0  0  0
 32 57  1  0  0  0
 33 34  2  0  0  0
 33 58  1  0  0  0
 34 59  1  0  0  0
 35 36  2  0  0  0
 35 60  1  0  0  0
 36 61  1  0  0  0
M  CHG  1  26  -1
M  END
> <s_m_source_file>
../2nnq_ligand.sdf

> <i_m_source_file_index>
1

> <s_epik_input>
W2NIXTFbY0hdW2NIXVtjSF1bY0hdYzEtYzJjKFtDSDJdW0NIM10pbihuYzItYzNbY0hdW2NIXVtjSF1bY0hdW2NIXTMpLWM0W2NIXVtjSF1bY0hdW2NIXWM0LWM1W2NIXWMoW2NIXVtjSF1bY0hdNSlPW0NIMl1DKD1PKVtPSF0=

> <s_epik_cmdline>
J2VwaWtfYXBwJywgJy1pbWFlJywgJ2xpZ2FuZF9wcm8ubWFlJywgJy1vbWFlJywgJ2xpZ2FuZF9wcmVwLm1hZScsICctbXMnLCAnMScsICctcGgnLCAnNycsICctcGh0JywgJzAuNScsICctbnQn

> <r_lp_tautomer_probability>
1

> <r_epik_Ionization_Penalty>
  0.0001

> <r_epik_Ionization_Penalty_Charging>
  0.0001

> <r_epik_Ionization_Penalty_Neutral>
  0.0000

> <r_epik_State_Penalty>
 -0.0000

> <r_epik_Charging_Adjusted_Penalty>
7.93686206790319e-05

> <i_epik_Tot_Q>
-1

> <i_epik_Tot_abs_Q>
1

$$$$
