2nns_ligand
                    3D
 Schrodinger Suite 2020-3.
 30 30  0  0  1  0            999 V2000
   -5.2600    2.3770   15.8070 C   0  0  0  0  0  0
   -3.9210    2.3780   15.4430 C   0  0  0  0  0  0
   -3.4410    3.4560   14.6950 C   0  0  0  0  0  0
   -4.2500    4.5320   14.3150 C   0  0  0  0  0  0
   -5.5810    4.4890   14.6740 C   0  0  0  0  0  0
   -6.1250    3.4340   15.4180 C   0  0  0  0  0  0
   -5.9350    1.0310   16.7740 S   0  0  0  0  0  0
   -7.3830    1.1150   16.6540 O   0  0  0  0  0  0
   -5.3640    1.2050   18.1200 O   0  0  0  0  0  0
   -5.4740   -0.3460   16.1150 N   0  0  0  0  0  0
   -3.7190    5.6270   13.4330 C   0  0  0  0  0  0
   -2.7680    6.5660   14.2060 C   0  0  0  0  0  0
   -2.3670    7.6970   13.3740 N   0  0  0  0  0  0
   -1.5950    8.6890   13.8210 C   0  0  0  0  0  0
   -1.3000    9.7870   12.8460 C   0  0  0  0  0  0
   -1.1370    8.6790   14.9770 O   0  0  0  0  0  0
   -3.2615    1.5599   15.7328 H   0  0  0  0  0  0
   -2.3930    3.4587   14.3952 H   0  0  0  0  0  0
   -6.2339    5.3062   14.3674 H   0  0  0  0  0  0
   -7.1804    3.4247   15.6901 H   0  0  0  0  0  0
   -5.8807   -1.1856   16.6977 H   0  0  0  0  0  0
   -4.3754   -0.4008   16.1107 H   0  0  0  0  0  0
   -3.1638    5.1843   12.5929 H   0  0  0  0  0  0
   -4.5573    6.2239   13.0445 H   0  0  0  0  0  0
   -3.2787    6.9484   15.1021 H   0  0  0  0  0  0
   -1.8677    6.0099   14.5063 H   0  0  0  0  0  0
   -2.7033    7.7572   12.3284 H   0  0  0  0  0  0
   -1.8117    9.5798   11.8946 H   0  0  0  0  0  0
   -0.2149    9.8430   12.6742 H   0  0  0  0  0  0
   -1.6567   10.7446   13.2532 H   0  0  0  0  0  0
  1  2  2  0  0  0
  1  6  1  0  0  0
  1  7  1  0  0  0
  2  3  1  0  0  0
  2 17  1  0  0  0
  3  4  2  0  0  0
  3 18  1  0  0  0
  4  5  1  0  0  0
  4 11  1  0  0  0
  5  6  2  0  0  0
  5 19  1  0  0  0
  6 20  1  0  0  0
  7  8  2  0  0  0
  7  9  2  0  0  0
  7 10  1  0  0  0
 10 21  1  0  0  0
 10 22  1  0  0  0
 11 12  1  0  0  0
 11 23  1  0  0  0
 11 24  1  0  0  0
 12 13  1  0  0  0
 12 25  1  0  0  0
 12 26  1  0  0  0
 13 14  1  0  0  0
 13 27  1  0  0  0
 14 15  1  0  0  0
 14 16  2  0  0  0
 15 28  1  0  0  0
 15 29  1  0  0  0
 15 30  1  0  0  0
M  END
> <s_m_source_file>
../2nns_ligand.sdf

> <i_m_source_file_index>
1

> <s_epik_input>
Tz1TKD1PKShbTkgyXSljMVtjSF1bY0hdYyhbY0hdW2NIXTEpW0NIMl1bQ0gyXVtOSF1DKD1PKVtDSDNd

> <s_epik_cmdline>
J2VwaWtfYXBwJywgJy1pbWFlJywgJ2xpZ2FuZF9wcm8ubWFlJywgJy1vbWFlJywgJ2xpZ2FuZF9wcmVwLm1hZScsICctbXMnLCAnMScsICctcGgnLCAnNycsICctcGh0JywgJzAuNScsICctbnQn

> <r_lp_tautomer_probability>
1

> <r_epik_Ionization_Penalty>
  0.0005

> <r_epik_Ionization_Penalty_Charging>
  0.0000

> <r_epik_Ionization_Penalty_Neutral>
  0.0005

> <r_epik_State_Penalty>
 -0.0000

> <r_epik_Charging_Adjusted_Penalty>
0

> <i_epik_Tot_Q>
0

> <i_epik_Tot_abs_Q>
0

$$$$
