2nnv_ligand
                    3D
 Schrodinger Suite 2020-3.
 32 32  0  0  1  0            999 V2000
   -5.2710    2.0670   15.7360 C   0  0  0  0  0  0
   -6.0940    3.1360   15.3350 C   0  0  0  0  0  0
   -5.5850    4.1650   14.5640 C   0  0  0  0  0  0
   -4.2540    4.1700   14.1930 C   0  0  0  0  0  0
   -3.4240    3.1340   14.5770 C   0  0  0  0  0  0
   -3.9400    2.0620   15.3330 C   0  0  0  0  0  0
   -5.9400    0.7540   16.7160 S   0  0  0  0  0  0
   -7.3820    0.8790   16.5920 O   0  0  0  0  0  0
   -5.3730    0.9660   18.0400 O   0  0  0  0  0  0
   -5.4500   -0.6540   16.1030 N   0  0  0  0  0  0
   -3.7100    5.3030   13.3840 C   0  0  0  0  0  0
   -2.7570    6.1460   14.1930 C   0  0  0  0  0  0
   -2.1760    7.3640   13.5430 C   0  0  0  0  0  0
   -1.3150    8.0500   14.3360 O   0  0  0  0  0  0
   -2.4870    7.6810   12.4410 O   0  0  0  0  0  0
   -0.8950    9.3320   13.8310 C   0  0  0  0  0  0
   -0.1230    9.9800   14.9710 C   0  0  0  0  0  0
   -7.1418    3.1530   15.6348 H   0  0  0  0  0  0
   -6.2383    4.9778   14.2467 H   0  0  0  0  0  0
   -2.3710    3.1458   14.2955 H   0  0  0  0  0  0
   -3.2938    1.2266   15.6025 H   0  0  0  0  0  0
   -5.8602   -1.4785   16.7047 H   0  0  0  0  0  0
   -4.3511   -0.6988   16.1203 H   0  0  0  0  0  0
   -3.1709    4.9050   12.5117 H   0  0  0  0  0  0
   -4.5386    5.9412   13.0431 H   0  0  0  0  0  0
   -3.2692    6.5172   15.0929 H   0  0  0  0  0  0
   -1.8900    5.5373   14.4894 H   0  0  0  0  0  0
   -0.2595    9.1867   12.9450 H   0  0  0  0  0  0
   -1.7794    9.9249   13.5547 H   0  0  0  0  0  0
    0.2324   10.9721   14.6558 H   0  0  0  0  0  0
    0.7383    9.3491   15.2358 H   0  0  0  0  0  0
   -0.7816   10.0872   15.8455 H   0  0  0  0  0  0
  1  2  2  0  0  0
  1  6  1  0  0  0
  1  7  1  0  0  0
  2  3  1  0  0  0
  2 18  1  0  0  0
  3  4  2  0  0  0
  3 19  1  0  0  0
  4  5  1  0  0  0
  4 11  1  0  0  0
  5  6  2  0  0  0
  5 20  1  0  0  0
  6 21  1  0  0  0
  7  8  2  0  0  0
  7  9  2  0  0  0
  7 10  1  0  0  0
 10 22  1  0  0  0
 10 23  1  0  0  0
 11 12  1  0  0  0
 11 24  1  0  0  0
 11 25  1  0  0  0
 12 13  1  0  0  0
 12 26  1  0  0  0
 12 27  1  0  0  0
 13 14  1  0  0  0
 13 15  2  0  0  0
 14 16  1  0  0  0
 16 17  1  0  0  0
 16 28  1  0  0  0
 16 29  1  0  0  0
 17 30  1  0  0  0
 17 31  1  0  0  0
 17 32  1  0  0  0
M  END
> <s_m_source_file>
../2nnv_ligand.sdf

> <i_m_source_file_index>
1

> <s_epik_input>
Tz1TKD1PKShbTkgyXSljMVtjSF1bY0hdYyhbY0hdW2NIXTEpW0NIMl1bQ0gyXUMoPU8pT1tDSDJdW0NIM10=

> <s_epik_cmdline>
J2VwaWtfYXBwJywgJy1pbWFlJywgJ2xpZ2FuZF9wcm8ubWFlJywgJy1vbWFlJywgJ2xpZ2FuZF9wcmVwLm1hZScsICctbXMnLCAnMScsICctcGgnLCAnNycsICctcGh0JywgJzAuNScsICctbnQn

> <r_lp_tautomer_probability>
1

> <r_epik_Ionization_Penalty>
  0.0005

> <r_epik_Ionization_Penalty_Charging>
  0.0000

> <r_epik_Ionization_Penalty_Neutral>
  0.0005

> <r_epik_State_Penalty>
 -0.0000

> <r_epik_Charging_Adjusted_Penalty>
0

> <i_epik_Tot_Q>
0

> <i_epik_Tot_abs_Q>
0

> <s_epik_Chemistry_Notes>
This compound has an ester and may undergo hydrolysis at high or low pH.

$$$$
