2np8_ligand
                    3D
 Schrodinger Suite 2020-3.
 48 51  0  0  1  0            999 V2000
   -0.9040   34.5510   -1.7140 O   0  0  0  0  0  0
   -0.8280   35.3640   -2.6320 C   0  0  0  0  0  0
    0.0680   36.5680   -2.4840 C   0  0  0  0  0  0
   -0.7350   37.8680   -2.5400 C   0  0  0  0  0  0
   -0.2580   37.3210   -1.1990 C   0  0  0  0  0  0
   -1.4820   35.2480   -3.7990 N   0  0  0  0  0  0
   -2.2700   34.2020   -4.1850 C   0  0  0  0  0  0
   -2.4740   34.0020   -5.5470 C   0  0  0  0  0  0
   -2.9030   33.3450   -3.2800 C   0  0  0  0  0  0
   -3.7110   32.3040   -3.7290 C   0  0  0  0  0  0
   -3.9020   32.1200   -5.1000 C   0  0  0  0  0  0
   -3.2850   32.9700   -6.0170 C   0  0  0  0  0  0
   -3.4200   32.8550   -7.3630 N   0  0  0  0  0  0
   -4.0990   31.9260   -8.0810 C   0  0  0  0  0  0
   -4.0400   32.0200   -9.4300 N   0  0  0  0  0  0
   -4.6800   31.1470  -10.2170 C   0  0  0  0  0  0
   -5.4290   30.1220   -9.6510 C   0  0  0  0  0  0
   -4.8220   30.9330   -7.5060 N   0  0  0  0  0  0
   -5.4950   30.0260   -8.2620 C   0  0  0  0  0  0
   -6.2360   29.0230   -7.7240 N   0  0  0  0  0  0
   -6.5000   28.8060   -6.4070 C   0  0  0  0  0  0
   -7.2420   27.6750   -6.0750 C   0  0  0  0  0  0
   -7.5480   27.3850   -4.7440 C   0  0  0  0  0  0
   -8.3450   26.1460   -4.4140 C   0  0  0  0  0  0
   -9.1930   25.8600   -5.3980 F   0  0  0  0  0  0
   -7.4890   25.1440   -4.2830 F   0  0  0  0  0  0
   -9.0250   26.3110   -3.2820 F   0  0  0  0  0  0
   -7.1010   28.2380   -3.7280 C   0  0  0  0  0  0
   -6.3590   29.3710   -4.0500 C   0  0  0  0  0  0
   -6.0650   29.6490   -5.3820 C   0  0  0  0  0  0
    0.9781   36.1864   -2.9699 H   0  0  0  0  0  0
   -0.1946   38.6068   -3.1501 H   0  0  0  0  0  0
   -1.7198   37.6716   -2.9890 H   0  0  0  0  0  0
   -0.8485   36.6734   -0.5343 H   0  0  0  0  0  0
    0.6767   37.6085   -0.6953 H   0  0  0  0  0  0
   -1.4087   36.0463   -4.5522 H   0  0  0  0  0  0
   -1.9891   34.6667   -6.2619 H   0  0  0  0  0  0
   -2.7622   33.4937   -2.2094 H   0  0  0  0  0  0
   -4.1919   31.6362   -3.0143 H   0  0  0  0  0  0
   -4.5365   31.3079   -5.4550 H   0  0  0  0  0  0
   -2.9363   33.5850   -8.0286 H   0  0  0  0  0  0
   -4.6139   31.2397  -11.3010 H   0  0  0  0  0  0
   -5.9554   29.4060  -10.2821 H   0  0  0  0  0  0
   -6.7005   28.2705   -8.3782 H   0  0  0  0  0  0
   -7.5882   27.0078   -6.8644 H   0  0  0  0  0  0
   -7.3335   28.0154   -2.6866 H   0  0  0  0  0  0
   -6.0095   30.0381   -3.2620 H   0  0  0  0  0  0
   -5.4860   30.5389   -5.6289 H   0  0  0  0  0  0
  1  2  2  0  0  0
  2  3  1  0  0  0
  2  6  1  0  0  0
  3  4  1  0  0  0
  3  5  1  0  0  0
  3 31  1  0  0  0
  4  5  1  0  0  0
  4 32  1  0  0  0
  4 33  1  0  0  0
  5 34  1  0  0  0
  5 35  1  0  0  0
  6  7  1  0  0  0
  6 36  1  0  0  0
  7  8  2  0  0  0
  7  9  1  0  0  0
  8 12  1  0  0  0
  8 37  1  0  0  0
  9 10  2  0  0  0
  9 38  1  0  0  0
 10 11  1  0  0  0
 10 39  1  0  0  0
 11 12  2  0  0  0
 11 40  1  0  0  0
 12 13  1  0  0  0
 13 14  1  0  0  0
 13 41  1  0  0  0
 14 15  2  0  0  0
 14 18  1  0  0  0
 15 16  1  0  0  0
 16 17  2  0  0  0
 16 42  1  0  0  0
 17 19  1  0  0  0
 17 43  1  0  0  0
 18 19  2  0  0  0
 19 20  1  0  0  0
 20 21  1  0  0  0
 20 44  1  0  0  0
 21 22  2  0  0  0
 21 30  1  0  0  0
 22 23  1  0  0  0
 22 45  1  0  0  0
 23 24  1  0  0  0
 23 28  2  0  0  0
 24 25  1  0  0  0
 24 26  1  0  0  0
 24 27  1  0  0  0
 28 29  1  0  0  0
 28 46  1  0  0  0
 29 30  2  0  0  0
 29 47  1  0  0  0
 30 48  1  0  0  0
M  END
> <s_m_source_file>
../2np8_ligand.sdf

> <i_m_source_file_index>
1

> <s_epik_input>
W0NIMl0xW0NIMl1bQ0hdMUMoPU8pW05IXWMyW2NIXWMoW2NIXVtjSF1bY0hdMilbTkhdYzNuW2NIXVtjSF1jKG4zKVtOSF1jNFtjSF1jKEMoRikoRilGKVtjSF1bY0hdW2NIXTQ=

> <s_epik_cmdline>
J2VwaWtfYXBwJywgJy1pbWFlJywgJ2xpZ2FuZF9wcm8ubWFlJywgJy1vbWFlJywgJ2xpZ2FuZF9wcmVwLm1hZScsICctbXMnLCAnMScsICctcGgnLCAnNycsICctcGh0JywgJzAuNScsICctbnQn

> <r_lp_tautomer_probability>
0.999999624730965

> <r_epik_Ionization_Penalty>
  0.0269

> <r_epik_Ionization_Penalty_Charging>
  0.0000

> <r_epik_Ionization_Penalty_Neutral>
  0.0269

> <r_epik_State_Penalty>
  0.0216

> <r_epik_Charging_Adjusted_Penalty>
0.0216193509341286

> <i_epik_Tot_Q>
0

> <i_epik_Tot_abs_Q>
0

$$$$
