2np9_ligand
                    3D
 Schrodinger Suite 2020-3.
 98101  0  0  1  0            999 V2000
  -86.8880  -17.4410  -29.6330 C   0  0  0  0  0  0
  -86.2140  -18.8190  -29.5710 C   0  0  0  0  0  0
  -85.8320  -16.3550  -29.7020 C   0  0  0  0  0  0
  -87.6490  -17.2930  -28.3160 C   0  0  0  0  0  0
  -87.8560  -17.4640  -30.8400 C   0  0  1  0  0  0
  -88.8440  -18.5070  -30.6480 O   0  0  0  0  0  0
  -95.6540  -10.8470  -26.1410 O   0  0  0  0  0  0
  -95.6760   -9.9110  -27.2090 C   0  0  0  0  0  0
  -94.6780   -9.9470  -28.1910 N   0  0  0  0  0  0
  -96.7920   -8.8290  -27.3260 C   0  0  0  0  0  0
  -97.8250   -8.8280  -26.2360 C   0  0  0  0  0  0
  -98.5560   -7.6750  -25.9330 C   0  0  0  0  0  0
  -98.0510   -9.9930  -25.5060 C   0  0  0  0  0  0
  -98.9830  -10.0060  -24.4770 C   0  0  0  0  0  0
  -99.1330  -11.1200  -23.7270 O   0  0  0  0  0  0
  -99.7110   -8.8590  -24.1740 C   0  0  0  0  0  0
  -99.5000   -7.6930  -24.9060 C   0  0  0  0  0  0
 -100.2270   -6.5800  -24.6270 O   0  0  0  0  0  0
  -95.1090  -18.0050  -30.9230 N   0  0  0  0  0  0
  -95.2880  -19.3100  -31.3150 C   0  0  0  0  0  0
  -94.3980  -20.2630  -31.3210 N   0  0  0  0  0  0
  -93.1640  -19.8270  -30.9080 C   0  0  0  0  0  0
  -92.8180  -18.5500  -30.5240 C   0  0  0  0  0  0
  -93.8650  -17.5990  -30.5280 C   0  0  0  0  0  0
  -93.7170  -16.3440  -30.1700 N   0  0  0  0  0  0
  -91.4640  -18.4620  -30.1690 N   0  0  0  0  0  0
  -91.0200  -19.7120  -30.3370 C   0  0  0  0  0  0
  -91.9970  -20.5590  -30.7950 N   0  0  0  0  0  0
  -91.8760  -21.9600  -31.1420 C   0  0  1  0  0  0
  -91.1850  -22.0030  -32.4890 C   0  0  2  0  0  0
  -92.1400  -21.8740  -33.5640 O   0  0  0  0  0  0
  -90.5010  -23.3650  -32.4580 C   0  0  2  0  0  0
  -91.3350  -24.4660  -32.8770 O   0  0  0  0  0  0
  -91.3040  -24.5750  -34.4030 P   0  0  0  0  0  0
  -92.1890  -25.7420  -34.8480 O   0  5  0  0  0  0
  -89.8660  -24.8140  -34.8690 O   0  0  0  0  0  0
  -91.8280  -23.2740  -35.0170 O   0  5  0  0  0  0
  -90.0870  -23.4500  -30.9740 C   0  0  2  0  0  0
  -90.9990  -22.5710  -30.2450 O   0  0  0  0  0  0
  -88.6590  -23.0430  -30.7050 C   0  0  0  0  0  0
  -88.4780  -21.8630  -31.4700 O   0  0  0  0  0  0
  -87.1320  -21.5140  -32.2160 P   0  0  2  0  0  0
  -87.2960  -20.2550  -32.9910 O   0  5  0  0  0  0
  -86.6500  -22.5480  -33.1580 O   0  0  0  0  0  0
  -86.2520  -21.4230  -30.9640 O   0  0  0  0  0  0
  -84.8970  -20.5470  -30.8280 P   0  0  2  0  0  0
  -84.3430  -20.1000  -32.1520 O   0  5  0  0  0  0
  -83.9710  -21.0920  -29.7940 O   0  0  0  0  0  0
  -85.2280  -18.9620  -30.6220 O   0  0  0  0  0  0
  -88.4880  -16.0720  -31.0190 C   0  0  0  0  0  0
  -87.8510  -15.1080  -31.5310 O   0  0  0  0  0  0
  -89.8060  -15.8430  -30.6090 N   0  0  0  0  0  0
  -90.1720  -14.4470  -30.8850 C   0  0  0  0  0  0
  -90.5610  -14.0440  -29.4770 C   0  0  0  0  0  0
  -91.4580  -12.8520  -29.6580 C   0  0  0  0  0  0
  -91.0910  -11.9100  -30.3480 O   0  0  0  0  0  0
  -92.6650  -12.7780  -28.9550 N   0  0  0  0  0  0
  -93.2870  -11.5520  -29.2230 C   0  0  0  0  0  0
  -93.8160  -10.9460  -27.9100 C   0  0  0  0  0  0
  -85.7134  -18.9389  -28.5989 H   0  0  0  0  0  0
  -86.9743  -19.6048  -29.6912 H   0  0  0  0  0  0
  -85.1905  -16.4102  -28.8101 H   0  0  0  0  0  0
  -86.3208  -15.3703  -29.7418 H   0  0  0  0  0  0
  -85.2187  -16.4967  -30.6041 H   0  0  0  0  0  0
  -86.9349  -17.2800  -27.4794 H   0  0  0  0  0  0
  -88.3403  -18.1400  -28.1948 H   0  0  0  0  0  0
  -88.2195  -16.3525  -28.3259 H   0  0  0  0  0  0
  -87.3553  -17.7497  -31.7769 H   0  0  0  0  0  0
  -88.5229  -19.5497  -30.5079 H   0  0  0  0  0  0
  -94.5223   -9.3205  -29.0816 H   0  0  0  0  0  0
  -96.3352   -7.8284  -27.3146 H   0  0  0  0  0  0
  -97.3423   -8.9701  -28.2680 H   0  0  0  0  0  0
  -98.3878   -6.7599  -26.5007 H   0  0  0  0  0  0
  -97.4933  -10.8988  -25.7439 H   0  0  0  0  0  0
  -98.5574  -12.0262  -23.9669 H   0  0  0  0  0  0
 -100.4435   -8.8732  -23.3669 H   0  0  0  0  0  0
 -100.0631   -5.6573  -25.2030 H   0  0  0  0  0  0
  -96.2865  -19.5787  -31.6598 H   0  0  0  0  0  0
  -94.5772  -15.6590  -30.1981 H   0  0  0  0  0  0
  -92.7329  -15.9780  -29.8421 H   0  0  0  0  0  0
  -89.9956  -20.0234  -30.1327 H   0  0  0  0  0  0
  -92.8515  -22.4636  -31.0726 H   0  0  0  0  0  0
  -90.5066  -21.1639  -32.7027 H   0  0  0  0  0  0
  -92.7001  -20.9360  -33.6925 H   0  0  0  0  0  0
  -89.7035  -23.4921  -33.2049 H   0  0  0  0  0  0
  -90.1639  -24.4842  -30.6074 H   0  0  0  0  0  0
  -88.5267  -22.8591  -29.6286 H   0  0  0  0  0  0
  -87.9816  -23.8483  -31.0254 H   0  0  0  0  0  0
  -90.5370  -16.5220  -30.1458 H   0  0  0  0  0  0
  -89.3010  -13.9135  -31.2934 H   0  0  0  0  0  0
  -90.9937  -14.4210  -31.6158 H   0  0  0  0  0  0
  -91.0838  -14.8791  -28.9878 H   0  0  0  0  0  0
  -89.6561  -13.7921  -28.9045 H   0  0  0  0  0  0
  -93.1431  -13.5008  -28.2775 H   0  0  0  0  0  0
  -92.5595  -10.8634  -29.6774 H   0  0  0  0  0  0
  -94.1253  -11.7102  -29.9174 H   0  0  0  0  0  0
  -92.9739  -10.5496  -27.3237 H   0  0  0  0  0  0
  -94.3331  -11.7240  -27.3292 H   0  0  0  0  0  0
  1  2  1  0  0  0
  1  3  1  0  0  0
  1  4  1  0  0  0
  1  5  1  0  0  0
  2 49  1  0  0  0
  2 60  1  0  0  0
  2 61  1  0  0  0
  3 62  1  0  0  0
  3 63  1  0  0  0
  3 64  1  0  0  0
  4 65  1  0  0  0
  4 66  1  0  0  0
  4 67  1  0  0  0
  5  6  1  0  0  0
  5 50  1  0  0  0
  5 68  1  0  0  0
  6 69  1  0  0  0
  7  8  2  0  0  0
  8  9  1  0  0  0
  8 10  1  0  0  0
  9 59  1  0  0  0
  9 70  1  0  0  0
 10 11  1  0  0  0
 10 71  1  0  0  0
 10 72  1  0  0  0
 11 12  2  0  0  0
 11 13  1  0  0  0
 12 17  1  0  0  0
 12 73  1  0  0  0
 13 14  2  0  0  0
 13 74  1  0  0  0
 14 15  1  0  0  0
 14 16  1  0  0  0
 15 75  1  0  0  0
 16 17  2  0  0  0
 16 76  1  0  0  0
 17 18  1  0  0  0
 18 77  1  0  0  0
 19 20  1  0  0  0
 19 24  2  0  0  0
 20 21  2  0  0  0
 20 78  1  0  0  0
 21 22  1  0  0  0
 22 23  2  0  0  0
 22 28  1  0  0  0
 23 24  1  0  0  0
 23 26  1  0  0  0
 24 25  1  0  0  0
 25 79  1  0  0  0
 25 80  1  0  0  0
 26 27  2  0  0  0
 27 28  1  0  0  0
 27 81  1  0  0  0
 28 29  1  0  0  0
 29 30  1  0  0  0
 29 39  1  0  0  0
 29 82  1  0  0  0
 30 31  1  0  0  0
 30 32  1  0  0  0
 30 83  1  0  0  0
 31 84  1  0  0  0
 32 33  1  0  0  0
 32 38  1  0  0  0
 32 85  1  0  0  0
 33 34  1  0  0  0
 34 35  1  0  0  0
 34 36  2  0  0  0
 34 37  1  0  0  0
 38 39  1  0  0  0
 38 40  1  0  0  0
 38 86  1  0  0  0
 40 41  1  0  0  0
 40 87  1  0  0  0
 40 88  1  0  0  0
 41 42  1  0  0  0
 42 43  1  0  0  0
 42 44  2  0  0  0
 42 45  1  0  0  0
 45 46  1  0  0  0
 46 47  1  0  0  0
 46 48  2  0  0  0
 46 49  1  0  0  0
 50 51  2  0  0  0
 50 52  1  0  0  0
 52 53  1  0  0  0
 52 89  1  0  0  0
 53 54  1  0  0  0
 53 90  1  0  0  0
 53 91  1  0  0  0
 54 55  1  0  0  0
 54 92  1  0  0  0
 54 93  1  0  0  0
 55 56  2  0  0  0
 55 57  1  0  0  0
 57 58  1  0  0  0
 57 94  1  0  0  0
 58 59  1  0  0  0
 58 95  1  0  0  0
 58 96  1  0  0  0
 59 97  1  0  0  0
 59 98  1  0  0  0
M  CHG  4  35  -1  37  -1  43  -1  47  -1
M  END
> <s_m_source_file>
../2np9_ligand.sdf

> <i_m_source_file_index>
1

> <s_epik_input>
W2NIXTFjKFtPSF0pW2NIXWMoW09IXSlbY0hdYzFbQ0gyXUMoPU8pW05IXVtDSDJdW0NIMl1bTkhdQyg9TylbQ0gyXVtDSDJdW05IXUMoPU8pW0NASF0oW09IXSlDKFtDSDNdKShbQ0gzXSlbQ0gyXU9bUEBdKD1PKShbT0hdKU9bUEBdKD1PKShbT0hdKU9bQ0gyXVtDQEBIXShPMilbQ0BASF0oT1AoPU8pKFtPSF0pW09IXSlbQ0BASF0oW09IXSlbQ0BASF0ybjNbY0hdbmMoYzM0KWMoW05IMl0pbltjSF1uNA==

> <s_epik_cmdline>
J2VwaWtfYXBwJywgJy1pbWFlJywgJ2xpZ2FuZF9wcm8ubWFlJywgJy1vbWFlJywgJ2xpZ2FuZF9wcmVwLm1hZScsICctbXMnLCAnMScsICctcGgnLCAnNycsICctcGh0JywgJzAuNScsICctbnQn

> <r_lp_tautomer_probability>
0.999997216308988

> <r_epik_Ionization_Penalty>
  0.0822

> <r_epik_Ionization_Penalty_Charging>
  0.0752

> <r_epik_Ionization_Penalty_Neutral>
  0.0070

> <r_epik_State_Penalty>
  0.0657

> <r_epik_Charging_Adjusted_Penalty>
0.140910501814439

> <i_epik_Tot_Q>
-4

> <i_epik_Tot_abs_Q>
4

> <s_epik_Chemistry_Notes>
This compound contains an acetal/aminal-like group ( X-CH(R)-Y where X, Y are N, S, or O) that may be acid/base labile, releasing an aldehyde.

$$$$
