2nq6_ligand
                    3D
 Schrodinger Suite 2020-3.
 38 39  0  0  1  0            999 V2000
   46.6490   17.7760   36.4070 S   0  0  0  0  0  0
   46.5630   19.5820   34.7430 N   0  0  0  0  0  0
   45.0780   20.0020   36.4810 N   0  0  0  0  0  0
   43.4430   21.8760   37.4730 N   0  0  0  0  0  0
   44.2400   20.0750   40.5390 N   0  0  0  0  0  0
   47.6650   17.5820   35.1110 C   0  0  0  0  0  0
   47.4810   18.7030   34.2760 C   0  0  0  0  0  0
   46.0140   19.2520   35.8630 C   0  0  0  0  0  0
   44.8070   19.8850   37.7920 C   0  0  0  0  0  0
   43.9560   20.9590   38.3470 C   0  0  0  0  0  0
   42.6480   22.8880   37.8300 C   0  0  0  0  0  0
   42.3130   23.0380   39.1760 C   0  0  0  0  0  0
   42.7950   22.1450   40.1500 C   0  0  0  0  0  0
   43.6720   21.0260   39.7240 C   0  0  0  0  0  0
   44.1660   19.9120   41.8960 C   0  0  0  0  0  0
   44.9300   18.5210   43.8040 C   0  0  0  0  0  0
   45.8310   17.3250   43.7690 C   0  0  0  0  0  0
   43.4540   18.0670   44.2760 C   0  0  0  0  0  0
   45.6970   19.5330   44.6540 C   0  0  0  0  0  0
   45.2950   18.9690   38.4750 O   0  0  0  0  0  0
   43.5450   20.6400   42.5860 O   0  0  0  0  0  0
   44.8570   18.8740   42.4100 O   0  0  0  0  0  0
   44.5023   20.7444   35.9088 H   0  0  0  0  0  0
   44.8691   19.2837   40.1053 H   0  0  0  0  0  0
   48.3448   16.7477   34.9378 H   0  0  0  0  0  0
   48.0259   18.8483   33.3432 H   0  0  0  0  0  0
   42.2676   23.5845   37.0829 H   0  0  0  0  0  0
   41.6663   23.8618   39.4782 H   0  0  0  0  0  0
   42.5291   22.2726   41.1993 H   0  0  0  0  0  0
   45.9755   16.9448   44.7910 H   0  0  0  0  0  0
   46.8040   17.6113   43.3433 H   0  0  0  0  0  0
   45.3751   16.5406   43.1470 H   0  0  0  0  0  0
   43.4783   17.7905   45.3404 H   0  0  0  0  0  0
   43.1283   17.2019   43.6797 H   0  0  0  0  0  0
   42.7500   18.8994   44.1294 H   0  0  0  0  0  0
   45.7102   19.1970   45.7013 H   0  0  0  0  0  0
   45.2039   20.5142   44.5899 H   0  0  0  0  0  0
   46.7291   19.6163   44.2826 H   0  0  0  0  0  0
  1  6  1  0  0  0
  1  8  1  0  0  0
  2  7  1  0  0  0
  2  8  2  0  0  0
  3  8  1  0  0  0
  3  9  1  0  0  0
  3 23  1  0  0  0
  4 10  2  0  0  0
  4 11  1  0  0  0
  5 14  1  0  0  0
  5 15  1  0  0  0
  5 24  1  0  0  0
  6  7  2  0  0  0
  6 25  1  0  0  0
  7 26  1  0  0  0
  9 10  1  0  0  0
  9 20  2  0  0  0
 10 14  1  0  0  0
 11 12  2  0  0  0
 11 27  1  0  0  0
 12 13  1  0  0  0
 12 28  1  0  0  0
 13 14  2  0  0  0
 13 29  1  0  0  0
 15 21  2  0  0  0
 15 22  1  0  0  0
 16 17  1  0  0  0
 16 18  1  0  0  0
 16 19  1  0  0  0
 16 22  1  0  0  0
 17 30  1  0  0  0
 17 31  1  0  0  0
 17 32  1  0  0  0
 18 33  1  0  0  0
 18 34  1  0  0  0
 18 35  1  0  0  0
 19 36  1  0  0  0
 19 37  1  0  0  0
 19 38  1  0  0  0
M  END
> <s_m_source_file>
../2nq6_ligand.sdf

> <i_m_source_file_index>
1

> <s_epik_input>
bjFbY0hdW2NIXXNjMVtOSF1DKD1PKWMybltjSF1bY0hdW2NIXWMyW05IXUMoPU8pT0MoW0NIM10pKFtDSDNdKVtDSDNd

> <s_epik_cmdline>
J2VwaWtfYXBwJywgJy1pbWFlJywgJ2xpZ2FuZF9wcm8ubWFlJywgJy1vbWFlJywgJ2xpZ2FuZF9wcmVwLm1hZScsICctbXMnLCAnMScsICctcGgnLCAnNycsICctcGh0JywgJzAuNScsICctbnQn

> <r_lp_tautomer_probability>
1

> <r_epik_Ionization_Penalty>
  0.0014

> <r_epik_Ionization_Penalty_Charging>
  0.0000

> <r_epik_Ionization_Penalty_Neutral>
  0.0014

> <r_epik_State_Penalty>
 -0.0000

> <r_epik_Charging_Adjusted_Penalty>
0

> <i_epik_Tot_Q>
0

> <i_epik_Tot_abs_Q>
0

> <s_epik_Chemistry_Notes>
This compound has an ester and may undergo hydrolysis at high or low pH.

$$$$
