2nq7_ligand
                    3D
 Schrodinger Suite 2020-3.
 37 38  0  0  1  0            999 V2000
   10.7210   33.2170   23.2850 S   0  0  0  0  0  0
    9.1330   31.2470   23.1770 N   0  0  0  0  0  0
   11.1600   30.9660   21.9780 N   0  0  0  0  0  0
   12.3460   29.1710   20.3630 N   0  0  0  0  0  0
   15.1410   31.5840   20.7510 N   0  0  0  0  0  0
    9.2390   33.3520   24.1420 C   0  0  0  0  0  0
    8.5330   32.1990   23.9600 C   0  0  0  0  0  0
   10.3020   31.6580   22.7710 C   0  0  0  0  0  0
   12.4330   31.2930   21.5980 C   0  0  0  0  0  0
   13.0930   30.2700   20.7270 C   0  0  0  0  0  0
   12.9790   28.2100   19.5390 C   0  0  0  0  0  0
   14.2300   28.2730   19.1160 C   0  0  0  0  0  0
   15.0090   29.4070   19.4960 C   0  0  0  0  0  0
   14.4600   30.4490   20.3150 C   0  0  0  0  0  0
   16.4400   32.0900   20.5970 C   0  0  0  0  0  0
   16.6900   33.5730   21.0280 C   0  0  0  0  0  0
   15.4100   34.2580   21.5550 C   0  0  0  0  0  0
   17.2360   34.3890   19.8290 C   0  0  0  0  0  0
   17.7450   33.5860   22.1550 C   0  0  0  0  0  0
   12.9780   32.3100   21.9730 O   0  0  0  0  0  0
   17.3410   31.4070   20.1640 O   0  0  0  0  0  0
   10.8543   30.0010   21.5476 H   0  0  0  0  0  0
   14.6253   32.3293   21.3743 H   0  0  0  0  0  0
    8.9176   34.2114   24.7304 H   0  0  0  0  0  0
    7.5521   32.0442   24.4095 H   0  0  0  0  0  0
   12.3876   27.3488   19.2282 H   0  0  0  0  0  0
   14.6536   27.4830   18.4959 H   0  0  0  0  0  0
   16.0422   29.4828   19.1570 H   0  0  0  0  0  0
   14.6436   34.2595   20.7660 H   0  0  0  0  0  0
   15.6409   35.2940   21.8439 H   0  0  0  0  0  0
   15.0339   33.7083   22.4305 H   0  0  0  0  0  0
   16.4940   34.3886   19.0170 H   0  0  0  0  0  0
   18.1713   33.9338   19.4712 H   0  0  0  0  0  0
   17.4303   35.4237   20.1478 H   0  0  0  0  0  0
   17.3709   33.0098   23.0141 H   0  0  0  0  0  0
   17.9374   34.6237   22.4652 H   0  0  0  0  0  0
   18.6784   33.1338   21.7887 H   0  0  0  0  0  0
  1  6  1  0  0  0
  1  8  1  0  0  0
  2  7  1  0  0  0
  2  8  2  0  0  0
  3  8  1  0  0  0
  3  9  1  0  0  0
  3 22  1  0  0  0
  4 10  2  0  0  0
  4 11  1  0  0  0
  5 14  1  0  0  0
  5 15  1  0  0  0
  5 23  1  0  0  0
  6  7  2  0  0  0
  6 24  1  0  0  0
  7 25  1  0  0  0
  9 10  1  0  0  0
  9 20  2  0  0  0
 10 14  1  0  0  0
 11 12  2  0  0  0
 11 26  1  0  0  0
 12 13  1  0  0  0
 12 27  1  0  0  0
 13 14  2  0  0  0
 13 28  1  0  0  0
 15 16  1  0  0  0
 15 21  2  0  0  0
 16 17  1  0  0  0
 16 18  1  0  0  0
 16 19  1  0  0  0
 17 29  1  0  0  0
 17 30  1  0  0  0
 17 31  1  0  0  0
 18 32  1  0  0  0
 18 33  1  0  0  0
 18 34  1  0  0  0
 19 35  1  0  0  0
 19 36  1  0  0  0
 19 37  1  0  0  0
M  END
> <s_m_source_file>
../2nq7_ligand.sdf

> <i_m_source_file_index>
1

> <s_epik_input>
bjFbY0hdW2NIXXNjMVtOSF1DKD1PKWMybltjSF1bY0hdW2NIXWMyW05IXUMoPU8pQyhbQ0gzXSkoW0NIM10pW0NIM10=

> <s_epik_cmdline>
J2VwaWtfYXBwJywgJy1pbWFlJywgJ2xpZ2FuZF9wcm8ubWFlJywgJy1vbWFlJywgJ2xpZ2FuZF9wcmVwLm1hZScsICctbXMnLCAnMScsICctcGgnLCAnNycsICctcGh0JywgJzAuNScsICctbnQn

> <r_lp_tautomer_probability>
1

> <r_epik_Ionization_Penalty>
  0.0018

> <r_epik_Ionization_Penalty_Charging>
  0.0000

> <r_epik_Ionization_Penalty_Neutral>
  0.0018

> <r_epik_State_Penalty>
 -0.0000

> <r_epik_Charging_Adjusted_Penalty>
0

> <i_epik_Tot_Q>
0

> <i_epik_Tot_abs_Q>
0

$$$$
