2nqg_ligand
                    3D
 Schrodinger Suite 2020-3.
 83 84  0  0  1  0            999 V2000
    5.9300    4.0790  -22.5620 C   0  0  0  0  0  0
    7.2660    4.8280  -22.6210 C   0  0  0  0  0  0
    8.5460    4.1020  -22.3080 O   0  0  0  0  0  0
    9.2830    4.8060  -21.3920 C   0  0  0  0  0  0
    8.6710    5.4580  -20.5380 O   0  0  0  0  0  0
   10.8430    4.7560  -21.3980 C   0  0  0  0  0  0
   11.4420    6.1980  -21.3220 C   0  0  2  0  0  0
   11.0790    6.9900  -22.4680 O   0  0  0  0  0  0
   12.9690    6.1880  -21.1610 C   0  0  0  0  0  0
   13.4760    6.0900  -20.0550 O   0  0  0  0  0  0
   13.6910    6.3070  -22.2720 N   0  0  0  0  0  0
   15.1800    6.3010  -22.2860 C   0  0  1  0  0  0
   15.6770    5.1940  -23.2520 C   0  0  0  0  0  0
   15.2680    3.7420  -22.8700 C   0  0  0  0  0  0
   15.6480    3.3190  -21.5080 C   0  0  0  0  0  0
   15.9020    3.0960  -20.4130 N   0  0  0  0  0  0
   15.7020    7.7070  -22.7100 C   0  0  0  0  0  0
   14.9440    8.4780  -23.3020 O   0  0  0  0  0  0
   16.9720    8.0670  -22.4210 N   0  0  0  0  0  0
   18.0500    7.3100  -21.7120 C   0  0  1  0  0  0
   18.7890    6.3290  -22.6730 C   0  0  0  0  0  0
   19.2720    4.9790  -22.0920 C   0  0  0  0  0  0
   19.8470    4.0220  -23.1850 C   0  0  0  0  0  0
   18.8280    3.8670  -24.2450 N   0  0  0  0  0  0
   18.5260    2.7900  -25.0060 C   0  0  0  0  0  0
   17.5220    2.9290  -25.8740 N   0  3  0  0  0  0
   19.1690    1.6160  -24.9330 N   0  0  0  0  0  0
   19.0170    8.3870  -21.1230 C   0  0  0  0  0  0
   20.2460    8.3080  -21.2450 O   0  0  0  0  0  0
   18.4060    9.3940  -20.4820 N   0  0  0  0  0  0
   19.1120   10.5320  -19.8480 C   0  0  2  0  0  0
   20.0930   10.0610  -18.7270 C   0  0  0  0  0  0
   19.7270    9.3290  -17.8030 O   0  0  0  0  0  0
   21.3500   10.5000  -18.8420 N   0  0  0  0  0  0
   18.0440   11.4950  -19.2960 C   0  0  0  0  0  0
   17.6310   12.5800  -20.3080 C   0  0  0  0  0  0
   16.9270   12.4230  -21.5100 C   0  0  0  0  0  0
   16.3880   11.3230  -22.1910 C   0  0  0  0  0  0
   15.7300   11.5170  -23.4100 C   0  0  0  0  0  0
   15.6050   12.7990  -23.9580 C   0  0  0  0  0  0
   16.1400   13.8980  -23.2820 C   0  0  0  0  0  0
   16.8010   13.7080  -22.0600 C   0  0  0  0  0  0
   17.3950   14.5620  -21.2150 N   0  0  0  0  0  0
   17.8870   13.8870  -20.1670 C   0  0  0  0  0  0
    5.1119    4.7677  -22.8196 H   0  0  0  0  0  0
    5.7737    3.6876  -21.5459 H   0  0  0  0  0  0
    5.9457    3.2442  -23.2781 H   0  0  0  0  0  0
    7.4223    5.2194  -23.6371 H   0  0  0  0  0  0
    7.2503    5.6628  -21.9049 H   0  0  0  0  0  0
   11.1947    4.1787  -20.5302 H   0  0  0  0  0  0
   11.1909    4.2748  -22.3239 H   0  0  0  0  0  0
   10.9888    6.7274  -20.4709 H   0  0  0  0  0  0
   10.0200    7.1111  -22.7398 H   0  0  0  0  0  0
   13.1325    6.4138  -23.2137 H   0  0  0  0  0  0
   15.5280    6.0752  -21.2672 H   0  0  0  0  0  0
   15.2723    5.3768  -24.2584 H   0  0  0  0  0  0
   16.7762    5.2077  -23.2909 H   0  0  0  0  0  0
   14.1747    3.6397  -22.9357 H   0  0  0  0  0  0
   15.7449    3.0326  -23.5623 H   0  0  0  0  0  0
   17.1681    9.0826  -22.7953 H   0  0  0  0  0  0
   17.5936    6.6900  -20.9263 H   0  0  0  0  0  0
   18.1236    6.0622  -23.5073 H   0  0  0  0  0  0
   19.6945    6.8139  -23.0667 H   0  0  0  0  0  0
   20.0660    5.1610  -21.3528 H   0  0  0  0  0  0
   18.4289    4.4664  -21.6058 H   0  0  0  0  0  0
   20.7666    4.4555  -23.6049 H   0  0  0  0  0  0
   20.0750    3.0450  -22.7338 H   0  0  0  0  0  0
   18.1781    4.7136  -24.5112 H   0  0  0  0  0  0
   16.9851    3.8864  -25.9452 H   0  0  0  0  0  0
   19.9986    1.4865  -24.2223 H   0  0  0  0  0  0
   18.8671    0.7821  -25.5838 H   0  0  0  0  0  0
   17.3081    9.3381  -20.4444 H   0  0  0  0  0  0
   19.7103   11.0194  -20.6319 H   0  0  0  0  0  0
   21.6304   11.1511  -19.6831 H   0  0  0  0  0  0
   22.1042   10.2102  -18.0956 H   0  0  0  0  0  0
   17.1410   10.9267  -19.0285 H   0  0  0  0  0  0
   18.4353   12.0033  -18.4024 H   0  0  0  0  0  0
   16.4806   10.3106  -21.7710 H   0  0  0  0  0  0
   15.3043   10.6572  -23.9482 H   0  0  0  0  0  0
   15.0917   12.9392  -24.9093 H   0  0  0  0  0  0
   16.0446   14.9092  -23.7043 H   0  0  0  0  0  0
   18.4085   14.4253  -19.3618 H   0  0  0  0  0  0
   17.2313    2.0862  -26.5183 H   0  0  0  0  0  0
  1  2  1  0  0  0
  1 45  1  0  0  0
  1 46  1  0  0  0
  1 47  1  0  0  0
  2  3  1  0  0  0
  2 48  1  0  0  0
  2 49  1  0  0  0
  3  4  1  0  0  0
  4  5  2  0  0  0
  4  6  1  0  0  0
  6  7  1  0  0  0
  6 50  1  0  0  0
  6 51  1  0  0  0
  7  8  1  0  0  0
  7  9  1  0  0  0
  7 52  1  0  0  0
  8 53  1  0  0  0
  9 10  2  0  0  0
  9 11  1  0  0  0
 11 12  1  0  0  0
 11 54  1  0  0  0
 12 13  1  0  0  0
 12 17  1  0  0  0
 12 55  1  0  0  0
 13 14  1  0  0  0
 13 56  1  0  0  0
 13 57  1  0  0  0
 14 15  1  0  0  0
 14 58  1  0  0  0
 14 59  1  0  0  0
 15 16  3  0  0  0
 17 18  2  0  0  0
 17 19  1  0  0  0
 19 20  1  0  0  0
 19 60  1  0  0  0
 20 21  1  0  0  0
 20 28  1  0  0  0
 20 61  1  0  0  0
 21 22  1  0  0  0
 21 62  1  0  0  0
 21 63  1  0  0  0
 22 23  1  0  0  0
 22 64  1  0  0  0
 22 65  1  0  0  0
 23 24  1  0  0  0
 23 66  1  0  0  0
 23 67  1  0  0  0
 24 25  1  0  0  0
 24 68  1  0  0  0
 25 26  2  0  0  0
 25 27  1  0  0  0
 26 69  1  0  0  0
 26 83  1  0  0  0
 27 70  1  0  0  0
 27 71  1  0  0  0
 28 29  2  0  0  0
 28 30  1  0  0  0
 30 31  1  0  0  0
 30 72  1  0  0  0
 31 32  1  0  0  0
 31 35  1  0  0  0
 31 73  1  0  0  0
 32 33  2  0  0  0
 32 34  1  0  0  0
 34 74  1  0  0  0
 34 75  1  0  0  0
 35 36  1  0  0  0
 35 76  1  0  0  0
 35 77  1  0  0  0
 36 37  2  0  0  0
 36 44  1  0  0  0
 37 38  1  0  0  0
 37 42  1  0  0  0
 38 39  2  0  0  0
 38 78  1  0  0  0
 39 40  1  0  0  0
 39 79  1  0  0  0
 40 41  1  0  0  0
 40 80  1  0  0  0
 41 42  2  0  0  0
 41 81  1  0  0  0
 42 43  1  0  0  0
 43 44  2  0  0  0
 44 82  1  0  0  0
M  CHG  1  26   1
M  END
> <s_m_source_file>
../2nqg_ligand.sdf

> <i_m_source_file_index>
1

> <s_epik_input>
W0NIM11bQ0gyXU9DKD1PKVtDSDJdW0NASF0oW09IXSlDKD1PKVtOSF1bQ0BASF0oW0NIMl1bQ0gyXUMjTilDKD1PKVtOSF1bQ0BASF0oW0NIMl1bQ0gyXVtDSDJdW05IXS9DKD1OXFtIXSlbTkgyXSlDKD1PKVtOSF1bQ0BIXShDKD1PKVtOSDJdKVtDSDJdQz0xW0NIXT1OQyhDMTIpPVtDSF1bQ0gyXVtDSF09W0NIXTI=

> <s_epik_cmdline>
J2VwaWtfYXBwJywgJy1pbWFlJywgJ2xpZ2FuZF9wcm8ubWFlJywgJy1vbWFlJywgJ2xpZ2FuZF9wcmVwLm1hZScsICctbXMnLCAnMScsICctcGgnLCAnNycsICctcGh0JywgJzAuNScsICctbnQn

> <r_lp_tautomer_probability>
1

> <r_epik_Ionization_Penalty>
  0.0000

> <r_epik_Ionization_Penalty_Charging>
  0.0000

> <r_epik_Ionization_Penalty_Neutral>
  0.0000

> <r_epik_State_Penalty>
 -0.0000

> <r_epik_Charging_Adjusted_Penalty>
1.5689896295643e-05

> <i_epik_Tot_Q>
1

> <i_epik_Tot_abs_Q>
1

> <s_epik_Chemistry_Notes>
This compound has an ester and may undergo hydrolysis at high or low pH. This compound has an imine and may undergo hydrolysis.

$$$$
