2nqi_ligand
                    3D
 Schrodinger Suite 2020-3.
 83 84  0  0  1  0            999 V2000
    6.3540    4.5090  -22.7670 C   0  0  0  0  0  0
    7.5920    5.3840  -22.9910 C   0  0  0  0  0  0
    8.9390    4.7740  -22.7130 O   0  0  0  0  0  0
    9.3960    5.3260  -21.5390 C   0  0  0  0  0  0
    8.5840    5.7750  -20.7310 O   0  0  0  0  0  0
   10.8790    5.3630  -21.1580 C   0  0  0  0  0  0
   11.7840    5.8820  -22.2850 C   0  0  1  0  0  0
   11.2900    7.1170  -22.8240 O   0  0  0  0  0  0
   13.1980    6.1310  -21.7570 C   0  0  0  0  0  0
   13.4090    6.9240  -20.8390 O   0  0  0  0  0  0
   14.1550    5.4420  -22.3750 N   0  0  0  0  0  0
   15.5730    5.6050  -22.0090 C   0  0  1  0  0  0
   16.2970    4.2800  -21.7630 C   0  0  0  0  0  0
   15.4580    3.1870  -21.6830 C   0  0  0  0  0  0
   15.7050    2.1400  -22.5390 C   0  0  0  0  0  0
   16.2700    6.2770  -23.1760 C   0  0  0  0  0  0
   16.4560    5.6020  -24.1850 O   0  0  0  0  0  0
   16.6820    7.5560  -23.0860 N   0  0  0  0  0  0
   16.5390    8.5470  -21.9960 C   0  0  1  0  0  0
   17.8700    8.6680  -21.1930 C   0  0  0  0  0  0
   18.9520    9.5700  -21.8050 C   0  0  0  0  0  0
   19.3720   10.6550  -20.7950 C   0  0  0  0  0  0
   19.9950   11.8120  -21.4860 N   0  0  0  0  0  0
   21.3240   11.8890  -21.7070 C   0  0  0  0  0  0
   22.1530   10.9140  -21.3090 N   0  0  0  0  0  0
   21.8380   12.9470  -22.3320 N   0  3  0  0  0  0
   15.9940    9.8640  -22.6690 C   0  0  0  0  0  0
   15.3680    9.7640  -23.7380 O   0  0  0  0  0  0
   16.2260   11.0480  -22.0490 N   0  0  0  0  0  0
   15.7810   12.4040  -22.5420 C   0  0  2  0  0  0
   14.2500   12.6050  -22.3830 C   0  0  0  0  0  0
   13.4400   11.8710  -22.9550 O   0  0  0  0  0  0
   13.8990   13.6320  -21.6000 N   0  0  0  0  0  0
   16.1990   12.7290  -24.0130 C   0  0  0  0  0  0
   16.5640   14.2170  -24.2590 C   0  0  0  0  0  0
   15.7990   15.2000  -24.9090 C   0  0  0  0  0  0
   14.5280   15.2100  -25.5100 C   0  0  0  0  0  0
   14.0320   16.3920  -26.0830 C   0  0  0  0  0  0
   14.8010   17.5680  -26.0600 C   0  0  0  0  0  0
   16.0670   17.5630  -25.4630 C   0  0  0  0  0  0
   16.5610   16.3810  -24.8870 C   0  0  0  0  0  0
   17.7090   16.0950  -24.2660 N   0  0  0  0  0  0
   17.7100   14.8060  -23.8910 C   0  0  0  0  0  0
    5.4490    5.0853  -23.0094 H   0  0  0  0  0  0
    6.3153    4.1910  -21.7147 H   0  0  0  0  0  0
    6.4091    3.6227  -23.4161 H   0  0  0  0  0  0
    7.6307    5.7020  -24.0433 H   0  0  0  0  0  0
    7.5369    6.2704  -22.3419 H   0  0  0  0  0  0
   11.0183    6.0249  -20.2905 H   0  0  0  0  0  0
   11.2175    4.3480  -20.9028 H   0  0  0  0  0  0
   11.7728    5.1626  -23.1170 H   0  0  0  0  0  0
   10.2813    7.1622  -23.2604 H   0  0  0  0  0  0
   13.8700    4.7403  -23.1728 H   0  0  0  0  0  0
   15.5708    6.1940  -21.0800 H   0  0  0  0  0  0
   17.0011    4.0886  -22.5862 H   0  0  0  0  0  0
   16.8494    4.3348  -20.8133 H   0  0  0  0  0  0
   14.6197    3.1309  -20.9730 H   0  0  0  0  0  0
   16.5433    2.1961  -23.2490 H   0  0  0  0  0  0
   15.0643    1.2462  -22.5139 H   0  0  0  0  0  0
   17.2010    7.8321  -24.0158 H   0  0  0  0  0  0
   15.8136    8.1980  -21.2464 H   0  0  0  0  0  0
   17.6600    9.0806  -20.1952 H   0  0  0  0  0  0
   18.3275    7.6730  -21.0895 H   0  0  0  0  0  0
   19.8305    8.9623  -22.0675 H   0  0  0  0  0  0
   18.5570   10.0538  -22.7105 H   0  0  0  0  0  0
   18.4864   11.0071  -20.2457 H   0  0  0  0  0  0
   20.0998   10.2338  -20.0858 H   0  0  0  0  0  0
   19.3686   12.6451  -21.8375 H   0  0  0  0  0  0
   21.7535   10.0298  -20.7908 H   0  0  0  0  0  0
   23.2329   10.9980  -21.5006 H   0  0  0  0  0  0
   21.1789   13.7608  -22.6687 H   0  0  0  0  0  0
   16.7910   10.9627  -21.1090 H   0  0  0  0  0  0
   16.3278   13.0834  -21.8716 H   0  0  0  0  0  0
   14.6740   14.2472  -21.1195 H   0  0  0  0  0  0
   12.8355   13.8609  -21.4370 H   0  0  0  0  0  0
   17.0824   12.1320  -24.2835 H   0  0  0  0  0  0
   15.3692   12.4846  -24.6925 H   0  0  0  0  0  0
   13.9222   14.2921  -25.5314 H   0  0  0  0  0  0
   13.0373   16.4003  -26.5527 H   0  0  0  0  0  0
   14.4120   18.4831  -26.5066 H   0  0  0  0  0  0
   16.6745   18.4798  -25.4438 H   0  0  0  0  0  0
   18.5786   14.3881  -23.3610 H   0  0  0  0  0  0
   22.9216   13.0070  -22.5115 H   0  0  0  0  0  0
  1  2  1  0  0  0
  1 44  1  0  0  0
  1 45  1  0  0  0
  1 46  1  0  0  0
  2  3  1  0  0  0
  2 47  1  0  0  0
  2 48  1  0  0  0
  3  4  1  0  0  0
  4  5  2  0  0  0
  4  6  1  0  0  0
  6  7  1  0  0  0
  6 49  1  0  0  0
  6 50  1  0  0  0
  7  8  1  0  0  0
  7  9  1  0  0  0
  7 51  1  0  0  0
  8 52  1  0  0  0
  9 10  2  0  0  0
  9 11  1  0  0  0
 11 12  1  0  0  0
 11 53  1  0  0  0
 12 13  1  0  0  0
 12 16  1  0  0  0
 12 54  1  0  0  0
 13 14  1  0  0  0
 13 55  1  0  0  0
 13 56  1  0  0  0
 14 15  2  0  0  0
 14 57  1  0  0  0
 15 58  1  0  0  0
 15 59  1  0  0  0
 16 17  2  0  0  0
 16 18  1  0  0  0
 18 19  1  0  0  0
 18 60  1  0  0  0
 19 20  1  0  0  0
 19 27  1  0  0  0
 19 61  1  0  0  0
 20 21  1  0  0  0
 20 62  1  0  0  0
 20 63  1  0  0  0
 21 22  1  0  0  0
 21 64  1  0  0  0
 21 65  1  0  0  0
 22 23  1  0  0  0
 22 66  1  0  0  0
 22 67  1  0  0  0
 23 24  1  0  0  0
 23 68  1  0  0  0
 24 25  1  0  0  0
 24 26  2  0  0  0
 25 69  1  0  0  0
 25 70  1  0  0  0
 26 71  1  0  0  0
 26 83  1  0  0  0
 27 28  2  0  0  0
 27 29  1  0  0  0
 29 30  1  0  0  0
 29 72  1  0  0  0
 30 31  1  0  0  0
 30 34  1  0  0  0
 30 73  1  0  0  0
 31 32  2  0  0  0
 31 33  1  0  0  0
 33 74  1  0  0  0
 33 75  1  0  0  0
 34 35  1  0  0  0
 34 76  1  0  0  0
 34 77  1  0  0  0
 35 36  2  0  0  0
 35 43  1  0  0  0
 36 37  1  0  0  0
 36 41  1  0  0  0
 37 38  2  0  0  0
 37 78  1  0  0  0
 38 39  1  0  0  0
 38 79  1  0  0  0
 39 40  1  0  0  0
 39 80  1  0  0  0
 40 41  2  0  0  0
 40 81  1  0  0  0
 41 42  1  0  0  0
 42 43  2  0  0  0
 43 82  1  0  0  0
M  CHG  1  26   1
M  END
> <s_m_source_file>
../2nqi_ligand.sdf

> <i_m_source_file_index>
1

> <s_epik_input>
W0NIM11bQ0gyXU9DKD1PKVtDSDJdW0NAQEhdKFtPSF0pQyg9TylbTkhdW0NAQEhdKFtDSDJdW0NIXT1bQ0gyXSlDKD1PKVtOSF1bQ0BASF0oW0NIMl1bQ0gyXVtDSDJdW05IXS9DKFtOSDJdKT1OXFtIXSlDKD1PKVtOSF1bQ0BIXShDKD1PKVtOSDJdKVtDSDJdQz0xW0NIXT1OQyhDMTIpPVtDSF1bQ0gyXVtDSF09W0NIXTI=

> <s_epik_cmdline>
J2VwaWtfYXBwJywgJy1pbWFlJywgJ2xpZ2FuZF9wcm8ubWFlJywgJy1vbWFlJywgJ2xpZ2FuZF9wcmVwLm1hZScsICctbXMnLCAnMScsICctcGgnLCAnNycsICctcGh0JywgJzAuNScsICctbnQn

> <r_lp_tautomer_probability>
1

> <r_epik_Ionization_Penalty>
  0.0000

> <r_epik_Ionization_Penalty_Charging>
  0.0000

> <r_epik_Ionization_Penalty_Neutral>
  0.0000

> <r_epik_State_Penalty>
 -0.0000

> <r_epik_Charging_Adjusted_Penalty>
2.82880843743756e-06

> <i_epik_Tot_Q>
1

> <i_epik_Tot_abs_Q>
1

> <s_epik_Chemistry_Notes>
This compound has an ester and may undergo hydrolysis at high or low pH. This compound has an imine and may undergo hydrolysis.

$$$$
