2nt7_ligand
                    3D
 Schrodinger Suite 2020-3.
 64 68  0  0  1  0            999 V2000
   44.8920   13.7100    0.4730 S   0  0  0  0  0  0
   44.9350   15.0810    1.4460 C   0  0  1  0  0  0
   45.7820   14.8400    2.5380 C   0  0  0  0  0  0
   46.3610   13.5470    2.5380 C   0  0  0  0  0  0
   45.9340   12.7760    1.4070 C   0  0  0  0  0  0
   44.1870   16.3180    1.1490 C   0  0  0  0  0  0
   43.7040   16.5980   -0.0870 N   0  0  0  0  0  0
   43.8520   17.3430    1.9750 N   0  3  0  0  0  0
   46.2610   11.3970    0.9810 C   0  0  0  0  0  0
   47.5870   10.8860    1.0620 C   0  0  0  0  0  0
   47.8480    9.5490    0.6440 C   0  0  0  0  0  0
   46.7770    8.7110    0.1580 C   0  0  0  0  0  0
   45.4430    9.2220    0.0780 C   0  0  0  0  0  0
   45.1910   10.5650    0.5000 C   0  0  0  0  0  0
   47.5540   12.9350    3.8880 Br  0  0  0  0  0  0
   46.0390   15.8070    3.5740 O   0  3  0  0  0  0
   47.3170   16.4660    3.4630 C   0  0  0  0  0  0
   47.7040   17.2290    4.7460 C   0  0  0  0  0  0
   46.9340   17.2730    5.7050 O   0  5  0  0  0  0
   48.7950   17.7890    4.7820 O   0  0  0  0  0  0
   49.1470    9.1080    0.7490 N   0  0  0  0  0  0
   49.5760    7.9110    1.4930 C   0  0  0  0  0  0
   48.9940    7.8160    2.9230 C   0  0  0  0  0  0
   49.3360    6.4290    3.4980 C   0  0  0  0  0  0
   50.7820    6.0670    3.3900 N   0  0  3  0  0  0
   51.5820    6.5500    2.2190 C   0  0  0  0  0  0
   51.1060    7.8900    1.6070 C   0  0  0  0  0  0
   51.4680    5.1050    4.5450 S   0  0  0  0  0  0
   50.6800    5.2250    5.7320 O   0  0  0  0  0  0
   52.8620    5.4920    4.6340 O   0  0  0  0  0  0
   51.4210    3.3930    4.0570 C   0  0  0  0  0  0
   51.9420    2.4850    5.1490 C   0  0  0  0  0  0
   51.0210    1.9750    6.1270 C   0  0  0  0  0  0
   51.4940    1.1140    7.1660 C   0  0  0  0  0  0
   52.8890    0.7720    7.2140 C   0  0  0  0  0  0
   53.8190    1.2770    6.2420 C   0  0  0  0  0  0
   53.3410    2.1400    5.2010 C   0  0  0  0  0  0
   43.1630   18.2600    1.2490 N   0  0  0  0  0  0
   43.0700   17.7980   -0.0310 N   0  0  0  0  0  0
   48.3954   11.5117    1.4403 H   0  0  0  0  0  0
   46.9855    7.6861   -0.1488 H   0  0  0  0  0  0
   44.6323    8.5981   -0.2983 H   0  0  0  0  0  0
   44.1769   10.9624    0.4566 H   0  0  0  0  0  0
   48.0992   15.7182    3.2658 H   0  0  0  0  0  0
   47.2854   17.1904    2.6358 H   0  0  0  0  0  0
   49.8907    9.7245    0.2229 H   0  0  0  0  0  0
   49.1800    7.0861    0.8825 H   0  0  0  0  0  0
   49.4362    8.6028    3.5518 H   0  0  0  0  0  0
   47.9026    7.9478    2.8842 H   0  0  0  0  0  0
   49.0725    6.3995    4.5656 H   0  0  0  0  0  0
   48.7667    5.6578    2.9584 H   0  0  0  0  0  0
   52.6279    6.6985    2.5257 H   0  0  0  0  0  0
   51.5389    5.8033    1.4124 H   0  0  0  0  0  0
   51.5498    8.0053    0.6071 H   0  0  0  0  0  0
   51.4370    8.7168    2.2526 H   0  0  0  0  0  0
   50.3836    3.1041    3.8324 H   0  0  0  0  0  0
   52.0436    3.2497    3.1615 H   0  0  0  0  0  0
   49.9658    2.2435    6.0770 H   0  0  0  0  0  0
   50.8043    0.7215    7.9132 H   0  0  0  0  0  0
   53.2496    0.1149    8.0054 H   0  0  0  0  0  0
   54.8739    1.0077    6.2951 H   0  0  0  0  0  0
   54.0309    2.5325    4.4540 H   0  0  0  0  0  0
   44.1484   17.3154    3.0340 H   0  0  0  0  0  0
   44.0810   14.6977    2.0238 H   0  0  0  0  0  0
  1  2  1  0  0  0
  1  5  1  0  0  0
  2  3  1  0  0  0
  2  6  1  0  0  0
  2 64  1  0  0  0
  3  4  1  0  0  0
  3 16  2  0  0  0
  4  5  2  0  0  0
  4 15  1  0  0  0
  5  9  1  0  0  0
  6  7  2  0  0  0
  6  8  1  0  0  0
  7 39  1  0  0  0
  8 38  2  0  0  0
  8 63  1  0  0  0
  9 10  2  0  0  0
  9 14  1  0  0  0
 10 11  1  0  0  0
 10 40  1  0  0  0
 11 12  2  0  0  0
 11 21  1  0  0  0
 12 13  1  0  0  0
 12 41  1  0  0  0
 13 14  2  0  0  0
 13 42  1  0  0  0
 14 43  1  0  0  0
 16 17  1  0  0  0
 17 18  1  0  0  0
 17 44  1  0  0  0
 17 45  1  0  0  0
 18 19  1  0  0  0
 18 20  2  0  0  0
 21 22  1  0  0  0
 21 46  1  0  0  0
 22 23  1  0  0  0
 22 27  1  0  0  0
 22 47  1  0  0  0
 23 24  1  0  0  0
 23 48  1  0  0  0
 23 49  1  0  0  0
 24 25  1  0  0  0
 24 50  1  0  0  0
 24 51  1  0  0  0
 25 26  1  0  0  0
 25 28  1  0  0  0
 26 27  1  0  0  0
 26 52  1  0  0  0
 26 53  1  0  0  0
 27 54  1  0  0  0
 27 55  1  0  0  0
 28 29  2  0  0  0
 28 30  2  0  0  0
 28 31  1  0  0  0
 31 32  1  0  0  0
 31 56  1  0  0  0
 31 57  1  0  0  0
 32 33  2  0  0  0
 32 37  1  0  0  0
 33 34  1  0  0  0
 33 58  1  0  0  0
 34 35  2  0  0  0
 34 59  1  0  0  0
 35 36  1  0  0  0
 35 60  1  0  0  0
 36 37  2  0  0  0
 36 61  1  0  0  0
 37 62  1  0  0  0
 38 39  1  0  0  0
M  CHG  3   8   1  16   1  19  -1
M  END
> <s_m_source_file>
../2nt7_ligand.sdf

> <i_m_source_file_index>
1

> <s_epik_input>
bjFuW25IXW5jMS1jMnNjKGMoQnIpYzJPW0NIMl1DKD1PKVtPSF0pLWMzW2NIXWMoW2NIXVtjSF1bY0hdMylbTkhdW0NIXTRbQ0gyXVtDSDJdTihbQ0gyXVtDSDJdNClTKD1PKSg9TylbQ0gyXWM1W2NIXVtjSF1bY0hdW2NIXVtjSF01

> <s_epik_cmdline>
J2VwaWtfYXBwJywgJy1pbWFlJywgJ2xpZ2FuZF9wcm8ubWFlJywgJy1vbWFlJywgJ2xpZ2FuZF9wcmVwLm1hZScsICctbXMnLCAnMScsICctcGgnLCAnNycsICctcGh0JywgJzAuNScsICctbnQn

> <r_lp_tautomer_probability>
0.3

> <r_epik_Ionization_Penalty>
  0.0650

> <r_epik_Ionization_Penalty_Charging>
  0.0649

> <r_epik_Ionization_Penalty_Neutral>
  0.0001

> <r_epik_State_Penalty>
  0.0566

> <r_epik_Charging_Adjusted_Penalty>
0.121483335744574

> <i_epik_Tot_Q>
1

> <i_epik_Tot_abs_Q>
3

$$$$
