2nta_ligand
                    3D
 Schrodinger Suite 2020-3.
 28 30  0  0  1  0            999 V2000
   29.3880  -32.5530    1.0090 C   0  0  0  0  0  0
   30.6440  -33.1950    0.8630 C   0  0  0  0  0  0
   31.6890  -32.5660    0.1400 C   0  0  0  0  0  0
   31.5080  -31.2850   -0.4540 C   0  0  0  0  0  0
   30.2240  -30.6420   -0.2950 C   0  0  0  0  0  0
   29.1760  -31.2740    0.4320 C   0  0  0  0  0  0
   32.6380  -30.6330   -1.1980 C   0  0  0  0  0  0
   34.4570  -28.5230   -3.7480 N   0  0  0  0  0  0
   35.2790  -27.4970   -5.8570 N   0  0  0  0  0  0
   34.0330  -29.3960   -2.6930 C   0  0  0  0  0  0
   32.6840  -29.8010   -2.3520 C   0  0  0  0  0  0
   34.9290  -29.9600   -1.7990 C   0  0  0  0  0  0
   34.2240  -30.9190   -0.5970 S   0  0  0  0  0  0
   34.4820  -27.0380   -3.6310 C   0  0  0  0  0  0
   34.9910  -26.4730   -4.9340 C   0  0  0  0  0  0
   35.1320  -25.2890   -5.1600 O   0  5  0  0  0  0
   34.9860  -29.0670   -5.2940 S   0  0  0  0  0  0
   36.2560  -29.7620   -5.1660 O   0  0  0  0  0  0
   33.8730  -29.6300   -6.0370 O   0  0  0  0  0  0
   31.3030  -29.3360   -3.2630 Cl  0  0  0  0  0  0
   28.5866  -33.0412    1.5636 H   0  0  0  0  0  0
   30.8068  -34.1764    1.3086 H   0  0  0  0  0  0
   32.6486  -33.0726    0.0371 H   0  0  0  0  0  0
   30.0556  -29.6602   -0.7375 H   0  0  0  0  0  0
   28.2127  -30.7766    0.5452 H   0  0  0  0  0  0
   36.0049  -29.7982   -1.8652 H   0  0  0  0  0  0
   33.4655  -26.6689   -3.4295 H   0  0  0  0  0  0
   35.1483  -26.7464   -2.8057 H   0  0  0  0  0  0
  1  2  2  0  0  0
  1  6  1  0  0  0
  1 21  1  0  0  0
  2  3  1  0  0  0
  2 22  1  0  0  0
  3  4  2  0  0  0
  3 23  1  0  0  0
  4  5  1  0  0  0
  4  7  1  0  0  0
  5  6  2  0  0  0
  5 24  1  0  0  0
  6 25  1  0  0  0
  7 11  2  0  0  0
  7 13  1  0  0  0
  8 10  1  0  0  0
  8 14  1  0  0  0
  8 17  1  0  0  0
  9 15  2  0  0  0
  9 17  1  0  0  0
 10 11  1  0  0  0
 10 12  2  0  0  0
 11 20  1  0  0  0
 12 13  1  0  0  0
 12 26  1  0  0  0
 14 15  1  0  0  0
 14 27  1  0  0  0
 14 28  1  0  0  0
 15 16  1  0  0  0
 17 18  2  0  0  0
 17 19  2  0  0  0
M  CHG  1  16  -1
M  END
> <s_m_source_file>
../2nta_ligand.sdf

> <i_m_source_file_index>
1

> <s_epik_input>
W2NIXTFbY0hdW2NIXVtjSF1bY0hdYzEtYzJjKENsKWMoW2NIXXMyKU4oUzMoPU8pPU8pW0NIMl1DKD1PKVtOSF0z

> <s_epik_cmdline>
J2VwaWtfYXBwJywgJy1pbWFlJywgJ2xpZ2FuZF9wcm8ubWFlJywgJy1vbWFlJywgJ2xpZ2FuZF9wcmVwLm1hZScsICctbXMnLCAnMScsICctcGgnLCAnNycsICctcGh0JywgJzAuNScsICctbnQn

> <r_epik_Ionization_Penalty>
  0.3578

> <r_epik_Ionization_Penalty_Charging>
  0.3578

> <r_epik_Ionization_Penalty_Neutral>
  0.0000

> <r_epik_State_Penalty>
  0.3545

> <r_epik_Charging_Adjusted_Penalty>
0.712278811288216

> <i_epik_Tot_Q>
-1

> <i_epik_Tot_abs_Q>
1

$$$$
