2ntf_ligand
                    3D
 Schrodinger Suite 2020-3.
 49 49  0  0  1  0            999 V2000
  -34.8950   17.6830    2.6130 C   0  0  0  0  0  0
  -33.3840   17.4540    2.9500 C   0  0  0  0  0  0
  -32.8630   16.0950    2.3420 C   0  0  0  0  0  0
  -31.3020   15.8110    2.5610 C   0  0  0  0  0  0
  -30.9410   14.3350    2.0730 C   0  0  0  0  0  0
  -29.4530   14.0980    1.7010 C   0  0  0  0  0  0
  -29.1890   12.7500    0.9920 C   0  0  0  0  0  0
  -28.8660   11.6030    1.9810 C   0  0  0  0  0  0
  -27.9070   10.4950    1.4700 C   0  0  0  0  0  0
  -28.6590    9.2220    0.9930 C   0  0  0  0  0  0
  -29.0070    8.3400    1.7740 O   0  0  0  0  0  0
  -28.9650    9.1260   -0.5040 C   0  0  0  0  0  0
  -29.3540    7.7520   -0.9790 C   0  0  0  0  0  0
  -28.5240    6.9140   -1.3120 O   0  0  0  0  0  0
  -30.6430    7.5490   -1.0360 N   0  0  0  0  0  0
  -31.1610    6.2820   -1.5390 C   0  0  1  0  0  0
  -31.3490    5.2560   -0.4530 C   0  0  0  0  0  0
  -32.6060    4.5190   -0.9460 C   0  0  0  0  0  0
  -33.3910    5.5510   -1.6450 N   0  0  0  0  0  0
  -32.5880    6.5500   -1.9820 C   0  0  0  0  0  0
  -32.9530    7.5760   -2.5620 O   0  0  0  0  0  0
  -35.2276   18.6363    3.0496 H   0  0  0  0  0  0
  -35.4928   16.8597    3.0312 H   0  0  0  0  0  0
  -35.0266   17.7140    1.5213 H   0  0  0  0  0  0
  -32.7862   18.2773    2.5318 H   0  0  0  0  0  0
  -33.2524   17.4231    4.0417 H   0  0  0  0  0  0
  -33.4040   15.2557    2.8033 H   0  0  0  0  0  0
  -33.0352   16.0894    1.2556 H   0  0  0  0  0  0
  -30.7125   16.5374    1.9824 H   0  0  0  0  0  0
  -31.0579   15.9085    3.6291 H   0  0  0  0  0  0
  -31.1789   13.6165    2.8712 H   0  0  0  0  0  0
  -31.5273   14.0922    1.1745 H   0  0  0  0  0  0
  -29.1136   14.8939    1.0217 H   0  0  0  0  0  0
  -28.8403   14.1097    2.6145 H   0  0  0  0  0  0
  -30.0804   12.4568    0.4181 H   0  0  0  0  0  0
  -28.3324   12.8559    0.3101 H   0  0  0  0  0  0
  -28.3909   12.0186    2.8819 H   0  0  0  0  0  0
  -29.7965   11.0879    2.2617 H   0  0  0  0  0  0
  -27.3230   10.8787    0.6205 H   0  0  0  0  0  0
  -27.2244   10.1986    2.2801 H   0  0  0  0  0  0
  -29.8013    9.7966   -0.7510 H   0  0  0  0  0  0
  -28.0756    9.4216   -1.0798 H   0  0  0  0  0  0
  -31.3380    8.3345   -0.7043 H   0  0  0  0  0  0
  -30.4367    5.9459   -2.2956 H   0  0  0  0  0  0
  -30.4589    4.6119   -0.3991 H   0  0  0  0  0  0
  -31.4922    5.7650    0.5116 H   0  0  0  0  0  0
  -32.3110    3.7019   -1.6208 H   0  0  0  0  0  0
  -33.1497    4.1046   -0.0843 H   0  0  0  0  0  0
  -34.4696    5.4068   -1.8056 H   0  0  0  0  0  0
  1  2  1  0  0  0
  1 22  1  0  0  0
  1 23  1  0  0  0
  1 24  1  0  0  0
  2  3  1  0  0  0
  2 25  1  0  0  0
  2 26  1  0  0  0
  3  4  1  0  0  0
  3 27  1  0  0  0
  3 28  1  0  0  0
  4  5  1  0  0  0
  4 29  1  0  0  0
  4 30  1  0  0  0
  5  6  1  0  0  0
  5 31  1  0  0  0
  5 32  1  0  0  0
  6  7  1  0  0  0
  6 33  1  0  0  0
  6 34  1  0  0  0
  7  8  1  0  0  0
  7 35  1  0  0  0
  7 36  1  0  0  0
  8  9  1  0  0  0
  8 37  1  0  0  0
  8 38  1  0  0  0
  9 10  1  0  0  0
  9 39  1  0  0  0
  9 40  1  0  0  0
 10 11  2  0  0  0
 10 12  1  0  0  0
 12 13  1  0  0  0
 12 41  1  0  0  0
 12 42  1  0  0  0
 13 14  2  0  0  0
 13 15  1  0  0  0
 15 16  1  0  0  0
 15 43  1  0  0  0
 16 17  1  0  0  0
 16 20  1  0  0  0
 16 44  1  0  0  0
 17 18  1  0  0  0
 17 45  1  0  0  0
 17 46  1  0  0  0
 18 19  1  0  0  0
 18 47  1  0  0  0
 18 48  1  0  0  0
 19 20  1  0  0  0
 19 49  1  0  0  0
 20 21  2  0  0  0
M  END
> <s_m_source_file>
../2ntf_ligand.sdf

> <i_m_source_file_index>
1

> <s_epik_input>
W0NIM11bQ0gyXVtDSDJdW0NIMl1bQ0gyXVtDSDJdW0NIMl1bQ0gyXVtDSDJdQyg9TylbQ0gyXUMoPU8pW05IXVtDQEhdMVtDSDJdW0NIMl1bTkhdQzE9Tw==

> <s_epik_cmdline>
J2VwaWtfYXBwJywgJy1pbWFlJywgJ2xpZ2FuZF9wcm8ubWFlJywgJy1vbWFlJywgJ2xpZ2FuZF9wcmVwLm1hZScsICctbXMnLCAnMScsICctcGgnLCAnNycsICctcGh0JywgJzAuNScsICctbnQn

> <r_lp_tautomer_probability>
0.999999960000001

> <r_epik_Ionization_Penalty>
  0.0182

> <r_epik_Ionization_Penalty_Charging>
  0.0000

> <r_epik_Ionization_Penalty_Neutral>
  0.0182

> <r_epik_State_Penalty>
  0.0144

> <r_epik_Charging_Adjusted_Penalty>
0.014446307673547

> <i_epik_Tot_Q>
0

> <i_epik_Tot_abs_Q>
0

$$$$
