2nw4_ligand
                    3D
 Schrodinger Suite 2020-3.
 33 35  0  0  1  0            999 V2000
   23.5170    5.2630    4.3990 Cl  0  0  0  0  0  0
   25.2700    4.7920    4.3180 C   0  0  0  0  0  0
   25.6300    3.4270    4.4080 C   0  0  0  0  0  0
   26.9740    3.0660    4.2280 C   0  0  0  0  0  0
   27.9910    4.0090    4.0300 C   0  0  0  0  0  0
   27.6510    5.3530    4.0520 C   0  0  0  0  0  0
   26.3010    5.7540    4.1350 C   0  0  0  0  0  0
   26.0640    7.1350    3.8860 C   0  0  0  0  0  0
   25.8750    8.2290    3.5750 N   0  0  0  0  0  0
   27.3620    1.7870    4.2660 N   0  0  0  0  0  0
   27.1360    0.8600    3.3060 C   0  0  0  0  0  0
   27.5890   -0.3110    3.7430 N   0  0  0  0  0  0
   28.3210   -0.1870    4.9710 C   0  0  1  0  0  0
   29.7020   -0.4300    4.4160 C   0  0  1  0  0  0
   29.5120   -1.5100    3.3320 C   0  0  0  0  0  0
   28.0410   -1.3920    2.9240 C   0  0  0  0  0  0
   30.0600    0.8200    3.8300 O   0  0  0  0  0  0
   28.2090    1.3320    5.1920 C   0  0  0  0  0  0
   28.8140    1.9890    6.0400 O   0  0  0  0  0  0
   26.6280    1.0840    2.2060 O   0  0  0  0  0  0
   24.6180    2.3820    4.7120 C   0  0  0  0  0  0
   29.0213    3.6947    3.8632 H   0  0  0  0  0  0
   28.4356    6.1082    4.0046 H   0  0  0  0  0  0
   28.0277   -0.8163    5.8242 H   0  0  0  0  0  0
   30.4875   -0.6975    5.1381 H   0  0  0  0  0  0
   30.1885   -1.3062    2.4889 H   0  0  0  0  0  0
   29.7415   -2.4989    3.7555 H   0  0  0  0  0  0
   27.4569   -2.2953    3.1539 H   0  0  0  0  0  0
   27.9082   -1.1294    1.8641 H   0  0  0  0  0  0
   30.2326    1.6980    4.4698 H   0  0  0  0  0  0
   23.6283    2.8501    4.8187 H   0  0  0  0  0  0
   24.8862    1.8737    5.6499 H   0  0  0  0  0  0
   24.5905    1.6488    3.8924 H   0  0  0  0  0  0
  1  2  1  0  0  0
  2  3  2  0  0  0
  2  7  1  0  0  0
  3  4  1  0  0  0
  3 21  1  0  0  0
  4  5  2  0  0  0
  4 10  1  0  0  0
  5  6  1  0  0  0
  5 22  1  0  0  0
  6  7  2  0  0  0
  6 23  1  0  0  0
  7  8  1  0  0  0
  8  9  3  0  0  0
 10 11  1  0  0  0
 10 18  1  0  0  0
 11 12  1  0  0  0
 11 20  2  0  0  0
 12 13  1  0  0  0
 12 16  1  0  0  0
 13 14  1  0  0  0
 13 18  1  0  0  0
 13 24  1  0  0  0
 14 15  1  0  0  0
 14 17  1  0  0  0
 14 25  1  0  0  0
 15 16  1  0  0  0
 15 26  1  0  0  0
 15 27  1  0  0  0
 16 28  1  0  0  0
 16 29  1  0  0  0
 17 30  1  0  0  0
 18 19  2  0  0  0
 21 31  1  0  0  0
 21 32  1  0  0  0
 21 33  1  0  0  0
M  END
> <s_m_source_file>
../2nw4_ligand.sdf

> <i_m_source_file_index>
1

> <s_epik_input>
TiNDYzFbY0hdW2NIXWMoYyhjMUNsKVtDSDNdKU4oQzI9TylDKD1PKVtDQEBIXShOMjMpW0NASF0oW09IXSlbQ0gyXVtDSDJdMw==

> <s_epik_cmdline>
J2VwaWtfYXBwJywgJy1pbWFlJywgJ2xpZ2FuZF9wcm8ubWFlJywgJy1vbWFlJywgJ2xpZ2FuZF9wcmVwLm1hZScsICctbXMnLCAnMScsICctcGgnLCAnNycsICctcGh0JywgJzAuNScsICctbnQn

> <r_lp_tautomer_probability>
1

> <r_epik_Ionization_Penalty>
  0.0000

> <r_epik_Ionization_Penalty_Charging>
  0.0000

> <r_epik_Ionization_Penalty_Neutral>
  0.0000

> <r_epik_State_Penalty>
 -0.0000

> <r_epik_Charging_Adjusted_Penalty>
0

> <i_epik_Tot_Q>
0

> <i_epik_Tot_abs_Q>
0

$$$$
