2nwn_ligand
                    3D
 Schrodinger Suite 2020-3.
193196  0  0  1  0            999 V2000
   83.5090   50.1260  -17.5760 N   0  3  0  0  0  0
   83.0820   48.9530  -16.7590 C   0  0  2  0  0  0
   84.2520   48.0630  -16.3690 C   0  0  0  0  0  0
   84.1130   47.1820  -15.5240 O   0  0  0  0  0  0
   82.0540   48.1170  -17.5230 C   0  0  0  0  0  0
   80.4130   48.8850  -17.6580 S   0  0  0  0  0  0
   85.4010   48.2950  -16.9930 N   0  0  0  0  0  0
   86.5960   47.5120  -16.7110 C   0  0  2  0  0  0
   87.5140   48.1880  -15.6950 C   0  0  0  0  0  0
   88.4270   47.5560  -15.1660 O   0  0  0  0  0  0
   87.3790   47.2630  -18.0020 C   0  0  0  0  0  0
   86.6350   46.4660  -18.9020 O   0  0  0  0  0  0
   87.2640   49.4620  -15.4130 N   0  0  0  0  0  0
   88.1060   50.2120  -14.4860 C   0  0  2  0  0  0
   87.5030   50.4060  -13.0970 C   0  0  0  0  0  0
   86.3340   50.1020  -12.8690 O   0  0  0  0  0  0
   88.4260   51.5870  -15.0780 C   0  0  0  0  0  0
   88.8090   51.5630  -16.5290 C   0  0  0  0  0  0
   89.4370   50.5510  -17.2000 C   0  0  0  0  0  0
   88.6350   52.6230  -17.4760 C   0  0  0  0  0  0
   89.6640   50.9160  -18.5030 N   0  0  0  0  0  0
   89.1830   52.1840  -18.7010 C   0  0  0  0  0  0
   88.0700   53.9050  -17.4080 C   0  0  0  0  0  0
   89.1830   52.9810  -19.8520 C   0  0  0  0  0  0
   88.0700   54.6970  -18.5520 C   0  0  0  0  0  0
   88.6240   54.2290  -19.7580 C   0  0  0  0  0  0
   88.3130   50.9090  -12.1680 N   0  0  0  0  0  0
   87.8260   51.1740  -10.8190 C   0  0  2  0  0  0
   86.8150   52.3000  -10.9720 C   0  0  0  0  0  0
   87.0280   53.2270  -11.7540 O   0  0  0  0  0  0
   88.9440   51.6530   -9.8850 C   0  0  0  0  0  0
   90.1340   50.7330   -9.7500 C   0  0  0  0  0  0
   91.2180   51.1440  -10.7100 C   0  0  0  0  0  0
   92.4530   51.4810  -10.0210 N   0  0  0  0  0  0
   93.5580   51.8920  -10.6310 C   0  0  0  0  0  0
   93.5840   52.0230  -11.9500 N   0  0  0  0  0  0
   94.6410   52.1640   -9.9170 N   0  0  0  0  0  0
   85.7240   52.2210  -10.2230 N   0  0  0  0  0  0
   84.7020   53.2420  -10.3070 C   0  0  0  0  0  0
   83.3810   52.6950  -10.8110 C   0  0  0  0  0  0
   82.3270   53.2700  -10.5390 O   0  0  0  0  0  0
   83.4250   51.5790  -11.5340 N   0  0  0  0  0  0
   82.1990   50.9970  -12.0750 C   0  0  2  0  0  0
   81.8490   49.5820  -11.6210 C   0  0  0  0  0  0
   80.9980   48.9300  -12.2330 O   0  0  0  0  0  0
   82.2250   51.0420  -13.6100 C   0  0  0  0  0  0
   82.0510   52.4220  -14.2530 C   0  0  0  0  0  0
   82.1570   52.3000  -15.7670 C   0  0  0  0  0  0
   80.7030   53.0040  -13.8610 C   0  0  0  0  0  0
   82.4880   49.0980  -10.5620 N   0  0  0  0  0  0
   82.1620   47.7620  -10.0840 C   0  0  2  0  0  0
   80.7700   47.7830   -9.4550 C   0  0  0  0  0  0
   80.3490   48.7890   -8.8810 O   0  0  0  0  0  0
   83.2080   47.2550   -9.0750 C   0  0  0  0  0  0
   83.8790   48.3190   -8.2200 C   0  0  0  0  0  0
   85.0750   48.9770   -8.9040 C   0  0  0  0  0  0
   86.1780   48.3920   -8.9290 O   0  0  0  0  0  0
   84.9090   50.0900   -9.4220 O   0  0  0  0  0  0
   80.0470   46.6780   -9.5920 N   0  0  0  0  0  0
   78.7000   46.5590   -9.0440 C   0  0  2  0  0  0
   77.7760   47.6700   -9.5510 C   0  0  0  0  0  0
   76.9660   48.2130   -8.8000 O   0  0  0  0  0  0
   78.7560   46.5620   -7.5110 C   0  0  0  0  0  0
   77.4200   46.2200   -6.8740 C   0  0  0  0  0  0
   76.7630   45.2510   -7.2610 O   0  0  0  0  0  0
   77.0170   47.0100   -5.8810 N   0  0  0  0  0  0
   77.9080   48.0040  -10.8310 N   0  0  0  0  0  0
   77.0770   49.0290  -11.4530 C   0  0  2  0  0  0
   76.1050   48.3880  -12.4390 C   0  0  0  0  0  0
   76.5090   47.6430  -13.3330 O   0  0  0  0  0  0
   77.9460   50.0640  -12.1730 C   0  0  0  0  0  0
   78.4400   51.1620  -11.2810 C   0  0  0  0  0  0
   78.0210   52.4690  -11.4090 N   0  0  0  0  0  0
   79.2930   51.1420  -10.2300 C   0  0  0  0  0  0
   78.5930   53.2060  -10.4740 C   0  0  0  0  0  0
   79.3700   52.4250   -9.7450 N   0  0  0  0  0  0
   74.8220   48.6860  -12.2590 N   0  0  0  0  0  0
   73.7580   48.1490  -13.1000 C   0  0  2  0  0  0
   74.0190   48.2110  -14.6030 C   0  0  0  0  0  0
   73.8420   47.2160  -15.3010 O   0  0  0  0  0  0
   72.4370   48.8570  -12.7720 C   0  0  0  0  0  0
   71.3420   48.6770  -13.8150 C   0  0  0  0  0  0
   69.9790   49.0310  -13.2480 C   0  0  0  0  0  0
   69.4900   47.9880  -12.3520 N   0  0  0  0  0  0
   68.4280   48.1110  -11.5620 C   0  0  0  0  0  0
   67.7350   49.2430  -11.5490 N   0  0  0  0  0  0
   68.0560   47.0990  -10.7890 N   0  0  0  0  0  0
   74.4370   49.3690  -15.1040 N   0  0  0  0  0  0
   74.6970   49.5150  -16.5320 C   0  0  2  0  0  0
   75.6380   48.4310  -17.0440 C   0  0  0  0  0  0
   75.4630   47.9160  -18.1480 O   0  0  0  0  0  0
   75.3020   50.8860  -16.8400 C   0  0  0  0  0  0
   76.7250   51.0720  -16.3380 C   0  0  0  0  0  0
   77.5000   52.5460  -17.0280 S   0  0  0  0  0  0
   78.3050   51.8570  -18.4790 C   0  0  0  0  0  0
   76.6370   48.0890  -16.2360 N   0  0  0  0  0  0
   77.6110   47.0720  -16.6120 C   0  0  2  0  0  0
   77.0190   45.6720  -16.5100 C   0  0  0  0  0  0
   76.9790   44.9740  -17.5450 O   0  0  0  0  0  0
   78.8500   47.1720  -15.7190 C   0  0  0  0  0  0
   79.6880   48.7890  -15.7680 S   0  0  0  0  0  0
   76.6020   45.2900  -15.3960 O   0  0  0  0  0  0
   84.2472   50.7158  -17.0129 H   0  0  0  0  0  0
   82.6341   50.7532  -17.8023 H   0  0  0  0  0  0
   83.9605   49.7738  -18.5152 H   0  0  0  0  0  0
   82.6446   49.3781  -15.8436 H   0  0  0  0  0  0
   82.4121   47.9430  -18.5484 H   0  0  0  0  0  0
   81.9155   47.1516  -17.0143 H   0  0  0  0  0  0
   85.4359   49.1023  -17.7393 H   0  0  0  0  0  0
   86.2054   46.5779  -16.2810 H   0  0  0  0  0  0
   87.6032   48.2249  -18.4862 H   0  0  0  0  0  0
   88.3193   46.7433  -17.7661 H   0  0  0  0  0  0
   87.0611   46.1967  -19.8797 H   0  0  0  0  0  0
   86.4034   49.9509  -15.8930 H   0  0  0  0  0  0
   88.9914   49.5674  -14.3837 H   0  0  0  0  0  0
   87.5441   52.2385  -14.9896 H   0  0  0  0  0  0
   89.2688   52.0346  -14.5310 H   0  0  0  0  0  0
   89.7170   49.5925  -16.7630 H   0  0  0  0  0  0
   87.6393   54.2737  -16.4770 H   0  0  0  0  0  0
   89.6115   52.6225  -20.7879 H   0  0  0  0  0  0
   87.6342   55.6953  -18.5135 H   0  0  0  0  0  0
   88.6082   54.8733  -20.6370 H   0  0  0  0  0  0
   89.3600   51.1249  -12.4271 H   0  0  0  0  0  0
   87.4103   50.2363  -10.4215 H   0  0  0  0  0  0
   89.3399   52.6126  -10.2490 H   0  0  0  0  0  0
   88.5425   51.7836   -8.8693 H   0  0  0  0  0  0
   90.5232   50.7854   -8.7225 H   0  0  0  0  0  0
   89.8266   49.7007   -9.9735 H   0  0  0  0  0  0
   91.4257   50.3167  -11.4045 H   0  0  0  0  0  0
   90.8890   52.0263  -11.2787 H   0  0  0  0  0  0
   92.5108   51.4019   -8.9254 H   0  0  0  0  0  0
   92.6854   51.7974  -12.5429 H   0  0  0  0  0  0
   94.5042   52.3573  -12.4515 H   0  0  0  0  0  0
   94.6198   52.0554   -8.8226 H   0  0  0  0  0  0
   85.5984   51.3724   -9.5344 H   0  0  0  0  0  0
   84.5329   53.6745   -9.3098 H   0  0  0  0  0  0
   85.0291   54.0323  -10.9987 H   0  0  0  0  0  0
   84.3941   51.0942  -11.7233 H   0  0  0  0  0  0
   81.4438   51.6568  -11.6229 H   0  0  0  0  0  0
   83.1911   50.6600  -13.9717 H   0  0  0  0  0  0
   81.4115   50.4183  -14.0090 H   0  0  0  0  0  0
   82.8401   53.1018  -13.8991 H   0  0  0  0  0  0
   83.1373   51.8777  -16.0331 H   0  0  0  0  0  0
   82.0503   53.2952  -16.2234 H   0  0  0  0  0  0
   81.3600   51.6390  -16.1383 H   0  0  0  0  0  0
   80.6432   53.0852  -12.7656 H   0  0  0  0  0  0
   79.8999   52.3459  -14.2243 H   0  0  0  0  0  0
   80.5902   54.0021  -14.3094 H   0  0  0  0  0  0
   83.2558   49.6942  -10.0472 H   0  0  0  0  0  0
   82.1773   47.1119  -10.9712 H   0  0  0  0  0  0
   82.7312   46.5548   -8.3732 H   0  0  0  0  0  0
   84.0174   46.7402   -9.6134 H   0  0  0  0  0  0
   83.1537   49.1121   -7.9855 H   0  0  0  0  0  0
   84.2403   47.8646   -7.2857 H   0  0  0  0  0  0
   87.0404   48.8650   -9.4215 H   0  0  0  0  0  0
   80.4945   45.8353  -10.1394 H   0  0  0  0  0  0
   78.3254   45.5947   -9.4178 H   0  0  0  0  0  0
   79.4917   45.8189   -7.1695 H   0  0  0  0  0  0
   79.0519   47.5605   -7.1568 H   0  0  0  0  0  0
   77.6378   47.8634   -5.5706 H   0  0  0  0  0  0
   76.0633   46.8093   -5.3710 H   0  0  0  0  0  0
   78.6725   47.4810  -11.4243 H   0  0  0  0  0  0
   76.5248   49.5076  -10.6308 H   0  0  0  0  0  0
   78.8295   49.5673  -12.6004 H   0  0  0  0  0  0
   77.3639   50.5344  -12.9792 H   0  0  0  0  0  0
   79.8740   50.3383   -9.7541 H   0  0  0  0  0  0
   78.4485   54.2766  -10.3286 H   0  0  0  0  0  0
   74.5778   49.3699  -11.4327 H   0  0  0  0  0  0
   73.7547   47.0833  -12.8277 H   0  0  0  0  0  0
   72.0388   48.4688  -11.8230 H   0  0  0  0  0  0
   72.6137   49.9388  -12.6803 H   0  0  0  0  0  0
   71.5443   49.3314  -14.6757 H   0  0  0  0  0  0
   71.3216   47.6289  -14.1481 H   0  0  0  0  0  0
   70.0500   49.9723  -12.6833 H   0  0  0  0  0  0
   69.2592   49.1507  -14.0712 H   0  0  0  0  0  0
   70.0098   47.0200  -12.2993 H   0  0  0  0  0  0
   68.0419   50.0832  -12.1892 H   0  0  0  0  0  0
   66.8538   49.3409  -10.8980 H   0  0  0  0  0  0
   68.6291   46.1601  -10.7984 H   0  0  0  0  0  0
   74.5865   50.2234  -14.4276 H   0  0  0  0  0  0
   73.7074   49.4065  -16.9999 H   0  0  0  0  0  0
   75.3232   51.0412  -17.9288 H   0  0  0  0  0  0
   74.6909   51.6705  -16.3697 H   0  0  0  0  0  0
   76.7174   51.1699  -15.2424 H   0  0  0  0  0  0
   77.3317   50.2001  -16.6241 H   0  0  0  0  0  0
   78.8342   52.6561  -19.0188 H   0  0  0  0  0  0
   77.5487   51.4072  -19.1390 H   0  0  0  0  0  0
   79.0249   51.0859  -18.1674 H   0  0  0  0  0  0
   76.7178   48.5947  -15.2625 H   0  0  0  0  0  0
   77.8612   47.2885  -17.6610 H   0  0  0  0  0  0
   78.5631   46.9920  -14.6724 H   0  0  0  0  0  0
   79.5888   46.4193  -16.0313 H   0  0  0  0  0  0
   76.1684   44.2850  -15.2861 H   0  0  0  0  0  0
  1  2  1  0  0  0
  1103  1  0  0  0
  1104  1  0  0  0
  1105  1  0  0  0
  2  3  1  0  0  0
  2  5  1  0  0  0
  2106  1  0  0  0
  3  4  2  0  0  0
  3  7  1  0  0  0
  5  6  1  0  0  0
  5107  1  0  0  0
  5108  1  0  0  0
  6101  1  0  0  0
  7  8  1  0  0  0
  7109  1  0  0  0
  8  9  1  0  0  0
  8 11  1  0  0  0
  8110  1  0  0  0
  9 10  2  0  0  0
  9 13  1  0  0  0
 11 12  1  0  0  0
 11111  1  0  0  0
 11112  1  0  0  0
 12113  1  0  0  0
 13 14  1  0  0  0
 13114  1  0  0  0
 14 15  1  0  0  0
 14 17  1  0  0  0
 14115  1  0  0  0
 15 16  2  0  0  0
 15 27  1  0  0  0
 17 18  1  0  0  0
 17116  1  0  0  0
 17117  1  0  0  0
 18 19  2  0  0  0
 18 20  1  0  0  0
 19 21  1  0  0  0
 19118  1  0  0  0
 20 22  2  0  0  0
 20 23  1  0  0  0
 21 22  1  0  0  0
 22 24  1  0  0  0
 23 25  2  0  0  0
 23119  1  0  0  0
 24 26  2  0  0  0
 24120  1  0  0  0
 25 26  1  0  0  0
 25121  1  0  0  0
 26122  1  0  0  0
 27 28  1  0  0  0
 27123  1  0  0  0
 28 29  1  0  0  0
 28 31  1  0  0  0
 28124  1  0  0  0
 29 30  2  0  0  0
 29 38  1  0  0  0
 31 32  1  0  0  0
 31125  1  0  0  0
 31126  1  0  0  0
 32 33  1  0  0  0
 32127  1  0  0  0
 32128  1  0  0  0
 33 34  1  0  0  0
 33129  1  0  0  0
 33130  1  0  0  0
 34 35  1  0  0  0
 34131  1  0  0  0
 35 36  1  0  0  0
 35 37  2  0  0  0
 36132  1  0  0  0
 36133  1  0  0  0
 37134  1  0  0  0
 38 39  1  0  0  0
 38135  1  0  0  0
 39 40  1  0  0  0
 39136  1  0  0  0
 39137  1  0  0  0
 40 41  2  0  0  0
 40 42  1  0  0  0
 42 43  1  0  0  0
 42138  1  0  0  0
 43 44  1  0  0  0
 43 46  1  0  0  0
 43139  1  0  0  0
 44 45  2  0  0  0
 44 50  1  0  0  0
 46 47  1  0  0  0
 46140  1  0  0  0
 46141  1  0  0  0
 47 48  1  0  0  0
 47 49  1  0  0  0
 47142  1  0  0  0
 48143  1  0  0  0
 48144  1  0  0  0
 48145  1  0  0  0
 49146  1  0  0  0
 49147  1  0  0  0
 49148  1  0  0  0
 50 51  1  0  0  0
 50149  1  0  0  0
 51 52  1  0  0  0
 51 54  1  0  0  0
 51150  1  0  0  0
 52 53  2  0  0  0
 52 59  1  0  0  0
 54 55  1  0  0  0
 54151  1  0  0  0
 54152  1  0  0  0
 55 56  1  0  0  0
 55153  1  0  0  0
 55154  1  0  0  0
 56 57  1  0  0  0
 56 58  2  0  0  0
 57155  1  0  0  0
 59 60  1  0  0  0
 59156  1  0  0  0
 60 61  1  0  0  0
 60 63  1  0  0  0
 60157  1  0  0  0
 61 62  2  0  0  0
 61 67  1  0  0  0
 63 64  1  0  0  0
 63158  1  0  0  0
 63159  1  0  0  0
 64 65  2  0  0  0
 64 66  1  0  0  0
 66160  1  0  0  0
 66161  1  0  0  0
 67 68  1  0  0  0
 67162  1  0  0  0
 68 69  1  0  0  0
 68 71  1  0  0  0
 68163  1  0  0  0
 69 70  2  0  0  0
 69 77  1  0  0  0
 71 72  1  0  0  0
 71164  1  0  0  0
 71165  1  0  0  0
 72 73  2  0  0  0
 72 74  1  0  0  0
 73 75  1  0  0  0
 74 76  2  0  0  0
 74166  1  0  0  0
 75 76  1  0  0  0
 75167  1  0  0  0
 77 78  1  0  0  0
 77168  1  0  0  0
 78 79  1  0  0  0
 78 81  1  0  0  0
 78169  1  0  0  0
 79 80  2  0  0  0
 79 88  1  0  0  0
 81 82  1  0  0  0
 81170  1  0  0  0
 81171  1  0  0  0
 82 83  1  0  0  0
 82172  1  0  0  0
 82173  1  0  0  0
 83 84  1  0  0  0
 83174  1  0  0  0
 83175  1  0  0  0
 84 85  1  0  0  0
 84176  1  0  0  0
 85 86  1  0  0  0
 85 87  2  0  0  0
 86177  1  0  0  0
 86178  1  0  0  0
 87179  1  0  0  0
 88 89  1  0  0  0
 88180  1  0  0  0
 89 90  1  0  0  0
 89 92  1  0  0  0
 89181  1  0  0  0
 90 91  2  0  0  0
 90 96  1  0  0  0
 92 93  1  0  0  0
 92182  1  0  0  0
 92183  1  0  0  0
 93 94  1  0  0  0
 93184  1  0  0  0
 93185  1  0  0  0
 94 95  1  0  0  0
 95186  1  0  0  0
 95187  1  0  0  0
 95188  1  0  0  0
 96 97  1  0  0  0
 96189  1  0  0  0
 97 98  1  0  0  0
 97100  1  0  0  0
 97190  1  0  0  0
 98 99  2  0  0  0
 98102  1  0  0  0
100101  1  0  0  0
100191  1  0  0  0
100192  1  0  0  0
102193  1  0  0  0
M  CHG  1   1   1
M  END
> <s_m_source_file>
../2nwn_ligand.sdf

> <i_m_source_file_index>
1

> <s_epik_input>
W2NIXTFbY0hdW2NIXVtjSF1jKGMxMilbbkhdW2NIXWMyW0NIMl1bQ0BIXShbTkhdQyg9TylbQ0BIXShbQ0gyXVtPSF0pW05IXUMoPU8pW0NASF0zW05IMytdKUMoPU8pW05IXVtDQEBIXShbQ0gyXVtDSDJdW0NIMl1bTkhdL0MoW05IMl0pPU5cW0hdKUMoPU8pW05IXVtDSDJdQyg9TylbTkhdW0NAQEhdKFtDSDJdW0NIXShbQ0gzXSlbQ0gzXSlDKD1PKVtOSF1bQ0BASF0oW0NIMl1bQ0gyXUMoPU8pW09IXSlDKD1PKVtOSF1bQ0BASF0oW0NIMl1DKD1PKVtOSDJdKUMoPU8pW05IXVtDQEBIXShbQ0gyXUM0PU5bQ0gyXU49W0NIXTQpQyg9TylbTkhdW0NAQEhdKFtDSDJdW0NIMl1bQ0gyXVtOSF0vQyhbTkgyXSk9TlxbSF0pQyg9TylbTkhdW0NAQEhdKFtDSDJdW0NIMl1TW0NIM10pQyg9TylbTkhdW0NASF0oQyg9TylbT0hdKVtDSDJdU1NbQ0gyXTM=

> <s_epik_cmdline>
J2VwaWtfYXBwJywgJy1pbWFlJywgJ2xpZ2FuZF9wcm8ubWFlJywgJy1vbWFlJywgJ2xpZ2FuZF9wcmVwLm1hZScsICctbXMnLCAnMScsICctcGgnLCAnNycsICctcGh0JywgJzAuNScsICctbnQn

> <s_epik_pKa_notes>
Molecule size exceeds maximum supported for generating protonation states

> <s_epik_Chemistry_Notes>
This compound has an imine and may undergo hydrolysis.

$$$$
