2nww_ligand
                    3D
 Schrodinger Suite 2020-3.
 29 29  0  0  1  0            999 V2000
   13.1380    4.4620    5.0560 C   0  0  0  0  0  0
   14.5140    4.5240    4.8510 C   0  0  0  0  0  0
   15.3850    4.7700    5.9070 C   0  0  0  0  0  0
   14.8730    4.9600    7.1820 C   0  0  0  0  0  0
   13.4950    4.9050    7.3920 C   0  0  0  0  0  0
   12.6150    4.6500    6.3340 C   0  0  0  0  0  0
   11.2200    4.5950    6.5420 C   0  0  0  0  0  0
   10.4670    3.3340    6.5860 O   0  0  0  0  0  0
   10.9840    2.4540    7.6280 C   0  0  2  0  0  0
   11.1120    1.0270    7.1310 C   0  0  0  0  0  0
   12.3170    0.5650    7.1040 O   0  0  0  0  0  0
   10.0060    0.4000    6.7950 O   0  5  0  0  0  0
   10.1140    2.4080    8.8820 C   0  0  1  0  0  0
   10.7670    3.2760    9.9500 C   0  0  0  0  0  0
   11.3450    2.6760   10.8830 O   0  0  0  0  0  0
   10.6710    4.5170    9.8100 O   0  5  0  0  0  0
    8.7680    2.9010    8.5760 N   0  3  0  0  0  0
   12.4702    4.2665    4.2170 H   0  0  0  0  0  0
   14.9144    4.3775    3.8479 H   0  0  0  0  0  0
   16.4604    4.8131    5.7342 H   0  0  0  0  0  0
   15.5458    5.1518    8.0179 H   0  0  0  0  0  0
   13.0978    5.0629    8.3947 H   0  0  0  0  0  0
   10.9760    5.0489    7.5138 H   0  0  0  0  0  0
   10.7077    5.1473    5.7404 H   0  0  0  0  0  0
   11.9589    2.9132    7.8487 H   0  0  0  0  0  0
    9.9843    1.3769    9.2426 H   0  0  0  0  0  0
    8.3110    2.2642    7.8042 H   0  0  0  0  0  0
    8.8314    3.9355    8.2075 H   0  0  0  0  0  0
    8.1515    2.8732    9.4866 H   0  0  0  0  0  0
  1  2  2  0  0  0
  1  6  1  0  0  0
  1 18  1  0  0  0
  2  3  1  0  0  0
  2 19  1  0  0  0
  3  4  2  0  0  0
  3 20  1  0  0  0
  4  5  1  0  0  0
  4 21  1  0  0  0
  5  6  2  0  0  0
  5 22  1  0  0  0
  6  7  1  0  0  0
  7  8  1  0  0  0
  7 23  1  0  0  0
  7 24  1  0  0  0
  8  9  1  0  0  0
  9 10  1  0  0  0
  9 13  1  0  0  0
  9 25  1  0  0  0
 10 11  2  0  0  0
 10 12  1  0  0  0
 13 14  1  0  0  0
 13 17  1  0  0  0
 13 26  1  0  0  0
 14 15  2  0  0  0
 14 16  1  0  0  0
 17 27  1  0  0  0
 17 28  1  0  0  0
 17 29  1  0  0  0
M  CHG  3  12  -1  16  -1  17   1
M  END
> <s_m_source_file>
../2nww_ligand.sdf

> <i_m_source_file_index>
1

> <s_epik_input>
W2NIXTFbY0hdW2NIXVtjSF1bY0hdYzFbQ0gyXU9bQ0BIXShDKD1PKVtPSF0pW0NASF0oW05IMytdKUMoPU8pW09IXQ==

> <s_epik_cmdline>
J2VwaWtfYXBwJywgJy1pbWFlJywgJ2xpZ2FuZF9wcm8ubWFlJywgJy1vbWFlJywgJ2xpZ2FuZF9wcmVwLm1hZScsICctbXMnLCAnMScsICctcGgnLCAnNycsICctcGh0JywgJzAuNScsICctbnQn

> <r_epik_Ionization_Penalty>
  0.0127

> <r_epik_Ionization_Penalty_Charging>
  0.0127

> <r_epik_Ionization_Penalty_Neutral>
  0.0000

> <r_epik_State_Penalty>
  0.0098

> <r_epik_Charging_Adjusted_Penalty>
0.0224730340029531

> <i_epik_Tot_Q>
-1

> <i_epik_Tot_abs_Q>
3

$$$$
