2nxd_ligand
                    3D
 Schrodinger Suite 2020-3.
119120  0  0  1  0            999 V2000
   24.9430    7.0650   23.3730 N   0  3  0  0  0  0
   25.3620    5.6660   23.7080 C   0  0  2  0  0  0
   24.2660    4.6410   23.3940 C   0  0  0  0  0  0
   24.1610    3.6070   24.0670 O   0  0  0  0  0  0
   25.7640    5.5790   25.1830 C   0  0  0  0  0  0
   23.4520    4.9220   22.3760 N   0  0  0  0  0  0
   22.3340    4.0480   22.0290 C   0  0  2  0  0  0
   22.4400    3.5470   20.5890 C   0  0  0  0  0  0
   22.4910    4.3300   19.6440 O   0  0  0  0  0  0
   21.0220    4.7570   22.2570 C   0  0  0  0  0  0
   22.4820    2.2260   20.4500 N   0  0  0  0  0  0
   22.7530    1.5590   19.1830 C   0  0  2  0  0  0
   21.6390    0.5510   18.8670 C   0  0  0  0  0  0
   21.6170   -0.5580   19.4060 O   0  0  0  0  0  0
   24.1350    0.8610   19.2220 C   0  0  2  0  0  0
   25.2630    1.8990   19.1030 C   0  0  0  0  0  0
   24.2720   -0.1710   18.0920 C   0  0  0  0  0  0
   25.5050    2.7250   20.3470 C   0  0  0  0  0  0
   20.7210    0.9420   17.9860 N   0  0  0  0  0  0
   19.5730    0.1020   17.6410 C   0  0  2  0  0  0
   19.7680   -0.6490   16.3260 C   0  0  0  0  0  0
   19.0080   -0.5030   15.3740 O   0  0  0  0  0  0
   18.2850    0.9280   17.6610 C   0  0  0  0  0  0
   18.1100    1.6920   18.9400 C   0  0  0  0  0  0
   18.1820    3.0740   18.9560 C   0  0  0  0  0  0
   17.9730    1.0180   20.1410 C   0  0  0  0  0  0
   18.0640    3.7800   20.1420 C   0  0  0  0  0  0
   17.8640    1.7120   21.3360 C   0  0  0  0  0  0
   17.9120    3.0990   21.3390 C   0  0  0  0  0  0
   20.8240   -1.4530   16.2920 N   0  0  0  0  0  0
   20.8880   -2.6010   15.3940 C   0  0  2  0  0  0
   19.7730   -3.5840   15.7920 C   0  0  0  0  0  0
   19.4600   -3.7520   16.9790 O   0  0  0  0  0  0
   22.2850   -3.2400   15.4770 C   0  0  0  0  0  0
   22.3880   -4.6500   14.9380 C   0  0  0  0  0  0
   22.4930   -4.8860   13.5730 C   0  0  0  0  0  0
   22.3920   -5.7440   15.7960 C   0  0  0  0  0  0
   22.5790   -6.1720   13.0700 C   0  0  0  0  0  0
   22.4690   -7.0380   15.3020 C   0  0  0  0  0  0
   22.5700   -7.2470   13.9350 C   0  0  0  0  0  0
   22.6650   -8.5270   13.4240 O   0  0  0  0  0  0
   19.1430   -4.1910   14.7920 N   0  0  0  0  0  0
   18.1440   -5.2380   15.0220 C   0  0  2  0  0  0
   18.2780   -6.3390   13.9730 C   0  0  0  0  0  0
   18.1790   -6.0890   12.7690 O   0  0  0  0  0  0
   16.7220   -4.6600   15.0390 C   0  0  0  0  0  0
   15.6270   -5.2740   14.1520 C   0  0  0  0  0  0
   15.3070   -6.7270   14.4960 C   0  0  0  0  0  0
   14.3750   -4.4250   14.2810 C   0  0  0  0  0  0
   18.5410   -7.5490   14.4550 N   0  0  0  0  0  0
   18.5240   -8.7530   13.6320 C   0  0  2  0  0  0
   17.1840   -9.4650   13.8140 C   0  0  0  0  0  0
   16.9370  -10.1070   14.8400 O   0  0  0  0  0  0
   19.6790   -9.6790   14.0140 C   0  0  0  0  0  0
   16.3110   -9.3010   12.8250 N   0  0  0  0  0  0
   15.0680  -10.0520   12.7590 C   0  0  0  0  0  0
   15.2610  -11.4080   12.1080 C   0  0  0  0  0  0
   16.1560  -11.5800   11.2800 O   0  0  0  0  0  0
   14.4587  -12.4176   12.4334 O   0  5  0  0  0  0
   25.7601    7.7604   23.6153 H   0  0  0  0  0  0
   24.0500    7.3303   23.9580 H   0  0  0  0  0  0
   24.7113    7.1313   22.2997 H   0  0  0  0  0  0
   26.2270    5.4430   23.0661 H   0  0  0  0  0  0
   26.5500    6.3193   25.3931 H   0  0  0  0  0  0
   26.1432    4.5697   25.4007 H   0  0  0  0  0  0
   24.8875    5.7856   25.8147 H   0  0  0  0  0  0
   23.6376    5.8357   21.7923 H   0  0  0  0  0  0
   22.4037    3.1905   22.7145 H   0  0  0  0  0  0
   20.9706    5.1071   23.2985 H   0  0  0  0  0  0
   20.1913    4.0627   22.0621 H   0  0  0  0  0  0
   20.9475    5.6181   21.5766 H   0  0  0  0  0  0
   22.2986    1.6308   21.3567 H   0  0  0  0  0  0
   22.7553    2.3554   18.4242 H   0  0  0  0  0  0
   24.2224    0.3351   20.1842 H   0  0  0  0  0  0
   26.2097    1.3872   18.8754 H   0  0  0  0  0  0
   25.0258    2.6073   18.2955 H   0  0  0  0  0  0
   23.4659   -0.9148   18.1751 H   0  0  0  0  0  0
   25.2462   -0.6755   18.1723 H   0  0  0  0  0  0
   24.2020    0.3385   17.1196 H   0  0  0  0  0  0
   26.3258    3.4338   20.1626 H   0  0  0  0  0  0
   25.7746    2.0608   21.1814 H   0  0  0  0  0  0
   24.5906    3.2810   20.6016 H   0  0  0  0  0  0
   20.8435    1.9274   17.5127 H   0  0  0  0  0  0
   19.5272   -0.6604   18.4326 H   0  0  0  0  0  0
   18.3015    1.6530   16.8339 H   0  0  0  0  0  0
   17.4190    0.2597   17.5455 H   0  0  0  0  0  0
   18.3338    3.6148   18.0219 H   0  0  0  0  0  0
   17.9505   -0.0718   20.1473 H   0  0  0  0  0  0
   18.0907    4.8696   20.1335 H   0  0  0  0  0  0
   17.7407    1.1686   22.2728 H   0  0  0  0  0  0
   17.8307    3.6488   22.2766 H   0  0  0  0  0  0
   21.6656   -1.2340   16.9656 H   0  0  0  0  0  0
   20.7254   -2.2474   14.3652 H   0  0  0  0  0  0
   23.0001   -2.6342   14.9011 H   0  0  0  0  0  0
   22.6058   -3.2850   16.5282 H   0  0  0  0  0  0
   22.5079   -4.0411   12.8845 H   0  0  0  0  0  0
   22.3338   -5.5826   16.8724 H   0  0  0  0  0  0
   22.6536   -6.3353   11.9949 H   0  0  0  0  0  0
   22.4502   -7.8868   15.9855 H   0  0  0  0  0  0
   22.7447   -8.6811   12.3378 H   0  0  0  0  0  0
   19.3923   -3.8846   13.7654 H   0  0  0  0  0  0
   18.3716   -5.6507   16.0159 H   0  0  0  0  0  0
   16.3090   -4.7323   16.0559 H   0  0  0  0  0  0
   16.7513   -3.6049   14.7294 H   0  0  0  0  0  0
   15.9911   -5.2816   13.1140 H   0  0  0  0  0  0
   16.2183   -7.3357   14.4004 H   0  0  0  0  0  0
   14.5386   -7.1064   13.8063 H   0  0  0  0  0  0
   14.9337   -6.7855   15.5290 H   0  0  0  0  0  0
   14.6131   -3.3804   14.0318 H   0  0  0  0  0  0
   14.0000   -4.4793   15.3137 H   0  0  0  0  0  0
   13.6049   -4.8002   13.5910 H   0  0  0  0  0  0
   18.7795   -7.6186   15.5266 H   0  0  0  0  0  0
   18.6503   -8.4267   12.5891 H   0  0  0  0  0  0
   20.6337   -9.1501   13.8768 H   0  0  0  0  0  0
   19.6596  -10.5729   13.3732 H   0  0  0  0  0  0
   19.5747   -9.9802   15.0668 H   0  0  0  0  0  0
   16.5538   -8.5693   12.0404 H   0  0  0  0  0  0
   14.6807  -10.2101   13.7764 H   0  0  0  0  0  0
   14.3300   -9.4885   12.1692 H   0  0  0  0  0  0
  1  2  1  0  0  0
  1 60  1  0  0  0
  1 61  1  0  0  0
  1 62  1  0  0  0
  2  5  1  0  0  0
  2  3  1  0  0  0
  2 63  1  0  0  0
  3  4  2  0  0  0
  3  6  1  0  0  0
  5 64  1  0  0  0
  5 65  1  0  0  0
  5 66  1  0  0  0
  6  7  1  0  0  0
  6 67  1  0  0  0
  7 10  1  0  0  0
  7  8  1  0  0  0
  7 68  1  0  0  0
  8  9  2  0  0  0
  8 11  1  0  0  0
 10 69  1  0  0  0
 10 70  1  0  0  0
 10 71  1  0  0  0
 11 12  1  0  0  0
 11 72  1  0  0  0
 12 15  1  0  0  0
 12 13  1  0  0  0
 12 73  1  0  0  0
 13 14  2  0  0  0
 13 19  1  0  0  0
 15 17  1  0  0  0
 15 16  1  0  0  0
 15 74  1  0  0  0
 16 18  1  0  0  0
 16 75  1  0  0  0
 16 76  1  0  0  0
 17 77  1  0  0  0
 17 78  1  0  0  0
 17 79  1  0  0  0
 18 80  1  0  0  0
 18 81  1  0  0  0
 18 82  1  0  0  0
 19 20  1  0  0  0
 19 83  1  0  0  0
 20 23  1  0  0  0
 20 21  1  0  0  0
 20 84  1  0  0  0
 21 22  2  0  0  0
 21 30  1  0  0  0
 23 24  1  0  0  0
 23 85  1  0  0  0
 23 86  1  0  0  0
 24 25  2  0  0  0
 24 26  1  0  0  0
 25 27  1  0  0  0
 25 87  1  0  0  0
 26 28  2  0  0  0
 26 88  1  0  0  0
 27 29  2  0  0  0
 27 89  1  0  0  0
 28 29  1  0  0  0
 28 90  1  0  0  0
 29 91  1  0  0  0
 30 31  1  0  0  0
 30 92  1  0  0  0
 31 34  1  0  0  0
 31 32  1  0  0  0
 31 93  1  0  0  0
 32 33  2  0  0  0
 32 42  1  0  0  0
 34 35  1  0  0  0
 34 94  1  0  0  0
 34 95  1  0  0  0
 35 36  2  0  0  0
 35 37  1  0  0  0
 36 38  1  0  0  0
 36 96  1  0  0  0
 37 39  2  0  0  0
 37 97  1  0  0  0
 38 40  2  0  0  0
 38 98  1  0  0  0
 39 40  1  0  0  0
 39 99  1  0  0  0
 40 41  1  0  0  0
 41100  1  0  0  0
 42 43  1  0  0  0
 42101  1  0  0  0
 43 46  1  0  0  0
 43 44  1  0  0  0
 43102  1  0  0  0
 44 45  2  0  0  0
 44 50  1  0  0  0
 46 47  1  0  0  0
 46103  1  0  0  0
 46104  1  0  0  0
 47 48  1  0  0  0
 47 49  1  0  0  0
 47105  1  0  0  0
 48106  1  0  0  0
 48107  1  0  0  0
 48108  1  0  0  0
 49109  1  0  0  0
 49110  1  0  0  0
 49111  1  0  0  0
 50 51  1  0  0  0
 50112  1  0  0  0
 51 54  1  0  0  0
 51 52  1  0  0  0
 51113  1  0  0  0
 52 53  2  0  0  0
 52 55  1  0  0  0
 54114  1  0  0  0
 54115  1  0  0  0
 54116  1  0  0  0
 55 56  1  0  0  0
 55117  1  0  0  0
 56 57  1  0  0  0
 56118  1  0  0  0
 56119  1  0  0  0
 57 58  2  0  0  0
 57 59  1  0  0  0
M  CHG  2   1   1  59  -1
M  END
> <s_m_source_file>
../2nxd_ligand.sdf

> <i_m_source_file_index>
1

> <s_epik_input>
W05IMytdW0NAQEhdKFtDSDNdKUMoPU8pW05IXVtDQEBIXShbQ0gzXSlDKD1PKVtOSF1bQ0BASF0oW0NAQEhdKFtDSDNdKVtDSDJdW0NIM10pQyg9TylbTkhdW0NAQEhdKFtDSDJdYzFbY0hdW2NIXVtjSF1bY0hdW2NIXTEpQyg9TylbTkhdW0NAQEhdKFtDSDJdYzJbY0hdW2NIXWMoW09IXSlbY0hdW2NIXTIpQyg9TylbTkhdW0NAQEhdKFtDSDJdW0NIXShbQ0gzXSlbQ0gzXSlDKD1PKVtOSF1bQ0BASF0oW0NIM10pQyg9TylbTkhdW0NIMl1DKD1PKVtPSF0=

> <s_epik_cmdline>
J2VwaWtfYXBwJywgJy1pbWFlJywgJ2xpZ2FuZF9wcm8ubWFlJywgJy1vbWFlJywgJ2xpZ2FuZF9wcmVwLm1hZScsICctbXMnLCAnMScsICctcGgnLCAnNycsICctcGh0JywgJzAuNScsICctbnQn

> <r_lp_tautomer_probability>
0.999999999997365

> <r_epik_Ionization_Penalty>
  0.1250

> <r_epik_Ionization_Penalty_Charging>
  0.1241

> <r_epik_Ionization_Penalty_Neutral>
  0.0009

> <r_epik_State_Penalty>
  0.1134

> <r_epik_Charging_Adjusted_Penalty>
0.237537548478665

> <i_epik_Tot_Q>
0

> <i_epik_Tot_abs_Q>
2

$$$$
