2nxl_ligand
                    3D
 Schrodinger Suite 2020-3.
130131  0  0  1  0            999 V2000
   24.5170    6.2360   25.3690 N   0  3  0  0  0  0
   24.0140    6.3590   23.9650 C   0  0  2  0  0  0
   23.5250    5.0130   23.4430 C   0  0  0  0  0  0
   23.6770    3.9750   24.1030 O   0  0  0  0  0  0
   25.0770    6.9200   23.0630 C   0  0  0  0  0  0
   22.9010    5.0480   22.2700 N   0  0  0  0  0  0
   22.0810    3.9270   21.8420 C   0  0  2  0  0  0
   22.3220    3.5030   20.4000 C   0  0  0  0  0  0
   22.5270    4.3100   19.4930 O   0  0  0  0  0  0
   20.6060    4.2160   22.1060 C   0  0  0  0  0  0
   20.2590    4.1400   23.5840 C   0  0  0  0  0  0
   18.8180    4.5140   23.8970 C   0  0  0  0  0  0
   18.3550    5.5790   23.4300 O   0  0  0  0  0  0
   18.1530    3.7370   24.6210 O   0  5  0  0  0  0
   22.3190    2.1870   20.2420 N   0  0  0  0  0  0
   22.6080    1.5410   18.9870 C   0  0  2  0  0  0
   21.4830    0.5620   18.6720 C   0  0  0  0  0  0
   21.4470   -0.5420   19.2090 O   0  0  0  0  0  0
   23.9490    0.8290   19.0740 C   0  0  0  0  0  0
   24.2030   -0.0110   17.8180 C   0  0  0  0  0  0
   25.0490    1.8490   19.3470 C   0  0  0  0  0  0
   20.5720    0.9940   17.8030 N   0  0  0  0  0  0
   19.3910    0.2120   17.4620 C   0  0  2  0  0  0
   19.5660   -0.6850   16.2240 C   0  0  0  0  0  0
   18.7760   -0.6860   15.2750 O   0  0  0  0  0  0
   18.1850    1.1400   17.3740 C   0  0  0  0  0  0
   17.8790    1.8480   18.6710 C   0  0  0  0  0  0
   17.9690    3.2340   18.7700 C   0  0  0  0  0  0
   17.5020    1.1260   19.7930 C   0  0  0  0  0  0
   17.7030    3.8820   19.9820 C   0  0  0  0  0  0
   17.2180    1.7650   20.9930 C   0  0  0  0  0  0
   17.3060    3.1450   21.0920 C   0  0  0  0  0  0
   20.6370   -1.4690   16.2460 N   0  0  0  0  0  0
   20.7180   -2.6470   15.3820 C   0  0  2  0  0  0
   19.5310   -3.5990   15.6040 C   0  0  0  0  0  0
   19.1160   -3.8640   16.7340 O   0  0  0  0  0  0
   22.0540   -3.3470   15.6280 C   0  0  0  0  0  0
   22.2040   -4.7070   15.0000 C   0  0  0  0  0  0
   22.3300   -4.8610   13.6180 C   0  0  0  0  0  0
   22.2540   -5.8420   15.7940 C   0  0  0  0  0  0
   22.4690   -6.1210   13.0450 C   0  0  0  0  0  0
   22.4070   -7.0950   15.2290 C   0  0  0  0  0  0
   22.5150   -7.2350   13.8660 C   0  0  0  0  0  0
   22.6540   -8.5110   13.3550 O   0  0  0  0  0  0
   18.9790   -4.1080   14.5110 N   0  0  0  0  0  0
   17.9270   -5.1170   14.5770 C   0  0  2  0  0  0
   18.2040   -6.2500   13.5810 C   0  0  0  0  0  0
   18.2830   -6.0760   12.3680 O   0  0  0  0  0  0
   16.5260   -4.5150   14.3670 C   0  0  0  0  0  0
   15.4590   -5.5970   14.3390 C   0  0  0  0  0  0
   16.2210   -3.4980   15.4620 C   0  0  0  0  0  0
   18.3570   -7.4320   14.1600 N   0  0  0  0  0  0
   18.6210   -8.6760   13.4500 C   0  0  2  0  0  0
   17.2870   -9.4030   13.2930 C   0  0  0  0  0  0
   16.7360   -9.9420   14.2510 O   0  0  0  0  0  0
   19.5750   -9.5140   14.3100 C   0  0  0  0  0  0
   19.7530  -10.9340   13.8110 C   0  0  0  0  0  0
   19.1420  -11.3070   12.7850 O   0  0  0  0  0  0
   20.5080  -11.6750   14.4800 O   0  5  0  0  0  0
   16.7920   -9.4530   12.0660 N   0  0  0  0  0  0
   15.4970  -10.0580   11.7840 C   0  0  0  0  0  0
   15.3780  -11.5680   11.8690 C   0  0  0  0  0  0
   14.2790  -12.0860   11.6730 O   0  0  0  0  0  0
   16.4620  -12.2900   12.1520 N   0  0  0  0  0  0
   16.3630  -13.7410   12.3460 C   0  0  2  0  0  0
   15.5720  -14.0310   13.6190 C   0  0  0  0  0  0
   15.7050  -13.3260   14.6320 O   0  5  0  0  0  0
   17.7370  -14.3890   12.4180 C   0  0  0  0  0  0
   14.7600  -14.9560   13.6260 O   0  0  0  0  0  0
   23.7224    5.8240   26.0084 H   0  0  0  0  0  0
   24.8100    7.2286   25.7418 H   0  0  0  0  0  0
   25.3884    5.5650   25.3888 H   0  0  0  0  0  0
   23.1731    7.0680   23.9806 H   0  0  0  0  0  0
   25.4167    7.8898   23.4556 H   0  0  0  0  0  0
   24.6652    7.0575   22.0523 H   0  0  0  0  0  0
   25.9272    6.2233   23.0209 H   0  0  0  0  0  0
   23.0074    5.9306   21.6222 H   0  0  0  0  0  0
   22.4297    3.0966   22.4736 H   0  0  0  0  0  0
   20.3612    5.2277   21.7502 H   0  0  0  0  0  0
   19.9869    3.4798   21.5724 H   0  0  0  0  0  0
   20.4152    3.1127   23.9449 H   0  0  0  0  0  0
   20.9048    4.8290   24.1482 H   0  0  0  0  0  0
   22.0807    1.5826   21.1297 H   0  0  0  0  0  0
   22.6627    2.3246   18.2169 H   0  0  0  0  0  0
   23.9387    0.1247   19.9189 H   0  0  0  0  0  0
   23.3761   -0.7231   17.6798 H   0  0  0  0  0  0
   25.1475   -0.5633   17.9311 H   0  0  0  0  0  0
   24.2677    0.6504   16.9415 H   0  0  0  0  0  0
   24.8058    2.4155   20.2580 H   0  0  0  0  0  0
   25.1274    2.5405   18.4951 H   0  0  0  0  0  0
   26.0073    1.3268   19.4848 H   0  0  0  0  0  0
   20.7340    1.9772   17.3371 H   0  0  0  0  0  0
   19.2627   -0.4834   18.3046 H   0  0  0  0  0  0
   18.3707    1.9113   16.6120 H   0  0  0  0  0  0
   17.2938    0.5578   17.0968 H   0  0  0  0  0  0
   18.2494    3.8203   17.8949 H   0  0  0  0  0  0
   17.4274    0.0402   19.7324 H   0  0  0  0  0  0
   17.8071    4.9645   20.0555 H   0  0  0  0  0  0
   16.9239    1.1775   21.8628 H   0  0  0  0  0  0
   17.0666    3.6466   22.0296 H   0  0  0  0  0  0
   21.4690   -1.2252   16.9230 H   0  0  0  0  0  0
   20.6652   -2.2786   14.3469 H   0  0  0  0  0  0
   22.8708   -2.7299   15.2255 H   0  0  0  0  0  0
   22.2001   -3.4889   16.7090 H   0  0  0  0  0  0
   22.3193   -3.9792   12.9774 H   0  0  0  0  0  0
   22.1718   -5.7459   16.8766 H   0  0  0  0  0  0
   22.5408   -6.2300   11.9628 H   0  0  0  0  0  0
   22.4422   -7.9769   15.8686 H   0  0  0  0  0  0
   22.7432   -8.6619   12.2691 H   0  0  0  0  0  0
   19.3358   -3.7485   13.5346 H   0  0  0  0  0  0
   17.9852   -5.5034   15.6053 H   0  0  0  0  0  0
   16.5039   -4.0058   13.3922 H   0  0  0  0  0  0
   15.6926   -6.3219   13.5453 H   0  0  0  0  0  0
   14.4783   -5.1398   14.1410 H   0  0  0  0  0  0
   15.4339   -6.1124   15.3105 H   0  0  0  0  0  0
   17.0010   -2.7224   15.4696 H   0  0  0  0  0  0
   16.1988   -4.0054   16.4377 H   0  0  0  0  0  0
   15.2432   -3.0328   15.2683 H   0  0  0  0  0  0
   18.2714   -7.4321   15.2567 H   0  0  0  0  0  0
   19.0678   -8.4533   12.4698 H   0  0  0  0  0  0
   20.5688   -9.0427   14.3206 H   0  0  0  0  0  0
   19.1863   -9.5733   15.3373 H   0  0  0  0  0  0
   17.3873   -9.0214   11.2479 H   0  0  0  0  0  0
   14.7503   -9.6739   12.4946 H   0  0  0  0  0  0
   15.1903   -9.8063   10.7581 H   0  0  0  0  0  0
   17.4372  -11.7886   12.2398 H   0  0  0  0  0  0
   15.8394  -14.1348   11.4624 H   0  0  0  0  0  0
   18.2939  -14.1712   11.4947 H   0  0  0  0  0  0
   17.6237  -15.4774   12.5298 H   0  0  0  0  0  0
   18.2872  -13.9870   13.2816 H   0  0  0  0  0  0
  1  2  1  0  0  0
  1 70  1  0  0  0
  1 71  1  0  0  0
  1 72  1  0  0  0
  2  3  1  0  0  0
  2  5  1  0  0  0
  2 73  1  0  0  0
  3  4  2  0  0  0
  3  6  1  0  0  0
  5 74  1  0  0  0
  5 75  1  0  0  0
  5 76  1  0  0  0
  6  7  1  0  0  0
  6 77  1  0  0  0
  7  8  1  0  0  0
  7 10  1  0  0  0
  7 78  1  0  0  0
  8  9  2  0  0  0
  8 15  1  0  0  0
 10 11  1  0  0  0
 10 79  1  0  0  0
 10 80  1  0  0  0
 11 12  1  0  0  0
 11 81  1  0  0  0
 11 82  1  0  0  0
 12 13  2  0  0  0
 12 14  1  0  0  0
 15 16  1  0  0  0
 15 83  1  0  0  0
 16 17  1  0  0  0
 16 19  1  0  0  0
 16 84  1  0  0  0
 17 18  2  0  0  0
 17 22  1  0  0  0
 19 20  1  0  0  0
 19 21  1  0  0  0
 19 85  1  0  0  0
 20 86  1  0  0  0
 20 87  1  0  0  0
 20 88  1  0  0  0
 21 89  1  0  0  0
 21 90  1  0  0  0
 21 91  1  0  0  0
 22 23  1  0  0  0
 22 92  1  0  0  0
 23 24  1  0  0  0
 23 26  1  0  0  0
 23 93  1  0  0  0
 24 25  2  0  0  0
 24 33  1  0  0  0
 26 27  1  0  0  0
 26 94  1  0  0  0
 26 95  1  0  0  0
 27 28  2  0  0  0
 27 29  1  0  0  0
 28 30  1  0  0  0
 28 96  1  0  0  0
 29 31  2  0  0  0
 29 97  1  0  0  0
 30 32  2  0  0  0
 30 98  1  0  0  0
 31 32  1  0  0  0
 31 99  1  0  0  0
 32100  1  0  0  0
 33 34  1  0  0  0
 33101  1  0  0  0
 34 35  1  0  0  0
 34 37  1  0  0  0
 34102  1  0  0  0
 35 36  2  0  0  0
 35 45  1  0  0  0
 37 38  1  0  0  0
 37103  1  0  0  0
 37104  1  0  0  0
 38 39  2  0  0  0
 38 40  1  0  0  0
 39 41  1  0  0  0
 39105  1  0  0  0
 40 42  2  0  0  0
 40106  1  0  0  0
 41 43  2  0  0  0
 41107  1  0  0  0
 42 43  1  0  0  0
 42108  1  0  0  0
 43 44  1  0  0  0
 44109  1  0  0  0
 45 46  1  0  0  0
 45110  1  0  0  0
 46 47  1  0  0  0
 46 49  1  0  0  0
 46111  1  0  0  0
 47 48  2  0  0  0
 47 52  1  0  0  0
 49 50  1  0  0  0
 49 51  1  0  0  0
 49112  1  0  0  0
 50113  1  0  0  0
 50114  1  0  0  0
 50115  1  0  0  0
 51116  1  0  0  0
 51117  1  0  0  0
 51118  1  0  0  0
 52 53  1  0  0  0
 52119  1  0  0  0
 53 54  1  0  0  0
 53 56  1  0  0  0
 53120  1  0  0  0
 54 55  2  0  0  0
 54 60  1  0  0  0
 56 57  1  0  0  0
 56121  1  0  0  0
 56122  1  0  0  0
 57 58  2  0  0  0
 57 59  1  0  0  0
 60 61  1  0  0  0
 60123  1  0  0  0
 61 62  1  0  0  0
 61124  1  0  0  0
 61125  1  0  0  0
 62 63  2  0  0  0
 62 64  1  0  0  0
 64 65  1  0  0  0
 64126  1  0  0  0
 65 66  1  0  0  0
 65 68  1  0  0  0
 65127  1  0  0  0
 66 67  1  0  0  0
 66 69  2  0  0  0
 68128  1  0  0  0
 68129  1  0  0  0
 68130  1  0  0  0
M  CHG  4   1   1  14  -1  59  -1  67  -1
M  END
> <s_m_source_file>
../2nxl_ligand.sdf

> <i_m_source_file_index>
1

> <s_epik_input>
W05IMytdW0NAQEhdKFtDSDNdKUMoPU8pW05IXVtDQEBIXShbQ0gyXVtDSDJdQyg9TylbT0hdKUMoPU8pW05IXVtDQEBIXShbQ0hdKFtDSDNdKVtDSDNdKUMoPU8pW05IXVtDQEBIXShbQ0gyXWMxW2NIXVtjSF1bY0hdW2NIXVtjSF0xKUMoPU8pW05IXVtDQEBIXShbQ0gyXWMyW2NIXVtjSF1jKFtPSF0pW2NIXVtjSF0yKUMoPU8pW05IXVtDQEBIXShbQ0hdKFtDSDNdKVtDSDNdKUMoPU8pW05IXVtDQEBIXShbQ0gyXUMoPU8pW09IXSlDKD1PKVtOSF1bQ0gyXUMoPU8pW05IXVtDQEBIXShbQ0gzXSlDKD1PKVtPSF0=

> <s_epik_cmdline>
J2VwaWtfYXBwJywgJy1pbWFlJywgJ2xpZ2FuZF9wcm8ubWFlJywgJy1vbWFlJywgJ2xpZ2FuZF9wcmVwLm1hZScsICctbXMnLCAnMScsICctcGgnLCAnNycsICctcGh0JywgJzAuNScsICctbnQn

> <r_lp_tautomer_probability>
0.999999999997365

> <r_epik_Ionization_Penalty>
  0.1222

> <r_epik_Ionization_Penalty_Charging>
  0.1213

> <r_epik_Ionization_Penalty_Neutral>
  0.0009

> <r_epik_State_Penalty>
  0.1077

> <r_epik_Charging_Adjusted_Penalty>
0.228951907150849

> <i_epik_Tot_Q>
-2

> <i_epik_Tot_abs_Q>
4

$$$$
