2nxm_ligand
                    3D
 Schrodinger Suite 2020-3.
120121  0  0  1  0            999 V2000
    0.0580    5.8630    5.8340 N   0  3  0  0  0  0
    0.9860    6.2260    6.9530 C   0  0  2  0  0  0
    1.8180    5.0310    7.4290 C   0  0  0  0  0  0
    1.8160    3.9720    6.7840 O   0  0  0  0  0  0
    0.2030    6.8310    8.0970 C   0  0  0  0  0  0
    2.5390    5.1970    8.5370 N   0  0  0  0  0  0
    3.4970    4.1670    8.9570 C   0  0  2  0  0  0
    3.3840    3.7050   10.4200 C   0  0  0  0  0  0
    3.2580    4.5030   11.3510 O   0  0  0  0  0  0
    4.9370    4.5620    8.6040 C   0  0  0  0  0  0
    5.2260    4.7850    7.1250 C   0  0  0  0  0  0
    5.3610    3.4910    6.3360 C   0  0  0  0  0  0
    5.8790    2.4900    6.8340 O   0  0  0  0  0  0
    4.9180    3.5170    5.0800 N   0  0  0  0  0  0
    3.4710    2.3890   10.5920 N   0  0  0  0  0  0
    2.9660    1.7080   11.7790 C   0  0  2  0  0  0
    3.9720    0.6410   12.2570 C   0  0  0  0  0  0
    4.0030   -0.4760   11.7430 O   0  0  0  0  0  0
    1.5660    1.1330   11.4640 C   0  0  2  0  0  0
    0.7690    2.1570   10.8510 O   0  0  0  0  0  0
    0.8650    0.6550   12.7160 C   0  0  0  0  0  0
    4.8270    1.0110   13.2080 N   0  0  0  0  0  0
    6.0270    0.2240   13.5100 C   0  0  2  0  0  0
    5.8740   -0.6410   14.7610 C   0  0  0  0  0  0
    6.7350   -0.7050   15.6530 O   0  0  0  0  0  0
    7.2770    1.1090   13.5490 C   0  0  0  0  0  0
    7.4270    1.9940   12.3400 C   0  0  0  0  0  0
    7.1130    3.3520   12.4110 C   0  0  0  0  0  0
    7.8630    1.4710   11.1250 C   0  0  0  0  0  0
    7.2250    4.1740   11.2940 C   0  0  0  0  0  0
    7.9940    2.2920   10.0110 C   0  0  0  0  0  0
    7.6740    3.6460   10.0920 C   0  0  0  0  0  0
    4.7480   -1.3350   14.8000 N   0  0  0  0  0  0
    4.6170   -2.4830   15.6700 C   0  0  2  0  0  0
    5.7550   -3.4780   15.4040 C   0  0  0  0  0  0
    6.0270   -3.8690   14.2600 O   0  0  0  0  0  0
    3.2410   -3.1160   15.4720 C   0  0  0  0  0  0
    3.1090   -4.4770   16.0940 C   0  0  0  0  0  0
    2.9930   -4.6170   17.4690 C   0  0  0  0  0  0
    3.1190   -5.6220   15.3100 C   0  0  0  0  0  0
    2.8780   -5.8600   18.0470 C   0  0  0  0  0  0
    3.0180   -6.8810   15.8840 C   0  0  0  0  0  0
    2.8920   -6.9850   17.2540 C   0  0  0  0  0  0
    2.7640   -8.2160   17.8420 O   0  0  0  0  0  0
    6.4560   -3.8370   16.4710 N   0  0  0  0  0  0
    7.4680   -4.8860   16.3980 C   0  0  2  0  0  0
    7.1240   -5.9850   17.3860 C   0  0  0  0  0  0
    6.9410   -5.7520   18.5920 O   0  0  0  0  0  0
    8.9200   -4.3680   16.6010 C   0  0  0  0  0  0
    9.8660   -5.5080   16.9800 C   0  0  0  0  0  0
    9.4160   -3.6500   15.3430 C   0  0  0  0  0  0
    7.0260   -7.1870   16.8330 N   0  0  0  0  0  0
    6.7400   -8.3850   17.5950 C   0  0  2  0  0  0
    8.0220   -9.2260   17.6540 C   0  0  0  0  0  0
    8.4760   -9.7720   16.6410 O   0  0  0  0  0  0
    5.5520   -9.1100   16.9510 C   0  0  0  0  0  0
    5.5350  -10.6010   17.2270 C   0  0  0  0  0  0
    5.9980  -11.0200   18.3120 O   0  0  0  0  0  0
    5.0420  -11.3470   16.3480 O   0  5  0  0  0  0
    8.5840   -9.3190   18.8600 N   0  0  0  0  0  0
    9.9140   -9.8770   19.0730 C   0  0  0  0  0  0
    9.9080  -11.2750   19.6600 C   0  0  0  0  0  0
   10.9510  -11.7880   20.0830 O   0  0  0  0  0  0
    8.7681  -11.9575   19.7208 O   0  5  0  0  0  0
   -0.5144    6.7516    5.5295 H   0  0  0  0  0  0
   -0.6350    5.0785    6.1722 H   0  0  0  0  0  0
    0.6422    5.4924    4.9788 H   0  0  0  0  0  0
    1.6817    6.9802    6.5565 H   0  0  0  0  0  0
   -0.3841    7.6850    7.7283 H   0  0  0  0  0  0
    0.8990    7.1738    8.8768 H   0  0  0  0  0  0
   -0.4752    6.0741    8.5178 H   0  0  0  0  0  0
    2.4144    6.1100    9.1378 H   0  0  0  0  0  0
    3.1699    3.3133    8.3453 H   0  0  0  0  0  0
    5.1933    5.5044    9.1102 H   0  0  0  0  0  0
    5.6257    3.7699    8.9332 H   0  0  0  0  0  0
    4.4061    5.3636    6.6744 H   0  0  0  0  0  0
    6.1696    5.3396    7.0153 H   0  0  0  0  0  0
    4.4620    4.4331    4.6765 H   0  0  0  0  0  0
    5.0082    2.6224    4.4463 H   0  0  0  0  0  0
    3.9498    1.8107    9.7881 H   0  0  0  0  0  0
    2.8793    2.4584   12.5786 H   0  0  0  0  0  0
    1.6391    0.2971   10.7527 H   0  0  0  0  0  0
    1.1096    2.6365    9.9214 H   0  0  0  0  0  0
    1.4667   -0.1311   13.1957 H   0  0  0  0  0  0
   -0.1230    0.2503   12.4512 H   0  0  0  0  0  0
    0.7415    1.4981   13.4116 H   0  0  0  0  0  0
    4.6161    1.9310   13.7729 H   0  0  0  0  0  0
    6.1155   -0.4696   12.6608 H   0  0  0  0  0  0
    7.2354    1.7636   14.4320 H   0  0  0  0  0  0
    8.1739    0.4746   13.6049 H   0  0  0  0  0  0
    6.7746    3.7754   13.3567 H   0  0  0  0  0  0
    8.1031    0.4106   11.0471 H   0  0  0  0  0  0
    6.9609    5.2293   11.3630 H   0  0  0  0  0  0
    8.3490    1.8745    9.0688 H   0  0  0  0  0  0
    7.7759    4.2866    9.2160 H   0  0  0  0  0  0
    3.9060   -1.0301   14.1611 H   0  0  0  0  0  0
    4.6998   -2.1116   16.7021 H   0  0  0  0  0  0
    2.4727   -2.4723   15.9251 H   0  0  0  0  0  0
    3.0393   -3.2260   14.3963 H   0  0  0  0  0  0
    2.9930   -3.7289   18.1010 H   0  0  0  0  0  0
    3.2075   -5.5309   14.2274 H   0  0  0  0  0  0
    2.7762   -5.9536   19.1282 H   0  0  0  0  0  0
    3.0379   -7.7754   15.2614 H   0  0  0  0  0  0
    2.6637   -8.2959   18.9345 H   0  0  0  0  0  0
    6.2614   -3.3260   17.4254 H   0  0  0  0  0  0
    7.3899   -5.2670   15.3690 H   0  0  0  0  0  0
    8.9277   -3.6466   17.4314 H   0  0  0  0  0  0
    9.4918   -6.0096   17.8847 H   0  0  0  0  0  0
   10.8698   -5.1022   17.1743 H   0  0  0  0  0  0
    9.9169   -6.2323   16.1537 H   0  0  0  0  0  0
    8.7224   -2.8351   15.0884 H   0  0  0  0  0  0
    9.4646   -4.3645   14.5081 H   0  0  0  0  0  0
   10.4174   -3.2345   15.5288 H   0  0  0  0  0  0
    7.1729   -7.2494   15.7446 H   0  0  0  0  0  0
    6.4512   -8.1053   18.6189 H   0  0  0  0  0  0
    4.6122   -8.6913   17.3402 H   0  0  0  0  0  0
    5.5887   -8.9765   15.8598 H   0  0  0  0  0  0
    7.9982   -8.9517   19.7155 H   0  0  0  0  0  0
   10.4475   -9.9300   18.1125 H   0  0  0  0  0  0
   10.4740   -9.2347   19.7686 H   0  0  0  0  0  0
  1  2  1  0  0  0
  1 65  1  0  0  0
  1 66  1  0  0  0
  1 67  1  0  0  0
  2  5  1  0  0  0
  2  3  1  0  0  0
  2 68  1  0  0  0
  3  4  2  0  0  0
  3  6  1  0  0  0
  5 69  1  0  0  0
  5 70  1  0  0  0
  5 71  1  0  0  0
  6  7  1  0  0  0
  6 72  1  0  0  0
  7 10  1  0  0  0
  7  8  1  0  0  0
  7 73  1  0  0  0
  8  9  2  0  0  0
  8 15  1  0  0  0
 10 11  1  0  0  0
 10 74  1  0  0  0
 10 75  1  0  0  0
 11 12  1  0  0  0
 11 76  1  0  0  0
 11 77  1  0  0  0
 12 14  1  0  0  0
 12 13  2  0  0  0
 14 78  1  0  0  0
 14 79  1  0  0  0
 15 16  1  0  0  0
 15 80  1  0  0  0
 16 19  1  0  0  0
 16 17  1  0  0  0
 16 81  1  0  0  0
 17 18  2  0  0  0
 17 22  1  0  0  0
 19 21  1  0  0  0
 19 20  1  0  0  0
 19 82  1  0  0  0
 20 83  1  0  0  0
 21 84  1  0  0  0
 21 85  1  0  0  0
 21 86  1  0  0  0
 22 23  1  0  0  0
 22 87  1  0  0  0
 23 26  1  0  0  0
 23 24  1  0  0  0
 23 88  1  0  0  0
 24 25  2  0  0  0
 24 33  1  0  0  0
 26 27  1  0  0  0
 26 89  1  0  0  0
 26 90  1  0  0  0
 27 28  2  0  0  0
 27 29  1  0  0  0
 28 30  1  0  0  0
 28 91  1  0  0  0
 29 31  2  0  0  0
 29 92  1  0  0  0
 30 32  2  0  0  0
 30 93  1  0  0  0
 31 32  1  0  0  0
 31 94  1  0  0  0
 32 95  1  0  0  0
 33 34  1  0  0  0
 33 96  1  0  0  0
 34 37  1  0  0  0
 34 35  1  0  0  0
 34 97  1  0  0  0
 35 36  2  0  0  0
 35 45  1  0  0  0
 37 38  1  0  0  0
 37 98  1  0  0  0
 37 99  1  0  0  0
 38 39  2  0  0  0
 38 40  1  0  0  0
 39 41  1  0  0  0
 39100  1  0  0  0
 40 42  2  0  0  0
 40101  1  0  0  0
 41 43  2  0  0  0
 41102  1  0  0  0
 42 43  1  0  0  0
 42103  1  0  0  0
 43 44  1  0  0  0
 44104  1  0  0  0
 45 46  1  0  0  0
 45105  1  0  0  0
 46 49  1  0  0  0
 46 47  1  0  0  0
 46106  1  0  0  0
 47 48  2  0  0  0
 47 52  1  0  0  0
 49 51  1  0  0  0
 49 50  1  0  0  0
 49107  1  0  0  0
 50108  1  0  0  0
 50109  1  0  0  0
 50110  1  0  0  0
 51111  1  0  0  0
 51112  1  0  0  0
 51113  1  0  0  0
 52 53  1  0  0  0
 52114  1  0  0  0
 53 56  1  0  0  0
 53 54  1  0  0  0
 53115  1  0  0  0
 54 55  2  0  0  0
 54 60  1  0  0  0
 56 57  1  0  0  0
 56116  1  0  0  0
 56117  1  0  0  0
 57 58  2  0  0  0
 57 59  1  0  0  0
 60 61  1  0  0  0
 60118  1  0  0  0
 61 62  1  0  0  0
 61119  1  0  0  0
 61120  1  0  0  0
 62 63  2  0  0  0
 62 64  1  0  0  0
M  CHG  3   1   1  59  -1  64  -1
M  END
> <s_m_source_file>
../2nxm_ligand.sdf

> <i_m_source_file_index>
1

> <s_epik_input>
W05IMytdW0NAQEhdKFtDSDNdKUMoPU8pW05IXVtDQEBIXShbQ0gyXVtDSDJdQyg9TylbTkgyXSlDKD1PKVtOSF1bQ0BASF0oW0NASF0oW09IXSlbQ0gzXSlDKD1PKVtOSF1bQ0BASF0oW0NIMl1jMVtjSF1bY0hdW2NIXVtjSF1bY0hdMSlDKD1PKVtOSF1bQ0BASF0oW0NIMl1jMltjSF1bY0hdYyhbT0hdKVtjSF1bY0hdMilDKD1PKVtOSF1bQ0BASF0oW0NIXShbQ0gzXSlbQ0gzXSlDKD1PKVtOSF1bQ0BASF0oW0NIMl1DKD1PKVtPSF0pQyg9TylbTkhdW0NIMl1DKD1PKVtPSF0=

> <s_epik_cmdline>
J2VwaWtfYXBwJywgJy1pbWFlJywgJ2xpZ2FuZF9wcm8ubWFlJywgJy1vbWFlJywgJ2xpZ2FuZF9wcmVwLm1hZScsICctbXMnLCAnMScsICctcGgnLCAnNycsICctcGh0JywgJzAuNScsICctbnQn

> <r_lp_tautomer_probability>
0.999999999997365

> <r_epik_Ionization_Penalty>
  0.1310

> <r_epik_Ionization_Penalty_Charging>
  0.1302

> <r_epik_Ionization_Penalty_Neutral>
  0.0009

> <r_epik_State_Penalty>
  0.1176

> <r_epik_Charging_Adjusted_Penalty>
0.247755704581784

> <i_epik_Tot_Q>
-1

> <i_epik_Tot_abs_Q>
3

$$$$
