2o0u_ligand
                    3D
 Schrodinger Suite 2020-3.
 63 67  0  0  1  0            999 V2000
   23.1320    5.8960   31.0130 C   0  0  0  0  0  0
   22.7290    7.2980   31.3720 C   0  0  0  0  0  0
   26.9170    7.6100   28.7840 O   0  0  0  0  0  0
   26.2720    6.7640   29.4180 C   0  0  0  0  0  0
   26.9050    5.4460   29.9010 C   0  0  0  0  0  0
   27.9020    4.7870   28.9260 C   0  0  0  0  0  0
   29.0540    5.6690   28.6640 N   0  3  0  0  0  0
   30.0040    5.6230   29.7790 C   0  0  0  0  0  0
   31.0200    6.7470   29.5550 C   0  0  0  0  0  0
   31.7720    6.5450   28.2390 C   0  0  0  0  0  0
   30.8060    6.2910   27.0860 C   0  0  0  0  0  0
   29.7560    5.2330   27.4470 C   0  0  0  0  0  0
   24.9730    7.0110   29.7470 N   0  0  0  0  0  0
   23.9830    5.9310   29.7560 C   0  0  0  0  0  0
   24.5080    8.4170   29.8190 C   0  0  0  0  0  0
   23.4280    8.4700   30.8530 C   0  0  0  0  0  0
   22.8060    9.9570   31.4690 S   0  0  0  0  0  0
   21.6010    9.2120   32.4550 C   0  0  0  0  0  0
   21.7170    7.7510   32.3210 C   0  0  0  0  0  0
   21.0360    6.7750   32.9210 C   0  0  0  0  0  0
   20.4350    5.9530   33.4280 N   0  0  0  0  0  0
   20.7650    9.8310   33.2420 N   0  0  0  0  0  0
   20.7620   11.1620   33.4910 C   0  0  0  0  0  0
   21.3590   11.9900   32.8530 O   0  0  0  0  0  0
   19.8590   11.5170   34.6210 C   0  0  0  0  0  0
   19.8730   10.7560   35.8050 C   0  0  0  0  0  0
   18.9850   11.0330   36.8340 C   0  0  0  0  0  0
   18.0390   12.0350   36.7230 C   0  0  0  0  0  0
   18.8550   12.5920   34.4440 C   0  0  0  0  0  0
   18.7720   13.3800   33.2940 C   0  0  0  0  0  0
   17.8200   14.3740   33.2360 C   0  0  0  0  0  0
   16.9190   14.5980   34.3000 C   0  0  0  0  0  0
   16.9890   13.8410   35.4610 C   0  0  0  0  0  0
   17.9300   12.8170   35.5700 C   0  0  0  0  0  0
   23.7103    5.4577   31.8397 H   0  0  0  0  0  0
   22.2315    5.2901   30.8339 H   0  0  0  0  0  0
   27.4590    5.6257   30.8342 H   0  0  0  0  0  0
   26.1136    4.7037   30.0816 H   0  0  0  0  0  0
   28.2720    3.8464   29.3601 H   0  0  0  0  0  0
   27.3970    4.5768   27.9716 H   0  0  0  0  0  0
   28.6777    6.6956   28.5436 H   0  0  0  0  0  0
   29.4650    5.7717   30.7263 H   0  0  0  0  0  0
   30.5063    4.6445   29.7927 H   0  0  0  0  0  0
   30.4957    7.7133   29.5190 H   0  0  0  0  0  0
   31.7465    6.7546   30.3809 H   0  0  0  0  0  0
   32.3613    7.4455   28.0115 H   0  0  0  0  0  0
   32.4451    5.6798   28.3303 H   0  0  0  0  0  0
   30.2830    7.2251   26.8333 H   0  0  0  0  0  0
   31.3671    5.9362   26.2089 H   0  0  0  0  0  0
   30.2459    4.2658   27.6329 H   0  0  0  0  0  0
   29.0329    5.1258   26.6251 H   0  0  0  0  0  0
   24.5313    4.9824   29.6579 H   0  0  0  0  0  0
   23.3351    6.0725   28.8784 H   0  0  0  0  0  0
   25.3488    9.0672   30.1024 H   0  0  0  0  0  0
   24.1205    8.7258   28.8369 H   0  0  0  0  0  0
   19.9817    9.2646   33.7670 H   0  0  0  0  0  0
   20.5886    9.9411   35.9144 H   0  0  0  0  0  0
   19.0342   10.4469   37.7517 H   0  0  0  0  0  0
   17.3608   12.2198   37.5561 H   0  0  0  0  0  0
   19.4490   13.2114   32.4565 H   0  0  0  0  0  0
   17.7608   15.0027   32.3475 H   0  0  0  0  0  0
   16.1596   15.3746   34.2083 H   0  0  0  0  0  0
   16.3088   14.0465   36.2876 H   0  0  0  0  0  0
  1  2  1  0  0  0
  1 14  1  0  0  0
  1 35  1  0  0  0
  1 36  1  0  0  0
  2 16  2  0  0  0
  2 19  1  0  0  0
  3  4  2  0  0  0
  4  5  1  0  0  0
  4 13  1  0  0  0
  5  6  1  0  0  0
  5 37  1  0  0  0
  5 38  1  0  0  0
  6  7  1  0  0  0
  6 39  1  0  0  0
  6 40  1  0  0  0
  7  8  1  0  0  0
  7 12  1  0  0  0
  7 41  1  0  0  0
  8  9  1  0  0  0
  8 42  1  0  0  0
  8 43  1  0  0  0
  9 10  1  0  0  0
  9 44  1  0  0  0
  9 45  1  0  0  0
 10 11  1  0  0  0
 10 46  1  0  0  0
 10 47  1  0  0  0
 11 12  1  0  0  0
 11 48  1  0  0  0
 11 49  1  0  0  0
 12 50  1  0  0  0
 12 51  1  0  0  0
 13 14  1  0  0  0
 13 15  1  0  0  0
 14 52  1  0  0  0
 14 53  1  0  0  0
 15 16  1  0  0  0
 15 54  1  0  0  0
 15 55  1  0  0  0
 16 17  1  0  0  0
 17 18  1  0  0  0
 18 19  2  0  0  0
 18 22  1  0  0  0
 19 20  1  0  0  0
 20 21  3  0  0  0
 22 23  1  0  0  0
 22 56  1  0  0  0
 23 24  2  0  0  0
 23 25  1  0  0  0
 25 26  2  0  0  0
 25 29  1  0  0  0
 26 27  1  0  0  0
 26 57  1  0  0  0
 27 28  2  0  0  0
 27 58  1  0  0  0
 28 34  1  0  0  0
 28 59  1  0  0  0
 29 30  2  0  0  0
 29 34  1  0  0  0
 30 31  1  0  0  0
 30 60  1  0  0  0
 31 32  2  0  0  0
 31 61  1  0  0  0
 32 33  1  0  0  0
 32 62  1  0  0  0
 33 34  2  0  0  0
 33 63  1  0  0  0
M  CHG  1   7   1
M  END
> <s_m_source_file>
../2o0u_ligand.sdf

> <i_m_source_file_index>
1

> <s_epik_input>
W0NIMl0xW0NIMl1bQ0gyXVtDSDJdW0NIMl1bTkgrXTFbQ0gyXVtDSDJdQyg9TylOKFtDSDJdW0NIMl0yKVtDSDJdYyhjMjMpc2MoYzNDI04pW05IXUMoPU8pYzRbY0hdW2NIXVtjSF1jKGM0NSlbY0hdW2NIXVtjSF1bY0hdNQ==

> <s_epik_cmdline>
J2VwaWtfYXBwJywgJy1pbWFlJywgJ2xpZ2FuZF9wcm8ubWFlJywgJy1vbWFlJywgJ2xpZ2FuZF9wcmVwLm1hZScsICctbXMnLCAnMScsICctcGgnLCAnNycsICctcGh0JywgJzAuNScsICctbnQn

> <r_lp_tautomer_probability>
1

> <r_epik_Ionization_Penalty>
  0.0025

> <r_epik_Ionization_Penalty_Charging>
  0.0025

> <r_epik_Ionization_Penalty_Neutral>
  0.0000

> <r_epik_State_Penalty>
 -0.0000

> <r_epik_Charging_Adjusted_Penalty>
0.00253726913726144

> <i_epik_Tot_Q>
1

> <i_epik_Tot_abs_Q>
1

$$$$
