2o1v_ligand
                    3D
 Schrodinger Suite 2020-3.
 39 41  0  0  1  0            999 V2000
   18.4290   21.1490   48.5960 P   0  0  0  0  0  0
   17.4630   21.7750   49.5140 O   0  0  0  0  0  0
   18.1080   21.4990   47.0530 O   0  5  0  0  0  0
   19.9400   21.6790   48.7780 O   0  5  0  0  0  0
   19.4480   18.6710   49.5590 P   0  0  1  0  0  0
   19.1840   17.2610   49.1670 O   0  5  0  0  0  0
   20.8320   19.2030   49.4990 O   0  0  0  0  0  0
   18.4150   19.5560   48.6720 O   0  0  0  0  0  0
   18.7750   18.8750   51.0200 O   0  0  0  0  0  0
   17.3750   18.5330   51.1060 C   0  0  0  0  0  0
   16.6520   19.1610   52.3100 C   0  0  1  0  0  0
   17.0750   18.5060   53.5510 O   0  0  0  0  0  0
   16.9370   20.6430   52.5460 C   0  0  1  0  0  0
   16.1390   21.4330   51.6460 O   0  0  0  0  0  0
   16.4450   20.7710   53.9880 C   0  0  1  0  0  0
   15.0020   20.7580   54.0500 O   0  0  0  0  0  0
   16.9800   19.4770   54.6250 C   0  0  2  0  0  0
   18.3390   19.6820   55.1600 N   0  0  0  0  0  0
   19.4650   19.1440   54.6860 C   0  0  0  0  0  0
   20.4970   19.5630   55.4190 N   0  0  0  0  0  0
   20.0250   20.3780   56.3640 C   0  0  0  0  0  0
   20.6030   21.1040   57.4060 C   0  0  0  0  0  0
   21.9160   21.0870   57.6340 N   0  0  0  0  0  0
   19.8050   21.8340   58.1920 N   0  0  0  0  0  0
   18.4950   21.8860   58.0010 C   0  0  0  0  0  0
   17.9140   21.2070   57.0300 N   0  0  0  0  0  0
   18.6510   20.4480   56.2000 C   0  0  0  0  0  0
   16.8569   18.8783   50.1992 H   0  0  0  0  0  0
   17.2689   17.4418   51.1959 H   0  0  0  0  0  0
   15.5814   19.0121   52.1058 H   0  0  0  0  0  0
   17.9557   21.0078   52.3481 H   0  0  0  0  0  0
   16.3707   21.4440   50.5707 H   0  0  0  0  0  0
   16.7192   21.7170   54.4778 H   0  0  0  0  0  0
   14.4264   21.6024   53.6430 H   0  0  0  0  0  0
   16.3415   19.1101   55.4421 H   0  0  0  0  0  0
   19.5305   18.4681   53.8334 H   0  0  0  0  0  0
   22.5782   20.4885   56.9911 H   0  0  0  0  0  0
   22.3375   21.6715   58.4651 H   0  0  0  0  0  0
   17.8840   22.5029   58.6600 H   0  0  0  0  0  0
  1  2  2  0  0  0
  1  3  1  0  0  0
  1  4  1  0  0  0
  1  8  1  0  0  0
  5  6  1  0  0  0
  5  7  2  0  0  0
  5  8  1  0  0  0
  5  9  1  0  0  0
  9 10  1  0  0  0
 10 11  1  0  0  0
 10 28  1  0  0  0
 10 29  1  0  0  0
 11 12  1  0  0  0
 11 13  1  0  0  0
 11 30  1  0  0  0
 12 17  1  0  0  0
 13 14  1  0  0  0
 13 15  1  0  0  0
 13 31  1  0  0  0
 14 32  1  0  0  0
 15 16  1  0  0  0
 15 17  1  0  0  0
 15 33  1  0  0  0
 16 34  1  0  0  0
 17 18  1  0  0  0
 17 35  1  0  0  0
 18 19  1  0  0  0
 18 27  1  0  0  0
 19 20  2  0  0  0
 19 36  1  0  0  0
 20 21  1  0  0  0
 21 22  2  0  0  0
 21 27  1  0  0  0
 22 23  1  0  0  0
 22 24  1  0  0  0
 23 37  1  0  0  0
 23 38  1  0  0  0
 24 25  2  0  0  0
 25 26  1  0  0  0
 25 39  1  0  0  0
 26 27  2  0  0  0
M  CHG  3   3  -1   4  -1   6  -1
M  END
> <s_m_source_file>
../2o1v_ligand.sdf

> <i_m_source_file_index>
1

> <s_epik_input>
Tz1QKFtPSF0pKFtPSF0pT1tQQF0oPU8pKFtPSF0pT1tDSDJdW0NASF0xT1tDQEhdKFtDQEhdKFtPSF0pW0NAQEhdMVtPSF0pbihbY0hdbjIpYyhjMjMpbltjSF1uYzNbTkgyXQ==

> <s_epik_cmdline>
J2VwaWtfYXBwJywgJy1pbWFlJywgJ2xpZ2FuZF9wcm8ubWFlJywgJy1vbWFlJywgJ2xpZ2FuZF9wcmVwLm1hZScsICctbXMnLCAnMScsICctcGgnLCAnNycsICctcGh0JywgJzAuNScsICctbnQn

> <r_lp_tautomer_probability>
0.999997216410988

> <r_epik_Ionization_Penalty>
  0.1037

> <r_epik_Ionization_Penalty_Charging>
  0.1033

> <r_epik_Ionization_Penalty_Neutral>
  0.0004

> <r_epik_State_Penalty>
  0.0922

> <r_epik_Charging_Adjusted_Penalty>
0.19546844050481

> <i_epik_Tot_Q>
-3

> <i_epik_Tot_abs_Q>
3

> <s_epik_Chemistry_Notes>
This compound contains an acetal/aminal-like group ( X-CH(R)-Y where X, Y are N, S, or O) that may be acid/base labile, releasing an aldehyde.

$$$$
