2o22_ligand
                    3D
 Schrodinger Suite 2020-3.
 76 79  0  0  1  0            999 V2000
    3.7440    1.0250    6.5700 C   0  0  0  0  0  0
    2.5890    0.0610    6.1820 C   0  0  0  0  0  0
    1.5020    0.8790    5.4260 C   0  0  0  0  0  0
    1.0790    2.1980    6.1200 C   0  0  0  0  0  0
    2.2600    3.0610    6.4560 N   0  0  0  0  0  0
    3.2940    2.3310    7.2650 C   0  0  0  0  0  0
    3.1330   -1.0500    5.2620 C   0  0  0  0  0  0
    2.0030   -0.6320    7.4300 C   0  0  0  0  0  0
    2.4000    4.4910    6.0560 C   0  0  0  0  0  0
    3.6610    5.0190    5.7530 C   0  0  0  0  0  0
    3.8150    6.3490    5.3840 C   0  0  0  0  0  0
    2.7110    7.2170    5.3030 C   0  0  0  0  0  0
    1.4370    6.6890    5.6060 C   0  0  0  0  0  0
    1.2870    5.3510    5.9760 C   0  0  0  0  0  0
    2.9960    8.6650    4.8870 C   0  0  0  0  0  0
    4.1300    9.0610    4.6440 O   0  5  0  0  0  0
    2.0250    9.5710    4.7590 N   0  0  0  0  0  0
    2.3110   11.1500    4.1880 S   0  0  0  0  0  0
    3.1710   11.1270    2.6470 C   0  0  0  0  0  0
    2.4530   11.1220    1.4560 C   0  0  0  0  0  0
    3.1250   11.0740    0.2220 C   0  0  0  0  0  0
    4.5530   11.0780    0.2140 C   0  0  0  0  0  0
    5.2350   11.0800    1.4400 C   0  0  0  0  0  0
    4.5530   11.1230    2.6420 C   0  0  0  0  0  0
    5.2780   11.0410   -1.0830 N   0  0  0  0  0  0
    6.6930   10.9960   -1.5580 C   0  0  0  0  0  0
    7.1310    9.5420   -1.8770 C   0  0  0  0  0  0
    7.5460    8.5240   -0.4150 S   0  0  0  0  0  0
    6.0760    7.9790    0.3590 C   0  0  0  0  0  0
    6.1270    7.6550    1.7180 C   0  0  0  0  0  0
    4.9400    7.3800    2.3950 C   0  0  0  0  0  0
    3.7200    7.4000    1.7140 C   0  0  0  0  0  0
    3.6870    7.6900    0.3440 C   0  0  0  0  0  0
    4.8700    7.9570   -0.3450 C   0  0  0  0  0  0
    2.2420   11.0150   -1.0150 N   0  3  0  0  0  0
    2.5480   10.3440   -1.9920 O   0  0  0  0  0  0
    1.1930   11.6350   -1.0870 O   0  5  0  0  0  0
    3.1060   11.9500    5.3140 O   0  0  0  0  0  0
    0.8330   11.7050    4.0170 O   0  0  0  0  0  0
    6.7040   11.8380   -2.8340 C   0  0  0  0  0  0
    7.6780   11.6890   -0.6000 C   0  0  0  0  0  0
    4.4285    0.5162    7.2647 H   0  0  0  0  0  0
    4.2940    1.3214    5.6647 H   0  0  0  0  0  0
    1.8766    1.1525    4.4285 H   0  0  0  0  0  0
    0.5916    0.2705    5.3216 H   0  0  0  0  0  0
    0.4166    2.7678    5.4518 H   0  0  0  0  0  0
    0.5463    1.9664    7.0541 H   0  0  0  0  0  0
    2.8609    2.0929    8.2477 H   0  0  0  0  0  0
    4.1619    2.9936    7.3976 H   0  0  0  0  0  0
    3.5622   -0.5980    4.3556 H   0  0  0  0  0  0
    2.3132   -1.7275    4.9810 H   0  0  0  0  0  0
    3.9118   -1.6171    5.7930 H   0  0  0  0  0  0
    1.6017    0.1278    8.1168 H   0  0  0  0  0  0
    2.7941   -1.2037    7.9373 H   0  0  0  0  0  0
    1.1955   -1.3141    7.1254 H   0  0  0  0  0  0
    4.5381    4.3741    5.8078 H   0  0  0  0  0  0
    4.8106    6.7276    5.1527 H   0  0  0  0  0  0
    0.5599    7.3338    5.5504 H   0  0  0  0  0  0
    0.2936    4.9660    6.2065 H   0  0  0  0  0  0
    1.3638   11.1555    1.4793 H   0  0  0  0  0  0
    6.3245   11.0470    1.4451 H   0  0  0  0  0  0
    5.1034   11.1536    3.5823 H   0  0  0  0  0  0
    4.4536   11.0539   -1.8111 H   0  0  0  0  0  0
    6.3178    9.0214   -2.4039 H   0  0  0  0  0  0
    8.0277    9.5605   -2.5138 H   0  0  0  0  0  0
    7.0824    7.6179    2.2413 H   0  0  0  0  0  0
    4.9635    7.1484    3.4599 H   0  0  0  0  0  0
    2.7938    7.1899    2.2490 H   0  0  0  0  0  0
    2.7342    7.7071   -0.1851 H   0  0  0  0  0  0
    4.8535    8.1459   -1.4184 H   0  0  0  0  0  0
    6.0158   11.3971   -3.5702 H   0  0  0  0  0  0
    7.7219   11.8593   -3.2505 H   0  0  0  0  0  0
    6.3823   12.8634   -2.5994 H   0  0  0  0  0  0
    7.7211   11.1320    0.3476 H   0  0  0  0  0  0
    7.3387   12.7172   -0.4059 H   0  0  0  0  0  0
    8.6783   11.7131   -1.0570 H   0  0  0  0  0  0
  1  2  1  0  0  0
  1  6  1  0  0  0
  1 42  1  0  0  0
  1 43  1  0  0  0
  2  3  1  0  0  0
  2  7  1  0  0  0
  2  8  1  0  0  0
  3  4  1  0  0  0
  3 44  1  0  0  0
  3 45  1  0  0  0
  4  5  1  0  0  0
  4 46  1  0  0  0
  4 47  1  0  0  0
  5  6  1  0  0  0
  5  9  1  0  0  0
  6 48  1  0  0  0
  6 49  1  0  0  0
  7 50  1  0  0  0
  7 51  1  0  0  0
  7 52  1  0  0  0
  8 53  1  0  0  0
  8 54  1  0  0  0
  8 55  1  0  0  0
  9 10  2  0  0  0
  9 14  1  0  0  0
 10 11  1  0  0  0
 10 56  1  0  0  0
 11 12  2  0  0  0
 11 57  1  0  0  0
 12 13  1  0  0  0
 12 15  1  0  0  0
 13 14  2  0  0  0
 13 58  1  0  0  0
 14 59  1  0  0  0
 15 16  1  0  0  0
 15 17  2  0  0  0
 17 18  1  0  0  0
 18 19  1  0  0  0
 18 38  2  0  0  0
 18 39  2  0  0  0
 19 20  2  0  0  0
 19 24  1  0  0  0
 20 21  1  0  0  0
 20 60  1  0  0  0
 21 22  2  0  0  0
 21 35  1  0  0  0
 22 23  1  0  0  0
 22 25  1  0  0  0
 23 24  2  0  0  0
 23 61  1  0  0  0
 24 62  1  0  0  0
 25 26  1  0  0  0
 25 63  1  0  0  0
 26 27  1  0  0  0
 26 40  1  0  0  0
 26 41  1  0  0  0
 27 28  1  0  0  0
 27 64  1  0  0  0
 27 65  1  0  0  0
 28 29  1  0  0  0
 29 30  2  0  0  0
 29 34  1  0  0  0
 30 31  1  0  0  0
 30 66  1  0  0  0
 31 32  2  0  0  0
 31 67  1  0  0  0
 32 33  1  0  0  0
 32 68  1  0  0  0
 33 34  2  0  0  0
 33 69  1  0  0  0
 34 70  1  0  0  0
 35 36  2  0  0  0
 35 37  1  0  0  0
 40 71  1  0  0  0
 40 72  1  0  0  0
 40 73  1  0  0  0
 41 74  1  0  0  0
 41 75  1  0  0  0
 41 76  1  0  0  0
M  CHG  3  16  -1  35   1  37  -1
M  END
> <s_m_source_file>
../2o22_ligand.sdf

> <i_m_source_file_index>
1

> <s_epik_input>
W0NIM11DMShbQ0gzXSlbQ0gyXVtDSDJdTihbQ0gyXVtDSDJdMSljMltjSF1bY0hdYyhbY0hdW2NIXTIpQyg9TylbTkhdUyg9TykoPU8pYzNbY0hdYyhbTitdKD1PKVtPLV0pYyhbY0hdW2NIXTMpW05IXUMoW0NIM10pKFtDSDNdKVtDSDJdU2M0W2NIXVtjSF1bY0hdW2NIXVtjSF00

> <s_epik_cmdline>
J2VwaWtfYXBwJywgJy1pbWFlJywgJ2xpZ2FuZF9wcm8ubWFlJywgJy1vbWFlJywgJ2xpZ2FuZF9wcmVwLm1hZScsICctbXMnLCAnMScsICctcGgnLCAnNycsICctcGh0JywgJzAuNScsICctbnQn

> <r_lp_tautomer_probability>
1

> <r_epik_Ionization_Penalty>
  0.0023

> <r_epik_Ionization_Penalty_Charging>
  0.0014

> <r_epik_Ionization_Penalty_Neutral>
  0.0009

> <r_epik_State_Penalty>
 -0.0000

> <r_epik_Charging_Adjusted_Penalty>
0.00140399739652773

> <i_epik_Tot_Q>
-1

> <i_epik_Tot_abs_Q>
3

$$$$
