2o2u_ligand
                    3D
 Schrodinger Suite 2020-3.
 34 36  0  0  1  0            999 V2000
   19.5450   10.4260   35.7940 F   0  0  0  0  0  0
   18.9070   11.4910   35.2970 C   0  0  0  0  0  0
   17.8990   12.0620   36.0520 C   0  0  0  0  0  0
   17.1920   13.1530   35.5790 C   0  0  0  0  0  0
   17.5010   13.7030   34.3460 C   0  0  0  0  0  0
   18.5170   13.1420   33.5790 C   0  0  0  0  0  0
   19.2230   12.0280   34.0450 C   0  0  0  0  0  0
   20.2900   11.4670   33.1840 C   0  0  0  0  0  0
   21.0490   12.2260   32.6270 O   0  0  0  0  0  0
   20.3780   10.0820   33.0270 N   0  0  0  0  0  0
   21.3100    9.3220   32.2600 C   0  0  0  0  0  0
   21.2720    7.9450   32.0530 C   0  0  0  0  0  0
   20.2620    7.0910   32.5840 C   0  0  0  0  0  0
   19.4030    6.4420   33.0200 N   0  0  0  0  0  0
   22.6080    9.9140   31.4980 S   0  0  0  0  0  0
   23.1570    8.5540   30.8670 C   0  0  0  0  0  0
   24.3820    8.4150   30.0050 C   0  0  0  0  0  0
   24.3780    7.0570   29.2760 C   0  0  0  0  0  0
   24.0030    5.8950   30.2200 C   0  0  0  0  0  0
   22.5860    6.0700   30.8260 C   0  0  0  0  0  0
   22.3300    7.5060   31.2560 C   0  0  0  0  0  0
   17.6587   11.6477   37.0311 H   0  0  0  0  0  0
   16.3889   13.5813   36.1788 H   0  0  0  0  0  0
   16.9516   14.5699   33.9789 H   0  0  0  0  0  0
   18.7644   13.5732   32.6090 H   0  0  0  0  0  0
   19.6598    9.4238   33.5379 H   0  0  0  0  0  0
   24.3977    9.2217   29.2574 H   0  0  0  0  0  0
   25.2822    8.4803   30.6338 H   0  0  0  0  0  0
   23.6454    7.0833   28.4559 H   0  0  0  0  0  0
   25.3794    6.8575   28.8668 H   0  0  0  0  0  0
   24.0220    4.9478   29.6610 H   0  0  0  0  0  0
   24.7260    5.8469   31.0476 H   0  0  0  0  0  0
   21.8299    5.7937   30.0763 H   0  0  0  0  0  0
   22.4818    5.4212   31.7082 H   0  0  0  0  0  0
  1  2  1  0  0  0
  2  3  2  0  0  0
  2  7  1  0  0  0
  3  4  1  0  0  0
  3 22  1  0  0  0
  4  5  2  0  0  0
  4 23  1  0  0  0
  5  6  1  0  0  0
  5 24  1  0  0  0
  6  7  2  0  0  0
  6 25  1  0  0  0
  7  8  1  0  0  0
  8  9  2  0  0  0
  8 10  1  0  0  0
 10 11  1  0  0  0
 10 26  1  0  0  0
 11 12  2  0  0  0
 11 15  1  0  0  0
 12 13  1  0  0  0
 12 21  1  0  0  0
 13 14  3  0  0  0
 15 16  1  0  0  0
 16 17  1  0  0  0
 16 21  2  0  0  0
 17 18  1  0  0  0
 17 27  1  0  0  0
 17 28  1  0  0  0
 18 19  1  0  0  0
 18 29  1  0  0  0
 18 30  1  0  0  0
 19 20  1  0  0  0
 19 31  1  0  0  0
 19 32  1  0  0  0
 20 21  1  0  0  0
 20 33  1  0  0  0
 20 34  1  0  0  0
M  END
> <s_m_source_file>
../2o2u_ligand.sdf

> <i_m_source_file_index>
1

> <s_epik_input>
RmMxW2NIXVtjSF1bY0hdW2NIXWMxQyg9TylbTkhdYyhzMiljKEMjTiljKGMyMylbQ0gyXVtDSDJdW0NIMl1bQ0gyXTM=

> <s_epik_cmdline>
J2VwaWtfYXBwJywgJy1pbWFlJywgJ2xpZ2FuZF9wcm8ubWFlJywgJy1vbWFlJywgJ2xpZ2FuZF9wcmVwLm1hZScsICctbXMnLCAnMScsICctcGgnLCAnNycsICctcGh0JywgJzAuNScsICctbnQn

> <r_lp_tautomer_probability>
1

> <r_epik_Ionization_Penalty>
  0.0000

> <r_epik_Ionization_Penalty_Charging>
  0.0000

> <r_epik_Ionization_Penalty_Neutral>
  0.0000

> <r_epik_State_Penalty>
 -0.0000

> <r_epik_Charging_Adjusted_Penalty>
0

> <i_epik_Tot_Q>
0

> <i_epik_Tot_abs_Q>
0

$$$$
