2o3p_ligand
                    3D
 Schrodinger Suite 2020-3.
 31 33  0  0  1  0            999 V2000
   74.0790   40.4680    1.9270 C   0  0  0  0  0  0
   73.8950   40.2410    0.5690 C   0  0  0  0  0  0
   74.1820   38.8910    0.0240 C   0  0  0  0  0  0
   74.6610   37.8490    0.9560 C   0  0  0  0  0  0
   74.8150   38.1650    2.3000 C   0  0  0  0  0  0
   74.5230   39.4470    2.7670 C   0  0  0  0  0  0
   74.0320   38.4810   -1.3970 C   0  0  0  0  0  0
   74.3640   37.1060   -1.7770 C   0  0  0  0  0  0
   74.8080   36.2100   -0.8820 C   0  0  0  0  0  0
   75.1560   34.7630   -1.1680 C   0  0  0  0  0  0
   75.0990   34.1800   -2.4400 C   0  0  0  0  0  0
   75.4180   32.8310   -2.6190 C   0  0  0  0  0  0
   75.7890   32.0330   -1.5340 C   0  0  0  0  0  0
   75.8560   32.6420   -0.2050 C   0  0  0  0  0  0
   75.5330   33.9840   -0.0550 C   0  0  0  0  0  0
   74.9460   36.5950    0.5050 O   0  0  0  0  0  0
   73.6500   39.2450   -2.2520 O   0  0  0  0  0  0
   76.2260   31.8700    0.8010 O   0  0  0  0  0  0
   76.1170   30.7430   -1.6460 O   0  0  0  0  0  0
   74.2110   36.8100   -3.0700 O   0  5  0  0  0  0
   74.6930   39.7160    4.0640 O   0  0  0  0  0  0
   73.4630   41.2300   -0.1870 O   0  0  0  0  0  0
   74.8272   41.2620    2.0679 H   0  0  0  0  0  0
   74.1674   37.5145    2.9061 H   0  0  0  0  0  0
   75.8642   38.0146    2.5942 H   0  0  0  0  0  0
   74.8032   34.7836   -3.2981 H   0  0  0  0  0  0
   75.3768   32.3962   -3.6177 H   0  0  0  0  0  0
   75.5713   34.4403    0.9341 H   0  0  0  0  0  0
   76.4702   30.8125    0.6219 H   0  0  0  0  0  0
   76.0793   30.2492   -2.6282 H   0  0  0  0  0  0
   73.1255   40.7782    2.3794 H   0  0  0  0  0  0
  1  2  1  0  0  0
  1  6  1  0  0  0
  1 23  1  0  0  0
  1 31  1  0  0  0
  2  3  1  0  0  0
  2 22  2  0  0  0
  3  4  2  0  0  0
  3  7  1  0  0  0
  4  5  1  0  0  0
  4 16  1  0  0  0
  5  6  1  0  0  0
  5 24  1  0  0  0
  5 25  1  0  0  0
  6 21  2  0  0  0
  7  8  1  0  0  0
  7 17  2  0  0  0
  8  9  2  0  0  0
  8 20  1  0  0  0
  9 10  1  0  0  0
  9 16  1  0  0  0
 10 11  2  0  0  0
 10 15  1  0  0  0
 11 12  1  0  0  0
 11 26  1  0  0  0
 12 13  2  0  0  0
 12 27  1  0  0  0
 13 14  1  0  0  0
 13 19  1  0  0  0
 14 15  2  0  0  0
 14 18  1  0  0  0
 15 28  1  0  0  0
 18 29  1  0  0  0
 19 30  1  0  0  0
M  CHG  1  20  -1
M  END
> <s_m_source_file>
../2o3p_ligand.sdf

> <i_m_source_file_index>
1

> <s_epik_input>
Tz1DMVtDSF09QyhbT0hdKVtDSDJdYyhjMTIpb2MoYyhjMj1PKVtPSF0pLWMzW2NIXVtjSF1jKFtPSF0pYyhbY0hdMylbT0hd

> <s_epik_cmdline>
J2VwaWtfYXBwJywgJy1pbWFlJywgJ2xpZ2FuZF9wcm8ubWFlJywgJy1vbWFlJywgJ2xpZ2FuZF9wcmVwLm1hZScsICctbXMnLCAnMScsICctcGgnLCAnNycsICctcGh0JywgJzAuNScsICctbnQn

> <r_lp_tautomer_probability>
0.999999979999776

> <r_epik_Ionization_Penalty>
  0.0297

> <r_epik_Ionization_Penalty_Charging>
  0.0009

> <r_epik_Ionization_Penalty_Neutral>
  0.0288

> <r_epik_State_Penalty>
  0.0004

> <r_epik_Charging_Adjusted_Penalty>
0.00126627388863492

> <i_epik_Tot_Q>
-1

> <i_epik_Tot_abs_Q>
1

$$$$
