2o3z_ligand
                    3D
 Schrodinger Suite 2020-3.
 36 36  0  0  1  0            999 V2000
   57.1940   64.1350   -4.6460 C   0  0  0  0  0  0
   55.4340   64.4770   -6.8270 C   0  0  0  0  0  0
   56.7900   64.1500   -7.0760 C   0  0  0  0  0  0
   51.6920   64.1080    1.0020 C   0  0  0  0  0  0
   59.1280   63.6270   -6.2290 C   0  0  0  0  0  0
   54.1090   64.9360   -1.1200 C   0  0  0  0  0  0
   54.9660   64.6300   -5.4890 C   0  0  0  0  0  0
   54.1390   64.7240   -2.6290 C   0  0  0  0  0  0
   49.6200   64.5760    2.3840 C   0  0  0  0  0  0
   51.1350   64.3450    2.4100 C   0  0  0  0  0  0
   55.8340   64.4630   -4.3560 C   0  0  0  0  0  0
   53.2100   63.8700    1.0200 C   0  0  0  0  0  0
   53.7690   63.6300   -0.3920 C   0  0  0  0  0  0
   57.6880   63.9750   -5.9760 C   0  0  0  0  0  0
   59.6300   63.4640   -7.4640 O   0  5  0  0  0  0
   55.4880   64.5870   -3.0250 O   0  0  0  0  0  0
   59.9220   63.4720   -5.3000 O   0  0  0  0  0  0
   57.8857   64.0009   -3.8143 H   0  0  0  0  0  0
   54.7460   64.6121   -7.6616 H   0  0  0  0  0  0
   57.1468   64.0325   -8.0992 H   0  0  0  0  0  0
   51.2095   63.2233    0.5609 H   0  0  0  0  0  0
   51.4884   64.9880    0.3742 H   0  0  0  0  0  0
   55.0949   65.2851   -0.7791 H   0  0  0  0  0  0
   53.3470   65.6891   -0.8706 H   0  0  0  0  0  0
   53.9188   64.8811   -5.3205 H   0  0  0  0  0  0
   53.5748   63.8144   -2.8827 H   0  0  0  0  0  0
   53.6826   65.5903   -3.1301 H   0  0  0  0  0  0
   49.2568   64.7420    3.4089 H   0  0  0  0  0  0
   49.1218   63.6932    1.9569 H   0  0  0  0  0  0
   49.3942   65.4586    1.7675 H   0  0  0  0  0  0
   51.3422   63.4666    3.0389 H   0  0  0  0  0  0
   51.6146   65.2320    2.8496 H   0  0  0  0  0  0
   53.7141   64.7504    1.4452 H   0  0  0  0  0  0
   53.4353   62.9860    1.6347 H   0  0  0  0  0  0
   53.0112   63.0767   -0.9662 H   0  0  0  0  0  0
   54.6769   63.0163   -0.2965 H   0  0  0  0  0  0
  1 11  2  0  0  0
  1 14  1  0  0  0
  1 18  1  0  0  0
  2  3  1  0  0  0
  2  7  2  0  0  0
  2 19  1  0  0  0
  3 14  2  0  0  0
  3 20  1  0  0  0
  4 10  1  0  0  0
  4 12  1  0  0  0
  4 21  1  0  0  0
  4 22  1  0  0  0
  5 14  1  0  0  0
  5 15  1  0  0  0
  5 17  2  0  0  0
  6  8  1  0  0  0
  6 13  1  0  0  0
  6 23  1  0  0  0
  6 24  1  0  0  0
  7 11  1  0  0  0
  7 25  1  0  0  0
  8 16  1  0  0  0
  8 26  1  0  0  0
  8 27  1  0  0  0
  9 10  1  0  0  0
  9 28  1  0  0  0
  9 29  1  0  0  0
  9 30  1  0  0  0
 10 31  1  0  0  0
 10 32  1  0  0  0
 11 16  1  0  0  0
 12 13  1  0  0  0
 12 33  1  0  0  0
 12 34  1  0  0  0
 13 35  1  0  0  0
 13 36  1  0  0  0
M  CHG  1  15  -1
M  END
> <s_m_source_file>
../2o3z_ligand.sdf

> <i_m_source_file_index>
1

> <s_epik_input>
W2NIXTFbY0hdW2NIXWMoQyg9TylbT0hdKVtjSF1jMU9bQ0gyXVtDSDJdW0NIMl1bQ0gyXVtDSDJdW0NIMl1bQ0gzXQ==

> <s_epik_cmdline>
J2VwaWtfYXBwJywgJy1pbWFlJywgJ2xpZ2FuZF9wcm8ubWFlJywgJy1vbWFlJywgJ2xpZ2FuZF9wcmVwLm1hZScsICctbXMnLCAnMScsICctcGgnLCAnNycsICctcGh0JywgJzAuNScsICctbnQn

> <r_lp_tautomer_probability>
1

> <r_epik_Ionization_Penalty>
  0.0007

> <r_epik_Ionization_Penalty_Charging>
  0.0007

> <r_epik_Ionization_Penalty_Neutral>
  0.0000

> <r_epik_State_Penalty>
 -0.0000

> <r_epik_Charging_Adjusted_Penalty>
0.0006648414395167

> <i_epik_Tot_Q>
-1

> <i_epik_Tot_abs_Q>
1

$$$$
