2o4j_ligand
                    3D
 Schrodinger Suite 2020-3.
 72 74  0  0  1  0            999 V2000
   66.0780   -2.2520   -7.5030 O   0  0  0  0  0  0
   66.7390   -1.2690   -6.7360 C   0  0  0  0  0  0
   68.1700   -1.2490   -7.2550 C   0  0  0  0  0  0
   66.7170   -1.6540   -5.2520 C   0  0  0  0  0  0
   66.0450    0.0710   -7.0080 C   0  0  0  0  0  0
   64.5270    0.0530   -6.7210 C   0  0  0  0  0  0
   63.7350    1.2920   -7.1990 C   0  0  0  0  0  0
   62.2900    1.1450   -6.7360 C   0  0  0  0  0  0
   61.5610   -0.1030   -7.1510 C   0  0  0  0  0  0
   61.6050    2.0550   -5.9730 C   0  0  0  0  0  0
   62.0810    3.3840   -5.4160 C   0  0  1  0  0  0
   62.9790    3.1330   -4.1730 C   0  0  0  0  0  0
   62.7520    4.3780   -6.3790 C   0  0  0  0  0  0
   62.9010    5.7980   -5.7400 C   0  0  0  0  0  0
   61.5560    6.3180   -5.1950 C   0  0  0  0  0  0
   60.1730    1.7580   -5.5270 C   0  0  0  0  0  0
   59.8290    2.8210   -4.4700 C   0  0  0  0  0  0
   60.6800    3.9330   -5.0930 C   0  0  1  0  0  0
   60.9060    5.2250   -4.3410 C   0  0  0  0  0  0
   60.6340    5.3700   -3.0160 C   0  0  0  0  0  0
   60.8570    6.6340   -2.2500 C   0  0  0  0  0  0
   61.1850    6.7150   -0.9310 C   0  0  0  0  0  0
   61.4140    5.4710   -0.0630 C   0  0  0  0  0  0
   60.7390    5.6080    1.3160 C   0  0  1  0  0  0
   61.0800    4.4990    2.1930 O   0  0  0  0  0  0
   61.3620    8.0740   -0.2730 C   0  0  0  0  0  0
   60.7520    8.1160    1.1380 C   0  0  1  0  0  0
   59.3120    8.1580    1.0580 O   0  0  0  0  0  0
   61.1430    6.9020    1.9360 C   0  0  0  0  0  0
   61.7690    7.0410    3.0930 C   0  0  0  0  0  0
   66.4129   -3.2990   -7.4617 H   0  0  0  0  0  0
   68.6480   -2.2182   -7.0497 H   0  0  0  0  0  0
   68.7318   -0.4489   -6.7507 H   0  0  0  0  0  0
   68.1641   -1.0654   -8.3396 H   0  0  0  0  0  0
   67.2264   -2.6194   -5.1161 H   0  0  0  0  0  0
   65.6748   -1.7381   -4.9104 H   0  0  0  0  0  0
   67.2340   -0.8807   -4.6649 H   0  0  0  0  0  0
   66.4896    0.8501   -6.3713 H   0  0  0  0  0  0
   66.1753    0.3434   -8.0658 H   0  0  0  0  0  0
   64.0698   -0.8142   -7.2199 H   0  0  0  0  0  0
   64.3597   -0.0179   -5.6361 H   0  0  0  0  0  0
   64.1791    2.2005   -6.7660 H   0  0  0  0  0  0
   63.7750    1.3517   -8.2967 H   0  0  0  0  0  0
   62.2297   -0.7349   -7.7539 H   0  0  0  0  0  0
   60.6777    0.1695   -7.7473 H   0  0  0  0  0  0
   61.2423   -0.6564   -6.2554 H   0  0  0  0  0  0
   63.9550    2.7436   -4.4984 H   0  0  0  0  0  0
   62.4936    2.3999   -3.5120 H   0  0  0  0  0  0
   63.1242    4.0778   -3.6287 H   0  0  0  0  0  0
   63.7551    4.0120   -6.6434 H   0  0  0  0  0  0
   62.1440    4.4724   -7.2908 H   0  0  0  0  0  0
   63.6188    5.7521   -4.9077 H   0  0  0  0  0  0
   63.2651    6.5055   -6.4995 H   0  0  0  0  0  0
   61.7310    7.2133   -4.5803 H   0  0  0  0  0  0
   60.8941    6.5740   -6.0355 H   0  0  0  0  0  0
   59.4979    1.8255   -6.3928 H   0  0  0  0  0  0
   60.1240    0.7446   -5.1020 H   0  0  0  0  0  0
   58.7427    2.9939   -4.4640 H   0  0  0  0  0  0
   60.1498    2.4693   -3.4783 H   0  0  0  0  0  0
   60.0516    4.2318   -5.9449 H   0  0  0  0  0  0
   60.2240    4.5252   -2.4430 H   0  0  0  0  0  0
   60.7349    7.5519   -2.8437 H   0  0  0  0  0  0
   60.9942    4.5888   -0.5685 H   0  0  0  0  0  0
   62.4933    5.3257    0.0921 H   0  0  0  0  0  0
   59.6434    5.5710    1.2250 H   0  0  0  0  0  0
   60.8508    3.4669    1.8891 H   0  0  0  0  0  0
   62.4344    8.3043   -0.1901 H   0  0  0  0  0  0
   60.8677    8.8441   -0.8834 H   0  0  0  0  0  0
   61.0816    9.0274    1.6583 H   0  0  0  0  0  0
   58.8150    8.9741    0.5130 H   0  0  0  0  0  0
   62.0538    6.1518    3.6746 H   0  0  0  0  0  0
   62.0047    8.0458    3.4736 H   0  0  0  0  0  0
  1  2  1  0  0  0
  1 31  1  0  0  0
  2  3  1  0  0  0
  2  4  1  0  0  0
  2  5  1  0  0  0
  3 32  1  0  0  0
  3 33  1  0  0  0
  3 34  1  0  0  0
  4 35  1  0  0  0
  4 36  1  0  0  0
  4 37  1  0  0  0
  5  6  1  0  0  0
  5 38  1  0  0  0
  5 39  1  0  0  0
  6  7  1  0  0  0
  6 40  1  0  0  0
  6 41  1  0  0  0
  7  8  1  0  0  0
  7 42  1  0  0  0
  7 43  1  0  0  0
  8  9  1  0  0  0
  8 10  2  0  0  0
  9 44  1  0  0  0
  9 45  1  0  0  0
  9 46  1  0  0  0
 10 11  1  0  0  0
 10 16  1  0  0  0
 11 12  1  0  0  0
 11 13  1  0  0  0
 11 18  1  0  0  0
 12 47  1  0  0  0
 12 48  1  0  0  0
 12 49  1  0  0  0
 13 14  1  0  0  0
 13 50  1  0  0  0
 13 51  1  0  0  0
 14 15  1  0  0  0
 14 52  1  0  0  0
 14 53  1  0  0  0
 15 19  1  0  0  0
 15 54  1  0  0  0
 15 55  1  0  0  0
 16 17  1  0  0  0
 16 56  1  0  0  0
 16 57  1  0  0  0
 17 18  1  0  0  0
 17 58  1  0  0  0
 17 59  1  0  0  0
 18 19  1  0  0  0
 18 60  1  0  0  0
 19 20  2  0  0  0
 20 21  1  0  0  0
 20 61  1  0  0  0
 21 22  2  0  0  0
 21 62  1  0  0  0
 22 23  1  0  0  0
 22 26  1  0  0  0
 23 24  1  0  0  0
 23 63  1  0  0  0
 23 64  1  0  0  0
 24 25  1  0  0  0
 24 29  1  0  0  0
 24 65  1  0  0  0
 25 66  1  0  0  0
 26 27  1  0  0  0
 26 67  1  0  0  0
 26 68  1  0  0  0
 27 28  1  0  0  0
 27 29  1  0  0  0
 27 69  1  0  0  0
 28 70  1  0  0  0
 29 30  2  0  0  0
 30 71  1  0  0  0
 30 72  1  0  0  0
M  END
> <s_m_source_file>
../2o4j_ligand.sdf

> <i_m_source_file_index>
1

> <s_epik_input>
W09IXUMoW0NIM10pKFtDSDNdKVtDSDJdW0NIMl1bQ0gyXS9DKFtDSDNdKT1DXDFbQ0gyXVtDSDJdW0NASF0oW0NAQF0xMltDSDNdKUMoXFtDSDJdW0NIMl1bQ0gyXTIpPVtDSF1cW0NIXT1DM1tDSDJdW0NAQEhdKFtPSF0pQyg9W0NIMl0pW0NAQEhdKFtDSDJdMylbT0hd

> <s_epik_cmdline>
J2VwaWtfYXBwJywgJy1pbWFlJywgJ2xpZ2FuZF9wcm8ubWFlJywgJy1vbWFlJywgJ2xpZ2FuZF9wcmVwLm1hZScsICctbXMnLCAnMScsICctcGgnLCAnNycsICctcGh0JywgJzAuNScsICctbnQn

> <r_lp_tautomer_probability>
1

> <r_epik_Ionization_Penalty>
  0.0000

> <r_epik_Ionization_Penalty_Charging>
  0.0000

> <r_epik_Ionization_Penalty_Neutral>
  0.0000

> <r_epik_State_Penalty>
 -0.0000

> <r_epik_Charging_Adjusted_Penalty>
0

> <i_epik_Tot_Q>
0

> <i_epik_Tot_abs_Q>
0

$$$$
