2o4k_ligand
                    3D
 Schrodinger Suite 2020-3.
103105  0  0  1  0            999 V2000
   19.9960   24.6420   15.9400 C   0  0  0  0  0  0
   18.6010   24.7680   16.2440 O   0  0  0  0  0  0
   18.0660   23.9900   17.3300 C   0  0  0  0  0  0
   18.8570   23.4040   18.0640 O   0  0  0  0  0  0
   16.7420   23.9590   17.4700 N   0  0  0  0  0  0
   16.0550   23.2110   18.5180 C   0  0  1  0  0  0
   15.6220   24.1410   19.6690 C   0  0  0  0  0  0
   14.8510   25.3620   19.1550 C   0  0  0  0  0  0
   14.7800   23.3760   20.6930 C   0  0  0  0  0  0
   16.8360   24.6950   20.4060 C   0  0  0  0  0  0
   14.9460   22.4340   17.8320 C   0  0  0  0  0  0
   13.8950   22.9880   17.5010 O   0  0  0  0  0  0
   15.2360   21.1330   17.5810 N   0  0  0  0  0  0
   14.3530   20.1860   16.8830 C   0  0  1  0  0  0
   15.0910   19.7310   15.6190 C   0  0  0  0  0  0
   15.5160   20.9260   14.7900 C   0  0  0  0  0  0
   14.5530   21.6110   14.0390 C   0  0  0  0  0  0
   14.9390   22.7120   13.2720 C   0  0  0  0  0  0
   16.2720   23.1330   13.2480 C   0  0  0  0  0  0
   17.2340   22.4490   13.9910 C   0  0  0  0  0  0
   16.8530   21.3450   14.7570 C   0  0  0  0  0  0
   14.1300   18.9750   17.7880 C   0  0  1  0  0  0
   15.3430   18.3350   18.2380 O   0  0  0  0  0  0
   13.4270   19.5100   18.9990 C   0  0  0  0  0  0
   12.0240   19.1580   19.0510 N   0  0  3  0  0  0
   11.2680   18.3190   18.1710 N   0  0  0  0  0  0
   10.5070   18.6270   17.1130 C   0  0  0  0  0  0
   10.3380   19.7450   16.6320 O   0  0  0  0  0  0
    9.7910   17.4260   16.5440 C   0  0  2  0  0  0
    9.8220   17.2830   15.0160 C   0  0  0  0  0  0
   11.2620   17.4200   14.5270 C   0  0  0  0  0  0
    9.3190   15.8950   14.6260 C   0  0  0  0  0  0
    8.9460   18.3060   14.2990 C   0  0  0  0  0  0
    8.4160   17.4600   17.0610 N   0  0  0  0  0  0
    7.8660   16.4210   17.6960 C   0  0  0  0  0  0
    8.4370   15.3410   17.9260 O   0  0  0  0  0  0
    6.5120   16.6080   18.1490 O   0  0  0  0  0  0
    5.9140   15.6250   18.9930 C   0  0  0  0  0  0
   11.4270   19.6170   20.3090 C   0  0  0  0  0  0
    9.9240   19.7340   20.2450 C   0  0  0  0  0  0
    9.3950   20.9700   19.9050 C   0  0  0  0  0  0
    8.0150   21.1300   19.8370 C   0  0  0  0  0  0
    9.0890   18.6560   20.5260 C   0  0  0  0  0  0
    7.7010   18.8210   20.4470 C   0  0  0  0  0  0
    7.1570   20.0630   20.1090 C   0  0  0  0  0  0
    5.6730   20.2450   20.0080 C   0  0  0  0  0  0
    5.1410   21.1270   19.0610 C   0  0  0  0  0  0
    3.7590   21.2810   18.9690 C   0  0  0  0  0  0
    2.9350   20.5490   19.8220 C   0  0  0  0  0  0
    3.5030   19.6770   20.7510 C   0  0  0  0  0  0
    4.8380   19.5490   20.8240 N   0  0  0  0  0  0
   20.2469   25.2958   15.0917 H   0  0  0  0  0  0
   20.2211   23.5978   15.6773 H   0  0  0  0  0  0
   20.5905   24.9357   16.8177 H   0  0  0  0  0  0
   16.1615   24.5404   16.7385 H   0  0  0  0  0  0
   16.7404   22.4887   18.9854 H   0  0  0  0  0  0
   13.9562   25.0276   18.6096 H   0  0  0  0  0  0
   15.4951   25.9450   18.4803 H   0  0  0  0  0  0
   14.5484   25.9896   20.0062 H   0  0  0  0  0  0
   13.8906   22.9589   20.1981 H   0  0  0  0  0  0
   14.4663   24.0608   21.4947 H   0  0  0  0  0  0
   15.3780   22.5586   21.1221 H   0  0  0  0  0  0
   17.4691   25.2540   19.7013 H   0  0  0  0  0  0
   17.4133   23.8642   20.8380 H   0  0  0  0  0  0
   16.5016   25.3665   21.2105 H   0  0  0  0  0  0
   16.2195   20.8016   17.9455 H   0  0  0  0  0  0
   13.3968   20.6778   16.6511 H   0  0  0  0  0  0
   15.9860   19.1581   15.9032 H   0  0  0  0  0  0
   14.4261   19.0965   15.0146 H   0  0  0  0  0  0
   13.5121   21.2879   14.0530 H   0  0  0  0  0  0
   14.1933   23.2489   12.6858 H   0  0  0  0  0  0
   16.5597   23.9964   12.6482 H   0  0  0  0  0  0
   18.2745   22.7733   13.9740 H   0  0  0  0  0  0
   17.6026   20.8041   15.3346 H   0  0  0  0  0  0
   13.6020   18.1783   17.2434 H   0  0  0  0  0  0
   16.0214   17.8677   17.5090 H   0  0  0  0  0  0
   13.9023   19.1085   19.9061 H   0  0  0  0  0  0
   13.4927   20.6080   19.0060 H   0  0  0  0  0  0
   11.2594   17.2295   18.3223 H   0  0  0  0  0  0
   10.3085   16.5262   16.9082 H   0  0  0  0  0  0
   11.8959   16.6834   15.0424 H   0  0  0  0  0  0
   11.6279   18.4344   14.7440 H   0  0  0  0  0  0
   11.2995   17.2408   13.4423 H   0  0  0  0  0  0
    9.9300   15.1295   15.1267 H   0  0  0  0  0  0
    9.3958   15.7701   13.5358 H   0  0  0  0  0  0
    8.2689   15.7855   14.9346 H   0  0  0  0  0  0
    9.2811   19.3212   14.5578 H   0  0  0  0  0  0
    7.8992   18.1748   14.6105 H   0  0  0  0  0  0
    9.0261   18.1594   13.2118 H   0  0  0  0  0  0
    7.8016   18.3631   16.9308 H   0  0  0  0  0  0
    4.8859   15.9293   19.2389 H   0  0  0  0  0  0
    6.5001   15.5314   19.9191 H   0  0  0  0  0  0
    5.8950   14.6566   18.4716 H   0  0  0  0  0  0
   11.6712   18.9057   21.1117 H   0  0  0  0  0  0
   11.8271   20.6094   20.5642 H   0  0  0  0  0  0
   10.0560   21.8102   19.6925 H   0  0  0  0  0  0
    7.5983   22.1006   19.5680 H   0  0  0  0  0  0
    9.5125   17.6913   20.8053 H   0  0  0  0  0  0
    7.0418   17.9770   20.6500 H   0  0  0  0  0  0
    5.8018   21.6888   18.4009 H   0  0  0  0  0  0
    3.3277   21.9657   18.2387 H   0  0  0  0  0  0
    1.8520   20.6573   19.7635 H   0  0  0  0  0  0
    2.8631   19.0993   21.4180 H   0  0  0  0  0  0
  1  2  1  0  0  0
  1 52  1  0  0  0
  1 53  1  0  0  0
  1 54  1  0  0  0
  2  3  1  0  0  0
  3  4  2  0  0  0
  3  5  1  0  0  0
  5  6  1  0  0  0
  5 55  1  0  0  0
  6  7  1  0  0  0
  6 11  1  0  0  0
  6 56  1  0  0  0
  7  8  1  0  0  0
  7  9  1  0  0  0
  7 10  1  0  0  0
  8 57  1  0  0  0
  8 58  1  0  0  0
  8 59  1  0  0  0
  9 60  1  0  0  0
  9 61  1  0  0  0
  9 62  1  0  0  0
 10 63  1  0  0  0
 10 64  1  0  0  0
 10 65  1  0  0  0
 11 12  2  0  0  0
 11 13  1  0  0  0
 13 14  1  0  0  0
 13 66  1  0  0  0
 14 15  1  0  0  0
 14 22  1  0  0  0
 14 67  1  0  0  0
 15 16  1  0  0  0
 15 68  1  0  0  0
 15 69  1  0  0  0
 16 17  2  0  0  0
 16 21  1  0  0  0
 17 18  1  0  0  0
 17 70  1  0  0  0
 18 19  2  0  0  0
 18 71  1  0  0  0
 19 20  1  0  0  0
 19 72  1  0  0  0
 20 21  2  0  0  0
 20 73  1  0  0  0
 21 74  1  0  0  0
 22 23  1  0  0  0
 22 24  1  0  0  0
 22 75  1  0  0  0
 23 76  1  0  0  0
 24 25  1  0  0  0
 24 77  1  0  0  0
 24 78  1  0  0  0
 25 26  1  0  0  0
 25 39  1  0  0  0
 26 27  1  0  0  0
 26 79  1  0  0  0
 27 28  2  0  0  0
 27 29  1  0  0  0
 29 30  1  0  0  0
 29 34  1  0  0  0
 29 80  1  0  0  0
 30 31  1  0  0  0
 30 32  1  0  0  0
 30 33  1  0  0  0
 31 81  1  0  0  0
 31 82  1  0  0  0
 31 83  1  0  0  0
 32 84  1  0  0  0
 32 85  1  0  0  0
 32 86  1  0  0  0
 33 87  1  0  0  0
 33 88  1  0  0  0
 33 89  1  0  0  0
 34 35  1  0  0  0
 34 90  1  0  0  0
 35 36  2  0  0  0
 35 37  1  0  0  0
 37 38  1  0  0  0
 38 91  1  0  0  0
 38 92  1  0  0  0
 38 93  1  0  0  0
 39 40  1  0  0  0
 39 94  1  0  0  0
 39 95  1  0  0  0
 40 41  2  0  0  0
 40 43  1  0  0  0
 41 42  1  0  0  0
 41 96  1  0  0  0
 42 45  2  0  0  0
 42 97  1  0  0  0
 43 44  2  0  0  0
 43 98  1  0  0  0
 44 45  1  0  0  0
 44 99  1  0  0  0
 45 46  1  0  0  0
 46 47  2  0  0  0
 46 51  1  0  0  0
 47 48  1  0  0  0
 47100  1  0  0  0
 48 49  2  0  0  0
 48101  1  0  0  0
 49 50  1  0  0  0
 49102  1  0  0  0
 50 51  2  0  0  0
 50103  1  0  0  0
M  END
> <s_m_source_file>
../2o4k_ligand.sdf

> <i_m_source_file_index>
1

> <s_epik_input>
W0NIM11PQyg9TylbTkhdW0NAQEhdKEMoW0NIM10pKFtDSDNdKVtDSDNdKUMoPU8pW05IXVtDQEBIXShbQ0gyXWMxW2NIXVtjSF1bY0hdW2NIXVtjSF0xKVtDQEBIXShbT0hdKVtDSDJdW05AQEgrXShbTkhdQyg9TylbQ0BIXShDKFtDSDNdKShbQ0gzXSlbQ0gzXSlbTkhdQyg9TylPW0NIM10pW0NIMl1jMltjSF1bY0hdYyhbY0hdW2NIXTIpLWMzW2NIXVtjSF1bY0hdW2NIXW4z

> <s_epik_cmdline>
J2VwaWtfYXBwJywgJy1pbWFlJywgJ2xpZ2FuZF9wcm8ubWFlJywgJy1vbWFlJywgJ2xpZ2FuZF9wcmVwLm1hZScsICctbXMnLCAnMScsICctcGgnLCAnNycsICctcGh0JywgJzAuNScsICctbnQn

> <r_epik_Ionization_Penalty>
  0.0101

> <r_epik_Ionization_Penalty_Charging>
  0.0000

> <r_epik_Ionization_Penalty_Neutral>
  0.0101

> <r_epik_State_Penalty>
  0.0077

> <r_epik_Charging_Adjusted_Penalty>
0.0077056098726133

> <i_epik_Tot_Q>
0

> <i_epik_Tot_abs_Q>
0

> <s_epik_Chemistry_Notes>
This compound has an ester and may undergo hydrolysis at high or low pH.

$$$$
