2o4l_ligand
                    3D
 Schrodinger Suite 2020-3.
 74 77  0  0  1  0            999 V2000
  -16.0880   22.0460   17.0640 O   0  0  0  0  0  0
  -17.3050   21.3080   17.2500 C   0  0  0  0  0  0
  -17.2570   19.9700   17.8440 C   0  0  0  0  0  0
  -16.0410   19.4140   18.0920 C   0  0  0  0  0  0
  -14.7450   20.1290   17.7510 C   0  0  0  0  0  0
  -14.8580   21.6540   17.6830 C   0  0  2  0  0  0
  -18.3210   21.8640   16.8750 O   0  0  0  0  0  0
  -15.9190   18.1980   18.6100 O   0  5  0  0  0  0
  -14.7790   22.2010   19.1190 C   0  0  0  0  0  0
  -14.9540   23.7160   19.2320 C   0  0  0  0  0  0
  -14.8230   24.1530   20.6710 C   0  0  0  0  0  0
  -13.7470   22.2220   16.7960 C   0  0  0  0  0  0
  -13.8150   21.7920   15.3290 C   0  0  0  0  0  0
  -12.7100   22.4940   14.5620 C   0  0  0  0  0  0
  -11.4090   21.9960   14.6290 C   0  0  0  0  0  0
  -10.3780   22.6300   13.9420 C   0  0  0  0  0  0
  -10.6470   23.7590   13.1720 C   0  0  0  0  0  0
  -11.9520   24.2610   13.0980 C   0  0  0  0  0  0
  -12.9830   23.6270   13.7910 C   0  0  0  0  0  0
  -18.5930   19.2740   18.0760 C   0  0  2  0  0  0
  -18.6860   18.4680   19.3850 C   0  0  0  0  0  0
  -18.5710   19.3060   20.6440 C   0  0  0  0  0  0
  -18.9780   18.4390   16.8780 C   0  0  0  0  0  0
  -18.0340   18.0090   15.9410 C   0  0  0  0  0  0
  -18.4250   17.2430   14.8460 C   0  0  0  0  0  0
  -19.7590   16.8950   14.6730 C   0  0  0  0  0  0
  -20.7190   17.3000   15.5930 C   0  0  0  0  0  0
  -22.0280   16.9480   15.4050 N   0  0  0  0  0  0
  -20.3210   18.0740   16.6870 C   0  0  0  0  0  0
  -22.6400   15.5980   16.0560 S   0  0  0  0  0  0
  -21.7500   14.5110   15.6780 O   0  0  0  0  0  0
  -24.0140   15.4550   15.6110 O   0  0  0  0  0  0
  -22.5560   15.8920   17.6470 C   0  0  0  0  0  0
  -21.5050   15.4150   18.3750 N   0  0  0  0  0  0
  -21.3790   15.6760   19.6930 C   0  0  0  0  0  0
  -22.3150   16.4520   20.3730 C   0  0  0  0  0  0
  -23.3950   16.9690   19.6480 C   0  0  0  0  0  0
  -23.5280   16.6890   18.2820 C   0  0  0  0  0  0
  -22.1310   16.7670   21.8380 C   0  0  0  0  0  0
  -21.4310   15.8570   22.4940 F   0  0  0  0  0  0
  -23.2750   16.9800   22.4520 F   0  0  0  0  0  0
  -21.4210   17.8850   21.8740 F   0  0  0  0  0  0
  -13.9874   19.8989   18.5147 H   0  0  0  0  0  0
  -14.3879   19.7913   16.7669 H   0  0  0  0  0  0
  -15.5697   21.7416   19.7304 H   0  0  0  0  0  0
  -13.7959   21.9600   19.5496 H   0  0  0  0  0  0
  -14.1819   24.2200   18.6321 H   0  0  0  0  0  0
  -15.9499   23.9988   18.8602 H   0  0  0  0  0  0
  -14.9511   25.2436   20.7361 H   0  0  0  0  0  0
  -13.8273   23.8775   21.0486 H   0  0  0  0  0  0
  -15.5952   23.6563   21.2768 H   0  0  0  0  0  0
  -13.7948   23.3209   16.8070 H   0  0  0  0  0  0
  -12.7690   21.8937   17.1778 H   0  0  0  0  0  0
  -13.6825   20.7022   15.2598 H   0  0  0  0  0  0
  -14.7937   22.0696   14.9105 H   0  0  0  0  0  0
  -11.1987   21.1061   15.2222 H   0  0  0  0  0  0
   -9.3609   22.2434   14.0065 H   0  0  0  0  0  0
   -9.8417   24.2517   12.6271 H   0  0  0  0  0  0
  -12.1621   25.1471   12.4989 H   0  0  0  0  0  0
  -14.0000   24.0146   13.7313 H   0  0  0  0  0  0
  -19.3291   20.0848   18.1798 H   0  0  0  0  0  0
  -19.6564   17.9520   19.4297 H   0  0  0  0  0  0
  -17.8745   17.7261   19.4173 H   0  0  0  0  0  0
  -18.6475   18.6540   21.5267 H   0  0  0  0  0  0
  -19.3821   20.0488   20.6654 H   0  0  0  0  0  0
  -17.6001   19.8229   20.6530 H   0  0  0  0  0  0
  -16.9847   18.2752   16.0684 H   0  0  0  0  0  0
  -17.6806   16.9146   14.1206 H   0  0  0  0  0  0
  -20.0550   16.2998   13.8091 H   0  0  0  0  0  0
  -22.6678   17.6043   14.7968 H   0  0  0  0  0  0
  -21.0698   18.4017   17.4082 H   0  0  0  0  0  0
  -20.5261   15.2707   20.2375 H   0  0  0  0  0  0
  -24.1359   17.5923   20.1487 H   0  0  0  0  0  0
  -24.3732   17.0830   17.7176 H   0  0  0  0  0  0
  1  2  1  0  0  0
  1  6  1  0  0  0
  2  3  1  0  0  0
  2  7  2  0  0  0
  3  4  2  0  0  0
  3 20  1  0  0  0
  4  5  1  0  0  0
  4  8  1  0  0  0
  5  6  1  0  0  0
  5 43  1  0  0  0
  5 44  1  0  0  0
  6  9  1  0  0  0
  6 12  1  0  0  0
  9 10  1  0  0  0
  9 45  1  0  0  0
  9 46  1  0  0  0
 10 11  1  0  0  0
 10 47  1  0  0  0
 10 48  1  0  0  0
 11 49  1  0  0  0
 11 50  1  0  0  0
 11 51  1  0  0  0
 12 13  1  0  0  0
 12 52  1  0  0  0
 12 53  1  0  0  0
 13 14  1  0  0  0
 13 54  1  0  0  0
 13 55  1  0  0  0
 14 15  2  0  0  0
 14 19  1  0  0  0
 15 16  1  0  0  0
 15 56  1  0  0  0
 16 17  2  0  0  0
 16 57  1  0  0  0
 17 18  1  0  0  0
 17 58  1  0  0  0
 18 19  2  0  0  0
 18 59  1  0  0  0
 19 60  1  0  0  0
 20 21  1  0  0  0
 20 23  1  0  0  0
 20 61  1  0  0  0
 21 22  1  0  0  0
 21 62  1  0  0  0
 21 63  1  0  0  0
 22 64  1  0  0  0
 22 65  1  0  0  0
 22 66  1  0  0  0
 23 24  2  0  0  0
 23 29  1  0  0  0
 24 25  1  0  0  0
 24 67  1  0  0  0
 25 26  2  0  0  0
 25 68  1  0  0  0
 26 27  1  0  0  0
 26 69  1  0  0  0
 27 28  1  0  0  0
 27 29  2  0  0  0
 28 30  1  0  0  0
 28 70  1  0  0  0
 29 71  1  0  0  0
 30 31  2  0  0  0
 30 32  2  0  0  0
 30 33  1  0  0  0
 33 34  2  0  0  0
 33 38  1  0  0  0
 34 35  1  0  0  0
 35 36  2  0  0  0
 35 72  1  0  0  0
 36 37  1  0  0  0
 36 39  1  0  0  0
 37 38  2  0  0  0
 37 73  1  0  0  0
 38 74  1  0  0  0
 39 40  1  0  0  0
 39 41  1  0  0  0
 39 42  1  0  0  0
M  CHG  1   8  -1
M  END
> <s_m_source_file>
../2o4l_ligand.sdf

> <i_m_source_file_index>
1

> <s_epik_input>
W2NIXTFbY0hdW2NIXVtjSF1bY0hdYzFbQ0gyXVtDSDJdW0NAQF0yKFtDSDJdW0NIMl1bQ0gzXSlPQyg9TylDKD1DKFtDSDJdMilbT0hdKVtDQEhdKFtDSDJdW0NIM10pYzNbY0hdW2NIXVtjSF1jKFtjSF0zKVtOSF1TKD1PKSg9TyljNG5bY0hdYyhDKEYpKEYpRilbY0hdW2NIXTQ=

> <s_epik_cmdline>
J2VwaWtfYXBwJywgJy1pbWFlJywgJ2xpZ2FuZF9wcm8ubWFlJywgJy1vbWFlJywgJ2xpZ2FuZF9wcmVwLm1hZScsICctbXMnLCAnMScsICctcGgnLCAnNycsICctcGh0JywgJzAuNScsICctbnQn

> <r_lp_tautomer_probability>
1

> <r_epik_Ionization_Penalty>
  0.2185

> <r_epik_Ionization_Penalty_Charging>
  0.0387

> <r_epik_Ionization_Penalty_Neutral>
  0.1797

> <r_epik_State_Penalty>
 -0.0000

> <r_epik_Charging_Adjusted_Penalty>
0.0387357087021563

> <i_epik_Tot_Q>
-1

> <i_epik_Tot_abs_Q>
1

> <s_epik_Chemistry_Notes>
This compound has an ester and may undergo hydrolysis at high or low pH.

$$$$
