2o4n_ligand
                    3D
 Schrodinger Suite 2020-3.
 74 77  0  0  1  0            999 V2000
   13.4390   22.0880   17.3250 O   0  0  0  0  0  0
   12.2400   21.3430   17.4820 C   0  0  0  0  0  0
   12.2880   19.9940   18.0750 C   0  0  0  0  0  0
   13.5220   19.4490   18.2960 C   0  0  0  0  0  0
   14.8020   20.1640   17.9180 C   0  0  0  0  0  0
   14.6990   21.7010   17.8940 C   0  0  2  0  0  0
   11.2280   21.9170   17.1000 O   0  0  0  0  0  0
   13.6870   18.2290   18.7820 O   0  5  0  0  0  0
   14.8250   22.2280   19.3320 C   0  0  0  0  0  0
   14.4450   23.7110   19.5160 C   0  0  0  0  0  0
   14.5990   24.0380   21.0030 C   0  0  0  0  0  0
   15.7950   22.3330   17.0180 C   0  0  0  0  0  0
   15.6390   22.0370   15.5170 C   0  0  0  0  0  0
   16.7670   22.7170   14.7500 C   0  0  0  0  0  0
   16.4990   23.8410   13.9580 C   0  0  0  0  0  0
   17.5210   24.4830   13.2410 C   0  0  0  0  0  0
   18.8210   23.9890   13.3560 C   0  0  0  0  0  0
   19.1220   22.8720   14.1570 C   0  0  0  0  0  0
   18.0800   22.2340   14.8530 C   0  0  0  0  0  0
   10.9530   19.2680   18.2700 C   0  0  2  0  0  0
   10.8480   18.4350   19.5670 C   0  0  0  0  0  0
   10.9560   19.2550   20.8480 C   0  0  0  0  0  0
   10.6340   18.4070   17.0850 C   0  0  0  0  0  0
   11.6200   17.9050   16.2240 C   0  0  0  0  0  0
   11.2600   17.1140   15.1180 C   0  0  0  0  0  0
    9.9160   16.7880   14.9010 C   0  0  0  0  0  0
    8.9110   17.2650   15.7460 C   0  0  0  0  0  0
    7.5750   16.9820   15.5310 N   0  0  0  0  0  0
    9.2900   18.0730   16.8220 C   0  0  0  0  0  0
    6.8810   15.6480   16.1240 S   0  0  0  0  0  0
    7.6780   14.5190   15.6970 O   0  0  0  0  0  0
    5.5130   15.5280   15.7180 O   0  0  0  0  0  0
    6.9500   15.8740   17.7350 C   0  0  0  0  0  0
    8.0500   15.4610   18.4170 N   0  0  0  0  0  0
    8.1990   15.7020   19.7520 C   0  0  0  0  0  0
    7.2030   16.3550   20.4990 C   0  0  0  0  0  0
    6.0520   16.7900   19.8200 C   0  0  0  0  0  0
    5.9140   16.5380   18.4360 C   0  0  0  0  0  0
    7.3830   16.6610   21.9620 C   0  0  0  0  0  0
    7.9860   15.7200   22.6680 F   0  0  0  0  0  0
    6.2520   17.0630   22.4930 F   0  0  0  0  0  0
    8.1600   17.7280   22.0300 F   0  0  0  0  0  0
   15.5911   19.9099   18.6410 H   0  0  0  0  0  0
   15.1131   19.8508   16.9105 H   0  0  0  0  0  0
   14.1649   21.6484   19.9941 H   0  0  0  0  0  0
   15.8665   22.1245   19.6705 H   0  0  0  0  0  0
   15.1153   24.3391   18.9108 H   0  0  0  0  0  0
   13.4053   23.8661   19.1919 H   0  0  0  0  0  0
   14.3358   25.0920   21.1758 H   0  0  0  0  0  0
   15.6409   23.8650   21.3105 H   0  0  0  0  0  0
   13.9310   23.3920   21.5916 H   0  0  0  0  0  0
   15.7757   23.4262   17.1385 H   0  0  0  0  0  0
   16.7782   21.9475   17.3259 H   0  0  0  0  0  0
   15.6833   20.9505   15.3510 H   0  0  0  0  0  0
   14.6703   22.4223   15.1660 H   0  0  0  0  0  0
   15.4801   24.2234   13.8975 H   0  0  0  0  0  0
   17.3046   25.3454   12.6105 H   0  0  0  0  0  0
   19.6255   24.4820   12.8103 H   0  0  0  0  0  0
   20.1461   22.5073   14.2367 H   0  0  0  0  0  0
   18.2927   21.3632   15.4732 H   0  0  0  0  0  0
   10.2006   20.0675   18.3386 H   0  0  0  0  0  0
    9.8762   17.9205   19.5946 H   0  0  0  0  0  0
   11.6577   17.6908   19.5914 H   0  0  0  0  0  0
   10.8716   18.5879   21.7186 H   0  0  0  0  0  0
   10.1464   19.9991   20.8764 H   0  0  0  0  0  0
   11.9279   19.7695   20.8731 H   0  0  0  0  0  0
   12.6700   18.1286   16.4125 H   0  0  0  0  0  0
   12.0264   16.7554   14.4309 H   0  0  0  0  0  0
    9.6490   16.1508   14.0579 H   0  0  0  0  0  0
    6.9815   17.6937   14.9383 H   0  0  0  0  0  0
    8.5154   18.4602   17.4840 H   0  0  0  0  0  0
    9.1129   15.3802   20.2514 H   0  0  0  0  0  0
    5.2674   17.3206   20.3595 H   0  0  0  0  0  0
    5.0131   16.8537   17.9100 H   0  0  0  0  0  0
  1  2  1  0  0  0
  1  6  1  0  0  0
  2  3  1  0  0  0
  2  7  2  0  0  0
  3  4  2  0  0  0
  3 20  1  0  0  0
  4  5  1  0  0  0
  4  8  1  0  0  0
  5  6  1  0  0  0
  5 43  1  0  0  0
  5 44  1  0  0  0
  6  9  1  0  0  0
  6 12  1  0  0  0
  9 10  1  0  0  0
  9 45  1  0  0  0
  9 46  1  0  0  0
 10 11  1  0  0  0
 10 47  1  0  0  0
 10 48  1  0  0  0
 11 49  1  0  0  0
 11 50  1  0  0  0
 11 51  1  0  0  0
 12 13  1  0  0  0
 12 52  1  0  0  0
 12 53  1  0  0  0
 13 14  1  0  0  0
 13 54  1  0  0  0
 13 55  1  0  0  0
 14 15  2  0  0  0
 14 19  1  0  0  0
 15 16  1  0  0  0
 15 56  1  0  0  0
 16 17  2  0  0  0
 16 57  1  0  0  0
 17 18  1  0  0  0
 17 58  1  0  0  0
 18 19  2  0  0  0
 18 59  1  0  0  0
 19 60  1  0  0  0
 20 21  1  0  0  0
 20 23  1  0  0  0
 20 61  1  0  0  0
 21 22  1  0  0  0
 21 62  1  0  0  0
 21 63  1  0  0  0
 22 64  1  0  0  0
 22 65  1  0  0  0
 22 66  1  0  0  0
 23 24  2  0  0  0
 23 29  1  0  0  0
 24 25  1  0  0  0
 24 67  1  0  0  0
 25 26  2  0  0  0
 25 68  1  0  0  0
 26 27  1  0  0  0
 26 69  1  0  0  0
 27 28  1  0  0  0
 27 29  2  0  0  0
 28 30  1  0  0  0
 28 70  1  0  0  0
 29 71  1  0  0  0
 30 31  2  0  0  0
 30 32  2  0  0  0
 30 33  1  0  0  0
 33 34  2  0  0  0
 33 38  1  0  0  0
 34 35  1  0  0  0
 35 36  2  0  0  0
 35 72  1  0  0  0
 36 37  1  0  0  0
 36 39  1  0  0  0
 37 38  2  0  0  0
 37 73  1  0  0  0
 38 74  1  0  0  0
 39 40  1  0  0  0
 39 41  1  0  0  0
 39 42  1  0  0  0
M  CHG  1   8  -1
M  END
> <s_m_source_file>
../2o4n_ligand.sdf

> <i_m_source_file_index>
1

> <s_epik_input>
W2NIXTFbY0hdW2NIXVtjSF1bY0hdYzFbQ0gyXVtDSDJdW0NAQF0yKFtDSDJdW0NIMl1bQ0gzXSlPQyg9TylDKD1DKFtDSDJdMilbT0hdKVtDQEhdKFtDSDJdW0NIM10pYzNbY0hdW2NIXVtjSF1jKFtjSF0zKVtOSF1TKD1PKSg9TyljNG5bY0hdYyhDKEYpKEYpRilbY0hdW2NIXTQ=

> <s_epik_cmdline>
J2VwaWtfYXBwJywgJy1pbWFlJywgJ2xpZ2FuZF9wcm8ubWFlJywgJy1vbWFlJywgJ2xpZ2FuZF9wcmVwLm1hZScsICctbXMnLCAnMScsICctcGgnLCAnNycsICctcGh0JywgJzAuNScsICctbnQn

> <r_lp_tautomer_probability>
1

> <r_epik_Ionization_Penalty>
  0.2185

> <r_epik_Ionization_Penalty_Charging>
  0.0387

> <r_epik_Ionization_Penalty_Neutral>
  0.1797

> <r_epik_State_Penalty>
 -0.0000

> <r_epik_Charging_Adjusted_Penalty>
0.0387357087021563

> <i_epik_Tot_Q>
-1

> <i_epik_Tot_abs_Q>
1

> <s_epik_Chemistry_Notes>
This compound has an ester and may undergo hydrolysis at high or low pH.

$$$$
