2o4p_ligand
                    3D
 Schrodinger Suite 2020-3.
 74 77  0  0  1  0            999 V2000
   13.6940   22.0290   16.5860 O   0  0  0  0  0  0
   12.4450   21.3450   16.8100 C   0  0  0  0  0  0
   12.4600   20.0390   17.4770 C   0  0  0  0  0  0
   13.6860   19.5000   17.7840 C   0  0  0  0  0  0
   15.0150   20.1740   17.4840 C   0  0  0  0  0  0
   14.9040   21.6890   17.2540 C   0  0  2  0  0  0
   11.4360   21.8930   16.4140 O   0  0  0  0  0  0
   13.8160   18.3200   18.3550 O   0  5  0  0  0  0
   14.8370   22.2820   18.6830 C   0  0  0  0  0  0
   15.2090   23.7360   18.8770 C   0  0  0  0  0  0
   15.1790   24.0350   20.3650 C   0  0  0  0  0  0
   16.0530   22.2100   16.3850 C   0  0  0  0  0  0
   16.0850   21.7480   14.9010 C   0  0  0  0  0  0
   17.2110   22.5020   14.1730 C   0  0  0  0  0  0
   16.9200   23.6110   13.3770 C   0  0  0  0  0  0
   17.9730   24.2740   12.7280 C   0  0  0  0  0  0
   19.3070   23.8590   12.8950 C   0  0  0  0  0  0
   19.6000   22.7600   13.6920 C   0  0  0  0  0  0
   18.5490   22.0790   14.2970 C   0  0  0  0  0  0
   11.0990   19.3940   17.7140 C   0  0  2  0  0  0
   10.8720   18.7230   19.0910 C   0  0  0  0  0  0
   11.0610   19.6620   20.2900 C   0  0  0  0  0  0
   10.7490   18.4410   16.6240 C   0  0  0  0  0  0
   11.6810   17.8550   15.7750 C   0  0  0  0  0  0
   11.2710   16.9740   14.7660 C   0  0  0  0  0  0
    9.9140   16.6820   14.6130 C   0  0  0  0  0  0
    8.9630   17.2540   15.4560 C   0  0  0  0  0  0
    7.6170   16.9830   15.3240 N   0  0  0  0  0  0
    9.3950   18.1330   16.4430 C   0  0  0  0  0  0
    7.0060   15.6130   15.8950 S   0  0  0  0  0  0
    7.8350   14.5030   15.4400 O   0  0  0  0  0  0
    5.6300   15.4630   15.4740 O   0  0  0  0  0  0
    7.1150   15.8600   17.4940 C   0  0  0  0  0  0
    8.1990   15.4390   18.2020 N   0  0  0  0  0  0
    8.3130   15.7160   19.5290 C   0  0  0  0  0  0
    7.3350   16.4380   20.2360 C   0  0  0  0  0  0
    6.2270   16.9090   19.5160 C   0  0  0  0  0  0
    6.1380   16.6190   18.1520 C   0  0  0  0  0  0
    7.4870   16.7890   21.7000 C   0  0  0  0  0  0
    7.9660   15.8230   22.4870 F   0  0  0  0  0  0
    6.3480   17.2330   22.1870 F   0  0  0  0  0  0
    8.3380   17.8100   21.7340 F   0  0  0  0  0  0
   15.7024   20.0216   18.3291 H   0  0  0  0  0  0
   15.4507   19.7367   16.5736 H   0  0  0  0  0  0
   13.8090   22.2006   19.0659 H   0  0  0  0  0  0
   15.5192   21.7261   19.3430 H   0  0  0  0  0  0
   16.2173   23.9133   18.4747 H   0  0  0  0  0  0
   14.4857   24.3734   18.3474 H   0  0  0  0  0  0
   15.4466   25.0887   20.5327 H   0  0  0  0  0  0
   15.9002   23.3865   20.8839 H   0  0  0  0  0  0
   14.1685   23.8465   20.7566 H   0  0  0  0  0  0
   16.0175   23.3089   16.3505 H   0  0  0  0  0  0
   17.0130   21.8875   16.8145 H   0  0  0  0  0  0
   16.2725   20.6649   14.8581 H   0  0  0  0  0  0
   15.1182   21.9718   14.4264 H   0  0  0  0  0  0
   15.8926   23.9562   13.2614 H   0  0  0  0  0  0
   17.7536   25.1252   12.0834 H   0  0  0  0  0  0
   20.1117   24.4009   12.3981 H   0  0  0  0  0  0
   20.6309   22.4383   13.8401 H   0  0  0  0  0  0
   18.7678   21.1887   14.8865 H   0  0  0  0  0  0
   10.4120   20.2519   17.6702 H   0  0  0  0  0  0
    9.8440   18.3353   19.1449 H   0  0  0  0  0  0
   11.5837   17.8937   19.2166 H   0  0  0  0  0  0
   10.8817   19.1067   21.2224 H   0  0  0  0  0  0
   10.3485   20.4970   20.2177 H   0  0  0  0  0  0
   12.0883   20.0554   20.2893 H   0  0  0  0  0  0
   12.7400   18.0831   15.8955 H   0  0  0  0  0  0
   12.0074   16.5188   14.1037 H   0  0  0  0  0  0
    9.5951   15.9992   13.8255 H   0  0  0  0  0  0
    6.9615   17.7115   14.8244 H   0  0  0  0  0  0
    8.6563   18.5970   17.0965 H   0  0  0  0  0  0
    9.1954   15.3652   20.0643 H   0  0  0  0  0  0
    5.4496   17.4906   20.0115 H   0  0  0  0  0  0
    5.2858   16.9932   17.5847 H   0  0  0  0  0  0
  1  2  1  0  0  0
  1  6  1  0  0  0
  2  3  1  0  0  0
  2  7  2  0  0  0
  3  4  2  0  0  0
  3 20  1  0  0  0
  4  5  1  0  0  0
  4  8  1  0  0  0
  5  6  1  0  0  0
  5 43  1  0  0  0
  5 44  1  0  0  0
  6  9  1  0  0  0
  6 12  1  0  0  0
  9 10  1  0  0  0
  9 45  1  0  0  0
  9 46  1  0  0  0
 10 11  1  0  0  0
 10 47  1  0  0  0
 10 48  1  0  0  0
 11 49  1  0  0  0
 11 50  1  0  0  0
 11 51  1  0  0  0
 12 13  1  0  0  0
 12 52  1  0  0  0
 12 53  1  0  0  0
 13 14  1  0  0  0
 13 54  1  0  0  0
 13 55  1  0  0  0
 14 15  2  0  0  0
 14 19  1  0  0  0
 15 16  1  0  0  0
 15 56  1  0  0  0
 16 17  2  0  0  0
 16 57  1  0  0  0
 17 18  1  0  0  0
 17 58  1  0  0  0
 18 19  2  0  0  0
 18 59  1  0  0  0
 19 60  1  0  0  0
 20 21  1  0  0  0
 20 23  1  0  0  0
 20 61  1  0  0  0
 21 22  1  0  0  0
 21 62  1  0  0  0
 21 63  1  0  0  0
 22 64  1  0  0  0
 22 65  1  0  0  0
 22 66  1  0  0  0
 23 24  2  0  0  0
 23 29  1  0  0  0
 24 25  1  0  0  0
 24 67  1  0  0  0
 25 26  2  0  0  0
 25 68  1  0  0  0
 26 27  1  0  0  0
 26 69  1  0  0  0
 27 28  1  0  0  0
 27 29  2  0  0  0
 28 30  1  0  0  0
 28 70  1  0  0  0
 29 71  1  0  0  0
 30 31  2  0  0  0
 30 32  2  0  0  0
 30 33  1  0  0  0
 33 34  2  0  0  0
 33 38  1  0  0  0
 34 35  1  0  0  0
 35 36  2  0  0  0
 35 72  1  0  0  0
 36 37  1  0  0  0
 36 39  1  0  0  0
 37 38  2  0  0  0
 37 73  1  0  0  0
 38 74  1  0  0  0
 39 40  1  0  0  0
 39 41  1  0  0  0
 39 42  1  0  0  0
M  CHG  1   8  -1
M  END
> <s_m_source_file>
../2o4p_ligand.sdf

> <i_m_source_file_index>
1

> <s_epik_input>
W2NIXTFbY0hdW2NIXVtjSF1bY0hdYzFbQ0gyXVtDSDJdW0NAQF0yKFtDSDJdW0NIMl1bQ0gzXSlPQyg9TylDKD1DKFtDSDJdMilbT0hdKVtDQEhdKFtDSDJdW0NIM10pYzNbY0hdW2NIXVtjSF1jKFtjSF0zKVtOSF1TKD1PKSg9TyljNG5bY0hdYyhDKEYpKEYpRilbY0hdW2NIXTQ=

> <s_epik_cmdline>
J2VwaWtfYXBwJywgJy1pbWFlJywgJ2xpZ2FuZF9wcm8ubWFlJywgJy1vbWFlJywgJ2xpZ2FuZF9wcmVwLm1hZScsICctbXMnLCAnMScsICctcGgnLCAnNycsICctcGh0JywgJzAuNScsICctbnQn

> <r_lp_tautomer_probability>
1

> <r_epik_Ionization_Penalty>
  0.2185

> <r_epik_Ionization_Penalty_Charging>
  0.0387

> <r_epik_Ionization_Penalty_Neutral>
  0.1797

> <r_epik_State_Penalty>
 -0.0000

> <r_epik_Charging_Adjusted_Penalty>
0.0387357087021563

> <i_epik_Tot_Q>
-1

> <i_epik_Tot_abs_Q>
1

> <s_epik_Chemistry_Notes>
This compound has an ester and may undergo hydrolysis at high or low pH.

$$$$
