2o4r_ligand
                    3D
 Schrodinger Suite 2020-3.
 72 74  0  0  1  0            999 V2000
   58.6410    8.1120    1.1290 O   0  0  0  0  0  0
   60.0720    8.1510    1.1710 C   0  0  1  0  0  0
   60.4990    6.9420    1.9700 C   0  0  0  0  0  0
   61.1180    7.0430    3.1420 C   0  0  0  0  0  0
   60.1550    5.6100    1.4290 C   0  0  2  0  0  0
   60.6250    4.6310    2.3660 O   0  0  0  0  0  0
   60.8200    5.4780    0.0380 C   0  0  0  0  0  0
   60.5780    8.0860   -0.2670 C   0  0  0  0  0  0
   60.5540    6.6880   -0.8610 C   0  0  0  0  0  0
   60.3190    6.5590   -2.2040 C   0  0  0  0  0  0
   60.3190    5.2430   -2.8880 C   0  0  0  0  0  0
   60.4950    5.1380   -4.2460 C   0  0  0  0  0  0
   60.6700    6.3700   -5.1360 C   0  0  0  0  0  0
   61.9240    6.2130   -6.0160 C   0  0  0  0  0  0
   62.1560    4.7980   -6.6190 C   0  0  0  0  0  0
   60.6070    3.8140   -5.0110 C   0  0  1  0  0  0
   62.0390    3.6800   -5.5630 C   0  0  2  0  0  0
   63.1380    3.7650   -4.4740 C   0  0  0  0  0  0
   60.2830    2.4580   -4.3800 C   0  0  0  0  0  0
   61.0310    1.4330   -5.2850 C   0  0  0  0  0  0
   62.0800    2.2350   -6.0340 C   0  0  0  0  0  0
   62.9260    1.7150   -6.9700 C   0  0  0  0  0  0
   63.9680    2.5330   -7.7070 C   0  0  0  0  0  0
   62.8890    0.2630   -7.3870 C   0  0  0  0  0  0
   63.7670   -0.5750   -6.4670 C   0  0  0  0  0  0
   65.2380   -0.4300   -6.8750 C   0  0  0  0  0  0
   66.0370   -1.6950   -6.6220 C   0  0  0  0  0  0
   66.0010   -2.1750   -5.1590 C   0  0  0  0  0  0
   67.4820   -1.3990   -6.9750 C   0  0  0  0  0  0
   65.5130   -2.7450   -7.4440 O   0  0  0  0  0  0
   58.0621    8.1478    2.0637 H   0  0  0  0  0  0
   60.4230    9.0764    1.6510 H   0  0  0  0  0  0
   61.3742    8.0339    3.5451 H   0  0  0  0  0  0
   61.3740    6.1357    3.7088 H   0  0  0  0  0  0
   59.0689    5.4477    1.3651 H   0  0  0  0  0  0
   60.2295    4.6177    3.3924 H   0  0  0  0  0  0
   61.9090    5.3817    0.1599 H   0  0  0  0  0  0
   60.4279    4.5861   -0.4727 H   0  0  0  0  0  0
   59.9496    8.7238   -0.9060 H   0  0  0  0  0  0
   61.6187    8.4401   -0.3059 H   0  0  0  0  0  0
   60.1209    7.4514   -2.8159 H   0  0  0  0  0  0
   60.1734    4.3375   -2.2806 H   0  0  0  0  0  0
   59.7872    6.4838   -5.7824 H   0  0  0  0  0  0
   60.7808    7.2648   -4.5059 H   0  0  0  0  0  0
   61.8618    6.9040   -6.8696 H   0  0  0  0  0  0
   62.8203    6.4442   -5.4217 H   0  0  0  0  0  0
   61.4066    4.6053   -7.4009 H   0  0  0  0  0  0
   63.1639    4.7466   -7.0565 H   0  0  0  0  0  0
   59.7745    3.9528   -5.7165 H   0  0  0  0  0  0
   63.1786    4.7886   -4.0732 H   0  0  0  0  0  0
   64.1117    3.5048   -4.9147 H   0  0  0  0  0  0
   62.9038    3.0619   -3.6611 H   0  0  0  0  0  0
   60.6488    2.4395   -3.3428 H   0  0  0  0  0  0
   59.1943    2.3007   -4.3877 H   0  0  0  0  0  0
   61.4937    0.6580   -4.6563 H   0  0  0  0  0  0
   60.3158    0.9648   -5.9773 H   0  0  0  0  0  0
   63.9356    3.5736   -7.3520 H   0  0  0  0  0  0
   63.7582    2.5071   -8.7865 H   0  0  0  0  0  0
   64.9663    2.1118   -7.5172 H   0  0  0  0  0  0
   61.8550   -0.1081   -7.3318 H   0  0  0  0  0  0
   63.2579    0.1683   -8.4190 H   0  0  0  0  0  0
   63.6428   -0.2321   -5.4292 H   0  0  0  0  0  0
   63.4723   -1.6321   -6.5416 H   0  0  0  0  0  0
   65.2996   -0.1989   -7.9487 H   0  0  0  0  0  0
   65.7001    0.3843   -6.2976 H   0  0  0  0  0  0
   66.3990   -1.3857   -4.5043 H   0  0  0  0  0  0
   66.6152   -3.0817   -5.0554 H   0  0  0  0  0  0
   64.9632   -2.4004   -4.8725 H   0  0  0  0  0  0
   67.8588   -0.5911   -6.3306 H   0  0  0  0  0  0
   67.5458   -1.0880   -8.0282 H   0  0  0  0  0  0
   68.0894   -2.3033   -6.8223 H   0  0  0  0  0  0
   64.4734   -3.0796   -7.3126 H   0  0  0  0  0  0
  1  2  1  0  0  0
  1 31  1  0  0  0
  2  3  1  0  0  0
  2  8  1  0  0  0
  2 32  1  0  0  0
  3  4  2  0  0  0
  3  5  1  0  0  0
  4 33  1  0  0  0
  4 34  1  0  0  0
  5  6  1  0  0  0
  5  7  1  0  0  0
  5 35  1  0  0  0
  6 36  1  0  0  0
  7  9  1  0  0  0
  7 37  1  0  0  0
  7 38  1  0  0  0
  8  9  1  0  0  0
  8 39  1  0  0  0
  8 40  1  0  0  0
  9 10  2  0  0  0
 10 11  1  0  0  0
 10 41  1  0  0  0
 11 12  2  0  0  0
 11 42  1  0  0  0
 12 13  1  0  0  0
 12 16  1  0  0  0
 13 14  1  0  0  0
 13 43  1  0  0  0
 13 44  1  0  0  0
 14 15  1  0  0  0
 14 45  1  0  0  0
 14 46  1  0  0  0
 15 17  1  0  0  0
 15 47  1  0  0  0
 15 48  1  0  0  0
 16 17  1  0  0  0
 16 19  1  0  0  0
 16 49  1  0  0  0
 17 18  1  0  0  0
 17 21  1  0  0  0
 18 50  1  0  0  0
 18 51  1  0  0  0
 18 52  1  0  0  0
 19 20  1  0  0  0
 19 53  1  0  0  0
 19 54  1  0  0  0
 20 21  1  0  0  0
 20 55  1  0  0  0
 20 56  1  0  0  0
 21 22  2  0  0  0
 22 23  1  0  0  0
 22 24  1  0  0  0
 23 57  1  0  0  0
 23 58  1  0  0  0
 23 59  1  0  0  0
 24 25  1  0  0  0
 24 60  1  0  0  0
 24 61  1  0  0  0
 25 26  1  0  0  0
 25 62  1  0  0  0
 25 63  1  0  0  0
 26 27  1  0  0  0
 26 64  1  0  0  0
 26 65  1  0  0  0
 27 28  1  0  0  0
 27 29  1  0  0  0
 27 30  1  0  0  0
 28 66  1  0  0  0
 28 67  1  0  0  0
 28 68  1  0  0  0
 29 69  1  0  0  0
 29 70  1  0  0  0
 29 71  1  0  0  0
 30 72  1  0  0  0
M  END
> <s_m_source_file>
../2o4r_ligand.sdf

> <i_m_source_file_index>
1

> <s_epik_input>
W09IXVtDQEhdMUMoPVtDSDJdKVtDQEhdKFtPSF0pW0NIMl1DKFtDSDJdMSk9W0NIXS9bQ0hdPUMoXFtDSDJdW0NIMl1bQ0gyXTIpW0NAQEhdKFtDQF0yM1tDSDNdKVtDSDJdW0NIMl1DXDM9QyhcW0NIM10pW0NIMl1bQ0gyXVtDSDJdQyhbQ0gzXSkoW0NIM10pW09IXQ==

> <s_epik_cmdline>
J2VwaWtfYXBwJywgJy1pbWFlJywgJ2xpZ2FuZF9wcm8ubWFlJywgJy1vbWFlJywgJ2xpZ2FuZF9wcmVwLm1hZScsICctbXMnLCAnMScsICctcGgnLCAnNycsICctcGh0JywgJzAuNScsICctbnQn

> <r_lp_tautomer_probability>
1

> <r_epik_Ionization_Penalty>
  0.0000

> <r_epik_Ionization_Penalty_Charging>
  0.0000

> <r_epik_Ionization_Penalty_Neutral>
  0.0000

> <r_epik_State_Penalty>
 -0.0000

> <r_epik_Charging_Adjusted_Penalty>
0

> <i_epik_Tot_Q>
0

> <i_epik_Tot_abs_Q>
0

$$$$
