2o5k_ligand
                    3D
 Schrodinger Suite 2020-3.
 54 57  0  0  1  0            999 V2000
   12.6940   32.1200   -7.0910 C   0  0  0  0  0  0
   13.1860   33.8080   -8.8920 C   0  0  0  0  0  0
   11.3450   32.0610   -9.1550 C   0  0  0  0  0  0
    9.7050   32.4190  -12.3080 C   0  0  0  0  0  0
   10.2440   32.8290  -13.6510 C   0  0  0  0  0  0
   11.6220   31.4910   -7.8370 C   0  0  0  0  0  0
   13.4520   33.2390   -7.5920 C   0  0  0  0  0  0
   12.1250   33.2380   -9.7060 C   0  0  0  0  0  0
   10.4250   31.6800  -10.0340 N   0  0  0  0  0  0
   10.5100   32.5030  -11.1550 C   0  0  0  0  0  0
   11.5430   33.4580  -10.9700 N   0  3  0  0  0  0
    9.4860   32.7690  -14.8500 C   0  0  0  0  0  0
    8.0970   32.2880  -14.8260 C   0  0  0  0  0  0
    7.4720   31.8630  -13.5890 C   0  0  0  0  0  0
    8.2090   31.9120  -12.3580 C   0  0  0  0  0  0
    7.2040   32.2260  -16.2910 Cl  0  0  0  0  0  0
    7.3180   31.3670  -10.9620 Cl  0  0  0  0  0  0
   10.9130   30.3350   -7.2080 C   0  0  0  0  0  0
    9.8420   29.6890   -7.9300 N   0  0  0  0  0  0
    9.6050   28.2410   -7.8410 C   0  0  0  0  0  0
    9.4320   27.6960   -9.2830 C   0  0  0  0  0  0
    8.1030   26.9260   -9.6250 C   0  0  0  0  0  0
    6.8750   27.6250  -10.1620 C   0  0  0  0  0  0
    5.6430   26.8880  -10.4740 C   0  0  0  0  0  0
    5.5840   25.4040  -10.2620 C   0  0  0  0  0  0
    6.7870   24.7100   -9.7370 C   0  0  0  0  0  0
    8.0040   25.4460   -9.4290 C   0  0  0  0  0  0
    4.4120   24.6440  -10.5450 N   0  0  0  0  0  0
    4.3310   23.8470  -12.0890 S   0  0  0  0  0  0
    2.5700   23.7350  -12.6020 C   0  0  0  0  0  0
    4.9510   24.6940  -13.0950 O   0  0  0  0  0  0
    4.7690   22.4350  -11.9830 O   0  0  0  0  0  0
   11.3030   30.0020   -6.0710 O   0  0  0  0  0  0
   14.0370   34.8510   -9.1310 O   0  0  0  0  0  0
   12.9386   31.7280   -6.1038 H   0  0  0  0  0  0
   11.2705   33.1912  -13.7067 H   0  0  0  0  0  0
   14.2436   33.6651   -6.9757 H   0  0  0  0  0  0
    9.9359   33.0810  -15.7925 H   0  0  0  0  0  0
    6.4421   31.5061  -13.5935 H   0  0  0  0  0  0
    9.1936   30.3147   -8.5609 H   0  0  0  0  0  0
   10.4641   27.7582   -7.3522 H   0  0  0  0  0  0
    8.6952   28.0539   -7.2518 H   0  0  0  0  0  0
    9.4714   28.5312   -9.9978 H   0  0  0  0  0  0
   10.2408   26.9845   -9.5056 H   0  0  0  0  0  0
    6.9043   28.7028  -10.3217 H   0  0  0  0  0  0
    4.7725   27.4190  -10.8592 H   0  0  0  0  0  0
    6.7581   23.6318   -9.5797 H   0  0  0  0  0  0
    8.8679   24.9037   -9.0446 H   0  0  0  0  0  0
    3.5788   24.5497   -9.8330 H   0  0  0  0  0  0
    2.1538   24.7477  -12.7077 H   0  0  0  0  0  0
    2.0007   23.1822  -11.8403 H   0  0  0  0  0  0
    2.5015   23.2081  -13.5651 H   0  0  0  0  0  0
   11.9164   34.2678  -11.6140 H   0  0  0  0  0  0
   14.7853   35.1343   -8.3762 H   0  0  0  0  0  0
  1  6  2  0  0  0
  1  7  1  0  0  0
  1 35  1  0  0  0
  2  7  2  0  0  0
  2  8  1  0  0  0
  2 34  1  0  0  0
  3  6  1  0  0  0
  3  8  2  0  0  0
  3  9  1  0  0  0
  4  5  2  0  0  0
  4 10  1  0  0  0
  4 15  1  0  0  0
  5 12  1  0  0  0
  5 36  1  0  0  0
  6 18  1  0  0  0
  7 37  1  0  0  0
  8 11  1  0  0  0
  9 10  2  0  0  0
 10 11  1  0  0  0
 11 53  1  0  0  0
 12 13  2  0  0  0
 12 38  1  0  0  0
 13 14  1  0  0  0
 13 16  1  0  0  0
 14 15  2  0  0  0
 14 39  1  0  0  0
 15 17  1  0  0  0
 18 19  1  0  0  0
 18 33  2  0  0  0
 19 20  1  0  0  0
 19 40  1  0  0  0
 20 21  1  0  0  0
 20 41  1  0  0  0
 20 42  1  0  0  0
 21 22  1  0  0  0
 21 43  1  0  0  0
 21 44  1  0  0  0
 22 23  2  0  0  0
 22 27  1  0  0  0
 23 24  1  0  0  0
 23 45  1  0  0  0
 24 25  2  0  0  0
 24 46  1  0  0  0
 25 26  1  0  0  0
 25 28  1  0  0  0
 26 27  2  0  0  0
 26 47  1  0  0  0
 27 48  1  0  0  0
 28 29  1  0  0  0
 28 49  1  0  0  0
 29 30  1  0  0  0
 29 31  2  0  0  0
 29 32  2  0  0  0
 30 50  1  0  0  0
 30 51  1  0  0  0
 30 52  1  0  0  0
 34 54  1  0  0  0
M  CHG  1  11   1
M  END
> <s_m_source_file>
../2o5k_ligand.sdf

> <i_m_source_file_index>
1

> <s_epik_input>
W0NIM11TKD1PKSg9TylbTkhdYyhbY0hdW2NIXTEpW2NIXVtjSF1jMVtDSDJdW0NIMl1bTkhdQyg9TyljMltjSF1bY0hdYyhbT0hdKWMoYzIzKVtuSF1jKG4zKS1jNFtjSF1bY0hdYyhDbClbY0hdYzRDbA==

> <s_epik_cmdline>
J2VwaWtfYXBwJywgJy1pbWFlJywgJ2xpZ2FuZF9wcm8ubWFlJywgJy1vbWFlJywgJ2xpZ2FuZF9wcmVwLm1hZScsICctbXMnLCAnMScsICctcGgnLCAnNycsICctcGh0JywgJzAuNScsICctbnQn

> <r_lp_tautomer_probability>
1

> <r_epik_Ionization_Penalty>
  0.0088

> <r_epik_Ionization_Penalty_Charging>
  0.0000

> <r_epik_Ionization_Penalty_Neutral>
  0.0088

> <r_epik_State_Penalty>
 -0.0000

> <r_epik_Charging_Adjusted_Penalty>
0

> <i_epik_Tot_Q>
1

> <i_epik_Tot_abs_Q>
1

> <s_epik_Chemistry_Notes>
This compound has an imine and may undergo hydrolysis.

$$$$
