2o63_ligand
                    3D
 Schrodinger Suite 2020-3.
 33 35  0  0  1  0            999 V2000
   76.1760   33.0730   -1.5020 C   0  0  0  0  0  0
   75.6950   34.1640   -2.2140 C   0  0  0  0  0  0
   75.5110   35.4250   -1.4930 C   0  0  0  0  0  0
   75.8190   35.4800   -0.0670 C   0  0  0  0  0  0
   76.2800   34.3540    0.5730 C   0  0  0  0  0  0
   76.4420   33.1690   -0.1350 C   0  0  0  0  0  0
   75.0160   36.6390   -2.1640 C   0  0  0  0  0  0
   74.8600   37.8440   -1.3710 C   0  0  0  0  0  0
   75.1360   37.8380   -0.0590 C   0  0  0  0  0  0
   75.0120   39.0280    0.8590 C   0  0  0  0  0  0
   74.5230   40.2730    0.4350 C   0  0  0  0  0  0
   74.4470   41.3480    1.3250 C   0  0  0  0  0  0
   74.8850   41.1750    2.7190 C   0  0  0  0  0  0
   75.3830   39.8400    3.1330 C   0  0  0  0  0  0
   75.4180   38.8170    2.1920 C   0  0  0  0  0  0
   75.6310   36.6410    0.6020 O   0  0  0  0  0  0
   74.7690   36.6220   -3.3600 O   0  0  0  0  0  0
   75.7850   39.6490    4.3880 O   0  0  0  0  0  0
   74.8130   42.1920    3.5760 O   0  0  0  0  0  0
   73.9940   42.5470    0.9600 O   0  0  0  0  0  0
   74.4100   38.9180   -2.0100 O   0  0  0  0  0  0
   76.8960   32.1090    0.5290 O   0  0  0  0  0  0
   75.4130   34.1070   -3.5160 O   0  0  0  0  0  0
   76.3483   32.1284   -2.0179 H   0  0  0  0  0  0
   76.5185   34.3906    1.6360 H   0  0  0  0  0  0
   74.1995   40.4029   -0.5977 H   0  0  0  0  0  0
   75.7675   37.8291    2.4922 H   0  0  0  0  0  0
   75.7456   40.4777    5.1103 H   0  0  0  0  0  0
   74.4393   43.1700    3.2387 H   0  0  0  0  0  0
   73.6572   42.7165   -0.0734 H   0  0  0  0  0  0
   74.1992   38.8682   -3.0885 H   0  0  0  0  0  0
   77.0385   31.1519    0.0059 H   0  0  0  0  0  0
   75.5477   33.1646   -4.0672 H   0  0  0  0  0  0
  1  2  2  0  0  0
  1  6  1  0  0  0
  1 24  1  0  0  0
  2  3  1  0  0  0
  2 23  1  0  0  0
  3  4  2  0  0  0
  3  7  1  0  0  0
  4  5  1  0  0  0
  4 16  1  0  0  0
  5  6  2  0  0  0
  5 25  1  0  0  0
  6 22  1  0  0  0
  7  8  1  0  0  0
  7 17  2  0  0  0
  8  9  2  0  0  0
  8 21  1  0  0  0
  9 10  1  0  0  0
  9 16  1  0  0  0
 10 11  2  0  0  0
 10 15  1  0  0  0
 11 12  1  0  0  0
 11 26  1  0  0  0
 12 13  2  0  0  0
 12 20  1  0  0  0
 13 14  1  0  0  0
 13 19  1  0  0  0
 14 15  2  0  0  0
 14 18  1  0  0  0
 15 27  1  0  0  0
 18 28  1  0  0  0
 19 29  1  0  0  0
 20 30  1  0  0  0
 21 31  1  0  0  0
 22 32  1  0  0  0
 23 33  1  0  0  0
M  END
> <s_m_source_file>
../2o63_ligand.sdf

> <i_m_source_file_index>
1

> <s_epik_input>
W09IXWMxW2NIXWMoW09IXSlbY0hdYyhjMTIpb2MoYyhjMj1PKVtPSF0pLWMzW2NIXWMoW09IXSljKFtPSF0pYyhbY0hdMylbT0hd

> <s_epik_cmdline>
J2VwaWtfYXBwJywgJy1pbWFlJywgJ2xpZ2FuZF9wcm8ubWFlJywgJy1vbWFlJywgJ2xpZ2FuZF9wcmVwLm1hZScsICctbXMnLCAnMScsICctcGgnLCAnNycsICctcGh0JywgJzAuNScsICctbnQn

> <r_lp_tautomer_probability>
0.999999999957461

> <r_epik_Ionization_Penalty>
  0.0530

> <r_epik_Ionization_Penalty_Charging>
  0.0000

> <r_epik_Ionization_Penalty_Neutral>
  0.0530

> <r_epik_State_Penalty>
  0.0262

> <r_epik_Charging_Adjusted_Penalty>
0.02620480545981

> <i_epik_Tot_Q>
0

> <i_epik_Tot_abs_Q>
0

$$$$
