2o64_ligand
                    3D
 Schrodinger Suite 2020-3.
 32 34  0  0  1  0            999 V2000
   74.0290   38.9190   -1.5840 O   0  0  0  0  0  0
   74.3420   37.8600   -1.0440 C   0  0  0  0  0  0
   74.6040   36.6660   -1.8290 C   0  0  0  0  0  0
   74.5220   36.7960   -3.1630 O   0  0  0  0  0  0
   74.4120   37.7750    0.4280 C   0  0  0  0  0  0
   74.1450   38.9430    1.2880 C   0  0  0  0  0  0
   73.8540   40.1350    0.7860 O   0  0  0  0  0  0
   74.7510   36.4930    1.0510 C   0  0  0  0  0  0
   74.8110   36.3470    2.4310 C   0  0  0  0  0  0
   74.5680   37.4190    3.2870 C   0  0  0  0  0  0
   74.6230   37.2070    4.6040 O   0  0  0  0  0  0
   74.2320   38.7670    2.7390 C   0  0  0  0  0  0
   73.9910   39.8210    3.5090 O   0  0  0  0  0  0
   74.9890   35.4310    0.2540 O   0  0  0  0  0  0
   74.8940   35.5200   -1.1910 C   0  0  0  0  0  0
   75.2110   34.2050   -1.8280 C   0  0  0  0  0  0
   75.7170   33.2280   -0.9570 C   0  0  0  0  0  0
   76.0520   31.9730   -1.4390 C   0  0  1  0  0  0
   76.5390   31.0080   -0.6750 O   0  5  0  0  0  0
   75.8560   31.7120   -2.8510 C   0  0  0  0  0  0
   76.1860   30.5230   -3.2750 O   0  0  0  0  0  0
   75.3380   32.6850   -3.6970 C   0  0  0  0  0  0
   75.0140   33.9390   -3.1760 C   0  0  0  0  0  0
   74.2787   37.7728   -3.6065 H   0  0  0  0  0  0
   73.7876   40.2717   -0.3035 H   0  0  0  0  0  0
   75.0536   35.3720    2.8536 H   0  0  0  0  0  0
   74.8721   36.2076    4.9903 H   0  0  0  0  0  0
   73.7479   40.7917    3.0523 H   0  0  0  0  0  0
   75.8483   33.4579    0.1107 H   0  0  0  0  0  0
   77.0735   32.3250   -1.6455 H   0  0  0  0  0  0
   75.1824   32.4766   -4.7658 H   0  0  0  0  0  0
   74.6019   34.7182   -3.8340 H   0  0  0  0  0  0
  1  2  2  0  0  0
  2  3  1  0  0  0
  2  5  1  0  0  0
  3  4  1  0  0  0
  3 15  2  0  0  0
  4 24  1  0  0  0
  5  6  2  0  0  0
  5  8  1  0  0  0
  6  7  1  0  0  0
  6 12  1  0  0  0
  7 25  1  0  0  0
  8  9  2  0  0  0
  8 14  1  0  0  0
  9 10  1  0  0  0
  9 26  1  0  0  0
 10 11  1  0  0  0
 10 12  2  0  0  0
 11 27  1  0  0  0
 12 13  1  0  0  0
 13 28  1  0  0  0
 14 15  1  0  0  0
 15 16  1  0  0  0
 16 17  2  0  0  0
 16 23  1  0  0  0
 17 18  1  0  0  0
 17 29  1  0  0  0
 18 19  1  0  0  0
 18 20  1  0  0  0
 18 30  1  0  0  0
 20 21  2  0  0  0
 20 22  1  0  0  0
 22 23  2  0  0  0
 22 31  1  0  0  0
 23 32  1  0  0  0
M  CHG  1  19  -1
M  END
> <s_m_source_file>
../2o64_ligand.sdf

> <i_m_source_file_index>
1

> <s_epik_input>
W0NIXTE9W0NIXUMoPU8pW0NIXShbT0hdKVtDSF09QzFjKGMoYzI9TylbT0hdKW9jKGMyMylbY0hdYyhbT0hdKWMoW09IXSljM1tPSF0=

> <s_epik_cmdline>
J2VwaWtfYXBwJywgJy1pbWFlJywgJ2xpZ2FuZF9wcm8ubWFlJywgJy1vbWFlJywgJ2xpZ2FuZF9wcmVwLm1hZScsICctbXMnLCAnMScsICctcGgnLCAnNycsICctcGh0JywgJzAuNScsICctbnQn

> <r_lp_tautomer_probability>
1

> <r_epik_Ionization_Penalty>
  0.2214

> <r_epik_Ionization_Penalty_Charging>
  0.1106

> <r_epik_Ionization_Penalty_Neutral>
  0.1108

> <r_epik_State_Penalty>
 -0.0000

> <r_epik_Charging_Adjusted_Penalty>
0.110599065974321

> <i_epik_Tot_Q>
-1

> <i_epik_Tot_abs_Q>
1

$$$$
