2o65_ligand
                    3D
 Schrodinger Suite 2020-3.
 32 34  0  0  1  0            999 V2000
   75.0050   36.1570   -2.5710 O   0  0  0  0  0  0
   75.3120   35.7230   -1.4820 C   0  0  0  0  0  0
   75.7840   34.3130   -1.2840 C   0  0  0  0  0  0
   75.9250   33.2870   -2.3650 C   0  0  0  0  0  0
   75.6350   33.5700   -3.6340 O   0  0  0  0  0  0
   76.3860   32.0010   -2.0430 C   0  0  0  0  0  0
   76.7080   31.6640   -0.7210 C   0  0  0  0  0  0
   77.1320   30.4420   -0.4210 O   0  0  0  0  0  0
   76.1510   33.9010    0.0940 C   0  0  0  0  0  0
   76.5820   32.5810    0.3250 C   0  0  0  0  0  0
   76.0520   34.8120    1.1300 O   0  0  0  0  0  0
   75.6070   36.1690    0.8810 C   0  0  0  0  0  0
   75.2280   36.6180   -0.3290 C   0  0  0  0  0  0
   75.4620   37.0190    2.0780 C   0  0  0  0  0  0
   75.2920   38.3970    1.9260 C   0  0  0  0  0  0
   75.0920   39.2130    3.0380 C   0  0  0  0  0  0
   74.9690   40.5250    2.8320 O   0  0  0  0  0  0
   75.0260   38.5970    4.4060 C   0  0  0  0  0  0
   74.8330   39.3720    5.4760 O   0  0  0  0  0  0
   75.1680   37.1020    4.5140 C   0  0  0  0  0  0
   75.3740   36.3740    3.3270 C   0  0  0  0  0  0
   75.0910   36.4740    5.7040 O   0  0  0  0  0  0
   75.2725   34.5726   -3.9049 H   0  0  0  0  0  0
   76.4949   31.2553   -2.8305 H   0  0  0  0  0  0
   77.2454   29.6889   -1.2147 H   0  0  0  0  0  0
   76.8224   32.2681    1.3411 H   0  0  0  0  0  0
   74.8623   37.6378   -0.4486 H   0  0  0  0  0  0
   75.3160   38.8379    0.9294 H   0  0  0  0  0  0
   75.0244   40.9289    1.8103 H   0  0  0  0  0  0
   74.7340   40.4609    5.3558 H   0  0  0  0  0  0
   75.4673   35.2891    3.3754 H   0  0  0  0  0  0
   74.9297   37.0558    6.6235 H   0  0  0  0  0  0
  1  2  2  0  0  0
  2  3  1  0  0  0
  2 13  1  0  0  0
  3  4  2  0  0  0
  3  9  1  0  0  0
  4  5  1  0  0  0
  4  6  1  0  0  0
  5 23  1  0  0  0
  6  7  2  0  0  0
  6 24  1  0  0  0
  7  8  1  0  0  0
  7 10  1  0  0  0
  8 25  1  0  0  0
  9 10  2  0  0  0
  9 11  1  0  0  0
 10 26  1  0  0  0
 11 12  1  0  0  0
 12 13  2  0  0  0
 12 14  1  0  0  0
 13 27  1  0  0  0
 14 15  2  0  0  0
 14 21  1  0  0  0
 15 16  1  0  0  0
 15 28  1  0  0  0
 16 17  1  0  0  0
 16 18  2  0  0  0
 17 29  1  0  0  0
 18 19  1  0  0  0
 18 20  1  0  0  0
 19 30  1  0  0  0
 20 21  2  0  0  0
 20 22  1  0  0  0
 21 31  1  0  0  0
 22 32  1  0  0  0
M  END
> <s_m_source_file>
../2o65_ligand.sdf

> <i_m_source_file_index>
1

> <s_epik_input>
W2NIXTFjKFtPSF0pYyhbT0hdKWMoW09IXSlbY0hdYzEtYyhbY0hdYzI9TylvYyhjMjMpW2NIXWMoW09IXSlbY0hdYzNbT0hd

> <s_epik_cmdline>
J2VwaWtfYXBwJywgJy1pbWFlJywgJ2xpZ2FuZF9wcm8ubWFlJywgJy1vbWFlJywgJ2xpZ2FuZF9wcmVwLm1hZScsICctbXMnLCAnMScsICctcGgnLCAnNycsICctcGh0JywgJzAuNScsICctbnQn

> <r_lp_tautomer_probability>
0.999999999957461

> <r_epik_Ionization_Penalty>
  0.0572

> <r_epik_Ionization_Penalty_Charging>
  0.0000

> <r_epik_Ionization_Penalty_Neutral>
  0.0572

> <r_epik_State_Penalty>
  0.0342

> <r_epik_Charging_Adjusted_Penalty>
0.034216159069907

> <i_epik_Tot_Q>
0

> <i_epik_Tot_abs_Q>
0

$$$$
