2o7e_ligand
                    3D
 Schrodinger Suite 2020-3.
 25 26  0  0  1  0            999 V2000
   17.8760   11.8540   38.4490 O   0  5  0  0  0  0
   19.2930   11.4230   38.1420 P   0  0  0  0  0  0
   20.2770   11.6930   39.2550 O   0  0  0  0  0  0
   19.3540    9.9740   37.7040 O   0  5  0  0  0  0
   19.8360   12.4190   36.7270 C   0  0  0  0  0  0
   19.5240   13.9100   37.0140 C   0  0  0  0  0  0
   20.8060   14.6090   36.6620 C   0  0  0  0  0  0
   19.0560   11.9370   35.5460 N   0  3  0  0  0  0
   21.3650   12.2120   36.5160 C   0  0  0  0  0  0
   21.8810   13.6180   36.3640 C   0  0  0  0  0  0
   23.1730   14.0480   36.0090 C   0  0  0  0  0  0
   23.4070   15.4520   35.9310 C   0  0  0  0  0  0
   22.3750   16.4050   36.2170 C   0  0  0  0  0  0
   21.0650   15.9890   36.5770 C   0  0  0  0  0  0
   18.6825   14.2361   36.3851 H   0  0  0  0  0  0
   19.2579   14.0314   38.0744 H   0  0  0  0  0  0
   17.9826   12.0967   35.7256 H   0  0  0  0  0  0
   19.2467   10.8644   35.3936 H   0  0  0  0  0  0
   19.3649   12.4953   34.6500 H   0  0  0  0  0  0
   21.7897   11.6987   37.3913 H   0  0  0  0  0  0
   21.5317   11.6015   35.6163 H   0  0  0  0  0  0
   23.9679   13.3318   35.8007 H   0  0  0  0  0  0
   24.3963   15.8103   35.6465 H   0  0  0  0  0  0
   22.5997   17.4699   36.1571 H   0  0  0  0  0  0
   20.2821   16.7193   36.7817 H   0  0  0  0  0  0
  1  2  1  0  0  0
  2  3  2  0  0  0
  2  4  1  0  0  0
  2  5  1  0  0  0
  5  6  1  0  0  0
  5  8  1  0  0  0
  5  9  1  0  0  0
  6  7  1  0  0  0
  6 15  1  0  0  0
  6 16  1  0  0  0
  7 10  2  0  0  0
  7 14  1  0  0  0
  8 17  1  0  0  0
  8 18  1  0  0  0
  8 19  1  0  0  0
  9 10  1  0  0  0
  9 20  1  0  0  0
  9 21  1  0  0  0
 10 11  1  0  0  0
 11 12  2  0  0  0
 11 22  1  0  0  0
 12 13  1  0  0  0
 12 23  1  0  0  0
 13 14  2  0  0  0
 13 24  1  0  0  0
 14 25  1  0  0  0
M  CHG  3   1  -1   4  -1   8   1
M  END
> <s_m_source_file>
../2o7e_ligand.sdf

> <i_m_source_file_index>
1

> <s_epik_input>
W09IXVAoPU8pKFtPSF0pQyhbQ0gyXTEpKFtOSDMrXSlbQ0gyXWMoYzEyKVtjSF1bY0hdW2NIXVtjSF0y

> <s_epik_cmdline>
J2VwaWtfYXBwJywgJy1pbWFlJywgJ2xpZ2FuZF9wcm8ubWFlJywgJy1vbWFlJywgJ2xpZ2FuZF9wcmVwLm1hZScsICctbXMnLCAnMScsICctcGgnLCAnNycsICctcGh0JywgJzAuNScsICctbnQn

> <r_lp_tautomer_probability>
1

> <r_epik_Ionization_Penalty>
  0.0513

> <r_epik_Ionization_Penalty_Charging>
  0.0513

> <r_epik_Ionization_Penalty_Neutral>
  0.0000

> <r_epik_State_Penalty>
 -0.0000

> <r_epik_Charging_Adjusted_Penalty>
0.0513268491545599

> <i_epik_Tot_Q>
-1

> <i_epik_Tot_abs_Q>
3

$$$$
