2o7n_ligand
                    3D
 Schrodinger Suite 2020-3.
 43 46  0  0  1  0            999 V2000
    2.6560   22.3970   -5.0690 C   0  0  2  0  0  0
    2.4160   24.6610   -4.1060 C   0  0  0  0  0  0
    1.7200   22.2900   -3.8330 C   0  0  0  0  0  0
    4.6110   23.6630   -4.7870 C   0  0  0  0  0  0
    5.0190   22.2440   -5.0240 C   0  0  0  0  0  0
    3.8850   21.4920   -5.1600 C   0  0  0  0  0  0
    3.7380   20.0630   -5.4340 C   0  0  0  0  0  0
    8.2650   20.1940   -4.7320 C   0  0  0  0  0  0
    9.2110   21.0660   -5.2660 C   0  0  0  0  0  0
    7.4210   22.7220   -5.5970 C   0  0  0  0  0  0
    5.3100   24.6610   -4.6190 O   0  0  0  0  0  0
    2.5690   22.8080   -7.6320 C   0  0  0  0  0  0
    2.9740   21.7810   -8.5120 C   0  0  0  0  0  0
    3.7930   22.0650   -9.6150 C   0  0  0  0  0  0
    3.2760   23.6800   -4.7630 N   0  0  0  0  0  0
    1.3500   23.7530   -3.4600 C   0  0  0  0  0  0
    3.6880   18.9300   -5.6500 N   0  0  0  0  0  0
    6.4690   21.8290   -5.0710 C   0  0  0  0  0  0
    6.9220   20.5680   -4.6080 C   0  0  0  0  0  0
    8.7590   22.3250   -5.6680 C   0  0  0  0  0  0
    9.9290   23.4200   -6.2600 Cl  0  0  0  0  0  0
    8.7640   18.6380   -4.2650 Cl  0  0  0  0  0  0
    1.8050   22.4820   -6.3700 C   0  0  0  0  0  0
    4.1860   23.3850   -9.8540 C   0  0  0  0  0  0
    3.7500   24.4310   -9.0320 C   0  0  0  0  0  0
    2.9310   24.1320   -7.9350 C   0  0  0  0  0  0
    5.0290   23.6920  -10.9630 C   0  0  0  0  0  0
    5.6800   23.9470  -11.8880 N   0  0  0  0  0  0
    3.0043   25.2310   -3.3718 H   0  0  0  0  0  0
    2.0030   25.3489   -4.8585 H   0  0  0  0  0  0
    0.8265   21.7062   -4.0992 H   0  0  0  0  0  0
    2.2534   21.7897   -3.0113 H   0  0  0  0  0  0
   10.2577   20.7786   -5.3657 H   0  0  0  0  0  0
    7.1188   23.7100   -5.9443 H   0  0  0  0  0  0
    2.6470   20.7568   -8.3326 H   0  0  0  0  0  0
    4.1196   21.2645  -10.2789 H   0  0  0  0  0  0
    1.3618   23.8926   -2.3690 H   0  0  0  0  0  0
    0.3569   24.0168   -3.8527 H   0  0  0  0  0  0
    6.2134   19.8790   -4.1483 H   0  0  0  0  0  0
    1.3116   21.5153   -6.5492 H   0  0  0  0  0  0
    1.0431   23.2676   -6.2591 H   0  0  0  0  0  0
    4.0425   25.4599   -9.2416 H   0  0  0  0  0  0
    2.5672   24.9427   -7.3037 H   0  0  0  0  0  0
  1  3  1  0  0  0
  1  6  1  0  0  0
  1 15  1  0  0  0
  1 23  1  0  0  0
  2 15  1  0  0  0
  2 16  1  0  0  0
  2 29  1  0  0  0
  2 30  1  0  0  0
  3 16  1  0  0  0
  3 31  1  0  0  0
  3 32  1  0  0  0
  4  5  1  0  0  0
  4 11  2  0  0  0
  4 15  1  0  0  0
  5  6  2  0  0  0
  5 18  1  0  0  0
  6  7  1  0  0  0
  7 17  3  0  0  0
  8  9  2  0  0  0
  8 19  1  0  0  0
  8 22  1  0  0  0
  9 20  1  0  0  0
  9 33  1  0  0  0
 10 18  1  0  0  0
 10 20  2  0  0  0
 10 34  1  0  0  0
 12 13  2  0  0  0
 12 23  1  0  0  0
 12 26  1  0  0  0
 13 14  1  0  0  0
 13 35  1  0  0  0
 14 24  2  0  0  0
 14 36  1  0  0  0
 16 37  1  0  0  0
 16 38  1  0  0  0
 18 19  2  0  0  0
 19 39  1  0  0  0
 20 21  1  0  0  0
 23 40  1  0  0  0
 23 41  1  0  0  0
 24 25  1  0  0  0
 24 27  1  0  0  0
 25 26  2  0  0  0
 25 42  1  0  0  0
 26 43  1  0  0  0
 27 28  3  0  0  0
M  END
> <s_m_source_file>
../2o7n_ligand.sdf

> <i_m_source_file_index>
1

> <s_epik_input>
W2NIXTFbY0hdYyhDI04pW2NIXVtjSF1jMVtDSDJdW0NAQF0yM04oW0NIMl1bQ0gyXVtDSDJdMilDKD1PKUMoPUMzQyNOKWMoW2NIXTQpW2NIXWMoQ2wpW2NIXWM0Q2w=

> <s_epik_cmdline>
J2VwaWtfYXBwJywgJy1pbWFlJywgJ2xpZ2FuZF9wcm8ubWFlJywgJy1vbWFlJywgJ2xpZ2FuZF9wcmVwLm1hZScsICctbXMnLCAnMScsICctcGgnLCAnNycsICctcGh0JywgJzAuNScsICctbnQn

> <r_lp_tautomer_probability>
1

> <r_epik_Ionization_Penalty>
  0.0000

> <r_epik_Ionization_Penalty_Charging>
  0.0000

> <r_epik_Ionization_Penalty_Neutral>
  0.0000

> <r_epik_State_Penalty>
 -0.0000

> <r_epik_Charging_Adjusted_Penalty>
0

> <i_epik_Tot_Q>
0

> <i_epik_Tot_abs_Q>
0

$$$$
