2o8h_ligand
                    3D
 Schrodinger Suite 2020-3.
 63 67  0  0  1  0            999 V2000
    7.9370   24.8170   36.6220 C   0  0  0  0  0  0
   10.0700   25.2340   37.6230 C   0  0  0  0  0  0
   11.7740   18.4970   42.2000 C   0  0  0  0  0  0
   13.4500   16.8530   43.7390 C   0  0  0  0  0  0
   12.3590   17.3890   41.6300 C   0  0  0  0  0  0
   13.2160   16.5530   42.3880 C   0  0  0  0  0  0
   11.3610   23.7230   43.5990 C   0  0  0  0  0  0
   14.8840   14.7580   42.3200 C   0  0  0  0  0  0
   10.5660   20.9420   43.5530 N   0  0  0  0  0  0
   11.2250   17.8680   39.4860 C   0  0  0  0  0  0
   10.6320   23.1240   44.7710 C   0  0  0  0  0  0
   13.7850   15.4800   41.7600 O   0  0  0  0  0  0
   12.2080   23.6100   41.3490 C   0  0  0  0  0  0
   12.4920   21.4350   39.6100 O   0  0  0  0  0  0
   12.4840   22.8520   39.6820 S   0  0  0  0  0  0
   13.7330   23.3480   39.3350 O   0  0  0  0  0  0
   11.1980   23.3940   38.6640 N   0  0  2  0  0  0
   11.0460   24.8610   38.7410 C   0  0  0  0  0  0
    8.7950   24.5290   37.7880 N   0  0  0  0  0  0
    8.9060   23.0660   37.9220 C   0  0  0  0  0  0
    9.9460   22.6980   38.9680 C   0  0  0  0  0  0
   12.7040   24.9180   41.4800 C   0  0  0  0  0  0
   12.5330   25.6060   42.6850 C   0  0  0  0  0  0
   11.5320   23.0100   42.4030 C   0  0  0  0  0  0
   10.9920   21.5980   42.2850 C   0  0  0  0  0  0
   11.8650   25.0050   43.7310 C   0  0  0  0  0  0
    9.7830   21.9110   44.3290 C   0  0  0  0  0  0
   11.4040   19.9570   44.1840 C   0  0  0  0  0  0
   11.9990   18.8290   43.5440 C   0  0  0  0  0  0
   11.6700   20.1390   45.4930 N   0  0  0  0  0  0
   12.3340   19.1900   46.1840 C   0  0  0  0  0  0
   13.0480   18.2310   45.5780 N   0  0  0  0  0  0
   12.8380   17.9650   44.2980 C   0  0  0  0  0  0
   12.1550   17.1180   40.3110 O   0  0  0  0  0  0
    7.8379   25.9057   36.4997 H   0  0  0  0  0  0
    6.9428   24.3737   36.7800 H   0  0  0  0  0  0
    8.3910   24.3862   35.7174 H   0  0  0  0  0  0
    9.8817   26.3175   37.6471 H   0  0  0  0  0  0
   10.5040   24.9588   36.6504 H   0  0  0  0  0  0
   11.1233   19.1286   41.5952 H   0  0  0  0  0  0
   14.1035   16.2210   44.3404 H   0  0  0  0  0  0
   15.1704   13.9414   41.6409 H   0  0  0  0  0  0
   14.5895   14.3390   43.2935 H   0  0  0  0  0  0
   15.7379   15.4379   42.4566 H   0  0  0  0  0  0
   11.2352   17.4647   38.4626 H   0  0  0  0  0  0
   11.5239   18.9264   39.4660 H   0  0  0  0  0  0
   10.2114   17.7811   39.9043 H   0  0  0  0  0  0
   11.3607   22.7905   45.5245 H   0  0  0  0  0  0
    9.9664   23.8795   45.2139 H   0  0  0  0  0  0
   12.0058   25.3723   38.5755 H   0  0  0  0  0  0
   10.6284   25.1700   39.7106 H   0  0  0  0  0  0
    7.9339   22.6509   38.2266 H   0  0  0  0  0  0
    9.2041   22.6309   36.9567 H   0  0  0  0  0  0
   10.1175   21.6116   38.9532 H   0  0  0  0  0  0
    9.5914   22.9996   39.9646 H   0  0  0  0  0  0
   13.2197   25.3941   40.6461 H   0  0  0  0  0  0
   12.9271   26.6160   42.7975 H   0  0  0  0  0  0
   11.7939   21.0073   41.8180 H   0  0  0  0  0  0
   10.1349   21.6601   41.5983 H   0  0  0  0  0  0
   11.7329   25.5440   44.6692 H   0  0  0  0  0  0
    8.9482   22.2823   43.7165 H   0  0  0  0  0  0
    9.3867   21.4232   45.2318 H   0  0  0  0  0  0
   12.2884   19.2033   47.2730 H   0  0  0  0  0  0
  1 19  1  0  0  0
  1 35  1  0  0  0
  1 36  1  0  0  0
  1 37  1  0  0  0
  2 18  1  0  0  0
  2 19  1  0  0  0
  2 38  1  0  0  0
  2 39  1  0  0  0
  3  5  2  0  0  0
  3 29  1  0  0  0
  3 40  1  0  0  0
  4  6  2  0  0  0
  4 33  1  0  0  0
  4 41  1  0  0  0
  5  6  1  0  0  0
  5 34  1  0  0  0
  6 12  1  0  0  0
  7 11  1  0  0  0
  7 24  2  0  0  0
  7 26  1  0  0  0
  8 12  1  0  0  0
  8 42  1  0  0  0
  8 43  1  0  0  0
  8 44  1  0  0  0
  9 25  1  0  0  0
  9 27  1  0  0  0
  9 28  1  0  0  0
 10 34  1  0  0  0
 10 45  1  0  0  0
 10 46  1  0  0  0
 10 47  1  0  0  0
 11 27  1  0  0  0
 11 48  1  0  0  0
 11 49  1  0  0  0
 13 15  1  0  0  0
 13 22  2  0  0  0
 13 24  1  0  0  0
 14 15  2  0  0  0
 15 16  2  0  0  0
 15 17  1  0  0  0
 17 18  1  0  0  0
 17 21  1  0  0  0
 18 50  1  0  0  0
 18 51  1  0  0  0
 19 20  1  0  0  0
 20 21  1  0  0  0
 20 52  1  0  0  0
 20 53  1  0  0  0
 21 54  1  0  0  0
 21 55  1  0  0  0
 22 23  1  0  0  0
 22 56  1  0  0  0
 23 26  2  0  0  0
 23 57  1  0  0  0
 24 25  1  0  0  0
 25 58  1  0  0  0
 25 59  1  0  0  0
 26 60  1  0  0  0
 27 61  1  0  0  0
 27 62  1  0  0  0
 28 29  2  0  0  0
 28 30  1  0  0  0
 29 33  1  0  0  0
 30 31  2  0  0  0
 31 32  1  0  0  0
 31 63  1  0  0  0
 32 33  2  0  0  0
M  END
> <s_m_source_file>
../2o8h_ligand.sdf

> <i_m_source_file_index>
1

> <s_epik_input>
W0NIMl0xW0NIMl1bTkgrXShbQ0gzXSlbQ0gyXVtDSDJdTjFTKD1PKSg9TyljKFtjSF1bY0hdW2NIXTIpYyhjMjMpW0NIMl1OKFtDSDJdW0NIMl0zKWM0bltjSF1uYyhjNDUpW2NIXWMoT1tDSDNdKWMoW2NIXTUpT1tDSDNd

> <s_epik_cmdline>
J2VwaWtfYXBwJywgJy1pbWFlJywgJ2xpZ2FuZF9wcm8ubWFlJywgJy1vbWFlJywgJ2xpZ2FuZF9wcmVwLm1hZScsICctbXMnLCAnMScsICctcGgnLCAnNycsICctcGh0JywgJzAuNScsICctbnQn

> <r_lp_tautomer_probability>
1

> <r_epik_Ionization_Penalty>
  0.2707

> <r_epik_Ionization_Penalty_Charging>
  0.0000

> <r_epik_Ionization_Penalty_Neutral>
  0.2707

> <r_epik_State_Penalty>
 -0.0000

> <r_epik_Charging_Adjusted_Penalty>
0

> <i_epik_Tot_Q>
0

> <i_epik_Tot_abs_Q>
0

$$$$
