2o9a_ligand
                    3D
 Schrodinger Suite 2020-3.
 11 10  0  0  1  0            999 V2000
    8.9790    0.6400  -34.5600 C   0  0  0  0  0  0
    9.6820    1.2200  -35.3980 O   0  0  0  0  0  0
    8.4970   -0.4880  -34.7690 O   0  5  0  0  0  0
    8.6510    1.3680  -33.2560 C   0  0  1  0  0  0
    9.4630    2.5480  -33.1830 O   0  0  0  0  0  0
    7.1270    1.5910  -33.0110 C   0  0  0  0  0  0
    8.9875    0.7764  -32.3918 H   0  0  0  0  0  0
   10.5490    2.4791  -33.3435 H   0  0  0  0  0  0
    6.5986    0.6294  -33.0889 H   0  0  0  0  0  0
    6.7326    2.2882  -33.7649 H   0  0  0  0  0  0
    6.9750    2.0127  -32.0065 H   0  0  0  0  0  0
  1  2  2  0  0  0
  1  3  1  0  0  0
  1  4  1  0  0  0
  4  5  1  0  0  0
  4  6  1  0  0  0
  4  7  1  0  0  0
  5  8  1  0  0  0
  6  9  1  0  0  0
  6 10  1  0  0  0
  6 11  1  0  0  0
M  CHG  1   3  -1
M  END
> <s_m_source_file>
../2o9a_ligand.sdf

> <i_m_source_file_index>
1

> <s_epik_input>
Tz1DKFtPSF0pW0NAQEhdKFtPSF0pW0NIM10=

> <s_epik_cmdline>
J2VwaWtfYXBwJywgJy1pbWFlJywgJ2xpZ2FuZF9wcm8ubWFlJywgJy1vbWFlJywgJ2xpZ2FuZF9wcmVwLm1hZScsICctbXMnLCAnMScsICctcGgnLCAnNycsICctcGh0JywgJzAuNScsICctbnQn

> <r_lp_tautomer_probability>
1

> <r_epik_Ionization_Penalty>
  0.0004

> <r_epik_Ionization_Penalty_Charging>
  0.0004

> <r_epik_Ionization_Penalty_Neutral>
  0.0000

> <r_epik_State_Penalty>
 -0.0000

> <r_epik_Charging_Adjusted_Penalty>
0.000364707126146154

> <i_epik_Tot_Q>
-1

> <i_epik_Tot_abs_Q>
1

$$$$
