2o9j_ligand
                    3D
 Schrodinger Suite 2020-3.
 44 48  0  0  1  0            999 V2000
   34.3080   10.5230   13.5530 O   0  5  0  0  0  0
   34.1590   11.0130   12.3680 C   0  0  0  0  0  0
   35.3190   11.0730   11.4340 C   0  0  0  0  0  0
   36.7090   10.5750   11.5980 C   0  0  0  0  0  0
   37.3290   10.8380   12.6200 O   0  0  0  0  0  0
   37.2650    9.7640   10.4590 C   0  0  0  0  0  0
   32.8760   11.6320   11.9390 C   0  0  2  0  0  0
   31.6820   10.8670   11.3810 C   0  0  1  0  0  0
   30.6420   10.6740   12.4150 C   0  0  0  0  0  0
   30.6670    9.7980   13.4810 C   0  0  0  0  0  0
   29.4760   10.0310   14.1100 N   0  3  0  0  0  0
   28.7670   10.9960   13.4650 C   0  0  0  0  0  0
   29.5080   11.4140   12.3760 C   0  0  0  0  0  0
   27.5280   11.6010   13.6730 C   0  0  0  0  0  0
   27.0780   12.5930   12.7910 C   0  0  0  0  0  0
   27.8540   12.9910   11.6990 C   0  0  0  0  0  0
   29.0880   12.3800   11.5010 C   0  0  0  0  0  0
   30.0140   12.7220   10.3610 C   0  0  0  0  0  0
   31.2120   11.7620   10.1930 C   0  0  1  0  0  0
   32.4140   12.6060    9.7530 C   0  0  0  0  0  0
   32.7250   12.3750    8.2780 C   0  0  0  0  0  0
   32.1760   14.0820   10.0390 C   0  0  0  0  0  0
   33.4400   12.0240   10.6320 N   0  0  0  0  0  0
   34.6920   11.7380   10.2640 C   0  0  0  0  0  0
   35.3480   12.0640    8.9780 O   0  0  0  0  0  0
   36.5065    9.6758    9.6672 H   0  0  0  0  0  0
   37.5357    8.7611   10.8209 H   0  0  0  0  0  0
   38.1592   10.2623   10.0563 H   0  0  0  0  0  0
   32.4905   12.2176   12.7867 H   0  0  0  0  0  0
   31.9057    9.8286   11.0950 H   0  0  0  0  0  0
   31.5343    9.1381   13.6303 H   0  0  0  0  0  0
   26.9104   11.3029   14.5202 H   0  0  0  0  0  0
   26.1081   13.0611   12.9593 H   0  0  0  0  0  0
   27.4998   13.7639   11.0168 H   0  0  0  0  0  0
   29.4539   12.7003    9.4145 H   0  0  0  0  0  0
   30.4317   13.7276   10.5169 H   0  0  0  0  0  0
   30.8327   11.0347    9.4601 H   0  0  0  0  0  0
   31.9335   12.8259    7.6614 H   0  0  0  0  0  0
   32.7743   11.2944    8.0786 H   0  0  0  0  0  0
   33.6915   12.8381    8.0302 H   0  0  0  0  0  0
   31.4032   14.4675    9.3577 H   0  0  0  0  0  0
   33.1113   14.6405    9.8863 H   0  0  0  0  0  0
   31.8415   14.2045   11.0797 H   0  0  0  0  0  0
   29.2112    9.4633   15.0142 H   0  0  0  0  0  0
  1  2  1  0  0  0
  2  3  2  0  0  0
  2  7  1  0  0  0
  3  4  1  0  0  0
  3 24  1  0  0  0
  4  5  2  0  0  0
  4  6  1  0  0  0
  6 26  1  0  0  0
  6 27  1  0  0  0
  6 28  1  0  0  0
  7  8  1  0  0  0
  7 23  1  0  0  0
  7 29  1  0  0  0
  8  9  1  0  0  0
  8 19  1  0  0  0
  8 30  1  0  0  0
  9 10  2  0  0  0
  9 13  1  0  0  0
 10 11  1  0  0  0
 10 31  1  0  0  0
 11 12  1  0  0  0
 11 44  1  0  0  0
 12 13  2  0  0  0
 12 14  1  0  0  0
 13 17  1  0  0  0
 14 15  2  0  0  0
 14 32  1  0  0  0
 15 16  1  0  0  0
 15 33  1  0  0  0
 16 17  2  0  0  0
 16 34  1  0  0  0
 17 18  1  0  0  0
 18 19  1  0  0  0
 18 35  1  0  0  0
 18 36  1  0  0  0
 19 20  1  0  0  0
 19 37  1  0  0  0
 20 21  1  0  0  0
 20 22  1  0  0  0
 20 23  1  0  0  0
 21 38  1  0  0  0
 21 39  1  0  0  0
 21 40  1  0  0  0
 22 41  1  0  0  0
 22 42  1  0  0  0
 22 43  1  0  0  0
 23 24  1  0  0  0
 24 25  2  0  0  0
M  CHG  2   1  -1  11   1
M  END
> <s_m_source_file>
../2o9j_ligand.sdf

> <i_m_source_file_index>
1

> <s_epik_input>
Tz1DMUMoQyg9TylbQ0gzXSk9QyhbT0hdKU4yQyhbQ0gzXSkoW0NIM10pW0NAQEhdM1tDSDJdYzRbY0hdW2NIXVtjSF1jKFtuSF1bY0hdNSljNGM1W0NAQEhdM1tDQEBIXTEy

> <s_epik_cmdline>
J2VwaWtfYXBwJywgJy1pbWFlJywgJ2xpZ2FuZF9wcm8ubWFlJywgJy1vbWFlJywgJ2xpZ2FuZF9wcmVwLm1hZScsICctbXMnLCAnMScsICctcGgnLCAnNycsICctcGh0JywgJzAuNScsICctbnQn

> <r_lp_tautomer_probability>
1

> <r_epik_Ionization_Penalty>
  0.0002

> <r_epik_Ionization_Penalty_Charging>
  0.0002

> <r_epik_Ionization_Penalty_Neutral>
  0.0000

> <r_epik_State_Penalty>
 -0.0000

> <r_epik_Charging_Adjusted_Penalty>
0.000199786244761236

> <i_epik_Tot_Q>
0

> <i_epik_Tot_abs_Q>
2

$$$$
