2o9k_ligand
                    3D
 Schrodinger Suite 2020-3.
110109  0  0  1  0            999 V2000
  -31.1180   28.5300    2.7730 N   0  3  0  0  0  0
  -30.5230   28.2100    4.1040 C   0  0  2  0  0  0
  -31.5860   27.9500    5.2100 C   0  0  0  0  0  0
  -32.7910   28.0380    4.9680 O   0  0  0  0  0  0
  -29.5520   29.3130    4.5030 C   0  0  0  0  0  0
  -31.1130   27.5990    6.4110 N   0  0  0  0  0  0
  -31.9330   27.3640    7.6000 C   0  0  2  0  0  0
  -32.7450   28.6110    7.9790 C   0  0  0  0  0  0
  -33.7810   28.5250    8.6600 O   0  0  0  0  0  0
  -31.0260   26.9050    8.7580 C   0  0  0  0  0  0
  -31.6290   26.9800   10.1760 C   0  0  0  0  0  0
  -30.5110   26.8830   11.2590 C   0  0  0  0  0  0
  -29.5790   25.7690   11.0420 N   0  0  0  0  0  0
  -29.7620   24.5130   11.4820 C   0  0  0  0  0  0
  -28.8520   23.5730   11.2410 N   0  0  0  0  0  0
  -30.8400   24.1880   12.1850 N   0  3  0  0  0  0
  -32.3060   29.7580    7.4730 N   0  0  0  0  0  0
  -32.9710   31.0400    7.7590 C   0  0  2  0  0  0
  -34.2510   31.2880    6.9220 C   0  0  0  0  0  0
  -34.9740   32.2820    7.1360 O   0  0  0  0  0  0
  -31.9840   32.2100    7.5770 C   0  0  2  0  0  0
  -31.4690   32.1860    6.2480 O   0  0  0  0  0  0
  -30.8200   32.1430    8.6120 C   0  0  0  0  0  0
  -34.5260   30.3880    5.9780 N   0  0  0  0  0  0
  -35.7500   30.4210    5.1780 C   0  0  1  0  0  0
  -35.4780   30.4200    3.6660 C   0  0  0  0  0  0
  -34.7760   31.6690    3.1730 C   0  0  0  0  0  0
  -35.5400   32.9430    3.5390 C   0  0  0  0  0  0
  -35.0110   34.1420    2.7430 C   0  0  0  0  0  0
  -35.2870   35.3800    3.4870 N   0  3  0  0  0  0
  -34.5000   36.4940    2.9040 C   0  0  0  0  0  0
  -36.7270   35.6970    3.4070 C   0  0  0  0  0  0
  -36.5460   29.2050    5.4930 C   0  0  0  0  0  0
  -35.9880   28.1260    5.6410 O   0  0  0  0  0  0
  -37.8640   29.3320    5.5810 N   0  0  0  0  0  0
  -38.6510   28.1450    5.9330 C   0  0  2  0  0  0
  -38.8970   27.2020    4.7540 C   0  0  0  0  0  0
  -39.2190   27.6380    3.6450 O   0  0  0  0  0  0
  -39.9260   28.4750    6.7020 C   0  0  0  0  0  0
  -40.8270   29.5110    6.1120 C   0  0  0  0  0  0
  -42.2590   29.3350    6.5910 C   0  0  0  0  0  0
  -42.9840   30.3070    6.7660 O   0  0  0  0  0  0
  -42.6730   28.0810    6.7980 N   0  0  0  0  0  0
  -38.6890   25.9090    5.0050 N   0  0  0  0  0  0
  -38.7180   24.8870    3.9540 C   0  0  2  0  0  0
  -39.4460   23.6290    4.4370 C   0  0  0  0  0  0
  -39.3870   22.5760    3.7890 O   0  0  0  0  0  0
  -37.2740   24.5020    3.4540 C   0  0  2  0  0  0
  -36.5420   23.8680    4.5110 O   0  0  0  0  0  0
  -36.4870   25.7370    2.9450 C   0  0  0  0  0  0
  -40.1493   23.6684    5.5651 O   0  5  0  0  0  0
  -30.3130   28.7012    2.0431 H   0  0  0  0  0  0
  -31.7364   29.4359    2.8561 H   0  0  0  0  0  0
  -31.7430   27.6887    2.4390 H   0  0  0  0  0  0
  -29.9681   27.2707    3.9635 H   0  0  0  0  0  0
  -28.8191   29.4656    3.6970 H   0  0  0  0  0  0
  -29.0275   29.0237    5.4256 H   0  0  0  0  0  0
  -30.1080   30.2465    4.6746 H   0  0  0  0  0  0
  -30.0199   27.4893    6.4663 H   0  0  0  0  0  0
  -32.6438   26.5693    7.3296 H   0  0  0  0  0  0
  -30.7430   25.8528    8.6071 H   0  0  0  0  0  0
  -30.1200   27.5284    8.7834 H   0  0  0  0  0  0
  -32.1596   27.9357   10.2987 H   0  0  0  0  0  0
  -32.3343   26.1481   10.3190 H   0  0  0  0  0  0
  -29.9200   27.8108   11.2600 H   0  0  0  0  0  0
  -30.9702   26.7397   12.2482 H   0  0  0  0  0  0
  -28.6472   25.9328   10.4808 H   0  0  0  0  0  0
  -27.9498   23.8168   10.6608 H   0  0  0  0  0  0
  -29.0018   22.5520   11.6219 H   0  0  0  0  0  0
  -31.6072   24.9470   12.3979 H   0  0  0  0  0  0
  -31.4187   29.7316    6.8234 H   0  0  0  0  0  0
  -33.2710   30.9303    8.8116 H   0  0  0  0  0  0
  -32.5116   33.1714    7.6624 H   0  0  0  0  0  0
  -32.1571   32.2264    5.3907 H   0  0  0  0  0  0
  -31.2339   32.1624    9.6310 H   0  0  0  0  0  0
  -30.1534   33.0065    8.4704 H   0  0  0  0  0  0
  -30.2516   31.2128    8.4648 H   0  0  0  0  0  0
  -33.7822   29.5946    5.8128 H   0  0  0  0  0  0
  -36.2679   31.3459    5.4717 H   0  0  0  0  0  0
  -34.8393   29.5621    3.4089 H   0  0  0  0  0  0
  -36.4310   30.3435    3.1220 H   0  0  0  0  0  0
  -33.7747   31.7292    3.6244 H   0  0  0  0  0  0
  -34.6826   31.6290    2.0777 H   0  0  0  0  0  0
  -36.6076   32.8087    3.3106 H   0  0  0  0  0  0
  -35.4178   33.1482    4.6128 H   0  0  0  0  0  0
  -33.9261   34.0349    2.5964 H   0  0  0  0  0  0
  -35.5111   34.1817    1.7641 H   0  0  0  0  0  0
  -35.0048   35.2355    4.5403 H   0  0  0  0  0  0
  -33.4277   36.2563    2.9644 H   0  0  0  0  0  0
  -34.7027   37.4186    3.4643 H   0  0  0  0  0  0
  -34.7860   36.6332    1.8510 H   0  0  0  0  0  0
  -37.3091   34.8700    3.8397 H   0  0  0  0  0  0
  -37.0139   35.8358    2.3542 H   0  0  0  0  0  0
  -36.9306   36.6213    3.9675 H   0  0  0  0  0  0
  -38.3686   30.2922    5.3985 H   0  0  0  0  0  0
  -37.9802   27.6204    6.6294 H   0  0  0  0  0  0
  -40.5417   27.5684    6.7974 H   0  0  0  0  0  0
  -39.6642   28.8475    7.7034 H   0  0  0  0  0  0
  -40.4792   30.5114    6.4089 H   0  0  0  0  0  0
  -40.8122   29.4282    5.0152 H   0  0  0  0  0  0
  -41.9854   27.2395    6.6273 H   0  0  0  0  0  0
  -43.7013   27.8905    7.1391 H   0  0  0  0  0  0
  -38.4898   25.6203    6.0476 H   0  0  0  0  0  0
  -39.2961   25.3688    3.1517 H   0  0  0  0  0  0
  -37.3313   23.7493    2.6539 H   0  0  0  0  0  0
  -36.9475   22.9692    4.9986 H   0  0  0  0  0  0
  -37.0502   26.2220    2.1341 H   0  0  0  0  0  0
  -35.5047   25.4160    2.5681 H   0  0  0  0  0  0
  -36.3477   26.4492    3.7717 H   0  0  0  0  0  0
  -30.9661   23.1597   12.5547 H   0  0  0  0  0  0
  1  2  1  0  0  0
  1 52  1  0  0  0
  1 53  1  0  0  0
  1 54  1  0  0  0
  2  5  1  0  0  0
  2  3  1  0  0  0
  2 55  1  0  0  0
  3  4  2  0  0  0
  3  6  1  0  0  0
  5 56  1  0  0  0
  5 57  1  0  0  0
  5 58  1  0  0  0
  6  7  1  0  0  0
  6 59  1  0  0  0
  7 10  1  0  0  0
  7  8  1  0  0  0
  7 60  1  0  0  0
  8  9  2  0  0  0
  8 17  1  0  0  0
 10 11  1  0  0  0
 10 61  1  0  0  0
 10 62  1  0  0  0
 11 12  1  0  0  0
 11 63  1  0  0  0
 11 64  1  0  0  0
 12 13  1  0  0  0
 12 65  1  0  0  0
 12 66  1  0  0  0
 13 14  1  0  0  0
 13 67  1  0  0  0
 14 16  2  0  0  0
 14 15  1  0  0  0
 15 68  1  0  0  0
 15 69  1  0  0  0
 16 70  1  0  0  0
 16110  1  0  0  0
 17 18  1  0  0  0
 17 71  1  0  0  0
 18 21  1  0  0  0
 18 19  1  0  0  0
 18 72  1  0  0  0
 19 20  2  0  0  0
 19 24  1  0  0  0
 21 23  1  0  0  0
 21 22  1  0  0  0
 21 73  1  0  0  0
 22 74  1  0  0  0
 23 75  1  0  0  0
 23 76  1  0  0  0
 23 77  1  0  0  0
 24 25  1  0  0  0
 24 78  1  0  0  0
 25 26  1  0  0  0
 25 33  1  0  0  0
 25 79  1  0  0  0
 26 27  1  0  0  0
 26 80  1  0  0  0
 26 81  1  0  0  0
 27 28  1  0  0  0
 27 82  1  0  0  0
 27 83  1  0  0  0
 28 29  1  0  0  0
 28 84  1  0  0  0
 28 85  1  0  0  0
 29 30  1  0  0  0
 29 86  1  0  0  0
 29 87  1  0  0  0
 30 31  1  0  0  0
 30 32  1  0  0  0
 30 88  1  0  0  0
 31 89  1  0  0  0
 31 90  1  0  0  0
 31 91  1  0  0  0
 32 92  1  0  0  0
 32 93  1  0  0  0
 32 94  1  0  0  0
 33 34  2  0  0  0
 33 35  1  0  0  0
 35 36  1  0  0  0
 35 95  1  0  0  0
 36 39  1  0  0  0
 36 37  1  0  0  0
 36 96  1  0  0  0
 37 38  2  0  0  0
 37 44  1  0  0  0
 39 40  1  0  0  0
 39 97  1  0  0  0
 39 98  1  0  0  0
 40 41  1  0  0  0
 40 99  1  0  0  0
 40100  1  0  0  0
 41 43  1  0  0  0
 41 42  2  0  0  0
 43101  1  0  0  0
 43102  1  0  0  0
 44 45  1  0  0  0
 44103  1  0  0  0
 45 48  1  0  0  0
 45 46  1  0  0  0
 45104  1  0  0  0
 46 47  2  0  0  0
 46 51  1  0  0  0
 48 50  1  0  0  0
 48 49  1  0  0  0
 48105  1  0  0  0
 49106  1  0  0  0
 50107  1  0  0  0
 50108  1  0  0  0
 50109  1  0  0  0
M  CHG  4   1   1  16   1  30   1  51  -1
M  END
> <s_m_source_file>
../2o9k_ligand.sdf

> <i_m_source_file_index>
1

> <s_epik_input>
W0hdL049QyhbTkgyXSlcW05IXVtDSDJdW0NIMl1bQ0gyXVtDQEhdKFtOSF1DKD1PKVtDQEBIXShbTkgzK10pW0NIM10pQyg9TylbTkhdW0NAQEhdKFtDQEhdKFtPSF0pW0NIM10pQyg9TylbTkhdW0NAQEhdKFtDSDJdW0NIMl1bQ0gyXVtDSDJdW05IK10oW0NIM10pW0NIM10pQyg9TylbTkhdW0NAQEhdKFtDSDJdW0NIMl1DKD1PKVtOSDJdKUMoPU8pW05IXVtDQEhdKEMoPU8pW09IXSlbQ0BIXShbT0hdKVtDSDNd

> <s_epik_cmdline>
J2VwaWtfYXBwJywgJy1pbWFlJywgJ2xpZ2FuZF9wcm8ubWFlJywgJy1vbWFlJywgJ2xpZ2FuZF9wcmVwLm1hZScsICctbXMnLCAnMScsICctcGgnLCAnNycsICctcGh0JywgJzAuNScsICctbnQn

> <r_epik_Ionization_Penalty>
  0.1268

> <r_epik_Ionization_Penalty_Charging>
  0.1268

> <r_epik_Ionization_Penalty_Neutral>
  0.0000

> <r_epik_State_Penalty>
  0.1145

> <r_epik_Charging_Adjusted_Penalty>
0.241355575880259

> <i_epik_Tot_Q>
2

> <i_epik_Tot_abs_Q>
4

> <s_epik_Chemistry_Notes>
This compound has an imine and may undergo hydrolysis.

$$$$
