2o9r_ligand
                    3D
 Schrodinger Suite 2020-3.
 45 46  0  0  1  0            999 V2000
   65.3670   28.9520   38.5140 C   0  0  1  0  0  0
   66.0880   30.2680   39.0630 C   0  0  1  0  0  0
   67.6750   30.1560   38.9440 C   0  0  2  0  0  0
   68.2380   28.7800   39.4850 C   0  0  1  0  0  0
   67.5450   27.6000   38.6620 C   0  0  1  0  0  0
   67.8930   26.1240   39.0250 C   0  0  0  0  0  0
   65.6530   31.3750   38.3430 O   0  0  0  0  0  0
   68.2550   31.2380   39.6650 O   0  0  0  0  0  0
   69.6200   28.7700   39.3640 O   0  0  0  0  0  0
   66.1290   27.7370   38.9250 O   0  0  0  0  0  0
   67.1440   25.6890   40.2130 O   0  0  0  0  0  0
   60.2370   26.6000   36.7610 C   0  0  2  0  0  0
   61.0690   25.9140   37.9090 C   0  0  1  0  0  0
   61.8200   27.0180   38.7870 C   0  0  2  0  0  0
   62.7950   27.9300   37.8840 C   0  0  1  0  0  0
   61.9080   28.5630   36.6980 C   0  0  1  0  0  0
   62.7450   29.2890   35.5370 C   0  0  0  0  0  0
   59.5640   25.5990   35.8840 O   0  0  0  0  0  0
   60.2040   25.0870   38.7500 O   0  0  0  0  0  0
   62.5060   26.1530   39.7970 O   0  0  0  0  0  0
   63.6250   29.3140   38.7590 S   0  0  0  0  0  0
   61.1670   27.4660   35.9550 O   0  0  0  0  0  0
   62.5100   28.7650   34.2000 O   0  0  0  0  0  0
   65.5834   28.5652   37.5073 H   0  0  0  0  0  0
   65.7695   30.5052   40.0888 H   0  0  0  0  0  0
   68.0091   30.2929   37.9049 H   0  0  0  0  0  0
   68.1457   28.6438   40.5726 H   0  0  0  0  0  0
   67.8191   27.7162   37.6030 H   0  0  0  0  0  0
   67.6327   25.4678   38.1814 H   0  0  0  0  0  0
   68.9697   26.0420   39.2346 H   0  0  0  0  0  0
   64.5813   31.6199   38.3050 H   0  0  0  0  0  0
   67.9766   32.2738   39.4207 H   0  0  0  0  0  0
   70.2229   29.5306   39.8816 H   0  0  0  0  0  0
   67.2752   24.6688   40.6028 H   0  0  0  0  0  0
   59.4193   27.2165   37.1627 H   0  0  0  0  0  0
   61.7790   25.1913   37.4805 H   0  0  0  0  0  0
   61.1919   27.7476   39.3192 H   0  0  0  0  0  0
   63.4941   27.1814   37.4829 H   0  0  0  0  0  0
   61.2227   29.2629   37.1985 H   0  0  0  0  0  0
   62.4843   30.3573   35.5103 H   0  0  0  0  0  0
   63.8210   29.1791   35.7371 H   0  0  0  0  0  0
   58.8480   24.8836   36.3147 H   0  0  0  0  0  0
   59.6126   24.2757   38.3005 H   0  0  0  0  0  0
   61.9138   25.4994   40.4543 H   0  0  0  0  0  0
   63.0387   29.1989   33.3384 H   0  0  0  0  0  0
  1  2  1  0  0  0
  1 10  1  0  0  0
  1 21  1  0  0  0
  1 24  1  0  0  0
  2  3  1  0  0  0
  2  7  1  0  0  0
  2 25  1  0  0  0
  3  4  1  0  0  0
  3  8  1  0  0  0
  3 26  1  0  0  0
  4  5  1  0  0  0
  4  9  1  0  0  0
  4 27  1  0  0  0
  5  6  1  0  0  0
  5 10  1  0  0  0
  5 28  1  0  0  0
  6 11  1  0  0  0
  6 29  1  0  0  0
  6 30  1  0  0  0
  7 31  1  0  0  0
  8 32  1  0  0  0
  9 33  1  0  0  0
 11 34  1  0  0  0
 12 13  1  0  0  0
 12 18  1  0  0  0
 12 22  1  0  0  0
 12 35  1  0  0  0
 13 14  1  0  0  0
 13 19  1  0  0  0
 13 36  1  0  0  0
 14 15  1  0  0  0
 14 20  1  0  0  0
 14 37  1  0  0  0
 15 16  1  0  0  0
 15 21  1  0  0  0
 15 38  1  0  0  0
 16 17  1  0  0  0
 16 22  1  0  0  0
 16 39  1  0  0  0
 17 23  1  0  0  0
 17 40  1  0  0  0
 17 41  1  0  0  0
 18 42  1  0  0  0
 19 43  1  0  0  0
 20 44  1  0  0  0
 23 45  1  0  0  0
M  END
> <s_m_source_file>
../2o9r_ligand.sdf

> <i_m_source_file_index>
1

> <s_epik_input>
W09IXVtDQEhdMVtDQEhdKFtPSF0pW0NAQEhdKFtPSF0pW0NAQEhdKFtDQEhdKE8xKVtDSDJdW09IXSlTW0NASF0yW0NASF0oW09IXSlbQ0BASF0oW09IXSlbQ0BIXShbT0hdKVtDQEhdKE8yKVtDSDJdW09IXQ==

> <s_epik_cmdline>
J2VwaWtfYXBwJywgJy1pbWFlJywgJ2xpZ2FuZF9wcm8ubWFlJywgJy1vbWFlJywgJ2xpZ2FuZF9wcmVwLm1hZScsICctbXMnLCAnMScsICctcGgnLCAnNycsICctcGh0JywgJzAuNScsICctbnQn

> <r_lp_tautomer_probability>
1

> <r_epik_Ionization_Penalty>
  0.0000

> <r_epik_Ionization_Penalty_Charging>
  0.0000

> <r_epik_Ionization_Penalty_Neutral>
  0.0000

> <r_epik_State_Penalty>
 -0.0000

> <r_epik_Charging_Adjusted_Penalty>
0

> <i_epik_Tot_Q>
0

> <i_epik_Tot_abs_Q>
0

> <s_epik_Chemistry_Notes>
This compound contains an acetal/aminal-like group ( X-CH(R)-Y where X, Y are N, S, or O) that may be acid/base labile, releasing an aldehyde.

$$$$
