2o9v_ligand
                    3D
 Schrodinger Suite 2020-3.
144150  0  0  1  0            999 V2000
   21.1750    4.3420  -23.4990 N   0  3  0  0  0  0
   20.9900    2.8510  -23.5700 C   0  0  2  0  0  0
   21.6120    2.2780  -22.3140 C   0  0  0  0  0  0
   22.7210    2.6850  -21.9690 O   0  0  0  0  0  0
   21.7220    2.2890  -24.8100 C   0  0  0  0  0  0
   21.6230    0.7430  -24.8850 C   0  0  0  0  0  0
   21.1970    2.9360  -26.0940 C   0  0  0  0  0  0
   20.9280    1.3330  -21.6290 N   0  0  0  0  0  0
   21.5360    0.6980  -20.4470 C   0  0  2  0  0  0
   22.8050   -0.0890  -20.8380 C   0  0  0  0  0  0
   22.7690   -0.8180  -21.8560 O   0  0  0  0  0  0
   20.4520   -0.2590  -19.9600 C   0  0  0  0  0  0
   19.2020    0.1100  -20.7190 C   0  0  0  0  0  0
   19.5840    0.7850  -21.9610 C   0  0  0  0  0  0
   23.9110    0.0620  -20.0620 N   0  0  0  0  0  0
   25.1820   -0.6160  -20.3370 C   0  0  2  0  0  0
   25.0270   -2.1340  -20.0910 C   0  0  0  0  0  0
   24.1130   -2.5670  -19.4280 O   0  0  0  0  0  0
   26.1400   -0.0300  -19.2890 C   0  0  0  0  0  0
   25.2720    0.4150  -18.1970 C   0  0  0  0  0  0
   23.9730    0.8560  -18.8190 C   0  0  0  0  0  0
   25.9680   -2.9250  -20.6120 N   0  0  0  0  0  0
   25.8770   -4.3780  -20.4220 C   0  0  2  0  0  0
   26.0830   -4.6660  -18.9500 C   0  0  0  0  0  0
   26.7760   -3.9040  -18.2530 O   0  0  0  0  0  0
   27.0690   -4.9000  -21.2140 C   0  0  0  0  0  0
   28.1090   -3.7070  -21.1350 C   0  0  0  0  0  0
   27.1930   -2.5080  -21.3310 C   0  0  0  0  0  0
   25.4640   -5.7190  -18.4610 N   0  0  0  0  0  0
   25.5880   -6.0930  -17.0580 C   0  0  2  0  0  0
   26.8120   -6.9770  -16.9620 C   0  0  0  0  0  0
   26.9320   -7.9650  -17.7290 O   0  0  0  0  0  0
   24.3360   -6.8940  -16.5820 C   0  0  0  0  0  0
   24.4340   -7.2400  -15.1200 C   0  0  0  0  0  0
   23.0550   -6.1110  -16.8930 C   0  0  0  0  0  0
   27.7350   -6.6290  -16.0510 N   0  0  0  0  0  0
   28.9630   -7.4070  -15.8520 C   0  0  2  0  0  0
   28.6920   -8.7190  -15.0910 C   0  0  0  0  0  0
   27.6220   -8.8700  -14.5100 O   0  0  0  0  0  0
   29.8130   -6.4780  -14.9630 C   0  0  0  0  0  0
   28.8040   -5.7550  -14.1430 C   0  0  0  0  0  0
   27.6590   -5.4770  -15.1180 C   0  0  0  0  0  0
   29.6660   -9.6450  -15.0630 N   0  0  0  0  0  0
   29.5940  -10.8500  -14.2040 C   0  0  2  0  0  0
   29.3990  -10.4010  -12.7660 C   0  0  0  0  0  0
   29.9050   -9.3140  -12.3810 O   0  0  0  0  0  0
   30.9930  -11.5190  -14.3850 C   0  0  0  0  0  0
   31.4800  -11.0050  -15.7170 C   0  0  0  0  0  0
   30.9290   -9.5830  -15.8300 C   0  0  0  0  0  0
   28.6380  -11.1610  -11.9800 N   0  0  0  0  0  0
   28.4530  -10.8200  -10.5610 C   0  0  2  0  0  0
   29.7990  -10.8380   -9.8440 C   0  0  0  0  0  0
   30.7890  -11.3480  -10.4130 O   0  0  0  0  0  0
   27.6310  -12.0010  -10.0220 C   0  0  0  0  0  0
   27.1670  -12.7930  -11.1830 C   0  0  0  0  0  0
   27.8710  -12.3540  -12.3980 C   0  0  0  0  0  0
   29.8580  -10.3560   -8.5970 N   0  0  0  0  0  0
   31.0950  -10.4000   -7.8470 C   0  0  2  0  0  0
   31.5920  -11.8250   -7.6100 C   0  0  0  0  0  0
   30.7840  -12.7670   -7.4610 O   0  0  0  0  0  0
   30.7140   -9.7730   -6.5030 C   0  0  0  0  0  0
   29.4860   -9.0330   -6.7140 C   0  0  0  0  0  0
   28.7790   -9.7280   -7.8110 C   0  0  0  0  0  0
   32.9140  -11.9650   -7.5940 N   0  0  0  0  0  0
   33.5720  -13.2700   -7.3580 C   0  0  2  0  0  0
   33.5760  -13.6840   -5.8930 C   0  0  0  0  0  0
   34.4690  -14.4470   -5.5000 O   0  0  0  0  0  0
   35.0540  -13.2860   -7.8430 C   0  0  0  0  0  0
   35.1690  -13.0850   -9.2400 O   0  0  0  0  0  0
   32.6438  -13.2375   -5.0560 O   0  5  0  0  0  0
   20.7376    4.8088  -24.3939 H   0  0  0  0  0  0
   22.2487    4.5764  -23.4508 H   0  0  0  0  0  0
   20.6740    4.7312  -22.6004 H   0  0  0  0  0  0
   19.9199    2.6035  -23.6305 H   0  0  0  0  0  0
   22.7857    2.5534  -24.7167 H   0  0  0  0  0  0
   22.0062    0.3053  -23.9514 H   0  0  0  0  0  0
   22.2206    0.3781  -25.7334 H   0  0  0  0  0  0
   20.5720    0.4492  -25.0235 H   0  0  0  0  0  0
   21.2789    4.0300  -26.0133 H   0  0  0  0  0  0
   20.1431    2.6570  -26.2407 H   0  0  0  0  0  0
   21.7917    2.5859  -26.9506 H   0  0  0  0  0  0
   21.8252    1.4563  -19.7045 H   0  0  0  0  0  0
   20.7551   -1.2949  -20.1722 H   0  0  0  0  0  0
   20.3113   -0.1328  -18.8764 H   0  0  0  0  0  0
   18.6315   -0.8014  -20.9511 H   0  0  0  0  0  0
   18.5850    0.7823  -20.1047 H   0  0  0  0  0  0
   18.9063    1.6105  -22.2244 H   0  0  0  0  0  0
   19.6697    0.0949  -22.8133 H   0  0  0  0  0  0
   25.4927   -0.4474  -21.3786 H   0  0  0  0  0  0
   26.8436   -0.8087  -18.9594 H   0  0  0  0  0  0
   26.7003    0.8068  -19.7316 H   0  0  0  0  0  0
   25.1054   -0.4181  -17.4983 H   0  0  0  0  0  0
   25.7512    1.2498  -17.6646 H   0  0  0  0  0  0
   23.9665    1.9275  -19.0677 H   0  0  0  0  0  0
   23.1022    0.6204  -18.1896 H   0  0  0  0  0  0
   24.9103   -4.7955  -20.7401 H   0  0  0  0  0  0
   27.4474   -5.8195  -20.7436 H   0  0  0  0  0  0
   26.7566   -5.1178  -22.2460 H   0  0  0  0  0  0
   28.6095   -3.7212  -20.1556 H   0  0  0  0  0  0
   28.8589   -3.8209  -21.9316 H   0  0  0  0  0  0
   26.9522   -2.3213  -22.3880 H   0  0  0  0  0  0
   27.5892   -1.5877  -20.8772 H   0  0  0  0  0  0
   24.8415   -6.3224  -19.1381 H   0  0  0  0  0  0
   25.6952   -5.1683  -16.4719 H   0  0  0  0  0  0
   24.2822   -7.8586  -17.1079 H   0  0  0  0  0  0
   25.3633   -7.7995  -14.9371 H   0  0  0  0  0  0
   23.5710   -7.8578  -14.8308 H   0  0  0  0  0  0
   24.4393   -6.3155  -14.5240 H   0  0  0  0  0  0
   23.0198   -5.8774  -17.9673 H   0  0  0  0  0  0
   23.0472   -5.1758  -16.3140 H   0  0  0  0  0  0
   22.1790   -6.7181  -16.6208 H   0  0  0  0  0  0
   29.3989   -7.6723  -16.8265 H   0  0  0  0  0  0
   30.4949   -7.0828  -14.3472 H   0  0  0  0  0  0
   30.3989   -5.7976  -15.5984 H   0  0  0  0  0  0
   28.4872   -6.3932  -13.3050 H   0  0  0  0  0  0
   29.2467   -4.8276  -13.7506 H   0  0  0  0  0  0
   27.7970   -4.5410  -15.6791 H   0  0  0  0  0  0
   26.6752   -5.4679  -14.6260 H   0  0  0  0  0  0
   28.7486  -11.5026  -14.4677 H   0  0  0  0  0  0
   31.6538  -11.2163  -13.5593 H   0  0  0  0  0  0
   30.8795  -12.6131  -14.3814 H   0  0  0  0  0  0
   32.5799  -11.0129  -15.7332 H   0  0  0  0  0  0
   31.0969  -11.6502  -16.5213 H   0  0  0  0  0  0
   30.7127   -9.2977  -16.8701 H   0  0  0  0  0  0
   31.5972   -8.8362  -15.3763 H   0  0  0  0  0  0
   27.9951   -9.8254  -10.4557 H   0  0  0  0  0  0
   28.2624  -12.6179   -9.3657 H   0  0  0  0  0  0
   26.7717  -11.6194   -9.4511 H   0  0  0  0  0  0
   27.3751  -13.8586  -11.0066 H   0  0  0  0  0  0
   26.0848  -12.6480  -11.3168 H   0  0  0  0  0  0
   27.1690  -12.0767  -13.1982 H   0  0  0  0  0  0
   28.5637  -13.1240  -12.7685 H   0  0  0  0  0  0
   31.8724   -9.8771   -8.4233 H   0  0  0  0  0  0
   30.5659  -10.5674   -5.7567 H   0  0  0  0  0  0
   31.5197   -9.1024   -6.1697 H   0  0  0  0  0  0
   28.8907   -9.0392   -5.7890 H   0  0  0  0  0  0
   29.7258   -7.9952   -6.9887 H   0  0  0  0  0  0
   28.2195   -9.0286   -8.4496 H   0  0  0  0  0  0
   28.0983  -10.5062   -7.4354 H   0  0  0  0  0  0
   33.5229  -11.0649   -7.7647 H   0  0  0  0  0  0
   32.9287  -13.9498   -7.9360 H   0  0  0  0  0  0
   35.6137  -12.4848   -7.3382 H   0  0  0  0  0  0
   35.5082  -14.2584   -7.6021 H   0  0  0  0  0  0
   36.1615  -13.0735   -9.7141 H   0  0  0  0  0  0
  1  2  1  0  0  0
  1 71  1  0  0  0
  1 72  1  0  0  0
  1 73  1  0  0  0
  2  5  1  0  0  0
  2  3  1  0  0  0
  2 74  1  0  0  0
  3  4  2  0  0  0
  3  8  1  0  0  0
  5  7  1  0  0  0
  5  6  1  0  0  0
  5 75  1  0  0  0
  6 76  1  0  0  0
  6 77  1  0  0  0
  6 78  1  0  0  0
  7 79  1  0  0  0
  7 80  1  0  0  0
  7 81  1  0  0  0
  8  9  1  0  0  0
  8 14  1  0  0  0
  9 10  1  0  0  0
  9 12  1  0  0  0
  9 82  1  0  0  0
 10 11  2  0  0  0
 10 15  1  0  0  0
 12 13  1  0  0  0
 12 83  1  0  0  0
 12 84  1  0  0  0
 13 14  1  0  0  0
 13 85  1  0  0  0
 13 86  1  0  0  0
 14 87  1  0  0  0
 14 88  1  0  0  0
 15 16  1  0  0  0
 15 21  1  0  0  0
 16 17  1  0  0  0
 16 19  1  0  0  0
 16 89  1  0  0  0
 17 18  2  0  0  0
 17 22  1  0  0  0
 19 20  1  0  0  0
 19 90  1  0  0  0
 19 91  1  0  0  0
 20 21  1  0  0  0
 20 92  1  0  0  0
 20 93  1  0  0  0
 21 94  1  0  0  0
 21 95  1  0  0  0
 22 23  1  0  0  0
 22 28  1  0  0  0
 23 24  1  0  0  0
 23 26  1  0  0  0
 23 96  1  0  0  0
 24 25  2  0  0  0
 24 29  1  0  0  0
 26 27  1  0  0  0
 26 97  1  0  0  0
 26 98  1  0  0  0
 27 28  1  0  0  0
 27 99  1  0  0  0
 27100  1  0  0  0
 28101  1  0  0  0
 28102  1  0  0  0
 29 30  1  0  0  0
 29103  1  0  0  0
 30 33  1  0  0  0
 30 31  1  0  0  0
 30104  1  0  0  0
 31 32  2  0  0  0
 31 36  1  0  0  0
 33 35  1  0  0  0
 33 34  1  0  0  0
 33105  1  0  0  0
 34106  1  0  0  0
 34107  1  0  0  0
 34108  1  0  0  0
 35109  1  0  0  0
 35110  1  0  0  0
 35111  1  0  0  0
 36 37  1  0  0  0
 36 42  1  0  0  0
 37 38  1  0  0  0
 37 40  1  0  0  0
 37112  1  0  0  0
 38 39  2  0  0  0
 38 43  1  0  0  0
 40 41  1  0  0  0
 40113  1  0  0  0
 40114  1  0  0  0
 41 42  1  0  0  0
 41115  1  0  0  0
 41116  1  0  0  0
 42117  1  0  0  0
 42118  1  0  0  0
 43 44  1  0  0  0
 43 49  1  0  0  0
 44 45  1  0  0  0
 44 47  1  0  0  0
 44119  1  0  0  0
 45 46  2  0  0  0
 45 50  1  0  0  0
 47 48  1  0  0  0
 47120  1  0  0  0
 47121  1  0  0  0
 48 49  1  0  0  0
 48122  1  0  0  0
 48123  1  0  0  0
 49124  1  0  0  0
 49125  1  0  0  0
 50 51  1  0  0  0
 50 56  1  0  0  0
 51 52  1  0  0  0
 51 54  1  0  0  0
 51126  1  0  0  0
 52 53  2  0  0  0
 52 57  1  0  0  0
 54 55  1  0  0  0
 54127  1  0  0  0
 54128  1  0  0  0
 55 56  1  0  0  0
 55129  1  0  0  0
 55130  1  0  0  0
 56131  1  0  0  0
 56132  1  0  0  0
 57 58  1  0  0  0
 57 63  1  0  0  0
 58 59  1  0  0  0
 58 61  1  0  0  0
 58133  1  0  0  0
 59 60  2  0  0  0
 59 64  1  0  0  0
 61 62  1  0  0  0
 61134  1  0  0  0
 61135  1  0  0  0
 62 63  1  0  0  0
 62136  1  0  0  0
 62137  1  0  0  0
 63138  1  0  0  0
 63139  1  0  0  0
 64 65  1  0  0  0
 64140  1  0  0  0
 65 68  1  0  0  0
 65 66  1  0  0  0
 65141  1  0  0  0
 66 67  2  0  0  0
 66 70  1  0  0  0
 68 69  1  0  0  0
 68142  1  0  0  0
 68143  1  0  0  0
 69144  1  0  0  0
M  CHG  2   1   1  70  -1
M  END
> <s_m_source_file>
../2o9v_ligand.sdf

> <i_m_source_file_index>
1

> <s_epik_input>
W0NIM11bQ0hdKFtDSDNdKVtDQEhdKFtOSDMrXSlDKD1PKU4xW0NAQEhdKFtDSDJdW0NIMl1bQ0gyXTEpQyg9TylOMltDQEBIXShbQ0gyXVtDSDJdW0NIMl0yKUMoPU8pTjNbQ0BASF0oW0NIMl1bQ0gyXVtDSDJdMylDKD1PKVtOSF1bQ0BASF0oW0NIXShbQ0gzXSlbQ0gzXSlDKD1PKU40W0NAQEhdKFtDSDJdW0NIMl1bQ0gyXTQpQyg9TylONVtDQEBIXShbQ0gyXVtDSDJdW0NIMl01KUMoPU8pTjZbQ0BASF0oW0NIMl1bQ0gyXVtDSDJdNilDKD1PKU43W0NAQEhdKFtDSDJdW0NIMl1bQ0gyXTcpQyg9TylbTkhdW0NASF0oQyg9TylbT0hdKVtDSDJdW09IXQ==

> <s_epik_cmdline>
J2VwaWtfYXBwJywgJy1pbWFlJywgJ2xpZ2FuZF9wcm8ubWFlJywgJy1vbWFlJywgJ2xpZ2FuZF9wcmVwLm1hZScsICctbXMnLCAnMScsICctcGgnLCAnNycsICctcGh0JywgJzAuNScsICctbnQn

> <r_epik_Ionization_Penalty>
  0.0776

> <r_epik_Ionization_Penalty_Charging>
  0.0776

> <r_epik_Ionization_Penalty_Neutral>
  0.0000

> <r_epik_State_Penalty>
  0.0685

> <r_epik_Charging_Adjusted_Penalty>
0.146081623906834

> <i_epik_Tot_Q>
0

> <i_epik_Tot_abs_Q>
2

$$$$
