2oa0_ligand
                    3D
 Schrodinger Suite 2020-3.
 44 48  0  0  1  0            999 V2000
   26.0510  -15.6970   15.5980 O   0  5  0  0  0  0
   25.9830  -15.2990   14.3690 C   0  0  0  0  0  0
   27.2210  -15.1870   13.5350 C   0  0  0  0  0  0
   28.6450  -15.5200   13.8350 C   0  0  0  0  0  0
   29.1390  -15.1890   14.9050 O   0  0  0  0  0  0
   29.4160  -16.2470   12.7670 C   0  0  0  0  0  0
   24.6980  -14.8340   13.7790 C   0  0  2  0  0  0
   23.6280  -15.7310   13.1760 C   0  0  1  0  0  0
   22.5440  -16.0370   14.1380 C   0  0  0  0  0  0
   22.5630  -16.9440   15.1770 C   0  0  0  0  0  0
   21.3140  -16.8270   15.7260 N   0  3  0  0  0  0
   20.5720  -15.9020   15.0600 C   0  0  0  0  0  0
   21.3550  -15.3910   14.0340 C   0  0  0  0  0  0
   19.2740  -15.4100   15.2000 C   0  0  0  0  0  0
   18.8160  -14.4280   14.3120 C   0  0  0  0  0  0
   19.6330  -13.9330   13.2860 C   0  0  0  0  0  0
   20.9260  -14.4330   13.1510 C   0  0  0  0  0  0
   21.9050  -13.9840   12.0900 C   0  0  0  0  0  0
   23.1420  -14.9010   11.9490 C   0  0  1  0  0  0
   24.3380  -14.0470   11.5030 C   0  0  0  0  0  0
   24.7620  -14.4110   10.0920 C   0  0  0  0  0  0
   24.0610  -12.5540   11.5980 C   0  0  0  0  0  0
   25.3400  -14.4770   12.4980 N   0  0  0  0  0  0
   26.6480  -14.6620   12.2700 C   0  0  0  0  0  0
   27.4240  -14.3620   11.0450 O   0  0  0  0  0  0
   28.7601  -16.4333   11.9038 H   0  0  0  0  0  0
   29.7791  -17.2059   13.1653 H   0  0  0  0  0  0
   30.2725  -15.6333   12.4511 H   0  0  0  0  0  0
   24.1882  -14.2361   14.5488 H   0  0  0  0  0  0
   23.9843  -16.7435   12.9352 H   0  0  0  0  0  0
   23.4673  -17.5396   15.3707 H   0  0  0  0  0  0
   18.6242  -15.7851   15.9907 H   0  0  0  0  0  0
   17.8030  -14.0407   14.4212 H   0  0  0  0  0  0
   19.2619  -13.1681   12.6039 H   0  0  0  0  0  0
   21.4020  -13.9639   11.1119 H   0  0  0  0  0  0
   22.2733  -12.9765   12.3336 H   0  0  0  0  0  0
   22.7900  -15.6454   11.2196 H   0  0  0  0  0  0
   23.9932  -14.0759    9.3802 H   0  0  0  0  0  0
   24.8824  -15.5017   10.0152 H   0  0  0  0  0  0
   25.7177  -13.9192    9.8580 H   0  0  0  0  0  0
   23.3119  -12.2714   10.8437 H   0  0  0  0  0  0
   24.9917  -11.9962   11.4175 H   0  0  0  0  0  0
   23.6791  -12.3151   12.6015 H   0  0  0  0  0  0
   21.0346  -17.4430   16.5935 H   0  0  0  0  0  0
  1  2  1  0  0  0
  2  3  2  0  0  0
  2  7  1  0  0  0
  3  4  1  0  0  0
  3 24  1  0  0  0
  4  5  2  0  0  0
  4  6  1  0  0  0
  6 26  1  0  0  0
  6 27  1  0  0  0
  6 28  1  0  0  0
  7  8  1  0  0  0
  7 23  1  0  0  0
  7 29  1  0  0  0
  8  9  1  0  0  0
  8 19  1  0  0  0
  8 30  1  0  0  0
  9 10  2  0  0  0
  9 13  1  0  0  0
 10 11  1  0  0  0
 10 31  1  0  0  0
 11 12  1  0  0  0
 11 44  1  0  0  0
 12 13  2  0  0  0
 12 14  1  0  0  0
 13 17  1  0  0  0
 14 15  2  0  0  0
 14 32  1  0  0  0
 15 16  1  0  0  0
 15 33  1  0  0  0
 16 17  2  0  0  0
 16 34  1  0  0  0
 17 18  1  0  0  0
 18 19  1  0  0  0
 18 35  1  0  0  0
 18 36  1  0  0  0
 19 20  1  0  0  0
 19 37  1  0  0  0
 20 21  1  0  0  0
 20 22  1  0  0  0
 20 23  1  0  0  0
 21 38  1  0  0  0
 21 39  1  0  0  0
 21 40  1  0  0  0
 22 41  1  0  0  0
 22 42  1  0  0  0
 22 43  1  0  0  0
 23 24  1  0  0  0
 24 25  2  0  0  0
M  CHG  2   1  -1  11   1
M  END
> <s_m_source_file>
../2oa0_ligand.sdf

> <i_m_source_file_index>
1

> <s_epik_input>
Tz1DMUMoQyg9TylbQ0gzXSk9QyhbT0hdKU4yQyhbQ0gzXSkoW0NIM10pW0NAQEhdM1tDSDJdYzRbY0hdW2NIXVtjSF1jKFtuSF1bY0hdNSljNGM1W0NAQEhdM1tDQEBIXTEy

> <s_epik_cmdline>
J2VwaWtfYXBwJywgJy1pbWFlJywgJ2xpZ2FuZF9wcm8ubWFlJywgJy1vbWFlJywgJ2xpZ2FuZF9wcmVwLm1hZScsICctbXMnLCAnMScsICctcGgnLCAnNycsICctcGh0JywgJzAuNScsICctbnQn

> <r_lp_tautomer_probability>
1

> <r_epik_Ionization_Penalty>
  0.0002

> <r_epik_Ionization_Penalty_Charging>
  0.0002

> <r_epik_Ionization_Penalty_Neutral>
  0.0000

> <r_epik_State_Penalty>
 -0.0000

> <r_epik_Charging_Adjusted_Penalty>
0.000199786244761236

> <i_epik_Tot_Q>
0

> <i_epik_Tot_abs_Q>
2

$$$$
