2oah_ligand
                    3D
 Schrodinger Suite 2020-3.
 72 74  0  0  1  0            999 V2000
   30.1940   43.6350    1.6580 C   0  0  0  0  0  0
   30.7200   42.3120    1.5090 C   0  0  0  0  0  0
   29.8290   41.3050    1.0130 C   0  0  0  0  0  0
   28.4860   41.5920    0.6540 C   0  0  0  0  0  0
   27.9940   42.9310    0.8210 C   0  0  0  0  0  0
   28.8720   43.8650    1.3240 N   0  0  0  0  0  0
   26.6740   43.2650    0.5240 N   0  0  0  0  0  0
   25.9510   44.6060    1.1380 S   0  0  0  0  0  0
   24.5700   44.4920    0.7610 O   0  0  0  0  0  0
   25.9500   42.5710   -0.5630 C   0  0  0  0  0  0
   30.2780   39.9190    0.8510 C   0  0  0  0  0  0
   30.8860   39.4010    1.9370 N   0  0  0  0  0  0
   31.7120   38.1890    1.9370 C   0  0  2  0  0  0
   31.0430   37.1520    2.8740 C   0  0  2  0  0  0
   33.1150   38.5520    2.4460 C   0  0  0  0  0  0
   30.1170   39.2800   -0.1710 O   0  0  0  0  0  0
   26.6280   46.0610    0.3270 C   0  0  0  0  0  0
   26.2800   44.6880    2.5140 O   0  0  0  0  0  0
   34.0190   39.7650    0.2360 C   0  0  0  0  0  0
   33.7700   39.7160    1.6800 C   0  0  0  0  0  0
   34.1750   40.9760    2.2850 C   0  0  0  0  0  0
   34.8070   42.0190    1.0610 S   0  0  0  0  0  0
   34.5650   40.9450   -0.2380 C   0  0  0  0  0  0
   29.6730   36.7230    2.3350 C   0  0  0  0  0  0
   30.7930   37.8100    4.1610 N   0  3  0  0  0  0
   29.7320   35.9020    1.0580 C   0  0  0  0  0  0
   28.3310   35.3670    0.7450 C   0  0  0  0  0  0
   28.4240   34.3050   -0.3370 C   0  0  0  0  0  0
   30.9880   44.7510    2.0730 N   0  0  0  0  0  0
   32.4190   44.6250    2.4680 C   0  0  0  0  0  0
   33.8230   44.0170    4.5130 C   0  0  0  0  0  0
   32.6220   44.7900    5.0440 C   0  0  1  0  0  0
   32.5040   43.9550    3.8010 C   0  0  1  0  0  0
   32.0480   44.2910    6.3270 C   0  0  0  0  0  0
   31.7546   42.0803    1.7621 H   0  0  0  0  0  0
   27.8389   40.8093    0.2582 H   0  0  0  0  0  0
   26.5299   41.6949   -0.8888 H   0  0  0  0  0  0
   25.8161   43.2582   -1.4114 H   0  0  0  0  0  0
   24.9656   42.2437   -0.1972 H   0  0  0  0  0  0
   30.7262   39.9577    2.8722 H   0  0  0  0  0  0
   31.7775   37.8061    0.9079 H   0  0  0  0  0  0
   31.6990   36.2787    3.0044 H   0  0  0  0  0  0
   33.0560   38.8484    3.5037 H   0  0  0  0  0  0
   33.7783   37.6802    2.3460 H   0  0  0  0  0  0
   26.3889   46.0272   -0.7462 H   0  0  0  0  0  0
   27.7199   46.0796    0.4590 H   0  0  0  0  0  0
   26.1894   46.9663    0.7721 H   0  0  0  0  0  0
   33.7890   38.9266   -0.4214 H   0  0  0  0  0  0
   34.0926   41.2229    3.3435 H   0  0  0  0  0  0
   34.8031   41.1544   -1.2809 H   0  0  0  0  0  0
   29.1585   36.1087    3.0886 H   0  0  0  0  0  0
   29.0693   37.6160    2.1155 H   0  0  0  0  0  0
   31.7480   38.1403    4.5955 H   0  0  0  0  0  0
   30.3039   37.1018    4.8460 H   0  0  0  0  0  0
   30.1396   38.6813    4.0065 H   0  0  0  0  0  0
   30.0807   36.5366    0.2299 H   0  0  0  0  0  0
   30.4285   35.0616    1.1942 H   0  0  0  0  0  0
   27.8951   34.9269    1.6540 H   0  0  0  0  0  0
   27.6932   36.1920    0.3949 H   0  0  0  0  0  0
   27.4179   33.9211   -0.5614 H   0  0  0  0  0  0
   29.0616   33.4798    0.0130 H   0  0  0  0  0  0
   28.8598   34.7450   -1.2461 H   0  0  0  0  0  0
   30.4966   45.7349    2.0927 H   0  0  0  0  0  0
   32.9548   44.0243    1.7182 H   0  0  0  0  0  0
   32.8722   45.6255    2.5283 H   0  0  0  0  0  0
   34.6364   44.7193    4.2783 H   0  0  0  0  0  0
   34.1649   43.3016    5.2754 H   0  0  0  0  0  0
   32.3701   45.8328    5.2870 H   0  0  0  0  0  0
   31.8158   43.1574    3.4844 H   0  0  0  0  0  0
   32.2285   45.0301    7.1214 H   0  0  0  0  0  0
   32.5269   43.3382    6.5969 H   0  0  0  0  0  0
   30.9653   44.1367    6.2088 H   0  0  0  0  0  0
  1  2  2  0  0  0
  1  6  1  0  0  0
  1 29  1  0  0  0
  2  3  1  0  0  0
  2 35  1  0  0  0
  3  4  2  0  0  0
  3 11  1  0  0  0
  4  5  1  0  0  0
  4 36  1  0  0  0
  5  6  2  0  0  0
  5  7  1  0  0  0
  7  8  1  0  0  0
  7 10  1  0  0  0
  8  9  2  0  0  0
  8 17  1  0  0  0
  8 18  2  0  0  0
 10 37  1  0  0  0
 10 38  1  0  0  0
 10 39  1  0  0  0
 11 12  1  0  0  0
 11 16  2  0  0  0
 12 13  1  0  0  0
 12 40  1  0  0  0
 13 14  1  0  0  0
 13 15  1  0  0  0
 13 41  1  0  0  0
 14 24  1  0  0  0
 14 25  1  0  0  0
 14 42  1  0  0  0
 15 20  1  0  0  0
 15 43  1  0  0  0
 15 44  1  0  0  0
 17 45  1  0  0  0
 17 46  1  0  0  0
 17 47  1  0  0  0
 19 20  1  0  0  0
 19 23  2  0  0  0
 19 48  1  0  0  0
 20 21  2  0  0  0
 21 22  1  0  0  0
 21 49  1  0  0  0
 22 23  1  0  0  0
 23 50  1  0  0  0
 24 26  1  0  0  0
 24 51  1  0  0  0
 24 52  1  0  0  0
 25 53  1  0  0  0
 25 54  1  0  0  0
 25 55  1  0  0  0
 26 27  1  0  0  0
 26 56  1  0  0  0
 26 57  1  0  0  0
 27 28  1  0  0  0
 27 58  1  0  0  0
 27 59  1  0  0  0
 28 60  1  0  0  0
 28 61  1  0  0  0
 28 62  1  0  0  0
 29 30  1  0  0  0
 29 63  1  0  0  0
 30 33  1  0  0  0
 30 64  1  0  0  0
 30 65  1  0  0  0
 31 32  1  0  0  0
 31 33  1  0  0  0
 31 66  1  0  0  0
 31 67  1  0  0  0
 32 33  1  0  0  0
 32 34  1  0  0  0
 32 68  1  0  0  0
 33 69  1  0  0  0
 34 70  1  0  0  0
 34 71  1  0  0  0
 34 72  1  0  0  0
M  CHG  1  25   1
M  END
> <s_m_source_file>
../2oah_ligand.sdf

> <i_m_source_file_index>
1

> <s_epik_input>
W0NIM11bQ0BIXTFbQ0gyXVtDQEBIXTFbQ0gyXVtOSF1jMltjSF1jKFtjSF1jKG4yKU4oW0NIM10pUyg9TykoPU8pW0NIM10pQyg9TylbTkhdW0NASF0oW0NAQEhdKFtOSDMrXSlbQ0gyXVtDSDJdW0NIMl1bQ0gzXSlbQ0gyXWMzW2NIXVtjSF1zW2NIXTM=

> <s_epik_cmdline>
J2VwaWtfYXBwJywgJy1pbWFlJywgJ2xpZ2FuZF9wcm8ubWFlJywgJy1vbWFlJywgJ2xpZ2FuZF9wcmVwLm1hZScsICctbXMnLCAnMScsICctcGgnLCAnNycsICctcGh0JywgJzAuNScsICctbnQn

> <r_lp_tautomer_probability>
1

> <r_epik_Ionization_Penalty>
  0.0024

> <r_epik_Ionization_Penalty_Charging>
  0.0024

> <r_epik_Ionization_Penalty_Neutral>
  0.0000

> <r_epik_State_Penalty>
 -0.0000

> <r_epik_Charging_Adjusted_Penalty>
0.00237971743243266

> <i_epik_Tot_Q>
1

> <i_epik_Tot_abs_Q>
1

$$$$
