2oax_ligand
                    3D
 Schrodinger Suite 2020-3.
 61 65  0  0  1  0            999 V2000
  -22.9650   57.7830    2.8810 C   0  0  0  0  0  0
  -21.4410   61.4310    3.2340 C   0  0  0  0  0  0
  -21.6420   59.8600    2.6070 C   0  0  1  0  0  0
  -17.6790   61.0790    4.5750 C   0  0  1  0  0  0
  -20.9950   58.8580    3.7220 C   0  0  1  0  0  0
  -17.4540   62.6040    5.2360 C   0  0  0  0  0  0
  -19.9980   61.7840    3.4890 C   0  0  0  0  0  0
  -21.6150   57.4500    3.4530 C   0  0  0  0  0  0
  -23.0980   59.2720    2.6430 C   0  0  2  0  0  0
  -20.9800   59.7650    1.1200 C   0  0  0  0  0  0
  -16.9460   61.0680    3.1490 C   0  0  0  0  0  0
  -16.0080   62.8740    5.8000 C   0  0  0  0  0  0
  -24.1290   59.8570    3.6860 C   0  0  0  0  0  0
  -25.1470   60.7050    2.8760 C   0  0  0  0  0  0
  -24.7400   60.4840    1.4500 C   0  0  0  0  0  0
  -19.2940   56.7540    7.6120 C   0  0  0  0  0  0
  -20.0030   56.3580    8.8990 C   0  0  0  0  0  0
  -15.4820   61.6250    6.6540 C   0  0  0  0  0  0
  -15.9490   60.2380    6.4010 C   0  0  0  0  0  0
  -16.8790   59.9450    5.4040 C   0  0  0  0  0  0
  -17.2780   58.4070    5.1350 C   0  0  0  0  0  0
  -18.8120   58.1540    4.9830 C   0  0  2  0  0  0
  -19.4910   59.0960    3.9690 C   0  0  2  0  0  0
  -19.2250   60.7120    4.4060 C   0  0  1  0  0  0
  -25.1350   61.1620    0.4900 O   0  0  0  0  0  0
  -23.8210   59.4220    1.3580 O   0  0  0  0  0  0
  -18.3930   56.0320    7.2050 O   0  0  0  0  0  0
  -14.7040   61.8230    7.5500 O   0  0  0  0  0  0
  -19.7160   58.3000    6.7080 S   0  0  0  0  0  0
  -23.0969   57.2585    1.9231 H   0  0  0  0  0  0
  -23.7494   57.4657    3.5838 H   0  0  0  0  0  0
  -21.8430   62.1649    2.5200 H   0  0  0  0  0  0
  -21.9793   61.5161    4.1895 H   0  0  0  0  0  0
  -21.2172   59.0155    4.7878 H   0  0  0  0  0  0
  -17.6418   63.3681    4.4673 H   0  0  0  0  0  0
  -18.1524   62.7472    6.0737 H   0  0  0  0  0  0
  -19.4606   61.8448    2.5311 H   0  0  0  0  0  0
  -19.9433   62.7553    4.0024 H   0  0  0  0  0  0
  -21.7419   56.8598    4.3725 H   0  0  0  0  0  0
  -21.0397   56.8664    2.7192 H   0  0  0  0  0  0
  -19.9644   60.1870    1.1431 H   0  0  0  0  0  0
  -21.5966   60.3322    0.4072 H   0  0  0  0  0  0
  -20.9323   58.7117    0.8065 H   0  0  0  0  0  0
  -15.8839   61.3221    3.2807 H   0  0  0  0  0  0
  -17.4205   61.8074    2.4871 H   0  0  0  0  0  0
  -17.0307   60.0670    2.7009 H   0  0  0  0  0  0
  -15.3145   63.0464    4.9637 H   0  0  0  0  0  0
  -16.0275   63.7618    6.4491 H   0  0  0  0  0  0
  -24.6339   59.0296    4.2061 H   0  0  0  0  0  0
  -23.5955   60.4797    4.4192 H   0  0  0  0  0  0
  -26.1668   60.3458    3.0786 H   0  0  0  0  0  0
  -25.0642   61.7606    3.1740 H   0  0  0  0  0  0
  -19.5940   55.4045    9.2645 H   0  0  0  0  0  0
  -21.0797   56.2446    8.7045 H   0  0  0  0  0  0
  -19.8477   57.1386    9.6583 H   0  0  0  0  0  0
  -15.5402   59.4306    7.0263 H   0  0  0  0  0  0
  -16.8028   58.0623    4.2048 H   0  0  0  0  0  0
  -16.9327   57.7863    5.9749 H   0  0  0  0  0  0
  -18.7782   57.2294    4.3880 H   0  0  0  0  0  0
  -19.0509   58.7527    3.0211 H   0  0  0  0  0  0
  -19.6537   60.8617    5.4079 H   0  0  0  0  0  0
  1  8  1  0  0  0
  1  9  1  0  0  0
  1 30  1  0  0  0
  1 31  1  0  0  0
  2  3  1  0  0  0
  2  7  1  0  0  0
  2 32  1  0  0  0
  2 33  1  0  0  0
  3  5  1  0  0  0
  3  9  1  0  0  0
  3 10  1  0  0  0
  4  6  1  0  0  0
  4 11  1  0  0  0
  4 20  1  0  0  0
  4 24  1  0  0  0
  5  8  1  0  0  0
  5 23  1  0  0  0
  5 34  1  0  0  0
  6 12  1  0  0  0
  6 35  1  0  0  0
  6 36  1  0  0  0
  7 24  1  0  0  0
  7 37  1  0  0  0
  7 38  1  0  0  0
  8 39  1  0  0  0
  8 40  1  0  0  0
  9 13  1  0  0  0
  9 26  1  0  0  0
 10 41  1  0  0  0
 10 42  1  0  0  0
 10 43  1  0  0  0
 11 44  1  0  0  0
 11 45  1  0  0  0
 11 46  1  0  0  0
 12 18  1  0  0  0
 12 47  1  0  0  0
 12 48  1  0  0  0
 13 14  1  0  0  0
 13 49  1  0  0  0
 13 50  1  0  0  0
 14 15  1  0  0  0
 14 51  1  0  0  0
 14 52  1  0  0  0
 15 25  2  0  0  0
 15 26  1  0  0  0
 16 17  1  0  0  0
 16 27  2  0  0  0
 16 29  1  0  0  0
 17 53  1  0  0  0
 17 54  1  0  0  0
 17 55  1  0  0  0
 18 19  1  0  0  0
 18 28  2  0  0  0
 19 20  2  0  0  0
 19 56  1  0  0  0
 20 21  1  0  0  0
 21 22  1  0  0  0
 21 57  1  0  0  0
 21 58  1  0  0  0
 22 23  1  0  0  0
 22 29  1  0  0  0
 22 59  1  0  0  0
 23 24  1  0  0  0
 23 60  1  0  0  0
 24 61  1  0  0  0
M  END
> <s_m_source_file>
../2oax_ligand.sdf

> <i_m_source_file_index>
1

> <s_epik_input>
Tz1DKE8xKVtDSDJdW0NIMl1bQ0BdMTJbQ0BdMyhbQ0gzXSlbQ0BASF0oW0NIMl1bQ0gyXTIpW0NASF00W0NASF0oW0NIMl1bQ0gyXTMpW0NAXTUoW0NIM10pQyg9W0NIXUMoPU8pW0NIMl1bQ0gyXTUpW0NIMl1bQ0BIXTRTQyg9TylbQ0gzXQ==

> <s_epik_cmdline>
J2VwaWtfYXBwJywgJy1pbWFlJywgJ2xpZ2FuZF9wcm8ubWFlJywgJy1vbWFlJywgJ2xpZ2FuZF9wcmVwLm1hZScsICctbXMnLCAnMScsICctcGgnLCAnNycsICctcGh0JywgJzAuNScsICctbnQn

> <r_lp_tautomer_probability>
1

> <r_epik_Ionization_Penalty>
  0.0000

> <r_epik_Ionization_Penalty_Charging>
  0.0000

> <r_epik_Ionization_Penalty_Neutral>
  0.0000

> <r_epik_State_Penalty>
 -0.0000

> <r_epik_Charging_Adjusted_Penalty>
0

> <i_epik_Tot_Q>
0

> <i_epik_Tot_abs_Q>
0

> <s_epik_Chemistry_Notes>
This compound has an ester and may undergo hydrolysis at high or low pH.

$$$$
