2oaz_ligand
                    3D
 Schrodinger Suite 2020-3.
 40 42  0  0  1  0            999 V2000
   16.6680   29.9440   18.3680 C   0  0  0  0  0  0
   16.1300   30.4250   19.6350 C   0  0  0  0  0  0
   17.4290   28.7750   18.2590 N   0  0  0  0  0  0
   16.4010   30.6830   17.1740 C   0  0  0  0  0  0
   15.3500   31.6400   19.6160 C   0  0  0  0  0  0
   16.3310   29.7310   21.0090 C   0  0  0  0  0  0
   18.6610   28.5920   17.7740 C   0  0  0  0  0  0
   15.6300   31.8750   17.1770 C   0  0  0  0  0  0
   15.1100   32.3500   18.3870 C   0  0  0  0  0  0
   17.6240   30.1520   21.7100 C   0  0  0  0  0  0
   16.2360   28.1920   20.9620 C   0  0  0  0  0  0
   19.5580   29.4260   17.2650 N   0  0  0  0  0  0
   19.1690   27.3360   17.7660 N   0  3  0  0  0  0
   20.6040   28.6050   16.9660 C   0  0  3  0  0  0
   20.4090   27.3150   17.2520 N   0  0  0  0  0  0
   22.1380   29.0570   16.2620 S   0  0  0  0  0  0
   22.2900   30.8690   15.9020 C   0  0  0  0  0  0
   21.1950   31.8930   16.1430 C   0  0  0  0  0  0
   21.2560   32.9760   16.9930 C   0  0  0  0  0  0
   19.6800   31.8580   15.3360 S   0  0  0  0  0  0
   20.0720   33.7640   16.9840 C   0  0  0  0  0  0
   19.1290   33.2750   16.1290 C   0  0  0  0  0  0
   17.0166   27.8159   18.6055 H   0  0  0  0  0  0
   16.8032   30.3188   16.2287 H   0  0  0  0  0  0
   14.9361   32.0259   20.5476 H   0  0  0  0  0  0
   15.4879   30.0895   21.6178 H   0  0  0  0  0  0
   15.4450   32.4142   16.2480 H   0  0  0  0  0  0
   14.5183   33.2653   18.3985 H   0  0  0  0  0  0
   17.6843   31.2499   21.7395 H   0  0  0  0  0  0
   18.4873   29.7520   21.1580 H   0  0  0  0  0  0
   17.6300   29.7567   22.7365 H   0  0  0  0  0  0
   15.3043   27.8974   20.4569 H   0  0  0  0  0  0
   16.2393   27.7930   21.9871 H   0  0  0  0  0  0
   17.0966   27.7883   20.4086 H   0  0  0  0  0  0
   23.1169   31.2918   16.4915 H   0  0  0  0  0  0
   22.4918   31.0143   14.8305 H   0  0  0  0  0  0
   22.1245   33.2057   17.6103 H   0  0  0  0  0  0
   19.9340   34.6581   17.5920 H   0  0  0  0  0  0
   18.1500   33.7271   15.9699 H   0  0  0  0  0  0
   18.7014   26.4026   18.1127 H   0  0  0  0  0  0
  1  2  2  0  0  0
  1  3  1  0  0  0
  1  4  1  0  0  0
  2  5  1  0  0  0
  2  6  1  0  0  0
  3  7  1  0  0  0
  3 23  1  0  0  0
  4  8  2  0  0  0
  4 24  1  0  0  0
  5  9  2  0  0  0
  5 25  1  0  0  0
  6 10  1  0  0  0
  6 11  1  0  0  0
  6 26  1  0  0  0
  7 12  2  0  0  0
  7 13  1  0  0  0
  8  9  1  0  0  0
  8 27  1  0  0  0
  9 28  1  0  0  0
 10 29  1  0  0  0
 10 30  1  0  0  0
 10 31  1  0  0  0
 11 32  1  0  0  0
 11 33  1  0  0  0
 11 34  1  0  0  0
 12 14  1  0  0  0
 13 15  2  0  0  0
 13 40  1  0  0  0
 14 15  1  0  0  0
 14 16  1  0  0  0
 16 17  1  0  0  0
 17 18  1  0  0  0
 17 35  1  0  0  0
 17 36  1  0  0  0
 18 19  2  0  0  0
 18 20  1  0  0  0
 19 21  1  0  0  0
 19 37  1  0  0  0
 20 22  1  0  0  0
 21 22  2  0  0  0
 21 38  1  0  0  0
 22 39  1  0  0  0
M  CHG  1  13   1
M  END
> <s_m_source_file>
../2oaz_ligand.sdf

> <i_m_source_file_index>
1

> <s_epik_input>
W2NIXTFbY0hdW2NIXVtjSF1jKFtDSF0oW0NIM10pW0NIM10pYzFbTkhdQzI9TltDSF0oTj1OMilTW0NIMl1jM1tjSF1bY0hdW2NIXXMz

> <s_epik_cmdline>
J2VwaWtfYXBwJywgJy1pbWFlJywgJ2xpZ2FuZF9wcm8ubWFlJywgJy1vbWFlJywgJ2xpZ2FuZF9wcmVwLm1hZScsICctbXMnLCAnMScsICctcGgnLCAnNycsICctcGh0JywgJzAuNScsICctbnQn

> <r_epik_Ionization_Penalty>
  0.3905

> <r_epik_Ionization_Penalty_Charging>
  0.0000

> <r_epik_Ionization_Penalty_Neutral>
  0.3905

> <r_epik_State_Penalty>
  0.3889

> <r_epik_Charging_Adjusted_Penalty>
0.388934793690444

> <i_epik_Tot_Q>
1

> <i_epik_Tot_abs_Q>
1

> <s_epik_Chemistry_Notes>
This compound has an imine and may undergo hydrolysis.

$$$$
