2obj_ligand
                    3D
 Schrodinger Suite 2020-3.
 34 36  0  0  1  0            999 V2000
  -20.8050   38.9620    1.9470 C   0  0  0  0  0  0
  -19.9950   38.2630    2.8600 C   0  0  0  0  0  0
  -19.1200   37.2490    2.3990 C   0  0  0  0  0  0
  -19.0360   36.8970    0.9820 C   0  0  0  0  0  0
  -19.8890   37.6480    0.1060 C   0  0  0  0  0  0
  -20.7470   38.6510    0.5730 C   0  0  0  0  0  0
  -18.1710   35.8860    0.4710 C   0  0  0  0  0  0
  -17.3960   35.1700    1.3140 N   0  0  0  0  0  0
  -16.5570   34.2130    0.9630 C   0  0  0  0  0  0
  -16.3980   33.8410   -0.4140 C   0  0  0  0  0  0
  -17.1910   34.5560   -1.4230 C   0  0  0  0  0  0
  -18.0700   35.5740   -0.9400 C   0  0  0  0  0  0
  -17.1460   34.3120   -2.8140 C   0  0  0  0  0  0
  -17.8880   33.2280   -3.4180 C   0  0  0  0  0  0
  -17.8310   32.9880   -4.8160 C   0  0  0  0  0  0
  -17.0400   33.8210   -5.6420 C   0  0  0  0  0  0
  -16.2980   34.8960   -5.0860 C   0  0  0  0  0  0
  -16.3480   35.1420   -3.6920 C   0  0  0  0  0  0
  -15.4640   32.7870   -0.7210 C   0  0  0  0  0  0
  -14.7240   31.9370   -0.9860 N   0  0  0  0  0  0
  -15.8850   33.6370    2.0140 O   0  0  0  0  0  0
  -18.3750   36.6400    3.3780 O   0  0  0  0  0  0
  -21.8250   39.5960   -0.6910 Br  0  0  0  0  0  0
  -21.4771   39.7436    2.3014 H   0  0  0  0  0  0
  -20.0406   38.5017    3.9226 H   0  0  0  0  0  0
  -19.8682   37.4297   -0.9617 H   0  0  0  0  0  0
  -18.6802   36.1301   -1.6517 H   0  0  0  0  0  0
  -18.5020   32.5837   -2.7888 H   0  0  0  0  0  0
  -18.3954   32.1638   -5.2521 H   0  0  0  0  0  0
  -17.0000   33.6356   -6.7154 H   0  0  0  0  0  0
  -15.6907   35.5311   -5.7309 H   0  0  0  0  0  0
  -15.7761   35.9700   -3.2732 H   0  0  0  0  0  0
  -18.4854   36.9517    4.4271 H   0  0  0  0  0  0
  -17.4332   35.3659    2.3958 H   0  0  0  0  0  0
  1  2  2  0  0  0
  1  6  1  0  0  0
  1 24  1  0  0  0
  2  3  1  0  0  0
  2 25  1  0  0  0
  3  4  2  0  0  0
  3 22  1  0  0  0
  4  5  1  0  0  0
  4  7  1  0  0  0
  5  6  2  0  0  0
  5 26  1  0  0  0
  6 23  1  0  0  0
  7  8  1  0  0  0
  7 12  2  0  0  0
  8  9  1  0  0  0
  8 34  1  0  0  0
  9 10  1  0  0  0
  9 21  2  0  0  0
 10 11  2  0  0  0
 10 19  1  0  0  0
 11 12  1  0  0  0
 11 13  1  0  0  0
 12 27  1  0  0  0
 13 14  2  0  0  0
 13 18  1  0  0  0
 14 15  1  0  0  0
 14 28  1  0  0  0
 15 16  2  0  0  0
 15 29  1  0  0  0
 16 17  1  0  0  0
 16 30  1  0  0  0
 17 18  2  0  0  0
 17 31  1  0  0  0
 18 32  1  0  0  0
 19 20  3  0  0  0
 22 33  1  0  0  0
M  END
> <s_m_source_file>
../2obj_ligand.sdf

> <i_m_source_file_index>
1

> <s_epik_input>
W09IXWMxW2NIXVtjSF1jKEJyKVtjSF1jMS1jMm5jKFtPSF0pYyhDI04pYyhbY0hdMiktYzNbY0hdW2NIXVtjSF1bY0hdW2NIXTM=

> <s_epik_cmdline>
J2VwaWtfYXBwJywgJy1pbWFlJywgJ2xpZ2FuZF9wcm8ubWFlJywgJy1vbWFlJywgJ2xpZ2FuZF9wcmVwLm1hZScsICctbXMnLCAnMScsICctcGgnLCAnNycsICctcGh0JywgJzAuNScsICctbnQn

> <r_lp_tautomer_probability>
0.999999999997365

> <r_epik_Ionization_Penalty>
  0.3124

> <r_epik_Ionization_Penalty_Charging>
  0.2547

> <r_epik_Ionization_Penalty_Neutral>
  0.0577

> <r_epik_State_Penalty>
  0.2462

> <r_epik_Charging_Adjusted_Penalty>
0.500845173548344

> <i_epik_Tot_Q>
0

> <i_epik_Tot_abs_Q>
0

$$$$
