2obo_ligand
                    3D
 Schrodinger Suite 2020-3.
 80 82  0  0  1  0            999 V2000
  192.0180  -10.4090   48.8310 C   0  0  0  0  0  0
  192.6240  -11.2850   49.4590 O   0  0  0  0  0  0
  190.6890  -10.1650   48.8440 O   0  0  0  0  0  0
  189.6980  -10.9280   49.6350 C   0  0  0  0  0  0
  188.3380  -10.2250   49.4430 C   0  0  0  0  0  0
  189.5220  -12.3650   49.0710 C   0  0  0  0  0  0
  190.0670  -10.9810   51.1480 C   0  0  0  0  0  0
  192.6230   -9.5400   48.0250 N   0  0  0  0  0  0
  194.0740   -9.4170   48.0010 C   0  0  1  0  0  0
  194.6730   -8.9350   46.7010 C   0  0  0  0  0  0
  196.1680   -8.9540   46.9100 C   0  0  0  0  0  0
  194.3430   -9.8870   45.5960 C   0  0  0  0  0  0
  194.2280   -7.4970   46.2960 C   0  0  0  0  0  0
  194.5810   -8.6080   49.1900 C   0  0  0  0  0  0
  194.4110   -7.3860   49.2440 O   0  0  0  0  0  0
  195.1720   -9.2900   50.1820 N   0  0  0  0  0  0
  195.4090  -10.7350   50.2670 C   0  0  0  0  0  0
  195.6930   -8.5870   51.3500 C   0  0  1  0  0  0
  196.5020   -9.6080   52.0990 C   0  0  2  0  0  0
  196.3200  -10.8920   51.4230 C   0  0  1  0  0  0
  195.7110  -10.7030   52.7850 C   0  0  0  0  0  0
  196.3470  -11.3320   53.9910 C   0  0  0  0  0  0
  194.2020  -10.7630   52.8680 C   0  0  0  0  0  0
  196.7300   -7.5950   50.8600 C   0  0  0  0  0  0
  197.5860   -7.9450   50.0460 O   0  0  0  0  0  0
  196.6070   -6.3490   51.3020 N   0  0  0  0  0  0
  197.5450   -5.2910   50.9250 C   0  0  1  0  0  0
  196.8210   -4.1310   50.2340 C   0  0  0  0  0  0
  196.0400   -4.6580   49.0490 C   0  0  0  0  0  0
  196.6690   -4.6550   47.6950 C   0  0  0  0  0  0
  195.5290   -3.7140   48.0210 C   0  0  0  0  0  0
  198.7390   -5.8960   52.9960 O   0  0  0  0  0  0
  198.2970   -4.7730   52.1700 C   0  0  1  0  0  0
  199.3180   -2.8540   51.2060 O   0  0  0  0  0  0
  200.6770   -4.5460   51.8230 N   0  0  0  0  0  0
  199.4850   -3.9770   51.6930 C   0  0  0  0  0  0
  188.0892  -10.1941   48.3719 H   0  0  0  0  0  0
  188.3969   -9.1991   49.8355 H   0  0  0  0  0  0
  187.5583  -10.7807   49.9846 H   0  0  0  0  0  0
  189.2621  -12.3106   48.0035 H   0  0  0  0  0  0
  188.7175  -12.8778   49.6186 H   0  0  0  0  0  0
  190.4618  -12.9239   49.1916 H   0  0  0  0  0  0
  190.1880   -9.9573   51.5320 H   0  0  0  0  0  0
  191.0088  -11.5346   51.2765 H   0  0  0  0  0  0
  189.2646  -11.4885   51.7035 H   0  0  0  0  0  0
  192.0065   -8.9079   47.3690 H   0  0  0  0  0  0
  194.3848  -10.4693   48.0794 H   0  0  0  0  0  0
  196.4854   -9.9676   47.1960 H   0  0  0  0  0  0
  196.4355   -8.2469   47.7090 H   0  0  0  0  0  0
  196.6724   -8.6613   45.9773 H   0  0  0  0  0  0
  194.6566  -10.9022   45.8808 H   0  0  0  0  0  0
  194.8715   -9.5833   44.6803 H   0  0  0  0  0  0
  193.2582   -9.8758   45.4142 H   0  0  0  0  0  0
  194.4703   -6.7958   47.1082 H   0  0  0  0  0  0
  193.1432   -7.4865   46.1139 H   0  0  0  0  0  0
  194.7565   -7.1940   45.3801 H   0  0  0  0  0  0
  194.4524  -11.2548   50.4242 H   0  0  0  0  0  0
  195.8681  -11.0870   49.3314 H   0  0  0  0  0  0
  194.8676   -8.1310   51.9163 H   0  0  0  0  0  0
  197.3329   -8.9748   52.4436 H   0  0  0  0  0  0
  196.9639  -11.6764   50.9986 H   0  0  0  0  0  0
  197.4417  -11.2728   53.9011 H   0  0  0  0  0  0
  196.0411  -12.3864   54.0588 H   0  0  0  0  0  0
  196.0240  -10.7975   54.8966 H   0  0  0  0  0  0
  193.7667  -10.2955   51.9725 H   0  0  0  0  0  0
  193.8624  -10.2241   53.7648 H   0  0  0  0  0  0
  193.8795  -11.8130   52.9271 H   0  0  0  0  0  0
  195.7651   -6.1241   51.9733 H   0  0  0  0  0  0
  198.2392   -5.7640   50.2148 H   0  0  0  0  0  0
  196.1307   -3.6539   50.9453 H   0  0  0  0  0  0
  197.5589   -3.3924   49.8877 H   0  0  0  0  0  0
  195.5693   -5.4298   49.6757 H   0  0  0  0  0  0
  197.7376   -4.4110   47.7877 H   0  0  0  0  0  0
  196.5583   -5.6490   47.2370 H   0  0  0  0  0  0
  194.4651   -3.9193   47.8312 H   0  0  0  0  0  0
  195.6444   -2.6813   48.3818 H   0  0  0  0  0  0
  197.9989   -6.5847   53.4295 H   0  0  0  0  0  0
  197.6585   -4.1585   52.8216 H   0  0  0  0  0  0
  200.7621   -5.5497   52.2650 H   0  0  0  0  0  0
  201.5798   -4.0139   51.4887 H   0  0  0  0  0  0
  1  2  2  0  0  0
  1  3  1  0  0  0
  1  8  1  0  0  0
  3  4  1  0  0  0
  4  5  1  0  0  0
  4  6  1  0  0  0
  4  7  1  0  0  0
  5 37  1  0  0  0
  5 38  1  0  0  0
  5 39  1  0  0  0
  6 40  1  0  0  0
  6 41  1  0  0  0
  6 42  1  0  0  0
  7 43  1  0  0  0
  7 44  1  0  0  0
  7 45  1  0  0  0
  8  9  1  0  0  0
  8 46  1  0  0  0
  9 10  1  0  0  0
  9 14  1  0  0  0
  9 47  1  0  0  0
 10 11  1  0  0  0
 10 12  1  0  0  0
 10 13  1  0  0  0
 11 48  1  0  0  0
 11 49  1  0  0  0
 11 50  1  0  0  0
 12 51  1  0  0  0
 12 52  1  0  0  0
 12 53  1  0  0  0
 13 54  1  0  0  0
 13 55  1  0  0  0
 13 56  1  0  0  0
 14 15  2  0  0  0
 14 16  1  0  0  0
 16 17  1  0  0  0
 16 18  1  0  0  0
 17 20  1  0  0  0
 17 57  1  0  0  0
 17 58  1  0  0  0
 18 19  1  0  0  0
 18 24  1  0  0  0
 18 59  1  0  0  0
 19 20  1  0  0  0
 19 21  1  0  0  0
 19 60  1  0  0  0
 20 21  1  0  0  0
 20 61  1  0  0  0
 21 22  1  0  0  0
 21 23  1  0  0  0
 22 62  1  0  0  0
 22 63  1  0  0  0
 22 64  1  0  0  0
 23 65  1  0  0  0
 23 66  1  0  0  0
 23 67  1  0  0  0
 24 25  2  0  0  0
 24 26  1  0  0  0
 26 27  1  0  0  0
 26 68  1  0  0  0
 27 28  1  0  0  0
 27 33  1  0  0  0
 27 69  1  0  0  0
 28 29  1  0  0  0
 28 70  1  0  0  0
 28 71  1  0  0  0
 29 30  1  0  0  0
 29 31  1  0  0  0
 29 72  1  0  0  0
 30 31  1  0  0  0
 30 73  1  0  0  0
 30 74  1  0  0  0
 31 75  1  0  0  0
 31 76  1  0  0  0
 32 33  1  0  0  0
 32 77  1  0  0  0
 33 36  1  0  0  0
 33 78  1  0  0  0
 34 36  2  0  0  0
 35 36  1  0  0  0
 35 79  1  0  0  0
 35 80  1  0  0  0
M  END
> <s_m_source_file>
../2obo_ligand.sdf

> <i_m_source_file_index>
1

> <s_epik_input>
W0NIM11DKFtDSDNdKShbQ0gzXSlPQyg9TylbTkhdW0NAQEhdKEMoW0NIM10pKFtDSDNdKVtDSDNdKUMoPU8pTihbQ0gyXVtDQEBIXShbQ0BASF0xMilDMihbQ0gzXSlbQ0gzXSlbQ0BASF0xQyg9TylbTkhdW0NASF0oW0NAQEhdKFtPSF0pQyg9TylbTkgyXSlbQ0gyXVtDSF0zW0NIMl1bQ0gyXTM=

> <s_epik_cmdline>
J2VwaWtfYXBwJywgJy1pbWFlJywgJ2xpZ2FuZF9wcm8ubWFlJywgJy1vbWFlJywgJ2xpZ2FuZF9wcmVwLm1hZScsICctbXMnLCAnMScsICctcGgnLCAnNycsICctcGh0JywgJzAuNScsICctbnQn

> <r_lp_tautomer_probability>
1

> <r_epik_Ionization_Penalty>
  0.0000

> <r_epik_Ionization_Penalty_Charging>
  0.0000

> <r_epik_Ionization_Penalty_Neutral>
  0.0000

> <r_epik_State_Penalty>
 -0.0000

> <r_epik_Charging_Adjusted_Penalty>
0

> <i_epik_Tot_Q>
0

> <i_epik_Tot_abs_Q>
0

> <s_epik_Chemistry_Notes>
This compound has an ester and may undergo hydrolysis at high or low pH.

$$$$
