2oc0_ligand
                    3D
 Schrodinger Suite 2020-3.
 87 90  0  0  1  0            999 V2000
  192.0400  -10.3830   49.1750 C   0  0  0  0  0  0
  192.6100  -11.3340   49.7220 O   0  0  0  0  0  0
  190.7010  -10.1490   49.1460 O   0  0  0  0  0  0
  189.6590  -10.8590   49.8960 C   0  0  0  0  0  0
  188.8670  -11.6610   48.8600 C   0  0  0  0  0  0
  188.6840   -9.8300   50.5060 C   0  0  0  0  0  0
  190.1540  -11.7810   51.0490 C   0  0  0  0  0  0
  192.6970   -9.4530   48.4900 N   0  0  0  0  0  0
  194.1490   -9.4430   48.3710 C   0  0  1  0  0  0
  194.5800   -8.7860   47.0610 C   0  0  0  0  0  0
  196.1050   -8.7530   46.9420 C   0  0  0  0  0  0
  193.9770   -9.5210   45.8640 C   0  0  0  0  0  0
  196.5840   -8.2110   45.6040 C   0  0  0  0  0  0
  194.4350   -8.9710   44.5290 C   0  0  0  0  0  0
  195.9540   -8.9900   44.4410 C   0  0  0  0  0  0
  194.6890   -8.6180   49.5320 C   0  0  0  0  0  0
  194.4110   -7.4160   49.6280 O   0  0  0  0  0  0
  195.4120   -9.2600   50.4620 N   0  0  0  0  0  0
  195.7630  -10.6890   50.4960 C   0  0  0  0  0  0
  195.9690   -8.5470   51.6160 C   0  0  1  0  0  0
  196.4400   -9.5730   52.5860 C   0  0  2  0  0  0
  196.4840  -10.8420   51.8110 C   0  0  1  0  0  0
  195.6430  -10.7580   53.0880 C   0  0  0  0  0  0
  196.1630  -11.4340   54.3160 C   0  0  0  0  0  0
  194.1510  -10.7130   52.9690 C   0  0  0  0  0  0
  197.0190   -7.5340   51.1720 C   0  0  0  0  0  0
  198.0030   -7.8880   50.5080 O   0  0  0  0  0  0
  196.8130   -6.2780   51.5510 N   0  0  0  0  0  0
  197.7280   -5.2110   51.1700 C   0  0  1  0  0  0
  196.9610   -4.1400   50.3820 C   0  0  0  0  0  0
  196.3330   -4.6740   49.0670 C   0  0  0  0  0  0
  195.3550   -3.7610   48.3230 C   0  0  0  0  0  0
  197.2360   -4.6540   47.8320 C   0  0  0  0  0  0
  196.0300   -4.1670   47.0070 C   0  0  0  0  0  0
  199.0140   -5.7020   53.2040 O   0  0  0  0  0  0
  198.4720   -4.6140   52.3950 C   0  0  1  0  0  0
  199.4910   -2.7450   51.3070 O   0  0  0  0  0  0
  200.9060   -4.3320   52.0080 N   0  0  0  0  0  0
  199.6880   -3.8230   51.8580 C   0  0  0  0  0  0
  188.5286  -10.9895   48.0571 H   0  0  0  0  0  0
  187.9939  -12.1235   49.3436 H   0  0  0  0  0  0
  189.5095  -12.4462   48.4349 H   0  0  0  0  0  0
  188.3147   -9.1610   49.7148 H   0  0  0  0  0  0
  189.2071   -9.2385   51.2718 H   0  0  0  0  0  0
  187.8353  -10.3571   50.9662 H   0  0  0  0  0  0
  190.8533  -12.5285   50.6462 H   0  0  0  0  0  0
  189.2933  -12.2922   51.5048 H   0  0  0  0  0  0
  190.6651  -11.1736   51.8104 H   0  0  0  0  0  0
  192.0997   -8.6690   48.0015 H   0  0  0  0  0  0
  194.4906  -10.4884   48.3923 H   0  0  0  0  0  0
  194.2062   -7.7515   47.0656 H   0  0  0  0  0  0
  196.5205   -8.1097   47.7316 H   0  0  0  0  0  0
  196.5035   -9.7723   47.0520 H   0  0  0  0  0  0
  194.2660  -10.5817   45.9015 H   0  0  0  0  0  0
  192.8806   -9.4383   45.8973 H   0  0  0  0  0  0
  196.3009   -7.1518   45.5149 H   0  0  0  0  0  0
  197.6782   -8.3046   45.5410 H   0  0  0  0  0  0
  194.0212   -9.5872   43.7172 H   0  0  0  0  0  0
  194.0826   -7.9348   44.4189 H   0  0  0  0  0  0
  196.2571   -8.5336   43.4872 H   0  0  0  0  0  0
  196.2954  -10.0352   44.4722 H   0  0  0  0  0  0
  194.8450  -11.2932   50.4487 H   0  0  0  0  0  0
  196.4050  -10.9295   49.6357 H   0  0  0  0  0  0
  195.1895   -7.9600   52.1238 H   0  0  0  0  0  0
  197.0372   -8.8762   53.1925 H   0  0  0  0  0  0
  197.2449  -11.5555   51.4618 H   0  0  0  0  0  0
  197.2628  -11.4138   54.3078 H   0  0  0  0  0  0
  195.8156  -12.4775   54.3351 H   0  0  0  0  0  0
  195.7932  -10.9080   55.2085 H   0  0  0  0  0  0
  193.8728  -10.1985   52.0374 H   0  0  0  0  0  0
  193.7309  -10.1690   53.8278 H   0  0  0  0  0  0
  193.7533  -11.7385   52.9544 H   0  0  0  0  0  0
  195.9292   -6.0514   52.1654 H   0  0  0  0  0  0
  198.4746   -5.6893   50.5190 H   0  0  0  0  0  0
  196.1430   -3.7443   51.0019 H   0  0  0  0  0  0
  197.6456   -3.3222   50.1128 H   0  0  0  0  0  0
  195.9757   -5.6218   49.4960 H   0  0  0  0  0  0
  194.3245   -4.0965   48.5115 H   0  0  0  0  0  0
  195.4750   -2.7272   48.6793 H   0  0  0  0  0  0
  198.0737   -3.9615   48.0015 H   0  0  0  0  0  0
  197.6277   -5.6652   47.6478 H   0  0  0  0  0  0
  195.4068   -4.9113   46.4897 H   0  0  0  0  0  0
  196.1492   -3.2802   46.3672 H   0  0  0  0  0  0
  198.3339   -6.4112   53.6985 H   0  0  0  0  0  0
  197.7976   -4.0194   53.0288 H   0  0  0  0  0  0
  201.0387   -5.3025   52.5084 H   0  0  0  0  0  0
  201.7817   -3.7829   51.6317 H   0  0  0  0  0  0
  1  2  2  0  0  0
  1  3  1  0  0  0
  1  8  1  0  0  0
  3  4  1  0  0  0
  4  5  1  0  0  0
  4  6  1  0  0  0
  4  7  1  0  0  0
  5 40  1  0  0  0
  5 41  1  0  0  0
  5 42  1  0  0  0
  6 43  1  0  0  0
  6 44  1  0  0  0
  6 45  1  0  0  0
  7 46  1  0  0  0
  7 47  1  0  0  0
  7 48  1  0  0  0
  8  9  1  0  0  0
  8 49  1  0  0  0
  9 10  1  0  0  0
  9 16  1  0  0  0
  9 50  1  0  0  0
 10 11  1  0  0  0
 10 12  1  0  0  0
 10 51  1  0  0  0
 11 13  1  0  0  0
 11 52  1  0  0  0
 11 53  1  0  0  0
 12 14  1  0  0  0
 12 54  1  0  0  0
 12 55  1  0  0  0
 13 15  1  0  0  0
 13 56  1  0  0  0
 13 57  1  0  0  0
 14 15  1  0  0  0
 14 58  1  0  0  0
 14 59  1  0  0  0
 15 60  1  0  0  0
 15 61  1  0  0  0
 16 17  2  0  0  0
 16 18  1  0  0  0
 18 19  1  0  0  0
 18 20  1  0  0  0
 19 22  1  0  0  0
 19 62  1  0  0  0
 19 63  1  0  0  0
 20 21  1  0  0  0
 20 26  1  0  0  0
 20 64  1  0  0  0
 21 22  1  0  0  0
 21 23  1  0  0  0
 21 65  1  0  0  0
 22 23  1  0  0  0
 22 66  1  0  0  0
 23 24  1  0  0  0
 23 25  1  0  0  0
 24 67  1  0  0  0
 24 68  1  0  0  0
 24 69  1  0  0  0
 25 70  1  0  0  0
 25 71  1  0  0  0
 25 72  1  0  0  0
 26 27  2  0  0  0
 26 28  1  0  0  0
 28 29  1  0  0  0
 28 73  1  0  0  0
 29 30  1  0  0  0
 29 36  1  0  0  0
 29 74  1  0  0  0
 30 31  1  0  0  0
 30 75  1  0  0  0
 30 76  1  0  0  0
 31 32  1  0  0  0
 31 33  1  0  0  0
 31 77  1  0  0  0
 32 34  1  0  0  0
 32 78  1  0  0  0
 32 79  1  0  0  0
 33 34  1  0  0  0
 33 80  1  0  0  0
 33 81  1  0  0  0
 34 82  1  0  0  0
 34 83  1  0  0  0
 35 36  1  0  0  0
 35 84  1  0  0  0
 36 39  1  0  0  0
 36 85  1  0  0  0
 37 39  2  0  0  0
 38 39  1  0  0  0
 38 86  1  0  0  0
 38 87  1  0  0  0
M  END
> <s_m_source_file>
../2oc0_ligand.sdf

> <i_m_source_file_index>
1

> <s_epik_input>
W0NIMl0xW0NIMl1bQ0gyXVtDSDJdW0NIMl1bQ0hdMVtDQEhdKFtOSF1DKD1PKU9DKFtDSDNdKShbQ0gzXSlbQ0gzXSlDKD1PKU4oW0NIMl1bQ0BASF0oW0NAQEhdMjMpQzMoW0NIM10pW0NIM10pW0NAQEhdMkMoPU8pW05IXVtDQEhdKFtDQEBIXShbT0hdKUMoPU8pW05IMl0pW0NIMl1bQ0hdNFtDSDJdW0NIMl1bQ0gyXTQ=

> <s_epik_cmdline>
J2VwaWtfYXBwJywgJy1pbWFlJywgJ2xpZ2FuZF9wcm8ubWFlJywgJy1vbWFlJywgJ2xpZ2FuZF9wcmVwLm1hZScsICctbXMnLCAnMScsICctcGgnLCAnNycsICctcGh0JywgJzAuNScsICctbnQn

> <r_lp_tautomer_probability>
1

> <r_epik_Ionization_Penalty>
  0.0000

> <r_epik_Ionization_Penalty_Charging>
  0.0000

> <r_epik_Ionization_Penalty_Neutral>
  0.0000

> <r_epik_State_Penalty>
 -0.0000

> <r_epik_Charging_Adjusted_Penalty>
0

> <i_epik_Tot_Q>
0

> <i_epik_Tot_abs_Q>
0

> <s_epik_Chemistry_Notes>
This compound has an ester and may undergo hydrolysis at high or low pH.

$$$$
