2oc1_ligand
                    3D
 Schrodinger Suite 2020-3.
 98 98  0  0  1  0            999 V2000
  193.5460   -8.5480   48.9920 C   0  0  0  0  0  0
  193.2670   -9.3040   47.6970 C   0  0  1  0  0  0
  191.7810   -9.6740   47.5630 C   0  0  0  0  0  0
  191.2470  -10.5470   48.6160 C   0  0  0  0  0  0
  189.9480  -10.2850   49.0120 C   0  0  0  0  0  0
  189.2750  -11.0030   50.0760 C   0  0  0  0  0  0
  188.0910  -10.1690   50.5850 C   0  0  0  0  0  0
  186.8200  -10.4080   49.7680 C   0  0  0  0  0  0
  187.8470  -10.4880   52.0440 C   0  0  0  0  0  0
  193.6910   -8.3870   46.5290 C   0  0  0  0  0  0
  195.1270   -7.8840   46.7210 C   0  0  0  0  0  0
  193.5350   -9.1060   45.1980 C   0  0  0  0  0  0
  193.0640   -7.4290   49.1950 O   0  0  0  0  0  0
  194.3370   -9.1660   49.8580 N   0  0  0  0  0  0
  194.6940   -8.5510   51.1240 C   0  0  1  0  0  0
  195.3290   -9.5810   52.0610 C   0  0  0  0  0  0
  194.4450  -10.7670   52.4470 C   0  0  0  0  0  0
  195.1720  -11.6260   53.4550 C   0  0  0  0  0  0
  193.1260  -10.2780   53.0270 C   0  0  0  0  0  0
  195.6630   -7.4090   50.8450 C   0  0  0  0  0  0
  196.7800   -7.6260   50.3640 O   0  0  0  0  0  0
  195.2160   -6.1860   51.1020 N   0  0  0  0  0  0
  196.0490   -5.0140   50.8710 C   0  0  1  0  0  0
  195.3470   -4.0180   49.9370 C   0  0  0  0  0  0
  195.4690   -4.3510   48.4520 C   0  0  0  0  0  0
  194.1200   -4.2460   47.8050 C   0  0  0  0  0  0
  197.4310   -5.7690   52.8000 O   0  0  0  0  0  0
  196.9340   -4.6250   52.0740 C   0  0  1  0  0  0
  198.0550   -2.8240   51.0010 O   0  0  0  0  0  0
  199.3380   -4.5850   51.5700 N   0  0  0  0  0  0
  200.6240   -3.9180   51.4570 C   0  0  0  0  0  0
  200.9790   -3.7870   49.9930 C   0  0  0  0  0  0
  200.1370   -3.9660   49.1110 O   0  0  0  0  0  0
  198.1740   -3.9480   51.4970 C   0  0  0  0  0  0
  202.2360   -3.4380   49.7450 N   0  0  0  0  0  0
  202.7670   -3.2820   48.4000 C   0  0  1  0  0  0
  202.5410   -1.9310   47.7160 C   0  0  0  0  0  0
  202.3410   -1.8810   46.3420 C   0  0  0  0  0  0
  202.5590   -0.7580   48.4540 C   0  0  0  0  0  0
  202.1610   -0.6350   45.7380 C   0  0  0  0  0  0
  202.3830    0.4810   47.8720 C   0  0  0  0  0  0
  202.1840    0.5410   46.5000 C   0  0  0  0  0  0
  204.2650   -3.5750   48.4460 C   0  0  0  0  0  0
  204.9840   -3.0420   49.3010 O   0  5  0  0  0  0
  204.7780   -4.3620   47.6480 O   0  0  0  0  0  0
  193.8336  -10.2468   47.7021 H   0  0  0  0  0  0
  191.1720   -8.7582   47.5822 H   0  0  0  0  0  0
  191.6190  -10.2022   46.6118 H   0  0  0  0  0  0
  191.8103  -11.3669   49.0854 H   0  0  0  0  0  0
  189.3691   -9.4950   48.5112 H   0  0  0  0  0  0
  188.9077  -11.9665   49.6929 H   0  0  0  0  0  0
  189.9802  -11.1813   50.9012 H   0  0  0  0  0  0
  188.3444   -9.1034   50.4832 H   0  0  0  0  0  0
  187.0136  -10.1719   48.7112 H   0  0  0  0  0  0
  186.0141   -9.7620   50.1463 H   0  0  0  0  0  0
  186.5184  -11.4619   49.8590 H   0  0  0  0  0  0
  188.7691  -10.3113   52.6171 H   0  0  0  0  0  0
  187.5494  -11.5423   52.1440 H   0  0  0  0  0  0
  187.0451   -9.8423   52.4313 H   0  0  0  0  0  0
  193.0280   -7.5095   46.5065 H   0  0  0  0  0  0
  195.2088   -7.3696   47.6899 H   0  0  0  0  0  0
  195.3816   -7.1841   45.9115 H   0  0  0  0  0  0
  195.8205   -8.7376   46.6993 H   0  0  0  0  0  0
  192.4974   -9.4544   45.0889 H   0  0  0  0  0  0
  194.2168   -9.9686   45.1651 H   0  0  0  0  0  0
  193.7780   -8.4150   44.3773 H   0  0  0  0  0  0
  194.7245  -10.1632   49.6023 H   0  0  0  0  0  0
  193.7645   -8.1761   51.5772 H   0  0  0  0  0  0
  196.2235  -10.0081   51.5841 H   0  0  0  0  0  0
  195.6144   -9.0920   53.0041 H   0  0  0  0  0  0
  194.2282  -11.3727   51.5547 H   0  0  0  0  0  0
  196.1227  -11.9725   53.0236 H   0  0  0  0  0  0
  194.5487  -12.4946   53.7139 H   0  0  0  0  0  0
  195.3740  -11.0363   54.3614 H   0  0  0  0  0  0
  192.6074   -9.6545   52.2838 H   0  0  0  0  0  0
  193.3212   -9.6839   53.9319 H   0  0  0  0  0  0
  192.4959  -11.1421   53.2845 H   0  0  0  0  0  0
  194.1961   -6.0668   51.4965 H   0  0  0  0  0  0
  196.8929   -5.2905   50.2219 H   0  0  0  0  0  0
  194.2727   -3.9898   50.1718 H   0  0  0  0  0  0
  195.7794   -3.0164   50.0773 H   0  0  0  0  0  0
  196.1619   -3.6434   47.9733 H   0  0  0  0  0  0
  195.8530   -5.3753   48.3362 H   0  0  0  0  0  0
  194.2069   -4.4858   46.7350 H   0  0  0  0  0  0
  193.7363   -3.2217   47.9213 H   0  0  0  0  0  0
  193.4274   -4.9536   48.2843 H   0  0  0  0  0  0
  196.7292   -6.4379   53.3198 H   0  0  0  0  0  0
  196.3493   -4.0376   52.7973 H   0  0  0  0  0  0
  199.2945   -5.6732   51.7244 H   0  0  0  0  0  0
  200.5611   -2.9202   51.9157 H   0  0  0  0  0  0
  201.3918   -4.5117   51.9747 H   0  0  0  0  0  0
  202.8850   -3.2647   50.6161 H   0  0  0  0  0  0
  202.1697   -4.0090   47.8302 H   0  0  0  0  0  0
  202.3249   -2.7949   45.7482 H   0  0  0  0  0  0
  202.7176   -0.8160   49.5308 H   0  0  0  0  0  0
  202.0008   -0.5763   44.6614 H   0  0  0  0  0  0
  202.3999    1.3891   48.4746 H   0  0  0  0  0  0
  202.0451    1.5063   46.0132 H   0  0  0  0  0  0
  1  2  1  0  0  0
  1 13  2  0  0  0
  1 14  1  0  0  0
  2  3  1  0  0  0
  2 10  1  0  0  0
  2 46  1  0  0  0
  3  4  1  0  0  0
  3 47  1  0  0  0
  3 48  1  0  0  0
  4  5  2  0  0  0
  4 49  1  0  0  0
  5  6  1  0  0  0
  5 50  1  0  0  0
  6  7  1  0  0  0
  6 51  1  0  0  0
  6 52  1  0  0  0
  7  8  1  0  0  0
  7  9  1  0  0  0
  7 53  1  0  0  0
  8 54  1  0  0  0
  8 55  1  0  0  0
  8 56  1  0  0  0
  9 57  1  0  0  0
  9 58  1  0  0  0
  9 59  1  0  0  0
 10 11  1  0  0  0
 10 12  1  0  0  0
 10 60  1  0  0  0
 11 61  1  0  0  0
 11 62  1  0  0  0
 11 63  1  0  0  0
 12 64  1  0  0  0
 12 65  1  0  0  0
 12 66  1  0  0  0
 14 15  1  0  0  0
 14 67  1  0  0  0
 15 16  1  0  0  0
 15 20  1  0  0  0
 15 68  1  0  0  0
 16 17  1  0  0  0
 16 69  1  0  0  0
 16 70  1  0  0  0
 17 18  1  0  0  0
 17 19  1  0  0  0
 17 71  1  0  0  0
 18 72  1  0  0  0
 18 73  1  0  0  0
 18 74  1  0  0  0
 19 75  1  0  0  0
 19 76  1  0  0  0
 19 77  1  0  0  0
 20 21  2  0  0  0
 20 22  1  0  0  0
 22 23  1  0  0  0
 22 78  1  0  0  0
 23 24  1  0  0  0
 23 28  1  0  0  0
 23 79  1  0  0  0
 24 25  1  0  0  0
 24 80  1  0  0  0
 24 81  1  0  0  0
 25 26  1  0  0  0
 25 82  1  0  0  0
 25 83  1  0  0  0
 26 84  1  0  0  0
 26 85  1  0  0  0
 26 86  1  0  0  0
 27 28  1  0  0  0
 27 87  1  0  0  0
 28 34  1  0  0  0
 28 88  1  0  0  0
 29 34  2  0  0  0
 30 31  1  0  0  0
 30 34  1  0  0  0
 30 89  1  0  0  0
 31 32  1  0  0  0
 31 90  1  0  0  0
 31 91  1  0  0  0
 32 33  2  0  0  0
 32 35  1  0  0  0
 35 36  1  0  0  0
 35 92  1  0  0  0
 36 37  1  0  0  0
 36 43  1  0  0  0
 36 93  1  0  0  0
 37 38  2  0  0  0
 37 39  1  0  0  0
 38 40  1  0  0  0
 38 94  1  0  0  0
 39 41  2  0  0  0
 39 95  1  0  0  0
 40 42  2  0  0  0
 40 96  1  0  0  0
 41 42  1  0  0  0
 41 97  1  0  0  0
 42 98  1  0  0  0
 43 44  1  0  0  0
 43 45  2  0  0  0
M  CHG  1  44  -1
M  END
> <s_m_source_file>
../2oc1_ligand.sdf

> <i_m_source_file_index>
1

> <s_epik_input>
W0NIM11bQ0hdKFtDSDNdKVtDSDJdXFtDSF09W0NIXVxbQ0gyXVtDQEBIXShbQ0hdKFtDSDNdKVtDSDNdKUMoPU8pW05IXVtDQEBIXShbQ0gyXVtDSF0oW0NIM10pW0NIM10pQyg9TylbTkhdW0NAQEhdKFtDSDJdW0NIMl1bQ0gzXSlbQ0BASF0oW09IXSlDKD1PKVtOSF1bQ0gyXUMoPU8pW05IXVtDQEhdKEMoPU8pW09IXSljMVtjSF1bY0hdW2NIXVtjSF1bY0hdMQ==

> <s_epik_cmdline>
J2VwaWtfYXBwJywgJy1pbWFlJywgJ2xpZ2FuZF9wcm8ubWFlJywgJy1vbWFlJywgJ2xpZ2FuZF9wcmVwLm1hZScsICctbXMnLCAnMScsICctcGgnLCAnNycsICctcGh0JywgJzAuNScsICctbnQn

> <r_lp_tautomer_probability>
1

> <r_epik_Ionization_Penalty>
  0.0001

> <r_epik_Ionization_Penalty_Charging>
  0.0001

> <r_epik_Ionization_Penalty_Neutral>
  0.0000

> <r_epik_State_Penalty>
 -0.0000

> <r_epik_Charging_Adjusted_Penalty>
7.78993072182295e-05

> <i_epik_Tot_Q>
-1

> <i_epik_Tot_abs_Q>
1

$$$$
