2oc2_ligand
                    3D
 Schrodinger Suite 2020-3.
 77 81  0  0  1  0            999 V2000
   40.0740   32.4240   42.9350 O   0  0  0  0  0  0
   39.5550   33.4210   42.3900 C   0  0  0  0  0  0
   38.4630   33.3360   41.7840 O   0  5  0  0  0  0
   40.2560   34.7630   42.4700 C   0  0  2  0  0  0
   40.8310   35.1960   41.1110 C   0  0  0  0  0  0
   41.9690   34.3460   40.5830 C   0  0  0  0  0  0
   43.3300   34.5100   40.8240 C   0  0  0  0  0  0
   44.0110   35.4510   41.6050 C   0  0  0  0  0  0
   45.4050   35.3830   41.6830 C   0  0  0  0  0  0
   46.1080   34.3930   40.9930 C   0  0  0  0  0  0
   45.4220   33.4540   40.2130 C   0  0  0  0  0  0
   44.0180   33.5140   40.1240 C   0  0  0  0  0  0
   43.0970   32.7650   39.4650 N   0  0  0  0  0  0
   41.8570   33.2560   39.7270 C   0  0  0  0  0  0
   41.3740   34.7650   43.4050 N   0  0  0  0  0  0
   41.2400   34.6760   44.7290 C   0  0  0  0  0  0
   40.1570   34.6020   45.3170 O   0  0  0  0  0  0
   42.5570   34.6710   45.4650 C   0  0  2  0  0  0
   43.3230   33.3780   45.2020 C   0  0  0  0  0  0
   43.2460   32.5270   46.4710 C   0  0  0  0  0  0
   42.6010   33.3530   47.5870 C   0  0  0  0  0  0
   42.4550   34.7110   46.9620 C   0  0  1  0  0  0
   42.3530   36.1880   47.8360 P   0  0  2  0  0  0
   42.0020   37.2800   46.8420 O   0  5  0  0  0  0
   43.7220   36.3490   48.4290 O   0  0  0  0  0  0
   41.1440   36.3800   49.0670 C   0  0  2  0  0  0
   39.8850   35.5280   49.1810 C   0  0  0  0  0  0
   38.9570   35.8690   50.3430 C   0  0  0  0  0  0
   38.6770   34.8970   51.3110 C   0  0  0  0  0  0
   37.8310   35.1820   52.3910 C   0  0  0  0  0  0
   37.2480   36.4490   52.5120 C   0  0  0  0  0  0
   37.5200   37.4270   51.5510 C   0  0  0  0  0  0
   38.3610   37.1320   50.4720 C   0  0  0  0  0  0
   41.2760   37.4440   49.8650 N   0  0  0  0  0  0
   42.1820   37.6730   50.8170 C   0  0  0  0  0  0
   43.0560   36.8970   51.1570 O   0  0  0  0  0  0
   42.1130   38.9410   51.5090 O   0  0  0  0  0  0
   43.2880   39.6800   51.8350 C   0  0  0  0  0  0
   42.9220   41.1120   52.1770 C   0  0  0  0  0  0
   42.8590   42.0810   51.1760 C   0  0  0  0  0  0
   42.6460   41.4700   53.5030 C   0  0  0  0  0  0
   42.3130   42.7880   53.8300 C   0  0  0  0  0  0
   42.2510   43.7540   52.8300 C   0  0  0  0  0  0
   42.5270   43.3980   51.5040 C   0  0  0  0  0  0
   39.4959   35.4580   42.8562 H   0  0  0  0  0  0
   40.0382   35.1604   40.3493 H   0  0  0  0  0  0
   41.2201   36.2220   41.1876 H   0  0  0  0  0  0
   43.4671   36.2351   42.1522 H   0  0  0  0  0  0
   45.9581   36.1133   42.2919 H   0  0  0  0  0  0
   47.1950   34.3511   41.0619 H   0  0  0  0  0  0
   45.9745   32.6722   39.6713 H   0  0  0  0  0  0
   40.9718   32.7837   39.2760 H   0  0  0  0  0  0
   42.4049   34.8433   43.0294 H   0  0  0  0  0  0
   43.0378   35.5899   45.0983 H   0  0  0  0  0  0
   42.8644   32.8458   44.3556 H   0  0  0  0  0  0
   44.3702   33.6145   44.9624 H   0  0  0  0  0  0
   42.6393   31.6306   46.2751 H   0  0  0  0  0  0
   44.2600   32.2248   46.7720 H   0  0  0  0  0  0
   41.6332   32.9074   47.8604 H   0  0  0  0  0  0
   43.2622   33.3613   48.4660 H   0  0  0  0  0  0
   41.4876   34.1876   46.9487 H   0  0  0  0  0  0
   40.8706   36.3133   50.1304 H   0  0  0  0  0  0
   39.2847   35.6365   48.2656 H   0  0  0  0  0  0
   40.1669   34.4728   49.3117 H   0  0  0  0  0  0
   39.1227   33.9062   51.2234 H   0  0  0  0  0  0
   37.6264   34.4156   53.1385 H   0  0  0  0  0  0
   36.5867   36.6713   53.3495 H   0  0  0  0  0  0
   37.0773   38.4189   51.6420 H   0  0  0  0  0  0
   38.5560   37.8962   49.7196 H   0  0  0  0  0  0
   40.5737   38.2862   49.7793 H   0  0  0  0  0  0
   43.7842   39.2167   52.7005 H   0  0  0  0  0  0
   43.9734   39.6772   50.9746 H   0  0  0  0  0  0
   43.0682   41.8117   50.1407 H   0  0  0  0  0  0
   42.6913   40.7141   54.2870 H   0  0  0  0  0  0
   42.1026   43.0581   54.8648 H   0  0  0  0  0  0
   41.9889   44.7826   53.0777 H   0  0  0  0  0  0
   42.4824   44.1549   50.7210 H   0  0  0  0  0  0
  1  2  2  0  0  0
  2  3  1  0  0  0
  2  4  1  0  0  0
  4  5  1  0  0  0
  4 15  1  0  0  0
  4 45  1  0  0  0
  5  6  1  0  0  0
  5 46  1  0  0  0
  5 47  1  0  0  0
  6  7  2  0  0  0
  6 14  1  0  0  0
  7  8  1  0  0  0
  7 12  1  0  0  0
  8  9  2  0  0  0
  8 48  1  0  0  0
  9 10  1  0  0  0
  9 49  1  0  0  0
 10 11  1  0  0  0
 10 50  1  0  0  0
 11 12  2  0  0  0
 11 51  1  0  0  0
 12 13  1  0  0  0
 13 14  2  0  0  0
 14 52  1  0  0  0
 15 16  1  0  0  0
 15 53  1  0  0  0
 16 17  2  0  0  0
 16 18  1  0  0  0
 18 19  1  0  0  0
 18 22  1  0  0  0
 18 54  1  0  0  0
 19 20  1  0  0  0
 19 55  1  0  0  0
 19 56  1  0  0  0
 20 21  1  0  0  0
 20 57  1  0  0  0
 20 58  1  0  0  0
 21 22  1  0  0  0
 21 59  1  0  0  0
 21 60  1  0  0  0
 22 23  1  0  0  0
 22 61  1  0  0  0
 23 24  1  0  0  0
 23 25  2  0  0  0
 23 26  1  0  0  0
 26 27  1  0  0  0
 26 34  1  0  0  0
 26 62  1  0  0  0
 27 28  1  0  0  0
 27 63  1  0  0  0
 27 64  1  0  0  0
 28 29  2  0  0  0
 28 33  1  0  0  0
 29 30  1  0  0  0
 29 65  1  0  0  0
 30 31  2  0  0  0
 30 66  1  0  0  0
 31 32  1  0  0  0
 31 67  1  0  0  0
 32 33  2  0  0  0
 32 68  1  0  0  0
 33 69  1  0  0  0
 34 35  1  0  0  0
 34 70  1  0  0  0
 35 36  2  0  0  0
 35 37  1  0  0  0
 37 38  1  0  0  0
 38 39  1  0  0  0
 38 71  1  0  0  0
 38 72  1  0  0  0
 39 40  2  0  0  0
 39 41  1  0  0  0
 40 44  1  0  0  0
 40 73  1  0  0  0
 41 42  2  0  0  0
 41 74  1  0  0  0
 42 43  1  0  0  0
 42 75  1  0  0  0
 43 44  2  0  0  0
 43 76  1  0  0  0
 44 77  1  0  0  0
M  CHG  2   3  -1  24  -1
M  END
> <s_m_source_file>
../2oc2_ligand.sdf

> <i_m_source_file_index>
1

> <s_epik_input>
W0NIXTE9W0NIXVtDSDJdW0NIXT1DKEMxMilOPVtDSF1DPTJbQ0gyXVtDQEBIXShDKD1PKVtPSF0pW05IXUMoPU8pW0NAQEhdM1tDSDJdW0NIMl1bQ0gyXVtDSF0zW1BAQF0oPU8pKFtPSF0pW0NASF0oW0NIMl1jNFtjSF1bY0hdW2NIXVtjSF1bY0hdNClbTkhdQyg9TylPW0NIMl1jNVtjSF1bY0hdW2NIXVtjSF1bY0hdNQ==

> <s_epik_cmdline>
J2VwaWtfYXBwJywgJy1pbWFlJywgJ2xpZ2FuZF9wcm8ubWFlJywgJy1vbWFlJywgJ2xpZ2FuZF9wcmVwLm1hZScsICctbXMnLCAnMScsICctcGgnLCAnNycsICctcGh0JywgJzAuNScsICctbnQn

> <r_lp_tautomer_probability>
1

> <r_epik_Ionization_Penalty>
  0.0001

> <r_epik_Ionization_Penalty_Charging>
  0.0001

> <r_epik_Ionization_Penalty_Neutral>
  0.0000

> <r_epik_State_Penalty>
 -0.0000

> <r_epik_Charging_Adjusted_Penalty>
6.19431937206125e-05

> <i_epik_Tot_Q>
-2

> <i_epik_Tot_abs_Q>
2

> <s_epik_Chemistry_Notes>
This compound has an ester and may undergo hydrolysis at high or low pH. This compound has an imine and may undergo hydrolysis.

$$$$
