2oc4_ligand
                    3D
 Schrodinger Suite 2020-3.
 33 35  0  0  1  0            999 V2000
   14.1980   12.2040   57.9560 C   0  0  0  0  0  0
   15.1630   12.6870   57.0880 C   0  0  0  0  0  0
   15.2610   11.7850   56.0510 N   0  3  0  0  0  0
   14.4480   10.7210   56.2200 C   0  0  0  0  0  0
   14.1550    9.4790   55.5060 C   0  0  0  0  0  0
   14.8050    9.2510   54.3560 O   0  0  0  0  0  0
   13.2360    8.6100   55.9980 N   0  0  0  0  0  0
   12.5790    8.8600   57.1340 C   0  0  0  0  0  0
   12.8040    9.9710   57.8630 N   0  0  0  0  0  0
   13.7070   10.8950   57.4600 C   0  0  0  0  0  0
   17.3070   11.4670   60.0490 O   0  0  0  0  0  0
   16.5910   11.6550   61.2760 C   0  0  0  0  0  0
   15.5100   12.7120   61.1510 C   0  0  1  0  0  0
   15.2330   13.2530   59.8070 N   0  0  1  0  0  0
   14.2040   12.0730   61.5930 C   0  0  1  0  0  0
   13.7440   12.7910   62.7770 O   0  0  0  0  0  0
   13.2680   12.0680   60.3560 C   0  0  1  0  0  0
   11.9580   12.5470   60.6630 O   0  0  0  0  0  0
   13.9000   12.9260   59.2270 C   0  0  2  0  0  0
   15.6788   13.6328   57.3102 H   0  0  0  0  0  0
   13.0184    7.6761   55.4591 H   0  0  0  0  0  0
   11.8367    8.1420   57.4827 H   0  0  0  0  0  0
   18.1210   10.7291   59.9947 H   0  0  0  0  0  0
   16.1123   10.7092   61.5698 H   0  0  0  0  0  0
   17.2902   11.9722   62.0637 H   0  0  0  0  0  0
   15.8832   13.5706   61.7286 H   0  0  0  0  0  0
   15.2902   14.3512   59.8349 H   0  0  0  0  0  0
   14.2726   11.0421   61.9704 H   0  0  0  0  0  0
   14.3723   12.8233   63.6793 H   0  0  0  0  0  0
   13.0693   11.0344   60.0364 H   0  0  0  0  0  0
   11.3610   12.0535   61.4440 H   0  0  0  0  0  0
   13.2385   13.7557   58.9370 H   0  0  0  0  0  0
   15.9480   11.9811   55.2146 H   0  0  0  0  0  0
  1  2  2  0  0  0
  1 10  1  0  0  0
  1 19  1  0  0  0
  2  3  1  0  0  0
  2 20  1  0  0  0
  3  4  1  0  0  0
  3 33  1  0  0  0
  4  5  1  0  0  0
  4 10  2  0  0  0
  5  6  2  0  0  0
  5  7  1  0  0  0
  7  8  1  0  0  0
  7 21  1  0  0  0
  8  9  2  0  0  0
  8 22  1  0  0  0
  9 10  1  0  0  0
 11 12  1  0  0  0
 11 23  1  0  0  0
 12 13  1  0  0  0
 12 24  1  0  0  0
 12 25  1  0  0  0
 13 14  1  0  0  0
 13 15  1  0  0  0
 13 26  1  0  0  0
 14 19  1  0  0  0
 14 27  1  0  0  0
 15 16  1  0  0  0
 15 17  1  0  0  0
 15 28  1  0  0  0
 16 29  1  0  0  0
 17 18  1  0  0  0
 17 19  1  0  0  0
 17 30  1  0  0  0
 18 31  1  0  0  0
 19 32  1  0  0  0
M  CHG  1   3   1
M  END
> <s_m_source_file>
../2oc4_ligand.sdf

> <i_m_source_file_index>
1

> <s_epik_input>
W09IXVtDSDJdW0NASF0xW05IMitdW0NASF0oW0NASF0oW09IXSlbQ0BASF0xW09IXSljKFtjSF1bbkhdMiljKGMyMyluW2NIXVtuSF1jMz1P

> <s_epik_cmdline>
J2VwaWtfYXBwJywgJy1pbWFlJywgJ2xpZ2FuZF9wcm8ubWFlJywgJy1vbWFlJywgJ2xpZ2FuZF9wcmVwLm1hZScsICctbXMnLCAnMScsICctcGgnLCAnNycsICctcGh0JywgJzAuNScsICctbnQn

> <r_epik_Ionization_Penalty>
  0.0679

> <r_epik_Ionization_Penalty_Charging>
  0.0000

> <r_epik_Ionization_Penalty_Neutral>
  0.0679

> <r_epik_State_Penalty>
  0.0590

> <r_epik_Charging_Adjusted_Penalty>
0.0590546937217894

> <i_epik_Tot_Q>
1

> <i_epik_Tot_abs_Q>
1

$$$$
