2oc7_ligand
                    3D
 Schrodinger Suite 2020-3.
 88 91  0  0  1  0            999 V2000
  192.7250  -10.6490   49.1130 C   0  0  0  0  0  0
  193.3580  -11.4910   49.7560 O   0  0  0  0  0  0
  191.3810  -10.5690   48.9730 O   0  0  0  0  0  0
  190.4070  -11.2010   49.8190 C   0  0  0  0  0  0
  190.6910  -11.2060   51.3550 C   0  0  0  0  0  0
  189.0400  -10.4330   49.5490 C   0  0  0  0  0  0
  190.3320  -12.6770   49.4030 C   0  0  0  0  0  0
  193.3190   -9.7090   48.3960 N   0  0  0  0  0  0
  194.7620   -9.5400   48.3790 C   0  0  1  0  0  0
  195.1750   -8.7490   47.1390 C   0  0  0  0  0  0
  196.6720   -8.4660   47.1090 C   0  0  0  0  0  0
  194.7380   -9.4450   45.8480 C   0  0  0  0  0  0
  197.0680   -7.6600   45.8650 C   0  0  0  0  0  0
  195.0970   -8.6450   44.6050 C   0  0  0  0  0  0
  196.5990   -8.3410   44.5730 C   0  0  0  0  0  0
  195.1180   -8.7110   49.6160 C   0  0  0  0  0  0
  194.6500   -7.5760   49.7710 O   0  0  0  0  0  0
  195.8910   -9.2890   50.5460 N   0  0  0  0  0  0
  196.4960  -10.6250   50.4700 C   0  0  0  0  0  0
  196.2880   -8.5810   51.7640 C   0  0  1  0  0  0
  196.7040   -9.6880   52.6660 C   0  0  2  0  0  0
  197.2860  -10.7080   51.7900 C   0  0  1  0  0  0
  196.7240  -11.7030   52.6760 O   0  0  0  0  0  0
  195.8440  -10.7350   53.3100 C   0  0  0  0  0  0
  195.8740  -10.8610   54.7700 C   0  0  0  0  0  0
  194.3810  -10.6980   52.9800 C   0  0  0  0  0  0
  197.3900   -7.5800   51.4400 C   0  0  0  0  0  0
  198.4760   -7.9590   50.9950 O   0  0  0  0  0  0
  197.1140   -6.3000   51.6690 N   0  0  0  0  0  0
  198.0890   -5.2560   51.3720 C   0  0  1  0  0  0
  197.4180   -4.1460   50.5450 C   0  0  0  0  0  0
  196.7120   -4.6860   49.2610 C   0  0  0  0  0  0
  197.5840   -5.0330   48.0550 C   0  0  0  0  0  0
  195.8900   -3.7370   48.3940 C   0  0  0  0  0  0
  196.5200   -4.4000   47.1650 C   0  0  0  0  0  0
  199.1910   -5.7930   53.4620 O   0  0  0  0  0  0
  198.8370   -4.7080   52.6190 C   0  0  1  0  0  0
  200.1230   -2.9080   51.7860 O   0  0  0  0  0  0
  201.3000   -4.7280   52.4260 N   0  0  0  0  0  0
  200.1640   -4.0530   52.2470 C   0  0  0  0  0  0
  190.7570  -10.1701   51.7190 H   0  0  0  0  0  0
  191.6412  -11.7246   51.5505 H   0  0  0  0  0  0
  189.8748  -11.7269   51.8771 H   0  0  0  0  0  0
  189.1413   -9.3832   49.8615 H   0  0  0  0  0  0
  188.2319  -10.9101   50.1229 H   0  0  0  0  0  0
  188.8017  -10.4748   48.4759 H   0  0  0  0  0  0
  191.2963  -13.1651   49.6077 H   0  0  0  0  0  0
  190.1079  -12.7441   48.3282 H   0  0  0  0  0  0
  189.5381  -13.1793   49.9752 H   0  0  0  0  0  0
  192.6801   -9.0421   47.7985 H   0  0  0  0  0  0
  195.2254  -10.5376   48.3694 H   0  0  0  0  0  0
  194.6552   -7.7817   47.2041 H   0  0  0  0  0  0
  196.9539   -7.8886   48.0018 H   0  0  0  0  0  0
  197.2248   -9.4169   47.0977 H   0  0  0  0  0  0
  195.2321  -10.4250   45.7745 H   0  0  0  0  0  0
  193.6469   -9.5843   45.8577 H   0  0  0  0  0  0
  196.6108   -6.6608   45.9147 H   0  0  0  0  0  0
  198.1628   -7.5607   45.8256 H   0  0  0  0  0  0
  194.8316   -9.2231   43.7076 H   0  0  0  0  0  0
  194.5416   -7.6955   44.6070 H   0  0  0  0  0  0
  196.8002   -7.6807   43.7166 H   0  0  0  0  0  0
  197.1412   -9.2889   44.4405 H   0  0  0  0  0  0
  195.7024  -11.3834   50.3988 H   0  0  0  0  0  0
  197.1415  -10.6852   49.5814 H   0  0  0  0  0  0
  195.4800   -7.9943   52.2253 H   0  0  0  0  0  0
  197.1695   -9.0440   53.4267 H   0  0  0  0  0  0
  198.3568  -10.7678   51.5453 H   0  0  0  0  0  0
  196.9184  -10.8967   55.1135 H   0  0  0  0  0  0
  195.3578  -11.7852   55.0689 H   0  0  0  0  0  0
  195.3683   -9.9956   55.2232 H   0  0  0  0  0  0
  194.2529  -10.6034   51.8916 H   0  0  0  0  0  0
  193.9139   -9.8369   53.4804 H   0  0  0  0  0  0
  193.9035  -11.6265   53.3261 H   0  0  0  0  0  0
  196.1330   -6.0330   52.0890 H   0  0  0  0  0  0
  198.8472   -5.7744   50.7666 H   0  0  0  0  0  0
  196.6570   -3.6411   51.1581 H   0  0  0  0  0  0
  198.1768   -3.4156   50.2276 H   0  0  0  0  0  0
  196.1859   -5.4808   49.8101 H   0  0  0  0  0  0
  198.5593   -4.5337   48.1520 H   0  0  0  0  0  0
  197.7324   -6.1221   48.0110 H   0  0  0  0  0  0
  194.8194   -3.8941   48.5919 H   0  0  0  0  0  0
  196.1582   -2.6972   48.6325 H   0  0  0  0  0  0
  197.0040   -3.7542   46.4176 H   0  0  0  0  0  0
  195.9520   -5.1909   46.6533 H   0  0  0  0  0  0
  198.4082   -6.4436   53.8791 H   0  0  0  0  0  0
  198.1785   -4.0178   53.1667 H   0  0  0  0  0  0
  201.2751   -5.7464   52.8411 H   0  0  0  0  0  0
  202.2620   -4.2665   52.1585 H   0  0  0  0  0  0
  1  2  2  0  0  0
  1  3  1  0  0  0
  1  8  1  0  0  0
  3  4  1  0  0  0
  4  5  1  0  0  0
  4  6  1  0  0  0
  4  7  1  0  0  0
  5 41  1  0  0  0
  5 42  1  0  0  0
  5 43  1  0  0  0
  6 44  1  0  0  0
  6 45  1  0  0  0
  6 46  1  0  0  0
  7 47  1  0  0  0
  7 48  1  0  0  0
  7 49  1  0  0  0
  8  9  1  0  0  0
  8 50  1  0  0  0
  9 10  1  0  0  0
  9 16  1  0  0  0
  9 51  1  0  0  0
 10 11  1  0  0  0
 10 12  1  0  0  0
 10 52  1  0  0  0
 11 13  1  0  0  0
 11 53  1  0  0  0
 11 54  1  0  0  0
 12 14  1  0  0  0
 12 55  1  0  0  0
 12 56  1  0  0  0
 13 15  1  0  0  0
 13 57  1  0  0  0
 13 58  1  0  0  0
 14 15  1  0  0  0
 14 59  1  0  0  0
 14 60  1  0  0  0
 15 61  1  0  0  0
 15 62  1  0  0  0
 16 17  2  0  0  0
 16 18  1  0  0  0
 18 19  1  0  0  0
 18 20  1  0  0  0
 19 22  1  0  0  0
 19 63  1  0  0  0
 19 64  1  0  0  0
 20 21  1  0  0  0
 20 27  1  0  0  0
 20 65  1  0  0  0
 21 22  1  0  0  0
 21 24  1  0  0  0
 21 66  1  0  0  0
 22 23  1  0  0  0
 22 67  1  0  0  0
 23 24  1  0  0  0
 24 25  1  0  0  0
 24 26  1  0  0  0
 25 68  1  0  0  0
 25 69  1  0  0  0
 25 70  1  0  0  0
 26 71  1  0  0  0
 26 72  1  0  0  0
 26 73  1  0  0  0
 27 28  2  0  0  0
 27 29  1  0  0  0
 29 30  1  0  0  0
 29 74  1  0  0  0
 30 31  1  0  0  0
 30 37  1  0  0  0
 30 75  1  0  0  0
 31 32  1  0  0  0
 31 76  1  0  0  0
 31 77  1  0  0  0
 32 33  1  0  0  0
 32 34  1  0  0  0
 32 78  1  0  0  0
 33 35  1  0  0  0
 33 79  1  0  0  0
 33 80  1  0  0  0
 34 35  1  0  0  0
 34 81  1  0  0  0
 34 82  1  0  0  0
 35 83  1  0  0  0
 35 84  1  0  0  0
 36 37  1  0  0  0
 36 85  1  0  0  0
 37 40  1  0  0  0
 37 86  1  0  0  0
 38 40  2  0  0  0
 39 40  1  0  0  0
 39 87  1  0  0  0
 39 88  1  0  0  0
M  END
> <s_m_source_file>
../2oc7_ligand.sdf

> <i_m_source_file_index>
1

> <s_epik_input>
W0NIMl0xW0NIMl1bQ0gyXVtDSDJdW0NIMl1bQ0hdMVtDQEhdKFtOSF1DKD1PKU9DKFtDSDNdKShbQ0gzXSlbQ0gzXSlDKD1PKU4oW0NIMl1bQ0BASF0oW0NAQEhdMjMpT0MzKFtDSDNdKVtDSDNdKVtDQEBIXTJDKD1PKVtOSF1bQ0BIXShbQ0BASF0oW09IXSlDKD1PKVtOSDJdKVtDSDJdW0NIXTRbQ0gyXVtDSDJdW0NIMl00

> <s_epik_cmdline>
J2VwaWtfYXBwJywgJy1pbWFlJywgJ2xpZ2FuZF9wcm8ubWFlJywgJy1vbWFlJywgJ2xpZ2FuZF9wcmVwLm1hZScsICctbXMnLCAnMScsICctcGgnLCAnNycsICctcGh0JywgJzAuNScsICctbnQn

> <r_lp_tautomer_probability>
1

> <r_epik_Ionization_Penalty>
  0.0000

> <r_epik_Ionization_Penalty_Charging>
  0.0000

> <r_epik_Ionization_Penalty_Neutral>
  0.0000

> <r_epik_State_Penalty>
 -0.0000

> <r_epik_Charging_Adjusted_Penalty>
0

> <i_epik_Tot_Q>
0

> <i_epik_Tot_abs_Q>
0

> <s_epik_Chemistry_Notes>
This compound has an ester and may undergo hydrolysis at high or low pH.

$$$$
