2oc9_ligand
                    3D
 Schrodinger Suite 2020-3.
 33 35  0  0  1  0            999 V2000
   14.2130   12.0870   57.9840 C   0  0  0  0  0  0
   15.2090   12.5680   57.1330 C   0  0  0  0  0  0
   15.3460   11.6640   56.1090 N   0  3  0  0  0  0
   14.5020   10.6050   56.2370 C   0  0  0  0  0  0
   14.2130    9.3650   55.4990 C   0  0  0  0  0  0
   14.8800    9.0680   54.3550 O   0  0  0  0  0  0
   13.2750    8.5230   55.9910 N   0  0  0  0  0  0
   12.5910    8.7680   57.1150 C   0  0  0  0  0  0
   12.7970    9.8810   57.8460 N   0  0  0  0  0  0
   13.7200   10.7860   57.4570 C   0  0  0  0  0  0
   17.6340   11.8410   60.4520 O   0  0  0  0  0  0
   16.4120   11.3680   61.0290 C   0  0  0  0  0  0
   15.4160   12.5150   61.1480 C   0  0  1  0  0  0
   15.1570   13.1740   59.8610 N   0  0  1  0  0  0
   14.0370   12.0220   61.6120 C   0  0  1  0  0  0
   13.6610   12.7620   62.8180 O   0  0  0  0  0  0
   13.0920   12.1260   60.3750 C   0  0  1  0  0  0
   11.8380   12.7790   60.6520 O   0  0  0  0  0  0
   13.8560   12.8480   59.2320 C   0  0  2  0  0  0
   15.7150   13.5179   57.3602 H   0  0  0  0  0  0
   13.0446    7.5866   55.4618 H   0  0  0  0  0  0
   11.8456    8.0462   57.4488 H   0  0  0  0  0  0
   18.4711   11.1459   60.2903 H   0  0  0  0  0  0
   15.9848   10.5817   60.3894 H   0  0  0  0  0  0
   16.6136   10.9576   62.0294 H   0  0  0  0  0  0
   15.8856   13.2325   61.8370 H   0  0  0  0  0  0
   15.1720   14.2653   59.9983 H   0  0  0  0  0  0
   13.9923   10.9913   61.9936 H   0  0  0  0  0  0
   14.2992   12.7162   63.7128 H   0  0  0  0  0  0
   12.7345   11.1274   60.0835 H   0  0  0  0  0  0
   11.1761   12.3876   61.4386 H   0  0  0  0  0  0
   13.2229   13.6674   58.8609 H   0  0  0  0  0  0
   16.0792   11.8457   55.3094 H   0  0  0  0  0  0
  1  2  2  0  0  0
  1 10  1  0  0  0
  1 19  1  0  0  0
  2  3  1  0  0  0
  2 20  1  0  0  0
  3  4  1  0  0  0
  3 33  1  0  0  0
  4  5  1  0  0  0
  4 10  2  0  0  0
  5  6  2  0  0  0
  5  7  1  0  0  0
  7  8  1  0  0  0
  7 21  1  0  0  0
  8  9  2  0  0  0
  8 22  1  0  0  0
  9 10  1  0  0  0
 11 12  1  0  0  0
 11 23  1  0  0  0
 12 13  1  0  0  0
 12 24  1  0  0  0
 12 25  1  0  0  0
 13 14  1  0  0  0
 13 15  1  0  0  0
 13 26  1  0  0  0
 14 19  1  0  0  0
 14 27  1  0  0  0
 15 16  1  0  0  0
 15 17  1  0  0  0
 15 28  1  0  0  0
 16 29  1  0  0  0
 17 18  1  0  0  0
 17 19  1  0  0  0
 17 30  1  0  0  0
 18 31  1  0  0  0
 19 32  1  0  0  0
M  CHG  1   3   1
M  END
> <s_m_source_file>
../2oc9_ligand.sdf

> <i_m_source_file_index>
1

> <s_epik_input>
W09IXVtDSDJdW0NASF0xW05IMitdW0NASF0oW0NASF0oW09IXSlbQ0BASF0xW09IXSljKFtjSF1bbkhdMiljKGMyMyluW2NIXVtuSF1jMz1P

> <s_epik_cmdline>
J2VwaWtfYXBwJywgJy1pbWFlJywgJ2xpZ2FuZF9wcm8ubWFlJywgJy1vbWFlJywgJ2xpZ2FuZF9wcmVwLm1hZScsICctbXMnLCAnMScsICctcGgnLCAnNycsICctcGh0JywgJzAuNScsICctbnQn

> <r_epik_Ionization_Penalty>
  0.0679

> <r_epik_Ionization_Penalty_Charging>
  0.0000

> <r_epik_Ionization_Penalty_Neutral>
  0.0679

> <r_epik_State_Penalty>
  0.0590

> <r_epik_Charging_Adjusted_Penalty>
0.0590546937217894

> <i_epik_Tot_Q>
1

> <i_epik_Tot_abs_Q>
1

$$$$
