2odd_ligand
                    3D
 Schrodinger Suite 2020-3.
196198  0  0  1  0            999 V2000
   -6.7830   11.6360    5.8180 N   0  3  0  0  0  0
   -8.2590   11.5380    5.9650 C   0  0  2  0  0  0
   -8.7930   10.2620    5.3200 C   0  0  0  0  0  0
   -9.6300   10.3120    4.4180 O   0  0  0  0  0  0
   -8.8960   12.7670    5.3150 C   0  0  2  0  0  0
  -10.3090   12.6990    5.3890 O   0  0  0  0  0  0
   -8.5200   12.9350    3.8580 C   0  0  0  0  0  0
   -8.3030    9.1200    5.7910 N   0  0  0  0  0  0
   -8.7290    7.8290    5.2610 C   0  0  2  0  0  0
   -8.9530    6.8250    6.3860 C   0  0  0  0  0  0
   -8.4540    7.0000    7.4980 O   0  0  0  0  0  0
   -7.6940    7.2570    4.2750 C   0  0  2  0  0  0
   -7.2760    8.3250    3.2630 C   0  0  0  0  0  0
   -8.2560    6.0360    3.5630 C   0  0  0  0  0  0
   -6.0200    7.9710    2.4950 C   0  0  0  0  0  0
   -9.7070    5.7700    6.0910 N   0  0  0  0  0  0
   -9.9980    4.7350    7.0790 C   0  0  2  0  0  0
   -8.7110    4.1580    7.6610 C   0  0  0  0  0  0
   -7.6170    4.6520    7.3870 O   0  0  0  0  0  0
  -10.8310    3.6180    6.4460 C   0  0  0  0  0  0
  -11.8080    3.1350    7.3520 O   0  0  0  0  0  0
   -8.8510    3.1120    8.4690 N   0  0  0  0  0  0
   -7.6990    2.4690    9.0920 C   0  0  2  0  0  0
   -7.3580    1.1570    8.3850 C   0  0  0  0  0  0
   -8.1320    0.2020    8.4320 O   0  0  0  0  0  0
   -7.9790    2.2040   10.5730 C   0  0  0  0  0  0
   -7.4180    3.2890   11.4710 C   0  0  0  0  0  0
   -6.5690    4.0780   11.0550 O   0  0  0  0  0  0
   -7.8900    3.3330   12.7110 N   0  0  0  0  0  0
   -6.1900    1.0890    7.7200 N   0  0  0  0  0  0
   -5.7590   -0.1180    7.0080 C   0  0  2  0  0  0
   -5.4370   -1.2680    7.9600 C   0  0  0  0  0  0
   -5.1110   -1.0460    9.1260 O   0  0  0  0  0  0
   -4.4960    0.3310    6.2680 C   0  0  0  0  0  0
   -3.9860    1.4850    7.0570 C   0  0  0  0  0  0
   -5.1990    2.1770    7.6080 C   0  0  0  0  0  0
   -5.5230   -2.5170    7.4710 N   0  0  0  0  0  0
   -5.2390   -3.7050    8.2840 C   0  0  2  0  0  0
   -3.8830   -3.6190    8.9810 C   0  0  0  0  0  0
   -3.0750   -2.7400    8.6780 O   0  0  0  0  0  0
   -5.2460   -4.8440    7.2630 C   0  0  0  0  0  0
   -6.1180   -4.3560    6.1600 C   0  0  0  0  0  0
   -5.9050   -2.8700    6.0910 C   0  0  0  0  0  0
   -3.6150   -4.5340    9.9290 N   0  0  0  0  0  0
   -2.3480   -4.5560   10.6690 C   0  0  2  0  0  0
   -1.1710   -4.9790    9.7970 C   0  0  0  0  0  0
   -1.3500   -5.6250    8.7640 O   0  0  0  0  0  0
   -2.5980   -5.5910   11.7690 C   0  0  0  0  0  0
   -3.6490   -6.4870   11.2140 C   0  0  0  0  0  0
   -4.5230   -5.6170   10.3530 C   0  0  0  0  0  0
    0.0340   -4.6110   10.2220 N   0  0  0  0  0  0
    1.2430   -4.9540    9.4820 C   0  0  2  0  0  0
    1.9020   -6.2000   10.0640 C   0  0  0  0  0  0
    1.8660   -6.4250   11.2740 O   0  0  0  0  0  0
    2.2300   -3.7830    9.5080 C   0  0  0  0  0  0
    2.0670   -2.7680    8.3750 C   0  0  0  0  0  0
    2.8510   -1.4990    8.6750 C   0  0  0  0  0  0
    2.5140   -3.3710    7.0510 C   0  0  0  0  0  0
    2.5100   -7.0040    9.1980 N   0  0  0  0  0  0
    3.1840   -8.2240    9.6300 C   0  0  2  0  0  0
    4.6860   -8.1260    9.4020 C   0  0  0  0  0  0
    5.1380   -7.9050    8.2790 O   0  0  0  0  0  0
    2.6480   -9.4730    8.8940 C   0  0  2  0  0  0
    2.1670   -9.1180    7.4880 C   0  0  0  0  0  0
    1.5240  -10.1130    9.6890 C   0  0  0  0  0  0
    1.9450  -10.3250    6.6030 C   0  0  0  0  0  0
    5.4590   -8.2960   10.4680 N   0  0  0  0  0  0
    6.9110   -8.2290   10.3690 C   0  0  2  0  0  0
    7.5030   -9.6140   10.1560 C   0  0  0  0  0  0
    7.2220  -10.5440   10.9130 O   0  0  0  0  0  0
    7.5070   -7.5990   11.6280 C   0  0  0  0  0  0
    6.6740   -7.8200   12.7540 O   0  0  0  0  0  0
    8.3280   -9.7450    9.1260 N   0  0  0  0  0  0
    8.9670  -11.0160    8.8170 C   0  0  2  0  0  0
   10.4710  -10.9220    9.0320 C   0  0  0  0  0  0
   11.0750   -9.8730    8.8080 O   0  0  0  0  0  0
    8.6660  -11.4310    7.3770 C   0  0  0  0  0  0
    9.3570  -12.6200    7.0330 O   0  0  0  0  0  0
   11.0680  -12.0200    9.4720 N   0  0  0  0  0  0
   12.5030  -12.0570    9.7240 C   0  0  2  0  0  0
   12.9550  -13.4570   10.1250 C   0  0  0  0  0  0
   12.3460  -14.0970   10.9810 O   0  0  0  0  0  0
   12.8690  -11.0480   10.8040 C   0  0  0  0  0  0
   14.0310  -13.9250    9.4990 N   0  0  0  0  0  0
   14.5680  -15.2500    9.7900 C   0  0  2  0  0  0
   16.0480  -15.1680   10.1460 C   0  0  0  0  0  0
   16.6640  -14.1060   10.0480 O   0  0  0  0  0  0
   14.3700  -16.1780    8.5900 C   0  0  0  0  0  0
   12.9620  -16.7400    8.4810 C   0  0  0  0  0  0
   12.6900  -17.7740    9.5600 C   0  0  0  0  0  0
   13.3900  -19.0900    9.2590 C   0  0  0  0  0  0
   12.7630  -19.8030    8.1140 N   0  3  0  0  0  0
   16.6826  -16.2580   10.5681 O   0  0  0  0  0  0
   -6.4282   12.5634    6.2913 H   0  0  0  0  0  0
   -6.5208   11.6460    4.7498 H   0  0  0  0  0  0
   -6.3079   10.7712    6.3041 H   0  0  0  0  0  0
   -8.4865   11.5000    7.0405 H   0  0  0  0  0  0
   -8.5827   13.6514    5.8892 H   0  0  0  0  0  0
  -10.8034   12.5762    6.3639 H   0  0  0  0  0  0
   -7.4253   12.9913    3.7660 H   0  0  0  0  0  0
   -8.9688   13.8604    3.4679 H   0  0  0  0  0  0
   -8.8927   12.0754    3.2817 H   0  0  0  0  0  0
   -7.5590    9.1640    6.6000 H   0  0  0  0  0  0
   -9.6773    8.0475    4.7481 H   0  0  0  0  0  0
   -6.8012    6.9397    4.8338 H   0  0  0  0  0  0
   -8.0817    8.4690    2.5280 H   0  0  0  0  0  0
   -7.0848    9.2726    3.7878 H   0  0  0  0  0  0
   -8.5502    5.2809    4.3068 H   0  0  0  0  0  0
   -7.4889    5.6148    2.8966 H   0  0  0  0  0  0
   -9.1353    6.3294    2.9707 H   0  0  0  0  0  0
   -5.7811    8.7806    1.7896 H   0  0  0  0  0  0
   -6.1817    7.0358    1.9388 H   0  0  0  0  0  0
   -5.1848    7.8395    3.1987 H   0  0  0  0  0  0
  -10.1149    5.6885    5.0727 H   0  0  0  0  0  0
  -10.5678    5.2390    7.8736 H   0  0  0  0  0  0
  -11.3410    4.0033    5.5507 H   0  0  0  0  0  0
  -10.1715    2.7846    6.1622 H   0  0  0  0  0  0
  -12.4898    2.3275    7.0467 H   0  0  0  0  0  0
   -9.8649    2.7324    8.6640 H   0  0  0  0  0  0
   -6.8680    3.1804    8.9770 H   0  0  0  0  0  0
   -9.0655    2.1552   10.7377 H   0  0  0  0  0  0
   -7.5202    1.2487   10.8677 H   0  0  0  0  0  0
   -8.6486    2.6061   13.0369 H   0  0  0  0  0  0
   -7.5225    4.0964   13.4126 H   0  0  0  0  0  0
   -6.5714   -0.4742    6.3575 H   0  0  0  0  0  0
   -3.7726   -0.4973    6.2414 H   0  0  0  0  0  0
   -4.7574    0.6226    5.2401 H   0  0  0  0  0  0
   -3.3361    1.1181    7.8651 H   0  0  0  0  0  0
   -3.4112    2.1536    6.3992 H   0  0  0  0  0  0
   -5.5829    2.9544    6.9310 H   0  0  0  0  0  0
   -5.0189    2.6127    8.6019 H   0  0  0  0  0  0
   -5.9882   -3.8000    9.0838 H   0  0  0  0  0  0
   -4.2187   -5.0339    6.9185 H   0  0  0  0  0  0
   -5.6497   -5.7538    7.7313 H   0  0  0  0  0  0
   -5.8257   -4.8437    5.2184 H   0  0  0  0  0  0
   -7.1668   -4.5972    6.3876 H   0  0  0  0  0  0
   -6.8204   -2.3268    5.8136 H   0  0  0  0  0  0
   -5.0921   -2.5936    5.4034 H   0  0  0  0  0  0
   -2.1086   -3.5447   11.0296 H   0  0  0  0  0  0
   -1.6657   -6.1360   11.9783 H   0  0  0  0  0  0
   -2.9373   -5.0806   12.6824 H   0  0  0  0  0  0
   -3.1759   -7.2845   10.6222 H   0  0  0  0  0  0
   -4.2229   -6.9340   12.0391 H   0  0  0  0  0  0
   -5.3688   -5.1889   10.9111 H   0  0  0  0  0  0
   -4.8999   -6.1478    9.4663 H   0  0  0  0  0  0
    0.1058   -4.0343   11.1559 H   0  0  0  0  0  0
    0.9097   -5.1584    8.4538 H   0  0  0  0  0  0
    2.1114   -3.2243   10.4481 H   0  0  0  0  0  0
    3.2579   -4.1682    9.4376 H   0  0  0  0  0  0
    1.0030   -2.5016    8.2918 H   0  0  0  0  0  0
    2.5146   -1.0783    9.6341 H   0  0  0  0  0  0
    2.6817   -0.7652    7.8732 H   0  0  0  0  0  0
    3.9235   -1.7361    8.7346 H   0  0  0  0  0  0
    1.9370   -4.2860    6.8515 H   0  0  0  0  0  0
    3.5849   -3.6168    7.1030 H   0  0  0  0  0  0
    2.3431   -2.6460    6.2416 H   0  0  0  0  0  0
    2.4969   -6.7307    8.1326 H   0  0  0  0  0  0
    2.9591   -8.2772   10.7054 H   0  0  0  0  0  0
    3.4618  -10.2069    8.7988 H   0  0  0  0  0  0
    1.2113   -8.5773    7.5531 H   0  0  0  0  0  0
    2.9157   -8.4811    6.9942 H   0  0  0  0  0  0
    1.8845  -10.3629   10.6978 H   0  0  0  0  0  0
    1.1915  -11.0302    9.1808 H   0  0  0  0  0  0
    0.6816   -9.4097    9.7644 H   0  0  0  0  0  0
    1.6013   -9.9946    5.6117 H   0  0  0  0  0  0
    1.1839  -10.9771    7.0564 H   0  0  0  0  0  0
    2.8884  -10.8808    6.4976 H   0  0  0  0  0  0
    4.9824   -8.4907   11.4401 H   0  0  0  0  0  0
    7.1135   -7.5985    9.4907 H   0  0  0  0  0  0
    8.4935   -8.0426   11.8282 H   0  0  0  0  0  0
    7.6161   -6.5146   11.4790 H   0  0  0  0  0  0
    6.9655   -7.4274   13.7393 H   0  0  0  0  0  0
    8.5251   -8.8634    8.4984 H   0  0  0  0  0  0
    8.5347  -11.7441    9.5191 H   0  0  0  0  0  0
    7.5860  -11.6068    7.2642 H   0  0  0  0  0  0
    8.9807  -10.6305    6.6913 H   0  0  0  0  0  0
    9.2446  -13.0499    6.0268 H   0  0  0  0  0  0
   10.4556  -12.9168    9.6470 H   0  0  0  0  0  0
   12.9810  -11.7828    8.7720 H   0  0  0  0  0  0
   12.5355  -10.0456   10.4974 H   0  0  0  0  0  0
   13.9596  -11.0437   10.9473 H   0  0  0  0  0  0
   12.3762  -11.3258   11.7474 H   0  0  0  0  0  0
   14.5177  -13.2874    8.7463 H   0  0  0  0  0  0
   13.9988  -15.6160   10.6572 H   0  0  0  0  0  0
   14.5758  -15.6255    7.6614 H   0  0  0  0  0  0
   15.0591  -17.0318    8.6691 H   0  0  0  0  0  0
   12.2322  -15.9241    8.5890 H   0  0  0  0  0  0
   12.8335  -17.2193    7.4993 H   0  0  0  0  0  0
   13.0547  -17.3988   10.5276 H   0  0  0  0  0  0
   11.6080  -17.9616    9.6237 H   0  0  0  0  0  0
   14.4434  -18.8961    9.0086 H   0  0  0  0  0  0
   13.3374  -19.7437   10.1421 H   0  0  0  0  0  0
   13.2988  -20.7462    7.9316 H   0  0  0  0  0  0
   12.8163  -19.1712    7.2151 H   0  0  0  0  0  0
   11.7102  -20.0188    8.3486 H   0  0  0  0  0  0
   17.7505  -16.2071   10.8270 H   0  0  0  0  0  0
  1  2  1  0  0  0
  1 94  1  0  0  0
  1 95  1  0  0  0
  1 96  1  0  0  0
  2  5  1  0  0  0
  2  3  1  0  0  0
  2 97  1  0  0  0
  3  4  2  0  0  0
  3  8  1  0  0  0
  5  7  1  0  0  0
  5  6  1  0  0  0
  5 98  1  0  0  0
  6 99  1  0  0  0
  7100  1  0  0  0
  7101  1  0  0  0
  7102  1  0  0  0
  8  9  1  0  0  0
  8103  1  0  0  0
  9 12  1  0  0  0
  9 10  1  0  0  0
  9104  1  0  0  0
 10 11  2  0  0  0
 10 16  1  0  0  0
 12 14  1  0  0  0
 12 13  1  0  0  0
 12105  1  0  0  0
 13 15  1  0  0  0
 13106  1  0  0  0
 13107  1  0  0  0
 14108  1  0  0  0
 14109  1  0  0  0
 14110  1  0  0  0
 15111  1  0  0  0
 15112  1  0  0  0
 15113  1  0  0  0
 16 17  1  0  0  0
 16114  1  0  0  0
 17 20  1  0  0  0
 17 18  1  0  0  0
 17115  1  0  0  0
 18 19  2  0  0  0
 18 22  1  0  0  0
 20 21  1  0  0  0
 20116  1  0  0  0
 20117  1  0  0  0
 21118  1  0  0  0
 22 23  1  0  0  0
 22119  1  0  0  0
 23 26  1  0  0  0
 23 24  1  0  0  0
 23120  1  0  0  0
 24 25  2  0  0  0
 24 30  1  0  0  0
 26 27  1  0  0  0
 26121  1  0  0  0
 26122  1  0  0  0
 27 29  1  0  0  0
 27 28  2  0  0  0
 29123  1  0  0  0
 29124  1  0  0  0
 30 31  1  0  0  0
 30 36  1  0  0  0
 31 32  1  0  0  0
 31 34  1  0  0  0
 31125  1  0  0  0
 32 33  2  0  0  0
 32 37  1  0  0  0
 34 35  1  0  0  0
 34126  1  0  0  0
 34127  1  0  0  0
 35 36  1  0  0  0
 35128  1  0  0  0
 35129  1  0  0  0
 36130  1  0  0  0
 36131  1  0  0  0
 37 38  1  0  0  0
 37 43  1  0  0  0
 38 39  1  0  0  0
 38 41  1  0  0  0
 38132  1  0  0  0
 39 40  2  0  0  0
 39 44  1  0  0  0
 41 42  1  0  0  0
 41133  1  0  0  0
 41134  1  0  0  0
 42 43  1  0  0  0
 42135  1  0  0  0
 42136  1  0  0  0
 43137  1  0  0  0
 43138  1  0  0  0
 44 45  1  0  0  0
 44 50  1  0  0  0
 45 46  1  0  0  0
 45 48  1  0  0  0
 45139  1  0  0  0
 46 47  2  0  0  0
 46 51  1  0  0  0
 48 49  1  0  0  0
 48140  1  0  0  0
 48141  1  0  0  0
 49 50  1  0  0  0
 49142  1  0  0  0
 49143  1  0  0  0
 50144  1  0  0  0
 50145  1  0  0  0
 51 52  1  0  0  0
 51146  1  0  0  0
 52 55  1  0  0  0
 52 53  1  0  0  0
 52147  1  0  0  0
 53 54  2  0  0  0
 53 59  1  0  0  0
 55 56  1  0  0  0
 55148  1  0  0  0
 55149  1  0  0  0
 56 57  1  0  0  0
 56 58  1  0  0  0
 56150  1  0  0  0
 57151  1  0  0  0
 57152  1  0  0  0
 57153  1  0  0  0
 58154  1  0  0  0
 58155  1  0  0  0
 58156  1  0  0  0
 59 60  1  0  0  0
 59157  1  0  0  0
 60 63  1  0  0  0
 60 61  1  0  0  0
 60158  1  0  0  0
 61 62  2  0  0  0
 61 67  1  0  0  0
 63 65  1  0  0  0
 63 64  1  0  0  0
 63159  1  0  0  0
 64 66  1  0  0  0
 64160  1  0  0  0
 64161  1  0  0  0
 65162  1  0  0  0
 65163  1  0  0  0
 65164  1  0  0  0
 66165  1  0  0  0
 66166  1  0  0  0
 66167  1  0  0  0
 67 68  1  0  0  0
 67168  1  0  0  0
 68 71  1  0  0  0
 68 69  1  0  0  0
 68169  1  0  0  0
 69 70  2  0  0  0
 69 73  1  0  0  0
 71 72  1  0  0  0
 71170  1  0  0  0
 71171  1  0  0  0
 72172  1  0  0  0
 73 74  1  0  0  0
 73173  1  0  0  0
 74 77  1  0  0  0
 74 75  1  0  0  0
 74174  1  0  0  0
 75 76  2  0  0  0
 75 79  1  0  0  0
 77 78  1  0  0  0
 77175  1  0  0  0
 77176  1  0  0  0
 78177  1  0  0  0
 79 80  1  0  0  0
 79178  1  0  0  0
 80 83  1  0  0  0
 80 81  1  0  0  0
 80179  1  0  0  0
 81 82  2  0  0  0
 81 84  1  0  0  0
 83180  1  0  0  0
 83181  1  0  0  0
 83182  1  0  0  0
 84 85  1  0  0  0
 84183  1  0  0  0
 85 88  1  0  0  0
 85 86  1  0  0  0
 85184  1  0  0  0
 86 87  2  0  0  0
 86 93  1  0  0  0
 88 89  1  0  0  0
 88185  1  0  0  0
 88186  1  0  0  0
 89 90  1  0  0  0
 89187  1  0  0  0
 89188  1  0  0  0
 90 91  1  0  0  0
 90189  1  0  0  0
 90190  1  0  0  0
 91 92  1  0  0  0
 91191  1  0  0  0
 91192  1  0  0  0
 92193  1  0  0  0
 92194  1  0  0  0
 92195  1  0  0  0
 93196  1  0  0  0
M  CHG  2   1   1  92   1
M  END
> <s_m_source_file>
../2odd_ligand.sdf

> <i_m_source_file_index>
1

> <s_epik_input>
W09IXVtDQEhdKFtDSDNdKVtDQEhdKFtOSDMrXSlDKD1PKVtOSF1bQ0BASF0oW0NAQEhdKFtDSDNdKVtDSDJdW0NIM10pQyg9TylbTkhdW0NAQEhdKFtDSDJdW09IXSlDKD1PKVtOSF1bQ0BASF0oW0NIMl1DKD1PKVtOSDJdKUMoPU8pTjFbQ0BASF0oW0NIMl1bQ0gyXVtDSDJdMSlDKD1PKU4yW0NAQEhdKFtDSDJdW0NIMl1bQ0gyXTIpQyg9TylOM1tDQEBIXShbQ0gyXVtDSDJdW0NIMl0zKUMoPU8pW05IXVtDQEBIXShbQ0gyXVtDSF0oW0NIM10pW0NIM10pQyg9TylbTkhdW0NAQEhdKFtDQEBIXShbQ0gzXSlbQ0gyXVtDSDNdKUMoPU8pW05IXVtDQEBIXShbQ0gyXVtPSF0pQyg9TylbTkhdW0NAQEhdKFtDSDJdW09IXSlDKD1PKVtOSF1bQ0BASF0oW0NIM10pQyg9TylbTkhdW0NASF0oQyg9TylbT0hdKVtDSDJdW0NIMl1bQ0gyXVtDSDJdW05IMytd

> <s_epik_cmdline>
J2VwaWtfYXBwJywgJy1pbWFlJywgJ2xpZ2FuZF9wcm8ubWFlJywgJy1vbWFlJywgJ2xpZ2FuZF9wcmVwLm1hZScsICctbXMnLCAnMScsICctcGgnLCAnNycsICctcGh0JywgJzAuNScsICctbnQn

> <s_epik_pKa_notes>
Molecule size exceeds maximum supported for generating protonation states

$$$$
