2oei_ligand
                    3D
 Schrodinger Suite 2020-3.
130137  0  0  1  0            999 V2000
    1.8360   -1.9260   15.2780 N   0  3  0  0  0  0
    3.0590   -1.2800   15.6830 C   0  0  2  0  0  0
    2.8950    0.2340   15.8520 C   0  0  0  0  0  0
    1.8640    0.7750   15.4500 O   0  0  0  0  0  0
    4.0050   -1.5450   14.5030 C   0  0  0  0  0  0
    3.5200   -2.7430   13.8830 C   0  0  0  0  0  0
    2.0550   -2.8900   14.1860 C   0  0  0  0  0  0
    3.8820    0.9080   16.4520 N   0  0  0  0  0  0
    3.7750    2.3590   16.5300 C   0  0  2  0  0  0
    3.8960    2.9500   15.1270 C   0  0  0  0  0  0
    4.3190    2.2690   14.1830 O   0  0  0  0  0  0
    4.9750    2.7700   17.3830 C   0  0  0  0  0  0
    5.6640    1.4400   17.7810 C   0  0  0  0  0  0
    5.1550    0.3950   16.9950 C   0  0  0  0  0  0
    3.5360    4.2220   14.9800 N   0  0  0  0  0  0
    3.5960    4.8450   13.6590 C   0  0  2  0  0  0
    5.0080    5.0320   13.1520 C   0  0  0  0  0  0
    6.0010    4.9650   13.9210 O   0  0  0  0  0  0
    2.9720    6.2100   13.9040 C   0  0  0  0  0  0
    3.2060    6.4960   15.3380 C   0  0  0  0  0  0
    3.1260    5.1660   16.0280 C   0  0  0  0  0  0
    5.1390    5.3220   11.8420 N   0  0  0  0  0  0
    6.4660    5.5880   11.3410 C   0  0  2  0  0  0
    7.0930    6.7800   12.0400 C   0  0  0  0  0  0
    6.4050    7.7690   12.3120 O   0  0  0  0  0  0
    6.2450    5.8090    9.8360 C   0  0  0  0  0  0
    4.8460    5.9900    9.6830 C   0  0  0  0  0  0
    4.1080    5.4120   10.7910 C   0  0  0  0  0  0
    8.3950    6.6950   12.3380 N   0  0  0  0  0  0
    9.0340    7.8160   12.9920 C   0  0  2  0  0  0
    9.2940    8.9990   12.0330 C   0  0  0  0  0  0
    9.2100    8.8640   10.8070 O   0  0  0  0  0  0
   10.4050    7.2350   13.3950 C   0  0  0  0  0  0
   10.6390    6.1070   12.4760 C   0  0  0  0  0  0
    9.3300    5.5920   12.0740 C   0  0  0  0  0  0
    9.5430   10.1610   12.5730 N   0  0  0  0  0  0
    9.9050   11.3060   11.6980 C   0  0  2  0  0  0
   11.3060   11.0720   11.1580 C   0  0  0  0  0  0
   12.0960   10.2830   11.7420 O   0  0  0  0  0  0
   10.0170   12.4590   12.6740 C   0  0  0  0  0  0
   10.3300   11.7530   13.9900 C   0  0  0  0  0  0
    9.5520   10.5170   14.0030 C   0  0  0  0  0  0
   11.6370   11.8020   10.1060 N   0  0  0  0  0  0
   12.9710   11.7630    9.5840 C   0  0  2  0  0  0
   13.8290   12.5900   10.4300 C   0  0  0  0  0  0
   13.4200   13.6840   10.8660 O   0  0  0  0  0  0
   13.0730   12.3230    8.1800 C   0  0  0  0  0  0
   12.4630   11.5240    7.0680 C   0  0  0  0  0  0
   12.5940   12.3440    5.7580 C   0  0  0  0  0  0
   13.1210   10.1340    6.8410 C   0  0  0  0  0  0
   15.0600   12.1070   10.7080 N   0  0  0  0  0  0
   15.9520   12.8850   11.5390 C   0  0  2  0  0  0
   16.4170   14.0850   10.7510 C   0  0  0  0  0  0
   16.3100   14.0710    9.5140 O   0  0  0  0  0  0
   17.1330   11.9530   11.7900 C   0  0  0  0  0  0
   17.0510   10.9130   10.7360 C   0  0  0  0  0  0
   15.6340   10.8020   10.3150 C   0  0  0  0  0  0
   16.9570   15.1120   11.4470 N   0  0  0  0  0  0
   17.4150   16.3620   10.8290 C   0  0  2  0  0  0
   18.4040   16.1610    9.6700 C   0  0  0  0  0  0
   18.3820   16.9290    8.7060 O   0  0  0  0  0  0
   18.0960   17.1150   11.9900 C   0  0  0  0  0  0
   18.2170   16.1370   13.1090 C   0  0  0  0  0  0
   17.1290   15.1330   12.9070 C   0  0  0  0  0  0
   19.2347   15.2142    9.7050 O   0  5  0  0  0  0
    1.4072   -2.4685   16.1335 H   0  0  0  0  0  0
    1.1196   -1.1683   14.9280 H   0  0  0  0  0  0
    3.3620   -1.6943   16.6559 H   0  0  0  0  0  0
    3.9727   -0.6925   13.8086 H   0  0  0  0  0  0
    5.0312   -1.6742   14.8775 H   0  0  0  0  0  0
    3.6699   -2.6794   12.7951 H   0  0  0  0  0  0
    4.0701   -3.6094   14.2789 H   0  0  0  0  0  0
    1.7971   -3.9016   14.5327 H   0  0  0  0  0  0
    1.4198   -2.6233   13.3285 H   0  0  0  0  0  0
    2.8074    2.6633   16.9555 H   0  0  0  0  0  0
    5.6442    3.4107   16.7899 H   0  0  0  0  0  0
    4.6245    3.3242   18.2662 H   0  0  0  0  0  0
    6.4353    1.2337   18.5377 H   0  0  0  0  0  0
    5.7133   -0.5486   16.9061 H   0  0  0  0  0  0
    3.0910    4.2006   12.9244 H   0  0  0  0  0  0
    3.4588    6.9567   13.2594 H   0  0  0  0  0  0
    1.8977    6.1692   13.6712 H   0  0  0  0  0  0
    4.1976    6.9554   15.4632 H   0  0  0  0  0  0
    2.4328    7.1870   15.7050 H   0  0  0  0  0  0
    2.1059    4.9240   16.3608 H   0  0  0  0  0  0
    3.8173    5.0906   16.8803 H   0  0  0  0  0  0
    7.1404    4.7481   11.5643 H   0  0  0  0  0  0
    6.9040    5.8474    8.9561 H   0  0  0  0  0  0
    4.4527    6.5163    8.8008 H   0  0  0  0  0  0
    3.7209    4.4063   10.5700 H   0  0  0  0  0  0
    3.2848    6.0534   11.1388 H   0  0  0  0  0  0
    8.3721    8.1623   13.7994 H   0  0  0  0  0  0
   11.1781    8.0098   13.2856 H   0  0  0  0  0  0
   10.3677    6.8996   14.4420 H   0  0  0  0  0  0
   11.2005    6.4596   11.5983 H   0  0  0  0  0  0
   11.2178    5.3272   12.9925 H   0  0  0  0  0  0
    9.0377    4.7135   12.6679 H   0  0  0  0  0  0
    9.3034    5.3368   11.0043 H   0  0  0  0  0  0
    9.1853   11.4473   10.8782 H   0  0  0  0  0  0
   10.8223   13.1354   12.3516 H   0  0  0  0  0  0
    9.0651   13.0095   12.7020 H   0  0  0  0  0  0
   11.4072   11.5363   14.0427 H   0  0  0  0  0  0
   10.0450   12.4020   14.8311 H   0  0  0  0  0  0
    8.5184   10.6570   14.3525 H   0  0  0  0  0  0
   10.0276    9.7095   14.5789 H   0  0  0  0  0  0
   10.8791   12.4426    9.6313 H   0  0  0  0  0  0
   13.2500   10.6993    9.6109 H   0  0  0  0  0  0
   12.5756   13.3033    8.1392 H   0  0  0  0  0  0
   14.1324   12.4378    7.9071 H   0  0  0  0  0  0
   11.4232   11.3538    7.3839 H   0  0  0  0  0  0
   12.1337   13.3333    5.8971 H   0  0  0  0  0  0
   12.0832   11.8136    4.9408 H   0  0  0  0  0  0
   13.6579   12.4666    5.5070 H   0  0  0  0  0  0
   13.0389    9.5350    7.7600 H   0  0  0  0  0  0
   14.1822   10.2682    6.5843 H   0  0  0  0  0  0
   12.6075    9.6152    6.0181 H   0  0  0  0  0  0
   15.4472   13.2264   12.4548 H   0  0  0  0  0  0
   18.0713   12.5228   11.7189 H   0  0  0  0  0  0
   17.0462   11.5134   12.7946 H   0  0  0  0  0  0
   17.6801   11.2057    9.8824 H   0  0  0  0  0  0
   17.4046    9.9529   11.1399 H   0  0  0  0  0  0
   15.1016    9.9945   10.8390 H   0  0  0  0  0  0
   15.5274   10.6668    9.2286 H   0  0  0  0  0  0
   16.5436   16.8639   10.3832 H   0  0  0  0  0  0
   19.0858   17.4694   11.6666 H   0  0  0  0  0  0
   17.4761   17.9753   12.2827 H   0  0  0  0  0  0
   19.2072   15.6592   13.0729 H   0  0  0  0  0  0
   18.0976   16.6612   14.0687 H   0  0  0  0  0  0
   16.1844   15.4346   13.3832 H   0  0  0  0  0  0
   17.4121   14.1295   13.2573 H   0  0  0  0  0  0
  1  2  1  0  0  0
  1  7  1  0  0  0
  1 66  1  0  0  0
  1 67  1  0  0  0
  2  3  1  0  0  0
  2  5  1  0  0  0
  2 68  1  0  0  0
  3  4  2  0  0  0
  3  8  1  0  0  0
  5  6  1  0  0  0
  5 69  1  0  0  0
  5 70  1  0  0  0
  6  7  1  0  0  0
  6 71  1  0  0  0
  6 72  1  0  0  0
  7 73  1  0  0  0
  7 74  1  0  0  0
  8  9  1  0  0  0
  8 14  1  0  0  0
  9 10  1  0  0  0
  9 12  1  0  0  0
  9 75  1  0  0  0
 10 11  2  0  0  0
 10 15  1  0  0  0
 12 13  1  0  0  0
 12 76  1  0  0  0
 12 77  1  0  0  0
 13 14  2  0  0  0
 13 78  1  0  0  0
 14 79  1  0  0  0
 15 16  1  0  0  0
 15 21  1  0  0  0
 16 17  1  0  0  0
 16 19  1  0  0  0
 16 80  1  0  0  0
 17 18  2  0  0  0
 17 22  1  0  0  0
 19 20  1  0  0  0
 19 81  1  0  0  0
 19 82  1  0  0  0
 20 21  1  0  0  0
 20 83  1  0  0  0
 20 84  1  0  0  0
 21 85  1  0  0  0
 21 86  1  0  0  0
 22 23  1  0  0  0
 22 28  1  0  0  0
 23 24  1  0  0  0
 23 26  1  0  0  0
 23 87  1  0  0  0
 24 25  2  0  0  0
 24 29  1  0  0  0
 26 27  2  0  0  0
 26 88  1  0  0  0
 27 28  1  0  0  0
 27 89  1  0  0  0
 28 90  1  0  0  0
 28 91  1  0  0  0
 29 30  1  0  0  0
 29 35  1  0  0  0
 30 31  1  0  0  0
 30 33  1  0  0  0
 30 92  1  0  0  0
 31 32  2  0  0  0
 31 36  1  0  0  0
 33 34  1  0  0  0
 33 93  1  0  0  0
 33 94  1  0  0  0
 34 35  1  0  0  0
 34 95  1  0  0  0
 34 96  1  0  0  0
 35 97  1  0  0  0
 35 98  1  0  0  0
 36 37  1  0  0  0
 36 42  1  0  0  0
 37 38  1  0  0  0
 37 40  1  0  0  0
 37 99  1  0  0  0
 38 39  2  0  0  0
 38 43  1  0  0  0
 40 41  1  0  0  0
 40100  1  0  0  0
 40101  1  0  0  0
 41 42  1  0  0  0
 41102  1  0  0  0
 41103  1  0  0  0
 42104  1  0  0  0
 42105  1  0  0  0
 43 44  1  0  0  0
 43106  1  0  0  0
 44 45  1  0  0  0
 44 47  1  0  0  0
 44107  1  0  0  0
 45 46  2  0  0  0
 45 51  1  0  0  0
 47 48  1  0  0  0
 47108  1  0  0  0
 47109  1  0  0  0
 48 49  1  0  0  0
 48 50  1  0  0  0
 48110  1  0  0  0
 49111  1  0  0  0
 49112  1  0  0  0
 49113  1  0  0  0
 50114  1  0  0  0
 50115  1  0  0  0
 50116  1  0  0  0
 51 52  1  0  0  0
 51 57  1  0  0  0
 52 53  1  0  0  0
 52 55  1  0  0  0
 52117  1  0  0  0
 53 54  2  0  0  0
 53 58  1  0  0  0
 55 56  1  0  0  0
 55118  1  0  0  0
 55119  1  0  0  0
 56 57  1  0  0  0
 56120  1  0  0  0
 56121  1  0  0  0
 57122  1  0  0  0
 57123  1  0  0  0
 58 59  1  0  0  0
 58 64  1  0  0  0
 59 60  1  0  0  0
 59 62  1  0  0  0
 59124  1  0  0  0
 60 61  2  0  0  0
 60 65  1  0  0  0
 62 63  1  0  0  0
 62125  1  0  0  0
 62126  1  0  0  0
 63 64  1  0  0  0
 63127  1  0  0  0
 63128  1  0  0  0
 64129  1  0  0  0
 64130  1  0  0  0
M  CHG  2   1   1  65  -1
M  END
> <s_m_source_file>
../2oei_ligand.sdf

> <i_m_source_file_index>
1

> <s_epik_input>
W0NIMl0xW0NIMl1bQ0gyXVtOSDIrXVtDQEBIXTFDKD1PKU4yW0NAQEhdKFtDSDJdW0NIXT1bQ0hdMilDKD1PKU4zW0NAQEhdKFtDSDJdW0NIMl1bQ0gyXTMpQyg9TylONFtDQEBIXShbQ0hdPVtDSF1bQ0gyXTQpQyg9TylONVtDQEBIXShbQ0gyXVtDSDJdW0NIMl01KUMoPU8pTjZbQ0BASF0oW0NIMl1bQ0gyXVtDSDJdNilDKD1PKVtOSF1bQ0BASF0oW0NIMl1bQ0hdKFtDSDNdKVtDSDNdKUMoPU8pTjdbQ0BASF0oW0NIMl1bQ0gyXVtDSDJdNylDKD1PKU44W0NASF0oQyg9TylbT0hdKVtDSDJdW0NIMl1bQ0gyXTg=

> <s_epik_cmdline>
J2VwaWtfYXBwJywgJy1pbWFlJywgJ2xpZ2FuZF9wcm8ubWFlJywgJy1vbWFlJywgJ2xpZ2FuZF9wcmVwLm1hZScsICctbXMnLCAnMScsICctcGgnLCAnNycsICctcGh0JywgJzAuNScsICctbnQn

> <r_epik_Ionization_Penalty>
  0.0512

> <r_epik_Ionization_Penalty_Charging>
  0.0512

> <r_epik_Ionization_Penalty_Neutral>
  0.0000

> <r_epik_State_Penalty>
  0.0435

> <r_epik_Charging_Adjusted_Penalty>
0.0947923152392538

> <i_epik_Tot_Q>
0

> <i_epik_Tot_abs_Q>
2

$$$$
