2of2_ligand
                    3D
 Schrodinger Suite 2020-3.
 57 61  0  0  1  0            999 V2000
   23.3130   35.2040   82.6920 C   0  0  0  0  0  0
   24.6110   34.9970   82.3530 N   0  0  0  0  0  0
   25.6330   35.8390   82.7690 C   0  0  0  0  0  0
   25.3670   36.9590   83.5920 C   0  0  0  0  0  0
   23.9760   37.2040   83.9840 C   0  0  0  0  0  0
   22.9540   36.2980   83.5210 C   0  0  0  0  0  0
   26.9560   35.7210   82.4870 O   0  0  0  0  0  0
   27.5720   36.7840   83.1180 C   0  0  0  0  0  0
   26.5570   37.6280   83.8630 C   0  0  0  0  0  0
   26.7120   38.8560   84.6820 C   0  0  0  0  0  0
   27.0220   40.1120   84.0560 C   0  0  0  0  0  0
   27.1840   41.2830   84.8650 C   0  0  0  0  0  0
   27.0370   41.1890   86.2990 C   0  0  0  0  0  0
   26.7220   39.9280   86.9320 C   0  0  0  0  0  0
   26.5620   38.7590   86.1200 C   0  0  0  0  0  0
   29.0530   36.9920   83.0270 C   0  0  0  0  0  0
   29.7860   36.2420   82.0450 C   0  0  0  0  0  0
   31.2050   36.4270   81.9230 C   0  0  0  0  0  0
   31.8890   37.3710   82.7800 C   0  0  0  0  0  0
   31.1680   38.1210   83.7630 C   0  0  0  0  0  0
   29.7640   37.9300   83.8800 C   0  0  0  0  0  0
   23.6700   38.2800   84.7910 N   0  0  0  0  0  0
   22.3130   38.5930   85.2200 C   0  0  0  0  0  0
   22.2460   39.8340   86.1150 C   0  0  0  0  0  0
   23.0260   41.0020   85.6340 N   0  0  0  0  0  0
   23.2340   41.8710   86.8240 C   0  0  0  0  0  0
   24.0340   43.1270   86.4310 C   0  0  0  0  0  0
   23.3110   43.8450   85.3400 N   0  3  0  0  0  0
   23.0980   42.9700   84.1440 C   0  0  0  0  0  0
   22.2740   41.7390   84.5800 C   0  0  0  0  0  0
   22.5423   34.5260   82.3253 H   0  0  0  0  0  0
   21.9133   36.4526   83.8059 H   0  0  0  0  0  0
   27.1330   40.1731   82.9734 H   0  0  0  0  0  0
   27.4172   42.2411   84.4005 H   0  0  0  0  0  0
   27.1653   42.0810   86.9121 H   0  0  0  0  0  0
   26.6076   39.8676   88.0143 H   0  0  0  0  0  0
   26.3282   37.7999   86.5821 H   0  0  0  0  0  0
   29.2678   35.5362   81.3959 H   0  0  0  0  0  0
   31.7671   35.8558   81.1842 H   0  0  0  0  0  0
   32.9648   37.5125   82.6759 H   0  0  0  0  0  0
   31.6869   38.8271   84.4113 H   0  0  0  0  0  0
   29.2087   38.4993   84.6255 H   0  0  0  0  0  0
   24.5086   38.9156   85.1116 H   0  0  0  0  0  0
   21.6835   38.7803   84.3376 H   0  0  0  0  0  0
   21.9036   37.7453   85.7891 H   0  0  0  0  0  0
   21.2015   40.1683   86.2006 H   0  0  0  0  0  0
   22.6350   39.5872   87.1139 H   0  0  0  0  0  0
   22.2584   42.1774   87.2293 H   0  0  0  0  0  0
   23.7915   41.3143   87.5917 H   0  0  0  0  0  0
   24.1336   43.7868   87.3055 H   0  0  0  0  0  0
   25.0333   42.8303   86.0798 H   0  0  0  0  0  0
   22.3274   44.1739   85.7066 H   0  0  0  0  0  0
   23.8973   44.7214   85.0265 H   0  0  0  0  0  0
   22.5538   43.5321   83.3708 H   0  0  0  0  0  0
   24.0721   42.6488   83.7465 H   0  0  0  0  0  0
   22.1094   41.0775   83.7166 H   0  0  0  0  0  0
   21.3035   42.0652   84.9822 H   0  0  0  0  0  0
  1  2  2  0  0  0
  1  6  1  0  0  0
  1 31  1  0  0  0
  2  3  1  0  0  0
  3  4  2  0  0  0
  3  7  1  0  0  0
  4  5  1  0  0  0
  4  9  1  0  0  0
  5  6  2  0  0  0
  5 22  1  0  0  0
  6 32  1  0  0  0
  7  8  1  0  0  0
  8  9  2  0  0  0
  8 16  1  0  0  0
  9 10  1  0  0  0
 10 11  2  0  0  0
 10 15  1  0  0  0
 11 12  1  0  0  0
 11 33  1  0  0  0
 12 13  2  0  0  0
 12 34  1  0  0  0
 13 14  1  0  0  0
 13 35  1  0  0  0
 14 15  2  0  0  0
 14 36  1  0  0  0
 15 37  1  0  0  0
 16 17  2  0  0  0
 16 21  1  0  0  0
 17 18  1  0  0  0
 17 38  1  0  0  0
 18 19  2  0  0  0
 18 39  1  0  0  0
 19 20  1  0  0  0
 19 40  1  0  0  0
 20 21  2  0  0  0
 20 41  1  0  0  0
 21 42  1  0  0  0
 22 23  1  0  0  0
 22 43  1  0  0  0
 23 24  1  0  0  0
 23 44  1  0  0  0
 23 45  1  0  0  0
 24 25  1  0  0  0
 24 46  1  0  0  0
 24 47  1  0  0  0
 25 26  1  0  0  0
 25 30  1  0  0  0
 26 27  1  0  0  0
 26 48  1  0  0  0
 26 49  1  0  0  0
 27 28  1  0  0  0
 27 50  1  0  0  0
 27 51  1  0  0  0
 28 29  1  0  0  0
 28 52  1  0  0  0
 28 53  1  0  0  0
 29 30  1  0  0  0
 29 54  1  0  0  0
 29 55  1  0  0  0
 30 56  1  0  0  0
 30 57  1  0  0  0
M  CHG  1  28   1
M  END
> <s_m_source_file>
../2of2_ligand.sdf

> <i_m_source_file_index>
1

> <s_epik_input>
W0NIMl0xW0NIMl1bTkgyK11bQ0gyXVtDSDJdW05IK10xW0NIMl1bQ0gyXVtOSF1jKFtjSF1bY0hdbjIpYyhjMjMpYygtYzRbY0hdW2NIXVtjSF1bY0hdW2NIXTQpYyhvMyktYzVbY0hdW2NIXVtjSF1bY0hdW2NIXTU=

> <s_epik_cmdline>
J2VwaWtfYXBwJywgJy1pbWFlJywgJ2xpZ2FuZF9wcm8ubWFlJywgJy1vbWFlJywgJ2xpZ2FuZF9wcmVwLm1hZScsICctbXMnLCAnMScsICctcGgnLCAnNycsICctcGh0JywgJzAuNScsICctbnQn

> <r_lp_tautomer_probability>
1

> <r_epik_Ionization_Penalty>
  0.0059

> <r_epik_Ionization_Penalty_Charging>
  0.0029

> <r_epik_Ionization_Penalty_Neutral>
  0.0030

> <r_epik_State_Penalty>
 -0.0000

> <r_epik_Charging_Adjusted_Penalty>
0.0028952297349241

> <i_epik_Tot_Q>
1

> <i_epik_Tot_abs_Q>
1

$$$$
