2of4_ligand
                    3D
 Schrodinger Suite 2020-3.
 56 60  0  0  1  0            999 V2000
   23.7940   35.5150   82.2490 C   0  0  0  0  0  0
   25.0750   35.3570   81.9170 N   0  0  0  0  0  0
   26.0620   36.1730   82.4300 C   0  0  0  0  0  0
   25.7800   37.1810   83.3690 C   0  0  0  0  0  0
   24.3740   37.2860   83.7100 C   0  0  0  0  0  0
   23.4700   36.4580   83.1500 N   0  0  0  0  0  0
   27.3950   36.1010   82.1700 O   0  0  0  0  0  0
   27.9960   37.0940   82.9060 C   0  0  0  0  0  0
   26.9600   37.8360   83.7520 C   0  0  0  0  0  0
   23.8520   38.1850   84.5990 N   0  0  0  0  0  0
   23.4060   39.4830   84.1250 C   0  0  0  0  0  0
   23.2350   40.4470   85.3080 C   0  0  0  0  0  0
   22.8660   41.8560   84.9380 N   0  0  0  0  0  0
   27.1280   38.9960   84.7050 C   0  0  0  0  0  0
   27.7660   40.2210   84.2560 C   0  0  0  0  0  0
   27.9840   41.2870   85.1840 C   0  0  0  0  0  0
   27.5780   41.1180   86.5610 C   0  0  0  0  0  0
   26.9280   39.9080   87.0130 C   0  0  0  0  0  0
   26.7200   38.8460   86.0890 C   0  0  0  0  0  0
   29.4860   37.2940   82.8560 C   0  0  0  0  0  0
   30.2230   36.7880   81.7100 C   0  0  0  0  0  0
   31.6410   36.9820   81.6450 C   0  0  0  0  0  0
   32.3250   37.6860   82.7180 C   0  0  0  0  0  0
   31.6160   38.1900   83.8500 C   0  0  0  0  0  0
   30.2030   37.9940   83.9120 C   0  0  0  0  0  0
   22.7350   42.7020   86.1910 C   0  0  0  0  0  0
   23.8310   42.4720   83.9170 C   0  0  0  0  0  0
   24.1650   43.0430   86.7980 C   0  0  0  0  0  0
   25.1600   43.0400   84.5150 C   0  0  0  0  0  0
   25.0110   43.7710   85.8140 N   0  3  0  0  0  0
   23.0229   34.8906   81.7978 H   0  0  0  0  0  0
   23.7688   37.9308   85.6660 H   0  0  0  0  0  0
   24.1513   39.8949   83.4287 H   0  0  0  0  0  0
   22.4418   39.3728   83.6071 H   0  0  0  0  0  0
   22.4371   40.0781   85.9692 H   0  0  0  0  0  0
   24.1783   40.5082   85.8705 H   0  0  0  0  0  0
   28.0771   40.3273   83.2168 H   0  0  0  0  0  0
   28.4508   42.2160   84.8568 H   0  0  0  0  0  0
   27.7660   41.9204   87.2744 H   0  0  0  0  0  0
   26.6015   39.8106   88.0484 H   0  0  0  0  0  0
   26.2535   37.9187   86.4215 H   0  0  0  0  0  0
   29.7018   36.2659   80.9076 H   0  0  0  0  0  0
   32.2058   36.6028   80.7933 H   0  0  0  0  0  0
   33.4034   37.8322   82.6566 H   0  0  0  0  0  0
   32.1416   38.7128   84.6491 H   0  0  0  0  0  0
   29.6489   38.3770   84.7690 H   0  0  0  0  0  0
   22.2215   43.6434   85.9458 H   0  0  0  0  0  0
   22.1527   42.1524   86.9453 H   0  0  0  0  0  0
   24.1206   41.7090   83.1795 H   0  0  0  0  0  0
   23.3359   43.3092   83.4033 H   0  0  0  0  0  0
   24.0434   43.6752   87.6899 H   0  0  0  0  0  0
   24.6770   42.1102   87.0768 H   0  0  0  0  0  0
   25.8622   42.2134   84.6986 H   0  0  0  0  0  0
   25.6077   43.7504   83.8044 H   0  0  0  0  0  0
   24.5597   44.7502   85.5961 H   0  0  0  0  0  0
   26.0178   43.9163   86.2326 H   0  0  0  0  0  0
  1  2  2  0  0  0
  1  6  1  0  0  0
  1 31  1  0  0  0
  2  3  1  0  0  0
  3  4  2  0  0  0
  3  7  1  0  0  0
  4  5  1  0  0  0
  4  9  1  0  0  0
  5  6  2  0  0  0
  5 10  1  0  0  0
  7  8  1  0  0  0
  8  9  2  0  0  0
  8 20  1  0  0  0
  9 14  1  0  0  0
 10 11  1  0  0  0
 10 32  1  0  0  0
 11 12  1  0  0  0
 11 33  1  0  0  0
 11 34  1  0  0  0
 12 13  1  0  0  0
 12 35  1  0  0  0
 12 36  1  0  0  0
 13 26  1  0  0  0
 13 27  1  0  0  0
 14 15  2  0  0  0
 14 19  1  0  0  0
 15 16  1  0  0  0
 15 37  1  0  0  0
 16 17  2  0  0  0
 16 38  1  0  0  0
 17 18  1  0  0  0
 17 39  1  0  0  0
 18 19  2  0  0  0
 18 40  1  0  0  0
 19 41  1  0  0  0
 20 21  2  0  0  0
 20 25  1  0  0  0
 21 22  1  0  0  0
 21 42  1  0  0  0
 22 23  2  0  0  0
 22 43  1  0  0  0
 23 24  1  0  0  0
 23 44  1  0  0  0
 24 25  2  0  0  0
 24 45  1  0  0  0
 25 46  1  0  0  0
 26 28  1  0  0  0
 26 47  1  0  0  0
 26 48  1  0  0  0
 27 29  1  0  0  0
 27 49  1  0  0  0
 27 50  1  0  0  0
 28 30  1  0  0  0
 28 51  1  0  0  0
 28 52  1  0  0  0
 29 30  1  0  0  0
 29 53  1  0  0  0
 29 54  1  0  0  0
 30 55  1  0  0  0
 30 56  1  0  0  0
M  CHG  1  30   1
M  END
> <s_m_source_file>
../2of4_ligand.sdf

> <i_m_source_file_index>
1

> <s_epik_input>
W0NIMl0xW0NIMl1bTkgyK11bQ0gyXVtDSDJdW05IK10xW0NIMl1bQ0gyXVtOSF1jKG5bY0hdbjIpYyhjMjMpYygtYzRbY0hdW2NIXVtjSF1bY0hdW2NIXTQpYyhvMyktYzVbY0hdW2NIXVtjSF1bY0hdW2NIXTU=

> <s_epik_cmdline>
J2VwaWtfYXBwJywgJy1pbWFlJywgJ2xpZ2FuZF9wcm8ubWFlJywgJy1vbWFlJywgJ2xpZ2FuZF9wcmVwLm1hZScsICctbXMnLCAnMScsICctcGgnLCAnNycsICctcGh0JywgJzAuNScsICctbnQn

> <r_lp_tautomer_probability>
1

> <r_epik_Ionization_Penalty>
  0.0045

> <r_epik_Ionization_Penalty_Charging>
  0.0029

> <r_epik_Ionization_Penalty_Neutral>
  0.0017

> <r_epik_State_Penalty>
 -0.0000

> <r_epik_Charging_Adjusted_Penalty>
0.0028952297349241

> <i_epik_Tot_Q>
1

> <i_epik_Tot_abs_Q>
1

$$$$
