2off_ligand
                    3D
 Schrodinger Suite 2020-3.
 51 52  0  0  1  0            999 V2000
   25.2210   -2.0630   52.5510 C   0  0  0  0  0  0
   24.2330   -2.8410   53.1570 C   0  0  0  0  0  0
   24.5450   -4.1120   53.6390 C   0  0  0  0  0  0
   23.5890   -4.8770   54.2310 O   0  0  0  0  0  0
   25.8430   -4.6020   53.5160 C   0  0  0  0  0  0
   26.8290   -3.8200   52.9140 C   0  0  0  0  0  0
   26.5250   -2.5500   52.4280 C   0  0  0  0  0  0
   27.5350   -1.7920   51.8300 C   0  0  0  0  0  0
   27.4920   -0.3960   51.8190 C   0  0  0  0  0  0
   28.4800    0.3950   51.2290 C   0  0  0  0  0  0
   29.4610   -0.1220   50.6950 O   0  0  0  0  0  0
   28.3240    1.7570   51.2720 O   0  0  0  0  0  0
   29.4290    2.6190   50.8920 C   0  0  1  0  0  0
   28.8500    3.9490   50.3500 C   0  0  0  0  0  0
   28.3130    3.8660   48.9110 C   0  0  0  0  0  0
   27.3790    4.6520   48.6160 O   0  5  0  0  0  0
   28.8440    3.0330   48.1390 O   0  0  0  0  0  0
   30.2980    2.9510   52.1040 C   0  0  2  0  0  0
   31.5840    3.6840   51.6940 C   0  0  0  0  0  0
   31.5580    4.9310   51.6770 O   0  0  0  0  0  0
   32.5880    2.9970   51.4020 O   0  5  0  0  0  0
   30.7060    1.7410   52.7620 O   0  0  0  0  0  0
   30.1130    1.4430   53.9550 C   0  0  0  0  0  0
   29.4320    2.2670   54.5730 O   0  0  0  0  0  0
   30.3130    0.1580   54.4500 C   0  0  0  0  0  0
   29.7650   -0.2720   55.6520 C   0  0  0  0  0  0
   29.9750   -1.5710   56.1150 C   0  0  0  0  0  0
   30.0500   -1.8060   57.4890 C   0  0  0  0  0  0
   30.2500   -3.1030   57.9670 C   0  0  0  0  0  0
   30.3670   -4.1650   57.0700 C   0  0  0  0  0  0
   30.5630   -5.4310   57.5390 O   0  0  0  0  0  0
   30.2860   -3.9330   55.6960 C   0  0  0  0  0  0
   30.0870   -2.6370   55.2180 C   0  0  0  0  0  0
   24.9742   -1.0712   52.1721 H   0  0  0  0  0  0
   23.2181   -2.4553   53.2534 H   0  0  0  0  0  0
   22.5624   -4.4947   54.3306 H   0  0  0  0  0  0
   26.0883   -5.5960   53.8899 H   0  0  0  0  0  0
   27.8446   -4.2053   52.8232 H   0  0  0  0  0  0
   28.3781   -2.3200   51.3605 H   0  0  0  0  0  0
   26.6503    0.1321   52.2908 H   0  0  0  0  0  0
   30.0069    2.0518   50.1475 H   0  0  0  0  0  0
   28.0135    4.2715   50.9874 H   0  0  0  0  0  0
   29.6344    4.7201   50.3566 H   0  0  0  0  0  0
   29.6949    3.5424   52.8087 H   0  0  0  0  0  0
   30.9314   -0.5269   53.8513 H   0  0  0  0  0  0
   29.1542    0.4158   56.2553 H   0  0  0  0  0  0
   29.9524   -0.9766   58.1894 H   0  0  0  0  0  0
   30.3146   -3.2852   59.0397 H   0  0  0  0  0  0
   30.6267   -5.6126   58.6220 H   0  0  0  0  0  0
   30.3781   -4.7639   54.9965 H   0  0  0  0  0  0
   30.0189   -2.4561   54.1453 H   0  0  0  0  0  0
  1  2  2  0  0  0
  1  7  1  0  0  0
  1 34  1  0  0  0
  2  3  1  0  0  0
  2 35  1  0  0  0
  3  4  1  0  0  0
  3  5  2  0  0  0
  4 36  1  0  0  0
  5  6  1  0  0  0
  5 37  1  0  0  0
  6  7  2  0  0  0
  6 38  1  0  0  0
  7  8  1  0  0  0
  8  9  2  0  0  0
  8 39  1  0  0  0
  9 10  1  0  0  0
  9 40  1  0  0  0
 10 11  2  0  0  0
 10 12  1  0  0  0
 12 13  1  0  0  0
 13 14  1  0  0  0
 13 18  1  0  0  0
 13 41  1  0  0  0
 14 15  1  0  0  0
 14 42  1  0  0  0
 14 43  1  0  0  0
 15 16  1  0  0  0
 15 17  2  0  0  0
 18 19  1  0  0  0
 18 22  1  0  0  0
 18 44  1  0  0  0
 19 20  2  0  0  0
 19 21  1  0  0  0
 22 23  1  0  0  0
 23 24  2  0  0  0
 23 25  1  0  0  0
 25 26  2  0  0  0
 25 45  1  0  0  0
 26 27  1  0  0  0
 26 46  1  0  0  0
 27 28  2  0  0  0
 27 33  1  0  0  0
 28 29  1  0  0  0
 28 47  1  0  0  0
 29 30  2  0  0  0
 29 48  1  0  0  0
 30 31  1  0  0  0
 30 32  1  0  0  0
 31 49  1  0  0  0
 32 33  2  0  0  0
 32 50  1  0  0  0
 33 51  1  0  0  0
M  CHG  2  16  -1  21  -1
M  END
> <s_m_source_file>
../2off_ligand.sdf

> <i_m_source_file_index>
1

> <s_epik_input>
W09IXWMxW2NIXVtjSF1jKFtjSF1bY0hdMSkvW0NIXT1bQ0hdL0MoPU8pT1tDQEBIXShbQ0gyXUMoPU8pW09IXSlbQ0BIXShDKD1PKVtPSF0pT0MoPU8pL1tDSF09W0NIXS9jMltjSF1bY0hdYyhbT0hdKVtjSF1bY0hdMg==

> <s_epik_cmdline>
J2VwaWtfYXBwJywgJy1pbWFlJywgJ2xpZ2FuZF9wcm8ubWFlJywgJy1vbWFlJywgJ2xpZ2FuZF9wcmVwLm1hZScsICctbXMnLCAnMScsICctcGgnLCAnNycsICctcGh0JywgJzAuNScsICctbnQn

> <r_lp_tautomer_probability>
1

> <r_epik_Ionization_Penalty>
  0.0026

> <r_epik_Ionization_Penalty_Charging>
  0.0006

> <r_epik_Ionization_Penalty_Neutral>
  0.0021

> <r_epik_State_Penalty>
 -0.0000

> <r_epik_Charging_Adjusted_Penalty>
0.00056599424311542

> <i_epik_Tot_Q>
-2

> <i_epik_Tot_abs_Q>
2

> <s_epik_Chemistry_Notes>
This compound has an ester and may undergo hydrolysis at high or low pH.

$$$$
