2ofu_ligand
                    3D
 Schrodinger Suite 2020-3.
 97101  0  0  1  0            999 V2000
   25.7160   35.8400   82.7480 C   0  0  0  0  0  0
   25.2120   36.6900   83.6600 N   0  0  0  0  0  0
   23.9300   36.6070   84.0410 C   0  0  0  0  0  0
   23.0440   35.6180   83.4800 C   0  0  0  0  0  0
   23.6170   34.7700   82.5330 C   0  0  0  0  0  0
   24.9150   34.9180   82.2070 N   0  0  0  0  0  0
   27.0310   35.8420   82.3570 N   0  0  0  0  0  0
   28.0490   36.6660   82.7980 C   0  0  0  0  0  0
   23.5510   37.5640   85.0020 N   0  0  0  0  0  0
   24.4230   38.4760   85.6320 C   0  0  0  0  0  0
   24.1910   39.8960   85.4080 C   0  0  0  0  0  0
   22.2100   37.5920   85.3050 C   0  0  0  0  0  0
   25.4920   37.9750   86.5020 C   0  0  0  0  0  0
   26.3320   38.9130   87.1600 C   0  0  0  0  0  0
   26.0960   40.3120   86.9320 C   0  0  0  0  0  0
   25.0420   40.8400   86.0750 C   0  0  0  0  0  0
   27.9010   38.0190   83.3090 C   0  0  0  0  0  0
   29.0340   38.7810   83.6960 C   0  0  0  0  0  0
   30.3210   38.1580   83.5530 C   0  0  0  0  0  0
   30.4780   36.8190   83.0550 C   0  0  0  0  0  0
   29.3180   36.0680   82.6740 C   0  0  0  0  0  0
   22.0250   37.9480   86.7470 O   0  0  0  0  0  0
   20.5850   37.8270   87.2100 C   0  0  0  0  0  0
   20.0870   36.5390   87.5210 C   0  0  0  0  0  0
   18.7110   36.4440   87.9640 C   0  0  0  0  0  0
   17.9670   37.6600   88.0410 C   0  0  0  0  0  0
   18.5010   38.9510   87.7120 C   0  0  0  0  0  0
   19.8790   39.0370   87.2720 C   0  0  0  0  0  0
   20.5330   40.3200   86.8850 C   0  0  0  0  0  0
   20.9280   35.3250   87.3600 C   0  0  0  0  0  0
   31.7910   36.3210   82.9910 O   0  0  0  0  0  0
   32.0590   35.0050   82.4880 C   0  0  0  0  0  0
   21.2780   37.4040   84.6490 O   0  0  0  0  0  0
   27.0280   41.1480   87.5650 O   0  0  0  0  0  0
   23.1300   40.2520   84.5170 O   0  0  0  0  0  0
   22.6970   41.6340   84.4480 C   0  0  0  0  0  0
   26.5830   42.3600   88.1680 C   0  0  0  0  0  0
   31.4390   38.9290   83.8970 O   0  0  0  0  0  0
   31.6960   38.8700   85.2980 C   0  0  0  0  0  0
   33.0160   39.5090   85.5580 C   0  0  0  0  0  0
   33.0630   40.9280   84.9840 C   0  0  0  0  0  0
   28.9330   40.0920   84.2320 O   0  0  0  0  0  0
   27.8930   41.0230   83.8580 C   0  0  0  0  0  0
   36.2520   41.9690   86.9110 C   0  0  0  0  0  0
   36.5290   43.1780   86.0540 N   0  3  2  0  0  0
   35.2920   43.9500   85.6730 C   0  0  0  0  0  0
   34.2800   43.0040   84.9190 C   0  0  0  0  0  0
   33.9770   41.7970   85.7540 N   0  0  2  0  0  0
   35.2490   41.0780   86.1080 C   0  0  0  0  0  0
   37.2360   42.7970   84.7960 C   0  0  0  0  0  0
   21.9979   35.5385   83.7758 H   0  0  0  0  0  0
   23.0179   33.9921   82.0596 H   0  0  0  0  0  0
   27.3814   35.1228   81.6020 H   0  0  0  0  0  0
   25.6392   36.9040   86.6411 H   0  0  0  0  0  0
   27.1335   38.5806   87.8197 H   0  0  0  0  0  0
   24.9049   41.9135   85.9452 H   0  0  0  0  0  0
   26.9055   38.4544   83.3961 H   0  0  0  0  0  0
   29.4165   35.0509   82.2946 H   0  0  0  0  0  0
   18.2632   35.4857   88.2271 H   0  0  0  0  0  0
   16.9293   37.6046   88.3700 H   0  0  0  0  0  0
   17.8842   39.8462   87.7913 H   0  0  0  0  0  0
   21.5747   40.1260   86.5895 H   0  0  0  0  0  0
   20.5171   41.0121   87.7399 H   0  0  0  0  0  0
   19.9896   40.7683   86.0401 H   0  0  0  0  0  0
   21.9317   35.6171   87.0176 H   0  0  0  0  0  0
   20.4678   34.6559   86.6181 H   0  0  0  0  0  0
   21.0072   34.8032   88.3251 H   0  0  0  0  0  0
   33.1414   34.8124   82.5232 H   0  0  0  0  0  0
   31.7070   34.9311   81.4485 H   0  0  0  0  0  0
   31.5341   34.2621   83.1066 H   0  0  0  0  0  0
   21.8794   41.7260   83.7179 H   0  0  0  0  0  0
   23.5404   42.2673   84.1357 H   0  0  0  0  0  0
   22.3427   41.9571   85.4380 H   0  0  0  0  0  0
   27.4412   42.8847   88.6132 H   0  0  0  0  0  0
   25.8465   42.1305   88.9522 H   0  0  0  0  0  0
   26.1178   43.0003   87.4041 H   0  0  0  0  0  0
   30.9034   39.4075   85.8391 H   0  0  0  0  0  0
   31.7146   37.8194   85.6235 H   0  0  0  0  0  0
   33.1904   39.5620   86.6428 H   0  0  0  0  0  0
   33.8113   38.9123   85.0875 H   0  0  0  0  0  0
   33.4150   40.8907   83.9425 H   0  0  0  0  0  0
   32.0560   41.3697   85.0151 H   0  0  0  0  0  0
   28.0303   41.9661   84.4072 H   0  0  0  0  0  0
   26.9107   40.5942   84.1055 H   0  0  0  0  0  0
   27.9464   41.2173   82.7766 H   0  0  0  0  0  0
   37.1923   41.4306   87.1003 H   0  0  0  0  0  0
   35.8144   42.2902   87.8677 H   0  0  0  0  0  0
   37.1677   43.8254   86.6729 H   0  0  0  0  0  0
   34.8122   44.3448   86.5807 H   0  0  0  0  0  0
   35.5696   44.7846   85.0124 H   0  0  0  0  0  0
   33.3450   43.5493   84.7229 H   0  0  0  0  0  0
   34.7222   42.6796   83.9655 H   0  0  0  0  0  0
   35.7198   40.7507   85.1693 H   0  0  0  0  0  0
   34.9785   40.1973   86.7091 H   0  0  0  0  0  0
   38.1458   42.2305   85.0439 H   0  0  0  0  0  0
   37.5099   43.7056   84.2398 H   0  0  0  0  0  0
   36.5733   42.1741   84.1773 H   0  0  0  0  0  0
  1  2  2  0  0  0
  1  6  1  0  0  0
  1  7  1  0  0  0
  2  3  1  0  0  0
  3  4  2  0  0  0
  3  9  1  0  0  0
  4  5  1  0  0  0
  4 51  1  0  0  0
  5  6  2  0  0  0
  5 52  1  0  0  0
  7  8  1  0  0  0
  7 53  1  0  0  0
  8 17  2  0  0  0
  8 21  1  0  0  0
  9 10  1  0  0  0
  9 12  1  0  0  0
 10 11  2  0  0  0
 10 13  1  0  0  0
 11 16  1  0  0  0
 11 35  1  0  0  0
 12 22  1  0  0  0
 12 33  2  0  0  0
 13 14  2  0  0  0
 13 54  1  0  0  0
 14 15  1  0  0  0
 14 55  1  0  0  0
 15 16  2  0  0  0
 15 34  1  0  0  0
 16 56  1  0  0  0
 17 18  1  0  0  0
 17 57  1  0  0  0
 18 19  2  0  0  0
 18 42  1  0  0  0
 19 20  1  0  0  0
 19 38  1  0  0  0
 20 21  2  0  0  0
 20 31  1  0  0  0
 21 58  1  0  0  0
 22 23  1  0  0  0
 23 24  2  0  0  0
 23 28  1  0  0  0
 24 25  1  0  0  0
 24 30  1  0  0  0
 25 26  2  0  0  0
 25 59  1  0  0  0
 26 27  1  0  0  0
 26 60  1  0  0  0
 27 28  2  0  0  0
 27 61  1  0  0  0
 28 29  1  0  0  0
 29 62  1  0  0  0
 29 63  1  0  0  0
 29 64  1  0  0  0
 30 65  1  0  0  0
 30 66  1  0  0  0
 30 67  1  0  0  0
 31 32  1  0  0  0
 32 68  1  0  0  0
 32 69  1  0  0  0
 32 70  1  0  0  0
 34 37  1  0  0  0
 35 36  1  0  0  0
 36 71  1  0  0  0
 36 72  1  0  0  0
 36 73  1  0  0  0
 37 74  1  0  0  0
 37 75  1  0  0  0
 37 76  1  0  0  0
 38 39  1  0  0  0
 39 40  1  0  0  0
 39 77  1  0  0  0
 39 78  1  0  0  0
 40 41  1  0  0  0
 40 79  1  0  0  0
 40 80  1  0  0  0
 41 48  1  0  0  0
 41 81  1  0  0  0
 41 82  1  0  0  0
 42 43  1  0  0  0
 43 83  1  0  0  0
 43 84  1  0  0  0
 43 85  1  0  0  0
 44 45  1  0  0  0
 44 49  1  0  0  0
 44 86  1  0  0  0
 44 87  1  0  0  0
 45 46  1  0  0  0
 45 50  1  0  0  0
 45 88  1  0  0  0
 46 47  1  0  0  0
 46 89  1  0  0  0
 46 90  1  0  0  0
 47 48  1  0  0  0
 47 91  1  0  0  0
 47 92  1  0  0  0
 48 49  1  0  0  0
 49 93  1  0  0  0
 49 94  1  0  0  0
 50 95  1  0  0  0
 50 96  1  0  0  0
 50 97  1  0  0  0
M  CHG  1  45   1
M  END
> <s_m_source_file>
../2ofu_ligand.sdf

> <i_m_source_file_index>
1

> <s_epik_input>
W0NIM11jMVtjSF1bY0hdW2NIXWMoW0NIM10pYzFPQyg9TylOKGMyYyhPW0NIM10pW2NIXWMoW2NIXVtjSF0yKU9bQ0gzXSljKFtjSF1bY0hdbjMpbmMzW05IXWM0W2NIXWMoT1tDSDNdKWMoYyhbY0hdNClPW0NIM10pT1tDSDJdW0NIMl1bQ0gyXVtOQEgrXShbQ0gyXVtDSDJdNSlbQ0gyXVtDSDJdW05ASCtdNVtDSDNd

> <s_epik_cmdline>
J2VwaWtfYXBwJywgJy1pbWFlJywgJ2xpZ2FuZF9wcm8ubWFlJywgJy1vbWFlJywgJ2xpZ2FuZF9wcmVwLm1hZScsICctbXMnLCAnMScsICctcGgnLCAnNycsICctcGh0JywgJzAuNScsICctbnQn

> <r_lp_tautomer_probability>
0.999999987636

> <r_epik_Ionization_Penalty>
  0.0282

> <r_epik_Ionization_Penalty_Charging>
  0.0271

> <r_epik_Ionization_Penalty_Neutral>
  0.0011

> <r_epik_State_Penalty>
  0.1132

> <r_epik_Charging_Adjusted_Penalty>
0.140367416854695

> <i_epik_Tot_Q>
1

> <i_epik_Tot_abs_Q>
1

$$$$
