2ofv_ligand
                    3D
 Schrodinger Suite 2020-3.
 48 51  0  0  1  0            999 V2000
   91.2450   36.8190   11.0020 C   0  0  0  0  0  0
   90.2700   37.6580   11.6540 C   0  0  0  0  0  0
   88.9470   37.0190   12.0420 C   0  0  0  0  0  0
   88.7440   35.6740   11.7450 N   0  0  0  0  0  0
   89.7140   34.9910   11.1190 C   0  0  0  0  0  0
   90.9290   35.5270   10.7620 N   0  0  0  0  0  0
   90.5240   39.0230   11.9540 C   0  0  0  0  0  0
   89.5080   39.7830   12.6050 C   0  0  0  0  0  0
   88.2060   39.1770   12.9860 C   0  0  0  0  0  0
   87.9130   37.8100   12.7140 C   0  0  0  0  0  0
   89.4720   33.7050   10.8560 N   0  0  0  0  0  0
   89.7660   41.2330   12.8950 C   0  0  0  0  0  0
   90.1210   41.5620   14.2370 C   0  0  0  0  0  0
   90.3780   42.9260   14.5800 C   0  0  0  0  0  0
   90.2820   43.9900   13.5870 C   0  0  0  0  0  0
   89.9210   43.6830   12.2380 C   0  0  0  0  0  0
   89.6730   42.3070   11.8760 C   0  0  0  0  0  0
   89.3160   42.0430   10.4030 C   0  0  0  0  0  0
   90.7220   43.1720   15.9830 C   0  0  0  0  0  0
   91.0530   42.2410   16.7470 O   0  0  0  0  0  0
   90.6970   44.4810   16.4100 N   0  0  0  0  0  0
   91.1260   44.9440   17.6410 C   0  0  0  0  0  0
   92.1470   44.2320   18.3910 C   0  0  0  0  0  0
   92.5790   44.6870   19.6600 C   0  0  0  0  0  0
   91.9870   45.9210   20.1890 C   0  0  0  0  0  0
   90.9540   46.6420   19.4680 C   0  0  0  0  0  0
   90.5480   46.1440   18.1960 C   0  0  0  0  0  0
   93.6790   43.8920   20.4060 C   0  0  0  0  0  0
   94.2000   44.6520   21.3330 F   0  0  0  0  0  0
   94.6300   43.5480   19.5760 F   0  0  0  0  0  0
   93.1440   42.7930   20.9220 F   0  0  0  0  0  0
   92.2160   37.2183   10.7090 H   0  0  0  0  0  0
   91.4777   39.4810   11.6915 H   0  0  0  0  0  0
   87.4578   39.7928   13.4852 H   0  0  0  0  0  0
   86.9564   37.3694   12.9949 H   0  0  0  0  0  0
   88.5057   33.2591   11.1343 H   0  0  0  0  0  0
   90.2388   33.0911   10.3609 H   0  0  0  0  0  0
   90.1956   40.7810   14.9936 H   0  0  0  0  0  0
   90.4859   45.0216   13.8740 H   0  0  0  0  0  0
   89.8343   44.4752   11.4943 H   0  0  0  0  0  0
   89.1513   40.9658   10.2530 H   0  0  0  0  0  0
   90.1417   42.3808    9.7594 H   0  0  0  0  0  0
   88.3998   42.5937   10.1434 H   0  0  0  0  0  0
   90.3091   45.2684   15.7471 H   0  0  0  0  0  0
   92.5889   43.3298   17.9681 H   0  0  0  0  0  0
   92.3320   46.3063   21.1485 H   0  0  0  0  0  0
   90.5011   47.5400   19.8881 H   0  0  0  0  0  0
   89.7856   46.6803   17.6310 H   0  0  0  0  0  0
  1  2  2  0  0  0
  1  6  1  0  0  0
  1 32  1  0  0  0
  2  3  1  0  0  0
  2  7  1  0  0  0
  3  4  2  0  0  0
  3 10  1  0  0  0
  4  5  1  0  0  0
  5  6  2  0  0  0
  5 11  1  0  0  0
  7  8  2  0  0  0
  7 33  1  0  0  0
  8  9  1  0  0  0
  8 12  1  0  0  0
  9 10  2  0  0  0
  9 34  1  0  0  0
 10 35  1  0  0  0
 11 36  1  0  0  0
 11 37  1  0  0  0
 12 13  2  0  0  0
 12 17  1  0  0  0
 13 14  1  0  0  0
 13 38  1  0  0  0
 14 15  2  0  0  0
 14 19  1  0  0  0
 15 16  1  0  0  0
 15 39  1  0  0  0
 16 17  2  0  0  0
 16 40  1  0  0  0
 17 18  1  0  0  0
 18 41  1  0  0  0
 18 42  1  0  0  0
 18 43  1  0  0  0
 19 20  2  0  0  0
 19 21  1  0  0  0
 21 22  1  0  0  0
 21 44  1  0  0  0
 22 23  2  0  0  0
 22 27  1  0  0  0
 23 24  1  0  0  0
 23 45  1  0  0  0
 24 25  2  0  0  0
 24 28  1  0  0  0
 25 26  1  0  0  0
 25 46  1  0  0  0
 26 27  2  0  0  0
 26 47  1  0  0  0
 27 48  1  0  0  0
 28 29  1  0  0  0
 28 30  1  0  0  0
 28 31  1  0  0  0
M  END
> <s_m_source_file>
../2ofv_ligand.sdf

> <i_m_source_file_index>
1

> <s_epik_input>
W2NIXTFuYyhbTkgyXSluYyhjMTIpW2NIXVtjSF1jKFtjSF0yKS1jM1tjSF1jKFtjSF1bY0hdYzNbQ0gzXSlDKD1PKVtOSF1jNFtjSF1jKEMoRikoRilGKVtjSF1bY0hdW2NIXTQ=

> <s_epik_cmdline>
J2VwaWtfYXBwJywgJy1pbWFlJywgJ2xpZ2FuZF9wcm8ubWFlJywgJy1vbWFlJywgJ2xpZ2FuZF9wcmVwLm1hZScsICctbXMnLCAnMScsICctcGgnLCAnNycsICctcGh0JywgJzAuNScsICctbnQn

> <r_lp_tautomer_probability>
1

> <r_epik_Ionization_Penalty>
  0.0021

> <r_epik_Ionization_Penalty_Charging>
  0.0000

> <r_epik_Ionization_Penalty_Neutral>
  0.0021

> <r_epik_State_Penalty>
 -0.0000

> <r_epik_Charging_Adjusted_Penalty>
0

> <i_epik_Tot_Q>
0

> <i_epik_Tot_abs_Q>
0

$$$$
