2og8_ligand
                    3D
 Schrodinger Suite 2020-3.
 73 76  0  0  1  0            999 V2000
    3.0170   26.6310   58.1430 C   0  0  0  0  0  0
    3.3950   27.6880   57.2440 C   0  0  0  0  0  0
    4.7990   27.8720   56.9700 C   0  0  0  0  0  0
    5.2680   28.8830   55.9860 C   0  0  0  0  0  0
    4.4430   29.9090   55.6550 N   0  0  0  0  0  0
    4.5500   30.6750   54.5550 C   0  0  0  0  0  0
    4.3920   32.0770   54.6920 C   0  0  0  0  0  0
    4.4850   33.0190   53.5830 C   0  0  0  0  0  0
    4.7510   32.4630   52.3020 C   0  0  0  0  0  0
    4.9150   31.0060   52.1520 C   0  0  0  0  0  0
    4.8130   30.1020   53.2920 C   0  0  0  0  0  0
    5.2010   30.3940   50.7400 C   0  0  0  0  0  0
    4.7940   29.1490   50.5580 F   0  0  0  0  0  0
    6.4700   30.4090   50.4520 F   0  0  0  0  0  0
    4.5570   31.0590   49.8280 F   0  0  0  0  0  0
    6.3640   28.8020   55.4640 O   0  0  0  0  0  0
    5.8100   27.0330   57.5850 C   0  0  0  0  0  0
    5.4580   25.9530   58.4940 C   0  0  0  0  0  0
    4.0610   25.7940   58.7340 C   0  0  0  0  0  0
    3.5590   24.7130   59.5990 C   0  0  0  0  0  0
    4.1440   32.4690   55.9700 N   0  0  0  0  0  0
    3.5140   33.6200   56.3390 C   0  0  0  0  0  0
    3.7760   34.0150   57.7810 C   0  0  0  0  0  0
    3.7970   35.4930   57.8910 N   0  3  0  0  0  0
    4.9520   35.9320   58.7010 C   0  0  0  0  0  0
    2.5630   36.0720   58.4440 C   0  0  0  0  0  0
    5.5420   37.1550   58.0270 C   0  0  0  0  0  0
    1.8260   35.1180   59.3770 C   0  0  0  0  0  0
    9.7900   21.4520   58.1900 N   0  0  0  0  0  0
    8.7190   22.1740   57.7860 C   0  0  0  0  0  0
    8.1960   23.2170   58.6010 C   0  0  0  0  0  0
    8.8840   23.4720   59.9240 C   0  0  0  0  0  0
    9.9810   22.6650   60.2400 N   0  0  0  0  0  0
   10.4070   21.6840   59.3830 C   0  0  0  0  0  0
    7.0850   24.0310   58.2200 C   0  0  0  0  0  0
    6.5720   25.1220   59.0530 C   0  0  0  0  0  0
    7.2320   25.3710   60.3500 C   0  0  0  0  0  0
    8.3800   24.5490   60.7780 C   0  0  0  0  0  0
   11.4400   20.8790   59.7030 N   0  0  0  0  0  0
   12.2420   21.0180   60.9180 C   0  0  0  0  0  0
    2.8020   34.2880   55.5870 O   0  0  0  0  0  0
    1.9677   26.4561   58.3806 H   0  0  0  0  0  0
    2.6438   28.3301   56.7840 H   0  0  0  0  0  0
    3.6016   30.1724   56.3128 H   0  0  0  0  0  0
    4.3574   34.0917   53.7283 H   0  0  0  0  0  0
    4.8336   33.1137   51.4314 H   0  0  0  0  0  0
    4.9351   29.0254   53.1733 H   0  0  0  0  0  0
    6.8607   27.2165   57.3602 H   0  0  0  0  0  0
    2.4616   24.7658   59.6523 H   0  0  0  0  0  0
    3.9810   24.8254   60.6086 H   0  0  0  0  0  0
    3.8595   23.7404   59.1821 H   0  0  0  0  0  0
    4.4608   31.8348   56.8111 H   0  0  0  0  0  0
    2.9793   33.6103   58.4225 H   0  0  0  0  0  0
    4.7467   33.6091   58.1018 H   0  0  0  0  0  0
    3.8792   35.8710   56.8613 H   0  0  0  0  0  0
    4.6138   36.1790   59.7181 H   0  0  0  0  0  0
    5.6955   35.1227   58.7483 H   0  0  0  0  0  0
    2.8081   36.9783   59.0172 H   0  0  0  0  0  0
    1.8794   36.3315   57.6222 H   0  0  0  0  0  0
    6.4076   37.5105   58.6052 H   0  0  0  0  0  0
    4.7824   37.9491   57.9783 H   0  0  0  0  0  0
    5.8641   36.8927   57.0084 H   0  0  0  0  0  0
    0.9161   35.6061   59.7564 H   0  0  0  0  0  0
    2.4794   34.8532   60.2214 H   0  0  0  0  0  0
    1.5507   34.2064   58.8264 H   0  0  0  0  0  0
    8.2519   21.9543   56.8260 H   0  0  0  0  0  0
    6.5968   23.8312   57.2661 H   0  0  0  0  0  0
    6.8679   26.1691   60.9970 H   0  0  0  0  0  0
    8.8570   24.7453   61.7383 H   0  0  0  0  0  0
   11.6662   20.0785   58.9833 H   0  0  0  0  0  0
   13.0177   20.2383   60.9365 H   0  0  0  0  0  0
   11.5932   20.9109   61.7998 H   0  0  0  0  0  0
   12.7183   22.0094   60.9315 H   0  0  0  0  0  0
  1  2  2  0  0  0
  1 19  1  0  0  0
  1 42  1  0  0  0
  2  3  1  0  0  0
  2 43  1  0  0  0
  3  4  1  0  0  0
  3 17  2  0  0  0
  4  5  1  0  0  0
  4 16  2  0  0  0
  5  6  1  0  0  0
  5 44  1  0  0  0
  6  7  2  0  0  0
  6 11  1  0  0  0
  7  8  1  0  0  0
  7 21  1  0  0  0
  8  9  2  0  0  0
  8 45  1  0  0  0
  9 10  1  0  0  0
  9 46  1  0  0  0
 10 11  2  0  0  0
 10 12  1  0  0  0
 11 47  1  0  0  0
 12 13  1  0  0  0
 12 14  1  0  0  0
 12 15  1  0  0  0
 17 18  1  0  0  0
 17 48  1  0  0  0
 18 19  2  0  0  0
 18 36  1  0  0  0
 19 20  1  0  0  0
 20 49  1  0  0  0
 20 50  1  0  0  0
 20 51  1  0  0  0
 21 22  1  0  0  0
 21 52  1  0  0  0
 22 23  1  0  0  0
 22 41  2  0  0  0
 23 24  1  0  0  0
 23 53  1  0  0  0
 23 54  1  0  0  0
 24 25  1  0  0  0
 24 26  1  0  0  0
 24 55  1  0  0  0
 25 27  1  0  0  0
 25 56  1  0  0  0
 25 57  1  0  0  0
 26 28  1  0  0  0
 26 58  1  0  0  0
 26 59  1  0  0  0
 27 60  1  0  0  0
 27 61  1  0  0  0
 27 62  1  0  0  0
 28 63  1  0  0  0
 28 64  1  0  0  0
 28 65  1  0  0  0
 29 30  2  0  0  0
 29 34  1  0  0  0
 30 31  1  0  0  0
 30 66  1  0  0  0
 31 32  2  0  0  0
 31 35  1  0  0  0
 32 33  1  0  0  0
 32 38  1  0  0  0
 33 34  2  0  0  0
 34 39  1  0  0  0
 35 36  2  0  0  0
 35 67  1  0  0  0
 36 37  1  0  0  0
 37 38  2  0  0  0
 37 68  1  0  0  0
 38 69  1  0  0  0
 39 40  1  0  0  0
 39 70  1  0  0  0
 40 71  1  0  0  0
 40 72  1  0  0  0
 40 73  1  0  0  0
M  CHG  1  24   1
M  END
> <s_m_source_file>
../2og8_ligand.sdf

> <i_m_source_file_index>
1

> <s_epik_input>
W2NIXTFuYyhbTkhdW0NIM10pbmMoYzEyKVtjSF1bY0hdYyhbY0hdMiktYyhbY0hdMyljKFtDSDNdKVtjSF1bY0hdYzNDKD1PKVtOSF1jNGMoW2NIXVtjSF1jKFtjSF00KUMoRikoRilGKVtOSF1DKD1PKVtDSDJdW05IK10oW0NIMl1bQ0gzXSlbQ0gyXVtDSDNd

> <s_epik_cmdline>
J2VwaWtfYXBwJywgJy1pbWFlJywgJ2xpZ2FuZF9wcm8ubWFlJywgJy1vbWFlJywgJ2xpZ2FuZF9wcmVwLm1hZScsICctbXMnLCAnMScsICctcGgnLCAnNycsICctcGh0JywgJzAuNScsICctbnQn

> <r_epik_Ionization_Penalty>
  0.0299

> <r_epik_Ionization_Penalty_Charging>
  0.0253

> <r_epik_Ionization_Penalty_Neutral>
  0.0046

> <r_epik_State_Penalty>
  0.0206

> <r_epik_Charging_Adjusted_Penalty>
0.0459148191520787

> <i_epik_Tot_Q>
1

> <i_epik_Tot_abs_Q>
1

$$$$
