2ogy_ligand
                    3D
 Schrodinger Suite 2020-3.
 56 58  0  0  1  0            999 V2000
   -9.2630   76.3060  121.3150 N   0  0  0  0  0  0
   -8.5850   77.3990  120.8580 C   0  0  0  0  0  0
   -8.1560   78.3200  121.7590 N   0  0  0  0  0  0
   -8.3300   77.5840  119.5250 N   0  0  0  0  0  0
   -8.7290   76.7050  118.5670 C   0  0  0  0  0  0
   -8.4730   76.9120  117.3720 O   0  0  0  0  0  0
   -9.4800   75.4800  118.9790 C   0  0  0  0  0  0
   -9.9450   74.4870  118.0270 N   0  0  0  0  0  0
  -10.1440   73.1320  118.6510 C   0  0  2  0  0  0
  -10.8860   73.1940  120.0340 C   0  0  0  0  0  0
  -10.3900   74.2530  120.9250 N   0  0  0  0  0  0
   -9.7230   75.3410  120.4630 C   0  0  0  0  0  0
   -8.7660   72.4400  118.8140 C   0  0  0  0  0  0
   -8.8650   70.9940  118.9260 N   0  0  0  0  0  0
  -11.1930   74.9590  117.3840 C   0  0  0  0  0  0
   -9.3870   68.2930  115.7430 C   0  0  0  0  0  0
   -9.5400   67.8750  117.0990 C   0  0  0  0  0  0
   -9.3600   68.7960  118.1530 C   0  0  0  0  0  0
   -9.0260   70.1440  117.8660 C   0  0  0  0  0  0
   -8.8730   70.5610  116.4930 C   0  0  0  0  0  0
   -9.0550   69.6380  115.4430 C   0  0  0  0  0  0
   -9.5810   67.2980  114.6400 C   0  0  0  0  0  0
   -8.7690   67.2500  113.7310 O   0  0  0  0  0  0
  -10.6590   66.5100  114.7260 N   0  0  0  0  0  0
  -11.1160   65.4600  113.8250 C   0  0  1  0  0  0
  -12.2900   64.6760  114.4480 C   0  0  0  0  0  0
  -12.1370   63.1840  114.1260 C   0  0  0  0  0  0
  -13.2850   62.3730  114.7310 C   0  0  0  0  0  0
  -14.4000   62.9700  114.7530 O   0  5  0  0  0  0
  -13.1350   61.2030  115.1710 O   0  0  0  0  0  0
  -11.4750   66.0330  112.4620 C   0  0  0  0  0  0
  -12.0830   67.1260  112.3980 O   0  5  0  0  0  0
  -11.1480   65.4050  111.4350 O   0  0  0  0  0  0
   -8.3580   78.1766  122.8307 H   0  0  0  0  0  0
   -7.6065   79.2095  121.4171 H   0  0  0  0  0  0
   -7.7798   78.4752  119.1888 H   0  0  0  0  0  0
  -10.7820   72.5781  117.9466 H   0  0  0  0  0  0
  -11.9570   73.3818  119.8674 H   0  0  0  0  0  0
  -10.7593   72.2370  120.5613 H   0  0  0  0  0  0
  -10.5548   74.1807  122.0102 H   0  0  0  0  0  0
   -8.1372   72.6646  117.9398 H   0  0  0  0  0  0
   -8.2742   72.8123  119.7248 H   0  0  0  0  0  0
   -8.8110   70.5139  119.9142 H   0  0  0  0  0  0
  -11.0229   75.9491  116.9360 H   0  0  0  0  0  0
  -11.9901   75.0301  118.1387 H   0  0  0  0  0  0
  -11.4929   74.2483  116.5998 H   0  0  0  0  0  0
   -9.7971   66.8394  117.3216 H   0  0  0  0  0  0
   -9.4776   68.4715  119.1869 H   0  0  0  0  0  0
   -8.6152   71.5956  116.2664 H   0  0  0  0  0  0
   -8.9411   69.9567  114.4069 H   0  0  0  0  0  0
  -11.2353   66.7460  115.6327 H   0  0  0  0  0  0
  -10.2545   64.7883  113.6961 H   0  0  0  0  0  0
  -12.2877   64.8177  115.5388 H   0  0  0  0  0  0
  -13.2391   65.0453  114.0323 H   0  0  0  0  0  0
  -12.1409   63.0420  113.0352 H   0  0  0  0  0  0
  -11.1872   62.8150  114.5404 H   0  0  0  0  0  0
  1  2  2  0  0  0
  1 12  1  0  0  0
  2  3  1  0  0  0
  2  4  1  0  0  0
  3 34  1  0  0  0
  3 35  1  0  0  0
  4  5  1  0  0  0
  4 36  1  0  0  0
  5  6  2  0  0  0
  5  7  1  0  0  0
  7  8  1  0  0  0
  7 12  2  0  0  0
  8  9  1  0  0  0
  8 15  1  0  0  0
  9 10  1  0  0  0
  9 13  1  0  0  0
  9 37  1  0  0  0
 10 11  1  0  0  0
 10 38  1  0  0  0
 10 39  1  0  0  0
 11 12  1  0  0  0
 11 40  1  0  0  0
 13 14  1  0  0  0
 13 41  1  0  0  0
 13 42  1  0  0  0
 14 19  1  0  0  0
 14 43  1  0  0  0
 15 44  1  0  0  0
 15 45  1  0  0  0
 15 46  1  0  0  0
 16 17  2  0  0  0
 16 21  1  0  0  0
 16 22  1  0  0  0
 17 18  1  0  0  0
 17 47  1  0  0  0
 18 19  2  0  0  0
 18 48  1  0  0  0
 19 20  1  0  0  0
 20 21  2  0  0  0
 20 49  1  0  0  0
 21 50  1  0  0  0
 22 23  2  0  0  0
 22 24  1  0  0  0
 24 25  1  0  0  0
 24 51  1  0  0  0
 25 26  1  0  0  0
 25 31  1  0  0  0
 25 52  1  0  0  0
 26 27  1  0  0  0
 26 53  1  0  0  0
 26 54  1  0  0  0
 27 28  1  0  0  0
 27 55  1  0  0  0
 27 56  1  0  0  0
 28 29  1  0  0  0
 28 30  2  0  0  0
 31 32  1  0  0  0
 31 33  2  0  0  0
M  CHG  2  29  -1  32  -1
M  END
> <s_m_source_file>
../2ogy_ligand.sdf

> <i_m_source_file_index>
1

> <s_epik_input>
Tz1jMVtuSF1jKFtOSDJdKW5jKGMxMilbTkhdW0NIMl1bQ0BASF0oTjJbQ0gzXSlbQ0gyXVtOSF1jKFtjSF1bY0hdMylbY0hdW2NIXWMzQyg9TylbTkhdW0NASF0oQyg9TylbT0hdKVtDSDJdW0NIMl1DKD1PKVtPSF0=

> <s_epik_cmdline>
J2VwaWtfYXBwJywgJy1pbWFlJywgJ2xpZ2FuZF9wcm8ubWFlJywgJy1vbWFlJywgJ2xpZ2FuZF9wcmVwLm1hZScsICctbXMnLCAnMScsICctcGgnLCAnNycsICctcGh0JywgJzAuNScsICctbnQn

> <r_lp_tautomer_probability>
1

> <r_epik_Ionization_Penalty>
  0.0084

> <r_epik_Ionization_Penalty_Charging>
  0.0043

> <r_epik_Ionization_Penalty_Neutral>
  0.0041

> <r_epik_State_Penalty>
 -0.0000

> <r_epik_Charging_Adjusted_Penalty>
0.0043422510805335

> <i_epik_Tot_Q>
-2

> <i_epik_Tot_abs_Q>
2

$$$$
