2ogz_ligand
                    3D
 Schrodinger Suite 2020-3.
 45 46  0  0  1  0            999 V2000
   34.2130   52.6560   94.4520 C   0  0  0  0  0  0
   34.1970   53.5420   95.5800 C   0  0  0  0  0  0
   35.4170   54.1410   96.0020 C   0  0  0  0  0  0
   36.6450   53.8670   95.3240 C   0  0  0  0  0  0
   36.6460   52.9900   94.2130 C   0  0  0  0  0  0
   35.4460   52.3890   93.7790 C   0  0  0  0  0  0
   37.9420   54.4870   95.7580 C   0  0  0  0  0  0
   37.8530   55.9950   95.9480 C   0  0  0  0  0  0
   37.8050   56.8150   94.6430 C   0  0  1  0  0  0
   38.4450   58.1650   94.9440 C   0  0  0  0  0  0
   38.5370   56.1390   93.5360 N   0  0  1  0  0  0
   38.1230   56.5430   92.1780 C   0  0  0  0  0  0
   36.7270   56.0100   91.7850 C   0  0  0  0  0  0
   35.6870   56.5530   92.1200 O   0  0  0  0  0  0
   36.5970   54.7540   90.9250 C   0  0  0  0  0  0
   37.5710   53.6990   90.9160 C   0  0  0  0  0  0
   37.3870   52.5590   90.0940 C   0  0  0  0  0  0
   36.2390   52.4710   89.2750 C   0  0  0  0  0  0
   36.0780   51.4110   88.5040 F   0  0  0  0  0  0
   35.2610   53.4920   89.2640 C   0  0  0  0  0  0
   35.4420   54.6290   90.0850 C   0  0  0  0  0  0
   33.0140   51.9660   93.9350 C   0  0  0  0  0  0
   31.7430   52.1500   94.5410 N   0  0  0  0  0  0
   33.0390   51.2110   92.9880 O   0  0  0  0  0  0
   33.2656   53.7530   96.1054 H   0  0  0  0  0  0
   35.4149   54.8191   96.8554 H   0  0  0  0  0  0
   37.5787   52.7780   93.6902 H   0  0  0  0  0  0
   35.4587   51.7148   92.9226 H   0  0  0  0  0  0
   38.2545   54.0495   96.7176 H   0  0  0  0  0  0
   38.7134   54.2932   94.9982 H   0  0  0  0  0  0
   36.9386   56.2407   96.5080 H   0  0  0  0  0  0
   38.7318   56.3465   96.5085 H   0  0  0  0  0  0
   36.7721   56.9212   94.2800 H   0  0  0  0  0  0
   37.8977   58.6559   95.7622 H   0  0  0  0  0  0
   38.4059   58.7979   94.0451 H   0  0  0  0  0  0
   39.4933   58.0155   95.2419 H   0  0  0  0  0  0
   39.6113   56.3610   93.6175 H   0  0  0  0  0  0
   38.0895   57.6408   92.1163 H   0  0  0  0  0  0
   38.8455   56.1564   91.4442 H   0  0  0  0  0  0
   38.4577   53.7753   91.5454 H   0  0  0  0  0  0
   38.1250   51.7569   90.0937 H   0  0  0  0  0  0
   34.3784   53.4038   88.6305 H   0  0  0  0  0  0
   34.6932   55.4211   90.0791 H   0  0  0  0  0  0
   31.6383   52.8206   95.4066 H   0  0  0  0  0  0
   30.8631   51.6219   94.1448 H   0  0  0  0  0  0
  1  2  2  0  0  0
  1  6  1  0  0  0
  1 22  1  0  0  0
  2  3  1  0  0  0
  2 25  1  0  0  0
  3  4  2  0  0  0
  3 26  1  0  0  0
  4  5  1  0  0  0
  4  7  1  0  0  0
  5  6  2  0  0  0
  5 27  1  0  0  0
  6 28  1  0  0  0
  7  8  1  0  0  0
  7 29  1  0  0  0
  7 30  1  0  0  0
  8  9  1  0  0  0
  8 31  1  0  0  0
  8 32  1  0  0  0
  9 10  1  0  0  0
  9 11  1  0  0  0
  9 33  1  0  0  0
 10 34  1  0  0  0
 10 35  1  0  0  0
 10 36  1  0  0  0
 11 12  1  0  0  0
 11 37  1  0  0  0
 12 13  1  0  0  0
 12 38  1  0  0  0
 12 39  1  0  0  0
 13 14  2  0  0  0
 13 15  1  0  0  0
 15 16  2  0  0  0
 15 21  1  0  0  0
 16 17  1  0  0  0
 16 40  1  0  0  0
 17 18  2  0  0  0
 17 41  1  0  0  0
 18 19  1  0  0  0
 18 20  1  0  0  0
 20 21  2  0  0  0
 20 42  1  0  0  0
 21 43  1  0  0  0
 22 23  1  0  0  0
 22 24  2  0  0  0
 23 44  1  0  0  0
 23 45  1  0  0  0
M  END
> <s_m_source_file>
../2ogz_ligand.sdf

> <i_m_source_file_index>
1

> <s_epik_input>
W05IMl1DKD1PKWMxW2NIXVtjSF1jKFtjSF1bY0hdMSlbQ0gyXVtDSDJdW0NAQEhdKFtDSDNdKVtOSDIrXVtDSDJdQyg9TyljMltjSF1bY0hdYyhGKVtjSF1bY0hdMg==

> <s_epik_cmdline>
J2VwaWtfYXBwJywgJy1pbWFlJywgJ2xpZ2FuZF9wcm8ubWFlJywgJy1vbWFlJywgJ2xpZ2FuZF9wcmVwLm1hZScsICctbXMnLCAnMScsICctcGgnLCAnNycsICctcGh0JywgJzAuNScsICctbnQn

> <r_lp_tautomer_probability>
0.99990000499975

> <r_epik_Ionization_Penalty>
  0.3509

> <r_epik_Ionization_Penalty_Charging>
  0.0000

> <r_epik_Ionization_Penalty_Neutral>
  0.3509

> <r_epik_State_Penalty>
  0.3471

> <r_epik_Charging_Adjusted_Penalty>
0.347095874918178

> <i_epik_Tot_Q>
0

> <i_epik_Tot_abs_Q>
0

$$$$
