2oh0_ligand
                    3D
 Schrodinger Suite 2020-3.
 49 53  0  0  1  0            999 V2000
    3.3250   10.2010    4.8580 N   0  0  0  0  0  0
    9.5060   10.5300   -0.9050 N   0  0  0  0  0  0
    4.0270   10.0650    2.7230 C   0  0  0  0  0  0
    4.2100    9.9710    1.3510 C   0  0  0  0  0  0
    5.5260    9.9600    0.8100 C   0  0  0  0  0  0
    4.6670   10.2380    4.9680 C   0  0  0  0  0  0
   13.4490   13.5440    0.2790 C   0  0  0  0  0  0
   14.1020   11.0450    1.4890 C   0  0  0  0  0  0
   12.8190   13.1790    1.5080 C   0  0  0  0  0  0
   14.6510    9.7490    1.8010 C   0  0  0  0  0  0
    8.0730   10.0080    1.0060 C   0  0  0  0  0  0
    9.1970    9.4240    1.6440 C   0  0  0  0  0  0
   10.4730    9.3980    0.9970 C   0  0  0  0  0  0
   11.8040    8.2200    2.7230 C   0  0  0  0  0  0
    6.6950   10.0440    1.6390 C   0  0  3  0  0  0
    6.4860   10.1420    3.0590 C   0  0  0  0  0  0
    5.1800   10.1540    3.6060 C   0  0  0  0  0  0
    2.9580   10.1020    3.5760 N   0  0  0  0  0  0
   14.4000   12.6690   -0.3400 C   0  0  0  0  0  0
   14.7040   11.4490    0.2720 C   0  0  0  0  0  0
   13.1290   11.9370    2.1310 C   0  0  0  0  0  0
   15.5800   10.4480   -0.1330 N   0  0  0  0  0  0
   15.5430    9.4320    0.7880 C   0  0  0  0  0  0
   10.5650    9.9710   -0.2860 C   0  0  0  0  0  0
    8.2920   10.5480   -0.2800 C   0  0  0  0  0  0
   11.6750    8.8550    1.4630 O   0  0  0  0  0  0
   13.2770    7.7430    2.7970 C   0  0  2  0  0  0
   14.3050    8.8880    3.0220 C   0  0  0  0  0  0
   13.5810    7.0080    1.5440 N   0  3  0  0  0  0
    3.3396    9.9050    0.6816 H   0  0  0  0  0  0
    5.6730    9.8852   -0.2776 H   0  0  0  0  0  0
    5.1355   10.3176    5.9600 H   0  0  0  0  0  0
   13.2054   14.5037   -0.2001 H   0  0  0  0  0  0
   12.0916   13.8585    1.9762 H   0  0  0  0  0  0
    9.0876    8.9903    2.6380 H   0  0  0  0  0  0
   11.5742    8.9404    3.5219 H   0  0  0  0  0  0
   11.1040    7.3734    2.7803 H   0  0  0  0  0  0
    7.3608   10.2082    3.7225 H   0  0  0  0  0  0
   14.8890   12.9471   -1.2853 H   0  0  0  0  0  0
   12.6518   11.6532    3.0690 H   0  0  0  0  0  0
   16.1703    8.5393    0.6477 H   0  0  0  0  0  0
   11.5276    9.9622   -0.7972 H   0  0  0  0  0  0
    7.4490   11.0025   -0.8005 H   0  0  0  0  0  0
   13.3861    7.0567    3.6497 H   0  0  0  0  0  0
   15.2173    8.4021    3.3984 H   0  0  0  0  0  0
   13.8768    9.5247    3.8102 H   0  0  0  0  0  0
   12.8441    6.2036    1.4028 H   0  0  0  0  0  0
   14.5897    6.5740    1.6090 H   0  0  0  0  0  0
   13.5345    7.7017    0.6915 H   0  0  0  0  0  0
  1  6  2  0  0  0
  1 18  1  0  0  0
  2 24  2  0  0  0
  2 25  1  0  0  0
  3  4  1  0  0  0
  3 17  1  0  0  0
  3 18  2  0  0  0
  4  5  2  0  0  0
  4 30  1  0  0  0
  5 15  1  0  0  0
  5 31  1  0  0  0
  6 17  1  0  0  0
  6 32  1  0  0  0
  7  9  2  0  0  0
  7 19  1  0  0  0
  7 33  1  0  0  0
  8 10  2  0  0  0
  8 20  1  0  0  0
  8 21  1  0  0  0
  9 21  1  0  0  0
  9 34  1  0  0  0
 10 23  1  0  0  0
 10 28  1  0  0  0
 11 12  1  0  0  0
 11 15  1  0  0  0
 11 25  2  0  0  0
 12 13  2  0  0  0
 12 35  1  0  0  0
 13 24  1  0  0  0
 13 26  1  0  0  0
 14 26  1  0  0  0
 14 27  1  0  0  0
 14 36  1  0  0  0
 14 37  1  0  0  0
 15 16  1  0  0  0
 16 17  2  0  0  0
 16 38  1  0  0  0
 19 20  2  0  0  0
 19 39  1  0  0  0
 20 22  1  0  0  0
 21 40  1  0  0  0
 22 23  2  0  0  0
 23 41  1  0  0  0
 24 42  1  0  0  0
 25 43  1  0  0  0
 27 28  1  0  0  0
 27 29  1  0  0  0
 27 44  1  0  0  0
 28 45  1  0  0  0
 28 46  1  0  0  0
 29 47  1  0  0  0
 29 48  1  0  0  0
 29 49  1  0  0  0
M  CHG  1  29   1
M  END
> <s_m_source_file>
../2oh0_ligand.sdf

> <i_m_source_file_index>
1

> <s_epik_input>
TjFOPVtDSF1DKEM9MTIpPVtDSF1bQ0hdKFtDSF09W0NIXTIpYzNbY0hdYyhbY0hdbltjSF0zKU9bQ0gyXVtDQEBIXShbTkgzK10pW0NIMl1DNFtDSF09TkMoQz00NSk9W0NIXVtDSF09W0NIXVtDSDJdNQ==

> <s_epik_cmdline>
J2VwaWtfYXBwJywgJy1pbWFlJywgJ2xpZ2FuZF9wcm8ubWFlJywgJy1vbWFlJywgJ2xpZ2FuZF9wcmVwLm1hZScsICctbXMnLCAnMScsICctcGgnLCAnNycsICctcGh0JywgJzAuNScsICctbnQn

> <r_epik_Ionization_Penalty>
  0.2063

> <r_epik_Ionization_Penalty_Charging>
  0.2063

> <r_epik_Ionization_Penalty_Neutral>
  0.0000

> <r_epik_State_Penalty>
  0.1963

> <r_epik_Charging_Adjusted_Penalty>
0.402662001335534

> <i_epik_Tot_Q>
1

> <i_epik_Tot_abs_Q>
1

> <s_epik_Chemistry_Notes>
This compound has an imine and may undergo hydrolysis.

$$$$
