2ohm_ligand
                    3D
 Schrodinger Suite 2020-3.
 29 30  0  0  1  0            999 V2000
   65.6880   48.6310    6.2310 N   0  0  0  0  0  0
   66.2870   47.8660    7.2320 C   0  0  0  0  0  0
   66.0580   46.5570    7.2700 N   0  3  0  0  0  0
   66.5910   45.7550    8.1840 C   0  0  0  0  0  0
   67.4340   46.2650    9.1590 C   0  0  0  0  0  0
   67.7060   47.6270    9.1660 C   0  0  0  0  0  0
   67.1160   48.4480    8.2020 C   0  0  0  0  0  0
   67.3950   49.8210    8.1900 N   0  0  0  0  0  0
   68.5800   50.3200    8.9060 C   0  0  0  0  0  0
   69.8690   49.8130    8.2810 C   0  0  0  0  0  0
   69.8650   49.0380    7.1180 C   0  0  0  0  0  0
   71.0520   48.5880    6.5590 C   0  0  0  0  0  0
   72.2570   48.9160    7.1620 C   0  0  0  0  0  0
   72.2660   49.6880    8.3180 C   0  0  0  0  0  0
   71.0770   50.1340    8.8800 C   0  0  0  0  0  0
   65.0421   48.1488    5.4825 H   0  0  0  0  0  0
   65.8616   49.7165    6.1902 H   0  0  0  0  0  0
   66.3643   44.6890    8.1676 H   0  0  0  0  0  0
   67.8762   45.6080    9.9079 H   0  0  0  0  0  0
   68.3733   48.0511    9.9163 H   0  0  0  0  0  0
   66.7402   50.5235    7.6536 H   0  0  0  0  0  0
   68.5901   51.4196    8.8766 H   0  0  0  0  0  0
   68.5459   49.9815    9.9521 H   0  0  0  0  0  0
   68.9169   48.7839    6.6441 H   0  0  0  0  0  0
   71.0378   47.9816    5.6533 H   0  0  0  0  0  0
   73.1957   48.5690    6.7301 H   0  0  0  0  0  0
   73.2152   49.9457    8.7877 H   0  0  0  0  0  0
   71.0937   50.7347    9.7894 H   0  0  0  0  0  0
   65.4003   46.0917    6.5211 H   0  0  0  0  0  0
  1  2  1  0  0  0
  1 16  1  0  0  0
  1 17  1  0  0  0
  2  3  2  0  0  0
  2  7  1  0  0  0
  3  4  1  0  0  0
  3 29  1  0  0  0
  4  5  2  0  0  0
  4 18  1  0  0  0
  5  6  1  0  0  0
  5 19  1  0  0  0
  6  7  2  0  0  0
  6 20  1  0  0  0
  7  8  1  0  0  0
  8  9  1  0  0  0
  8 21  1  0  0  0
  9 10  1  0  0  0
  9 22  1  0  0  0
  9 23  1  0  0  0
 10 11  2  0  0  0
 10 15  1  0  0  0
 11 12  1  0  0  0
 11 24  1  0  0  0
 12 13  2  0  0  0
 12 25  1  0  0  0
 13 14  1  0  0  0
 13 26  1  0  0  0
 14 15  2  0  0  0
 14 27  1  0  0  0
 15 28  1  0  0  0
M  CHG  1   3   1
M  END
> <s_m_source_file>
../2ohm_ligand.sdf

> <i_m_source_file_index>
1

> <s_epik_input>
W05IMl1jMW5bY0hdW2NIXVtjSF1jMVtOSF1bQ0gyXWMyW2NIXVtjSF1bY0hdW2NIXVtjSF0y

> <s_epik_cmdline>
J2VwaWtfYXBwJywgJy1pbWFlJywgJ2xpZ2FuZF9wcm8ubWFlJywgJy1vbWFlJywgJ2xpZ2FuZF9wcmVwLm1hZScsICctbXMnLCAnMScsICctcGgnLCAnNycsICctcGh0JywgJzAuNScsICctbnQn

> <r_epik_Ionization_Penalty>
  0.0795

> <r_epik_Ionization_Penalty_Charging>
  0.0795

> <r_epik_Ionization_Penalty_Neutral>
  0.0000

> <r_epik_State_Penalty>
  0.0704

> <r_epik_Charging_Adjusted_Penalty>
0.149863349736826

> <i_epik_Tot_Q>
1

> <i_epik_Tot_abs_Q>
1

$$$$
