2ohp_ligand
                    3D
 Schrodinger Suite 2020-3.
 34 36  0  0  1  0            999 V2000
   65.9590   48.6240    6.1440 N   0  0  0  0  0  0
   66.8150   48.4670    7.1260 C   0  0  0  0  0  0
   66.7820   47.3350    7.9340 C   0  0  0  0  0  0
   67.6920   47.1950    8.9600 C   0  0  0  0  0  0
   68.6210   48.1910    9.1960 C   0  0  0  0  0  0
   68.6360   49.3310    8.4000 C   0  0  0  0  0  0
   69.6430   50.4290    8.6230 C   0  0  0  0  0  0
   70.4360   50.7520    7.3720 C   0  0  0  0  0  0
   71.3270   49.6250    6.9150 C   0  0  0  0  0  0
   72.3880   49.2050    7.7140 C   0  0  0  0  0  0
   73.2320   48.1870    7.3060 C   0  0  0  0  0  0
   73.0220   47.5880    6.0700 C   0  0  0  0  0  0
   73.6720   46.5570    5.3590 C   0  0  0  0  0  0
   73.0020   46.3900    4.1450 C   0  0  0  0  0  0
   71.9850   47.2750    4.0950 N   0  3  0  0  0  0
   71.9680   48.0130    5.2590 C   0  0  0  0  0  0
   71.1180   49.0320    5.6730 C   0  0  0  0  0  0
   67.7260   49.4530    7.3860 N   0  3  0  0  0  0
   65.2218   47.8373    5.9260 H   0  0  0  0  0  0
   66.0372   46.5593    7.7560 H   0  0  0  0  0  0
   67.6790   46.3011    9.5836 H   0  0  0  0  0  0
   69.3420   48.0827   10.0063 H   0  0  0  0  0  0
   69.1227   51.3448    8.9401 H   0  0  0  0  0  0
   70.3535   50.1217    9.4045 H   0  0  0  0  0  0
   69.7440   50.9787    6.5476 H   0  0  0  0  0  0
   71.0796   51.6239    7.5607 H   0  0  0  0  0  0
   72.5564   49.6865    8.6773 H   0  0  0  0  0  0
   74.0511   47.8592    7.9461 H   0  0  0  0  0  0
   74.5426   45.9284    5.5977 H   0  0  0  0  0  0
   73.3430   45.6278    3.4289 H   0  0  0  0  0  0
   70.2991   49.3622    5.0339 H   0  0  0  0  0  0
   67.7368   50.3671    6.7742 H   0  0  0  0  0  0
   71.3324   47.3135    3.2103 H   0  0  0  0  0  0
   65.9786   49.5423    5.5388 H   0  0  0  0  0  0
  1  2  1  0  0  0
  1 19  1  0  0  0
  1 34  1  0  0  0
  2  3  1  0  0  0
  2 18  2  0  0  0
  3  4  2  0  0  0
  3 20  1  0  0  0
  4  5  1  0  0  0
  4 21  1  0  0  0
  5  6  2  0  0  0
  5 22  1  0  0  0
  6  7  1  0  0  0
  6 18  1  0  0  0
  7  8  1  0  0  0
  7 23  1  0  0  0
  7 24  1  0  0  0
  8  9  1  0  0  0
  8 25  1  0  0  0
  8 26  1  0  0  0
  9 10  2  0  0  0
  9 17  1  0  0  0
 10 11  1  0  0  0
 10 27  1  0  0  0
 11 12  2  0  0  0
 11 28  1  0  0  0
 12 13  1  0  0  0
 12 16  1  0  0  0
 13 14  2  0  0  0
 13 29  1  0  0  0
 14 15  1  0  0  0
 14 30  1  0  0  0
 15 16  1  0  0  0
 15 33  1  0  0  0
 16 17  2  0  0  0
 17 31  1  0  0  0
 18 32  1  0  0  0
M  CHG  2  15   1  18   1
M  END
> <s_m_source_file>
../2ohp_ligand.sdf

> <i_m_source_file_index>
1

> <s_epik_input>
W0hdL049YzEvW2NIXVtjSF1bY0hdYyhbbkhdMSlbQ0gyXVtDSDJdYyhbY0hdW2NIXTIpW2NIXWMoYzIzKVtuSF1bY0hdW2NIXTM=

> <s_epik_cmdline>
J2VwaWtfYXBwJywgJy1pbWFlJywgJ2xpZ2FuZF9wcm8ubWFlJywgJy1vbWFlJywgJ2xpZ2FuZF9wcmVwLm1hZScsICctbXMnLCAnMScsICctcGgnLCAnNycsICctcGh0JywgJzAuNScsICctbnQn

> <r_epik_Ionization_Penalty>
  0.0845

> <r_epik_Ionization_Penalty_Charging>
  0.0845

> <r_epik_Ionization_Penalty_Neutral>
  0.0000

> <r_epik_State_Penalty>
  0.0751

> <r_epik_Charging_Adjusted_Penalty>
0.159663377056332

> <i_epik_Tot_Q>
2

> <i_epik_Tot_abs_Q>
2

$$$$
