2ohq_ligand
                    3D
 Schrodinger Suite 2020-3.
 44 46  0  0  1  0            999 V2000
   71.0690   45.9020    1.0960 C   0  0  0  0  0  0
   71.0940   46.8910    2.1280 O   0  0  0  0  0  0
   71.8850   46.6510    3.2260 C   0  0  0  0  0  0
   72.7200   45.5530    3.3820 C   0  0  0  0  0  0
   73.4540   45.3940    4.5370 C   0  0  0  0  0  0
   73.3650   46.3230    5.5500 C   0  0  0  0  0  0
   72.5290   47.4280    5.4290 C   0  0  0  0  0  0
   71.7940   47.5810    4.2550 C   0  0  0  0  0  0
   72.4280   48.4190    6.5390 C   0  0  0  0  0  0
   73.4330   48.5070    7.4990 C   0  0  0  0  0  0
   73.3380   49.4120    8.5370 C   0  0  0  0  0  0
   72.2420   50.2400    8.6340 C   0  0  0  0  0  0
   71.2180   50.1660    7.7010 C   0  0  0  0  0  0
   70.0300   51.0860    7.8080 C   0  0  0  0  0  0
   69.1150   50.7320    8.9620 C   0  0  0  0  0  0
   68.2920   49.5100    8.6570 C   0  0  0  0  0  0
   68.3930   48.3490    9.4150 C   0  0  0  0  0  0
   67.6270   47.2480    9.0880 C   0  0  0  0  0  0
   66.7710   47.3060    8.0070 C   0  0  0  0  0  0
   66.6880   48.4690    7.2470 C   0  0  0  0  0  0
   65.8930   48.5460    6.1790 N   0  0  0  0  0  0
   67.4430   49.5480    7.5900 N   0  3  0  0  0  0
   71.3160   49.2510    6.6590 C   0  0  0  0  0  0
   70.3975   46.2309    0.2892 H   0  0  0  0  0  0
   70.7061   44.9495    1.5097 H   0  0  0  0  0  0
   72.0841   45.7646    0.6951 H   0  0  0  0  0  0
   72.7954   44.8123    2.5859 H   0  0  0  0  0  0
   74.1080   44.5293    4.6496 H   0  0  0  0  0  0
   73.9561   46.1908    6.4562 H   0  0  0  0  0  0
   71.1373   48.4436    4.1419 H   0  0  0  0  0  0
   74.3035   47.8546    7.4301 H   0  0  0  0  0  0
   74.1321   49.4713    9.2813 H   0  0  0  0  0  0
   72.1785   50.9594    9.4504 H   0  0  0  0  0  0
   70.3782   52.1183    7.9600 H   0  0  0  0  0  0
   69.4391   51.0310    6.8818 H   0  0  0  0  0  0
   69.7181   50.5308    9.8597 H   0  0  0  0  0  0
   68.4323   51.5716    9.1595 H   0  0  0  0  0  0
   69.0746   48.3081   10.2646 H   0  0  0  0  0  0
   67.6980   46.3364    9.6813 H   0  0  0  0  0  0
   66.1600   46.4411    7.7485 H   0  0  0  0  0  0
   65.2766   47.6824    5.8888 H   0  0  0  0  0  0
   67.3583   50.4640    6.9869 H   0  0  0  0  0  0
   70.5123   49.1832    5.9258 H   0  0  0  0  0  0
   65.8537   49.4731    5.5883 H   0  0  0  0  0  0
  1  2  1  0  0  0
  1 24  1  0  0  0
  1 25  1  0  0  0
  1 26  1  0  0  0
  2  3  1  0  0  0
  3  4  2  0  0  0
  3  8  1  0  0  0
  4  5  1  0  0  0
  4 27  1  0  0  0
  5  6  2  0  0  0
  5 28  1  0  0  0
  6  7  1  0  0  0
  6 29  1  0  0  0
  7  8  2  0  0  0
  7  9  1  0  0  0
  8 30  1  0  0  0
  9 10  2  0  0  0
  9 23  1  0  0  0
 10 11  1  0  0  0
 10 31  1  0  0  0
 11 12  2  0  0  0
 11 32  1  0  0  0
 12 13  1  0  0  0
 12 33  1  0  0  0
 13 14  1  0  0  0
 13 23  2  0  0  0
 14 15  1  0  0  0
 14 34  1  0  0  0
 14 35  1  0  0  0
 15 16  1  0  0  0
 15 36  1  0  0  0
 15 37  1  0  0  0
 16 17  2  0  0  0
 16 22  1  0  0  0
 17 18  1  0  0  0
 17 38  1  0  0  0
 18 19  2  0  0  0
 18 39  1  0  0  0
 19 20  1  0  0  0
 19 40  1  0  0  0
 20 21  1  0  0  0
 20 22  2  0  0  0
 21 41  1  0  0  0
 21 44  1  0  0  0
 22 42  1  0  0  0
 23 43  1  0  0  0
M  CHG  1  22   1
M  END
> <s_m_source_file>
../2ohq_ligand.sdf

> <i_m_source_file_index>
1

> <s_epik_input>
W0NIM11PYzFbY0hdW2NIXVtjSF1jKFtjSF0xKS1jMltjSF1bY0hdW2NIXWMoW2NIXTIpW0NIMl1bQ0gyXWMzW2NIXVtjSF1bY0hdL2MoPU5cW0hdKVtuSF0z

> <s_epik_cmdline>
J2VwaWtfYXBwJywgJy1pbWFlJywgJ2xpZ2FuZF9wcm8ubWFlJywgJy1vbWFlJywgJ2xpZ2FuZF9wcmVwLm1hZScsICctbXMnLCAnMScsICctcGgnLCAnNycsICctcGh0JywgJzAuNScsICctbnQn

> <r_lp_tautomer_probability>
0.999993852037798

> <r_epik_Ionization_Penalty>
  0.0845

> <r_epik_Ionization_Penalty_Charging>
  0.0845

> <r_epik_Ionization_Penalty_Neutral>
  0.0000

> <r_epik_State_Penalty>
  0.0751

> <r_epik_Charging_Adjusted_Penalty>
0.159663377056334

> <i_epik_Tot_Q>
1

> <i_epik_Tot_abs_Q>
1

$$$$
