2ohs_ligand
                    3D
 Schrodinger Suite 2020-3.
 42 44  0  0  1  0            999 V2000
   70.3460   45.2650    1.6510 C   0  0  0  0  0  0
   70.3220   46.3010    2.6470 O   0  0  0  0  0  0
   71.1190   46.1400    3.7510 C   0  0  0  0  0  0
   72.1610   45.2300    3.8810 C   0  0  0  0  0  0
   72.8980   45.1020    4.9860 N   0  0  0  0  0  0
   72.5730   45.8770    6.0270 C   0  0  0  0  0  0
   71.5480   46.8230    6.0100 C   0  0  0  0  0  0
   70.7990   46.9310    4.8460 C   0  0  0  0  0  0
   71.2270   47.6230    7.2260 C   0  0  0  0  0  0
   72.2370   47.9840    8.1090 C   0  0  0  0  0  0
   71.9460   48.6710    9.2660 C   0  0  0  0  0  0
   70.6400   48.9970    9.5730 C   0  0  0  0  0  0
   69.6010   48.6310    8.7300 C   0  0  0  0  0  0
   68.1810   48.9910    9.0970 C   0  0  0  0  0  0
   67.1400   48.4090    8.2530 N   0  0  0  0  0  0
   66.7280   47.0330    8.2800 C   0  0  0  0  0  0
   67.3370   46.1160    9.1300 C   0  0  0  0  0  0
   66.9430   44.7930    9.1180 C   0  0  0  0  0  0
   65.9210   44.3880    8.2810 C   0  0  0  0  0  0
   65.3140   45.2570    7.4540 N   0  3  0  0  0  0
   65.6910   46.5750    7.4180 C   0  0  0  0  0  0
   65.0300   47.3900    6.5800 N   0  0  0  0  0  0
   69.9050   47.9370    7.5560 C   0  0  0  0  0  0
   69.6627   45.5293    0.8305 H   0  0  0  0  0  0
   70.0261   44.3145    2.1029 H   0  0  0  0  0  0
   71.3676   45.1584    1.2574 H   0  0  0  0  0  0
   72.3892   44.5845    3.0328 H   0  0  0  0  0  0
   73.1458   45.7618    6.9472 H   0  0  0  0  0  0
   69.9658   47.6317    4.7923 H   0  0  0  0  0  0
   73.2704   47.7206    7.8834 H   0  0  0  0  0  0
   72.7504   48.9589    9.9428 H   0  0  0  0  0  0
   70.4229   49.5481   10.4880 H   0  0  0  0  0  0
   67.9704   48.6531   10.1224 H   0  0  0  0  0  0
   68.0519   50.0817    9.0366 H   0  0  0  0  0  0
   66.6050   49.0385    7.5267 H   0  0  0  0  0  0
   68.1267   46.4425    9.8067 H   0  0  0  0  0  0
   67.4368   44.0698    9.7671 H   0  0  0  0  0  0
   65.6014   43.3460    8.2914 H   0  0  0  0  0  0
   64.5033   44.9139    6.7944 H   0  0  0  0  0  0
   65.3008   48.4545    6.5202 H   0  0  0  0  0  0
   69.0990   47.6357    6.8869 H   0  0  0  0  0  0
   64.2177   46.9931    5.9533 H   0  0  0  0  0  0
  1  2  1  0  0  0
  1 24  1  0  0  0
  1 25  1  0  0  0
  1 26  1  0  0  0
  2  3  1  0  0  0
  3  4  2  0  0  0
  3  8  1  0  0  0
  4  5  1  0  0  0
  4 27  1  0  0  0
  5  6  2  0  0  0
  6  7  1  0  0  0
  6 28  1  0  0  0
  7  8  2  0  0  0
  7  9  1  0  0  0
  8 29  1  0  0  0
  9 10  2  0  0  0
  9 23  1  0  0  0
 10 11  1  0  0  0
 10 30  1  0  0  0
 11 12  2  0  0  0
 11 31  1  0  0  0
 12 13  1  0  0  0
 12 32  1  0  0  0
 13 14  1  0  0  0
 13 23  2  0  0  0
 14 15  1  0  0  0
 14 33  1  0  0  0
 14 34  1  0  0  0
 15 16  1  0  0  0
 15 35  1  0  0  0
 16 17  2  0  0  0
 16 21  1  0  0  0
 17 18  1  0  0  0
 17 36  1  0  0  0
 18 19  2  0  0  0
 18 37  1  0  0  0
 19 20  1  0  0  0
 19 38  1  0  0  0
 20 21  2  0  0  0
 20 39  1  0  0  0
 21 22  1  0  0  0
 22 40  1  0  0  0
 22 42  1  0  0  0
 23 41  1  0  0  0
M  CHG  1  20   1
M  END
> <s_m_source_file>
../2ohs_ligand.sdf

> <i_m_source_file_index>
1

> <s_epik_input>
W0NIM11PYzFbY0hdbltjSF1jKFtjSF0xKS1jMltjSF1bY0hdW2NIXWMoW2NIXTIpW0NIMl1bTkhdYzNbY0hdW2NIXVtjSF1bbkhdY1wzPU5cW0hd

> <s_epik_cmdline>
J2VwaWtfYXBwJywgJy1pbWFlJywgJ2xpZ2FuZF9wcm8ubWFlJywgJy1vbWFlJywgJ2xpZ2FuZF9wcmVwLm1hZScsICctbXMnLCAnMScsICctcGgnLCAnNycsICctcGh0JywgJzAuNScsICctbnQn

> <r_lp_tautomer_probability>
1

> <r_epik_Ionization_Penalty>
  0.0818

> <r_epik_Ionization_Penalty_Charging>
  0.0795

> <r_epik_Ionization_Penalty_Neutral>
  0.0023

> <r_epik_State_Penalty>
  0.0704

> <r_epik_Charging_Adjusted_Penalty>
0.149863349736826

> <i_epik_Tot_Q>
1

> <i_epik_Tot_abs_Q>
1

$$$$
