2oht_ligand
                    3D
 Schrodinger Suite 2020-3.
 43 46  0  0  1  0            999 V2000
   65.8610   48.7170    6.5440 N   0  0  0  0  0  0
   65.7760   48.1960    7.8330 C   0  0  0  0  0  0
   65.1480   47.0390    8.0370 N   0  3  0  0  0  0
   65.0470   46.5000    9.2420 C   0  0  0  0  0  0
   65.5920   47.1180   10.3530 C   0  0  0  0  0  0
   66.2570   48.3260   10.1850 C   0  0  0  0  0  0
   66.3570   48.8900    8.9100 C   0  0  0  0  0  0
   67.0270   50.1180    8.6990 N   0  0  0  0  0  0
   67.7440   50.8000    9.7950 C   0  0  0  0  0  0
   69.1070   50.1540    9.9970 C   0  0  0  0  0  0
   69.5460   49.9200   11.3020 C   0  0  0  0  0  0
   70.7790   49.3260   11.5120 C   0  0  0  0  0  0
   71.5790   48.9590   10.4280 C   0  0  0  0  0  0
   71.1570   49.2000    9.1100 C   0  0  0  0  0  0
   69.9000   49.7890    8.8990 C   0  0  0  0  0  0
   72.0310   48.7840    7.9840 C   0  0  0  0  0  0
   73.4380   48.8230    8.1250 C   0  0  0  0  0  0
   74.2530   48.4180    7.0920 C   0  0  0  0  0  0
   73.6950   47.9500    5.8810 C   0  0  0  0  0  0
   74.2490   47.4550    4.6050 C   0  0  0  0  0  0
   73.2110   47.1310    3.7960 C   0  0  0  0  0  0
   72.0250   47.3840    4.4400 N   0  3  0  0  0  0
   72.2780   47.8790    5.7250 C   0  0  0  0  0  0
   71.4560   48.2980    6.7960 C   0  0  0  0  0  0
   65.4072   48.1755    5.7009 H   0  0  0  0  0  0
   66.3819   49.6699    6.3692 H   0  0  0  0  0  0
   64.5243   45.5509    9.3609 H   0  0  0  0  0  0
   65.5015   46.6661   11.3408 H   0  0  0  0  0  0
   66.6988   48.8318   11.0436 H   0  0  0  0  0  0
   67.0065   50.5642    7.6938 H   0  0  0  0  0  0
   67.8780   51.8618    9.5406 H   0  0  0  0  0  0
   67.1598   50.7163   10.7233 H   0  0  0  0  0  0
   68.9220   50.2031   12.1497 H   0  0  0  0  0  0
   71.1269   49.1439   12.5288 H   0  0  0  0  0  0
   72.5418   48.4801   10.6065 H   0  0  0  0  0  0
   69.5412   49.9622    7.8844 H   0  0  0  0  0  0
   73.8795   49.1758    9.0570 H   0  0  0  0  0  0
   75.3359   48.4586    7.2090 H   0  0  0  0  0  0
   75.2827   47.3246    4.2523 H   0  0  0  0  0  0
   73.4023   46.7314    2.7892 H   0  0  0  0  0  0
   70.3715   48.2442    6.7007 H   0  0  0  0  0  0
   71.0699   47.1906    3.9297 H   0  0  0  0  0  0
   64.6945   46.5026    7.1905 H   0  0  0  0  0  0
  1  2  1  0  0  0
  1 25  1  0  0  0
  1 26  1  0  0  0
  2  3  2  0  0  0
  2  7  1  0  0  0
  3  4  1  0  0  0
  3 43  1  0  0  0
  4  5  2  0  0  0
  4 27  1  0  0  0
  5  6  1  0  0  0
  5 28  1  0  0  0
  6  7  2  0  0  0
  6 29  1  0  0  0
  7  8  1  0  0  0
  8  9  1  0  0  0
  8 30  1  0  0  0
  9 10  1  0  0  0
  9 31  1  0  0  0
  9 32  1  0  0  0
 10 11  2  0  0  0
 10 15  1  0  0  0
 11 12  1  0  0  0
 11 33  1  0  0  0
 12 13  2  0  0  0
 12 34  1  0  0  0
 13 14  1  0  0  0
 13 35  1  0  0  0
 14 15  2  0  0  0
 14 16  1  0  0  0
 15 36  1  0  0  0
 16 17  2  0  0  0
 16 24  1  0  0  0
 17 18  1  0  0  0
 17 37  1  0  0  0
 18 19  2  0  0  0
 18 38  1  0  0  0
 19 20  1  0  0  0
 19 23  1  0  0  0
 20 21  2  0  0  0
 20 39  1  0  0  0
 21 22  1  0  0  0
 21 40  1  0  0  0
 22 23  1  0  0  0
 22 42  1  0  0  0
 23 24  2  0  0  0
 24 41  1  0  0  0
M  CHG  2   3   1  22   1
M  END
> <s_m_source_file>
../2oht_ligand.sdf

> <i_m_source_file_index>
1

> <s_epik_input>
W05IMl1jMW5bY0hdW2NIXVtjSF1jMVtOSF1bQ0gyXWMyW2NIXVtjSF1bY0hdYyhbY0hdMiktYyhbY0hdW2NIXTMpW2NIXWMoYzM0KVtuSF1bY0hdW2NIXTQ=

> <s_epik_cmdline>
J2VwaWtfYXBwJywgJy1pbWFlJywgJ2xpZ2FuZF9wcm8ubWFlJywgJy1vbWFlJywgJ2xpZ2FuZF9wcmVwLm1hZScsICctbXMnLCAnMScsICctcGgnLCAnNycsICctcGh0JywgJzAuNScsICctbnQn

> <r_epik_Ionization_Penalty>
  0.0795

> <r_epik_Ionization_Penalty_Charging>
  0.0795

> <r_epik_Ionization_Penalty_Neutral>
  0.0000

> <r_epik_State_Penalty>
  0.0704

> <r_epik_Charging_Adjusted_Penalty>
0.149863349736826

> <i_epik_Tot_Q>
2

> <i_epik_Tot_abs_Q>
2

$$$$
