2ohu_ligand
                    3D
 Schrodinger Suite 2020-3.
 56 60  0  0  1  0            999 V2000
   66.0360   48.6110    5.9490 N   0  0  0  0  0  0
   65.8280   48.1070    7.2250 C   0  0  0  0  0  0
   65.2290   46.9250    7.3770 N   0  3  0  0  0  0
   65.0120   46.3850    8.5740 C   0  0  0  0  0  0
   65.3990   47.0460    9.7300 C   0  0  0  0  0  0
   66.0280   48.2850    9.6220 C   0  0  0  0  0  0
   66.2470   48.8450    8.3540 C   0  0  0  0  0  0
   66.9010   50.0870    8.2030 N   0  0  0  0  0  0
   67.5590   50.7320    9.3440 C   0  0  0  0  0  0
   68.8540   50.0560    9.7630 C   0  0  0  0  0  0
   69.7790   49.7240    8.7840 C   0  0  0  0  0  0
   70.9900   49.1200    9.1360 C   0  0  0  0  0  0
   71.2790   48.8260   10.4910 C   0  0  0  0  0  0
   70.3510   49.1470   11.4760 C   0  0  0  0  0  0
   69.1360   49.7630   11.1220 C   0  0  0  0  0  0
   68.2380   50.0740   12.1090 O   0  0  0  0  0  0
   68.5890   51.3460   12.6680 C   0  0  0  0  0  0
   67.7320   52.4160   12.0360 C   0  0  0  0  0  0
   66.3800   52.5190   12.3870 C   0  0  0  0  0  0
   65.5840   53.5110   11.8020 C   0  0  0  0  0  0
   66.2090   54.3670   10.8910 C   0  0  0  0  0  0
   67.5550   54.2120   10.5740 C   0  0  0  0  0  0
   68.2680   53.2470   11.1420 N   0  0  0  0  0  0
   71.9470   48.7460    8.0740 C   0  0  0  0  0  0
   73.3390   48.8440    8.2790 C   0  0  0  0  0  0
   74.2010   48.4470    7.2890 C   0  0  0  0  0  0
   73.6900   47.9400    6.0730 C   0  0  0  0  0  0
   74.2930   47.4450    4.8410 C   0  0  0  0  0  0
   73.3020   47.0690    4.0120 C   0  0  0  0  0  0
   72.0920   47.2820    4.5890 N   0  3  0  0  0  0
   72.2850   47.8090    5.8700 C   0  0  0  0  0  0
   71.4230   48.2120    6.9000 C   0  0  0  0  0  0
   65.7093   48.0355    5.0703 H   0  0  0  0  0  0
   66.5276   49.5860    5.8162 H   0  0  0  0  0  0
   64.5248   45.4126    8.6464 H   0  0  0  0  0  0
   65.2140   46.6031   10.7086 H   0  0  0  0  0  0
   66.3483   48.8165   10.5181 H   0  0  0  0  0  0
   66.9134   50.5710    7.2153 H   0  0  0  0  0  0
   67.8012   51.7737    9.0867 H   0  0  0  0  0  0
   66.8848   50.7162   10.2130 H   0  0  0  0  0  0
   69.5611   49.9346    7.7370 H   0  0  0  0  0  0
   72.2226   48.3513   10.7601 H   0  0  0  0  0  0
   70.5644   48.9218   12.5209 H   0  0  0  0  0  0
   68.4183   51.3287   13.7545 H   0  0  0  0  0  0
   69.6501   51.5547   12.4668 H   0  0  0  0  0  0
   65.9492   51.8294   13.1129 H   0  0  0  0  0  0
   64.5263   53.6111   12.0456 H   0  0  0  0  0  0
   65.6346   55.1664   10.4228 H   0  0  0  0  0  0
   68.0254   54.8850    9.8571 H   0  0  0  0  0  0
   73.7278   49.2334    9.2199 H   0  0  0  0  0  0
   75.2779   48.5224    7.4398 H   0  0  0  0  0  0
   75.3419   47.3455    4.5250 H   0  0  0  0  0  0
   73.5410   46.6560    3.0209 H   0  0  0  0  0  0
   70.3445   48.1073    6.7816 H   0  0  0  0  0  0
   71.1704   47.0401    4.0394 H   0  0  0  0  0  0
   64.8948   46.3602    6.4942 H   0  0  0  0  0  0
  1  2  1  0  0  0
  1 33  1  0  0  0
  1 34  1  0  0  0
  2  3  2  0  0  0
  2  7  1  0  0  0
  3  4  1  0  0  0
  3 56  1  0  0  0
  4  5  2  0  0  0
  4 35  1  0  0  0
  5  6  1  0  0  0
  5 36  1  0  0  0
  6  7  2  0  0  0
  6 37  1  0  0  0
  7  8  1  0  0  0
  8  9  1  0  0  0
  8 38  1  0  0  0
  9 10  1  0  0  0
  9 39  1  0  0  0
  9 40  1  0  0  0
 10 11  2  0  0  0
 10 15  1  0  0  0
 11 12  1  0  0  0
 11 41  1  0  0  0
 12 13  2  0  0  0
 12 24  1  0  0  0
 13 14  1  0  0  0
 13 42  1  0  0  0
 14 15  2  0  0  0
 14 43  1  0  0  0
 15 16  1  0  0  0
 16 17  1  0  0  0
 17 18  1  0  0  0
 17 44  1  0  0  0
 17 45  1  0  0  0
 18 19  2  0  0  0
 18 23  1  0  0  0
 19 20  1  0  0  0
 19 46  1  0  0  0
 20 21  2  0  0  0
 20 47  1  0  0  0
 21 22  1  0  0  0
 21 48  1  0  0  0
 22 23  2  0  0  0
 22 49  1  0  0  0
 24 25  2  0  0  0
 24 32  1  0  0  0
 25 26  1  0  0  0
 25 50  1  0  0  0
 26 27  2  0  0  0
 26 51  1  0  0  0
 27 28  1  0  0  0
 27 31  1  0  0  0
 28 29  2  0  0  0
 28 52  1  0  0  0
 29 30  1  0  0  0
 29 53  1  0  0  0
 30 31  1  0  0  0
 30 55  1  0  0  0
 31 32  2  0  0  0
 32 54  1  0  0  0
M  CHG  2   3   1  30   1
M  END
> <s_m_source_file>
../2ohu_ligand.sdf

> <i_m_source_file_index>
1

> <s_epik_input>
W05IMl1jMW5bY0hdW2NIXVtjSF1jMVtOSF1bQ0gyXWMyW2NIXWMoLWMoW2NIXVtjSF0zKVtjSF1jKGMzNClbbkhdW2NIXVtjSF00KVtjSF1bY0hdYzJPW0NIMl1jNVtjSF1bY0hdW2NIXVtjSF1uNQ==

> <s_epik_cmdline>
J2VwaWtfYXBwJywgJy1pbWFlJywgJ2xpZ2FuZF9wcm8ubWFlJywgJy1vbWFlJywgJ2xpZ2FuZF9wcmVwLm1hZScsICctbXMnLCAnMScsICctcGgnLCAnNycsICctcGh0JywgJzAuNScsICctbnQn

> <r_epik_Ionization_Penalty>
  0.0824

> <r_epik_Ionization_Penalty_Charging>
  0.0795

> <r_epik_Ionization_Penalty_Neutral>
  0.0029

> <r_epik_State_Penalty>
  0.0704

> <r_epik_Charging_Adjusted_Penalty>
0.149863349736826

> <i_epik_Tot_Q>
2

> <i_epik_Tot_abs_Q>
2

$$$$
