2ohv_ligand
                    3D
 Schrodinger Suite 2020-3.
 37 38  0  0  1  0            999 V2000
   36.2470   32.8940   68.4700 C   0  0  0  0  0  0
   34.9780   32.3740   68.0820 C   0  0  0  0  0  0
   33.9610   32.1660   69.0540 C   0  0  0  0  0  0
   32.6940   31.6490   68.6630 C   0  0  0  0  0  0
   31.6820   31.4440   69.6360 C   0  0  0  0  0  0
   31.9310   31.7550   71.0100 C   0  0  0  0  0  0
   33.2000   32.2750   71.4190 C   0  0  0  0  0  0
   34.2260   32.4860   70.4540 C   0  0  0  0  0  0
   35.5000   33.0080   70.8410 C   0  0  0  0  0  0
   36.5170   33.2200   69.8520 C   0  0  0  0  0  0
   37.8870   33.7850   70.2440 C   0  0  0  0  0  0
   38.0840   35.2250   69.6560 C   0  0  2  0  0  0
   39.4530   35.3250   68.9520 C   0  0  0  0  0  0
   39.5110   35.2990   67.6190 O   0  5  0  0  0  0
   40.5100   35.4340   69.5830 O   0  0  0  0  0  0
   37.9710   36.3020   70.7970 C   0  0  0  0  0  0
   38.1470   37.7960   70.4170 C   0  0  1  0  0  0
   37.2920   38.1220   69.2290 N   0  3  0  0  0  0
   37.7820   38.6400   71.6250 C   0  0  0  0  0  0
   38.5120   38.7260   72.5890 O   0  0  0  0  0  0
   36.6110   39.2780   71.5890 O   0  5  0  0  0  0
   37.0208   33.0472   67.7178 H   0  0  0  0  0  0
   34.7862   32.1348   67.0360 H   0  0  0  0  0  0
   32.5013   31.4107   67.6170 H   0  0  0  0  0  0
   30.7118   31.0483   69.3357 H   0  0  0  0  0  0
   31.1480   31.5946   71.7512 H   0  0  0  0  0  0
   33.3811   32.5093   72.4680 H   0  0  0  0  0  0
   35.6979   33.2445   71.8865 H   0  0  0  0  0  0
   37.9625   33.8361   71.3402 H   0  0  0  0  0  0
   38.6794   33.1304   69.8521 H   0  0  0  0  0  0
   37.3059   35.4182   68.9029 H   0  0  0  0  0  0
   36.9747   36.2429   71.2596 H   0  0  0  0  0  0
   38.7410   36.1111   71.5590 H   0  0  0  0  0  0
   39.1791   38.0355   70.1213 H   0  0  0  0  0  0
   37.5889   37.4900   68.3791 H   0  0  0  0  0  0
   37.4236   39.1810   68.9621 H   0  0  0  0  0  0
   36.2363   37.9342   69.4744 H   0  0  0  0  0  0
  1  2  2  0  0  0
  1 10  1  0  0  0
  1 22  1  0  0  0
  2  3  1  0  0  0
  2 23  1  0  0  0
  3  4  2  0  0  0
  3  8  1  0  0  0
  4  5  1  0  0  0
  4 24  1  0  0  0
  5  6  2  0  0  0
  5 25  1  0  0  0
  6  7  1  0  0  0
  6 26  1  0  0  0
  7  8  2  0  0  0
  7 27  1  0  0  0
  8  9  1  0  0  0
  9 10  2  0  0  0
  9 28  1  0  0  0
 10 11  1  0  0  0
 11 12  1  0  0  0
 11 29  1  0  0  0
 11 30  1  0  0  0
 12 13  1  0  0  0
 12 16  1  0  0  0
 12 31  1  0  0  0
 13 14  1  0  0  0
 13 15  2  0  0  0
 16 17  1  0  0  0
 16 32  1  0  0  0
 16 33  1  0  0  0
 17 18  1  0  0  0
 17 19  1  0  0  0
 17 34  1  0  0  0
 18 35  1  0  0  0
 18 36  1  0  0  0
 18 37  1  0  0  0
 19 20  2  0  0  0
 19 21  1  0  0  0
M  CHG  3  14  -1  18   1  21  -1
M  END
> <s_m_source_file>
../2ohv_ligand.sdf

> <i_m_source_file_index>
1

> <s_epik_input>
Tz1DKFtPSF0pW0NASF0oW05IMytdKVtDSDJdW0NAQEhdKEMoPU8pW09IXSlbQ0gyXWMoW2NIXVtjSF0xKVtjSF1jKGMxMilbY0hdW2NIXVtjSF1bY0hdMg==

> <s_epik_cmdline>
J2VwaWtfYXBwJywgJy1pbWFlJywgJ2xpZ2FuZF9wcm8ubWFlJywgJy1vbWFlJywgJ2xpZ2FuZF9wcmVwLm1hZScsICctbXMnLCAnMScsICctcGgnLCAnNycsICctcGh0JywgJzAuNScsICctbnQn

> <r_lp_tautomer_probability>
1

> <r_epik_Ionization_Penalty>
  0.0022

> <r_epik_Ionization_Penalty_Charging>
  0.0022

> <r_epik_Ionization_Penalty_Neutral>
  0.0000

> <r_epik_State_Penalty>
 -0.0000

> <r_epik_Charging_Adjusted_Penalty>
0.00217674688103835

> <i_epik_Tot_Q>
-1

> <i_epik_Tot_abs_Q>
3

$$$$
