2oi3_ligand
                    3D
 Schrodinger Suite 2020-3.
203208  0  0  1  0            999 V2000
   40.3480   -9.7090  -56.4520 C   0  0  0  0  0  0
   40.6970  -10.7170  -57.0630 O   0  0  0  0  0  0
   40.5650   -9.6120  -54.9580 C   0  0  0  0  0  0
   39.7710   -8.6570  -57.0290 N   0  0  0  0  0  0
   39.2810   -8.6000  -58.4110 C   0  0  2  0  0  0
   39.5300   -7.2220  -59.0570 C   0  0  0  0  0  0
   39.8240   -6.2360  -58.3860 O   0  0  0  0  0  0
   37.7670   -8.9300  -58.3960 C   0  0  0  0  0  0
   37.3990  -10.3950  -58.3150 C   0  0  0  0  0  0
   38.2330  -11.4820  -58.4600 N   0  0  0  0  0  0
   36.1280  -10.8920  -58.2000 C   0  0  0  0  0  0
   37.4900  -12.6000  -58.4360 C   0  0  0  0  0  0
   36.1910  -12.2900  -58.2860 N   0  0  0  0  0  0
   39.3480   -7.1370  -60.3770 N   0  0  0  0  0  0
   39.3600   -5.8850  -61.1630 C   0  0  2  0  0  0
   38.2540   -5.9120  -62.2330 C   0  0  0  0  0  0
   38.4400   -5.5900  -63.4090 O   0  0  0  0  0  0
   40.7550   -5.6320  -61.7270 C   0  0  0  0  0  0
   40.9240   -4.2650  -62.0590 O   0  0  0  0  0  0
   37.0780   -6.3800  -61.7920 N   0  0  0  0  0  0
   35.8440   -6.6120  -62.5700 C   0  0  2  0  0  0
   35.3490   -5.4120  -63.3970 C   0  0  0  0  0  0
   34.7190   -5.6010  -64.4370 O   0  0  0  0  0  0
   34.7640   -7.1130  -61.5880 C   0  0  0  0  0  0
   34.4050   -6.0880  -60.4880 C   0  0  0  0  0  0
   33.7490   -6.7140  -59.2520 C   0  0  0  0  0  0
   32.4770   -7.4910  -59.6040 C   0  0  0  0  0  0
   31.7130   -7.8050  -58.3810 N   0  3  0  0  0  0
   35.6570   -4.2000  -62.9350 N   0  0  0  0  0  0
   35.2880   -2.9030  -63.5260 C   0  0  2  0  0  0
   36.3750   -1.8640  -63.1780 C   0  0  0  0  0  0
   37.0040   -2.0100  -62.1260 O   0  0  0  0  0  0
   33.9320   -2.4360  -62.9530 C   0  0  0  0  0  0
   32.7000   -2.8890  -63.7240 C   0  0  0  0  0  0
   32.1150   -4.1460  -63.4730 C   0  0  0  0  0  0
   32.1180   -2.0300  -64.6790 C   0  0  0  0  0  0
   30.9720   -4.5570  -64.1870 C   0  0  0  0  0  0
   30.9690   -2.4320  -65.3880 C   0  0  0  0  0  0
   30.3960   -3.6990  -65.1490 C   0  0  0  0  0  0
   29.2890   -4.0830  -65.8400 O   0  0  0  0  0  0
   36.5640   -0.7910  -63.9740 N   0  0  0  0  0  0
   37.5710    0.2590  -63.7500 C   0  0  2  0  0  0
   37.1790    1.2560  -62.6280 C   0  0  0  0  0  0
   37.2200    2.4770  -62.8100 O   0  0  0  0  0  0
   37.7540    0.9080  -65.1300 C   0  0  0  0  0  0
   36.3520    0.8220  -65.7270 C   0  0  0  0  0  0
   35.8660   -0.5390  -65.2320 C   0  0  0  0  0  0
   36.7840    0.7080  -61.4700 N   0  0  0  0  0  0
   36.1720    1.3350  -60.2860 C   0  0  2  0  0  0
   34.8170    2.0620  -60.5310 C   0  0  0  0  0  0
   34.5220    2.5030  -61.6470 O   0  0  0  0  0  0
   37.2060    2.2340  -59.5720 C   0  0  0  0  0  0
   38.2790    1.4560  -58.7850 C   0  0  0  0  0  0
   39.5060    2.3350  -58.5450 C   0  0  0  0  0  0
   37.7370    0.8550  -57.4850 C   0  0  0  0  0  0
   33.9640    2.1800  -59.4900 N   0  0  0  0  0  0
   32.7090    2.9260  -59.5460 C   0  0  2  0  0  0
   32.9210    4.4450  -59.6450 C   0  0  0  0  0  0
   33.9660    4.9490  -59.2150 O   0  0  0  0  0  0
   31.9400    2.5820  -58.2670 C   0  0  0  0  0  0
   32.9220    1.8980  -57.3410 C   0  0  0  0  0  0
   34.1710    1.6290  -58.1680 C   0  0  0  0  0  0
   31.9170    5.1970  -60.1360 N   0  0  0  0  0  0
   31.9580    6.6530  -60.1640 C   0  0  2  0  0  0
   31.7420    7.2100  -58.7590 C   0  0  0  0  0  0
   30.6830    7.0540  -58.1460 O   0  0  0  0  0  0
   30.8580    7.0570  -61.1480 C   0  0  0  0  0  0
   29.8040    5.9550  -61.0000 C   0  0  0  0  0  0
   30.5780    4.7300  -60.5020 C   0  0  0  0  0  0
   32.7920    7.8680  -58.2660 N   0  0  0  0  0  0
   32.7970    8.5780  -56.9960 C   0  0  2  0  0  0
   31.6480    9.6090  -56.8790 C   0  0  0  0  0  0
   31.1430   10.0980  -57.9000 O   0  0  0  0  0  0
   34.1610    9.2570  -56.8370 C   0  0  0  0  0  0
   35.3490    8.3640  -56.4530 C   0  0  0  0  0  0
   36.5890    9.2240  -56.2110 C   0  0  0  0  0  0
   35.0600    7.6030  -55.1750 C   0  0  0  0  0  0
   31.2300    9.9540  -55.6440 N   0  0  0  0  0  0
   30.0900   10.8260  -55.3970 C   0  0  2  0  0  0
   30.3710   12.2980  -55.7500 C   0  0  0  0  0  0
   31.4690   12.6870  -56.1580 O   0  0  0  0  0  0
   29.7340   10.6420  -53.9120 C   0  0  0  0  0  0
   30.7860    9.7090  -53.3320 C   0  0  0  0  0  0
   31.8660    9.6060  -54.3860 C   0  0  0  0  0  0
   29.3530   13.1360  -55.5460 N   0  0  0  0  0  0
   29.4100   14.5990  -55.7330 C   0  0  2  0  0  0
   30.3310   15.3340  -54.7410 C   0  0  0  0  0  0
   30.7350   16.4690  -55.0080 O   0  0  0  0  0  0
   27.9960   15.1850  -55.6350 C   0  0  0  0  0  0
   27.4400   14.9320  -54.3530 O   0  0  0  0  0  0
   30.6710   14.6960  -53.6080 N   0  0  0  0  0  0
   31.4630   15.2410  -52.4890 C   0  0  2  0  0  0
   30.9030   16.5570  -51.8910 C   0  0  0  0  0  0
   31.6210   17.3290  -51.2530 O   0  0  0  0  0  0
   32.9580   15.3350  -52.8810 C   0  0  0  0  0  0
   33.5910   14.0540  -53.4620 C   0  0  0  0  0  0
   35.0720   14.2980  -53.7540 C   0  0  0  0  0  0
   33.4850   12.8550  -52.5170 C   0  0  0  0  0  0
   29.6180   16.8440  -52.0740 N   0  0  0  0  0  0
   41.0452  -10.5333  -54.5967 H   0  0  0  0  0  0
   39.5957   -9.4819  -54.4544 H   0  0  0  0  0  0
   41.2119   -8.7503  -54.7366 H   0  0  0  0  0  0
   39.6749   -7.7780  -56.3747 H   0  0  0  0  0  0
   39.8628   -9.3440  -58.9748 H   0  0  0  0  0  0
   37.2962   -8.4522  -57.5242 H   0  0  0  0  0  0
   37.3002   -8.5523  -59.3177 H   0  0  0  0  0  0
   35.1576  -10.3926  -58.0626 H   0  0  0  0  0  0
   37.8835  -13.6126  -58.5253 H   0  0  0  0  0  0
   39.1789   -8.1006  -60.8800 H   0  0  0  0  0  0
   39.1359   -5.0549  -60.4769 H   0  0  0  0  0  0
   41.5098   -5.9103  -60.9768 H   0  0  0  0  0  0
   40.8991   -6.2373  -62.6341 H   0  0  0  0  0  0
   41.8782   -3.9151  -62.4797 H   0  0  0  0  0  0
   37.0979   -6.5987  -60.7141 H   0  0  0  0  0  0
   36.1195   -7.3642  -63.3238 H   0  0  0  0  0  0
   33.8405   -7.3375  -62.1419 H   0  0  0  0  0  0
   35.1202   -8.0239  -61.0847 H   0  0  0  0  0  0
   35.3189   -5.5775  -60.1502 H   0  0  0  0  0  0
   33.6997   -5.3474  -60.8930 H   0  0  0  0  0  0
   34.4545   -7.4108  -58.7757 H   0  0  0  0  0  0
   33.4790   -5.9211  -58.5389 H   0  0  0  0  0  0
   31.8497   -6.8836  -60.2730 H   0  0  0  0  0  0
   32.7487   -8.4300  -60.1084 H   0  0  0  0  0  0
   30.8035   -8.3624  -58.6498 H   0  0  0  0  0  0
   31.4335   -6.8701  -57.8732 H   0  0  0  0  0  0
   32.3325   -8.4165  -57.7085 H   0  0  0  0  0  0
   36.2519   -4.2338  -62.0103 H   0  0  0  0  0  0
   35.2161   -3.0533  -64.6133 H   0  0  0  0  0  0
   33.8145   -2.8209  -61.9292 H   0  0  0  0  0  0
   33.8996   -1.3366  -62.9374 H   0  0  0  0  0  0
   32.5496   -4.8049  -62.7213 H   0  0  0  0  0  0
   32.5588   -1.0514  -64.8693 H   0  0  0  0  0  0
   30.5329   -5.5364  -63.9969 H   0  0  0  0  0  0
   30.5216   -1.7627  -66.1229 H   0  0  0  0  0  0
   28.8404   -5.0703  -65.6555 H   0  0  0  0  0  0
   38.5016   -0.1971  -63.3811 H   0  0  0  0  0  0
   38.1009    1.9443  -65.0047 H   0  0  0  0  0  0
   38.4983    0.3394  -65.7068 H   0  0  0  0  0  0
   35.7416    1.6563  -65.3510 H   0  0  0  0  0  0
   36.4162    0.8798  -66.8236 H   0  0  0  0  0  0
   36.1122   -1.3323  -65.9532 H   0  0  0  0  0  0
   34.7806   -0.5296  -65.0536 H   0  0  0  0  0  0
   36.9782   -0.3747  -61.4805 H   0  0  0  0  0  0
   35.9185    0.4646  -59.6630 H   0  0  0  0  0  0
   37.7329    2.8492  -60.3162 H   0  0  0  0  0  0
   36.6894    2.8886  -58.8546 H   0  0  0  0  0  0
   38.5943    0.5980  -59.3968 H   0  0  0  0  0  0
   39.8581    2.7428  -59.5040 H   0  0  0  0  0  0
   40.3046    1.7327  -58.0873 H   0  0  0  0  0  0
   39.2383    3.1621  -57.8710 H   0  0  0  0  0  0
   36.8577    0.2327  -57.7074 H   0  0  0  0  0  0
   37.4489    1.6650  -56.7988 H   0  0  0  0  0  0
   38.5151    0.2356  -57.0150 H   0  0  0  0  0  0
   32.1912    2.6078  -60.4629 H   0  0  0  0  0  0
   31.5517    3.5056  -57.8130 H   0  0  0  0  0  0
   31.1016    1.9133  -58.5118 H   0  0  0  0  0  0
   33.1458    2.5592  -56.4908 H   0  0  0  0  0  0
   32.4838    0.9596  -56.9703 H   0  0  0  0  0  0
   34.3475    0.5460  -58.2457 H   0  0  0  0  0  0
   35.0439    2.1103  -57.7027 H   0  0  0  0  0  0
   32.9448    7.0130  -60.4905 H   0  0  0  0  0  0
   30.4644    8.0464  -60.8719 H   0  0  0  0  0  0
   31.2735    7.0987  -62.1656 H   0  0  0  0  0  0
   29.0394    6.2738  -60.2763 H   0  0  0  0  0  0
   29.3305    5.7672  -61.9749 H   0  0  0  0  0  0
   30.6583    3.9701  -61.2933 H   0  0  0  0  0  0
   30.0891    4.2907  -59.6200 H   0  0  0  0  0  0
   33.6978    7.8506  -58.8899 H   0  0  0  0  0  0
   32.6350    7.8064  -56.2290 H   0  0  0  0  0  0
   34.4465    9.7330  -57.7867 H   0  0  0  0  0  0
   34.1006   10.0207  -56.0476 H   0  0  0  0  0  0
   35.5198    7.6492  -57.2715 H   0  0  0  0  0  0
   36.8258    9.7909  -57.1234 H   0  0  0  0  0  0
   37.4392    8.5764  -55.9507 H   0  0  0  0  0  0
   36.3944    9.9236  -55.3847 H   0  0  0  0  0  0
   34.1700    6.9724  -55.3171 H   0  0  0  0  0  0
   34.8777    8.3157  -54.3571 H   0  0  0  0  0  0
   35.9225    6.9685  -54.9231 H   0  0  0  0  0  0
   29.2798   10.5095  -56.0703 H   0  0  0  0  0  0
   29.7518   11.6190  -53.4069 H   0  0  0  0  0  0
   28.7286   10.2038  -53.8275 H   0  0  0  0  0  0
   31.1785   10.1351  -52.3969 H   0  0  0  0  0  0
   30.3327    8.7281  -53.1261 H   0  0  0  0  0  0
   32.2654    8.5829  -54.4478 H   0  0  0  0  0  0
   32.6877   10.3088  -54.1838 H   0  0  0  0  0  0
   28.4186   12.6600  -55.2140 H   0  0  0  0  0  0
   29.8429   14.7108  -56.7381 H   0  0  0  0  0  0
   28.0375   16.2721  -55.7980 H   0  0  0  0  0  0
   27.3541   14.7238  -56.4000 H   0  0  0  0  0  0
   26.4265   15.2862  -54.1134 H   0  0  0  0  0  0
   30.2935   13.6638  -53.5632 H   0  0  0  0  0  0
   31.3387   14.4893  -51.6956 H   0  0  0  0  0  0
   33.0877   16.1126  -53.6481 H   0  0  0  0  0  0
   33.5543   15.5926  -51.9933 H   0  0  0  0  0  0
   33.0381   13.8111  -54.3814 H   0  0  0  0  0  0
   35.1751   15.1572  -54.4331 H   0  0  0  0  0  0
   35.5049   13.4036  -54.2259 H   0  0  0  0  0  0
   35.6014   14.5087  -52.8130 H   0  0  0  0  0  0
   32.4265   12.6586  -52.2911 H   0  0  0  0  0  0
   34.0244   13.0748  -51.5839 H   0  0  0  0  0  0
   33.9279   11.9698  -52.9968 H   0  0  0  0  0  0
   28.9763   16.1555  -52.6434 H   0  0  0  0  0  0
   29.1963   17.7700  -51.6561 H   0  0  0  0  0  0
  1  2  2  0  0  0
  1  3  1  0  0  0
  1  4  1  0  0  0
  3100  1  0  0  0
  3101  1  0  0  0
  3102  1  0  0  0
  4  5  1  0  0  0
  4103  1  0  0  0
  5  6  1  0  0  0
  5  8  1  0  0  0
  5104  1  0  0  0
  6  7  2  0  0  0
  6 14  1  0  0  0
  8  9  1  0  0  0
  8105  1  0  0  0
  8106  1  0  0  0
  9 10  2  0  0  0
  9 11  1  0  0  0
 10 12  1  0  0  0
 11 13  2  0  0  0
 11107  1  0  0  0
 12 13  1  0  0  0
 12108  1  0  0  0
 14 15  1  0  0  0
 14109  1  0  0  0
 15 16  1  0  0  0
 15 18  1  0  0  0
 15110  1  0  0  0
 16 17  2  0  0  0
 16 20  1  0  0  0
 18 19  1  0  0  0
 18111  1  0  0  0
 18112  1  0  0  0
 19113  1  0  0  0
 20 21  1  0  0  0
 20114  1  0  0  0
 21 22  1  0  0  0
 21 24  1  0  0  0
 21115  1  0  0  0
 22 23  2  0  0  0
 22 29  1  0  0  0
 24 25  1  0  0  0
 24116  1  0  0  0
 24117  1  0  0  0
 25 26  1  0  0  0
 25118  1  0  0  0
 25119  1  0  0  0
 26 27  1  0  0  0
 26120  1  0  0  0
 26121  1  0  0  0
 27 28  1  0  0  0
 27122  1  0  0  0
 27123  1  0  0  0
 28124  1  0  0  0
 28125  1  0  0  0
 28126  1  0  0  0
 29 30  1  0  0  0
 29127  1  0  0  0
 30 31  1  0  0  0
 30 33  1  0  0  0
 30128  1  0  0  0
 31 32  2  0  0  0
 31 41  1  0  0  0
 33 34  1  0  0  0
 33129  1  0  0  0
 33130  1  0  0  0
 34 35  2  0  0  0
 34 36  1  0  0  0
 35 37  1  0  0  0
 35131  1  0  0  0
 36 38  2  0  0  0
 36132  1  0  0  0
 37 39  2  0  0  0
 37133  1  0  0  0
 38 39  1  0  0  0
 38134  1  0  0  0
 39 40  1  0  0  0
 40135  1  0  0  0
 41 42  1  0  0  0
 41 47  1  0  0  0
 42 43  1  0  0  0
 42 45  1  0  0  0
 42136  1  0  0  0
 43 44  2  0  0  0
 43 48  1  0  0  0
 45 46  1  0  0  0
 45137  1  0  0  0
 45138  1  0  0  0
 46 47  1  0  0  0
 46139  1  0  0  0
 46140  1  0  0  0
 47141  1  0  0  0
 47142  1  0  0  0
 48 49  1  0  0  0
 48143  1  0  0  0
 49 50  1  0  0  0
 49 52  1  0  0  0
 49144  1  0  0  0
 50 51  2  0  0  0
 50 56  1  0  0  0
 52 53  1  0  0  0
 52145  1  0  0  0
 52146  1  0  0  0
 53 54  1  0  0  0
 53 55  1  0  0  0
 53147  1  0  0  0
 54148  1  0  0  0
 54149  1  0  0  0
 54150  1  0  0  0
 55151  1  0  0  0
 55152  1  0  0  0
 55153  1  0  0  0
 56 57  1  0  0  0
 56 62  1  0  0  0
 57 58  1  0  0  0
 57 60  1  0  0  0
 57154  1  0  0  0
 58 59  2  0  0  0
 58 63  1  0  0  0
 60 61  1  0  0  0
 60155  1  0  0  0
 60156  1  0  0  0
 61 62  1  0  0  0
 61157  1  0  0  0
 61158  1  0  0  0
 62159  1  0  0  0
 62160  1  0  0  0
 63 64  1  0  0  0
 63 69  1  0  0  0
 64 65  1  0  0  0
 64 67  1  0  0  0
 64161  1  0  0  0
 65 66  2  0  0  0
 65 70  1  0  0  0
 67 68  1  0  0  0
 67162  1  0  0  0
 67163  1  0  0  0
 68 69  1  0  0  0
 68164  1  0  0  0
 68165  1  0  0  0
 69166  1  0  0  0
 69167  1  0  0  0
 70 71  1  0  0  0
 70168  1  0  0  0
 71 72  1  0  0  0
 71 74  1  0  0  0
 71169  1  0  0  0
 72 73  2  0  0  0
 72 78  1  0  0  0
 74 75  1  0  0  0
 74170  1  0  0  0
 74171  1  0  0  0
 75 76  1  0  0  0
 75 77  1  0  0  0
 75172  1  0  0  0
 76173  1  0  0  0
 76174  1  0  0  0
 76175  1  0  0  0
 77176  1  0  0  0
 77177  1  0  0  0
 77178  1  0  0  0
 78 79  1  0  0  0
 78 84  1  0  0  0
 79 80  1  0  0  0
 79 82  1  0  0  0
 79179  1  0  0  0
 80 81  2  0  0  0
 80 85  1  0  0  0
 82 83  1  0  0  0
 82180  1  0  0  0
 82181  1  0  0  0
 83 84  1  0  0  0
 83182  1  0  0  0
 83183  1  0  0  0
 84184  1  0  0  0
 84185  1  0  0  0
 85 86  1  0  0  0
 85186  1  0  0  0
 86 87  1  0  0  0
 86 89  1  0  0  0
 86187  1  0  0  0
 87 88  2  0  0  0
 87 91  1  0  0  0
 89 90  1  0  0  0
 89188  1  0  0  0
 89189  1  0  0  0
 90190  1  0  0  0
 91 92  1  0  0  0
 91191  1  0  0  0
 92 93  1  0  0  0
 92 95  1  0  0  0
 92192  1  0  0  0
 93 94  2  0  0  0
 93 99  1  0  0  0
 95 96  1  0  0  0
 95193  1  0  0  0
 95194  1  0  0  0
 96 97  1  0  0  0
 96 98  1  0  0  0
 96195  1  0  0  0
 97196  1  0  0  0
 97197  1  0  0  0
 97198  1  0  0  0
 98199  1  0  0  0
 98200  1  0  0  0
 98201  1  0  0  0
 99202  1  0  0  0
 99203  1  0  0  0
M  CHG  1  28   1
M  END
> <s_m_source_file>
../2oi3_ligand.sdf

> <i_m_source_file_index>
1

> <s_epik_input>
W0NIXTE9TltDSDJdTj1DMVtDSDJdW0NASF0oW05IXUMoPU8pW0NIM10pQyg9TylbTkhdW0NAQEhdKFtDSDJdW09IXSlDKD1PKVtOSF1bQ0BASF0oW0NIMl1bQ0gyXVtDSDJdW0NIMl1bTkgzK10pQyg9TylbTkhdW0NAQEhdKFtDSDJdYzJbY0hdW2NIXWMoW09IXSlbY0hdW2NIXTIpQyg9TylOM1tDQEBIXShbQ0gyXVtDSDJdW0NIMl0zKUMoPU8pW05IXVtDQEBIXShbQ0gyXVtDSF0oW0NIM10pW0NIM10pQyg9TylONFtDQEBIXShbQ0gyXVtDSDJdW0NIMl00KUMoPU8pTjVbQ0BASF0oW0NIMl1bQ0gyXVtDSDJdNSlDKD1PKVtOSF1bQ0BASF0oW0NIMl1bQ0hdKFtDSDNdKVtDSDNdKUMoPU8pTjZbQ0BASF0oW0NIMl1bQ0gyXVtDSDJdNilDKD1PKVtOSF1bQ0BASF0oW0NIMl1bT0hdKUMoPU8pW05IXVtDQEhdKEMoPU8pW05IMl0pW0NIMl1bQ0hdKFtDSDNdKVtDSDNd

> <s_epik_cmdline>
J2VwaWtfYXBwJywgJy1pbWFlJywgJ2xpZ2FuZF9wcm8ubWFlJywgJy1vbWFlJywgJ2xpZ2FuZF9wcmVwLm1hZScsICctbXMnLCAnMScsICctcGgnLCAnNycsICctcGh0JywgJzAuNScsICctbnQn

> <s_epik_pKa_notes>
Molecule size exceeds maximum supported for generating protonation states

> <s_epik_Chemistry_Notes>
This compound has an imine and may undergo hydrolysis.

$$$$
