2oi9_ligand
                    3D
 Schrodinger Suite 2020-3.
151154  0  0  1  0            999 V2000
  -16.8000  -47.1670   -0.0010 N   0  3  0  0  0  0
  -16.8380  -48.6470    0.2210 C   0  0  2  0  0  0
  -17.6270  -49.4550   -0.8180 C   0  0  0  0  0  0
  -18.8480  -49.3650   -0.9300 O   0  0  0  0  0  0
  -17.3340  -48.9730    1.6170 C   0  0  0  0  0  0
  -16.3670  -48.6140    2.7330 C   0  0  0  0  0  0
  -14.9900  -49.1700    2.5270 C   0  0  0  0  0  0
  -14.2420  -48.6860    1.6680 O   0  0  0  0  0  0
  -14.6300  -50.1840    3.3260 N   0  0  0  0  0  0
  -16.8790  -50.2750   -1.5400 N   0  0  0  0  0  0
  -17.3660  -51.0710   -2.6430 C   0  0  2  0  0  0
  -17.9200  -52.4140   -2.1840 C   0  0  0  0  0  0
  -17.9060  -52.7310   -0.9940 O   0  0  0  0  0  0
  -16.2270  -51.2570   -3.6470 C   0  0  0  0  0  0
  -15.9000  -50.0820   -4.5920 C   0  0  0  0  0  0
  -16.5760  -48.7620   -4.2070 C   0  0  0  0  0  0
  -14.3950  -49.8950   -4.7580 C   0  0  0  0  0  0
  -18.4400  -53.1850   -3.1350 N   0  0  0  0  0  0
  -18.9320  -54.5340   -2.8800 C   0  0  2  0  0  0
  -17.7900  -55.4120   -2.3600 C   0  0  0  0  0  0
  -16.6410  -55.2300   -2.7650 O   0  0  0  0  0  0
  -19.5050  -55.1310   -4.1740 C   0  0  0  0  0  0
  -19.6450  -56.5430   -4.1150 O   0  0  0  0  0  0
  -18.1000  -56.3850   -1.4800 N   0  0  0  0  0  0
  -17.0610  -57.3440   -1.1130 C   0  0  2  0  0  0
  -16.6710  -58.1660   -2.3390 C   0  0  0  0  0  0
  -17.3730  -58.1170   -3.3630 O   0  0  0  0  0  0
  -17.7490  -58.2220   -0.0670 C   0  0  0  0  0  0
  -19.2080  -58.1220   -0.4090 C   0  0  0  0  0  0
  -19.3750  -56.6820   -0.8010 C   0  0  0  0  0  0
  -15.5670  -58.9030   -2.2320 N   0  0  0  0  0  0
  -15.0160  -59.6770   -3.3350 C   0  0  2  0  0  0
  -16.0470  -60.7070   -3.8110 C   0  0  0  0  0  0
  -16.5740  -61.4760   -3.0010 O   0  0  0  0  0  0
  -13.6860  -60.3360   -2.9100 C   0  0  0  0  0  0
  -12.8980  -60.9110   -4.0500 C   0  0  0  0  0  0
  -12.2510  -60.0820   -4.9600 C   0  0  0  0  0  0
  -12.7870  -62.2850   -4.2040 C   0  0  0  0  0  0
  -11.5280  -60.6190   -6.0190 C   0  0  0  0  0  0
  -12.0680  -62.8350   -5.2620 C   0  0  0  0  0  0
  -11.4300  -61.9970   -6.1710 C   0  0  0  0  0  0
  -16.3700  -60.6970   -5.1170 N   0  0  0  0  0  0
  -17.4000  -61.5840   -5.6900 C   0  0  2  0  0  0
  -16.9630  -63.0600   -5.8330 C   0  0  0  0  0  0
  -15.7680  -63.3440   -5.9370 O   0  0  0  0  0  0
  -17.6630  -60.9620   -7.0660 C   0  0  0  0  0  0
  -16.3840  -60.2980   -7.4220 C   0  0  0  0  0  0
  -15.7570  -59.8220   -6.1360 C   0  0  0  0  0  0
  -17.9430  -63.9720   -5.8420 N   0  0  0  0  0  0
  -17.7140  -65.4150   -5.9940 C   0  0  2  0  0  0
  -17.2880  -65.7770   -7.4230 C   0  0  0  0  0  0
  -17.5180  -65.0040   -8.3340 O   0  0  0  0  0  0
  -18.9810  -66.1900   -5.6260 C   0  0  0  0  0  0
  -19.3280  -66.1580   -4.1550 C   0  0  0  0  0  0
  -20.1660  -67.1250   -3.6170 C   0  0  0  0  0  0
  -18.8050  -65.1880   -3.3030 C   0  0  0  0  0  0
  -20.4950  -67.1170   -2.2730 C   0  0  0  0  0  0
  -19.1330  -65.1870   -1.9540 C   0  0  0  0  0  0
  -19.9860  -66.1540   -1.4430 C   0  0  0  0  0  0
  -16.6810  -66.9490   -7.6160 N   0  0  0  0  0  0
  -16.2530  -67.4020   -8.9410 C   0  0  2  0  0  0
  -17.4590  -67.5840   -9.8610 C   0  0  0  0  0  0
  -18.5210  -68.0180   -9.4230 O   0  0  0  0  0  0
  -15.5540  -68.7650   -8.8580 C   0  0  0  0  0  0
  -14.3090  -68.7680   -7.9850 C   0  0  0  0  0  0
  -13.8920  -67.7010   -7.4680 O   0  0  0  0  0  0
  -13.7520  -69.8850   -7.8110 O   0  0  0  0  0  0
  -17.2710  -67.2980  -11.1430 N   0  0  0  0  0  0
  -18.3320  -67.4320  -12.1390 C   0  0  2  0  0  0
  -18.6340  -68.9010  -12.4490 C   0  0  0  0  0  0
  -17.7310  -69.7400  -12.3910 O   0  0  0  0  0  0
  -17.9240  -66.6920  -13.4120 C   0  0  0  0  0  0
  -18.8080  -65.5560  -13.9080 C   0  0  0  0  0  0
  -19.3430  -64.7240  -12.7580 C   0  0  0  0  0  0
  -18.0390  -64.7010  -14.9030 C   0  0  0  0  0  0
  -19.8675  -69.2719  -12.7802 O   0  0  0  0  0  0
  -16.2117  -46.6914    0.7976 H   0  0  0  0  0  0
  -17.8250  -46.7680    0.0113 H   0  0  0  0  0  0
  -16.3354  -46.9542   -0.9751 H   0  0  0  0  0  0
  -15.7838  -48.9395    0.1069 H   0  0  0  0  0  0
  -18.2655  -48.4218    1.8132 H   0  0  0  0  0  0
  -17.5240  -50.0536    1.6956 H   0  0  0  0  0  0
  -16.2755  -47.5199    2.8010 H   0  0  0  0  0  0
  -16.7447  -49.0103    3.6871 H   0  0  0  0  0  0
  -15.3376  -50.5739    4.0725 H   0  0  0  0  0  0
  -13.6270  -50.6263    3.2353 H   0  0  0  0  0  0
  -15.8192  -50.3269   -1.2501 H   0  0  0  0  0  0
  -18.2003  -50.5006   -3.0773 H   0  0  0  0  0  0
  -15.2909  -51.4596   -3.1061 H   0  0  0  0  0  0
  -16.4576  -52.1035   -4.3105 H   0  0  0  0  0  0
  -16.3214  -50.3607   -5.5691 H   0  0  0  0  0  0
  -17.6581  -48.9237   -4.0937 H   0  0  0  0  0  0
  -16.3973  -48.0152   -4.9946 H   0  0  0  0  0  0
  -16.1578  -48.3995   -3.2563 H   0  0  0  0  0  0
  -13.9344  -50.8551   -5.0337 H   0  0  0  0  0  0
  -13.9630  -49.5397   -3.8108 H   0  0  0  0  0  0
  -14.2025  -49.1553   -5.5491 H   0  0  0  0  0  0
  -18.4901  -52.7640   -4.1500 H   0  0  0  0  0  0
  -19.7188  -54.4406   -2.1169 H   0  0  0  0  0  0
  -20.4999  -54.7029   -4.3662 H   0  0  0  0  0  0
  -18.8358  -54.8950   -5.0145 H   0  0  0  0  0  0
  -20.0453  -57.0926   -4.9797 H   0  0  0  0  0  0
  -16.1551  -56.8419   -0.7424 H   0  0  0  0  0  0
  -17.3742  -59.2529   -0.1498 H   0  0  0  0  0  0
  -17.5320  -57.8326    0.9386 H   0  0  0  0  0  0
  -19.4391  -58.8112   -1.2346 H   0  0  0  0  0  0
  -19.8103  -58.3898    0.4717 H   0  0  0  0  0  0
  -19.4929  -56.0149    0.0657 H   0  0  0  0  0  0
  -20.2087  -56.5244   -1.5011 H   0  0  0  0  0  0
  -15.0674  -58.9094   -1.2520 H   0  0  0  0  0  0
  -14.8204  -58.9666   -4.1517 H   0  0  0  0  0  0
  -13.0468  -59.5879   -2.4184 H   0  0  0  0  0  0
  -13.8919  -61.1592   -2.2100 H   0  0  0  0  0  0
  -12.3114  -59.0001   -4.8417 H   0  0  0  0  0  0
  -13.2709  -62.9455   -3.4845 H   0  0  0  0  0  0
  -11.0365  -59.9573   -6.7323 H   0  0  0  0  0  0
  -12.0053  -63.9170   -5.3775 H   0  0  0  0  0  0
  -10.8570  -62.4184   -6.9970 H   0  0  0  0  0  0
  -18.2647  -61.6077   -5.0106 H   0  0  0  0  0  0
  -17.9280  -61.7541   -7.7818 H   0  0  0  0  0  0
  -18.4923  -60.2432   -6.9910 H   0  0  0  0  0  0
  -15.7261  -61.0182   -7.9303 H   0  0  0  0  0  0
  -16.5856  -59.4492   -8.0920 H   0  0  0  0  0  0
  -16.0000  -58.7727   -5.9124 H   0  0  0  0  0  0
  -14.6652  -59.9558   -6.1254 H   0  0  0  0  0  0
  -18.9669  -63.5867   -5.7269 H   0  0  0  0  0  0
  -16.8949  -65.6492   -5.2981 H   0  0  0  0  0  0
  -19.8399  -65.7667   -6.1673 H   0  0  0  0  0  0
  -18.8577  -67.2473   -5.9034 H   0  0  0  0  0  0
  -20.5714  -67.9032   -4.2637 H   0  0  0  0  0  0
  -18.1341  -64.4251   -3.6979 H   0  0  0  0  0  0
  -21.1622  -67.8806   -1.8732 H   0  0  0  0  0  0
  -18.7190  -64.4242   -1.2946 H   0  0  0  0  0  0
  -20.2500  -66.1475   -0.3855 H   0  0  0  0  0  0
  -16.5050  -67.5831   -6.7346 H   0  0  0  0  0  0
  -15.5755  -66.6108   -9.2946 H   0  0  0  0  0  0
  -16.2478  -69.5078   -8.4374 H   0  0  0  0  0  0
  -15.2454  -69.0808   -9.8655 H   0  0  0  0  0  0
  -12.8469  -69.9575   -7.1900 H   0  0  0  0  0  0
  -16.2729  -66.9489  -11.4462 H   0  0  0  0  0  0
  -19.2263  -66.9760  -11.6892 H   0  0  0  0  0  0
  -16.9338  -66.2348  -13.2689 H   0  0  0  0  0  0
  -17.8823  -67.4018  -14.2513 H   0  0  0  0  0  0
  -19.6826  -65.9870  -14.4173 H   0  0  0  0  0  0
  -19.8920  -65.3732  -12.0601 H   0  0  0  0  0  0
  -20.0202  -63.9504  -13.1491 H   0  0  0  0  0  0
  -18.5047  -64.2450  -12.2309 H   0  0  0  0  0  0
  -17.6668  -65.3355  -15.7209 H   0  0  0  0  0  0
  -17.1892  -64.2218  -14.3948 H   0  0  0  0  0  0
  -18.7047  -63.9273  -15.3130 H   0  0  0  0  0  0
  -20.0834  -70.3273  -13.0027 H   0  0  0  0  0  0
  1  2  1  0  0  0
  1 77  1  0  0  0
  1 78  1  0  0  0
  1 79  1  0  0  0
  2  5  1  0  0  0
  2  3  1  0  0  0
  2 80  1  0  0  0
  3  4  2  0  0  0
  3 10  1  0  0  0
  5  6  1  0  0  0
  5 81  1  0  0  0
  5 82  1  0  0  0
  6  7  1  0  0  0
  6 83  1  0  0  0
  6 84  1  0  0  0
  7  9  1  0  0  0
  7  8  2  0  0  0
  9 85  1  0  0  0
  9 86  1  0  0  0
 10 11  1  0  0  0
 10 87  1  0  0  0
 11 14  1  0  0  0
 11 12  1  0  0  0
 11 88  1  0  0  0
 12 13  2  0  0  0
 12 18  1  0  0  0
 14 15  1  0  0  0
 14 89  1  0  0  0
 14 90  1  0  0  0
 15 16  1  0  0  0
 15 17  1  0  0  0
 15 91  1  0  0  0
 16 92  1  0  0  0
 16 93  1  0  0  0
 16 94  1  0  0  0
 17 95  1  0  0  0
 17 96  1  0  0  0
 17 97  1  0  0  0
 18 19  1  0  0  0
 18 98  1  0  0  0
 19 22  1  0  0  0
 19 20  1  0  0  0
 19 99  1  0  0  0
 20 21  2  0  0  0
 20 24  1  0  0  0
 22 23  1  0  0  0
 22100  1  0  0  0
 22101  1  0  0  0
 23102  1  0  0  0
 24 25  1  0  0  0
 24 30  1  0  0  0
 25 26  1  0  0  0
 25 28  1  0  0  0
 25103  1  0  0  0
 26 27  2  0  0  0
 26 31  1  0  0  0
 28 29  1  0  0  0
 28104  1  0  0  0
 28105  1  0  0  0
 29 30  1  0  0  0
 29106  1  0  0  0
 29107  1  0  0  0
 30108  1  0  0  0
 30109  1  0  0  0
 31 32  1  0  0  0
 31110  1  0  0  0
 32 35  1  0  0  0
 32 33  1  0  0  0
 32111  1  0  0  0
 33 34  2  0  0  0
 33 42  1  0  0  0
 35 36  1  0  0  0
 35112  1  0  0  0
 35113  1  0  0  0
 36 37  2  0  0  0
 36 38  1  0  0  0
 37 39  1  0  0  0
 37114  1  0  0  0
 38 40  2  0  0  0
 38115  1  0  0  0
 39 41  2  0  0  0
 39116  1  0  0  0
 40 41  1  0  0  0
 40117  1  0  0  0
 41118  1  0  0  0
 42 43  1  0  0  0
 42 48  1  0  0  0
 43 44  1  0  0  0
 43 46  1  0  0  0
 43119  1  0  0  0
 44 45  2  0  0  0
 44 49  1  0  0  0
 46 47  1  0  0  0
 46120  1  0  0  0
 46121  1  0  0  0
 47 48  1  0  0  0
 47122  1  0  0  0
 47123  1  0  0  0
 48124  1  0  0  0
 48125  1  0  0  0
 49 50  1  0  0  0
 49126  1  0  0  0
 50 53  1  0  0  0
 50 51  1  0  0  0
 50127  1  0  0  0
 51 52  2  0  0  0
 51 60  1  0  0  0
 53 54  1  0  0  0
 53128  1  0  0  0
 53129  1  0  0  0
 54 55  2  0  0  0
 54 56  1  0  0  0
 55 57  1  0  0  0
 55130  1  0  0  0
 56 58  2  0  0  0
 56131  1  0  0  0
 57 59  2  0  0  0
 57132  1  0  0  0
 58 59  1  0  0  0
 58133  1  0  0  0
 59134  1  0  0  0
 60 61  1  0  0  0
 60135  1  0  0  0
 61 64  1  0  0  0
 61 62  1  0  0  0
 61136  1  0  0  0
 62 63  2  0  0  0
 62 68  1  0  0  0
 64 65  1  0  0  0
 64137  1  0  0  0
 64138  1  0  0  0
 65 66  2  0  0  0
 65 67  1  0  0  0
 67139  1  0  0  0
 68 69  1  0  0  0
 68140  1  0  0  0
 69 72  1  0  0  0
 69 70  1  0  0  0
 69141  1  0  0  0
 70 71  2  0  0  0
 70 76  1  0  0  0
 72 73  1  0  0  0
 72142  1  0  0  0
 72143  1  0  0  0
 73 74  1  0  0  0
 73 75  1  0  0  0
 73144  1  0  0  0
 74145  1  0  0  0
 74146  1  0  0  0
 74147  1  0  0  0
 75148  1  0  0  0
 75149  1  0  0  0
 75150  1  0  0  0
 76151  1  0  0  0
M  CHG  1   1   1
M  END
> <s_m_source_file>
../2oi9_ligand.sdf

> <i_m_source_file_index>
1

> <s_epik_input>
Tz1DKFtOSDJdKVtDSDJdW0NIMl1bQ0BIXShbTkgzK10pQyg9TylbTkhdW0NAQEhdKFtDSDJdW0NIXShbQ0gzXSlbQ0gzXSlDKD1PKVtOSF1bQ0BASF0oW0NIMl1bT0hdKUMoPU8pTjFbQ0BASF0oW0NIMl1bQ0gyXVtDSDJdMSlDKD1PKVtOSF1bQ0BASF0oW0NIMl1jMltjSF1bY0hdW2NIXVtjSF1bY0hdMilDKD1PKU4zW0NAQEhdKFtDSDJdW0NIMl1bQ0gyXTMpQyg9TylbTkhdW0NAQEhdKFtDSDJdYzRbY0hdW2NIXVtjSF1bY0hdW2NIXTQpQyg9TylbTkhdW0NAQEhdKFtDSDJdQyg9TylbT0hdKUMoPU8pW05IXVtDQEhdKEMoPU8pW09IXSlbQ0gyXVtDSF0oW0NIM10pW0NIM10=

> <s_epik_cmdline>
J2VwaWtfYXBwJywgJy1pbWFlJywgJ2xpZ2FuZF9wcm8ubWFlJywgJy1vbWFlJywgJ2xpZ2FuZF9wcmVwLm1hZScsICctbXMnLCAnMScsICctcGgnLCAnNycsICctcGh0JywgJzAuNScsICctbnQn

> <s_epik_pKa_notes>
Molecule size exceeds maximum supported for generating protonation states

$$$$
