2oic_ligand
                    3D
 Schrodinger Suite 2020-3.
 62 69  0  0  1  0            999 V2000
  -19.2060   12.5950   -3.9270 O   0  0  0  0  0  0
  -19.4840   11.9690   -5.1960 C   0  0  2  0  0  0
  -20.1470   12.9620   -6.1700 C   0  0  0  0  0  0
  -21.2590   13.8520   -5.6080 C   0  0  1  0  0  0
  -21.4710   13.6810   -4.1070 C   0  0  2  0  0  0
  -20.2810   13.1910   -3.2150 C   0  0  2  0  0  0
  -19.6730   14.3440   -2.4030 C   0  0  0  0  0  0
  -20.8400   12.1340   -2.3120 N   0  0  0  0  0  0
  -21.1800   10.8270   -2.7250 C   0  0  0  0  0  0
  -20.7420   10.1370   -3.8510 C   0  0  0  0  0  0
  -21.0940    8.7990   -4.0080 C   0  0  0  0  0  0
  -21.7930    8.1650   -2.9600 C   0  0  0  0  0  0
  -22.1910    8.8270   -1.8130 C   0  0  0  0  0  0
  -21.8690   10.1870   -1.6930 C   0  0  0  0  0  0
  -22.0990   11.1460   -0.6940 C   0  0  0  0  0  0
  -21.5590   12.3550   -1.1110 C   0  0  0  0  0  0
  -21.5980   13.5060   -0.3060 C   0  0  0  0  0  0
  -22.2670   13.4120    0.9180 C   0  0  0  0  0  0
  -22.8220   12.1910    1.3150 C   0  0  0  0  0  0
  -22.7480   11.0380    0.5250 C   0  0  0  0  0  0
  -22.9390    7.9540   -0.9250 C   0  0  0  0  0  0
  -22.9640    6.6640   -1.6590 N   0  0  0  0  0  0
  -22.2760    6.8460   -2.8310 C   0  0  0  0  0  0
  -22.1420    5.8780   -3.6870 O   0  0  0  0  0  0
  -20.5860    8.3920   -5.2430 C   0  0  0  0  0  0
  -19.9240    9.4750   -5.8230 C   0  0  0  0  0  0
  -19.3620    9.3660   -7.0940 C   0  0  0  0  0  0
  -19.4010    8.1140   -7.7280 C   0  0  0  0  0  0
  -20.0380    7.0210   -7.1060 C   0  0  0  0  0  0
  -20.6500    7.1500   -5.8570 C   0  0  0  0  0  0
  -20.1420   10.6360   -5.0380 N   0  0  0  0  0  0
  -22.5610   12.7400   -4.1920 O   0  0  0  0  0  0
  -23.7780   13.1960   -3.6340 C   0  0  0  0  0  0
  -21.2350   15.2490   -6.0430 N   0  3  0  0  0  0
  -22.0060   16.3020   -5.3550 C   0  0  0  0  0  0
  -18.5055   11.7007   -5.6210 H   0  0  0  0  0  0
  -19.3867   13.6529   -6.5632 H   0  0  0  0  0  0
  -20.6050   12.4083   -7.0028 H   0  0  0  0  0  0
  -22.1789   13.5175   -6.1098 H   0  0  0  0  0  0
  -21.7042   14.6226   -3.5884 H   0  0  0  0  0  0
  -19.2711   15.1038   -3.0894 H   0  0  0  0  0  0
  -18.8620   13.9576   -1.7682 H   0  0  0  0  0  0
  -20.4504   14.7964   -1.7698 H   0  0  0  0  0  0
  -21.1253   14.4355   -0.6233 H   0  0  0  0  0  0
  -22.3558   14.2876    1.5610 H   0  0  0  0  0  0
  -23.3318   12.1353    2.2768 H   0  0  0  0  0  0
  -23.1828   10.0946    0.8552 H   0  0  0  0  0  0
  -22.4173    7.8790    0.0405 H   0  0  0  0  0  0
  -23.9458    8.3677   -0.7665 H   0  0  0  0  0  0
  -23.4792    5.7943   -1.2252 H   0  0  0  0  0  0
  -18.9056   10.2276   -7.5813 H   0  0  0  0  0  0
  -18.9365    7.9865   -8.7058 H   0  0  0  0  0  0
  -20.0533    6.0548   -7.6103 H   0  0  0  0  0  0
  -21.1571    6.3089   -5.3842 H   0  0  0  0  0  0
  -24.5466   12.4168   -3.7441 H   0  0  0  0  0  0
  -24.1025   14.1076   -4.1572 H   0  0  0  0  0  0
  -23.6314   13.4183   -2.5667 H   0  0  0  0  0  0
  -20.2047   15.6309   -5.9930 H   0  0  0  0  0  0
  -21.6014   15.3171   -7.0779 H   0  0  0  0  0  0
  -21.8350   17.2671   -5.8543 H   0  0  0  0  0  0
  -21.6805   16.3689   -4.3064 H   0  0  0  0  0  0
  -23.0773   16.0551   -5.3914 H   0  0  0  0  0  0
  1  2  1  0  0  0
  1  6  1  0  0  0
  2  3  1  0  0  0
  2 31  1  0  0  0
  2 36  1  0  0  0
  3  4  1  0  0  0
  3 37  1  0  0  0
  3 38  1  0  0  0
  4  5  1  0  0  0
  4 34  1  0  0  0
  4 39  1  0  0  0
  5  6  1  0  0  0
  5 32  1  0  0  0
  5 40  1  0  0  0
  6  7  1  0  0  0
  6  8  1  0  0  0
  7 41  1  0  0  0
  7 42  1  0  0  0
  7 43  1  0  0  0
  8  9  1  0  0  0
  8 16  1  0  0  0
  9 10  2  0  0  0
  9 14  1  0  0  0
 10 11  1  0  0  0
 10 31  1  0  0  0
 11 12  2  0  0  0
 11 25  1  0  0  0
 12 13  1  0  0  0
 12 23  1  0  0  0
 13 14  2  0  0  0
 13 21  1  0  0  0
 14 15  1  0  0  0
 15 16  2  0  0  0
 15 20  1  0  0  0
 16 17  1  0  0  0
 17 18  2  0  0  0
 17 44  1  0  0  0
 18 19  1  0  0  0
 18 45  1  0  0  0
 19 20  2  0  0  0
 19 46  1  0  0  0
 20 47  1  0  0  0
 21 22  1  0  0  0
 21 48  1  0  0  0
 21 49  1  0  0  0
 22 23  1  0  0  0
 22 50  1  0  0  0
 23 24  2  0  0  0
 25 26  2  0  0  0
 25 30  1  0  0  0
 26 27  1  0  0  0
 26 31  1  0  0  0
 27 28  2  0  0  0
 27 51  1  0  0  0
 28 29  1  0  0  0
 28 52  1  0  0  0
 29 30  2  0  0  0
 29 53  1  0  0  0
 30 54  1  0  0  0
 32 33  1  0  0  0
 33 55  1  0  0  0
 33 56  1  0  0  0
 33 57  1  0  0  0
 34 35  1  0  0  0
 34 58  1  0  0  0
 34 59  1  0  0  0
 35 60  1  0  0  0
 35 61  1  0  0  0
 35 62  1  0  0  0
M  CHG  1  34   1
M  END
> <s_m_source_file>
../2oic_ligand.sdf

> <i_m_source_file_index>
1

> <s_epik_input>
W0NIM11PW0NAQEhdMVtDQEBIXShbTkgyK11bQ0gzXSlbQ0gyXVtDQEBIXShPMiluM2MoW2NIXVtjSF1bY0hdW2NIXTQpYzRjKGMzYzVuNltDQF0xMltDSDNdKWM3YyhbQ0gyXVtOSF1DNz1PKWM1YzhjNltjSF1bY0hdW2NIXVtjSF04

> <s_epik_cmdline>
J2VwaWtfYXBwJywgJy1pbWFlJywgJ2xpZ2FuZF9wcm8ubWFlJywgJy1vbWFlJywgJ2xpZ2FuZF9wcmVwLm1hZScsICctbXMnLCAnMScsICctcGgnLCAnNycsICctcGh0JywgJzAuNScsICctbnQn

> <r_epik_Ionization_Penalty>
  0.0560

> <r_epik_Ionization_Penalty_Charging>
  0.0560

> <r_epik_Ionization_Penalty_Neutral>
  0.0000

> <r_epik_State_Penalty>
  0.0482

> <r_epik_Charging_Adjusted_Penalty>
0.104192696511962

> <i_epik_Tot_Q>
1

> <i_epik_Tot_abs_Q>
1

> <s_epik_Chemistry_Notes>
This compound contains an acetal/aminal-like group ( X-CH(R)-Y where X, Y are N, S, or O) that may be acid/base labile, releasing an aldehyde.

$$$$
