2oiq_ligand
                    3D
 Schrodinger Suite 2020-3.
 69 73  0  0  1  0            999 V2000
  -11.1220  -38.3790    4.6200 C   0  0  0  0  0  0
   -9.7790  -38.3860    5.1300 C   0  0  0  0  0  0
   -9.2980  -37.3120    5.9840 C   0  0  0  0  0  0
  -10.2170  -36.2370    6.3060 C   0  0  0  0  0  0
  -11.5040  -36.2560    5.8020 N   0  0  0  0  0  0
  -11.9780  -37.2840    4.9760 C   0  0  0  0  0  0
   -7.9150  -37.2720    6.5440 C   0  0  0  0  0  0
   -6.8940  -38.2340    6.2310 C   0  0  0  0  0  0
   -5.6290  -38.0610    6.8560 C   0  0  0  0  0  0
   -5.4180  -37.0020    7.7260 N   0  0  0  0  0  0
   -6.4260  -36.0960    8.0030 C   0  0  0  0  0  0
   -7.6360  -36.2430    7.4180 N   0  0  0  0  0  0
   -6.2570  -35.0200    8.8790 N   0  0  0  0  0  0
   -5.0470  -34.7870    9.5530 C   0  0  0  0  0  0
   -4.7380  -35.4710   10.8230 C   0  0  0  0  0  0
   -3.4860  -35.1870   11.4650 C   0  0  0  0  0  0
   -2.5540  -34.2550   10.8850 C   0  0  0  0  0  0
   -2.8490  -33.5860    9.6540 C   0  0  0  0  0  0
   -4.1170  -33.8700    8.9950 C   0  0  0  0  0  0
   -1.8690  -32.6710    9.1410 N   0  0  0  0  0  0
   -1.9080  -31.9060    7.9800 C   0  0  0  0  0  0
   -0.8600  -30.8410    7.8060 C   0  0  0  0  0  0
   -1.0090  -29.7530    6.8310 C   0  0  0  0  0  0
    0.0370  -28.7610    6.6940 C   0  0  0  0  0  0
    1.2290  -28.8560    7.5320 C   0  0  0  0  0  0
    1.3410  -29.9390    8.4860 C   0  0  0  0  0  0
    0.3270  -30.9070    8.6230 C   0  0  0  0  0  0
    2.3970  -27.8610    7.4480 C   0  0  0  0  0  0
    3.7840  -28.4040    7.2950 N   0  3  1  0  0  0
    3.8780  -29.3120    6.1010 C   0  0  0  0  0  0
    5.3100  -29.8900    5.9360 C   0  0  0  0  0  0
    6.3280  -28.7710    5.8300 N   0  0  2  0  0  0
    7.7060  -29.2570    5.6640 C   0  0  0  0  0  0
    6.2650  -27.8480    7.0440 C   0  0  0  0  0  0
    4.8180  -27.2860    7.1930 C   0  0  0  0  0  0
   -2.7290  -32.0460    7.0730 O   0  0  0  0  0  0
   -5.6940  -36.4790   11.5050 C   0  0  0  0  0  0
  -11.4812  -39.1844    3.9794 H   0  0  0  0  0  0
   -9.1111  -39.2082    4.8731 H   0  0  0  0  0  0
   -9.8932  -35.4152    6.9446 H   0  0  0  0  0  0
  -13.0014  -37.2516    4.6024 H   0  0  0  0  0  0
   -7.0814  -39.0598    5.5447 H   0  0  0  0  0  0
   -4.8215  -38.7637    6.6505 H   0  0  0  0  0  0
   -7.0877  -34.3218    9.0593 H   0  0  0  0  0  0
   -3.2376  -35.6830   12.4033 H   0  0  0  0  0  0
   -1.6093  -34.0558   11.3910 H   0  0  0  0  0  0
   -4.3562  -33.3696    8.0567 H   0  0  0  0  0  0
   -0.9320  -32.5027    9.6921 H   0  0  0  0  0  0
   -1.9043  -29.6923    6.2123 H   0  0  0  0  0  0
   -0.0645  -27.9508    5.9719 H   0  0  0  0  0  0
    2.2303  -30.0069    9.1126 H   0  0  0  0  0  0
    0.4399  -31.7107    9.3506 H   0  0  0  0  0  0
    2.2548  -27.2012    6.5794 H   0  0  0  0  0  0
    2.4303  -27.2563    8.3663 H   0  0  0  0  0  0
    3.9885  -28.9986    8.1976 H   0  0  0  0  0  0
    3.1763  -30.1504    6.2218 H   0  0  0  0  0  0
    3.6232  -28.7488    5.1911 H   0  0  0  0  0  0
    5.5561  -30.5143    6.8076 H   0  0  0  0  0  0
    5.3557  -30.5012    5.0226 H   0  0  0  0  0  0
    7.7571  -29.9230    4.7900 H   0  0  0  0  0  0
    8.0108  -29.8100    6.5647 H   0  0  0  0  0  0
    8.3808  -28.4015    5.5131 H   0  0  0  0  0  0
    6.5345  -28.4130    7.9485 H   0  0  0  0  0  0
    6.9704  -27.0149    6.9083 H   0  0  0  0  0  0
    4.5976  -26.6618    6.3145 H   0  0  0  0  0  0
    4.7796  -26.6670    8.1015 H   0  0  0  0  0  0
   -6.6040  -36.5901   10.8971 H   0  0  0  0  0  0
   -5.9640  -36.1092   12.5052 H   0  0  0  0  0  0
   -5.1934  -37.4541   11.5974 H   0  0  0  0  0  0
  1  2  2  0  0  0
  1  6  1  0  0  0
  1 38  1  0  0  0
  2  3  1  0  0  0
  2 39  1  0  0  0
  3  4  2  0  0  0
  3  7  1  0  0  0
  4  5  1  0  0  0
  4 40  1  0  0  0
  5  6  2  0  0  0
  6 41  1  0  0  0
  7  8  2  0  0  0
  7 12  1  0  0  0
  8  9  1  0  0  0
  8 42  1  0  0  0
  9 10  2  0  0  0
  9 43  1  0  0  0
 10 11  1  0  0  0
 11 12  2  0  0  0
 11 13  1  0  0  0
 13 14  1  0  0  0
 13 44  1  0  0  0
 14 15  2  0  0  0
 14 19  1  0  0  0
 15 16  1  0  0  0
 15 37  1  0  0  0
 16 17  2  0  0  0
 16 45  1  0  0  0
 17 18  1  0  0  0
 17 46  1  0  0  0
 18 19  2  0  0  0
 18 20  1  0  0  0
 19 47  1  0  0  0
 20 21  1  0  0  0
 20 48  1  0  0  0
 21 22  1  0  0  0
 21 36  2  0  0  0
 22 23  2  0  0  0
 22 27  1  0  0  0
 23 24  1  0  0  0
 23 49  1  0  0  0
 24 25  2  0  0  0
 24 50  1  0  0  0
 25 26  1  0  0  0
 25 28  1  0  0  0
 26 27  2  0  0  0
 26 51  1  0  0  0
 27 52  1  0  0  0
 28 29  1  0  0  0
 28 53  1  0  0  0
 28 54  1  0  0  0
 29 30  1  0  0  0
 29 35  1  0  0  0
 29 55  1  0  0  0
 30 31  1  0  0  0
 30 56  1  0  0  0
 30 57  1  0  0  0
 31 32  1  0  0  0
 31 58  1  0  0  0
 31 59  1  0  0  0
 32 33  1  0  0  0
 32 34  1  0  0  0
 33 60  1  0  0  0
 33 61  1  0  0  0
 33 62  1  0  0  0
 34 35  1  0  0  0
 34 63  1  0  0  0
 34 64  1  0  0  0
 35 65  1  0  0  0
 35 66  1  0  0  0
 37 67  1  0  0  0
 37 68  1  0  0  0
 37 69  1  0  0  0
M  CHG  1  29   1
M  END
> <s_m_source_file>
../2oiq_ligand.sdf

> <i_m_source_file_index>
1

> <s_epik_input>
W2NIXTFuW2NIXVtjSF1bY0hdYzEtYzJbY0hdW2NIXW5jKG4yKVtOSF1jM2MoW0NIM10pW2NIXVtjSF1jKFtjSF0zKVtOSF1DKD1PKWM0W2NIXVtjSF1jKFtjSF1bY0hdNClbQ0gyXVtOQEgrXTVbQ0gyXVtDSDJdW05ASCtdKFtDSDNdKVtDSDJdW0NIMl01

> <s_epik_cmdline>
J2VwaWtfYXBwJywgJy1pbWFlJywgJ2xpZ2FuZF9wcm8ubWFlJywgJy1vbWFlJywgJ2xpZ2FuZF9wcmVwLm1hZScsICctbXMnLCAnMScsICctcGgnLCAnNycsICctcGh0JywgJzAuNScsICctbnQn

> <r_lp_tautomer_probability>
1

> <r_epik_Ionization_Penalty>
  0.0173

> <r_epik_Ionization_Penalty_Charging>
  0.0155

> <r_epik_Ionization_Penalty_Neutral>
  0.0019

> <r_epik_State_Penalty>
 -0.0000

> <r_epik_Charging_Adjusted_Penalty>
0.0154526225118262

> <i_epik_Tot_Q>
1

> <i_epik_Tot_abs_Q>
1

$$$$
