2oj9_ligand
                    3D
 Schrodinger Suite 2020-3.
 48 52  0  0  1  0            999 V2000
    3.1460   -4.5250   18.4410 C   0  0  0  0  0  0
    2.7560   -5.6360   17.8830 O   0  0  0  0  0  0
    4.9310   -3.2670   21.6820 N   0  0  0  0  0  0
    2.8980   -3.3310   17.9320 N   0  0  0  0  0  0
    4.2240   -3.3630   20.4270 C   0  0  0  0  0  0
    3.9510   -2.1660   19.7420 C   0  0  0  0  0  0
    3.2890   -2.2380   18.5760 C   0  0  0  0  0  0
    6.1460   -2.3190   21.8520 C   0  0  0  0  0  0
    8.4580   -4.0300   24.2910 C   0  0  0  0  0  0
    7.5420   -3.1670   23.7480 C   0  0  0  0  0  0
    9.0360   -4.9650   23.4230 C   0  0  0  0  0  0
    7.2110   -3.2340   22.4120 C   0  0  0  0  0  0
    7.7620   -4.1500   21.5760 N   0  0  0  0  0  0
    8.6570   -5.0060   22.0630 C   0  0  0  0  0  0
    3.8190   -4.5490   19.7500 C   0  0  2  0  0  0
    5.9250  -12.1070   22.5390 C   0  0  0  0  0  0
    5.5650   -9.8540   21.5280 C   0  0  0  0  0  0
    5.0230   -9.2590   20.4490 C   0  0  0  0  0  0
    5.9050  -11.2140   21.5020 N   0  0  0  0  0  0
    6.3110  -11.8600   20.4050 C   0  0  0  0  0  0
    6.6000  -13.1510   20.6500 N   0  0  0  0  0  0
    6.3520  -13.3410   21.9890 C   0  0  0  0  0  0
    4.7380   -7.8890   20.5150 C   0  0  0  0  0  0
    4.6790   -5.9430   21.4200 N   0  0  0  0  0  0
    4.1620   -5.8220   20.3210 C   0  0  3  0  0  0
    4.2050   -6.9530   19.6740 N   0  0  0  0  0  0
    5.0030   -7.2570   21.5870 C   0  0  0  0  0  0
    5.5310   -7.8880   22.6180 C   0  0  0  0  0  0
    5.7990   -9.1700   22.6200 C   0  0  0  0  0  0
    5.7950   -7.0590   23.8340 C   0  0  0  0  0  0
    4.5919   -3.8835   22.5275 H   0  0  0  0  0  0
    4.2780   -1.2041   20.1637 H   0  0  0  0  0  0
    3.0743   -1.2449   18.1546 H   0  0  0  0  0  0
    6.4212   -1.8967   20.8743 H   0  0  0  0  0  0
    5.8816   -1.5041   22.5420 H   0  0  0  0  0  0
    8.7238   -3.9906   25.3474 H   0  0  0  0  0  0
    7.0687   -2.4171   24.3819 H   0  0  0  0  0  0
    9.7823   -5.6648   23.7991 H   0  0  0  0  0  0
    9.1040   -5.7494   21.4029 H   0  0  0  0  0  0
    3.1040   -3.9484   20.3315 H   0  0  0  0  0  0
    5.6648  -11.9088   23.5788 H   0  0  0  0  0  0
    4.8141   -9.8473   19.5433 H   0  0  0  0  0  0
    6.3981  -11.3941   19.4234 H   0  0  0  0  0  0
    6.4644  -14.2787   22.5332 H   0  0  0  0  0  0
    6.2095   -9.6447   23.5234 H   0  0  0  0  0  0
    5.5066   -6.0160   23.6364 H   0  0  0  0  0  0
    6.8658   -7.1026   24.0821 H   0  0  0  0  0  0
    5.2069   -7.4485   24.6780 H   0  0  0  0  0  0
  1  2  2  0  0  0
  1  4  1  0  0  0
  1 15  1  0  0  0
  3  5  1  0  0  0
  3  8  1  0  0  0
  3 31  1  0  0  0
  4  7  2  0  0  0
  5  6  2  0  0  0
  5 15  1  0  0  0
  6  7  1  0  0  0
  6 32  1  0  0  0
  7 33  1  0  0  0
  8 12  1  0  0  0
  8 34  1  0  0  0
  8 35  1  0  0  0
  9 10  2  0  0  0
  9 11  1  0  0  0
  9 36  1  0  0  0
 10 12  1  0  0  0
 10 37  1  0  0  0
 11 14  2  0  0  0
 11 38  1  0  0  0
 12 13  2  0  0  0
 13 14  1  0  0  0
 14 39  1  0  0  0
 15 25  1  0  0  0
 15 40  1  0  0  0
 16 19  1  0  0  0
 16 22  2  0  0  0
 16 41  1  0  0  0
 17 18  2  0  0  0
 17 19  1  0  0  0
 17 29  1  0  0  0
 18 23  1  0  0  0
 18 42  1  0  0  0
 19 20  1  0  0  0
 20 21  2  0  0  0
 20 43  1  0  0  0
 21 22  1  0  0  0
 22 44  1  0  0  0
 23 26  2  0  0  0
 23 27  1  0  0  0
 24 25  1  0  0  0
 24 27  2  0  0  0
 25 26  1  0  0  0
 27 28  1  0  0  0
 28 29  2  0  0  0
 28 30  1  0  0  0
 29 45  1  0  0  0
 30 46  1  0  0  0
 30 47  1  0  0  0
 30 48  1  0  0  0
M  END
> <s_m_source_file>
../2oj9_ligand.sdf

> <i_m_source_file_index>
1

> <s_epik_input>
bjFbY0hdW2NIXVtjSF1bY0hdYzFbQ0gyXVtOSF1DKD1bQ0hdW0NIXT1OQzI9TylbQ0BASF0yW0NIXShOMylOPWMoYz0zNCljKFtDSDNdKVtjSF1jKFtjSF00KS1uNVtjSF1bY0hdbltjSF01

> <s_epik_cmdline>
J2VwaWtfYXBwJywgJy1pbWFlJywgJ2xpZ2FuZF9wcm8ubWFlJywgJy1vbWFlJywgJ2xpZ2FuZF9wcmVwLm1hZScsICctbXMnLCAnMScsICctcGgnLCAnNycsICctcGh0JywgJzAuNScsICctbnQn

> <r_lp_tautomer_probability>
1

> <r_epik_Ionization_Penalty>
  0.0042

> <r_epik_Ionization_Penalty_Charging>
  0.0005

> <r_epik_Ionization_Penalty_Neutral>
  0.0037

> <r_epik_State_Penalty>
 -0.0000

> <r_epik_Charging_Adjusted_Penalty>
0.000537775225035666

> <i_epik_Tot_Q>
0

> <i_epik_Tot_abs_Q>
0

> <s_epik_Chemistry_Notes>
This compound has an imine and may undergo hydrolysis.

$$$$
