2ojg_ligand
                    3D
 Schrodinger Suite 2020-3.
 36 38  0  0  1  0            999 V2000
   -9.1600   13.4150   41.2390 C   0  0  0  0  0  0
  -10.6260   13.2630   41.1770 N   0  0  0  0  0  0
  -11.4360   14.2250   41.9340 C   0  0  0  0  0  0
  -11.1760   12.2240   40.4120 C   0  0  0  0  0  0
  -10.4080   11.4850   39.8100 O   0  0  0  0  0  0
  -12.6640   11.9330   40.2690 C   0  0  0  0  0  0
  -13.7000   12.3210   41.0960 C   0  0  0  0  0  0
  -14.9110   11.8230   40.5940 C   0  0  3  0  0  0
  -14.5920   11.1230   39.4520 C   0  0  0  0  0  0
  -13.2440   11.1880   39.2590 N   0  0  0  0  0  0
  -16.2930   12.0050   41.1940 C   0  0  0  0  0  0
  -17.2510   11.0900   41.1270 N   0  0  0  0  0  0
  -18.3840   11.5640   41.7800 N   0  3  0  0  0  0
  -18.1310   12.7850   42.2610 C   0  0  0  0  0  0
  -16.8370   13.1240   41.9330 C   0  0  0  0  0  0
  -16.1830   14.4280   42.3110 C   0  0  0  0  0  0
  -15.4870   15.2460   41.3680 C   0  0  0  0  0  0
  -14.8960   16.4610   41.7790 C   0  0  0  0  0  0
  -15.0050   16.8690   43.1270 C   0  0  0  0  0  0
  -15.6960   16.0630   44.0740 C   0  0  0  0  0  0
  -16.2800   14.8590   43.6720 C   0  0  0  0  0  0
   -8.9071   14.2736   41.8784 H   0  0  0  0  0  0
   -8.7657   13.5835   40.2260 H   0  0  0  0  0  0
   -8.7141   12.5013   41.6588 H   0  0  0  0  0  0
  -10.7740   14.9374   42.4480 H   0  0  0  0  0  0
  -12.0441   13.6879   42.6768 H   0  0  0  0  0  0
  -12.0969   14.7706   41.2444 H   0  0  0  0  0  0
  -13.4928   12.9291   41.9889 H   0  0  0  0  0  0
  -15.2233   10.5697   38.7412 H   0  0  0  0  0  0
  -18.7568   13.4889   42.8293 H   0  0  0  0  0  0
  -15.4120   14.9308   40.3273 H   0  0  0  0  0  0
  -14.3590   17.0802   41.0604 H   0  0  0  0  0  0
  -14.5556   17.8099   43.4445 H   0  0  0  0  0  0
  -15.7698   16.3846   45.1129 H   0  0  0  0  0  0
  -16.8121   14.2451   44.3987 H   0  0  0  0  0  0
  -19.2904   10.9428   41.8298 H   0  0  0  0  0  0
  1  2  1  0  0  0
  1 22  1  0  0  0
  1 23  1  0  0  0
  1 24  1  0  0  0
  2  3  1  0  0  0
  2  4  1  0  0  0
  3 25  1  0  0  0
  3 26  1  0  0  0
  3 27  1  0  0  0
  4  5  2  0  0  0
  4  6  1  0  0  0
  6  7  2  0  0  0
  6 10  1  0  0  0
  7  8  1  0  0  0
  7 28  1  0  0  0
  8  9  1  0  0  0
  8 11  1  0  0  0
  9 10  2  0  0  0
  9 29  1  0  0  0
 11 12  2  0  0  0
 11 15  1  0  0  0
 12 13  1  0  0  0
 13 14  1  0  0  0
 13 36  1  0  0  0
 14 15  2  0  0  0
 14 30  1  0  0  0
 15 16  1  0  0  0
 16 17  2  0  0  0
 16 21  1  0  0  0
 17 18  1  0  0  0
 17 31  1  0  0  0
 18 19  2  0  0  0
 18 32  1  0  0  0
 19 20  1  0  0  0
 19 33  1  0  0  0
 20 21  2  0  0  0
 20 34  1  0  0  0
 21 35  1  0  0  0
M  CHG  1  13   1
M  END
> <s_m_source_file>
../2ojg_ligand.sdf

> <i_m_source_file_index>
1

> <s_epik_input>
W0NIM11OKFtDSDNdKUMoPU8pQzE9W0NIXVtDSF0oW0NIXT1OMSljMm5bbkhdW2NIXWMyLWMzW2NIXVtjSF1bY0hdW2NIXVtjSF0z

> <s_epik_cmdline>
J2VwaWtfYXBwJywgJy1pbWFlJywgJ2xpZ2FuZF9wcm8ubWFlJywgJy1vbWFlJywgJ2xpZ2FuZF9wcmVwLm1hZScsICctbXMnLCAnMScsICctcGgnLCAnNycsICctcGh0JywgJzAuNScsICctbnQn

> <r_epik_Ionization_Penalty>
  0.0000

> <r_epik_Ionization_Penalty_Charging>
  0.0000

> <r_epik_Ionization_Penalty_Neutral>
  0.0000

> <r_epik_State_Penalty>
  0.0137

> <r_epik_Charging_Adjusted_Penalty>
0.0136905608706429

> <i_epik_Tot_Q>
1

> <i_epik_Tot_abs_Q>
1

> <s_epik_Chemistry_Notes>
This compound has an imine and may undergo hydrolysis.

$$$$
