2oji_ligand
                    3D
 Schrodinger Suite 2020-3.
 44 47  0  0  1  0            999 V2000
  -15.0190   16.5280   41.7210 C   0  0  0  0  0  0
  -15.1330   16.9420   43.0660 C   0  0  0  0  0  0
  -15.8810   16.1680   43.9790 C   0  0  0  0  0  0
  -16.5060   14.9910   43.5450 C   0  0  0  0  0  0
  -16.3990   14.5670   42.1920 C   0  0  0  0  0  0
  -15.6460   15.3510   41.2780 C   0  0  0  0  0  0
  -17.1040   13.3000   41.7970 C   0  0  0  0  0  0
  -14.0950   17.4800   40.6190 Cl  0  0  0  0  0  0
  -18.3780   13.0100   42.1990 C   0  0  0  0  0  0
  -18.7230   11.8160   41.7000 N   0  3  0  0  0  0
  -17.6560   11.3130   40.9530 N   0  0  0  0  0  0
  -16.6530   12.1800   40.9800 C   0  0  0  0  0  0
  -15.3240   11.9530   40.2680 C   0  0  0  0  0  0
  -15.1460   11.2170   39.1160 C   0  0  0  0  0  0
  -13.8340   11.2270   38.7860 N   0  3  0  0  0  0
  -13.1400   11.9770   39.7230 C   0  0  0  0  0  0
  -14.0460   12.4250   40.6380 C   0  0  0  0  0  0
  -11.6870   12.2440   39.7410 C   0  0  0  0  0  0
  -10.9670   11.6280   38.9740 O   0  0  0  0  0  0
  -11.1610   13.1890   40.6010 N   0  0  0  0  0  0
   -9.7020   13.5030   40.6460 C   0  0  0  0  0  0
   -9.3670   14.6840   39.7390 C   0  0  0  0  0  0
   -8.0520   14.8510   39.2360 C   0  0  0  0  0  0
   -7.7490   15.9470   38.3900 C   0  0  0  0  0  0
   -8.7530   16.8810   38.0400 C   0  0  0  0  0  0
  -10.0600   16.7300   38.5320 C   0  0  0  0  0  0
  -10.3690   15.6310   39.3840 C   0  0  0  0  0  0
  -14.6442   17.8577   43.3987 H   0  0  0  0  0  0
  -15.9723   16.4845   45.0180 H   0  0  0  0  0  0
  -17.0808   14.3937   44.2528 H   0  0  0  0  0  0
  -15.5548   15.0410   40.2370 H   0  0  0  0  0  0
  -18.9311   13.7215   42.8298 H   0  0  0  0  0  0
  -16.0096   10.7411   38.6284 H   0  0  0  0  0  0
  -13.7133   13.0456   41.4831 H   0  0  0  0  0  0
  -11.8582   13.7175   41.2678 H   0  0  0  0  0  0
   -9.4133   13.7574   41.6765 H   0  0  0  0  0  0
   -9.1278   12.6269   40.3100 H   0  0  0  0  0  0
   -7.2732   14.1357   39.5002 H   0  0  0  0  0  0
   -6.7363   16.0713   38.0065 H   0  0  0  0  0  0
   -8.5115   17.7197   37.3870 H   0  0  0  0  0  0
  -10.8333   17.4496   38.2634 H   0  0  0  0  0  0
  -11.3824   15.5140   39.7679 H   0  0  0  0  0  0
  -13.4878   10.6886   37.8914 H   0  0  0  0  0  0
  -19.6517   11.2339   41.7935 H   0  0  0  0  0  0
  1  2  2  0  0  0
  1  6  1  0  0  0
  1  8  1  0  0  0
  2  3  1  0  0  0
  2 28  1  0  0  0
  3  4  2  0  0  0
  3 29  1  0  0  0
  4  5  1  0  0  0
  4 30  1  0  0  0
  5  6  2  0  0  0
  5  7  1  0  0  0
  6 31  1  0  0  0
  7  9  2  0  0  0
  7 12  1  0  0  0
  9 10  1  0  0  0
  9 32  1  0  0  0
 10 11  1  0  0  0
 10 44  1  0  0  0
 11 12  2  0  0  0
 12 13  1  0  0  0
 13 14  2  0  0  0
 13 17  1  0  0  0
 14 15  1  0  0  0
 14 33  1  0  0  0
 15 16  1  0  0  0
 15 43  1  0  0  0
 16 17  2  0  0  0
 16 18  1  0  0  0
 17 34  1  0  0  0
 18 19  2  0  0  0
 18 20  1  0  0  0
 20 21  1  0  0  0
 20 35  1  0  0  0
 21 22  1  0  0  0
 21 36  1  0  0  0
 21 37  1  0  0  0
 22 23  2  0  0  0
 22 27  1  0  0  0
 23 24  1  0  0  0
 23 38  1  0  0  0
 24 25  2  0  0  0
 24 39  1  0  0  0
 25 26  1  0  0  0
 25 40  1  0  0  0
 26 27  2  0  0  0
 26 41  1  0  0  0
 27 42  1  0  0  0
M  CHG  2  10   1  15   1
M  END
> <s_m_source_file>
../2oji_ligand.sdf

> <i_m_source_file_index>
1

> <s_epik_input>
Q2xjMVtjSF1bY0hdW2NIXWMoW2NIXTEpLWMyW2NIXVtuSF1uYzItYzNbY0hdW25IXWMoW2NIXTMpQyg9TylbTkhdW0NIMl1jNFtjSF1bY0hdW2NIXVtjSF1bY0hdNA==

> <s_epik_cmdline>
J2VwaWtfYXBwJywgJy1pbWFlJywgJ2xpZ2FuZF9wcm8ubWFlJywgJy1vbWFlJywgJ2xpZ2FuZF9wcmVwLm1hZScsICctbXMnLCAnMScsICctcGgnLCAnNycsICctcGh0JywgJzAuNScsICctbnQn

> <r_epik_Ionization_Penalty>
  0.0013

> <r_epik_Ionization_Penalty_Charging>
  0.0000

> <r_epik_Ionization_Penalty_Neutral>
  0.0013

> <r_epik_State_Penalty>
  0.2405

> <r_epik_Charging_Adjusted_Penalty>
0.240532542147385

> <i_epik_Tot_Q>
2

> <i_epik_Tot_abs_Q>
2

> <s_epik_Chemistry_Notes>
This compound has an imine and may undergo hydrolysis.

$$$$
