2ok1_ligand
                    3D
 Schrodinger Suite 2020-3.
 44 47  0  0  1  0            999 V2000
   -3.4060   10.2520   21.9310 C   0  0  0  0  0  0
   -3.6070   11.6320   22.1580 C   0  0  0  0  0  0
   -4.9090   12.1740   22.1280 C   0  0  0  0  0  0
   -6.0190   11.3500   21.8610 C   0  0  0  0  0  0
   -5.8430    9.9530   21.6340 C   0  0  0  0  0  0
   -4.5110    9.4160   21.6670 C   0  0  0  0  0  0
   -7.0010    9.0210   21.3370 C   0  0  0  0  0  0
   -1.7920    9.5870   21.9640 Cl  0  0  0  0  0  0
   -6.8530    7.8560   20.6300 C   0  0  0  0  0  0
   -8.0420    7.2500   20.5290 N   0  3  0  0  0  0
   -8.9940    8.0230   21.1790 N   0  0  0  0  0  0
   -8.4240    9.0970   21.6820 C   0  0  0  0  0  0
   -9.2210   10.1220   22.4430 C   0  0  0  0  0  0
   -8.8550   10.8910   23.5220 C   0  0  0  0  0  0
   -9.9060   11.6660   23.8790 N   0  3  0  0  0  0
  -10.9640   11.4000   23.0350 C   0  0  0  0  0  0
  -10.5550   10.4520   22.1450 C   0  0  0  0  0  0
  -12.3010   12.0180   23.0730 C   0  0  0  0  0  0
  -12.5460   12.8870   23.8990 O   0  0  0  0  0  0
  -13.2480   11.6100   22.1770 N   0  0  0  0  0  0
  -14.6020   12.1830   22.1460 C   0  0  0  0  0  0
  -14.7690   12.9390   20.8550 C   0  0  0  0  0  0
  -14.5430   14.3340   20.8220 C   0  0  0  0  0  0
  -14.6960   15.0440   19.6100 C   0  0  0  0  0  0
  -15.0660   14.3630   18.4320 C   0  0  0  0  0  0
  -15.2920   12.9700   18.4660 C   0  0  0  0  0  0
  -15.1390   12.2560   19.6770 C   0  0  0  0  0  0
   -2.7533   12.2799   22.3569 H   0  0  0  0  0  0
   -5.0568   13.2380   22.3128 H   0  0  0  0  0  0
   -7.0190   11.7824   21.8276 H   0  0  0  0  0  0
   -4.3528    8.3528   21.4864 H   0  0  0  0  0  0
   -5.8621    7.5642   20.2519 H   0  0  0  0  0  0
   -7.8419   10.8033   23.9416 H   0  0  0  0  0  0
  -11.2474   10.0890   21.3711 H   0  0  0  0  0  0
  -12.9672   10.8232   21.4613 H   0  0  0  0  0  0
  -15.3442   11.3734   22.2065 H   0  0  0  0  0  0
  -14.7317   12.8639   23.0001 H   0  0  0  0  0  0
  -14.2511   14.8612   21.7303 H   0  0  0  0  0  0
  -14.5276   16.1206   19.5856 H   0  0  0  0  0  0
  -15.1773   14.9114   17.4966 H   0  0  0  0  0  0
  -15.5849   12.4439   17.5574 H   0  0  0  0  0  0
  -15.3067   11.1792   19.7004 H   0  0  0  0  0  0
   -9.8137   12.3616   24.7261 H   0  0  0  0  0  0
   -8.3365    6.3077   20.0438 H   0  0  0  0  0  0
  1  2  2  0  0  0
  1  6  1  0  0  0
  1  8  1  0  0  0
  2  3  1  0  0  0
  2 28  1  0  0  0
  3  4  2  0  0  0
  3 29  1  0  0  0
  4  5  1  0  0  0
  4 30  1  0  0  0
  5  6  2  0  0  0
  5  7  1  0  0  0
  6 31  1  0  0  0
  7  9  2  0  0  0
  7 12  1  0  0  0
  9 10  1  0  0  0
  9 32  1  0  0  0
 10 11  1  0  0  0
 10 44  1  0  0  0
 11 12  2  0  0  0
 12 13  1  0  0  0
 13 14  2  0  0  0
 13 17  1  0  0  0
 14 15  1  0  0  0
 14 33  1  0  0  0
 15 16  1  0  0  0
 15 43  1  0  0  0
 16 17  2  0  0  0
 16 18  1  0  0  0
 17 34  1  0  0  0
 18 19  2  0  0  0
 18 20  1  0  0  0
 20 21  1  0  0  0
 20 35  1  0  0  0
 21 22  1  0  0  0
 21 36  1  0  0  0
 21 37  1  0  0  0
 22 23  2  0  0  0
 22 27  1  0  0  0
 23 24  1  0  0  0
 23 38  1  0  0  0
 24 25  2  0  0  0
 24 39  1  0  0  0
 25 26  1  0  0  0
 25 40  1  0  0  0
 26 27  2  0  0  0
 26 41  1  0  0  0
 27 42  1  0  0  0
M  CHG  2  10   1  15   1
M  END
> <s_m_source_file>
../2ok1_ligand.sdf

> <i_m_source_file_index>
1

> <s_epik_input>
Q2xjMVtjSF1bY0hdW2NIXWMoW2NIXTEpLWMyW2NIXVtuSF1uYzItYzNbY0hdW25IXWMoW2NIXTMpQyg9TylbTkhdW0NIMl1jNFtjSF1bY0hdW2NIXVtjSF1bY0hdNA==

> <s_epik_cmdline>
J2VwaWtfYXBwJywgJy1pbWFlJywgJ2xpZ2FuZF9wcm8ubWFlJywgJy1vbWFlJywgJ2xpZ2FuZF9wcmVwLm1hZScsICctbXMnLCAnMScsICctcGgnLCAnNycsICctcGh0JywgJzAuNScsICctbnQn

> <r_epik_Ionization_Penalty>
  0.0013

> <r_epik_Ionization_Penalty_Charging>
  0.0000

> <r_epik_Ionization_Penalty_Neutral>
  0.0013

> <r_epik_State_Penalty>
  0.2405

> <r_epik_Charging_Adjusted_Penalty>
0.240532542147385

> <i_epik_Tot_Q>
2

> <i_epik_Tot_abs_Q>
2

> <s_epik_Chemistry_Notes>
This compound has an imine and may undergo hydrolysis.

$$$$
