2on6_ligand
                    3D
 Schrodinger Suite 2020-3.
 33 35  0  0  1  0            999 V2000
   13.5460   11.8920   57.8740 C   0  0  0  0  0  0
   14.5140   12.6510   57.2000 C   0  0  0  0  0  0
   14.9500   11.9320   56.0930 N   0  3  0  0  0  0
   14.3450   10.7150   56.0180 C   0  0  0  0  0  0
   14.3540    9.5200   55.1430 C   0  0  0  0  0  0
   15.1470    9.4410   54.0480 O   0  0  0  0  0  0
   13.5340    8.4750   55.4520 N   0  0  0  0  0  0
   12.7090    8.4630   56.5240 C   0  0  0  0  0  0
   12.6340    9.5040   57.3650 N   0  0  0  0  0  0
   13.4170   10.5970   57.1610 C   0  0  0  0  0  0
   11.8990   15.7990   61.6140 O   0  0  0  0  0  0
   11.0290   14.9850   60.8250 C   0  0  0  0  0  0
   11.5770   13.5810   60.7170 C   0  0  1  0  0  0
   11.7040   13.1300   59.3210 N   0  0  1  0  0  0
   12.9960   13.5380   61.2970 C   0  0  1  0  0  0
   13.0530   13.0910   62.6700 O   0  0  0  0  0  0
   13.8320   12.7190   60.2760 C   0  0  1  0  0  0
   14.7220   11.7240   60.8560 O   0  0  0  0  0  0
   12.8400   12.2090   59.1820 C   0  0  2  0  0  0
   14.7998   13.6422   57.5820 H   0  0  0  0  0  0
   13.5204    7.5792   54.8138 H   0  0  0  0  0  0
   12.0899    7.5850   56.7084 H   0  0  0  0  0  0
   11.6501   16.8551   61.7951 H   0  0  0  0  0  0
   10.0355   14.9469   61.2957 H   0  0  0  0  0  0
   10.9405   15.4140   59.8160 H   0  0  0  0  0  0
   10.8571   12.9246   61.2277 H   0  0  0  0  0  0
   10.7827   12.6109   59.0182 H   0  0  0  0  0  0
   13.4244   14.5340   61.4827 H   0  0  0  0  0  0
   12.4852   13.6249   63.4462 H   0  0  0  0  0  0
   14.6458   13.3142   59.8361 H   0  0  0  0  0  0
   15.4447   12.0179   61.6315 H   0  0  0  0  0  0
   12.3454   11.2287   59.2480 H   0  0  0  0  0  0
   15.6955   12.3688   55.4122 H   0  0  0  0  0  0
  1  2  2  0  0  0
  1 10  1  0  0  0
  1 19  1  0  0  0
  2  3  1  0  0  0
  2 20  1  0  0  0
  3  4  1  0  0  0
  3 33  1  0  0  0
  4  5  1  0  0  0
  4 10  2  0  0  0
  5  6  2  0  0  0
  5  7  1  0  0  0
  7  8  1  0  0  0
  7 21  1  0  0  0
  8  9  2  0  0  0
  8 22  1  0  0  0
  9 10  1  0  0  0
 11 12  1  0  0  0
 11 23  1  0  0  0
 12 13  1  0  0  0
 12 24  1  0  0  0
 12 25  1  0  0  0
 13 14  1  0  0  0
 13 15  1  0  0  0
 13 26  1  0  0  0
 14 19  1  0  0  0
 14 27  1  0  0  0
 15 16  1  0  0  0
 15 17  1  0  0  0
 15 28  1  0  0  0
 16 29  1  0  0  0
 17 18  1  0  0  0
 17 19  1  0  0  0
 17 30  1  0  0  0
 18 31  1  0  0  0
 19 32  1  0  0  0
M  CHG  1   3   1
M  END
> <s_m_source_file>
../2on6_ligand.sdf

> <i_m_source_file_index>
1

> <s_epik_input>
W09IXVtDSDJdW0NASF0xW05IMitdW0NASF0oW0NASF0oW09IXSlbQ0BASF0xW09IXSljKFtjSF1bbkhdMiljKGMyMyluW2NIXVtuSF1jMz1P

> <s_epik_cmdline>
J2VwaWtfYXBwJywgJy1pbWFlJywgJ2xpZ2FuZF9wcm8ubWFlJywgJy1vbWFlJywgJ2xpZ2FuZF9wcmVwLm1hZScsICctbXMnLCAnMScsICctcGgnLCAnNycsICctcGh0JywgJzAuNScsICctbnQn

> <r_epik_Ionization_Penalty>
  0.0679

> <r_epik_Ionization_Penalty_Charging>
  0.0000

> <r_epik_Ionization_Penalty_Neutral>
  0.0679

> <r_epik_State_Penalty>
  0.0590

> <r_epik_Charging_Adjusted_Penalty>
0.0590546937217894

> <i_epik_Tot_Q>
1

> <i_epik_Tot_abs_Q>
1

$$$$
