2onb_ligand
                    3D
 Schrodinger Suite 2020-3.
 19 18  0  0  1  0            999 V2000
   51.4810  -14.0090   24.8910 O   0  5  0  0  0  0
   52.7180  -12.7770   26.7340 O   0  0  0  0  0  0
   50.8790  -17.6940   26.8310 C   0  0  0  0  0  0
   51.3140  -16.5480   27.7530 C   0  0  0  0  0  0
   50.4480  -19.4620   27.1570 P   0  0  0  0  0  0
   52.0970  -15.4400   27.0350 C   0  0  0  0  0  0
   51.5920  -13.7620   26.4150 P   0  0  0  0  0  0
   51.5400  -19.8480   28.1780 O   0  5  0  0  0  0
   50.6270  -20.2640   25.8670 O   0  0  0  0  0  0
   50.2560  -13.3580   27.0200 O   0  0  0  0  0  0
   49.0530  -19.5720   27.7130 O   0  0  0  0  0  0
   53.7332  -12.9597   26.3520 H   0  0  0  0  0  0
   49.9446  -17.4189   26.3199 H   0  0  0  0  0  0
   51.6641  -17.8816   26.0837 H   0  0  0  0  0  0
   50.4250  -16.0814   28.2025 H   0  0  0  0  0  0
   51.9624  -16.9435   28.5487 H   0  0  0  0  0  0
   52.9310  -15.1091   27.6713 H   0  0  0  0  0  0
   52.4924  -15.8274   26.0844 H   0  0  0  0  0  0
   51.6001  -20.2709   25.3542 H   0  0  0  0  0  0
  1  7  1  0  0  0
  2  7  1  0  0  0
  2 12  1  0  0  0
  3  4  1  0  0  0
  3  5  1  0  0  0
  3 13  1  0  0  0
  3 14  1  0  0  0
  4  6  1  0  0  0
  4 15  1  0  0  0
  4 16  1  0  0  0
  5  8  1  0  0  0
  5  9  1  0  0  0
  5 11  2  0  0  0
  6  7  1  0  0  0
  6 17  1  0  0  0
  6 18  1  0  0  0
  7 10  2  0  0  0
  9 19  1  0  0  0
M  CHG  2   1  -1   8  -1
M  END
> <s_m_source_file>
../2onb_ligand.sdf

> <i_m_source_file_index>
1

> <s_epik_input>
W09IXVAoPU8pKFtPSF0pW0NIMl1bQ0gyXVtDSDJdUCg9TykoW09IXSlbT0hd

> <s_epik_cmdline>
J2VwaWtfYXBwJywgJy1pbWFlJywgJ2xpZ2FuZF9wcm8ubWFlJywgJy1vbWFlJywgJ2xpZ2FuZF9wcmVwLm1hZScsICctbXMnLCAnMScsICctcGgnLCAnNycsICctcGh0JywgJzAuNScsICctbnQn

> <r_lp_tautomer_probability>
1

> <r_epik_Ionization_Penalty>
  0.1721

> <r_epik_Ionization_Penalty_Charging>
  0.0000

> <r_epik_Ionization_Penalty_Neutral>
  0.1720

> <r_epik_State_Penalty>
 -0.0000

> <r_epik_Charging_Adjusted_Penalty>
3.88748425325148e-05

> <i_epik_Tot_Q>
-2

> <i_epik_Tot_abs_Q>
2

$$$$
