2onc_ligand
                    3D
 Schrodinger Suite 2020-3.
 50 53  0  0  1  0            999 V2000
  -43.4770  -20.3300   19.0220 N   0  3  0  0  0  0
  -45.8340  -21.2380   16.3980 C   0  0  0  0  0  0
  -44.8550  -20.7110   15.3710 C   0  0  0  0  0  0
  -43.6780  -19.3870   16.9680 C   0  0  0  0  0  0
  -43.7380  -18.7240   14.6910 C   0  0  3  0  0  0
  -43.7220  -16.6570   13.4990 C   0  0  0  0  0  0
  -42.6830  -15.0430   11.4940 C   0  0  0  0  0  0
  -42.7010  -17.1230   12.6830 C   0  0  0  0  0  0
  -40.6500  -20.7220   14.1100 C   0  0  0  0  0  0
  -40.0220  -21.6200   13.2430 C   0  0  0  0  0  0
  -38.6320  -21.7740   13.2280 C   0  0  0  0  0  0
  -38.4630  -20.1260   14.9670 C   0  0  0  0  0  0
  -40.3650  -19.1370   15.8070 C   0  0  0  0  0  0
  -40.8610  -18.4350   16.5820 N   0  0  0  0  0  0
  -39.8520  -19.9760   14.9780 C   0  0  0  0  0  0
  -37.8420  -21.0220   14.0950 C   0  0  0  0  0  0
  -42.1750  -20.6120   14.0800 C   0  0  0  0  0  0
  -42.7290  -19.2440   13.9170 N   0  0  0  0  0  0
  -44.4670  -19.3490   15.7490 N   0  0  1  0  0  0
  -45.1670  -21.2750   17.7760 C   0  0  0  0  0  0
  -44.5320  -19.9080   18.1250 C   0  0  1  0  0  0
  -42.2010  -18.4920   12.9300 C   0  0  0  0  0  0
  -41.2800  -18.9250   12.1940 O   0  0  0  0  0  0
  -44.2010  -17.4680   14.4650 N   0  0  0  0  0  0
  -42.1720  -16.3280   11.6720 C   0  0  0  0  0  0
  -43.7080  -14.5680   12.3210 C   0  0  0  0  0  0
  -44.2360  -15.3730   13.3230 C   0  0  0  0  0  0
  -42.9163  -19.4494   19.3686 H   0  0  0  0  0  0
  -42.7965  -21.0128   18.4921 H   0  0  0  0  0  0
  -43.9166  -20.8485   19.8868 H   0  0  0  0  0  0
  -46.7145  -20.5798   16.4368 H   0  0  0  0  0  0
  -46.1480  -22.2543   16.1176 H   0  0  0  0  0  0
  -43.9668  -21.3593   15.3447 H   0  0  0  0  0  0
  -45.3322  -20.7026   14.3800 H   0  0  0  0  0  0
  -42.8148  -20.0537   16.8254 H   0  0  0  0  0  0
  -43.3230  -18.3736   17.2068 H   0  0  0  0  0  0
  -42.2822  -14.4047   10.7066 H   0  0  0  0  0  0
  -40.6303  -22.2150   12.5618 H   0  0  0  0  0  0
  -38.1679  -22.4805   12.5398 H   0  0  0  0  0  0
  -37.8543  -19.5338   15.6504 H   0  0  0  0  0  0
  -36.7575  -21.1314   14.0925 H   0  0  0  0  0  0
  -42.5687  -21.2016   13.2390 H   0  0  0  0  0  0
  -42.5891  -20.9973   15.0235 H   0  0  0  0  0  0
  -45.9190  -21.5189   18.5409 H   0  0  0  0  0  0
  -44.3774  -22.0409   17.7808 H   0  0  0  0  0  0
  -45.2704  -19.1731   18.4780 H   0  0  0  0  0  0
  -45.0112  -17.0602   15.0873 H   0  0  0  0  0  0
  -41.3735  -16.7021   11.0313 H   0  0  0  0  0  0
  -44.0948  -13.5590   12.1778 H   0  0  0  0  0  0
  -45.0396  -15.0063   13.9616 H   0  0  0  0  0  0
  1 21  1  0  0  0
  1 28  1  0  0  0
  1 29  1  0  0  0
  1 30  1  0  0  0
  2  3  1  0  0  0
  2 20  1  0  0  0
  2 31  1  0  0  0
  2 32  1  0  0  0
  3 19  1  0  0  0
  3 33  1  0  0  0
  3 34  1  0  0  0
  4 19  1  0  0  0
  4 21  1  0  0  0
  4 35  1  0  0  0
  4 36  1  0  0  0
  5 18  1  0  0  0
  5 19  1  0  0  0
  5 24  1  0  0  0
  6  8  2  0  0  0
  6 24  1  0  0  0
  6 27  1  0  0  0
  7 25  2  0  0  0
  7 26  1  0  0  0
  7 37  1  0  0  0
  8 22  1  0  0  0
  8 25  1  0  0  0
  9 10  2  0  0  0
  9 15  1  0  0  0
  9 17  1  0  0  0
 10 11  1  0  0  0
 10 38  1  0  0  0
 11 16  2  0  0  0
 11 39  1  0  0  0
 12 15  2  0  0  0
 12 16  1  0  0  0
 12 40  1  0  0  0
 13 14  3  0  0  0
 13 15  1  0  0  0
 16 41  1  0  0  0
 17 18  1  0  0  0
 17 42  1  0  0  0
 17 43  1  0  0  0
 18 22  1  0  0  0
 20 21  1  0  0  0
 20 44  1  0  0  0
 20 45  1  0  0  0
 21 46  1  0  0  0
 22 23  2  0  0  0
 24 47  1  0  0  0
 25 48  1  0  0  0
 26 27  2  0  0  0
 26 49  1  0  0  0
 27 50  1  0  0  0
M  CHG  1   1   1
M  END
> <s_m_source_file>
../2onc_ligand.sdf

> <i_m_source_file_index>
1

> <s_epik_input>
W05IMytdW0NAQEhdKFtDSDJdMSlbQ0gyXVtDSDJdW0NIMl1OMVtDSF0oW05IXTIpTihDKD1PKWMoYzIzKVtjSF1bY0hdW2NIXVtjSF0zKVtDSDJdYzRbY0hdW2NIXVtjSF1bY0hdYzRDI04=

> <s_epik_cmdline>
J2VwaWtfYXBwJywgJy1pbWFlJywgJ2xpZ2FuZF9wcm8ubWFlJywgJy1vbWFlJywgJ2xpZ2FuZF9wcmVwLm1hZScsICctbXMnLCAnMScsICctcGgnLCAnNycsICctcGh0JywgJzAuNScsICctbnQn

> <r_lp_tautomer_probability>
1

> <r_epik_Ionization_Penalty>
  0.0011

> <r_epik_Ionization_Penalty_Charging>
  0.0009

> <r_epik_Ionization_Penalty_Neutral>
  0.0002

> <r_epik_State_Penalty>
 -0.0000

> <r_epik_Charging_Adjusted_Penalty>
0.000907974753014611

> <i_epik_Tot_Q>
1

> <i_epik_Tot_abs_Q>
1

$$$$
