2onz_ligand
                    3D
 Schrodinger Suite 2020-3.
 37 39  0  0  1  0            999 V2000
   29.1460   45.7480   19.2140 C   0  0  0  0  0  0
   26.9180   44.6960   11.9630 C   0  0  0  0  0  0
   25.2000   46.2630   10.4130 C   0  0  0  0  0  0
   25.0010   46.1560   11.7850 C   0  0  0  0  0  0
   26.2550   45.5750    9.8170 C   0  0  0  0  0  0
   25.8560   45.3750   12.5590 C   0  0  0  0  0  0
   27.1100   44.7940   10.5880 C   0  0  0  0  0  0
   28.3710   45.8250   16.8110 C   0  0  0  0  0  0
   28.6330   43.6650   17.8420 C   0  0  0  0  0  0
   29.3070   44.7710   20.3830 C   0  0  0  0  0  0
   29.0260   42.7920   19.0370 C   0  0  0  0  0  0
   24.1760   47.2740    9.4500 Cl  0  0  0  0  0  0
   27.8750   43.9340   12.7760 N   0  0  0  0  0  0
   27.3940   43.0540   14.0630 S   0  0  0  0  0  0
   25.9700   42.9350   14.0530 O   0  0  0  0  0  0
   28.0080   41.6890   13.9830 O   0  0  0  0  0  0
   27.9030   43.8300   15.5460 C   0  0  0  0  0  0
   28.2310   43.0580   16.6520 C   0  0  0  0  0  0
   27.9740   45.2220   15.6270 C   0  0  0  0  0  0
   28.7020   45.0500   17.9260 C   0  0  0  0  0  0
   29.9480   43.5350   19.9100 N   0  3  0  0  0  0
   28.3882   46.5034   19.4692 H   0  0  0  0  0  0
   30.1072   46.2451   19.0165 H   0  0  0  0  0  0
   24.1729   46.6852   12.2565 H   0  0  0  0  0  0
   26.4112   45.6491    8.7408 H   0  0  0  0  0  0
   25.6944   45.2944   13.6339 H   0  0  0  0  0  0
   27.9321   44.2576   10.1142 H   0  0  0  0  0  0
   28.4253   46.9119   16.8725 H   0  0  0  0  0  0
   29.9323   45.2314   21.1621 H   0  0  0  0  0  0
   28.3176   44.5324   20.8004 H   0  0  0  0  0  0
   28.1240   42.5206   19.6052 H   0  0  0  0  0  0
   29.5210   41.8782   18.6765 H   0  0  0  0  0  0
   28.9390   43.9666   12.4987 H   0  0  0  0  0  0
   28.1741   41.9712   16.5903 H   0  0  0  0  0  0
   27.7180   45.8333   14.7617 H   0  0  0  0  0  0
   30.8575   43.7868   19.3448 H   0  0  0  0  0  0
   30.2146   42.9068   20.7728 H   0  0  0  0  0  0
  1 10  1  0  0  0
  1 20  1  0  0  0
  1 22  1  0  0  0
  1 23  1  0  0  0
  2  6  2  0  0  0
  2  7  1  0  0  0
  2 13  1  0  0  0
  3  4  2  0  0  0
  3  5  1  0  0  0
  3 12  1  0  0  0
  4  6  1  0  0  0
  4 24  1  0  0  0
  5  7  2  0  0  0
  5 25  1  0  0  0
  6 26  1  0  0  0
  7 27  1  0  0  0
  8 19  2  0  0  0
  8 20  1  0  0  0
  8 28  1  0  0  0
  9 11  1  0  0  0
  9 18  1  0  0  0
  9 20  2  0  0  0
 10 21  1  0  0  0
 10 29  1  0  0  0
 10 30  1  0  0  0
 11 21  1  0  0  0
 11 31  1  0  0  0
 11 32  1  0  0  0
 13 14  1  0  0  0
 13 33  1  0  0  0
 14 15  2  0  0  0
 14 16  2  0  0  0
 14 17  1  0  0  0
 17 18  2  0  0  0
 17 19  1  0  0  0
 18 34  1  0  0  0
 19 35  1  0  0  0
 21 36  1  0  0  0
 21 37  1  0  0  0
M  CHG  1  21   1
M  END
> <s_m_source_file>
../2onz_ligand.sdf

> <i_m_source_file_index>
1

> <s_epik_input>
W0NIMl0xW05IMitdW0NIMl1bQ0gyXWMoYzEyKVtjSF1bY0hdYyhbY0hdMilTKD1PKSg9TylbTkhdYzNbY0hdW2NIXWMoQ2wpW2NIXVtjSF0z

> <s_epik_cmdline>
J2VwaWtfYXBwJywgJy1pbWFlJywgJ2xpZ2FuZF9wcm8ubWFlJywgJy1vbWFlJywgJ2xpZ2FuZF9wcmVwLm1hZScsICctbXMnLCAnMScsICctcGgnLCAnNycsICctcGh0JywgJzAuNScsICctbnQn

> <r_lp_tautomer_probability>
1

> <r_epik_Ionization_Penalty>
  0.1183

> <r_epik_Ionization_Penalty_Charging>
  0.0138

> <r_epik_Ionization_Penalty_Neutral>
  0.1045

> <r_epik_State_Penalty>
 -0.0000

> <r_epik_Charging_Adjusted_Penalty>
0.0137572536401281

> <i_epik_Tot_Q>
1

> <i_epik_Tot_abs_Q>
1

$$$$
