2oo8_ligand
                    3D
 Schrodinger Suite 2020-3.
 69 72  0  0  1  0            999 V2000
   47.7220    4.8050   69.1940 C   0  0  0  0  0  0
   48.1310    5.5200   67.9610 N   0  3  0  0  0  0
   47.3220    5.1350   66.7830 C   0  0  0  0  0  0
   49.5770    5.3540   67.6860 C   0  0  0  0  0  0
   50.0420    3.9000   67.5080 C   0  0  0  0  0  0
   51.4590    3.8820   66.9380 C   0  0  0  0  0  0
   52.5050    3.6470   68.0510 C   0  0  0  0  0  0
   52.3400    2.6060   68.9780 C   0  0  0  0  0  0
   53.6120    4.5050   68.1330 C   0  0  0  0  0  0
   54.5780    4.3070   69.1350 C   0  0  0  0  0  0
   55.8000    5.2480   69.2450 C   0  0  0  0  0  0
   55.4290    6.4110   69.7890 F   0  0  0  0  0  0
   56.7500    4.6740   70.0060 F   0  0  0  0  0  0
   56.3060    5.5180   68.0370 F   0  0  0  0  0  0
   54.4080    3.2650   70.0610 C   0  0  0  0  0  0
   53.2760    2.4150   70.0030 C   0  0  0  0  0  0
   53.1440    1.3800   70.8590 N   0  0  0  0  0  0
   53.6190    1.3270   72.1150 C   0  0  0  0  0  0
   54.1970    2.2520   72.6770 O   0  0  0  0  0  0
   53.3900    0.0110   72.8860 C   0  0  0  0  0  0
   53.6130    0.0030   74.2620 C   0  0  0  0  0  0
   53.0070   -1.1710   72.2350 C   0  0  0  0  0  0
   52.8210   -2.3450   72.9760 C   0  0  0  0  0  0
   53.0400   -2.3420   74.3690 C   0  0  0  0  0  0
   52.8350   -3.6500   75.1600 C   0  0  0  0  0  0
   53.4220   -1.1600   75.0220 C   0  0  0  0  0  0
   53.6760   -1.1230   76.3470 N   0  0  0  0  0  0
   52.8050   -0.9480   77.3320 C   0  0  0  0  0  0
   51.5180   -0.7250   77.0310 N   0  0  0  0  0  0
   50.5910   -0.5390   77.9610 C   0  0  0  0  0  0
   50.9370   -0.5590   79.3090 C   0  0  0  0  0  0
   52.2660   -0.7670   79.6760 C   0  0  0  0  0  0
   53.2240   -0.9810   78.6790 C   0  0  0  0  0  0
   54.5540   -1.1730   79.0750 C   0  0  0  0  0  0
   54.8950   -1.1310   80.4200 C   0  0  0  0  0  0
   56.2300   -1.3130   80.7790 C   0  0  0  0  0  0
   57.1410   -1.5040   79.8410 N   0  0  0  0  0  0
   56.7990   -1.5130   78.5620 C   0  0  0  0  0  0
   55.5380   -1.3410   78.1840 N   0  0  0  0  0  0
   46.6451    4.9522   69.3631 H   0  0  0  0  0  0
   48.2854    5.2013   70.0516 H   0  0  0  0  0  0
   47.9322    3.7311   69.0819 H   0  0  0  0  0  0
   47.9388    6.5871   68.1464 H   0  0  0  0  0  0
   46.2543    5.2670   67.0124 H   0  0  0  0  0  0
   47.5159    4.0813   66.5336 H   0  0  0  0  0  0
   47.5945    5.7705   65.9275 H   0  0  0  0  0  0
   49.8368    5.8836   66.7575 H   0  0  0  0  0  0
   50.1593    5.7708   68.5210 H   0  0  0  0  0  0
   50.0334    3.3904   68.4828 H   0  0  0  0  0  0
   49.3629    3.3799   66.8164 H   0  0  0  0  0  0
   51.5461    3.0731   66.1976 H   0  0  0  0  0  0
   51.6718    4.8466   66.4540 H   0  0  0  0  0  0
   51.4788    1.9424   68.9000 H   0  0  0  0  0  0
   53.7228    5.3232   67.4214 H   0  0  0  0  0  0
   55.1582    3.1078   70.8360 H   0  0  0  0  0  0
   52.6059    0.4729   70.5464 H   0  0  0  0  0  0
   53.9418    0.9172   74.7562 H   0  0  0  0  0  0
   52.8546   -1.1759   71.1557 H   0  0  0  0  0  0
   52.5069   -3.2611   72.4758 H   0  0  0  0  0  0
   52.5398   -4.4537   74.4694 H   0  0  0  0  0  0
   52.0453   -3.5040   75.9117 H   0  0  0  0  0  0
   53.7737   -3.9252   75.6631 H   0  0  0  0  0  0
   54.7059   -1.2463   76.7132 H   0  0  0  0  0  0
   49.5546   -0.3699   77.6687 H   0  0  0  0  0  0
   50.1736   -0.4129   80.0732 H   0  0  0  0  0  0
   52.5551   -0.7629   80.7270 H   0  0  0  0  0  0
   54.1337   -0.9590   81.1809 H   0  0  0  0  0  0
   56.5210   -1.2978   81.8293 H   0  0  0  0  0  0
   57.5679   -1.6646   77.8044 H   0  0  0  0  0  0
  1  2  1  0  0  0
  1 40  1  0  0  0
  1 41  1  0  0  0
  1 42  1  0  0  0
  2  3  1  0  0  0
  2  4  1  0  0  0
  2 43  1  0  0  0
  3 44  1  0  0  0
  3 45  1  0  0  0
  3 46  1  0  0  0
  4  5  1  0  0  0
  4 47  1  0  0  0
  4 48  1  0  0  0
  5  6  1  0  0  0
  5 49  1  0  0  0
  5 50  1  0  0  0
  6  7  1  0  0  0
  6 51  1  0  0  0
  6 52  1  0  0  0
  7  8  2  0  0  0
  7  9  1  0  0  0
  8 16  1  0  0  0
  8 53  1  0  0  0
  9 10  2  0  0  0
  9 54  1  0  0  0
 10 11  1  0  0  0
 10 15  1  0  0  0
 11 12  1  0  0  0
 11 13  1  0  0  0
 11 14  1  0  0  0
 15 16  2  0  0  0
 15 55  1  0  0  0
 16 17  1  0  0  0
 17 18  1  0  0  0
 17 56  1  0  0  0
 18 19  2  0  0  0
 18 20  1  0  0  0
 20 21  2  0  0  0
 20 22  1  0  0  0
 21 26  1  0  0  0
 21 57  1  0  0  0
 22 23  2  0  0  0
 22 58  1  0  0  0
 23 24  1  0  0  0
 23 59  1  0  0  0
 24 25  1  0  0  0
 24 26  2  0  0  0
 25 60  1  0  0  0
 25 61  1  0  0  0
 25 62  1  0  0  0
 26 27  1  0  0  0
 27 28  1  0  0  0
 27 63  1  0  0  0
 28 29  2  0  0  0
 28 33  1  0  0  0
 29 30  1  0  0  0
 30 31  2  0  0  0
 30 64  1  0  0  0
 31 32  1  0  0  0
 31 65  1  0  0  0
 32 33  2  0  0  0
 32 66  1  0  0  0
 33 34  1  0  0  0
 34 35  2  0  0  0
 34 39  1  0  0  0
 35 36  1  0  0  0
 35 67  1  0  0  0
 36 37  2  0  0  0
 36 68  1  0  0  0
 37 38  1  0  0  0
 38 39  2  0  0  0
 38 69  1  0  0  0
M  CHG  1   2   1
M  END
> <s_m_source_file>
../2oo8_ligand.sdf

> <i_m_source_file_index>
1

> <s_epik_input>
W0NIM11bTkgrXShbQ0gzXSlbQ0gyXVtDSDJdW0NIMl1jMVtjSF1jKFtjSF1jKFtjSF0xKUMoRikoRilGKVtOSF1DKD1PKWMyW2NIXWMoYyhbQ0gzXSlbY0hdW2NIXTIpW05IXWMzbltjSF1bY0hdW2NIXWMzLWM0W2NIXVtjSF1uW2NIXW40

> <s_epik_cmdline>
J2VwaWtfYXBwJywgJy1pbWFlJywgJ2xpZ2FuZF9wcm8ubWFlJywgJy1vbWFlJywgJ2xpZ2FuZF9wcmVwLm1hZScsICctbXMnLCAnMScsICctcGgnLCAnNycsICctcGh0JywgJzAuNScsICctbnQn

> <r_lp_tautomer_probability>
1

> <r_epik_Ionization_Penalty>
  0.0033

> <r_epik_Ionization_Penalty_Charging>
  0.0019

> <r_epik_Ionization_Penalty_Neutral>
  0.0014

> <r_epik_State_Penalty>
 -0.0000

> <r_epik_Charging_Adjusted_Penalty>
0.00192739769521507

> <i_epik_Tot_Q>
1

> <i_epik_Tot_abs_Q>
1

$$$$
