2ooh_ligand
                    3D
 Schrodinger Suite 2020-3.
 35 36  0  0  1  0            999 V2000
  -50.1040   23.0020   33.6280 C   0  0  0  0  0  0
  -48.7710   22.8570   33.7920 O   0  0  0  0  0  0
  -50.9770   21.9120   33.8680 C   0  0  0  0  0  0
  -52.3760   22.0640   33.6820 C   0  0  0  0  0  0
  -52.8970   23.3090   33.2550 C   0  0  0  0  0  0
  -52.0230   24.4020   33.0230 C   0  0  0  0  0  0
  -50.6300   24.2540   33.2080 C   0  0  0  0  0  0
  -54.2250   23.6290   32.8910 C   0  0  0  0  0  0
  -54.7850   24.0620   31.7960 N   0  0  0  0  0  0
  -54.1130   24.3510   30.6250 O   0  0  0  0  0  0
  -54.0400   25.6480   30.1510 C   0  0  0  0  0  0
  -52.9840   26.0790   29.7830 O   0  0  0  0  0  0
  -55.2960   26.5050   30.1080 C   0  0  0  0  0  0
  -56.4040   25.7710   29.2900 C   0  0  0  0  0  0
  -57.6840   26.6400   29.2690 C   0  0  0  0  0  0
  -57.3810   28.0010   28.6130 C   0  0  0  0  0  0
  -56.2910   28.7340   29.4090 C   0  0  0  0  0  0
  -54.9970   27.8840   29.4340 C   0  0  0  0  0  0
  -48.3588   21.8903   34.1168 H   0  0  0  0  0  0
  -50.5732   20.9543   34.1963 H   0  0  0  0  0  0
  -53.0467   21.2250   33.8673 H   0  0  0  0  0  0
  -52.4282   25.3611   32.7003 H   0  0  0  0  0  0
  -49.9616   25.0963   33.0294 H   0  0  0  0  0  0
  -54.8378   23.4405   33.7848 H   0  0  0  0  0  0
  -55.6171   26.6573   31.1490 H   0  0  0  0  0  0
  -56.0525   25.6081   28.2605 H   0  0  0  0  0  0
  -56.6249   24.8012   29.7598 H   0  0  0  0  0  0
  -58.4672   26.1253   28.6931 H   0  0  0  0  0  0
  -58.0336   26.8029   30.2992 H   0  0  0  0  0  0
  -57.0321   27.8415   27.5821 H   0  0  0  0  0  0
  -58.2947   28.6134   28.6002 H   0  0  0  0  0  0
  -56.0797   29.7035   28.9343 H   0  0  0  0  0  0
  -56.6377   28.8983   30.4399 H   0  0  0  0  0  0
  -54.2211   28.4120   30.0078 H   0  0  0  0  0  0
  -54.6444   27.7204   28.4049 H   0  0  0  0  0  0
  1  2  1  0  0  0
  1  3  2  0  0  0
  1  7  1  0  0  0
  2 19  1  0  0  0
  3  4  1  0  0  0
  3 20  1  0  0  0
  4  5  2  0  0  0
  4 21  1  0  0  0
  5  6  1  0  0  0
  5  8  1  0  0  0
  6  7  2  0  0  0
  6 22  1  0  0  0
  7 23  1  0  0  0
  8  9  2  0  0  0
  8 24  1  0  0  0
  9 10  1  0  0  0
 10 11  1  0  0  0
 11 12  2  0  0  0
 11 13  1  0  0  0
 13 14  1  0  0  0
 13 18  1  0  0  0
 13 25  1  0  0  0
 14 15  1  0  0  0
 14 26  1  0  0  0
 14 27  1  0  0  0
 15 16  1  0  0  0
 15 28  1  0  0  0
 15 29  1  0  0  0
 16 17  1  0  0  0
 16 30  1  0  0  0
 16 31  1  0  0  0
 17 18  1  0  0  0
 17 32  1  0  0  0
 17 33  1  0  0  0
 18 34  1  0  0  0
 18 35  1  0  0  0
M  END
> <s_m_source_file>
../2ooh_ligand.sdf

> <i_m_source_file_index>
1

> <s_epik_input>
W09IXWMxW2NIXVtjSF1jKFtjSF1bY0hdMSkvW0NIXT1OXE9DKD1PKVtDSF0yW0NIMl1bQ0gyXVtDSDJdW0NIMl1bQ0gyXTI=

> <s_epik_cmdline>
J2VwaWtfYXBwJywgJy1pbWFlJywgJ2xpZ2FuZF9wcm8ubWFlJywgJy1vbWFlJywgJ2xpZ2FuZF9wcmVwLm1hZScsICctbXMnLCAnMScsICctcGgnLCAnNycsICctcGh0JywgJzAuNScsICctbnQn

> <r_lp_tautomer_probability>
1

> <r_epik_Ionization_Penalty>
  0.0017

> <r_epik_Ionization_Penalty_Charging>
  0.0000

> <r_epik_Ionization_Penalty_Neutral>
  0.0017

> <r_epik_State_Penalty>
 -0.0000

> <r_epik_Charging_Adjusted_Penalty>
0

> <i_epik_Tot_Q>
0

> <i_epik_Tot_abs_Q>
0

> <s_epik_Chemistry_Notes>
This compound has an imine and may undergo hydrolysis.

$$$$
