2ooz_ligand
                    3D
 Schrodinger Suite 2020-3.
 17 17  0  0  1  0            999 V2000
   26.9660   36.1730   28.9960 O   0  0  0  0  0  0
   27.0530   37.0070   27.9390 C   0  0  0  0  0  0
   27.0980   38.4130   28.1510 C   0  0  0  0  0  0
   27.1920   39.2790   27.0550 C   0  0  0  0  0  0
   27.2440   38.7470   25.7310 C   0  0  0  0  0  0
   27.1960   37.3470   25.5220 C   0  0  0  0  0  0
   27.1010   36.4790   26.6240 C   0  0  0  0  0  0
   27.3450   39.6420   24.6020 C   0  0  0  0  0  0
   26.4310   40.4930   24.4480 N   0  0  0  0  0  0
   26.4690   41.3810   23.4100 O   0  0  0  0  0  0
   26.9287   36.5810   30.0169 H   0  0  0  0  0  0
   27.0594   38.8148   29.1635 H   0  0  0  0  0  0
   27.2254   40.3571   27.2121 H   0  0  0  0  0  0
   27.2326   36.9437   24.5100 H   0  0  0  0  0  0
   27.0643   35.4009   26.4675 H   0  0  0  0  0  0
   28.1821   39.5990   23.8897 H   0  0  0  0  0  0
   25.6628   42.1194   23.2881 H   0  0  0  0  0  0
  1  2  1  0  0  0
  1 11  1  0  0  0
  2  3  2  0  0  0
  2  7  1  0  0  0
  3  4  1  0  0  0
  3 12  1  0  0  0
  4  5  2  0  0  0
  4 13  1  0  0  0
  5  6  1  0  0  0
  5  8  1  0  0  0
  6  7  2  0  0  0
  6 14  1  0  0  0
  7 15  1  0  0  0
  8  9  2  0  0  0
  8 16  1  0  0  0
  9 10  1  0  0  0
 10 17  1  0  0  0
M  END
> <s_m_source_file>
../2ooz_ligand.sdf

> <i_m_source_file_index>
1

> <s_epik_input>
W09IXWMxW2NIXVtjSF1jKFtjSF1bY0hdMSkvW0NIXT1OL1tPSF0=

> <s_epik_cmdline>
J2VwaWtfYXBwJywgJy1pbWFlJywgJ2xpZ2FuZF9wcm8ubWFlJywgJy1vbWFlJywgJ2xpZ2FuZF9wcmVwLm1hZScsICctbXMnLCAnMScsICctcGgnLCAnNycsICctcGh0JywgJzAuNScsICctbnQn

> <r_lp_tautomer_probability>
1

> <r_epik_Ionization_Penalty>
  0.0014

> <r_epik_Ionization_Penalty_Charging>
  0.0000

> <r_epik_Ionization_Penalty_Neutral>
  0.0014

> <r_epik_State_Penalty>
 -0.0000

> <r_epik_Charging_Adjusted_Penalty>
0

> <i_epik_Tot_Q>
0

> <i_epik_Tot_abs_Q>
0

> <s_epik_Chemistry_Notes>
This compound has an imine and may undergo hydrolysis.

$$$$
