2op3_ligand
                    3D
 Schrodinger Suite 2020-3.
 28 29  0  0  1  0            999 V2000
   21.9560   33.1140   11.1230 C   0  0  0  0  0  0
   18.5390   38.0180    9.6380 C   0  0  0  0  0  0
   20.0050   38.2470    9.3550 C   0  0  0  0  0  0
   20.3670   34.3230   12.4260 C   0  0  0  0  0  0
   21.0290   35.5210   12.1670 C   0  0  0  0  0  0
   24.1160   39.1570   10.3970 C   0  0  0  0  0  0
   22.7530   39.0210   10.2030 C   0  0  0  0  0  0
   22.1390   37.8210   10.5360 C   0  0  0  0  0  0
   22.8770   36.7840   11.0840 C   0  0  0  0  0  0
   20.7780   37.6420   10.3770 O   0  0  0  0  0  0
   24.8670   38.1150   10.9230 C   0  0  0  0  0  0
   19.2570   34.2780   13.1600 F   0  0  0  0  0  0
   20.6440   36.7350   12.6440 F   0  0  0  0  0  0
   20.8130   33.1270   11.9010 C   0  0  0  0  0  0
   20.1400   31.9740   12.1590 F   0  0  0  0  0  0
   22.6310   34.3120   10.8690 C   0  0  0  0  0  0
   22.1640   35.5130   11.3960 C   0  0  0  0  0  0
   24.2500   36.9190   11.2730 C   0  0  0  0  0  0
   17.9530   39.0810    9.5580 O   0  0  0  0  0  0
   22.3283   32.1763   10.7105 H   0  0  0  0  0  0
   17.9836   37.1010    9.8841 H   0  0  0  0  0  0
   20.2648   37.8014    8.3834 H   0  0  0  0  0  0
   20.2090   39.3276    9.3291 H   0  0  0  0  0  0
   24.6063   40.0942   10.1335 H   0  0  0  0  0  0
   22.1687   39.8452    9.7940 H   0  0  0  0  0  0
   25.9415   38.2343   11.0619 H   0  0  0  0  0  0
   23.5304   34.3055   10.2532 H   0  0  0  0  0  0
   24.8334   36.0980   11.6898 H   0  0  0  0  0  0
  1 14  2  0  0  0
  1 16  1  0  0  0
  1 20  1  0  0  0
  2  3  1  0  0  0
  2 19  2  0  0  0
  2 21  1  0  0  0
  3 10  1  0  0  0
  3 22  1  0  0  0
  3 23  1  0  0  0
  4  5  2  0  0  0
  4 12  1  0  0  0
  4 14  1  0  0  0
  5 13  1  0  0  0
  5 17  1  0  0  0
  6  7  2  0  0  0
  6 11  1  0  0  0
  6 24  1  0  0  0
  7  8  1  0  0  0
  7 25  1  0  0  0
  8  9  2  0  0  0
  8 10  1  0  0  0
  9 17  1  0  0  0
  9 18  1  0  0  0
 11 18  2  0  0  0
 11 26  1  0  0  0
 14 15  1  0  0  0
 16 17  2  0  0  0
 16 27  1  0  0  0
 18 28  1  0  0  0
M  END
> <s_m_source_file>
../2op3_ligand.sdf

> <i_m_source_file_index>
1

> <s_epik_input>
RmMxW2NIXVtjSF1jKGMoRiljMUYpLWMyW2NIXVtjSF1bY0hdW2NIXWMyT1tDSDJdW0NIXT1P

> <s_epik_cmdline>
J2VwaWtfYXBwJywgJy1pbWFlJywgJ2xpZ2FuZF9wcm8ubWFlJywgJy1vbWFlJywgJ2xpZ2FuZF9wcmVwLm1hZScsICctbXMnLCAnMScsICctcGgnLCAnNycsICctcGh0JywgJzAuNScsICctbnQn

> <r_lp_tautomer_probability>
1

> <r_epik_Ionization_Penalty>
  0.0044

> <r_epik_Ionization_Penalty_Charging>
  0.0000

> <r_epik_Ionization_Penalty_Neutral>
  0.0044

> <r_epik_State_Penalty>
 -0.0000

> <r_epik_Charging_Adjusted_Penalty>
0

> <i_epik_Tot_Q>
0

> <i_epik_Tot_abs_Q>
0

$$$$
