2op9_ligand
                    3D
 Schrodinger Suite 2020-3.
 55 56  0  0  1  0            999 V2000
   -6.5520   28.5150   71.1060 O   0  0  0  0  0  0
   -6.5250   27.8900   72.1570 C   0  0  0  0  0  0
   -6.2310   26.4680   72.1340 O   0  0  0  0  0  0
   -5.5160   25.8180   71.0780 C   0  0  0  0  0  0
   -4.1610   26.4210   70.7410 C   0  0  0  0  0  0
   -3.4620   25.9000   69.6440 C   0  0  0  0  0  0
   -2.2190   26.4200   69.2890 C   0  0  0  0  0  0
   -1.6640   27.4620   70.0320 C   0  0  0  0  0  0
   -2.3460   27.9720   71.1330 C   0  0  0  0  0  0
   -3.5920   27.4590   71.4880 C   0  0  0  0  0  0
   -6.6950   28.3820   73.3840 N   0  0  0  0  0  0
   -6.9660   29.7610   73.7370 C   0  0  1  0  0  0
   -8.1050   29.7830   74.7610 C   0  0  0  0  0  0
   -9.3070   29.0590   74.1810 C   0  0  0  0  0  0
   -9.4620   27.6780   74.3360 C   0  0  0  0  0  0
  -10.5700   27.0350   73.7840 C   0  0  0  0  0  0
  -11.5180   27.7770   73.0800 C   0  0  0  0  0  0
  -11.3540   29.1540   72.9310 C   0  0  0  0  0  0
  -10.2570   29.7940   73.4820 C   0  0  0  0  0  0
   -5.7340   30.4410   74.3020 C   0  0  0  0  0  0
   -4.6870   29.8150   74.4860 O   0  0  0  0  0  0
   -5.8250   31.7550   74.5470 N   0  0  0  0  0  0
   -4.6800   32.5560   74.9540 C   0  0  2  0  0  0
   -5.1140   33.7280   75.8440 C   0  0  0  0  0  0
   -3.8920   33.0250   73.7460 C   0  0  0  0  0  0
   -3.2570   34.0880   73.8110 O   0  0  0  0  0  0
   -3.8880   32.1160   72.5040 C   0  0  0  0  0  0
   -3.0880   32.6100   71.2980 C   0  0  0  0  0  0
   -2.5760   31.4720   70.6260 O   0  0  0  0  0  0
   -5.3306   24.7690   71.3523 H   0  0  0  0  0  0
   -6.1121   25.8556   70.1543 H   0  0  0  0  0  0
   -3.8931   25.0833   69.0650 H   0  0  0  0  0  0
   -1.6814   26.0134   68.4324 H   0  0  0  0  0  0
   -0.6962   27.8769   69.7504 H   0  0  0  0  0  0
   -1.9033   28.7765   71.7203 H   0  0  0  0  0  0
   -4.1239   27.8663   72.3479 H   0  0  0  0  0  0
   -6.6105   27.6190   74.1718 H   0  0  0  0  0  0
   -7.2411   30.2726   72.8029 H   0  0  0  0  0  0
   -7.7788   29.2797   75.6831 H   0  0  0  0  0  0
   -8.3742   30.8252   74.9877 H   0  0  0  0  0  0
   -8.7174   27.1042   74.8879 H   0  0  0  0  0  0
  -10.6942   25.9586   73.9023 H   0  0  0  0  0  0
  -12.3865   27.2811   72.6465 H   0  0  0  0  0  0
  -12.0948   29.7304   72.3768 H   0  0  0  0  0  0
  -10.1387   30.8715   73.3679 H   0  0  0  0  0  0
   -6.8121   32.2261   74.4300 H   0  0  0  0  0  0
   -4.0415   31.8779   75.5392 H   0  0  0  0  0  0
   -5.6806   33.3442   76.7052 H   0  0  0  0  0  0
   -5.7488   34.4137   75.2636 H   0  0  0  0  0  0
   -4.2238   34.2664   76.2012 H   0  0  0  0  0  0
   -3.4602   31.1374   72.7673 H   0  0  0  0  0  0
   -4.9190   31.9809   72.1451 H   0  0  0  0  0  0
   -3.7476   33.1840   70.6307 H   0  0  0  0  0  0
   -2.2651   33.2535   71.6425 H   0  0  0  0  0  0
   -1.9639   31.5970   69.7206 H   0  0  0  0  0  0
  1  2  2  0  0  0
  2  3  1  0  0  0
  2 11  1  0  0  0
  3  4  1  0  0  0
  4  5  1  0  0  0
  4 30  1  0  0  0
  4 31  1  0  0  0
  5  6  2  0  0  0
  5 10  1  0  0  0
  6  7  1  0  0  0
  6 32  1  0  0  0
  7  8  2  0  0  0
  7 33  1  0  0  0
  8  9  1  0  0  0
  8 34  1  0  0  0
  9 10  2  0  0  0
  9 35  1  0  0  0
 10 36  1  0  0  0
 11 12  1  0  0  0
 11 37  1  0  0  0
 12 13  1  0  0  0
 12 20  1  0  0  0
 12 38  1  0  0  0
 13 14  1  0  0  0
 13 39  1  0  0  0
 13 40  1  0  0  0
 14 15  2  0  0  0
 14 19  1  0  0  0
 15 16  1  0  0  0
 15 41  1  0  0  0
 16 17  2  0  0  0
 16 42  1  0  0  0
 17 18  1  0  0  0
 17 43  1  0  0  0
 18 19  2  0  0  0
 18 44  1  0  0  0
 19 45  1  0  0  0
 20 21  2  0  0  0
 20 22  1  0  0  0
 22 23  1  0  0  0
 22 46  1  0  0  0
 23 24  1  0  0  0
 23 25  1  0  0  0
 23 47  1  0  0  0
 24 48  1  0  0  0
 24 49  1  0  0  0
 24 50  1  0  0  0
 25 26  2  0  0  0
 25 27  1  0  0  0
 27 28  1  0  0  0
 27 51  1  0  0  0
 27 52  1  0  0  0
 28 29  1  0  0  0
 28 53  1  0  0  0
 28 54  1  0  0  0
 29 55  1  0  0  0
M  END
> <s_m_source_file>
../2op9_ligand.sdf

> <i_m_source_file_index>
1

> <s_epik_input>
W2NIXTFbY0hdW2NIXVtjSF1bY0hdYzFbQ0gyXU9DKD1PKVtOSF1bQ0BASF0oW0NIMl1jMltjSF1bY0hdW2NIXVtjSF1bY0hdMilDKD1PKVtOSF1bQ0BIXShbQ0gzXSlDKD1PKVtDSDJdW0NIMl1bT0hd

> <s_epik_cmdline>
J2VwaWtfYXBwJywgJy1pbWFlJywgJ2xpZ2FuZF9wcm8ubWFlJywgJy1vbWFlJywgJ2xpZ2FuZF9wcmVwLm1hZScsICctbXMnLCAnMScsICctcGgnLCAnNycsICctcGh0JywgJzAuNScsICctbnQn

> <r_lp_tautomer_probability>
1

> <r_epik_Ionization_Penalty>
  0.0000

> <r_epik_Ionization_Penalty_Charging>
  0.0000

> <r_epik_Ionization_Penalty_Neutral>
  0.0000

> <r_epik_State_Penalty>
 -0.0000

> <r_epik_Charging_Adjusted_Penalty>
0

> <i_epik_Tot_Q>
0

> <i_epik_Tot_abs_Q>
0

> <s_epik_Chemistry_Notes>
This compound has an ester and may undergo hydrolysis at high or low pH.

$$$$
