2opb_ligand
                    3D
 Schrodinger Suite 2020-3.
 41 43  0  0  1  0            999 V2000
   26.1240   45.4710   13.5220 C   0  0  0  0  0  0
   25.3300   46.0950   12.3720 C   0  0  0  0  0  0
   26.5360   46.6830   11.1310 S   0  0  0  0  0  0
   27.6510   45.2680   10.8300 C   0  0  0  0  0  0
   28.1120   44.7800   12.2060 C   0  0  0  0  0  0
   26.9510   44.3630   13.0090 N   0  0  0  0  0  0
   27.4900   43.4300   14.2320 S   0  0  0  0  0  0
   26.3720   42.6830   14.7110 O   0  0  0  0  0  0
   28.5060   42.4870   13.6580 O   0  0  0  0  0  0
   28.2470   44.2400   15.5870 C   0  0  0  0  0  0
   28.5710   43.4640   16.6900 C   0  0  0  0  0  0
   29.1760   44.0360   17.8140 C   0  0  0  0  0  0
   29.4910   43.1460   19.0230 C   0  0  0  0  0  0
   30.3820   43.8280   19.9750 N   0  3  0  0  0  0
   29.8580   45.1650   20.2800 C   0  0  1  0  0  0
   30.5810   45.7710   21.4870 C   0  0  0  0  0  0
   30.1910   45.1340   22.6550 F   0  0  0  0  0  0
   30.0610   46.0630   19.0540 C   0  0  0  0  0  0
   29.4530   45.3920   17.8240 C   0  0  0  0  0  0
   29.1330   46.1760   16.7000 C   0  0  0  0  0  0
   28.5330   45.6070   15.5910 C   0  0  0  0  0  0
   26.7750   46.2336   13.9743 H   0  0  0  0  0  0
   25.4279   45.0859   14.2817 H   0  0  0  0  0  0
   24.6639   45.3377   11.9330 H   0  0  0  0  0  0
   24.7299   46.9342   12.7537 H   0  0  0  0  0  0
   27.1042   44.4777   10.2948 H   0  0  0  0  0  0
   28.5064   45.5980   10.2223 H   0  0  0  0  0  0
   28.7921   43.9243   12.0826 H   0  0  0  0  0  0
   28.6377   45.5940   12.7266 H   0  0  0  0  0  0
   28.3517   42.3963   16.6808 H   0  0  0  0  0  0
   28.5562   42.8893   19.5428 H   0  0  0  0  0  0
   29.9854   42.2247   18.6812 H   0  0  0  0  0  0
   30.4437   43.2419   20.9038 H   0  0  0  0  0  0
   31.3854   43.9234   19.5344 H   0  0  0  0  0  0
   28.7912   45.0421   20.5184 H   0  0  0  0  0  0
   31.6674   45.6532   21.3608 H   0  0  0  0  0  0
   30.3346   46.8403   21.5631 H   0  0  0  0  0  0
   29.5687   47.0319   19.2237 H   0  0  0  0  0  0
   31.1370   46.2222   18.8902 H   0  0  0  0  0  0
   29.3601   47.2421   16.7033 H   0  0  0  0  0  0
   28.2850   46.2217   14.7257 H   0  0  0  0  0  0
  1  2  1  0  0  0
  1  6  1  0  0  0
  1 22  1  0  0  0
  1 23  1  0  0  0
  2  3  1  0  0  0
  2 24  1  0  0  0
  2 25  1  0  0  0
  3  4  1  0  0  0
  4  5  1  0  0  0
  4 26  1  0  0  0
  4 27  1  0  0  0
  5  6  1  0  0  0
  5 28  1  0  0  0
  5 29  1  0  0  0
  6  7  1  0  0  0
  7  8  2  0  0  0
  7  9  2  0  0  0
  7 10  1  0  0  0
 10 11  2  0  0  0
 10 21  1  0  0  0
 11 12  1  0  0  0
 11 30  1  0  0  0
 12 13  1  0  0  0
 12 19  2  0  0  0
 13 14  1  0  0  0
 13 31  1  0  0  0
 13 32  1  0  0  0
 14 15  1  0  0  0
 14 33  1  0  0  0
 14 34  1  0  0  0
 15 16  1  0  0  0
 15 18  1  0  0  0
 15 35  1  0  0  0
 16 17  1  0  0  0
 16 36  1  0  0  0
 16 37  1  0  0  0
 18 19  1  0  0  0
 18 38  1  0  0  0
 18 39  1  0  0  0
 19 20  1  0  0  0
 20 21  2  0  0  0
 20 40  1  0  0  0
 21 41  1  0  0  0
M  CHG  1  14   1
M  END
> <s_m_source_file>
../2opb_ligand.sdf

> <i_m_source_file_index>
1

> <s_epik_input>
W0NIMl0xW0NIMl1TW0NIMl1bQ0gyXU4xUyg9TykoPU8pYyhbY0hdMilbY0hdW2NIXWMoYzIzKVtDSDJdW0NASF0oW0NIMl1GKVtOSDIrXVtDSDJdMw==

> <s_epik_cmdline>
J2VwaWtfYXBwJywgJy1pbWFlJywgJ2xpZ2FuZF9wcm8ubWFlJywgJy1vbWFlJywgJ2xpZ2FuZF9wcmVwLm1hZScsICctbXMnLCAnMScsICctcGgnLCAnNycsICctcGh0JywgJzAuNScsICctbnQn

> <r_epik_Ionization_Penalty>
  0.0378

> <r_epik_Ionization_Penalty_Charging>
  0.0378

> <r_epik_Ionization_Penalty_Neutral>
  0.0000

> <r_epik_State_Penalty>
  0.0317

> <r_epik_Charging_Adjusted_Penalty>
0.0694423540926338

> <i_epik_Tot_Q>
1

> <i_epik_Tot_abs_Q>
1

$$$$
