2oph_ligand
                    3D
 Schrodinger Suite 2020-3.
 54 55  0  0  1  0            999 V2000
   42.7890   50.9110   34.5470 C   0  0  0  0  0  0
   41.4150   50.6190   35.1490 C   0  0  0  0  0  0
   40.7520   51.9110   35.7040 C   0  0  2  0  0  0
   41.6920   52.5720   36.7740 C   0  0  0  0  0  0
   43.0960   52.8750   36.2100 C   0  0  0  0  0  0
   43.7090   51.5860   35.5910 C   0  0  2  0  0  0
   39.3560   51.6220   36.3190 C   0  0  1  0  0  0
   38.2950   51.2190   35.2310 C   0  0  1  0  0  0
   36.8530   51.2360   35.8390 C   0  0  0  0  0  0
   36.1070   50.1110   35.7850 N   0  0  0  0  0  0
   45.0680   51.8810   35.0470 N   0  0  0  0  0  0
   46.2700   51.5900   35.6500 C   0  0  0  0  0  0
   45.2000   52.5530   33.7250 C   0  0  0  0  0  0
   46.2940   50.9030   37.0350 C   0  0  0  0  0  0
   47.3470   51.8590   35.1240 O   0  0  0  0  0  0
   36.4380   52.2310   36.3990 O   0  0  0  0  0  0
   38.3100   51.9710   34.4040 N   0  3  0  0  0  0
   39.4230   50.5090   37.4130 C   0  0  0  0  0  0
   36.6560   48.8210   35.4280 C   0  0  0  0  0  0
   35.5230   47.8450   35.5320 C   0  0  2  0  0  0
   34.2880   48.7140   35.4090 C   0  0  0  0  0  0
   34.6560   50.0280   36.0920 C   0  0  0  0  0  0
   35.5580   47.2850   36.8100 F   0  0  0  0  0  0
   43.2533   49.9692   34.2192 H   0  0  0  0  0  0
   42.6758   51.5838   33.6841 H   0  0  0  0  0  0
   40.7583   50.1947   34.3752 H   0  0  0  0  0  0
   41.5216   49.8995   35.9742 H   0  0  0  0  0  0
   40.5973   52.5986   34.8594 H   0  0  0  0  0  0
   41.2496   53.5195   37.1154 H   0  0  0  0  0  0
   41.8078   51.8917   37.6306 H   0  0  0  0  0  0
   43.0195   53.6493   35.4325 H   0  0  0  0  0  0
   43.7475   53.2328   37.0209 H   0  0  0  0  0  0
   43.8518   50.8398   36.3865 H   0  0  0  0  0  0
   39.0462   52.5674   36.7883 H   0  0  0  0  0  0
   38.5626   50.3619   34.5955 H   0  0  0  0  0  0
   44.1996   52.7500   33.3123 H   0  0  0  0  0  0
   45.7588   51.9017   33.0368 H   0  0  0  0  0  0
   45.7391   53.5037   33.8492 H   0  0  0  0  0  0
   45.2627   50.7267   37.3748 H   0  0  0  0  0  0
   46.8122   51.5513   37.7569 H   0  0  0  0  0  0
   46.8242   49.9422   36.9586 H   0  0  0  0  0  0
   39.3099   51.9925   33.9461 H   0  0  0  0  0  0
   38.0704   52.9655   34.8084 H   0  0  0  0  0  0
   37.5644   51.6949   33.6438 H   0  0  0  0  0  0
   40.1648   50.7886   38.1756 H   0  0  0  0  0  0
   39.7159   49.5557   36.9488 H   0  0  0  0  0  0
   38.4355   50.3989   37.8850 H   0  0  0  0  0  0
   37.0516   48.8620   34.4024 H   0  0  0  0  0  0
   37.4676   48.5626   36.1240 H   0  0  0  0  0  0
   35.5674   46.9942   34.8361 H   0  0  0  0  0  0
   34.0492   48.8634   34.3457 H   0  0  0  0  0  0
   33.4414   48.2209   35.9091 H   0  0  0  0  0  0
   34.5123   50.0111   37.1824 H   0  0  0  0  0  0
   34.1408   50.9025   35.6678 H   0  0  0  0  0  0
  1  2  1  0  0  0
  1  6  1  0  0  0
  1 24  1  0  0  0
  1 25  1  0  0  0
  2  3  1  0  0  0
  2 26  1  0  0  0
  2 27  1  0  0  0
  3  4  1  0  0  0
  3  7  1  0  0  0
  3 28  1  0  0  0
  4  5  1  0  0  0
  4 29  1  0  0  0
  4 30  1  0  0  0
  5  6  1  0  0  0
  5 31  1  0  0  0
  5 32  1  0  0  0
  6 11  1  0  0  0
  6 33  1  0  0  0
  7  8  1  0  0  0
  7 18  1  0  0  0
  7 34  1  0  0  0
  8  9  1  0  0  0
  8 17  1  0  0  0
  8 35  1  0  0  0
  9 10  1  0  0  0
  9 16  2  0  0  0
 10 19  1  0  0  0
 10 22  1  0  0  0
 11 12  1  0  0  0
 11 13  1  0  0  0
 12 14  1  0  0  0
 12 15  2  0  0  0
 13 36  1  0  0  0
 13 37  1  0  0  0
 13 38  1  0  0  0
 14 39  1  0  0  0
 14 40  1  0  0  0
 14 41  1  0  0  0
 17 42  1  0  0  0
 17 43  1  0  0  0
 17 44  1  0  0  0
 18 45  1  0  0  0
 18 46  1  0  0  0
 18 47  1  0  0  0
 19 20  1  0  0  0
 19 48  1  0  0  0
 19 49  1  0  0  0
 20 21  1  0  0  0
 20 23  1  0  0  0
 20 50  1  0  0  0
 21 22  1  0  0  0
 21 51  1  0  0  0
 21 52  1  0  0  0
 22 53  1  0  0  0
 22 54  1  0  0  0
M  CHG  1  17   1
M  END
> <s_m_source_file>
../2oph_ligand.sdf

> <i_m_source_file_index>
1

> <s_epik_input>
W0NIM11DKD1PKU4oW0NIM10pW0NAQEhdKFtDSDJdW0NIMl0xKVtDSDJdW0NIMl1bQ0BIXTFbQ0BIXShbQ0gzXSlbQ0BIXShbTkgzK10pQyg9TylOMltDSDJdW0NAQEhdKEYpW0NIMl1bQ0gyXTI=

> <s_epik_cmdline>
J2VwaWtfYXBwJywgJy1pbWFlJywgJ2xpZ2FuZF9wcm8ubWFlJywgJy1vbWFlJywgJ2xpZ2FuZF9wcmVwLm1hZScsICctbXMnLCAnMScsICctcGgnLCAnNycsICctcGh0JywgJzAuNScsICctbnQn

> <r_epik_Ionization_Penalty>
  0.0885

> <r_epik_Ionization_Penalty_Charging>
  0.0885

> <r_epik_Ionization_Penalty_Neutral>
  0.0000

> <r_epik_State_Penalty>
  0.0790

> <r_epik_Charging_Adjusted_Penalty>
0.167491343161116

> <i_epik_Tot_Q>
1

> <i_epik_Tot_abs_Q>
1

$$$$
