2opy_ligand
                    3D
 Schrodinger Suite 2020-3.
 56 59  0  0  1  0            999 V2000
  -16.0130  -21.6030   -0.5070 C   0  0  0  0  0  0
  -15.8870  -19.2000    0.0770 N   0  3  0  0  0  0
  -13.4710  -19.8500   -5.5660 O   0  0  0  0  0  0
  -15.3910  -20.2460   -0.8210 C   0  0  2  0  0  0
  -14.8290  -19.9790   -3.1910 N   0  0  0  0  0  0
  -13.6600  -17.0960   -7.4970 O   0  0  0  0  0  0
  -15.6800  -19.8770   -2.2450 C   0  0  0  0  0  0
  -15.2030  -19.3050   -6.8670 N   0  0  0  0  0  0
  -11.5850  -16.3600  -11.2160 O   0  0  0  0  0  0
  -15.3870  -19.5710   -4.3420 C   0  0  0  0  0  0
  -12.1310  -18.4170   -8.4490 N   0  0  0  0  0  0
  -11.8710  -18.5660  -11.2190 O   0  5  0  0  0  0
  -14.6560  -19.5700   -5.6260 C   0  0  0  0  0  0
   -8.2050  -20.5510  -10.3910 N   0  0  0  0  0  0
  -16.8310  -19.3990   -2.7340 O   0  0  0  0  0  0
  -16.6210  -19.0390   -7.2240 C   0  0  0  0  0  0
  -16.7400  -19.4340   -8.7130 C   0  0  0  0  0  0
  -15.3830  -18.9390   -9.2710 C   0  0  0  0  0  0
  -14.4180  -19.2460   -8.1150 C   0  0  1  0  0  0
  -13.3780  -18.1660   -8.0110 C   0  0  0  0  0  0
  -11.3170  -17.3860   -9.0940 C   0  0  1  0  0  0
   -9.8060  -17.6140   -8.7860 C   0  0  0  0  0  0
   -9.2850  -18.9840   -9.2280 C   0  0  0  0  0  0
   -8.4750  -19.2130  -10.2800 C   0  0  0  0  0  0
   -8.8410  -21.2490   -9.3960 C   0  0  0  0  0  0
   -8.8990  -22.6230   -9.0570 C   0  0  0  0  0  0
   -9.6530  -23.0390   -7.9540 C   0  0  0  0  0  0
  -10.3600  -22.0940   -7.1740 C   0  0  0  0  0  0
  -10.3150  -20.7400   -7.4940 C   0  0  0  0  0  0
   -9.5560  -20.2970   -8.6090 C   0  0  0  0  0  0
  -11.5980  -17.3970  -10.5920 C   0  0  0  0  0  0
  -16.6630  -19.2010   -4.0500 C   0  0  0  0  0  0
  -15.7994  -21.8712    0.5382 H   0  0  0  0  0  0
  -15.5866  -22.3653   -1.1756 H   0  0  0  0  0  0
  -17.1015  -21.5510   -0.6572 H   0  0  0  0  0  0
  -15.6710  -19.4786    1.1190 H   0  0  0  0  0  0
  -16.9733  -19.0882   -0.0550 H   0  0  0  0  0  0
  -15.3891  -18.2479   -0.1588 H   0  0  0  0  0  0
  -14.3042  -20.2908   -0.6572 H   0  0  0  0  0  0
  -11.7266  -19.4306   -8.3109 H   0  0  0  0  0  0
  -17.2797  -19.6490   -6.5884 H   0  0  0  0  0  0
  -16.8448  -17.9734   -7.0677 H   0  0  0  0  0  0
  -16.8732  -20.5229   -8.7939 H   0  0  0  0  0  0
  -17.6066  -18.9244   -9.1594 H   0  0  0  0  0  0
  -15.1400  -19.4935  -10.1894 H   0  0  0  0  0  0
  -15.4498  -17.8648   -9.4982 H   0  0  0  0  0  0
  -13.9037  -20.2079   -8.2570 H   0  0  0  0  0  0
  -11.6341  -16.4180   -8.6786 H   0  0  0  0  0  0
   -9.2067  -16.8531   -9.3074 H   0  0  0  0  0  0
   -9.6367  -17.5346   -7.7020 H   0  0  0  0  0  0
   -8.0423  -18.5030  -11.0002 H   0  0  0  0  0  0
   -8.3516  -23.3620   -9.6606 H   0  0  0  0  0  0
   -9.6942  -24.1072   -7.6947 H   0  0  0  0  0  0
  -10.9505  -22.4273   -6.3079 H   0  0  0  0  0  0
  -10.8632  -20.0189   -6.8877 H   0  0  0  0  0  0
  -17.4054  -18.8177   -4.7500 H   0  0  0  0  0  0
  1  4  1  0  0  0
  1 33  1  0  0  0
  1 34  1  0  0  0
  1 35  1  0  0  0
  2  4  1  0  0  0
  2 36  1  0  0  0
  2 37  1  0  0  0
  2 38  1  0  0  0
  3 13  2  0  0  0
  4  7  1  0  0  0
  4 39  1  0  0  0
  5  7  2  0  0  0
  5 10  1  0  0  0
  6 20  2  0  0  0
  7 15  1  0  0  0
  8 13  1  0  0  0
  8 16  1  0  0  0
  8 19  1  0  0  0
  9 31  2  0  0  0
 10 13  1  0  0  0
 10 32  2  0  0  0
 11 20  1  0  0  0
 11 21  1  0  0  0
 11 40  1  0  0  0
 12 31  1  0  0  0
 14 24  2  0  0  0
 14 25  1  0  0  0
 15 32  1  0  0  0
 16 17  1  0  0  0
 16 41  1  0  0  0
 16 42  1  0  0  0
 17 18  1  0  0  0
 17 43  1  0  0  0
 17 44  1  0  0  0
 18 19  1  0  0  0
 18 45  1  0  0  0
 18 46  1  0  0  0
 19 20  1  0  0  0
 19 47  1  0  0  0
 21 22  1  0  0  0
 21 31  1  0  0  0
 21 48  1  0  0  0
 22 23  1  0  0  0
 22 49  1  0  0  0
 22 50  1  0  0  0
 23 24  1  0  0  0
 23 30  2  0  0  0
 24 51  1  0  0  0
 25 26  2  0  0  0
 25 30  1  0  0  0
 26 27  1  0  0  0
 26 52  1  0  0  0
 27 28  2  0  0  0
 27 53  1  0  0  0
 28 29  1  0  0  0
 28 54  1  0  0  0
 29 30  1  0  0  0
 29 55  1  0  0  0
 32 56  1  0  0  0
M  CHG  2   2   1  12  -1
M  END
> <s_m_source_file>
../2opy_ligand.sdf

> <i_m_source_file_index>
1

> <s_epik_input>
W0NIM11bQ0BIXShbTkgzK10pYzFuYyhbY0hdbzEpQyg9TylOMltDSDJdW0NIMl1bQ0gyXVtDQEhdMkMoPU8pW05IXVtDQEhdKEMoPU8pW09IXSlbQ0gyXUMoW0NIXT1OMyk9QyhDMz00KVtDSDJdW0NIXT1bQ0hdW0NIXTQ=

> <s_epik_cmdline>
J2VwaWtfYXBwJywgJy1pbWFlJywgJ2xpZ2FuZF9wcm8ubWFlJywgJy1vbWFlJywgJ2xpZ2FuZF9wcmVwLm1hZScsICctbXMnLCAnMScsICctcGgnLCAnNycsICctcGh0JywgJzAuNScsICctbnQn

> <r_lp_tautomer_probability>
1

> <r_epik_Ionization_Penalty>
  0.0049

> <r_epik_Ionization_Penalty_Charging>
  0.0049

> <r_epik_Ionization_Penalty_Neutral>
  0.0000

> <r_epik_State_Penalty>
 -0.0000

> <r_epik_Charging_Adjusted_Penalty>
0.00485083796014185

> <i_epik_Tot_Q>
0

> <i_epik_Tot_abs_Q>
2

> <s_epik_Chemistry_Notes>
This compound has an imine and may undergo hydrolysis.

$$$$
