2oqi_ligand
                    3D
 Schrodinger Suite 2020-3.
 48 51  0  0  1  0            999 V2000
   36.0190    4.9470   63.8040 C   0  0  0  0  0  0
   36.7930    3.7360   63.1500 C   0  0  0  0  0  0
   38.2660    3.5840   63.6100 C   0  0  0  0  0  0
   38.6440    2.7550   64.7590 C   0  0  0  0  0  0
   40.9510    3.3700   64.3700 C   0  0  0  0  0  0
   39.2530    4.2700   62.9180 C   0  0  0  0  0  0
   30.4630    6.3970   62.5960 C   0  0  0  0  0  0
   30.2460    7.6920   63.1090 C   0  0  0  0  0  0
   28.9460    8.1770   63.1790 C   0  0  0  0  0  0
   27.8480    7.4260   62.7390 C   0  0  0  0  0  0
   28.0050    6.1380   62.2260 C   0  0  0  0  0  0
   31.1100    4.1880   64.1890 N   0  3  0  0  0  0
   32.1800    5.0560   63.8270 C   0  0  1  0  0  0
   33.5170    4.3210   63.7240 C   0  0  0  0  0  0
   34.6320    5.1740   63.2450 N   0  0  0  0  0  0
   39.9980    2.6420   65.1280 C   0  0  0  0  0  0
   42.2860    3.3800   64.5610 O   0  0  0  0  0  0
   42.7350    4.2780   63.5300 C   0  0  0  0  0  0
   41.6550    4.7680   62.7430 O   0  0  0  0  0  0
   40.5830    4.1490   63.3080 C   0  0  0  0  0  0
   34.4480    6.1560   62.2600 C   0  0  0  0  0  0
   35.3270    6.5710   61.5370 O   0  0  0  0  0  0
   32.9980    6.7410   62.0970 C   0  0  0  0  0  0
   31.8550    5.7840   62.5080 C   0  0  2  0  0  0
   28.7790    9.3890   63.6880 F   0  0  0  0  0  0
   26.6130    7.8980   62.8320 F   0  0  0  0  0  0
   29.3160    5.6470   62.1760 C   0  0  0  0  0  0
   29.4760    4.4030   61.6940 F   0  0  0  0  0  0
   35.9057    4.7696   64.8837 H   0  0  0  0  0  0
   36.5868    5.8752   63.6426 H   0  0  0  0  0  0
   36.2824    2.7951   63.4028 H   0  0  0  0  0  0
   36.8125    3.8605   62.0572 H   0  0  0  0  0  0
   37.8778    2.2270   65.3266 H   0  0  0  0  0  0
   38.9874    4.9023   62.0708 H   0  0  0  0  0  0
   31.0841    8.3025   63.4451 H   0  0  0  0  0  0
   27.1555    5.5472   61.8835 H   0  0  0  0  0  0
   31.3559    3.6760   65.1310 H   0  0  0  0  0  0
   30.9584    3.4420   63.3950 H   0  0  0  0  0  0
   30.1896    4.7758   64.3205 H   0  0  0  0  0  0
   32.2264    5.7556   64.6746 H   0  0  0  0  0  0
   33.8014    3.9367   64.7147 H   0  0  0  0  0  0
   33.4209    3.4820   63.0191 H   0  0  0  0  0  0
   40.3035    2.0168   65.9670 H   0  0  0  0  0  0
   43.2437    5.1384   63.9892 H   0  0  0  0  0  0
   43.4343    3.7513   62.8640 H   0  0  0  0  0  0
   32.8936    7.6412   62.7205 H   0  0  0  0  0  0
   32.8247    7.0030   61.0428 H   0  0  0  0  0  0
   31.7910    5.0750   61.6694 H   0  0  0  0  0  0
  1  2  1  0  0  0
  1 15  1  0  0  0
  1 29  1  0  0  0
  1 30  1  0  0  0
  2  3  1  0  0  0
  2 31  1  0  0  0
  2 32  1  0  0  0
  3  4  2  0  0  0
  3  6  1  0  0  0
  4 16  1  0  0  0
  4 33  1  0  0  0
  5 16  2  0  0  0
  5 17  1  0  0  0
  5 20  1  0  0  0
  6 20  2  0  0  0
  6 34  1  0  0  0
  7  8  2  0  0  0
  7 24  1  0  0  0
  7 27  1  0  0  0
  8  9  1  0  0  0
  8 35  1  0  0  0
  9 10  2  0  0  0
  9 25  1  0  0  0
 10 11  1  0  0  0
 10 26  1  0  0  0
 11 27  2  0  0  0
 11 36  1  0  0  0
 12 13  1  0  0  0
 12 37  1  0  0  0
 12 38  1  0  0  0
 12 39  1  0  0  0
 13 14  1  0  0  0
 13 24  1  0  0  0
 13 40  1  0  0  0
 14 15  1  0  0  0
 14 41  1  0  0  0
 14 42  1  0  0  0
 15 21  1  0  0  0
 16 43  1  0  0  0
 17 18  1  0  0  0
 18 19  1  0  0  0
 18 44  1  0  0  0
 18 45  1  0  0  0
 19 20  1  0  0  0
 21 22  2  0  0  0
 21 23  1  0  0  0
 23 24  1  0  0  0
 23 46  1  0  0  0
 23 47  1  0  0  0
 24 48  1  0  0  0
 27 28  1  0  0  0
M  CHG  1  12   1
M  END
> <s_m_source_file>
../2oqi_ligand.sdf

> <i_m_source_file_index>
1

> <s_epik_input>
TzFbQ0gyXU9jKGMxMilbY0hdYyhbY0hdW2NIXTIpW0NIMl1bQ0gyXU4oW0NIMl1bQ0BASF0zW05IMytdKUMoPU8pW0NIMl1bQ0BASF0zYzRbY0hdYyhGKWMoRilbY0hdYzRG

> <s_epik_cmdline>
J2VwaWtfYXBwJywgJy1pbWFlJywgJ2xpZ2FuZF9wcm8ubWFlJywgJy1vbWFlJywgJ2xpZ2FuZF9wcmVwLm1hZScsICctbXMnLCAnMScsICctcGgnLCAnNycsICctcGh0JywgJzAuNScsICctbnQn

> <r_lp_tautomer_probability>
1

> <r_epik_Ionization_Penalty>
  0.0125

> <r_epik_Ionization_Penalty_Charging>
  0.0125

> <r_epik_Ionization_Penalty_Neutral>
  0.0000

> <r_epik_State_Penalty>
  0.0097

> <r_epik_Charging_Adjusted_Penalty>
0.0221535869713664

> <i_epik_Tot_Q>
1

> <i_epik_Tot_abs_Q>
1

> <s_epik_Chemistry_Notes>
This compound contains an acetal/aminal-like group ( X-CH(R)-Y where X, Y are N, S, or O) that may be acid/base labile, releasing an aldehyde.

$$$$
