2oqs_ligand
                    3D
 Schrodinger Suite 2020-3.
113112  0  0  1  0            999 V2000
    3.3380  -12.2460   11.9640 N   0  3  0  0  0  0
    2.8790  -10.9200   11.4610 C   0  0  2  0  0  0
    3.9270   -9.8360   11.7180 C   0  0  0  0  0  0
    4.5190   -9.7790   12.7980 O   0  0  0  0  0  0
    1.5640  -10.5510   12.1600 C   0  0  0  0  0  0
    0.4120  -11.4950   11.8450 C   0  0  0  0  0  0
   -0.6420  -11.4710   12.9420 C   0  0  0  0  0  0
   -0.2020  -12.1760   14.1480 N   0  0  0  0  0  0
   -0.7160  -11.9720   15.3640 C   0  0  0  0  0  0
   -1.6960  -11.0890   15.5450 N   0  0  0  0  0  0
   -0.2500  -12.6580   16.4030 N   0  3  0  0  0  0
    4.1470   -8.9770   10.7210 N   0  0  0  0  0  0
    5.1200   -7.8920   10.8390 C   0  0  2  0  0  0
    4.6140   -6.6260   10.1530 C   0  0  0  0  0  0
    4.1980   -6.6590    8.9930 O   0  0  0  0  0  0
    6.4670   -8.3050   10.2380 C   0  0  0  0  0  0
    7.5840   -7.2990   10.5040 C   0  0  0  0  0  0
    8.9650   -7.9380   10.4230 C   0  0  0  0  0  0
    9.2560   -8.4660    9.0910 N   0  0  0  0  0  0
    9.7450   -7.7360    8.0830 C   0  0  0  0  0  0
    9.9640   -6.4320    8.2350 N   0  0  0  0  0  0
   10.0140   -8.3160    6.9180 N   0  3  0  0  0  0
    4.6580   -5.5110   10.8810 N   0  0  0  0  0  0
    4.2110   -4.2250   10.3550 C   0  0  2  0  0  0
    5.3200   -3.1830   10.4890 C   0  0  0  0  0  0
    5.6610   -2.7660   11.5980 O   0  0  0  0  0  0
    2.9490   -3.7580   11.0900 C   0  0  0  0  0  0
    1.8900   -4.8450   11.2350 C   0  0  0  0  0  0
    0.8280   -4.5010   12.2650 C   0  0  0  0  0  0
    1.1660   -4.4230   13.4650 O   0  5  0  0  0  0
   -0.3420   -4.3170   11.8710 O   0  0  0  0  0  0
    5.8900   -2.7810    9.3530 N   0  0  0  0  0  0
    6.9720   -1.8010    9.3400 C   0  0  2  0  0  0
    6.5320   -0.5000    8.6720 C   0  0  0  0  0  0
    5.7610   -0.5160    7.7090 O   0  0  0  0  0  0
    8.2000   -2.3930    8.6280 C   0  0  2  0  0  0
    9.2090   -2.7270    9.5640 O   0  0  0  0  0  0
    8.8260   -1.4780    7.5940 C   0  0  0  0  0  0
    7.0410    0.6230    9.1800 N   0  0  0  0  0  0
    6.7140    1.9330    8.6230 C   0  0  2  0  0  0
    7.5440    2.2040    7.3730 C   0  0  0  0  0  0
    8.6500    1.6810    7.2240 O   0  0  0  0  0  0
    6.9470    3.0420    9.6510 C   0  0  0  0  0  0
    5.6890    3.4480   10.4040 C   0  0  0  0  0  0
    5.9750    4.4020   11.5500 C   0  0  0  0  0  0
    6.5280    5.4830   11.3490 O   0  0  0  0  0  0
    5.5970    4.0070   12.7610 N   0  0  0  0  0  0
    7.0010    3.0190    6.4730 N   0  0  0  0  0  0
    7.6840    3.3550    5.2280 C   0  0  2  0  0  0
    7.5040    4.8310    4.8660 C   0  0  0  0  0  0
    8.4010    5.3860    4.1960 O   0  0  0  0  0  0
    7.1810    2.4750    4.0630 C   0  0  0  0  0  0
    7.6480    1.0370    4.2450 C   0  0  0  0  0  0
    5.6620    2.5370    3.9580 C   0  0  0  0  0  0
    6.4720    5.4200    5.2550 O   0  5  0  0  0  0
    4.2811  -12.5197   11.4684 H   0  0  0  0  0  0
    2.5740  -13.0061   11.7439 H   0  0  0  0  0  0
    3.4976  -12.1906   13.0509 H   0  0  0  0  0  0
    2.7360  -11.0146   10.3744 H   0  0  0  0  0  0
    1.7107  -10.5688   13.2500 H   0  0  0  0  0  0
    1.2533   -9.5429   11.8482 H   0  0  0  0  0  0
   -0.0618  -11.1926   10.8994 H   0  0  0  0  0  0
    0.7946  -12.5220   11.7513 H   0  0  0  0  0  0
   -0.8616  -10.4287   13.2167 H   0  0  0  0  0  0
   -1.5603  -11.9558   12.5789 H   0  0  0  0  0  0
    0.5995  -12.9267   14.0847 H   0  0  0  0  0  0
   -2.0865  -10.5178   14.6899 H   0  0  0  0  0  0
   -2.1151  -10.9307   16.5496 H   0  0  0  0  0  0
    0.5595  -13.3891   16.2609 H   0  0  0  0  0  0
    3.5726   -9.1019    9.7913 H   0  0  0  0  0  0
    5.2215   -7.7136   11.9197 H   0  0  0  0  0  0
    6.7805   -9.2678   10.6679 H   0  0  0  0  0  0
    6.3664   -8.4059    9.1473 H   0  0  0  0  0  0
    7.5363   -6.4924    9.7576 H   0  0  0  0  0  0
    7.4626   -6.8741   11.5113 H   0  0  0  0  0  0
    9.7312   -7.1872   10.6662 H   0  0  0  0  0  0
    9.0266   -8.7702   11.1397 H   0  0  0  0  0  0
    9.0731   -9.5275    8.8681 H   0  0  0  0  0  0
    9.7435   -5.9457    9.1967 H   0  0  0  0  0  0
   10.3655   -5.8406    7.3989 H   0  0  0  0  0  0
    9.8353   -9.3933    6.7857 H   0  0  0  0  0  0
    5.0461   -5.5803   11.9079 H   0  0  0  0  0  0
    3.9869   -4.3950    9.2916 H   0  0  0  0  0  0
    3.2173   -3.4235   12.1030 H   0  0  0  0  0  0
    2.4905   -2.9243   10.5380 H   0  0  0  0  0  0
    1.3845   -4.9955   10.2697 H   0  0  0  0  0  0
    2.3691   -5.7843   11.5483 H   0  0  0  0  0  0
    5.5239   -3.2087    8.4080 H   0  0  0  0  0  0
    7.1991   -1.5917   10.3958 H   0  0  0  0  0  0
    7.8768   -3.3245    8.1404 H   0  0  0  0  0  0
    8.9760   -3.3889   10.4112 H   0  0  0  0  0  0
    8.0690   -1.1965    6.8472 H   0  0  0  0  0  0
    9.6557   -2.0010    7.0959 H   0  0  0  0  0  0
    9.2076   -0.5726    8.0886 H   0  0  0  0  0  0
    7.7227    0.5455   10.0399 H   0  0  0  0  0  0
    5.6459    1.8792    8.3656 H   0  0  0  0  0  0
    7.6810    2.7025   10.3966 H   0  0  0  0  0  0
    7.3293    3.9392    9.1422 H   0  0  0  0  0  0
    4.9941    3.9488    9.7138 H   0  0  0  0  0  0
    5.2074    2.5523   10.8232 H   0  0  0  0  0  0
    5.1057    3.0317   12.8930 H   0  0  0  0  0  0
    5.7754    4.6553   13.6316 H   0  0  0  0  0  0
    6.0091    3.4432    6.6880 H   0  0  0  0  0  0
    8.7430    3.1534    5.4466 H   0  0  0  0  0  0
    7.5987    2.8524    3.1180 H   0  0  0  0  0  0
    8.7453    1.0144    4.3185 H   0  0  0  0  0  0
    7.3258    0.4349    3.3826 H   0  0  0  0  0  0
    7.2102    0.6230    5.1653 H   0  0  0  0  0  0
    5.3459    3.5825    3.8272 H   0  0  0  0  0  0
    5.2141    2.1307    4.8769 H   0  0  0  0  0  0
    5.3296    1.9426    3.0942 H   0  0  0  0  0  0
   10.4153   -7.7188    6.0860 H   0  0  0  0  0  0
   -0.6739  -12.4945   17.4048 H   0  0  0  0  0  0
  1  2  1  0  0  0
  1 56  1  0  0  0
  1 57  1  0  0  0
  1 58  1  0  0  0
  2  3  1  0  0  0
  2  5  1  0  0  0
  2 59  1  0  0  0
  3  4  2  0  0  0
  3 12  1  0  0  0
  5  6  1  0  0  0
  5 60  1  0  0  0
  5 61  1  0  0  0
  6  7  1  0  0  0
  6 62  1  0  0  0
  6 63  1  0  0  0
  7  8  1  0  0  0
  7 64  1  0  0  0
  7 65  1  0  0  0
  8  9  1  0  0  0
  8 66  1  0  0  0
  9 10  1  0  0  0
  9 11  2  0  0  0
 10 67  1  0  0  0
 10 68  1  0  0  0
 11 69  1  0  0  0
 11113  1  0  0  0
 12 13  1  0  0  0
 12 70  1  0  0  0
 13 14  1  0  0  0
 13 16  1  0  0  0
 13 71  1  0  0  0
 14 15  2  0  0  0
 14 23  1  0  0  0
 16 17  1  0  0  0
 16 72  1  0  0  0
 16 73  1  0  0  0
 17 18  1  0  0  0
 17 74  1  0  0  0
 17 75  1  0  0  0
 18 19  1  0  0  0
 18 76  1  0  0  0
 18 77  1  0  0  0
 19 20  1  0  0  0
 19 78  1  0  0  0
 20 21  1  0  0  0
 20 22  2  0  0  0
 21 79  1  0  0  0
 21 80  1  0  0  0
 22 81  1  0  0  0
 22112  1  0  0  0
 23 24  1  0  0  0
 23 82  1  0  0  0
 24 25  1  0  0  0
 24 27  1  0  0  0
 24 83  1  0  0  0
 25 26  2  0  0  0
 25 32  1  0  0  0
 27 28  1  0  0  0
 27 84  1  0  0  0
 27 85  1  0  0  0
 28 29  1  0  0  0
 28 86  1  0  0  0
 28 87  1  0  0  0
 29 30  1  0  0  0
 29 31  2  0  0  0
 32 33  1  0  0  0
 32 88  1  0  0  0
 33 34  1  0  0  0
 33 36  1  0  0  0
 33 89  1  0  0  0
 34 35  2  0  0  0
 34 39  1  0  0  0
 36 37  1  0  0  0
 36 38  1  0  0  0
 36 90  1  0  0  0
 37 91  1  0  0  0
 38 92  1  0  0  0
 38 93  1  0  0  0
 38 94  1  0  0  0
 39 40  1  0  0  0
 39 95  1  0  0  0
 40 41  1  0  0  0
 40 43  1  0  0  0
 40 96  1  0  0  0
 41 42  2  0  0  0
 41 48  1  0  0  0
 43 44  1  0  0  0
 43 97  1  0  0  0
 43 98  1  0  0  0
 44 45  1  0  0  0
 44 99  1  0  0  0
 44100  1  0  0  0
 45 46  2  0  0  0
 45 47  1  0  0  0
 47101  1  0  0  0
 47102  1  0  0  0
 48 49  1  0  0  0
 48103  1  0  0  0
 49 50  1  0  0  0
 49 52  1  0  0  0
 49104  1  0  0  0
 50 51  2  0  0  0
 50 55  1  0  0  0
 52 53  1  0  0  0
 52 54  1  0  0  0
 52105  1  0  0  0
 53106  1  0  0  0
 53107  1  0  0  0
 53108  1  0  0  0
 54109  1  0  0  0
 54110  1  0  0  0
 54111  1  0  0  0
M  CHG  5   1   1  11   1  22   1  30  -1  55  -1
M  END
> <s_m_source_file>
../2oqs_ligand.sdf

> <i_m_source_file_index>
1

> <s_epik_input>
W0hdL049QyhbTkgyXSlcW05IXVtDSDJdW0NIMl1bQ0gyXVtDQEhdKFtOSDMrXSlDKD1PKVtOSF1bQ0BASF0oW0NIMl1bQ0gyXVtDSDJdW05IXS9DKFtOSDJdKT1OXFtIXSlDKD1PKVtOSF1bQ0BASF0oW0NIMl1bQ0gyXUMoPU8pW09IXSlDKD1PKVtOSF1bQ0BASF0oW0NASF0oW09IXSlbQ0gzXSlDKD1PKVtOSF1bQ0BASF0oW0NIMl1bQ0gyXUMoPU8pW05IMl0pQyg9TylbTkhdW0NASF0oQyg9TylbT0hdKVtDSF0oW0NIM10pW0NIM10=

> <s_epik_cmdline>
J2VwaWtfYXBwJywgJy1pbWFlJywgJ2xpZ2FuZF9wcm8ubWFlJywgJy1vbWFlJywgJ2xpZ2FuZF9wcmVwLm1hZScsICctbXMnLCAnMScsICctcGgnLCAnNycsICctcGh0JywgJzAuNScsICctbnQn

> <r_epik_Ionization_Penalty>
  0.1386

> <r_epik_Ionization_Penalty_Charging>
  0.1386

> <r_epik_Ionization_Penalty_Neutral>
  0.0000

> <r_epik_State_Penalty>
  0.1260

> <r_epik_Charging_Adjusted_Penalty>
0.26458731622092

> <i_epik_Tot_Q>
1

> <i_epik_Tot_abs_Q>
5

> <s_epik_Chemistry_Notes>
This compound has an imine and may undergo hydrolysis.

$$$$
