2oqv_ligand
                    3D
 Schrodinger Suite 2020-3.
 54 57  0  0  1  0            999 V2000
   12.5690   57.4790   17.5540 C   0  0  0  0  0  0
   11.4670   57.7700   18.3790 C   0  0  0  0  0  0
   11.4500   57.3370   19.7170 C   0  0  0  0  0  0
   12.5340   56.6130   20.2430 C   0  0  0  0  0  0
   14.8090   55.5780   19.7760 C   0  0  0  0  0  0
   17.9610   52.7550   23.7730 C   0  0  0  0  0  0
   18.0880   52.9420   26.2240 C   0  0  0  0  0  0
   18.7540   51.6110   28.5400 C   0  0  0  0  0  0
   18.8120   53.6040   27.1950 C   0  0  0  0  0  0
   16.3830   54.2760   24.9170 C   0  0  1  0  0  0
   16.3720   55.2100   23.7150 C   0  0  0  0  0  0
   19.1690   54.8820   26.9980 F   0  0  0  0  0  0
   19.1460   52.9380   28.3750 C   0  0  0  0  0  0
   19.0530   50.9540   29.6600 F   0  0  0  0  0  0
   18.0500   50.9510   27.5590 C   0  0  0  0  0  0
   17.6860   49.6740   27.7350 F   0  0  0  0  0  0
   17.7110   51.6120   26.3960 C   0  0  0  0  0  0
   17.7720   53.6660   24.9780 C   0  0  2  0  0  0
   18.1300   53.6560   22.5790 C   0  0  0  0  0  0
   16.0770   54.9990   26.1310 N   0  3  0  0  0  0
   16.9490   54.5150   22.5490 N   0  0  0  0  0  0
   16.4010   54.6950   21.2820 C   0  0  0  0  0  0
   15.2530   55.4690   21.0830 C   0  0  0  0  0  0
   17.0250   54.0970   20.2190 N   0  0  0  0  0  0
   16.5550   54.2230   18.9620 C   0  0  0  0  0  0
   15.4550   54.9600   18.7490 N   0  0  0  0  0  0
   13.6190   56.3440   19.4030 C   0  0  0  0  0  0
   13.6290   56.7660   18.0840 C   0  0  0  0  0  0
   12.7010   57.9180   16.0130 S   0  0  0  0  0  0
   13.7310   58.9330   15.8900 O   0  0  0  0  0  0
   11.4230   58.4190   15.5510 O   0  0  0  0  0  0
   13.1240   56.5650   15.1150 C   0  0  0  0  0  0
   10.6234   58.3331   17.9797 H   0  0  0  0  0  0
   10.5917   57.5640   20.3494 H   0  0  0  0  0  0
   12.5289   56.2705   21.2778 H   0  0  0  0  0  0
   18.8531   52.1292   23.9228 H   0  0  0  0  0  0
   17.0766   52.1111   23.6578 H   0  0  0  0  0  0
   15.5970   53.5083   24.8635 H   0  0  0  0  0  0
   15.3368   55.5065   23.4905 H   0  0  0  0  0  0
   16.9691   56.1057   23.9412 H   0  0  0  0  0  0
   19.7064   53.4493   29.1577 H   0  0  0  0  0  0
   17.1511   51.0961   25.6160 H   0  0  0  0  0  0
   18.4903   54.4989   24.9943 H   0  0  0  0  0  0
   19.0490   54.2494   22.6946 H   0  0  0  0  0  0
   18.1998   53.0460   21.6663 H   0  0  0  0  0  0
   15.0670   55.4285   26.0573 H   0  0  0  0  0  0
   16.8098   55.8073   26.2710 H   0  0  0  0  0  0
   16.1214   54.3113   26.9884 H   0  0  0  0  0  0
   14.7375   55.9583   21.9094 H   0  0  0  0  0  0
   17.0617   53.7329   18.1306 H   0  0  0  0  0  0
   14.4866   56.5323   17.4530 H   0  0  0  0  0  0
   14.0945   56.1822   15.4638 H   0  0  0  0  0  0
   13.1983   56.8389   14.0522 H   0  0  0  0  0  0
   12.3565   55.7871   15.2404 H   0  0  0  0  0  0
  1  2  2  0  0  0
  1 28  1  0  0  0
  1 29  1  0  0  0
  2  3  1  0  0  0
  2 33  1  0  0  0
  3  4  2  0  0  0
  3 34  1  0  0  0
  4 27  1  0  0  0
  4 35  1  0  0  0
  5 23  2  0  0  0
  5 26  1  0  0  0
  5 27  1  0  0  0
  6 18  1  0  0  0
  6 19  1  0  0  0
  6 36  1  0  0  0
  6 37  1  0  0  0
  7  9  2  0  0  0
  7 17  1  0  0  0
  7 18  1  0  0  0
  8 13  2  0  0  0
  8 14  1  0  0  0
  8 15  1  0  0  0
  9 12  1  0  0  0
  9 13  1  0  0  0
 10 11  1  0  0  0
 10 18  1  0  0  0
 10 20  1  0  0  0
 10 38  1  0  0  0
 11 21  1  0  0  0
 11 39  1  0  0  0
 11 40  1  0  0  0
 13 41  1  0  0  0
 15 16  1  0  0  0
 15 17  2  0  0  0
 17 42  1  0  0  0
 18 43  1  0  0  0
 19 21  1  0  0  0
 19 44  1  0  0  0
 19 45  1  0  0  0
 20 46  1  0  0  0
 20 47  1  0  0  0
 20 48  1  0  0  0
 21 22  1  0  0  0
 22 23  1  0  0  0
 22 24  2  0  0  0
 23 49  1  0  0  0
 24 25  1  0  0  0
 25 26  2  0  0  0
 25 50  1  0  0  0
 27 28  2  0  0  0
 28 51  1  0  0  0
 29 30  2  0  0  0
 29 31  2  0  0  0
 29 32  1  0  0  0
 32 52  1  0  0  0
 32 53  1  0  0  0
 32 54  1  0  0  0
M  CHG  1  20   1
M  END
> <s_m_source_file>
../2oqv_ligand.sdf

> <i_m_source_file_index>
1

> <s_epik_input>
Tz1TKD1PKShbQ0gzXSljMVtjSF1bY0hdW2NIXWMoW2NIXTEpLWMyW2NIXWMobltjSF1uMilOKFtDSDJdW0NAQEhdM1tOSDMrXSlbQ0gyXVtDSDJdW0NAQEhdM2M0YyhGKVtjSF1jKEYpYyhGKVtjSF00

> <s_epik_cmdline>
J2VwaWtfYXBwJywgJy1pbWFlJywgJ2xpZ2FuZF9wcm8ubWFlJywgJy1vbWFlJywgJ2xpZ2FuZF9wcmVwLm1hZScsICctbXMnLCAnMScsICctcGgnLCAnNycsICctcGh0JywgJzAuNScsICctbnQn

> <r_lp_tautomer_probability>
1

> <r_epik_Ionization_Penalty>
  0.0080

> <r_epik_Ionization_Penalty_Charging>
  0.0035

> <r_epik_Ionization_Penalty_Neutral>
  0.0045

> <r_epik_State_Penalty>
 -0.0000

> <r_epik_Charging_Adjusted_Penalty>
0.00351928930265194

> <i_epik_Tot_Q>
1

> <i_epik_Tot_abs_Q>
1

$$$$
