2or4_ligand
                    3D
 Schrodinger Suite 2020-3.
 19 19  0  0  1  0            999 V2000
   16.9240   44.6790   40.8720 C   0  0  0  0  0  0
   15.9250   44.8060   41.9340 C   0  0  2  0  0  0
   14.4980   44.9880   41.5020 C   0  0  0  0  0  0
   13.6090   46.7560   39.9830 C   0  0  0  0  0  0
   14.1960   48.4700   41.1510 C   0  0  0  0  0  0
   16.3300   45.2530   43.2150 N   0  3  0  0  0  0
   14.6580   46.2750   40.7880 N   0  0  0  0  0  0
   13.4370   48.0850   40.1350 N   0  0  0  0  0  0
   17.7780   45.5660   40.9910 O   0  0  0  0  0  0
   16.8880   43.8860   39.8720 O   0  5  0  0  0  0
   13.0320   45.9570   39.2750 O   0  5  0  0  0  0
   14.3230   49.5500   41.6820 O   0  0  0  0  0  0
   15.0390   47.3800   41.6260 O   0  0  0  0  0  0
   15.9714   43.7943   42.3633 H   0  0  0  0  0  0
   14.1965   44.1421   40.8667 H   0  0  0  0  0  0
   13.8488   45.0299   42.3890 H   0  0  0  0  0  0
   17.3995   45.0384   43.3570 H   0  0  0  0  0  0
   15.7456   44.7312   43.9871 H   0  0  0  0  0  0
   16.1596   46.3367   43.2960 H   0  0  0  0  0  0
  1  2  1  0  0  0
  1  9  2  0  0  0
  1 10  1  0  0  0
  2  3  1  0  0  0
  2  6  1  0  0  0
  2 14  1  0  0  0
  3  7  1  0  0  0
  3 15  1  0  0  0
  3 16  1  0  0  0
  4  7  1  0  0  0
  4  8  2  0  0  0
  4 11  1  0  0  0
  5  8  1  0  0  0
  5 12  2  0  0  0
  5 13  1  0  0  0
  6 17  1  0  0  0
  6 18  1  0  0  0
  6 19  1  0  0  0
  7 13  1  0  0  0
M  CHG  3   6   1  10  -1  11  -1
M  END
> <s_m_source_file>
../2or4_ligand.sdf

> <i_m_source_file_index>
1

> <s_epik_input>
Tz1DKFtPSF0pW0NAQEhdKFtOSDMrXSlbQ0gyXW4oYzE9TylvYyg9TylbbkhdMQ==

> <s_epik_cmdline>
J2VwaWtfYXBwJywgJy1pbWFlJywgJ2xpZ2FuZF9wcm8ubWFlJywgJy1vbWFlJywgJ2xpZ2FuZF9wcmVwLm1hZScsICctbXMnLCAnMScsICctcGgnLCAnNycsICctcGh0JywgJzAuNScsICctbnQn

> <r_lp_tautomer_probability>
1

> <r_epik_Ionization_Penalty>
  0.0168

> <r_epik_Ionization_Penalty_Charging>
  0.0168

> <r_epik_Ionization_Penalty_Neutral>
  0.0000

> <r_epik_State_Penalty>
 -0.0000

> <r_epik_Charging_Adjusted_Penalty>
0.0168115722335693

> <i_epik_Tot_Q>
-1

> <i_epik_Tot_abs_Q>
3

$$$$
