2or9_ligand
                    3D
 Schrodinger Suite 2020-3.
186185  0  0  1  0            999 V2000
   43.1710   46.9300   -2.0440 N   0  3  0  0  0  0
   43.3530   48.3990   -1.8440 C   0  0  2  0  0  0
   44.8410   48.7850   -1.6900 C   0  0  0  0  0  0
   45.6540   48.0020   -1.1690 O   0  0  0  0  0  0
   42.5620   48.8650   -0.6160 C   0  0  0  0  0  0
   42.5120   50.3850   -0.4680 C   0  0  0  0  0  0
   42.0020   50.8840    0.8990 C   0  0  0  0  0  0
   41.9920   52.1210    1.0830 O   0  0  0  0  0  0
   41.6210   50.0690    1.7770 O   0  0  0  0  0  0
   45.1870   49.9860   -2.1650 N   0  0  0  0  0  0
   46.5530   50.5120   -2.0730 C   0  0  2  0  0  0
   46.5210   51.9850   -1.6890 C   0  0  0  0  0  0
   45.8400   52.7840   -2.3310 O   0  0  0  0  0  0
   47.2950   50.3490   -3.3960 C   0  0  0  0  0  0
   47.4670   48.9200   -3.7980 C   0  0  0  0  0  0
   48.3310   48.7610   -5.0240 C   0  0  0  0  0  0
   49.5100   49.1070   -5.0010 O   0  0  0  0  0  0
   47.7510   48.2350   -6.1100 N   0  0  0  0  0  0
   47.2580   52.3320   -0.6400 N   0  0  0  0  0  0
   47.3000   53.6980   -0.1710 C   0  0  2  0  0  0
   48.4540   53.9770    0.7850 C   0  0  0  0  0  0
   48.9760   53.0800    1.4500 O   0  0  0  0  0  0
   45.9930   54.0540    0.5400 C   0  0  0  0  0  0
   45.9410   53.5810    1.9880 C   0  0  0  0  0  0
   44.6720   54.0240    2.6990 C   0  0  0  0  0  0
   44.7590   53.7020    4.1880 C   0  0  0  0  0  0
   43.4310   53.6660    4.8450 N   0  3  0  0  0  0
   48.8350   55.2470    0.8540 N   0  0  0  0  0  0
   49.9010   55.6710    1.7320 C   0  0  2  0  0  0
   49.2880   55.8420    3.1070 C   0  0  0  0  0  0
   48.0770   56.0290    3.2340 O   0  0  0  0  0  0
   50.5030   56.9830    1.2290 C   0  0  0  0  0  0
   51.1620   56.9210   -0.1580 C   0  0  0  0  0  0
   51.4590   58.3410   -0.6000 C   0  0  0  0  0  0
   52.4500   56.0890   -0.1380 C   0  0  0  0  0  0
   50.1240   55.7790    4.1330 N   0  0  0  0  0  0
   49.6660   55.8790    5.5120 C   0  0  2  0  0  0
   50.7710   56.3920    6.4160 C   0  0  0  0  0  0
   51.9330   56.4490    6.0300 O   0  0  0  0  0  0
   49.2830   54.5020    6.0350 C   0  0  2  0  0  0
   50.4560   53.5360    5.7710 C   0  0  0  0  0  0
   48.0100   54.0210    5.3590 C   0  0  0  0  0  0
   50.4070   52.2510    6.5290 C   0  0  0  0  0  0
   50.4100   56.7260    7.6440 N   0  0  0  0  0  0
   51.3870   57.2210    8.5890 C   0  0  2  0  0  0
   52.1300   56.0290    9.1820 C   0  0  0  0  0  0
   51.6250   54.9090    9.1690 O   0  0  0  0  0  0
   50.6880   57.9890    9.7050 C   0  0  0  0  0  0
   50.0220   57.0960   10.5810 O   0  0  0  0  0  0
   53.3290   56.2670    9.6950 N   0  0  0  0  0  0
   54.0910   55.2030   10.3070 C   0  0  2  0  0  0
   53.2390   54.6610   11.4540 C   0  0  0  0  0  0
   53.2770   53.4700   11.7540 O   0  0  0  0  0  0
   55.4110   55.7420   10.8560 C   0  0  0  0  0  0
   56.4200   54.6540   11.1900 C   0  0  0  0  0  0
   57.6530   55.1700   11.9300 C   0  0  0  0  0  0
   58.1180   56.2910   11.6200 O   0  0  0  0  0  0
   58.1690   54.4450   12.8120 O   0  0  0  0  0  0
   52.4620   55.5370   12.0860 N   0  0  0  0  0  0
   51.6140   55.1300   13.2020 C   0  0  2  0  0  0
   50.5250   54.1370   12.8070 C   0  0  0  0  0  0
   50.2330   53.2000   13.5580 O   0  0  0  0  0  0
   50.9690   56.3480   13.8620 C   0  0  0  0  0  0
   51.9330   57.1890   14.6910 C   0  0  0  0  0  0
   52.3660   56.5130   15.9840 C   0  0  0  0  0  0
   51.4750   56.0200   16.7140 O   0  0  0  0  0  0
   53.5890   56.4890   16.2760 O   0  0  0  0  0  0
   49.9120   54.3400   11.6430 N   0  0  0  0  0  0
   48.8760   53.4250   11.1930 C   0  0  2  0  0  0
   49.5420   52.1780   10.6440 C   0  0  0  0  0  0
   48.8730   51.2460   10.2090 O   0  0  0  0  0  0
   48.0140   54.0440   10.0870 C   0  0  0  0  0  0
   47.3590   55.3360   10.5080 C   0  0  0  0  0  0
   47.0990   55.4960   11.7160 O   0  0  0  0  0  0
   47.0940   56.1830    9.6230 O   0  0  0  0  0  0
   50.8670   52.1570   10.6670 N   0  0  0  0  0  0
   51.5900   51.0150   10.1430 C   0  0  2  0  0  0
   51.4250   49.7360   10.9550 C   0  0  0  0  0  0
   51.1320   48.6960   10.3910 O   0  0  0  0  0  0
   53.0740   51.3540    9.9910 C   0  0  0  0  0  0
   53.9080   50.2650    9.3140 C   0  0  0  0  0  0
   55.1070   50.8980    8.6350 C   0  0  0  0  0  0
   54.3410   49.2070   10.3340 C   0  0  0  0  0  0
   51.6050   49.8020   12.2700 N   0  0  0  0  0  0
   51.4810   48.6000   13.1030 C   0  0  2  0  0  0
   50.0440   48.1620   13.4310 C   0  0  0  0  0  0
   49.8620   46.9960   13.8540 O   0  0  0  0  0  0
   52.2900   48.7550   14.4050 C   0  0  0  0  0  0
   52.0500   50.0820   15.0970 C   0  0  0  0  0  0
   52.4890   51.1330   14.6180 O   0  0  0  0  0  0
   51.3520   50.0450   16.2320 N   0  0  0  0  0  0
   49.1150   48.9780   13.2710 O   0  0  0  0  0  0
   43.7422   46.6066   -2.9267 H   0  0  0  0  0  0
   42.1041   46.7102   -2.1969 H   0  0  0  0  0  0
   43.5327   46.3914   -1.1557 H   0  0  0  0  0  0
   42.9567   48.8738   -2.7536 H   0  0  0  0  0  0
   41.5249   48.5058   -0.6900 H   0  0  0  0  0  0
   43.0264   48.4593    0.2949 H   0  0  0  0  0  0
   43.5222   50.7997   -0.6006 H   0  0  0  0  0  0
   41.8399   50.8057   -1.2304 H   0  0  0  0  0  0
   41.2591   50.4365    2.7486 H   0  0  0  0  0  0
   44.3973   50.5864   -2.6403 H   0  0  0  0  0  0
   47.0500   49.9180   -1.2919 H   0  0  0  0  0  0
   46.7344   50.8554   -4.1956 H   0  0  0  0  0  0
   48.2971   50.7948   -3.3118 H   0  0  0  0  0  0
   47.9412   48.3626   -2.9767 H   0  0  0  0  0  0
   46.4833   48.4804   -4.0194 H   0  0  0  0  0  0
   46.6915   47.9409   -6.0797 H   0  0  0  0  0  0
   48.3340   48.0969   -7.0325 H   0  0  0  0  0  0
   47.8438   51.5557   -0.1260 H   0  0  0  0  0  0
   47.4514   54.2655   -1.1011 H   0  0  0  0  0  0
   45.8643   55.1464    0.5454 H   0  0  0  0  0  0
   45.1489   53.5880    0.0106 H   0  0  0  0  0  0
   45.9794   52.4820    2.0163 H   0  0  0  0  0  0
   46.7996   53.9922    2.5391 H   0  0  0  0  0  0
   44.5410   55.1089    2.5734 H   0  0  0  0  0  0
   43.8074   53.4980    2.2679 H   0  0  0  0  0  0
   45.2281   52.7163    4.3232 H   0  0  0  0  0  0
   45.3642   54.4685    4.6942 H   0  0  0  0  0  0
   43.5562   53.4304    5.9121 H   0  0  0  0  0  0
   42.8076   52.8943    4.3697 H   0  0  0  0  0  0
   42.9436   54.6466    4.7407 H   0  0  0  0  0  0
   48.3176   55.9834    0.2216 H   0  0  0  0  0  0
   50.6853   54.8998    1.7364 H   0  0  0  0  0  0
   49.7143   57.7469    1.1633 H   0  0  0  0  0  0
   51.2828   57.3203    1.9277 H   0  0  0  0  0  0
   50.4770   56.4402   -0.8718 H   0  0  0  0  0  0
   50.5267   58.9247   -0.6093 H   0  0  0  0  0  0
   51.8931   58.3272   -1.6106 H   0  0  0  0  0  0
   52.1726   58.8010    0.0994 H   0  0  0  0  0  0
   52.2187   55.0630    0.1841 H   0  0  0  0  0  0
   53.1673   56.5405    0.5631 H   0  0  0  0  0  0
   52.8878   56.0667   -1.1469 H   0  0  0  0  0  0
   51.1945   55.6467    3.9172 H   0  0  0  0  0  0
   48.8146   56.5746    5.4774 H   0  0  0  0  0  0
   49.0743   54.5536    7.1138 H   0  0  0  0  0  0
   50.4777   53.2685    4.7042 H   0  0  0  0  0  0
   51.4024   54.0246    6.0458 H   0  0  0  0  0  0
   47.1946   54.7298    5.5660 H   0  0  0  0  0  0
   47.7406   53.0282    5.7486 H   0  0  0  0  0  0
   48.1733   53.9568    4.2731 H   0  0  0  0  0  0
   51.2835   51.6389    6.2699 H   0  0  0  0  0  0
   49.4884   51.7056    6.2670 H   0  0  0  0  0  0
   50.4130   52.4617    7.6086 H   0  0  0  0  0  0
   49.3566   56.6246    7.9442 H   0  0  0  0  0  0
   52.0639   57.8877    8.0347 H   0  0  0  0  0  0
   51.4321   58.5623   10.2774 H   0  0  0  0  0  0
   49.9501   58.6785    9.2692 H   0  0  0  0  0  0
   49.4647   57.4866   11.4452 H   0  0  0  0  0  0
   53.7428   57.2853    9.6518 H   0  0  0  0  0  0
   54.3003   54.4476    9.5352 H   0  0  0  0  0  0
   55.8756   56.4034   10.1099 H   0  0  0  0  0  0
   55.2201   56.3081   11.7796 H   0  0  0  0  0  0
   55.9445   53.8974   11.8315 H   0  0  0  0  0  0
   56.7690   54.1798   10.2608 H   0  0  0  0  0  0
   59.0573   54.7929   13.3596 H   0  0  0  0  0  0
   52.4668   56.5853   11.7526 H   0  0  0  0  0  0
   52.3195   54.6268   13.8796 H   0  0  0  0  0  0
   50.5494   57.0059   13.0867 H   0  0  0  0  0  0
   50.1654   56.0171   14.5363 H   0  0  0  0  0  0
   52.8409   57.3916   14.1039 H   0  0  0  0  0  0
   51.4510   58.1402   14.9608 H   0  0  0  0  0  0
   53.9231   56.0055   17.2058 H   0  0  0  0  0  0
   50.1915   55.2032   11.0211 H   0  0  0  0  0  0
   48.2586   53.2141   12.0786 H   0  0  0  0  0  0
   48.6415   54.2568    9.2089 H   0  0  0  0  0  0
   47.2169   53.3400    9.8061 H   0  0  0  0  0  0
   46.6164   57.1349    9.8982 H   0  0  0  0  0  0
   51.4181   53.0117   11.0863 H   0  0  0  0  0  0
   51.1011   50.8493    9.1717 H   0  0  0  0  0  0
   53.1818   52.2638    9.3822 H   0  0  0  0  0  0
   53.5151   51.5231   10.9844 H   0  0  0  0  0  0
   53.3043   49.7627    8.5438 H   0  0  0  0  0  0
   54.7630   51.6510    7.9107 H   0  0  0  0  0  0
   55.6837   50.1217    8.1108 H   0  0  0  0  0  0
   55.7441   51.3805    9.3909 H   0  0  0  0  0  0
   53.4504   48.7681   10.8076 H   0  0  0  0  0  0
   54.9719   49.6760   11.1034 H   0  0  0  0  0  0
   54.9116   48.4173    9.8233 H   0  0  0  0  0  0
   51.8491   50.7694   12.7332 H   0  0  0  0  0  0
   51.9020   47.8323   12.4372 H   0  0  0  0  0  0
   48.8461   46.6517   14.0978 H   0  0  0  0  0  0
   52.0102   47.9564   15.1078 H   0  0  0  0  0  0
   53.3644   48.6853   14.1796 H   0  0  0  0  0  0
   50.9818   49.0842   16.6189 H   0  0  0  0  0  0
   51.1462   50.9753   16.7817 H   0  0  0  0  0  0
  1  2  1  0  0  0
  1 93  1  0  0  0
  1 94  1  0  0  0
  1 95  1  0  0  0
  2  3  1  0  0  0
  2  5  1  0  0  0
  2 96  1  0  0  0
  3  4  2  0  0  0
  3 10  1  0  0  0
  5  6  1  0  0  0
  5 97  1  0  0  0
  5 98  1  0  0  0
  6  7  1  0  0  0
  6 99  1  0  0  0
  6100  1  0  0  0
  7  8  2  0  0  0
  7  9  1  0  0  0
  9101  1  0  0  0
 10 11  1  0  0  0
 10102  1  0  0  0
 11 12  1  0  0  0
 11 14  1  0  0  0
 11103  1  0  0  0
 12 13  2  0  0  0
 12 19  1  0  0  0
 14 15  1  0  0  0
 14104  1  0  0  0
 14105  1  0  0  0
 15 16  1  0  0  0
 15106  1  0  0  0
 15107  1  0  0  0
 16 17  2  0  0  0
 16 18  1  0  0  0
 18108  1  0  0  0
 18109  1  0  0  0
 19 20  1  0  0  0
 19110  1  0  0  0
 20 21  1  0  0  0
 20 23  1  0  0  0
 20111  1  0  0  0
 21 22  2  0  0  0
 21 28  1  0  0  0
 23 24  1  0  0  0
 23112  1  0  0  0
 23113  1  0  0  0
 24 25  1  0  0  0
 24114  1  0  0  0
 24115  1  0  0  0
 25 26  1  0  0  0
 25116  1  0  0  0
 25117  1  0  0  0
 26 27  1  0  0  0
 26118  1  0  0  0
 26119  1  0  0  0
 27120  1  0  0  0
 27121  1  0  0  0
 27122  1  0  0  0
 28 29  1  0  0  0
 28123  1  0  0  0
 29 30  1  0  0  0
 29 32  1  0  0  0
 29124  1  0  0  0
 30 31  2  0  0  0
 30 36  1  0  0  0
 32 33  1  0  0  0
 32125  1  0  0  0
 32126  1  0  0  0
 33 34  1  0  0  0
 33 35  1  0  0  0
 33127  1  0  0  0
 34128  1  0  0  0
 34129  1  0  0  0
 34130  1  0  0  0
 35131  1  0  0  0
 35132  1  0  0  0
 35133  1  0  0  0
 36 37  1  0  0  0
 36134  1  0  0  0
 37 38  1  0  0  0
 37 40  1  0  0  0
 37135  1  0  0  0
 38 39  2  0  0  0
 38 44  1  0  0  0
 40 41  1  0  0  0
 40 42  1  0  0  0
 40136  1  0  0  0
 41 43  1  0  0  0
 41137  1  0  0  0
 41138  1  0  0  0
 42139  1  0  0  0
 42140  1  0  0  0
 42141  1  0  0  0
 43142  1  0  0  0
 43143  1  0  0  0
 43144  1  0  0  0
 44 45  1  0  0  0
 44145  1  0  0  0
 45 46  1  0  0  0
 45 48  1  0  0  0
 45146  1  0  0  0
 46 47  2  0  0  0
 46 50  1  0  0  0
 48 49  1  0  0  0
 48147  1  0  0  0
 48148  1  0  0  0
 49149  1  0  0  0
 50 51  1  0  0  0
 50150  1  0  0  0
 51 52  1  0  0  0
 51 54  1  0  0  0
 51151  1  0  0  0
 52 53  2  0  0  0
 52 59  1  0  0  0
 54 55  1  0  0  0
 54152  1  0  0  0
 54153  1  0  0  0
 55 56  1  0  0  0
 55154  1  0  0  0
 55155  1  0  0  0
 56 57  2  0  0  0
 56 58  1  0  0  0
 58156  1  0  0  0
 59 60  1  0  0  0
 59157  1  0  0  0
 60 61  1  0  0  0
 60 63  1  0  0  0
 60158  1  0  0  0
 61 62  2  0  0  0
 61 68  1  0  0  0
 63 64  1  0  0  0
 63159  1  0  0  0
 63160  1  0  0  0
 64 65  1  0  0  0
 64161  1  0  0  0
 64162  1  0  0  0
 65 66  2  0  0  0
 65 67  1  0  0  0
 67163  1  0  0  0
 68 69  1  0  0  0
 68164  1  0  0  0
 69 70  1  0  0  0
 69 72  1  0  0  0
 69165  1  0  0  0
 70 71  2  0  0  0
 70 76  1  0  0  0
 72 73  1  0  0  0
 72166  1  0  0  0
 72167  1  0  0  0
 73 74  2  0  0  0
 73 75  1  0  0  0
 75168  1  0  0  0
 76 77  1  0  0  0
 76169  1  0  0  0
 77 78  1  0  0  0
 77 80  1  0  0  0
 77170  1  0  0  0
 78 79  2  0  0  0
 78 84  1  0  0  0
 80 81  1  0  0  0
 80171  1  0  0  0
 80172  1  0  0  0
 81 82  1  0  0  0
 81 83  1  0  0  0
 81173  1  0  0  0
 82174  1  0  0  0
 82175  1  0  0  0
 82176  1  0  0  0
 83177  1  0  0  0
 83178  1  0  0  0
 83179  1  0  0  0
 84 85  1  0  0  0
 84180  1  0  0  0
 85 86  1  0  0  0
 85 88  1  0  0  0
 85181  1  0  0  0
 86 87  1  0  0  0
 86 92  2  0  0  0
 87182  1  0  0  0
 88 89  1  0  0  0
 88183  1  0  0  0
 88184  1  0  0  0
 89 90  2  0  0  0
 89 91  1  0  0  0
 91185  1  0  0  0
 91186  1  0  0  0
M  CHG  2   1   1  27   1
M  END
> <s_m_source_file>
../2or9_ligand.sdf

> <i_m_source_file_index>
1

> <s_epik_input>
Tz1DKFtPSF0pW0NIMl1bQ0gyXVtDQEhdKFtOSDMrXSlDKD1PKVtOSF1bQ0BASF0oW0NIMl1bQ0gyXUMoPU8pW05IMl0pQyg9TylbTkhdW0NAQEhdKFtDSDJdW0NIMl1bQ0gyXVtDSDJdW05IMytdKUMoPU8pW05IXVtDQEBIXShbQ0gyXVtDSF0oW0NIM10pW0NIM10pQyg9TylbTkhdW0NAQEhdKFtDQEBIXShbQ0gzXSlbQ0gyXVtDSDNdKUMoPU8pW05IXVtDQEBIXShbQ0gyXVtPSF0pQyg9TylbTkhdW0NAQEhdKFtDSDJdW0NIMl1DKD1PKVtPSF0pQyg9TylbTkhdW0NAQEhdKFtDSDJdW0NIMl1DKD1PKVtPSF0pQyg9TylbTkhdW0NAQEhdKFtDSDJdQyg9TylbT0hdKUMoPU8pW05IXVtDQEBIXShbQ0gyXVtDSF0oW0NIM10pW0NIM10pQyg9TylbTkhdW0NASF0oQyg9TylbT0hdKVtDSDJdQyg9TylbTkgyXQ==

> <s_epik_cmdline>
J2VwaWtfYXBwJywgJy1pbWFlJywgJ2xpZ2FuZF9wcm8ubWFlJywgJy1vbWFlJywgJ2xpZ2FuZF9wcmVwLm1hZScsICctbXMnLCAnMScsICctcGgnLCAnNycsICctcGh0JywgJzAuNScsICctbnQn

> <s_epik_pKa_notes>
Molecule size exceeds maximum supported for generating protonation states

$$$$
