2ork_ligand
                    3D
 Schrodinger Suite 2020-3.
 27 27  0  0  1  0            999 V2000
   28.7440   18.7160  -25.0230 C   0  0  2  0  0  0
   29.1360   20.1150  -25.5180 C   0  0  1  0  0  0
   27.9400   21.0370  -25.8060 C   0  0  1  0  0  0
   26.9790   21.1160  -24.6160 C   0  0  2  0  0  0
   26.5590   19.7060  -24.1970 C   0  0  1  0  0  0
   27.7730   18.8370  -23.8470 C   0  0  1  0  0  0
   30.4110   16.5600  -24.8880 P   0  0  0  0  0  0
   29.9220   18.0670  -24.5310 O   0  0  0  0  0  0
   29.9490   20.7300  -24.5090 O   0  0  0  0  0  0
   28.3830   22.3750  -26.0750 O   0  0  0  0  0  0
   25.8390   21.8920  -24.9950 O   0  0  0  0  0  0
   25.6580   19.8150  -23.0800 O   0  0  0  0  0  0
   27.3730   17.5270  -23.4260 O   0  0  0  0  0  0
   31.8140   16.5320  -24.3240 O   0  5  0  0  0  0
   29.4310   15.6560  -24.1780 O   0  0  0  0  0  0
   30.3660   16.4880  -26.3970 O   0  5  0  0  0  0
   28.3267   18.1092  -25.8401 H   0  0  0  0  0  0
   29.7245   20.0102  -26.4414 H   0  0  0  0  0  0
   27.4333   20.6671  -26.7095 H   0  0  0  0  0  0
   27.4243   21.6460  -23.7611 H   0  0  0  0  0  0
   25.9970   19.2076  -25.0006 H   0  0  0  0  0  0
   28.2795   19.2797  -22.9766 H   0  0  0  0  0  0
   30.8622   20.2279  -24.1569 H   0  0  0  0  0  0
   29.0881   22.5660  -26.8974 H   0  0  0  0  0  0
   25.9675   22.9337  -25.3242 H   0  0  0  0  0  0
   24.7360   20.4077  -23.1729 H   0  0  0  0  0  0
   28.1332   16.7850  -23.1404 H   0  0  0  0  0  0
  1  2  1  0  0  0
  1  6  1  0  0  0
  1  8  1  0  0  0
  1 17  1  0  0  0
  2  3  1  0  0  0
  2  9  1  0  0  0
  2 18  1  0  0  0
  3  4  1  0  0  0
  3 10  1  0  0  0
  3 19  1  0  0  0
  4  5  1  0  0  0
  4 11  1  0  0  0
  4 20  1  0  0  0
  5  6  1  0  0  0
  5 12  1  0  0  0
  5 21  1  0  0  0
  6 13  1  0  0  0
  6 22  1  0  0  0
  7  8  1  0  0  0
  7 14  1  0  0  0
  7 15  2  0  0  0
  7 16  1  0  0  0
  9 23  1  0  0  0
 10 24  1  0  0  0
 11 25  1  0  0  0
 12 26  1  0  0  0
 13 27  1  0  0  0
M  CHG  2  14  -1  16  -1
M  END
> <s_m_source_file>
../2ork_ligand.sdf

> <i_m_source_file_index>
1

> <s_epik_input>
W09IXVAoPU8pKFtPSF0pT1tDQEBIXTFbQ0BIXShbT0hdKVtDQEhdKFtPSF0pW0NAQEhdKFtPSF0pW0NASF0oW09IXSlbQ0BIXTFbT0hd

> <s_epik_cmdline>
J2VwaWtfYXBwJywgJy1pbWFlJywgJ2xpZ2FuZF9wcm8ubWFlJywgJy1vbWFlJywgJ2xpZ2FuZF9wcmVwLm1hZScsICctbXMnLCAnMScsICctcGgnLCAnNycsICctcGh0JywgJzAuNScsICctbnQn

> <r_epik_Ionization_Penalty>
  0.1175

> <r_epik_Ionization_Penalty_Charging>
  0.1175

> <r_epik_Ionization_Penalty_Neutral>
  0.0000

> <r_epik_State_Penalty>
  0.1071

> <r_epik_Charging_Adjusted_Penalty>
0.224557059834464

> <i_epik_Tot_Q>
-2

> <i_epik_Tot_abs_Q>
2

$$$$
