2os9_ligand
                    3D
 Schrodinger Suite 2020-3.
 24 24  0  0  1  0            999 V2000
   27.6770  -13.6400   11.2180 C   0  0  2  0  0  0
   27.6530  -14.7060   10.0560 C   0  0  1  0  0  0
   28.6950  -14.3490    8.9630 C   0  0  1  0  0  0
   30.0880  -14.0470    9.5230 C   0  0  2  0  0  0
   30.0520  -12.9170   10.6150 C   0  0  1  0  0  0
   29.1190  -13.3710   11.7880 C   0  0  1  0  0  0
   26.8030  -14.0810   12.3460 O   0  0  0  0  0  0
   27.8970  -16.0700   10.4990 O   0  0  0  0  0  0
   28.8190  -15.4510    8.0370 O   0  0  0  0  0  0
   30.9250  -13.7080    8.4080 O   0  0  0  0  0  0
   31.3680  -12.6770   11.1430 O   0  0  0  0  0  0
   29.0640  -12.3490   12.8320 O   0  0  0  0  0  0
   27.2656  -12.7038   10.8127 H   0  0  0  0  0  0
   26.6294  -14.7521    9.6559 H   0  0  0  0  0  0
   28.3338  -13.4692    8.4102 H   0  0  0  0  0  0
   30.5426  -14.9431    9.9707 H   0  0  0  0  0  0
   29.7515  -11.9532   10.1783 H   0  0  0  0  0  0
   29.5314  -14.2535   12.2991 H   0  0  0  0  0  0
   25.7458  -14.3221   12.1609 H   0  0  0  0  0  0
   27.2611  -16.5177   11.2770 H   0  0  0  0  0  0
   27.9295  -15.8337    7.5153 H   0  0  0  0  0  0
   31.0388  -14.4130    7.5713 H   0  0  0  0  0  0
   32.1771  -12.3473   10.4746 H   0  0  0  0  0  0
   28.4499  -12.5125   13.7299 H   0  0  0  0  0  0
  1  2  1  0  0  0
  1  6  1  0  0  0
  1  7  1  0  0  0
  1 13  1  0  0  0
  2  3  1  0  0  0
  2  8  1  0  0  0
  2 14  1  0  0  0
  3  4  1  0  0  0
  3  9  1  0  0  0
  3 15  1  0  0  0
  4  5  1  0  0  0
  4 10  1  0  0  0
  4 16  1  0  0  0
  5  6  1  0  0  0
  5 11  1  0  0  0
  5 17  1  0  0  0
  6 12  1  0  0  0
  6 18  1  0  0  0
  7 19  1  0  0  0
  8 20  1  0  0  0
  9 21  1  0  0  0
 10 22  1  0  0  0
 11 23  1  0  0  0
 12 24  1  0  0  0
M  END
> <s_m_source_file>
../2os9_ligand.sdf

> <i_m_source_file_index>
1

> <s_epik_input>
W09IXVtDQEBIXTFbQ0BIXShbT0hdKVtDQEhdKFtPSF0pW0NAQEhdKFtPSF0pW0NASF0oW09IXSlbQ0BIXTFbT0hd

> <s_epik_cmdline>
J2VwaWtfYXBwJywgJy1pbWFlJywgJ2xpZ2FuZF9wcm8ubWFlJywgJy1vbWFlJywgJ2xpZ2FuZF9wcmVwLm1hZScsICctbXMnLCAnMScsICctcGgnLCAnNycsICctcGh0JywgJzAuNScsICctbnQn

> <r_lp_tautomer_probability>
1

> <r_epik_Ionization_Penalty>
  0.0000

> <r_epik_Ionization_Penalty_Charging>
  0.0000

> <r_epik_Ionization_Penalty_Neutral>
  0.0000

> <r_epik_State_Penalty>
 -0.0000

> <r_epik_Charging_Adjusted_Penalty>
0

> <i_epik_Tot_Q>
0

> <i_epik_Tot_abs_Q>
0

$$$$
