2osc_ligand
                    3D
 Schrodinger Suite 2020-3.
 51 54  0  0  1  0            999 V2000
   53.3200   -0.3770   71.1290 C   0  0  0  0  0  0
   53.4820   -0.1600   72.5790 C   0  0  0  0  0  0
   53.2700   -1.2700   73.5490 C   0  0  0  0  0  0
   52.8680   -2.5990   73.0480 C   0  0  0  0  0  0
   52.7180   -2.8080   71.5970 C   0  0  0  0  0  0
   52.9460   -1.7080   70.6400 C   0  0  0  0  0  0
   52.6000   -3.6530   74.0220 C   0  0  0  0  0  0
   53.4690    0.6270   70.1660 N   0  0  0  0  0  0
   53.7270    1.9500   70.3340 C   0  0  0  0  0  0
   52.6710    2.6070   68.0590 C   0  0  0  0  0  0
   53.7060    2.7160   69.0950 C   0  0  0  0  0  0
   54.8110    3.6460   68.9570 C   0  0  0  0  0  0
   54.9260    4.5270   67.7790 C   0  0  0  0  0  0
   53.8860    4.4150   66.7290 C   0  0  0  0  0  0
   52.7710    3.4570   66.8730 C   0  0  0  0  0  0
   56.0880    5.5470   67.7160 C   0  0  0  0  0  0
   56.4190    5.9800   66.5040 F   0  0  0  0  0  0
   57.2070    5.0290   68.1820 F   0  0  0  0  0  0
   55.7310    6.6020   68.4700 F   0  0  0  0  0  0
   53.4930   -1.0900   74.9440 N   0  0  0  0  0  0
   52.8920   -0.7450   77.3580 C   0  0  0  0  0  0
   51.7720   -0.4130   78.2530 C   0  0  0  0  0  0
   50.4000   -0.1300   77.8440 C   0  0  0  0  0  0
   50.1420   -0.1910   76.4120 C   0  0  0  0  0  0
   51.2020   -0.5090   75.5460 N   0  0  0  0  0  0
   52.5270   -0.7810   75.9310 C   0  0  0  0  0  0
   54.6940   -1.0350   79.2310 C   0  0  0  0  0  0
   56.0760   -1.2390   79.5000 C   0  0  0  0  0  0
   56.9980   -1.4290   78.5000 N   0  0  0  0  0  0
   56.6870   -1.4410   77.1590 C   0  0  0  0  0  0
   55.3620   -1.2450   76.8620 N   0  0  0  0  0  0
   54.3190   -1.0360   77.8380 C   0  0  0  0  0  0
   53.9770    2.5240   71.3930 O   0  0  0  0  0  0
   53.7611    0.8277   72.9461 H   0  0  0  0  0  0
   52.4337   -3.7920   71.2242 H   0  0  0  0  0  0
   52.8365   -1.8848   69.5700 H   0  0  0  0  0  0
   52.7785   -3.2683   75.0370 H   0  0  0  0  0  0
   53.2666   -4.5069   73.8310 H   0  0  0  0  0  0
   51.5529   -3.9779   73.9319 H   0  0  0  0  0  0
   53.3768    0.3823   69.0975 H   0  0  0  0  0  0
   51.8440    1.9060   68.1717 H   0  0  0  0  0  0
   55.5700    3.6948   69.7378 H   0  0  0  0  0  0
   53.9445    5.0457   65.8419 H   0  0  0  0  0  0
   52.0170    3.3830   66.0894 H   0  0  0  0  0  0
   54.5079   -1.1902   75.3562 H   0  0  0  0  0  0
   51.9872   -0.3749   79.3209 H   0  0  0  0  0  0
   49.6183    0.1116   78.5642 H   0  0  0  0  0  0
   49.1447    0.0064   76.0190 H   0  0  0  0  0  0
   53.9644   -0.8873   80.0273 H   0  0  0  0  0  0
   56.4149   -1.2447   80.5359 H   0  0  0  0  0  0
   57.4409   -1.5954   76.3870 H   0  0  0  0  0  0
  1  2  2  0  0  0
  1  6  1  0  0  0
  1  8  1  0  0  0
  2  3  1  0  0  0
  2 34  1  0  0  0
  3  4  2  0  0  0
  3 20  1  0  0  0
  4  5  1  0  0  0
  4  7  1  0  0  0
  5  6  2  0  0  0
  5 35  1  0  0  0
  6 36  1  0  0  0
  7 37  1  0  0  0
  7 38  1  0  0  0
  7 39  1  0  0  0
  8  9  1  0  0  0
  8 40  1  0  0  0
  9 11  1  0  0  0
  9 33  2  0  0  0
 10 11  2  0  0  0
 10 15  1  0  0  0
 10 41  1  0  0  0
 11 12  1  0  0  0
 12 13  2  0  0  0
 12 42  1  0  0  0
 13 14  1  0  0  0
 13 16  1  0  0  0
 14 15  2  0  0  0
 14 43  1  0  0  0
 15 44  1  0  0  0
 16 17  1  0  0  0
 16 18  1  0  0  0
 16 19  1  0  0  0
 20 26  1  0  0  0
 20 45  1  0  0  0
 21 22  2  0  0  0
 21 26  1  0  0  0
 21 32  1  0  0  0
 22 23  1  0  0  0
 22 46  1  0  0  0
 23 24  2  0  0  0
 23 47  1  0  0  0
 24 25  1  0  0  0
 24 48  1  0  0  0
 25 26  2  0  0  0
 27 28  2  0  0  0
 27 32  1  0  0  0
 27 49  1  0  0  0
 28 29  1  0  0  0
 28 50  1  0  0  0
 29 30  2  0  0  0
 30 31  1  0  0  0
 30 51  1  0  0  0
 31 32  2  0  0  0
M  END
> <s_m_source_file>
../2osc_ligand.sdf

> <i_m_source_file_index>
1

> <s_epik_input>
RkMoRikoRiljKFtjSF0xKVtjSF1bY0hdW2NIXWMxQyg9TylbTkhdYzJbY0hdYyhjKFtDSDNdKVtjSF1bY0hdMilbTkhdYzNuW2NIXVtjSF1bY0hdYzMtYzRbY0hdW2NIXW5bY0hdbjQ=

> <s_epik_cmdline>
J2VwaWtfYXBwJywgJy1pbWFlJywgJ2xpZ2FuZF9wcm8ubWFlJywgJy1vbWFlJywgJ2xpZ2FuZF9wcmVwLm1hZScsICctbXMnLCAnMScsICctcGgnLCAnNycsICctcGh0JywgJzAuNScsICctbnQn

> <r_lp_tautomer_probability>
1

> <r_epik_Ionization_Penalty>
  0.0014

> <r_epik_Ionization_Penalty_Charging>
  0.0000

> <r_epik_Ionization_Penalty_Neutral>
  0.0014

> <r_epik_State_Penalty>
 -0.0000

> <r_epik_Charging_Adjusted_Penalty>
0

> <i_epik_Tot_Q>
0

> <i_epik_Tot_abs_Q>
0

$$$$
