2ot1_ligand
                    3D
 Schrodinger Suite 2020-3.
 36 38  0  0  1  0            999 V2000
   47.5660   38.8070   58.9000 C   0  0  0  0  0  0
   47.7180   39.8330   59.8280 C   0  0  0  0  0  0
   42.2150   47.6450   55.8350 C   0  0  0  0  0  0
   42.7480   47.1460   53.4850 C   0  0  0  0  0  0
   42.9230   46.4980   56.2400 C   0  0  0  0  0  0
   43.4560   45.9990   53.8890 C   0  0  0  0  0  0
   46.8800   39.0400   57.7110 C   0  0  0  0  0  0
   47.1820   41.0910   59.5710 C   0  0  0  0  0  0
   45.6550   40.5310   56.2680 C   0  0  0  0  0  0
   45.9590   42.5810   58.1220 C   0  0  0  0  0  0
   44.6960   44.2380   56.7460 C   0  0  0  0  0  0
   42.1370   47.9530   54.4660 C   0  0  0  0  0  0
   43.5390   45.6740   55.2670 C   0  0  0  0  0  0
   45.1150   41.7900   56.0050 C   0  0  0  0  0  0
   45.2670   42.8120   56.9330 C   0  0  0  0  0  0
   46.3450   40.2990   57.4500 C   0  0  0  0  0  0
   46.4970   41.3270   58.3830 C   0  0  0  0  0  0
   44.2150   44.5400   55.5330 N   0  0  0  0  0  0
   44.6990   45.0510   57.6900 O   0  0  0  0  0  0
   43.0150   39.9850   55.0530 O   0  0  0  0  0  0
   42.9550   41.3510   52.8880 O   0  5  0  0  0  0
   45.0400   39.9430   53.4620 O   0  5  0  0  0  0
   44.5030   42.0690   54.8210 O   0  0  0  0  0  0
   41.2500   49.3570   53.9730 Cl  0  0  0  0  0  0
   43.8320   40.7850   54.1140 P   0  0  0  0  0  0
   47.9839   37.8212   59.1040 H   0  0  0  0  0  0
   48.2577   39.6508   60.7573 H   0  0  0  0  0  0
   41.7335   48.2860   56.5735 H   0  0  0  0  0  0
   42.6732   47.4066   52.4292 H   0  0  0  0  0  0
   42.9968   46.2452   57.2977 H   0  0  0  0  0  0
   43.9383   45.3633   53.1464 H   0  0  0  0  0  0
   46.7616   38.2365   56.9840 H   0  0  0  0  0  0
   47.2988   41.8922   60.3008 H   0  0  0  0  0  0
   45.5347   39.7263   55.5426 H   0  0  0  0  0  0
   46.0778   43.3857   58.8475 H   0  0  0  0  0  0
   44.3649   43.8454   54.6933 H   0  0  0  0  0  0
  1  2  2  0  0  0
  1  7  1  0  0  0
  1 26  1  0  0  0
  2  8  1  0  0  0
  2 27  1  0  0  0
  3  5  2  0  0  0
  3 12  1  0  0  0
  3 28  1  0  0  0
  4  6  1  0  0  0
  4 12  2  0  0  0
  4 29  1  0  0  0
  5 13  1  0  0  0
  5 30  1  0  0  0
  6 13  2  0  0  0
  6 31  1  0  0  0
  7 16  2  0  0  0
  7 32  1  0  0  0
  8 17  2  0  0  0
  8 33  1  0  0  0
  9 14  2  0  0  0
  9 16  1  0  0  0
  9 34  1  0  0  0
 10 15  2  0  0  0
 10 17  1  0  0  0
 10 35  1  0  0  0
 11 15  1  0  0  0
 11 18  1  0  0  0
 11 19  2  0  0  0
 12 24  1  0  0  0
 13 18  1  0  0  0
 14 15  1  0  0  0
 14 23  1  0  0  0
 16 17  1  0  0  0
 18 36  1  0  0  0
 20 25  2  0  0  0
 21 25  1  0  0  0
 22 25  1  0  0  0
 23 25  1  0  0  0
M  CHG  2  21  -1  22  -1
M  END
> <s_m_source_file>
../2ot1_ligand.sdf

> <i_m_source_file_index>
1

> <s_epik_input>
W2NIXTFbY0hdW2NIXVtjSF1jKGMxMilbY0hdYyhjKFtjSF0yKU9QKD1PKShbT0hdKVtPSF0pQyg9TylbTkhdYyhbY0hdW2NIXTMpW2NIXVtjSF1jM0Ns

> <s_epik_cmdline>
J2VwaWtfYXBwJywgJy1pbWFlJywgJ2xpZ2FuZF9wcm8ubWFlJywgJy1vbWFlJywgJ2xpZ2FuZF9wcmVwLm1hZScsICctbXMnLCAnMScsICctcGgnLCAnNycsICctcGh0JywgJzAuNScsICctbnQn

> <r_epik_Ionization_Penalty>
  0.0734

> <r_epik_Ionization_Penalty_Charging>
  0.0734

> <r_epik_Ionization_Penalty_Neutral>
  0.0000

> <r_epik_State_Penalty>
  0.0645

> <r_epik_Charging_Adjusted_Penalty>
0.137901573633237

> <i_epik_Tot_Q>
-2

> <i_epik_Tot_abs_Q>
2

$$$$
