2ou7_ligand
                    3D
 Schrodinger Suite 2020-3.
 44 46  0  0  1  0            999 V2000
   34.6610    9.7590   31.5500 P   0  0  0  0  0  0
   34.6590    8.8020   32.7690 O   0  5  0  0  0  0
   35.4860    9.2370   30.3500 O   0  0  0  0  0  0
   33.4210   10.6710   31.2980 O   0  5  0  0  0  0
   37.3470    9.9330   32.7700 P   0  0  1  0  0  0
   37.2920    8.3690   32.9030 O   0  0  0  0  0  0
   38.1580   10.5750   31.5850 O   0  5  0  0  0  0
   35.9080   10.6850   32.1970 N   0  0  1  0  0  0
   39.6110   10.3650   34.1580 P   0  0  2  0  0  0
   40.2220   11.6120   33.4360 O   0  5  0  0  0  0
   39.9740    8.9460   33.6300 O   0  0  0  0  0  0
   38.0160   10.6220   34.0650 O   0  0  0  0  0  0
   40.1120   10.4900   35.6750 O   0  0  0  0  0  0
   41.4730   10.8900   35.8590 C   0  0  0  0  0  0
   42.2520   10.3360   37.0790 C   0  0  1  0  0  0
   43.1170   11.3920   37.5340 O   0  0  0  0  0  0
   41.4480    9.8440   38.3200 C   0  0  1  0  0  0
   41.1780    8.4590   38.3930 O   0  0  0  0  0  0
   42.3490   10.2710   39.4760 C   0  0  1  0  0  0
   43.4710    9.4130   39.6010 O   0  0  0  0  0  0
   42.6480   11.6200   38.8440 C   0  0  3  0  0  0
   42.4180   12.8970   39.5120 N   0  0  0  0  0  0
   41.5830   13.8960   39.0320 C   0  0  0  0  0  0
   41.5170   14.9540   39.8000 N   0  0  0  0  0  0
   42.3680   14.6330   40.8520 C   0  0  0  0  0  0
   42.7410   15.3420   42.0020 C   0  0  0  0  0  0
   42.2580   16.5540   42.2420 N   0  0  0  0  0  0
   43.6000   14.7800   42.8730 N   0  0  0  0  0  0
   44.0780   13.5540   42.6210 C   0  0  0  0  0  0
   43.8000   12.7780   41.5620 N   0  0  0  0  0  0
   42.9280   13.3820   40.7020 C   0  0  0  0  0  0
   36.2688   11.3953   31.4385 H   0  0  0  0  0  0
   42.0668   10.5826   34.9855 H   0  0  0  0  0  0
   41.5221   11.9833   35.9694 H   0  0  0  0  0  0
   42.8116    9.4647   36.7080 H   0  0  0  0  0  0
   40.4018   10.1837   38.3287 H   0  0  0  0  0  0
   40.5407    7.9821   37.6337 H   0  0  0  0  0  0
   42.0209   10.2306   40.5252 H   0  0  0  0  0  0
   43.3528    8.4145   40.0470 H   0  0  0  0  0  0
   42.8636   12.6981   38.8799 H   0  0  0  0  0  0
   41.0301   13.8074   38.0968 H   0  0  0  0  0  0
   41.5559   17.0166   41.5328 H   0  0  0  0  0  0
   42.5596   17.0963   43.1502 H   0  0  0  0  0  0
   44.7684   13.1417   43.3568 H   0  0  0  0  0  0
  1  2  1  0  0  0
  1  3  2  0  0  0
  1  4  1  0  0  0
  1  8  1  0  0  0
  5  6  2  0  0  0
  5  7  1  0  0  0
  5  8  1  0  0  0
  5 12  1  0  0  0
  8 32  1  0  0  0
  9 10  1  0  0  0
  9 11  2  0  0  0
  9 12  1  0  0  0
  9 13  1  0  0  0
 13 14  1  0  0  0
 14 15  1  0  0  0
 14 33  1  0  0  0
 14 34  1  0  0  0
 15 16  1  0  0  0
 15 17  1  0  0  0
 15 35  1  0  0  0
 16 21  1  0  0  0
 17 18  1  0  0  0
 17 19  1  0  0  0
 17 36  1  0  0  0
 18 37  1  0  0  0
 19 20  1  0  0  0
 19 21  1  0  0  0
 19 38  1  0  0  0
 20 39  1  0  0  0
 21 22  1  0  0  0
 21 40  1  0  0  0
 22 23  1  0  0  0
 22 31  1  0  0  0
 23 24  2  0  0  0
 23 41  1  0  0  0
 24 25  1  0  0  0
 25 26  2  0  0  0
 25 31  1  0  0  0
 26 27  1  0  0  0
 26 28  1  0  0  0
 27 42  1  0  0  0
 27 43  1  0  0  0
 28 29  2  0  0  0
 29 30  1  0  0  0
 29 44  1  0  0  0
 30 31  2  0  0  0
M  CHG  4   2  -1   4  -1   7  -1  10  -1
M  END
> <s_m_source_file>
../2ou7_ligand.sdf

> <i_m_source_file_index>
1

> <s_epik_input>
W09IXVAoPU8pKFtPSF0pW05IXVtQQEBdKD1PKShbT0hdKU9bUEBAXSg9TykoW09IXSlPW0NIMl1bQ0BIXTFPW0NIXShbQ0BIXShbT0hdKVtDQEBIXTFbT0hdKW4oW2NIXW4yKWMoYzIzKW5bY0hdbmMzW05IMl0=

> <s_epik_cmdline>
J2VwaWtfYXBwJywgJy1pbWFlJywgJ2xpZ2FuZF9wcm8ubWFlJywgJy1vbWFlJywgJ2xpZ2FuZF9wcmVwLm1hZScsICctbXMnLCAnMScsICctcGgnLCAnNycsICctcGh0JywgJzAuNScsICctbnQn

> <r_lp_tautomer_probability>
0.999997216410988

> <r_epik_Ionization_Penalty>
  0.3578

> <r_epik_Ionization_Penalty_Charging>
  0.3346

> <r_epik_Ionization_Penalty_Neutral>
  0.0232

> <r_epik_State_Penalty>
  0.3402

> <r_epik_Charging_Adjusted_Penalty>
0.674771962662822

> <i_epik_Tot_Q>
-4

> <i_epik_Tot_abs_Q>
4

> <s_epik_Chemistry_Notes>
This compound contains an acetal/aminal-like group ( X-CH(R)-Y where X, Y are N, S, or O) that may be acid/base labile, releasing an aldehyde.

$$$$
