2ov4_ligand
                    3D
 Schrodinger Suite 2020-3.
 47 49  0  0  1  0            999 V2000
   51.1460   29.0220   31.8380 N   0  0  0  0  0  0
   52.2750   28.8580   32.4770 C   0  0  0  0  0  0
   53.4120   29.6040   32.0730 N   0  0  0  0  0  0
   54.6810   29.5440   32.6720 C   0  0  0  0  0  0
   54.8530   28.6600   33.7150 N   0  0  0  0  0  0
   53.7570   27.8670   34.1650 C   0  0  0  0  0  0
   53.6730   26.9270   35.1720 N   0  0  0  0  0  0
   52.3560   26.4780   35.2010 C   0  0  0  0  0  0
   51.5810   27.0780   34.2510 N   0  0  0  0  0  0
   52.4660   27.9410   33.5980 C   0  0  0  0  0  0
   52.1980   22.3360   37.8890 P   0  0  2  0  0  0
   51.6120   21.6220   36.7860 O   0  0  0  0  0  0
   52.9140   21.5440   38.8630 O   0  5  0  0  0  0
   51.0690   23.1410   38.5820 O   0  0  0  0  0  0
   50.0590   24.1580   37.9240 P   0  0  2  0  0  0
   50.4020   25.6320   38.1860 O   0  5  0  0  0  0
   48.6960   23.9080   38.5220 O   0  0  0  0  0  0
   50.2170   23.5890   36.4150 O   0  0  0  0  0  0
   49.3000   23.5010   35.1850 P   0  0  2  0  0  0
   50.0220   23.5710   33.8870 O   0  5  0  0  0  0
   48.2900   24.5410   35.3320 O   0  0  0  0  0  0
   48.6350   22.2100   35.3990 O   0  0  0  0  0  0
   47.2260   21.8180   36.1040 P   0  0  0  0  0  0
   47.1290   20.3560   36.2910 O   0  0  0  0  0  0
   47.0860   22.4710   37.4390 O   0  5  0  0  0  0
   46.0990   22.2620   35.2000 O   0  5  0  0  0  0
   54.7930   26.4770   36.0620 C   0  0  2  0  0  0
   54.9120   25.1730   35.7410 O   0  0  0  0  0  0
   55.2540   24.3270   36.8730 C   0  0  2  0  0  0
   54.5000   23.0840   36.8950 C   0  0  0  0  0  0
   53.1670   23.3990   37.3510 O   0  0  0  0  0  0
   55.2190   25.2560   38.1090 C   0  0  1  0  0  0
   56.5050   25.5860   38.6200 O   0  0  0  0  0  0
   54.3970   26.3810   37.5080 C   0  0  1  0  0  0
   54.2830   27.6080   38.1140 O   0  0  0  0  0  0
   51.0856   29.7346   31.0022 H   0  0  0  0  0  0
   50.2567   28.4474   32.1363 H   0  0  0  0  0  0
   55.5000   30.1738   32.3245 H   0  0  0  0  0  0
   51.9852   25.7313   35.9032 H   0  0  0  0  0  0
   55.6939   27.0897   35.9104 H   0  0  0  0  0  0
   56.2444   23.8612   36.7627 H   0  0  0  0  0  0
   54.4705   22.6551   35.8825 H   0  0  0  0  0  0
   54.9847   22.3732   37.5804 H   0  0  0  0  0  0
   54.8558   24.8731   39.0741 H   0  0  0  0  0  0
   57.1373   24.8037   39.0652 H   0  0  0  0  0  0
   53.3381   26.1911   37.7372 H   0  0  0  0  0  0
   53.6774   28.3983   37.6463 H   0  0  0  0  0  0
  1  2  1  0  0  0
  1 36  1  0  0  0
  1 37  1  0  0  0
  2  3  1  0  0  0
  2 10  2  0  0  0
  3  4  2  0  0  0
  4  5  1  0  0  0
  4 38  1  0  0  0
  5  6  2  0  0  0
  6  7  1  0  0  0
  6 10  1  0  0  0
  7  8  1  0  0  0
  7 27  1  0  0  0
  8  9  2  0  0  0
  8 39  1  0  0  0
  9 10  1  0  0  0
 11 12  2  0  0  0
 11 13  1  0  0  0
 11 14  1  0  0  0
 11 31  1  0  0  0
 14 15  1  0  0  0
 15 16  1  0  0  0
 15 17  2  0  0  0
 15 18  1  0  0  0
 18 19  1  0  0  0
 19 20  1  0  0  0
 19 21  2  0  0  0
 19 22  1  0  0  0
 22 23  1  0  0  0
 23 24  2  0  0  0
 23 25  1  0  0  0
 23 26  1  0  0  0
 27 28  1  0  0  0
 27 34  1  0  0  0
 27 40  1  0  0  0
 28 29  1  0  0  0
 29 30  1  0  0  0
 29 32  1  0  0  0
 29 41  1  0  0  0
 30 31  1  0  0  0
 30 42  1  0  0  0
 30 43  1  0  0  0
 32 33  1  0  0  0
 32 34  1  0  0  0
 32 44  1  0  0  0
 33 45  1  0  0  0
 34 35  1  0  0  0
 34 46  1  0  0  0
 35 47  1  0  0  0
M  CHG  5  13  -1  16  -1  20  -1  25  -1  26  -1
M  END
> <s_m_source_file>
../2ov4_ligand.sdf

> <i_m_source_file_index>
1

> <s_epik_input>
bjFbY0hdbmMoW05IMl0pYyhjMTIpbltjSF1uMltDQEBIXTNPW0NAQEhdKFtDQEBIXShbT0hdKVtDQEhdM1tPSF0pW0NIMl1PW1BAQF0oPU8pKFtPSF0pT1tQQEBdKD1PKShbT0hdKU9bUEBAXSg9TykoW09IXSlPUCg9TykoW09IXSlbT0hd

> <s_epik_cmdline>
J2VwaWtfYXBwJywgJy1pbWFlJywgJ2xpZ2FuZF9wcm8ubWFlJywgJy1vbWFlJywgJ2xpZ2FuZF9wcmVwLm1hZScsICctbXMnLCAnMScsICctcGgnLCAnNycsICctcGh0JywgJzAuNScsICctbnQn

> <r_lp_tautomer_probability>
0.999997216410988

> <r_epik_Ionization_Penalty>
  0.0798

> <r_epik_Ionization_Penalty_Charging>
  0.0793

> <r_epik_Ionization_Penalty_Neutral>
  0.0004

> <r_epik_State_Penalty>
  0.0689

> <r_epik_Charging_Adjusted_Penalty>
0.148226118924489

> <i_epik_Tot_Q>
-5

> <i_epik_Tot_abs_Q>
5

> <s_epik_Chemistry_Notes>
This compound contains an acetal/aminal-like group ( X-CH(R)-Y where X, Y are N, S, or O) that may be acid/base labile, releasing an aldehyde.

$$$$
