2ovq_ligand
                    3D
 Schrodinger Suite 2020-3.
180182  0  0  1  0            999 V2000
   37.5240   64.9980   21.7850 N   0  3  0  0  0  0
   36.9580   63.8540   22.5750 C   0  0  2  0  0  0
   35.8050   63.1750   21.8320 C   0  0  0  0  0  0
   34.8860   63.8480   21.3520 O   0  0  0  0  0  0
   36.4440   64.3550   23.9360 C   0  0  0  0  0  0
   35.7730   63.3820   24.9250 C   0  0  0  0  0  0
   36.8160   62.5490   25.6660 C   0  0  0  0  0  0
   34.9530   64.1760   25.9340 C   0  0  0  0  0  0
   35.8250   61.8330   21.7380 N   0  0  0  0  0  0
   34.7100   61.1990   21.0260 C   0  0  2  0  0  0
   33.3440   61.7880   21.4120 C   0  0  0  0  0  0
   33.1070   62.1620   22.5680 O   0  0  0  0  0  0
   34.8560   59.7120   21.3840 C   0  0  0  0  0  0
   35.7420   59.7030   22.6140 C   0  0  0  0  0  0
   36.7100   60.8230   22.3410 C   0  0  0  0  0  0
   32.4610   61.8900   20.4250 N   0  0  0  0  0  0
   31.1190   62.4400   20.6220 C   0  0  2  0  0  0
   30.1970   61.4870   21.3990 C   0  0  0  0  0  0
   29.9950   60.3310   21.0110 O   0  0  0  0  0  0
   30.4950   62.7810   19.2600 C   0  0  0  0  0  0
   31.3300   63.6560   18.5160 O   0  0  0  0  0  0
   29.6350   61.9910   22.4940 N   0  0  0  0  0  0
   28.7600   61.1830   23.3220 C   0  0  0  0  0  0
   29.3390   61.0830   24.7220 C   0  0  0  0  0  0
   28.6550   60.6920   25.6700 O   0  0  0  0  0  0
   30.6200   61.4320   24.8370 N   0  0  0  0  0  0
   31.3370   61.4160   26.1120 C   0  0  2  0  0  0
   31.4460   62.8550   26.6300 C   0  0  0  0  0  0
   31.4080   63.8010   25.8420 O   0  0  0  0  0  0
   32.7270   60.8000   25.9220 C   0  0  0  0  0  0
   32.8700   59.2740   26.0570 C   0  0  0  0  0  0
   31.7880   58.5290   25.2950 C   0  0  0  0  0  0
   34.2480   58.8780   25.5560 C   0  0  0  0  0  0
   31.5850   63.0240   27.9430 N   0  0  0  0  0  0
   31.6520   64.3640   28.5220 C   0  0  2  0  0  0
   32.6460   64.5490   29.6790 C   0  0  0  0  0  0
   33.2570   63.5930   30.1550 O   0  0  0  0  0  0
   30.2580   64.7410   29.0170 C   0  0  0  0  0  0
   29.0730   64.1920   28.2110 C   0  0  0  0  0  0
   27.8400   64.0670   29.0950 C   0  0  0  0  0  0
   28.8000   65.0940   27.0260 C   0  0  0  0  0  0
   32.7990   65.8110   30.0820 N   0  0  0  0  0  0
   33.6120   66.3050   31.2230 C   0  0  1  0  0  0
   35.1050   66.3140   30.8550 C   0  0  2  0  0  0
   35.2920   66.8470   29.4410 C   0  0  0  0  0  0
   35.5450   65.0160   30.8110 O   0  0  0  0  0  0
   36.9040   64.7210   31.6430 P   0  0  0  0  0  0
   36.6380   65.1410   33.1260 O   0  0  0  0  0  0
   38.0790   65.5840   31.0150 O   0  0  0  0  0  0
   37.1420   63.1570   31.4630 O   0  0  0  0  0  0
   33.1920   67.7190   31.4320 C   0  0  0  0  0  0
   32.7230   68.3960   30.5180 O   0  0  0  0  0  0
   33.3550   68.1850   32.6770 N   0  0  0  0  0  0
   33.0080   69.5490   33.0560 C   0  0  2  0  0  0
   33.9490   70.4470   32.2760 C   0  0  0  0  0  0
   35.0580   70.0350   31.9150 O   0  0  0  0  0  0
   33.3130   69.5800   34.5530 C   0  0  0  0  0  0
   33.1300   68.1680   34.9740 C   0  0  0  0  0  0
   33.7710   67.4060   33.8570 C   0  0  0  0  0  0
   33.5090   71.6720   31.9740 N   0  0  0  0  0  0
   34.3740   72.5910   31.2330 C   0  0  2  0  0  0
   35.5410   72.9590   32.1430 C   0  0  0  0  0  0
   35.4100   72.9020   33.3650 O   0  0  0  0  0  0
   33.4490   73.7720   30.9430 C   0  0  0  0  0  0
   32.4720   73.7340   32.0980 C   0  0  0  0  0  0
   32.1840   72.2660   32.2240 C   0  0  0  0  0  0
   36.6820   73.3120   31.5650 N   0  0  0  0  0  0
   37.8380   73.6790   32.3760 C   0  0  2  0  0  0
   37.5240   74.8540   33.2970 C   0  0  0  0  0  0
   36.8320   75.7960   32.9170 O   0  0  0  0  0  0
   39.0250   74.0020   31.4760 C   0  0  0  0  0  0
   39.6770   72.7620   30.8890 C   0  0  0  0  0  0
   40.5920   72.0690   31.8830 C   0  0  0  0  0  0
   41.6450   72.5990   32.2430 O   0  0  0  0  0  0
   40.1940   70.8830   32.3380 N   0  0  0  0  0  0
   38.0350   74.7740   34.5180 N   0  0  0  0  0  0
   37.8130   75.7920   35.5420 C   0  0  1  0  0  0
   37.9600   75.0770   36.8980 C   0  0  0  0  0  0
   38.9030   74.4420   37.1430 O   0  0  0  0  0  0
   38.8490   76.9110   35.4690 C   0  0  0  0  0  0
   38.5190   78.0920   35.6160 O   0  0  0  0  0  0
   38.1810   73.1420   37.5300 P   0  0  0  0  0  0
   37.0890   72.9870   38.6650 O   0  0  0  0  0  0
   39.5600   72.4490   37.9420 O   0  0  0  0  0  0
   37.6200   72.6140   36.1060 O   0  0  0  0  0  0
   40.1020   76.5230   35.2500 N   0  0  0  0  0  0
   41.1840   77.4860   35.1610 C   0  0  0  0  0  0
   42.4060   76.9260   34.4510 C   0  0  0  0  0  0
   42.3350   75.7780   33.9530 O   0  0  0  0  0  0
   43.4360   77.6380   34.3870 O   0  0  0  0  0  0
   37.8882   64.6290   20.8148 H   0  0  0  0  0  0
   38.3578   65.4508   22.3415 H   0  0  0  0  0  0
   36.7408   65.7525   21.6198 H   0  0  0  0  0  0
   37.7792   63.1335   22.7033 H   0  0  0  0  0  0
   37.2814   64.7758   24.5119 H   0  0  0  0  0  0
   35.6816   65.1318   23.7767 H   0  0  0  0  0  0
   35.1175   62.6972   24.3670 H   0  0  0  0  0  0
   37.4098   61.9745   24.9398 H   0  0  0  0  0  0
   36.3102   61.8570   26.3554 H   0  0  0  0  0  0
   37.4795   63.2154   26.2367 H   0  0  0  0  0  0
   34.2005   64.7773   25.4028 H   0  0  0  0  0  0
   35.6179   64.8412   26.5045 H   0  0  0  0  0  0
   34.4486   63.4828   26.6232 H   0  0  0  0  0  0
   34.7879   61.3948   19.9464 H   0  0  0  0  0  0
   33.8633   59.2854   21.5903 H   0  0  0  0  0  0
   35.3177   59.1757   20.5419 H   0  0  0  0  0  0
   35.1285   59.8828   23.5091 H   0  0  0  0  0  0
   36.2393   58.7256   22.7006 H   0  0  0  0  0  0
   37.4989   60.5518   21.6240 H   0  0  0  0  0  0
   37.1685   61.2344   23.2524 H   0  0  0  0  0  0
   32.7718   61.5414   19.4291 H   0  0  0  0  0  0
   31.2775   63.3431   21.2297 H   0  0  0  0  0  0
   30.3514   61.8569   18.6808 H   0  0  0  0  0  0
   29.5227   63.2716   19.4146 H   0  0  0  0  0  0
   31.0205   63.9935   17.5159 H   0  0  0  0  0  0
   29.8417   63.0359   22.7686 H   0  0  0  0  0  0
   27.7652   61.6501   23.3689 H   0  0  0  0  0  0
   28.6720   60.1758   22.8886 H   0  0  0  0  0  0
   31.1390   61.7420   23.9180 H   0  0  0  0  0  0
   30.7587   60.7955   26.8124 H   0  0  0  0  0  0
   33.0957   61.0315   24.9118 H   0  0  0  0  0  0
   33.4182   61.2172   26.6691 H   0  0  0  0  0  0
   32.7546   58.9836   27.1117 H   0  0  0  0  0  0
   30.7998   58.8301   25.6730 H   0  0  0  0  0  0
   31.9200   57.4460   25.4356 H   0  0  0  0  0  0
   31.8605   58.7713   24.2245 H   0  0  0  0  0  0
   35.0154   59.4282   26.1203 H   0  0  0  0  0  0
   34.3335   59.1221   24.4868 H   0  0  0  0  0  0
   34.3931   57.7969   25.6980 H   0  0  0  0  0  0
   31.6496   62.1397   28.5940 H   0  0  0  0  0  0
   32.0176   64.9730   27.6821 H   0  0  0  0  0  0
   30.1206   64.3701   30.0434 H   0  0  0  0  0  0
   30.1481   65.8354   29.0049 H   0  0  0  0  0  0
   29.3157   63.1894   27.8292 H   0  0  0  0  0  0
   28.0647   63.4079   29.9466 H   0  0  0  0  0  0
   27.0113   63.6411   28.5103 H   0  0  0  0  0  0
   27.5531   65.0617   29.4669 H   0  0  0  0  0  0
   29.7049   65.1672   26.4048 H   0  0  0  0  0  0
   28.5193   66.0954   27.3844 H   0  0  0  0  0  0
   27.9775   64.6747   26.4279 H   0  0  0  0  0  0
   32.2350   66.5217   29.4601 H   0  0  0  0  0  0
   33.4353   65.6737   32.1063 H   0  0  0  0  0  0
   35.7031   66.8485   31.6077 H   0  0  0  0  0  0
   34.9576   67.8940   29.3966 H   0  0  0  0  0  0
   34.6982   66.2424   28.7397 H   0  0  0  0  0  0
   36.3553   66.7897   29.1652 H   0  0  0  0  0  0
   38.0438   66.6822   31.0680 H   0  0  0  0  0  0
   36.4041   62.4400   31.8521 H   0  0  0  0  0  0
   31.9684   69.8329   32.8354 H   0  0  0  0  0  0
   34.3428   69.9334   34.7101 H   0  0  0  0  0  0
   32.6109   70.2610   35.0562 H   0  0  0  0  0  0
   33.6292   68.0060   35.9407 H   0  0  0  0  0  0
   32.0562   67.9517   35.0751 H   0  0  0  0  0  0
   33.3961   66.3758   33.7670 H   0  0  0  0  0  0
   34.8692   67.3924   33.9189 H   0  0  0  0  0  0
   34.7960   72.1643   30.3111 H   0  0  0  0  0  0
   34.0373   74.7011   30.9184 H   0  0  0  0  0  0
   32.9581   73.6230   29.9700 H   0  0  0  0  0  0
   32.9483   74.1561   32.9952 H   0  0  0  0  0  0
   31.5802   74.3256   31.8436 H   0  0  0  0  0  0
   31.4703   71.9004   31.4710 H   0  0  0  0  0  0
   31.8371   71.9792   33.2277 H   0  0  0  0  0  0
   36.7531   73.3269   30.4674 H   0  0  0  0  0  0
   38.0590   72.7956   32.9930 H   0  0  0  0  0  0
   38.6897   74.6321   30.6390 H   0  0  0  0  0  0
   39.7895   74.5395   32.0562 H   0  0  0  0  0  0
   38.8981   72.0468   30.5859 H   0  0  0  0  0  0
   40.2774   73.0439   30.0115 H   0  0  0  0  0  0
   39.2457   70.4495   31.9876 H   0  0  0  0  0  0
   40.8134   70.3365   33.0644 H   0  0  0  0  0  0
   38.6504   73.8909   34.7447 H   0  0  0  0  0  0
   36.8191   76.2263   35.3588 H   0  0  0  0  0  0
   37.9355   75.8200   37.7088 H   0  0  0  0  0  0
   37.1322   74.3645   37.0285 H   0  0  0  0  0  0
   40.0498   72.7191   38.8892 H   0  0  0  0  0  0
   36.6760   73.0117   35.7051 H   0  0  0  0  0  0
   40.3107   75.4491   35.1357 H   0  0  0  0  0  0
   40.8432   78.3697   34.6017 H   0  0  0  0  0  0
   41.4900   77.7884   36.1734 H   0  0  0  0  0  0
   44.3356   77.2595   33.8796 H   0  0  0  0  0  0
  1  2  1  0  0  0
  1 91  1  0  0  0
  1 92  1  0  0  0
  1 93  1  0  0  0
  2  3  1  0  0  0
  2  5  1  0  0  0
  2 94  1  0  0  0
  3  4  2  0  0  0
  3  9  1  0  0  0
  5  6  1  0  0  0
  5 95  1  0  0  0
  5 96  1  0  0  0
  6  7  1  0  0  0
  6  8  1  0  0  0
  6 97  1  0  0  0
  7 98  1  0  0  0
  7 99  1  0  0  0
  7100  1  0  0  0
  8101  1  0  0  0
  8102  1  0  0  0
  8103  1  0  0  0
  9 10  1  0  0  0
  9 15  1  0  0  0
 10 11  1  0  0  0
 10 13  1  0  0  0
 10104  1  0  0  0
 11 12  2  0  0  0
 11 16  1  0  0  0
 13 14  1  0  0  0
 13105  1  0  0  0
 13106  1  0  0  0
 14 15  1  0  0  0
 14107  1  0  0  0
 14108  1  0  0  0
 15109  1  0  0  0
 15110  1  0  0  0
 16 17  1  0  0  0
 16111  1  0  0  0
 17 18  1  0  0  0
 17 20  1  0  0  0
 17112  1  0  0  0
 18 19  2  0  0  0
 18 22  1  0  0  0
 20 21  1  0  0  0
 20113  1  0  0  0
 20114  1  0  0  0
 21115  1  0  0  0
 22 23  1  0  0  0
 22116  1  0  0  0
 23 24  1  0  0  0
 23117  1  0  0  0
 23118  1  0  0  0
 24 25  2  0  0  0
 24 26  1  0  0  0
 26 27  1  0  0  0
 26119  1  0  0  0
 27 28  1  0  0  0
 27 30  1  0  0  0
 27120  1  0  0  0
 28 29  2  0  0  0
 28 34  1  0  0  0
 30 31  1  0  0  0
 30121  1  0  0  0
 30122  1  0  0  0
 31 32  1  0  0  0
 31 33  1  0  0  0
 31123  1  0  0  0
 32124  1  0  0  0
 32125  1  0  0  0
 32126  1  0  0  0
 33127  1  0  0  0
 33128  1  0  0  0
 33129  1  0  0  0
 34 35  1  0  0  0
 34130  1  0  0  0
 35 36  1  0  0  0
 35 38  1  0  0  0
 35131  1  0  0  0
 36 37  2  0  0  0
 36 42  1  0  0  0
 38 39  1  0  0  0
 38132  1  0  0  0
 38133  1  0  0  0
 39 40  1  0  0  0
 39 41  1  0  0  0
 39134  1  0  0  0
 40135  1  0  0  0
 40136  1  0  0  0
 40137  1  0  0  0
 41138  1  0  0  0
 41139  1  0  0  0
 41140  1  0  0  0
 42 43  1  0  0  0
 42141  1  0  0  0
 43 44  1  0  0  0
 43 51  1  0  0  0
 43142  1  0  0  0
 44 45  1  0  0  0
 44 46  1  0  0  0
 44143  1  0  0  0
 45144  1  0  0  0
 45145  1  0  0  0
 45146  1  0  0  0
 46 47  1  0  0  0
 47 48  2  0  0  0
 47 49  1  0  0  0
 47 50  1  0  0  0
 49147  1  0  0  0
 50148  1  0  0  0
 51 52  2  0  0  0
 51 53  1  0  0  0
 53 54  1  0  0  0
 53 59  1  0  0  0
 54 55  1  0  0  0
 54 57  1  0  0  0
 54149  1  0  0  0
 55 56  2  0  0  0
 55 60  1  0  0  0
 57 58  1  0  0  0
 57150  1  0  0  0
 57151  1  0  0  0
 58 59  1  0  0  0
 58152  1  0  0  0
 58153  1  0  0  0
 59154  1  0  0  0
 59155  1  0  0  0
 60 61  1  0  0  0
 60 66  1  0  0  0
 61 62  1  0  0  0
 61 64  1  0  0  0
 61156  1  0  0  0
 62 63  2  0  0  0
 62 67  1  0  0  0
 64 65  1  0  0  0
 64157  1  0  0  0
 64158  1  0  0  0
 65 66  1  0  0  0
 65159  1  0  0  0
 65160  1  0  0  0
 66161  1  0  0  0
 66162  1  0  0  0
 67 68  1  0  0  0
 67163  1  0  0  0
 68 69  1  0  0  0
 68 71  1  0  0  0
 68164  1  0  0  0
 69 70  2  0  0  0
 69 76  1  0  0  0
 71 72  1  0  0  0
 71165  1  0  0  0
 71166  1  0  0  0
 72 73  1  0  0  0
 72167  1  0  0  0
 72168  1  0  0  0
 73 74  2  0  0  0
 73 75  1  0  0  0
 75169  1  0  0  0
 75170  1  0  0  0
 76 77  1  0  0  0
 76171  1  0  0  0
 77 78  1  0  0  0
 77 80  1  0  0  0
 77172  1  0  0  0
 78 79  1  0  0  0
 78173  1  0  0  0
 78174  1  0  0  0
 79 82  1  0  0  0
 80 81  2  0  0  0
 80 86  1  0  0  0
 82 83  2  0  0  0
 82 84  1  0  0  0
 82 85  1  0  0  0
 84175  1  0  0  0
 85176  1  0  0  0
 86 87  1  0  0  0
 86177  1  0  0  0
 87 88  1  0  0  0
 87178  1  0  0  0
 87179  1  0  0  0
 88 89  2  0  0  0
 88 90  1  0  0  0
 90180  1  0  0  0
M  CHG  1   1   1
M  END
> <s_m_source_file>
../2ovq_ligand.sdf

> <i_m_source_file_index>
1

> <s_epik_input>
W0NIM11bQ0hdKFtDSDNdKVtDSDJdW0NASF0oW05IMytdKUMoPU8pTjFbQ0BASF0oW0NIMl1bQ0gyXVtDSDJdMSlDKD1PKVtOSF1bQ0BASF0oW0NIMl1bT0hdKUMoPU8pW05IXVtDSDJdQyg9TylbTkhdW0NAQEhdKFtDSDJdW0NIXShbQ0gzXSlbQ0gzXSlDKD1PKVtOSF1bQ0BASF0oW0NIMl1bQ0hdKFtDSDNdKVtDSDNdKUMoPU8pW05IXVtDQEBIXShbQ0BIXShbQ0gzXSlPUCg9TykoW09IXSlbT0hdKUMoPU8pTjJbQ0BASF0oW0NIMl1bQ0gyXVtDSDJdMilDKD1PKU4zW0NAQEhdKFtDSDJdW0NIMl1bQ0gyXTMpQyg9TylbTkhdW0NAQEhdKFtDSDJdW0NIMl1DKD1PKVtOSDJdKUMoPU8pW05IXVtDQEBIXShbQ0gyXU9QKD1PKShbT0hdKVtPSF0pQyg9TylbTkhdW0NIMl1DKD1PKVtPSF0=

> <s_epik_cmdline>
J2VwaWtfYXBwJywgJy1pbWFlJywgJ2xpZ2FuZF9wcm8ubWFlJywgJy1vbWFlJywgJ2xpZ2FuZF9wcmVwLm1hZScsICctbXMnLCAnMScsICctcGgnLCAnNycsICctcGh0JywgJzAuNScsICctbnQn

> <s_epik_pKa_notes>
Molecule size exceeds maximum supported for generating protonation states

$$$$
