2ovx_ligand
                    3D
 Schrodinger Suite 2020-3.
 55 59  0  0  1  0            999 V2000
   24.3640    3.1140   51.6060 C   0  0  0  0  0  0
   23.3520    2.1920   51.8540 C   0  0  0  0  0  0
   23.3550    1.4510   53.0330 C   0  0  0  0  0  0
   24.3650    1.6440   53.9700 C   0  0  0  0  0  0
   25.3680    2.5780   53.7270 C   0  0  0  0  0  0
   25.3760    3.3110   52.5430 C   0  0  0  0  0  0
   26.4810    4.0500   52.2440 O   0  0  0  0  0  0
   26.2940    5.2850   51.7000 C   0  0  0  0  0  0
   27.3610    5.8710   51.0260 C   0  0  0  0  0  0
   27.2710    7.1840   50.5720 C   0  0  0  0  0  0
   25.1400    6.0340   51.9220 C   0  0  0  0  0  0
   25.0480    7.3430   51.4580 C   0  0  0  0  0  0
   26.1080    7.9250   50.7670 C   0  0  0  0  0  0
   25.8670    9.2010   49.9510 C   0  0  2  0  0  0
   25.3350    8.7180   48.5970 C   0  0  0  0  0  0
   24.1640    8.3490   48.5170 O   0  5  0  0  0  0
   26.1050    8.7850   47.4300 N   0  0  0  0  0  0
   27.3870    9.3460   47.4250 C   0  0  0  0  0  0
   28.0940    9.2320   46.4250 O   0  0  0  0  0  0
   27.9170    9.9130   48.5910 N   0  0  0  0  0  0
   27.1920    9.9560   49.7890 C   0  0  0  0  0  0
   27.7120   10.4750   50.7760 O   0  0  0  0  0  0
   24.8460   10.0420   50.6040 N   0  0  0  0  0  0
   25.2150   10.4270   51.9770 C   0  0  0  0  0  0
   24.0490   11.1690   52.6350 C   0  0  0  0  0  0
   24.4940   11.2250   49.7990 C   0  0  0  0  0  0
   23.3320   11.9760   50.4560 C   0  0  0  0  0  0
   23.7330   12.3530   51.8210 N   0  0  0  0  0  0
   22.8080   13.2840   52.4840 C   0  0  0  0  0  0
   22.9330   13.4980   53.8030 N   0  0  0  0  0  0
   22.3640   14.5350   54.3920 C   0  0  0  0  0  0
   21.6060   15.4270   53.6410 C   0  0  0  0  0  0
   21.4720   15.1730   52.2800 C   0  0  0  0  0  0
   22.0650   14.1210   51.7430 N   0  0  0  0  0  0
   24.3651    3.6834   50.6766 H   0  0  0  0  0  0
   22.5552    2.0494   51.1240 H   0  0  0  0  0  0
   22.5676    0.7212   53.2213 H   0  0  0  0  0  0
   24.3709    1.0646   54.8932 H   0  0  0  0  0  0
   26.1517    2.7366   54.4678 H   0  0  0  0  0  0
   28.2724    5.2988   50.8525 H   0  0  0  0  0  0
   28.1194    7.6367   50.0587 H   0  0  0  0  0  0
   24.3035    5.5916   52.4629 H   0  0  0  0  0  0
   24.1390    7.9173   51.6369 H   0  0  0  0  0  0
   28.9302   10.3412   48.5829 H   0  0  0  0  0  0
   25.4489    9.5244   52.5606 H   0  0  0  0  0  0
   26.0966   11.0843   51.9491 H   0  0  0  0  0  0
   23.1742   10.5042   52.6875 H   0  0  0  0  0  0
   24.3369   11.4769   53.6510 H   0  0  0  0  0  0
   25.3648   11.8935   49.7295 H   0  0  0  0  0  0
   24.1952   10.9060   48.7896 H   0  0  0  0  0  0
   23.1001   12.8776   49.8700 H   0  0  0  0  0  0
   22.4469   11.3238   50.4910 H   0  0  0  0  0  0
   22.4884   14.6909   55.4636 H   0  0  0  0  0  0
   21.1338   16.2942   54.1025 H   0  0  0  0  0  0
   20.8781   15.8414   51.6566 H   0  0  0  0  0  0
  1  2  2  0  0  0
  1  6  1  0  0  0
  1 35  1  0  0  0
  2  3  1  0  0  0
  2 36  1  0  0  0
  3  4  2  0  0  0
  3 37  1  0  0  0
  4  5  1  0  0  0
  4 38  1  0  0  0
  5  6  2  0  0  0
  5 39  1  0  0  0
  6  7  1  0  0  0
  7  8  1  0  0  0
  8  9  2  0  0  0
  8 11  1  0  0  0
  9 10  1  0  0  0
  9 40  1  0  0  0
 10 13  2  0  0  0
 10 41  1  0  0  0
 11 12  2  0  0  0
 11 42  1  0  0  0
 12 13  1  0  0  0
 12 43  1  0  0  0
 13 14  1  0  0  0
 14 15  1  0  0  0
 14 21  1  0  0  0
 14 23  1  0  0  0
 15 16  1  0  0  0
 15 17  2  0  0  0
 17 18  1  0  0  0
 18 19  2  0  0  0
 18 20  1  0  0  0
 20 21  1  0  0  0
 20 44  1  0  0  0
 21 22  2  0  0  0
 23 24  1  0  0  0
 23 26  1  0  0  0
 24 25  1  0  0  0
 24 45  1  0  0  0
 24 46  1  0  0  0
 25 28  1  0  0  0
 25 47  1  0  0  0
 25 48  1  0  0  0
 26 27  1  0  0  0
 26 49  1  0  0  0
 26 50  1  0  0  0
 27 28  1  0  0  0
 27 51  1  0  0  0
 27 52  1  0  0  0
 28 29  1  0  0  0
 29 30  2  0  0  0
 29 34  1  0  0  0
 30 31  1  0  0  0
 31 32  2  0  0  0
 31 53  1  0  0  0
 32 33  1  0  0  0
 32 54  1  0  0  0
 33 34  2  0  0  0
 33 55  1  0  0  0
M  CHG  1  16  -1
M  END
> <s_m_source_file>
../2ovx_ligand.sdf

> <i_m_source_file_index>
1

> <s_epik_input>
W2NIXTFbY0hdW2NIXVtjSF1bY0hdYzFPYzJbY0hdW2NIXWMoW2NIXVtjSF0yKUMzKEMoPU8pW05IXUMoPU8pW05IXUMzPU8pW05IK100W0NIMl1bQ0gyXU4oW0NIMl1bQ0gyXTQpYzVuW2NIXVtjSF1bY0hdbjU=

> <s_epik_cmdline>
J2VwaWtfYXBwJywgJy1pbWFlJywgJ2xpZ2FuZF9wcm8ubWFlJywgJy1vbWFlJywgJ2xpZ2FuZF9wcmVwLm1hZScsICctbXMnLCAnMScsICctcGgnLCAnNycsICctcGh0JywgJzAuNScsICctbnQn

> <r_lp_tautomer_probability>
0.999999998624798

> <r_epik_Ionization_Penalty>
  0.1643

> <r_epik_Ionization_Penalty_Charging>
  0.1628

> <r_epik_Ionization_Penalty_Neutral>
  0.0016

> <r_epik_State_Penalty>
  0.1521

> <r_epik_Charging_Adjusted_Penalty>
0.314833100151912

> <i_epik_Tot_Q>
-1

> <i_epik_Tot_abs_Q>
1

$$$$
