2ovz_ligand
                    3D
 Schrodinger Suite 2020-3.
 68 72  0  0  1  0            999 V2000
   24.8640   14.9380   50.1610 C   0  0  0  0  0  0
   25.3170   15.8600   51.0970 C   0  0  0  0  0  0
   25.8660   17.0680   50.6680 C   0  0  0  0  0  0
   25.9610   17.3470   49.3080 C   0  0  0  0  0  0
   25.5090   16.4210   48.3720 C   0  0  0  0  0  0
   24.9590   15.2150   48.8010 C   0  0  0  0  0  0
   24.4550   14.1740   48.1460 N   0  3  0  0  0  0
   24.0470   13.2560   49.0210 C   0  0  0  0  0  0
   24.2790   13.6780   50.2620 C   0  0  0  0  0  0
   23.9680   12.9050   51.5470 C   0  0  0  0  0  0
   25.1260   11.9860   51.9460 C   0  0  1  0  0  0
   24.6980   11.1230   53.1400 C   0  0  0  0  0  0
   24.0170   10.1140   53.0010 O   0  0  0  0  0  0
   25.1040   11.5820   54.3230 N   0  0  0  0  0  0
   25.4950   11.1720   50.7790 N   0  0  0  0  0  0
   26.7560   10.9980   50.3860 C   0  0  0  0  0  0
   27.7310   11.4560   50.9820 O   0  0  0  0  0  0
   26.9160   10.1820   49.1010 C   0  0  1  0  0  0
   27.2610   11.1590   47.9730 C   0  0  0  0  0  0
   27.1230   10.3890   46.3420 P   0  0  1  0  0  0
   28.3410    9.3390   46.3070 O   0  5  0  0  0  0
   25.8380    9.6590   46.2860 O   0  0  0  0  0  0
   27.4560   11.6440   45.0910 C   0  0  0  0  0  0
   28.6420   11.6070   44.3660 C   0  0  0  0  0  0
   28.8810   12.5520   43.3700 C   0  0  0  0  0  0
   27.9330   13.5330   43.1030 C   0  0  0  0  0  0
   26.7450   13.5720   43.8310 C   0  0  0  0  0  0
   26.5070   12.6290   44.8240 C   0  0  0  0  0  0
   28.0330    9.1410   49.2180 C   0  0  0  0  0  0
   27.6920    7.9160   50.0690 C   0  0  0  0  0  0
   26.5380    7.2650   50.2060 C   0  0  0  0  0  0
   28.6550    7.2280   50.7460 O   0  0  0  0  0  0
   28.0070    6.1080   51.3010 N   0  0  0  0  0  0
   26.7270    6.1760   50.9480 C   0  0  0  0  0  0
   25.7640    5.2260   51.2870 C   0  0  0  0  0  0
   24.4790    5.2940   50.7550 C   0  0  0  0  0  0
   23.5300    4.3300   51.0800 C   0  0  0  0  0  0
   23.8630    3.2900   51.9420 C   0  0  0  0  0  0
   25.1460    3.2200   52.4760 C   0  0  0  0  0  0
   26.0940    4.1870   52.1490 C   0  0  0  0  0  0
   25.2435   15.6399   52.1620 H   0  0  0  0  0  0
   26.2211   17.7945   51.3988 H   0  0  0  0  0  0
   26.3900   18.2921   48.9751 H   0  0  0  0  0  0
   25.5852   16.6388   47.3067 H   0  0  0  0  0  0
   23.5807   12.2741   48.8521 H   0  0  0  0  0  0
   23.7895   13.6151   52.3679 H   0  0  0  0  0  0
   23.0707   12.2870   51.3951 H   0  0  0  0  0  0
   26.0298   12.5489   52.2223 H   0  0  0  0  0  0
   25.7144   12.4954   54.3785 H   0  0  0  0  0  0
   24.8288   11.0476   55.2442 H   0  0  0  0  0  0
   24.7134   10.6736   50.1868 H   0  0  0  0  0  0
   25.9789    9.6408   48.9038 H   0  0  0  0  0  0
   26.5725   12.0162   48.0070 H   0  0  0  0  0  0
   28.2946   11.5138   48.0985 H   0  0  0  0  0  0
   29.3854   10.8382   44.5769 H   0  0  0  0  0  0
   29.8102   12.5219   42.8010 H   0  0  0  0  0  0
   28.1188   14.2722   42.3238 H   0  0  0  0  0  0
   26.0026   14.3421   43.6216 H   0  0  0  0  0  0
   25.5783   12.6599   45.3938 H   0  0  0  0  0  0
   28.2909    8.7658   48.2166 H   0  0  0  0  0  0
   28.9196    9.6043   49.6755 H   0  0  0  0  0  0
   25.5856    7.5760   49.7767 H   0  0  0  0  0  0
   24.2149    6.1077   50.0796 H   0  0  0  0  0  0
   22.5261    4.3895   50.6595 H   0  0  0  0  0  0
   23.1217    2.5330   52.1980 H   0  0  0  0  0  0
   25.4099    2.4066   53.1518 H   0  0  0  0  0  0
   27.0975    4.1285   52.5705 H   0  0  0  0  0  0
   24.4286   14.1765   47.0463 H   0  0  0  0  0  0
  1  2  2  0  0  0
  1  6  1  0  0  0
  1  9  1  0  0  0
  2  3  1  0  0  0
  2 41  1  0  0  0
  3  4  2  0  0  0
  3 42  1  0  0  0
  4  5  1  0  0  0
  4 43  1  0  0  0
  5  6  2  0  0  0
  5 44  1  0  0  0
  6  7  1  0  0  0
  7  8  1  0  0  0
  7 68  1  0  0  0
  8  9  2  0  0  0
  8 45  1  0  0  0
  9 10  1  0  0  0
 10 11  1  0  0  0
 10 46  1  0  0  0
 10 47  1  0  0  0
 11 12  1  0  0  0
 11 15  1  0  0  0
 11 48  1  0  0  0
 12 13  2  0  0  0
 12 14  1  0  0  0
 14 49  1  0  0  0
 14 50  1  0  0  0
 15 16  1  0  0  0
 15 51  1  0  0  0
 16 17  2  0  0  0
 16 18  1  0  0  0
 18 19  1  0  0  0
 18 29  1  0  0  0
 18 52  1  0  0  0
 19 20  1  0  0  0
 19 53  1  0  0  0
 19 54  1  0  0  0
 20 21  1  0  0  0
 20 22  2  0  0  0
 20 23  1  0  0  0
 23 24  2  0  0  0
 23 28  1  0  0  0
 24 25  1  0  0  0
 24 55  1  0  0  0
 25 26  2  0  0  0
 25 56  1  0  0  0
 26 27  1  0  0  0
 26 57  1  0  0  0
 27 28  2  0  0  0
 27 58  1  0  0  0
 28 59  1  0  0  0
 29 30  1  0  0  0
 29 60  1  0  0  0
 29 61  1  0  0  0
 30 31  2  0  0  0
 30 32  1  0  0  0
 31 34  1  0  0  0
 31 62  1  0  0  0
 32 33  1  0  0  0
 33 34  2  0  0  0
 34 35  1  0  0  0
 35 36  2  0  0  0
 35 40  1  0  0  0
 36 37  1  0  0  0
 36 63  1  0  0  0
 37 38  2  0  0  0
 37 64  1  0  0  0
 38 39  1  0  0  0
 38 65  1  0  0  0
 39 40  2  0  0  0
 39 66  1  0  0  0
 40 67  1  0  0  0
M  CHG  2   7   1  21  -1
M  END
> <s_m_source_file>
../2ovz_ligand.sdf

> <i_m_source_file_index>
1

> <s_epik_input>
W2NIXTFbY0hdW2NIXVtjSF1jKGMxMilbbkhdW2NIXWMyW0NIMl1bQ0BASF0oQyg9TylbTkgyXSlbTkhdQyg9TylbQ0BASF0oW0NIMl1bUEBdKD1PKShbT0hdKWMzW2NIXVtjSF1bY0hdW2NIXVtjSF0zKVtDSDJdYzRbY0hdYyhubzQpLWM1W2NIXVtjSF1bY0hdW2NIXVtjSF01

> <s_epik_cmdline>
J2VwaWtfYXBwJywgJy1pbWFlJywgJ2xpZ2FuZF9wcm8ubWFlJywgJy1vbWFlJywgJ2xpZ2FuZF9wcmVwLm1hZScsICctbXMnLCAnMScsICctcGgnLCAnNycsICctcGh0JywgJzAuNScsICctbnQn

> <r_lp_tautomer_probability>
1

> <r_epik_Ionization_Penalty>
  0.0000

> <r_epik_Ionization_Penalty_Charging>
  0.0000

> <r_epik_Ionization_Penalty_Neutral>
  0.0000

> <r_epik_State_Penalty>
 -0.0000

> <r_epik_Charging_Adjusted_Penalty>
1.4047158855717e-05

> <i_epik_Tot_Q>
0

> <i_epik_Tot_abs_Q>
2

$$$$
