2ow0_ligand
                    3D
 Schrodinger Suite 2020-3.
 49 52  0  0  1  0            999 V2000
   25.3960   12.1360   44.6660 C   0  0  0  0  0  0
   25.7420   11.0670   43.8430 C   0  0  0  0  0  0
   24.9190   10.7320   42.7670 C   0  0  0  0  0  0
   23.7600   11.4580   42.5170 C   0  0  0  0  0  0
   23.4170   12.5290   43.3400 C   0  0  0  0  0  0
   24.2380   12.8680   44.4130 C   0  0  0  0  0  0
   24.1630   13.8260   45.3330 N   0  3  0  0  0  0
   25.2110   13.7350   46.1520 C   0  0  0  0  0  0
   25.9880   12.7200   45.7830 C   0  0  0  0  0  0
   27.2780   12.2810   46.4850 C   0  0  0  0  0  0
   27.0170   11.3040   47.6350 C   0  0  2  0  0  0
   26.5390    9.9630   47.0660 C   0  0  0  0  0  0
   25.3130    9.7220   47.1220 O   0  5  0  0  0  0
   27.4080    9.2080   46.5790 O   0  0  0  0  0  0
   25.9990   11.8710   48.5340 N   0  0  3  0  0  0
   26.2840   11.5120   50.1000 S   0  0  0  0  0  0
   25.4080   12.3860   50.9470 O   0  0  0  0  0  0
   27.7160   11.8070   50.4380 O   0  0  0  0  0  0
   25.9270    9.8290   50.4270 C   0  0  0  0  0  0
   26.8780    8.8510   50.1420 C   0  0  0  0  0  0
   26.6110    7.5060   50.3770 C   0  0  0  0  0  0
   24.7000    9.4380   50.9520 C   0  0  0  0  0  0
   24.4310    8.0910   51.1900 C   0  0  0  0  0  0
   25.3820    7.1160   50.9020 C   0  0  0  0  0  0
   25.1080    5.7680   51.1490 C   0  0  0  0  0  0
   26.0930    4.9190   51.6480 C   0  0  0  0  0  0
   25.7640    3.6310   52.0640 C   0  0  0  0  0  0
   24.4540    3.1690   51.9840 C   0  0  0  0  0  0
   23.9890    1.2540   52.6970 I   0  0  0  0  0  0
   23.4730    4.0110   51.4660 C   0  0  0  0  0  0
   23.8000    5.3000   51.0500 C   0  0  0  0  0  0
   26.6496   10.4958   44.0381 H   0  0  0  0  0  0
   25.1862    9.8970   42.1193 H   0  0  0  0  0  0
   23.1194   11.1894   41.6770 H   0  0  0  0  0  0
   22.5091   13.0997   43.1447 H   0  0  0  0  0  0
   25.4847   14.3489   47.0228 H   0  0  0  0  0  0
   27.9383   11.7821   45.7603 H   0  0  0  0  0  0
   27.7884   13.1629   46.8994 H   0  0  0  0  0  0
   27.9249   11.1548   48.2378 H   0  0  0  0  0  0
   25.2644   12.5927   48.1474 H   0  0  0  0  0  0
   27.8436    9.1436   49.7296 H   0  0  0  0  0  0
   27.3670    6.7546   50.1492 H   0  0  0  0  0  0
   23.9438   10.1895   51.1788 H   0  0  0  0  0  0
   23.4668    7.7984   51.6056 H   0  0  0  0  0  0
   27.1250    5.2637   51.7132 H   0  0  0  0  0  0
   26.5424    2.9770   52.4570 H   0  0  0  0  0  0
   22.4442    3.6599   51.3856 H   0  0  0  0  0  0
   23.0243    5.9486   50.6430 H   0  0  0  0  0  0
   23.3194   14.5319   45.3245 H   0  0  0  0  0  0
  1  2  2  0  0  0
  1  6  1  0  0  0
  1  9  1  0  0  0
  2  3  1  0  0  0
  2 32  1  0  0  0
  3  4  2  0  0  0
  3 33  1  0  0  0
  4  5  1  0  0  0
  4 34  1  0  0  0
  5  6  2  0  0  0
  5 35  1  0  0  0
  6  7  1  0  0  0
  7  8  1  0  0  0
  7 49  1  0  0  0
  8  9  2  0  0  0
  8 36  1  0  0  0
  9 10  1  0  0  0
 10 11  1  0  0  0
 10 37  1  0  0  0
 10 38  1  0  0  0
 11 12  1  0  0  0
 11 15  1  0  0  0
 11 39  1  0  0  0
 12 13  1  0  0  0
 12 14  2  0  0  0
 15 16  1  0  0  0
 15 40  1  0  0  0
 16 17  2  0  0  0
 16 18  2  0  0  0
 16 19  1  0  0  0
 19 20  2  0  0  0
 19 22  1  0  0  0
 20 21  1  0  0  0
 20 41  1  0  0  0
 21 24  2  0  0  0
 21 42  1  0  0  0
 22 23  2  0  0  0
 22 43  1  0  0  0
 23 24  1  0  0  0
 23 44  1  0  0  0
 24 25  1  0  0  0
 25 26  2  0  0  0
 25 31  1  0  0  0
 26 27  1  0  0  0
 26 45  1  0  0  0
 27 28  2  0  0  0
 27 46  1  0  0  0
 28 29  1  0  0  0
 28 30  1  0  0  0
 30 31  2  0  0  0
 30 47  1  0  0  0
 31 48  1  0  0  0
M  CHG  2   7   1  13  -1
M  END
> <s_m_source_file>
../2ow0_ligand.sdf

> <i_m_source_file_index>
1

> <s_epik_input>
W2NIXTFbY0hdW2NIXVtjSF1jKGMxMilbbkhdW2NIXWMyW0NIMl1bQ0BIXShDKD1PKVtPSF0pW05IXVMoPU8pKD1PKWMzW2NIXVtjSF1jKFtjSF1bY0hdMyktYzRbY0hdW2NIXWMoSSlbY0hdW2NIXTQ=

> <s_epik_cmdline>
J2VwaWtfYXBwJywgJy1pbWFlJywgJ2xpZ2FuZF9wcm8ubWFlJywgJy1vbWFlJywgJ2xpZ2FuZF9wcmVwLm1hZScsICctbXMnLCAnMScsICctcGgnLCAnNycsICctcGh0JywgJzAuNScsICctbnQn

> <r_lp_tautomer_probability>
1

> <r_epik_Ionization_Penalty>
  0.0001

> <r_epik_Ionization_Penalty_Charging>
  0.0001

> <r_epik_Ionization_Penalty_Neutral>
  0.0000

> <r_epik_State_Penalty>
 -0.0000

> <r_epik_Charging_Adjusted_Penalty>
9.10208977574548e-05

> <i_epik_Tot_Q>
0

> <i_epik_Tot_abs_Q>
2

$$$$
