2ow2_ligand
                    3D
 Schrodinger Suite 2020-3.
 30 30  0  0  1  0            999 V2000
   25.7750    4.4590   52.5070 C   0  0  0  0  0  0
   26.3920    4.8050   51.2640 O   0  0  0  0  0  0
   26.4000    6.1580   51.1150 C   0  0  0  0  0  0
   27.5090    6.8990   51.5110 C   0  0  0  0  0  0
   27.5270    8.2790   51.3340 C   0  0  0  0  0  0
   25.3070    6.8000   50.5450 C   0  0  0  0  0  0
   25.3260    8.1790   50.3660 C   0  0  0  0  0  0
   26.4350    8.9210   50.7570 C   0  0  0  0  0  0
   26.4490   10.6540   50.4910 S   0  0  0  0  0  0
   27.8570   11.1390   50.2960 O   0  0  0  0  0  0
   25.8560   11.3510   51.6790 O   0  0  0  0  0  0
   25.4640   10.9980   48.9870 C   0  0  1  0  0  0
   24.4720   12.1440   49.2060 C   0  0  0  0  0  0
   23.5560   11.8150   50.1940 F   0  0  0  0  0  0
   23.7800   12.4110   48.0340 F   0  0  0  0  0  0
   26.3570   11.2690   47.7740 C   0  0  0  0  0  0
   27.1300   10.0120   47.3680 C   0  0  0  0  0  0
   28.3020   10.1680   46.9670 O   0  0  0  0  0  0
   26.5280    8.9210   47.4660 O   0  5  0  0  0  0
   25.7711    3.3651   52.6224 H   0  0  0  0  0  0
   24.7405    4.8327   52.5194 H   0  0  0  0  0  0
   26.3389    4.9131   53.3352 H   0  0  0  0  0  0
   28.3657    6.3973   51.9609 H   0  0  0  0  0  0
   28.3962    8.8573   51.6472 H   0  0  0  0  0  0
   24.4349    6.2226   50.2383 H   0  0  0  0  0  0
   24.4682    8.6801   49.9175 H   0  0  0  0  0  0
   24.8064   10.2016   48.6085 H   0  0  0  0  0  0
   24.9510   13.0833   49.5194 H   0  0  0  0  0  0
   25.7351   11.5894   46.9251 H   0  0  0  0  0  0
   27.0786   12.0620   48.0198 H   0  0  0  0  0  0
  1  2  1  0  0  0
  1 20  1  0  0  0
  1 21  1  0  0  0
  1 22  1  0  0  0
  2  3  1  0  0  0
  3  4  2  0  0  0
  3  6  1  0  0  0
  4  5  1  0  0  0
  4 23  1  0  0  0
  5  8  2  0  0  0
  5 24  1  0  0  0
  6  7  2  0  0  0
  6 25  1  0  0  0
  7  8  1  0  0  0
  7 26  1  0  0  0
  8  9  1  0  0  0
  9 10  2  0  0  0
  9 11  2  0  0  0
  9 12  1  0  0  0
 12 13  1  0  0  0
 12 16  1  0  0  0
 12 27  1  0  0  0
 13 14  1  0  0  0
 13 15  1  0  0  0
 13 28  1  0  0  0
 16 17  1  0  0  0
 16 29  1  0  0  0
 16 30  1  0  0  0
 17 18  2  0  0  0
 17 19  1  0  0  0
M  CHG  1  19  -1
M  END
> <s_m_source_file>
../2ow2_ligand.sdf

> <i_m_source_file_index>
1

> <s_epik_input>
W0NIM11PYzFbY0hdW2NIXWMoW2NIXVtjSF0xKVMoPU8pKD1PKVtDQEBIXShbQ0hdKEYpRilbQ0gyXUMoPU8pW09IXQ==

> <s_epik_cmdline>
J2VwaWtfYXBwJywgJy1pbWFlJywgJ2xpZ2FuZF9wcm8ubWFlJywgJy1vbWFlJywgJ2xpZ2FuZF9wcmVwLm1hZScsICctbXMnLCAnMScsICctcGgnLCAnNycsICctcGh0JywgJzAuNScsICctbnQn

> <r_lp_tautomer_probability>
1

> <r_epik_Ionization_Penalty>
  0.0002

> <r_epik_Ionization_Penalty_Charging>
  0.0002

> <r_epik_Ionization_Penalty_Neutral>
  0.0000

> <r_epik_State_Penalty>
 -0.0000

> <r_epik_Charging_Adjusted_Penalty>
0.000188076264253492

> <i_epik_Tot_Q>
-1

> <i_epik_Tot_abs_Q>
1

$$$$
