2ow3_ligand
                    3D
 Schrodinger Suite 2020-3.
 75 81  0  0  1  0            999 V2000
  -37.4230   -0.9260   74.6060 C   0  0  0  0  0  0
  -37.1510   -1.4660   73.2710 C   0  0  0  0  0  0
  -39.1660   -2.1010   74.0590 C   0  0  0  0  0  0
  -38.2320   -2.2000   72.9260 C   0  0  0  0  0  0
  -38.6120   -3.0230   71.7270 C   0  0  0  0  0  0
  -37.7540   -3.7970   70.9560 C   0  0  0  0  0  0
  -39.8630   -3.2070   71.1720 C   0  0  0  0  0  0
  -39.7800   -4.0330   70.0970 N   0  0  0  0  0  0
  -35.8740   -1.1670   72.5720 C   0  0  0  0  0  0
  -35.6740   -0.7390   71.2740 C   0  0  0  0  0  0
  -33.6960   -0.9520   72.1750 C   0  0  0  0  0  0
  -36.3840   -3.9890   71.0610 C   0  0  0  0  0  0
  -35.7450   -4.8090   70.1440 C   0  0  0  0  0  0
  -37.8550   -5.2320   69.0350 C   0  0  0  0  0  0
  -36.4770   -5.4320   69.1350 C   0  0  0  0  0  0
  -32.8620   -1.7450   74.6940 C   0  0  0  0  0  0
  -31.9270   -1.3860   73.7270 C   0  0  0  0  0  0
  -36.6630   -0.2130   75.2310 O   0  0  0  0  0  0
  -34.1300   -0.9760   68.5550 C   0  0  0  0  0  0
  -37.3180   -0.6450   67.7710 C   0  0  0  0  0  0
  -38.4480   -1.3310   67.4140 C   0  0  0  0  0  0
  -37.2570   -2.5440   65.7160 C   0  0  0  0  0  0
  -38.4590   -2.2870   66.3990 C   0  0  0  0  0  0
  -40.9830   -4.4150   69.3230 C   0  0  0  0  0  0
  -40.9610   -4.5520   67.7840 C   0  0  0  0  0  0
  -39.7710   -3.0000   66.0650 C   0  0  0  0  0  0
  -40.8500   -3.1560   67.1720 C   0  0  0  0  0  0
  -38.0070   -4.0700   63.6730 C   0  0  0  0  0  0
  -34.6160   -1.3050   73.1270 C   0  0  0  0  0  0
  -34.2200   -1.7100   74.3950 C   0  0  0  0  0  0
  -32.3390   -0.9840   72.4580 C   0  0  0  0  0  0
  -34.3450   -0.6050   71.0550 N   0  0  0  0  0  0
  -33.7090   -0.1610   69.8000 C   0  0  0  0  0  0
  -34.9030   -0.1300   67.5260 C   0  0  0  0  0  0
  -36.1440   -0.8830   67.1100 C   0  0  0  0  0  0
  -36.1260   -1.8260   66.0970 N   0  3  0  0  0  0
  -37.0670   -3.4740   64.6470 N   0  0  0  0  0  0
  -35.7220   -4.0060   64.3460 C   0  0  0  0  0  0
  -40.2540   -2.6260   74.1030 O   0  0  0  0  0  0
  -38.6550   -1.3280   75.0720 N   0  0  0  0  0  0
  -38.4880   -4.4050   69.9590 C   0  0  0  0  0  0
  -40.7831   -2.7552   71.5426 H   0  0  0  0  0  0
  -36.4592   -0.5412   70.5443 H   0  0  0  0  0  0
  -35.8174   -3.5014   71.8543 H   0  0  0  0  0  0
  -34.6686   -4.9667   70.2122 H   0  0  0  0  0  0
  -38.4276   -5.7167   68.2442 H   0  0  0  0  0  0
  -35.9704   -6.0795   68.4193 H   0  0  0  0  0  0
  -32.5299   -2.0535   75.6853 H   0  0  0  0  0  0
  -30.8637   -1.4197   73.9645 H   0  0  0  0  0  0
  -33.2337   -1.3757   68.0581 H   0  0  0  0  0  0
  -34.7797   -1.8081   68.8640 H   0  0  0  0  0  0
  -37.3536    0.0871   68.5778 H   0  0  0  0  0  0
  -39.3766   -1.1212   67.9448 H   0  0  0  0  0  0
  -41.3309   -5.4056   69.6513 H   0  0  0  0  0  0
  -41.7777   -3.6732   69.4906 H   0  0  0  0  0  0
  -40.0973   -5.1629   67.4826 H   0  0  0  0  0  0
  -41.8887   -5.0366   67.4457 H   0  0  0  0  0  0
  -40.2848   -2.4619   65.2548 H   0  0  0  0  0  0
  -39.5570   -4.0299   65.7431 H   0  0  0  0  0  0
  -41.8105   -2.8796   66.7127 H   0  0  0  0  0  0
  -40.5973   -2.4298   67.9586 H   0  0  0  0  0  0
  -39.0228   -3.6952   63.8673 H   0  0  0  0  0  0
  -37.9946   -5.1652   63.7745 H   0  0  0  0  0  0
  -37.7027   -3.7928   62.6529 H   0  0  0  0  0  0
  -34.9601   -1.9954   75.1426 H   0  0  0  0  0  0
  -31.6076   -0.6998   71.7014 H   0  0  0  0  0  0
  -32.6213   -0.2438   69.9418 H   0  0  0  0  0  0
  -33.9806    0.8952   69.6559 H   0  0  0  0  0  0
  -35.1852    0.8315   67.9797 H   0  0  0  0  0  0
  -34.2658    0.0519   66.6480 H   0  0  0  0  0  0
  -34.9936   -3.5829   65.0534 H   0  0  0  0  0  0
  -35.4396   -3.7294   63.3195 H   0  0  0  0  0  0
  -35.7315   -5.1018   64.4410 H   0  0  0  0  0  0
  -38.9989   -1.0060   76.0660 H   0  0  0  0  0  0
  -35.1672   -1.9983   65.5861 H   0  0  0  0  0  0
  1  2  1  0  0  0
  1 18  2  0  0  0
  1 40  1  0  0  0
  2  4  2  0  0  0
  2  9  1  0  0  0
  3  4  1  0  0  0
  3 39  2  0  0  0
  3 40  1  0  0  0
  4  5  1  0  0  0
  5  6  1  0  0  0
  5  7  2  0  0  0
  6 12  2  0  0  0
  6 41  1  0  0  0
  7  8  1  0  0  0
  7 42  1  0  0  0
  8 24  1  0  0  0
  8 41  1  0  0  0
  9 10  2  0  0  0
  9 29  1  0  0  0
 10 32  1  0  0  0
 10 43  1  0  0  0
 11 29  2  0  0  0
 11 31  1  0  0  0
 11 32  1  0  0  0
 12 13  1  0  0  0
 12 44  1  0  0  0
 13 15  2  0  0  0
 13 45  1  0  0  0
 14 15  1  0  0  0
 14 41  2  0  0  0
 14 46  1  0  0  0
 15 47  1  0  0  0
 16 17  1  0  0  0
 16 30  2  0  0  0
 16 48  1  0  0  0
 17 31  2  0  0  0
 17 49  1  0  0  0
 19 33  1  0  0  0
 19 34  1  0  0  0
 19 50  1  0  0  0
 19 51  1  0  0  0
 20 21  2  0  0  0
 20 35  1  0  0  0
 20 52  1  0  0  0
 21 23  1  0  0  0
 21 53  1  0  0  0
 22 23  2  0  0  0
 22 36  1  0  0  0
 22 37  1  0  0  0
 23 26  1  0  0  0
 24 25  1  0  0  0
 24 54  1  0  0  0
 24 55  1  0  0  0
 25 27  1  0  0  0
 25 56  1  0  0  0
 25 57  1  0  0  0
 26 27  1  0  0  0
 26 58  1  0  0  0
 26 59  1  0  0  0
 27 60  1  0  0  0
 27 61  1  0  0  0
 28 37  1  0  0  0
 28 62  1  0  0  0
 28 63  1  0  0  0
 28 64  1  0  0  0
 29 30  1  0  0  0
 30 65  1  0  0  0
 31 66  1  0  0  0
 32 33  1  0  0  0
 33 67  1  0  0  0
 33 68  1  0  0  0
 34 35  1  0  0  0
 34 69  1  0  0  0
 34 70  1  0  0  0
 35 36  2  0  0  0
 36 75  1  0  0  0
 37 38  1  0  0  0
 38 71  1  0  0  0
 38 72  1  0  0  0
 38 73  1  0  0  0
 40 74  1  0  0  0
M  CHG  1  36   1
M  END
> <s_m_source_file>
../2ow3_ligand.sdf

> <i_m_source_file_index>
1

> <s_epik_input>
Tz1DMVtOSF1DKD1PKUMoPUMxMiljM2M0YyhbY0hdW2NIXVtjSF1bY0hdNCluKFtjSF0zKVtDSDJdW0NIMl1bQ0gyXVtDSDJdYzVbY0hdW2NIXWMobmM1TihbQ0gzXSlbQ0gzXSlbQ0gyXVtDSDJdW0NIMl1uNmM3YyhjMltjSF02KVtjSF1bY0hdW2NIXVtjSF03

> <s_epik_cmdline>
J2VwaWtfYXBwJywgJy1pbWFlJywgJ2xpZ2FuZF9wcm8ubWFlJywgJy1vbWFlJywgJ2xpZ2FuZF9wcmVwLm1hZScsICctbXMnLCAnMScsICctcGgnLCAnNycsICctcGh0JywgJzAuNScsICctbnQn

> <r_lp_tautomer_probability>
1

> <r_epik_Ionization_Penalty>
  0.0716

> <r_epik_Ionization_Penalty_Charging>
  0.0352

> <r_epik_Ionization_Penalty_Neutral>
  0.0363

> <r_epik_State_Penalty>
 -0.0000

> <r_epik_Charging_Adjusted_Penalty>
0.0352405125927914

> <i_epik_Tot_Q>
1

> <i_epik_Tot_abs_Q>
1

$$$$
