2ow6_ligand
                    3D
 Schrodinger Suite 2020-3.
 27 28  0  0  1  0            999 V2000
   31.8550   67.3780    5.7790 O   0  0  0  0  0  0
   31.7270   66.9850    7.1530 C   0  0  1  0  0  0
   30.9160   65.7060    7.2110 C   0  0  2  0  0  0
   29.4730   65.7890    6.7310 C   0  0  1  0  0  0
   28.9260   64.4680    6.8110 O   0  0  0  0  0  0
   28.5620   66.7080    7.5720 C   0  0  0  0  0  0
   28.5310   66.3400    9.0540 C   0  0  0  0  0  0
   29.8920   66.4390    9.7390 C   0  0  0  0  0  0
   31.0680   65.3100    8.9600 S   0  0  2  0  0  0
   32.6790   66.0660    9.2080 C   0  0  0  0  0  0
   33.0380   66.7310    7.8710 C   0  0  1  0  0  0
   33.9040   65.8570    7.1340 O   0  0  0  0  0  0
   30.9558   67.5832    5.1796 H   0  0  0  0  0  0
   31.2447   67.8605    7.6123 H   0  0  0  0  0  0
   31.2416   65.0508    6.3896 H   0  0  0  0  0  0
   29.4841   66.1488    5.6916 H   0  0  0  0  0  0
   29.4158   63.6369    6.2824 H   0  0  0  0  0  0
   28.9185   67.7459    7.4969 H   0  0  0  0  0  0
   27.5305   66.6464    7.1948 H   0  0  0  0  0  0
   27.8465   67.0173    9.5857 H   0  0  0  0  0  0
   28.1819   65.3030    9.1671 H   0  0  0  0  0  0
   30.2712   67.4681    9.6540 H   0  0  0  0  0  0
   29.7881   66.1731   10.8013 H   0  0  0  0  0  0
   32.6154   66.8071   10.0184 H   0  0  0  0  0  0
   33.4106   65.2900    9.4774 H   0  0  0  0  0  0
   33.6197   67.6607    7.9564 H   0  0  0  0  0  0
   34.2741   66.1572    6.1426 H   0  0  0  0  0  0
  1  2  1  0  0  0
  1 13  1  0  0  0
  2  3  1  0  0  0
  2 11  1  0  0  0
  2 14  1  0  0  0
  3  4  1  0  0  0
  3  9  1  0  0  0
  3 15  1  0  0  0
  4  5  1  0  0  0
  4  6  1  0  0  0
  4 16  1  0  0  0
  5 17  1  0  0  0
  6  7  1  0  0  0
  6 18  1  0  0  0
  6 19  1  0  0  0
  7  8  1  0  0  0
  7 20  1  0  0  0
  7 21  1  0  0  0
  8  9  1  0  0  0
  8 22  1  0  0  0
  8 23  1  0  0  0
  9 10  1  0  0  0
 10 11  1  0  0  0
 10 24  1  0  0  0
 10 25  1  0  0  0
 11 12  1  0  0  0
 11 26  1  0  0  0
 12 27  1  0  0  0
M  END
> <s_m_source_file>
../2ow6_ligand.sdf

> <i_m_source_file_index>
1

> <s_epik_input>
W09IXVtDQEBIXTFbQ0BIXShbT0hdKVtDSDJdW1NASF0oW0NASF0xMilbQ0gyXVtDSDJdW0NIMl1bQ0BASF0yW09IXQ==

> <s_epik_cmdline>
J2VwaWtfYXBwJywgJy1pbWFlJywgJ2xpZ2FuZF9wcm8ubWFlJywgJy1vbWFlJywgJ2xpZ2FuZF9wcmVwLm1hZScsICctbXMnLCAnMScsICctcGgnLCAnNycsICctcGh0JywgJzAuNScsICctbnQn

> <r_lp_tautomer_probability>
1

> <r_epik_Ionization_Penalty>
  0.0000

> <r_epik_Ionization_Penalty_Charging>
  0.0000

> <r_epik_Ionization_Penalty_Neutral>
  0.0000

> <r_epik_State_Penalty>
 -0.0000

> <r_epik_Charging_Adjusted_Penalty>
0

> <i_epik_Tot_Q>
0

> <i_epik_Tot_abs_Q>
0

$$$$
