2owb_ligand
                    3D
 Schrodinger Suite 2020-3.
 59 63  0  0  1  0            999 V2000
   -0.6310   28.7700   64.1010 C   0  0  0  0  0  0
   -0.2580   29.7610   63.4780 O   0  0  0  0  0  0
   -0.0340   28.4200   65.2440 N   0  0  0  0  0  0
    2.2070   28.5660   68.0640 N   0  0  0  0  0  0
    1.0950   26.8180   68.4280 C   0  0  3  0  0  0
    2.0440   27.5860   68.8750 N   0  3  0  0  0  0
    0.7470   25.6700   69.1520 N   0  0  0  0  0  0
   -0.1730   24.7700   68.7470 C   0  0  0  0  0  0
   -0.4150   23.5420   69.5720 C   0  0  0  0  0  0
   -0.8200   24.8810   67.7080 O   0  0  0  0  0  0
    0.2030   23.3230   70.8220 C   0  0  0  0  0  0
   -0.0320   22.1590   71.5690 C   0  0  0  0  0  0
   -1.5290   21.3650   69.8610 C   0  0  0  0  0  0
   -1.2930   22.5310   69.1120 C   0  0  0  0  0  0
    1.3560   28.5080   66.9920 C   0  0  0  0  0  0
    0.6220   27.4120   67.1700 C   0  0  0  0  0  0
   -0.3620   27.2160   66.0640 C   0  0  0  0  0  0
    1.0500   29.2840   65.7690 C   0  0  0  0  0  0
   -1.1260   19.9640   71.9180 N   0  0  0  0  0  0
   -1.7640   18.7760   71.3230 C   0  0  0  0  0  0
   -0.7340   18.0130   70.4850 C   0  0  0  0  0  0
    0.4230   17.6180   71.3230 N   0  3  0  0  0  0
    0.9990   18.7730   72.0480 C   0  0  0  0  0  0
   -0.0820   19.5050   72.8470 C   0  0  0  0  0  0
    1.4540   16.8830   70.5530 C   0  0  0  0  0  0
   -0.9040   21.1450   71.1150 C   0  0  0  0  0  0
   -1.1010   25.1660   60.8630 C   0  0  0  0  0  0
    0.0640   25.9230   60.9060 C   0  0  0  0  0  0
   -2.3310   25.7200   61.9460 S   0  0  0  0  0  0
   -0.0550   27.0070   61.8670 C   0  0  0  0  0  0
   -1.3080   26.9940   62.4920 C   0  0  0  0  0  0
   -1.7960   27.9610   63.5460 C   0  0  0  0  0  0
    1.2347   25.4582   70.1150 H   0  0  0  0  0  0
    0.8813   24.0789   71.2177 H   0  0  0  0  0  0
    0.4727   22.0336   72.5269 H   0  0  0  0  0  0
   -2.2101   20.6103   69.4677 H   0  0  0  0  0  0
   -1.7978   22.6598   68.1546 H   0  0  0  0  0  0
   -1.4151   27.2623   66.3785 H   0  0  0  0  0  0
   -0.1979   26.3083   65.4646 H   0  0  0  0  0  0
    1.8679   29.3329   65.0351 H   0  0  0  0  0  0
    0.6578   30.2959   65.9488 H   0  0  0  0  0  0
   -2.1428   18.1236   72.1236 H   0  0  0  0  0  0
   -2.5996   19.0914   70.6809 H   0  0  0  0  0  0
   -1.1992   17.1081   70.0670 H   0  0  0  0  0  0
   -0.3800   18.6553   69.6652 H   0  0  0  0  0  0
    0.0372   16.9193   72.0800 H   0  0  0  0  0  0
    1.7758   18.4198   72.7421 H   0  0  0  0  0  0
    1.4434   19.4743   71.3264 H   0  0  0  0  0  0
    0.3571   20.3719   73.3624 H   0  0  0  0  0  0
   -0.5246   18.8233   73.5882 H   0  0  0  0  0  0
    0.9866   16.0352   70.0307 H   0  0  0  0  0  0
    2.2275   16.5091   71.2400 H   0  0  0  0  0  0
    1.9132   17.5591   69.8168 H   0  0  0  0  0  0
   -1.2277   24.3039   60.2081 H   0  0  0  0  0  0
    0.9490   25.7295   60.2998 H   0  0  0  0  0  0
    0.7291   27.7353   62.0742 H   0  0  0  0  0  0
   -2.2703   27.3946   64.3610 H   0  0  0  0  0  0
   -2.5332   28.6416   63.0952 H   0  0  0  0  0  0
    2.6680   27.5095   69.7776 H   0  0  0  0  0  0
  1  2  2  0  0  0
  1  3  1  0  0  0
  1 32  1  0  0  0
  3 17  1  0  0  0
  3 18  1  0  0  0
  4  6  2  0  0  0
  4 15  1  0  0  0
  5  6  1  0  0  0
  5  7  1  0  0  0
  5 16  1  0  0  0
  6 59  1  0  0  0
  7  8  1  0  0  0
  7 33  1  0  0  0
  8  9  1  0  0  0
  8 10  2  0  0  0
  9 11  2  0  0  0
  9 14  1  0  0  0
 11 12  1  0  0  0
 11 34  1  0  0  0
 12 26  2  0  0  0
 12 35  1  0  0  0
 13 14  2  0  0  0
 13 26  1  0  0  0
 13 36  1  0  0  0
 14 37  1  0  0  0
 15 16  2  0  0  0
 15 18  1  0  0  0
 16 17  1  0  0  0
 17 38  1  0  0  0
 17 39  1  0  0  0
 18 40  1  0  0  0
 18 41  1  0  0  0
 19 20  1  0  0  0
 19 24  1  0  0  0
 19 26  1  0  0  0
 20 21  1  0  0  0
 20 42  1  0  0  0
 20 43  1  0  0  0
 21 22  1  0  0  0
 21 44  1  0  0  0
 21 45  1  0  0  0
 22 23  1  0  0  0
 22 25  1  0  0  0
 22 46  1  0  0  0
 23 24  1  0  0  0
 23 47  1  0  0  0
 23 48  1  0  0  0
 24 49  1  0  0  0
 24 50  1  0  0  0
 25 51  1  0  0  0
 25 52  1  0  0  0
 25 53  1  0  0  0
 27 28  2  0  0  0
 27 29  1  0  0  0
 27 54  1  0  0  0
 28 30  1  0  0  0
 28 55  1  0  0  0
 29 31  1  0  0  0
 30 31  2  0  0  0
 30 56  1  0  0  0
 31 32  1  0  0  0
 32 57  1  0  0  0
 32 58  1  0  0  0
M  CHG  2   6   1  22   1
M  END
> <s_m_source_file>
../2owb_ligand.sdf

> <i_m_source_file_index>
1

> <s_epik_input>
W2NIXTFbY0hdW2NIXXNjMVtDSDJdQyg9TylOKFtDSDJdMilbQ0gyXUMoPUMyMylbQ0hdKE49TjMpW05IXUMoPU8pYzRbY0hdW2NIXWMoW2NIXVtjSF00KU41W0NIMl1bQ0gyXVtOSCtdKFtDSDNdKVtDSDJdW0NIMl01

> <s_epik_cmdline>
J2VwaWtfYXBwJywgJy1pbWFlJywgJ2xpZ2FuZF9wcm8ubWFlJywgJy1vbWFlJywgJ2xpZ2FuZF9wcmVwLm1hZScsICctbXMnLCAnMScsICctcGgnLCAnNycsICctcGh0JywgJzAuNScsICctbnQn

> <r_epik_Ionization_Penalty>
  0.0652

> <r_epik_Ionization_Penalty_Charging>
  0.0649

> <r_epik_Ionization_Penalty_Neutral>
  0.0002

> <r_epik_State_Penalty>
  0.0564

> <r_epik_Charging_Adjusted_Penalty>
0.121370005549394

> <i_epik_Tot_Q>
2

> <i_epik_Tot_abs_Q>
2

$$$$
