2oxd_ligand
                    3D
 Schrodinger Suite 2020-3.
 16 17  0  0  1  0            999 V2000
   20.8110    6.8790   22.6790 Br  0  0  0  0  0  0
   21.2880    7.4110   20.9220 C   0  0  0  0  0  0
   20.6760    8.5010   20.2990 C   0  0  0  0  0  0
   19.3420    9.4560   21.2260 Br  0  0  0  0  0  0
   22.2620    6.6750   20.2730 C   0  0  0  0  0  0
   22.9720    5.6030   20.6600 N   0  0  0  0  0  0
   23.7530    5.3520   19.6020 C   0  0  0  0  0  0
   24.5850    4.3650   19.6250 O   0  0  0  0  0  0
   23.6080    6.1890   18.5520 N   0  0  0  0  0  0
   22.6460    7.0410   18.9780 C   0  0  0  0  0  0
   22.0190    8.1310   18.3790 C   0  0  0  0  0  0
   22.5890    8.5760   16.6590 Br  0  0  0  0  0  0
   21.0250    8.8860   19.0070 C   0  0  0  0  0  0
   20.1640   10.3830   18.1410 Br  0  0  0  0  0  0
   22.8110    5.1674   21.6572 H   0  0  0  0  0  0
   24.2199    6.0492   17.6486 H   0  0  0  0  0  0
  1  2  1  0  0  0
  2  3  2  0  0  0
  2  5  1  0  0  0
  3  4  1  0  0  0
  3 13  1  0  0  0
  5  6  1  0  0  0
  5 10  2  0  0  0
  6  7  1  0  0  0
  6 15  1  0  0  0
  7  8  2  0  0  0
  7  9  1  0  0  0
  9 10  1  0  0  0
  9 16  1  0  0  0
 10 11  1  0  0  0
 11 12  1  0  0  0
 11 13  2  0  0  0
 13 14  1  0  0  0
M  END
> <s_m_source_file>
../2oxd_ligand.sdf

> <i_m_source_file_index>
1

> <s_epik_input>
QnJjMWMoQnIpYyhCciljKEJyKWMoYzEyKVtuSF1jKD1PKVtuSF0y

> <s_epik_cmdline>
J2VwaWtfYXBwJywgJy1pbWFlJywgJ2xpZ2FuZF9wcm8ubWFlJywgJy1vbWFlJywgJ2xpZ2FuZF9wcmVwLm1hZScsICctbXMnLCAnMScsICctcGgnLCAnNycsICctcGh0JywgJzAuNScsICctbnQn

> <r_epik_Ionization_Penalty>
  0.0170

> <r_epik_Ionization_Penalty_Charging>
  0.0170

> <r_epik_Ionization_Penalty_Neutral>
  0.0000

> <r_epik_State_Penalty>
  0.1795

> <r_epik_Charging_Adjusted_Penalty>
0.196441695936997

> <i_epik_Tot_Q>
0

> <i_epik_Tot_abs_Q>
0

$$$$
