2oxx_ligand
                    3D
 Schrodinger Suite 2020-3.
 15 16  0  0  1  0            999 V2000
   22.5810    8.4420   16.7820 Br  0  0  0  0  0  0
   22.1910    7.8580   18.5320 C   0  0  0  0  0  0
   21.2130    8.6120   19.1490 C   0  0  0  0  0  0
   20.3270   10.0520   18.2530 Br  0  0  0  0  0  0
   22.8050    6.7860   19.2230 C   0  0  0  0  0  0
   23.7590    5.8770   18.9430 N   0  0  0  0  0  0
   23.9310    5.0750   20.0330 C   0  0  0  0  0  0
   24.9650    3.7980   20.2190 S   0  5  0  0  0  0
   23.1030    5.4640   21.0070 N   0  0  0  0  0  0
   22.4130    6.4980   20.5400 C   0  0  0  0  0  0
   21.4450    7.2530   21.1540 C   0  0  0  0  0  0
   20.8900    6.8860   22.9370 Br  0  0  0  0  0  0
   20.8740    8.2780   20.4410 C   0  0  0  0  0  0
   19.5750    9.2700   21.2980 Br  0  0  0  0  0  0
   23.0994    4.9332   21.9705 H   0  0  0  0  0  0
  1  2  1  0  0  0
  2  3  2  0  0  0
  2  5  1  0  0  0
  3  4  1  0  0  0
  3 13  1  0  0  0
  5  6  1  0  0  0
  5 10  2  0  0  0
  6  7  2  0  0  0
  7  8  1  0  0  0
  7  9  1  0  0  0
  9 10  1  0  0  0
  9 15  1  0  0  0
 10 11  1  0  0  0
 11 12  1  0  0  0
 11 13  2  0  0  0
 13 14  1  0  0  0
M  CHG  1   8  -1
M  END
> <s_m_source_file>
../2oxx_ligand.sdf

> <i_m_source_file_index>
1

> <s_epik_input>
QnJjMWMoQnIpYyhCciljKEJyKWMoYzEyKVtuSF1jKD1TKVtuSF0y

> <s_epik_cmdline>
J2VwaWtfYXBwJywgJy1pbWFlJywgJ2xpZ2FuZF9wcm8ubWFlJywgJy1vbWFlJywgJ2xpZ2FuZF9wcmVwLm1hZScsICctbXMnLCAnMScsICctcGgnLCAnNycsICctcGh0JywgJzAuNScsICctbnQn

> <r_lp_tautomer_probability>
1

> <r_epik_Ionization_Penalty>
  0.0003

> <r_epik_Ionization_Penalty_Charging>
  0.0000

> <r_epik_Ionization_Penalty_Neutral>
  0.0003

> <r_epik_State_Penalty>
 -0.0000

> <r_epik_Charging_Adjusted_Penalty>
3.36037257176642e-09

> <i_epik_Tot_Q>
-1

> <i_epik_Tot_abs_Q>
1

$$$$
