2oxy_ligand
                    3D
 Schrodinger Suite 2020-3.
 14 15  0  0  1  0            999 V2000
  -10.8420    2.6260    6.6060 Br  0  0  0  0  0  0
  -11.0520    4.3300    5.8440 C   0  0  0  0  0  0
  -10.8190    5.4380    6.6640 C   0  0  0  0  0  0
  -10.2460    5.1060    8.4570 Br  0  0  0  0  0  0
  -11.4630    4.4630    4.5290 C   0  0  0  0  0  0
  -11.7410    3.5240    3.5610 N   0  0  0  0  0  0
  -12.0720    4.2500    2.4790 C   0  0  0  0  0  0
  -12.0180    5.5850    2.7590 N   0  0  0  0  0  0
  -11.6430    5.7520    4.0320 C   0  0  0  0  0  0
  -11.4170    6.8990    4.8430 C   0  0  0  0  0  0
  -11.6770    8.6770    4.1740 Br  0  0  0  0  0  0
  -11.0010    6.7360    6.1670 C   0  0  0  0  0  0
  -10.7180    8.2340    7.3270 Br  0  0  0  0  0  0
  -12.3459    3.8303    1.5110 H   0  0  0  0  0  0
  1  2  1  0  0  0
  2  3  2  0  0  0
  2  5  1  0  0  0
  3  4  1  0  0  0
  3 12  1  0  0  0
  5  6  2  0  0  0
  5  9  1  0  0  0
  6  7  1  0  0  0
  7  8  1  0  0  0
  7 14  1  0  0  0
  8  9  2  0  0  0
  9 10  1  0  0  0
 10 11  1  0  0  0
 10 12  2  0  0  0
 12 13  1  0  0  0
M  END
> <s_m_source_file>
../2oxy_ligand.sdf

> <i_m_source_file_index>
1

> <s_epik_input>
QnJjMWMoQnIpYyhCciljKEJyKWMoYzE9Mik9TltDSDJdTjI=

> <s_epik_cmdline>
J2VwaWtfYXBwJywgJy1pbWFlJywgJ2xpZ2FuZF9wcm8ubWFlJywgJy1vbWFlJywgJ2xpZ2FuZF9wcmVwLm1hZScsICctbXMnLCAnMScsICctcGgnLCAnNycsICctcGh0JywgJzAuNScsICctbnQn

> <r_lp_tautomer_probability>
1

> <r_epik_Ionization_Penalty>
  0.0000

> <r_epik_Ionization_Penalty_Charging>
  0.0000

> <r_epik_Ionization_Penalty_Neutral>
  0.0000

> <r_epik_State_Penalty>
 -0.0000

> <r_epik_Charging_Adjusted_Penalty>
0

> <i_epik_Tot_Q>
0

> <i_epik_Tot_abs_Q>
0

> <s_epik_Chemistry_Notes>
This compound has an imine and may undergo hydrolysis.

$$$$
