2oyk_ligand
                    3D
 Schrodinger Suite 2020-3.
 45 46  0  0  1  0            999 V2000
   28.9510   61.1250  -25.7520 O   0  0  0  0  0  0
   29.3330   59.7590  -25.7350 C   0  0  2  0  0  0
   30.8000   59.6320  -26.1520 C   0  0  1  0  0  0
   31.6140   60.3200  -25.1940 O   0  0  0  0  0  0
   31.1900   58.1570  -26.2250 C   0  0  2  0  0  0
   32.5130   58.0530  -26.7810 O   0  0  0  0  0  0
   30.1900   57.3800  -27.0910 C   0  0  1  0  0  0
   30.4760   55.8890  -27.0170 C   0  0  0  0  0  0
   30.3750   55.4190  -25.6570 O   0  0  0  0  0  0
   28.8470   57.5630  -26.5880 O   0  0  0  0  0  0
   28.4360   58.9340  -26.6520 C   0  0  1  0  0  0
   27.1110   58.9690  -26.1310 O   0  0  0  0  0  0
   26.1360   58.3940  -27.0070 C   0  0  1  0  0  0
   25.1900   57.4680  -26.2380 C   0  0  2  0  0  0
   25.9310   56.4620  -25.5550 O   0  0  0  0  0  0
   24.2150   56.8000  -27.1970 C   0  0  0  0  0  0
   23.4410   57.8170  -27.9400 N   0  3  0  0  0  0
   24.3090   58.7950  -28.6330 C   0  0  0  0  0  0
   25.2480   59.4630  -27.6320 C   0  0  2  0  0  0
   26.0640   60.5880  -28.2940 C   0  0  0  0  0  0
   26.7860   60.1180  -29.4410 O   0  0  0  0  0  0
   29.4998   61.8572  -25.1415 H   0  0  0  0  0  0
   29.1879   59.4395  -24.6925 H   0  0  0  0  0  0
   30.9950   60.1215  -27.1176 H   0  0  0  0  0  0
   31.4642   61.3951  -25.0161 H   0  0  0  0  0  0
   31.2399   57.7142  -25.2193 H   0  0  0  0  0  0
   33.3586   58.5525  -26.2856 H   0  0  0  0  0  0
   30.2308   57.7596  -28.1226 H   0  0  0  0  0  0
   29.7482   55.3449  -27.6368 H   0  0  0  0  0  0
   31.4929   55.6919  -27.3873 H   0  0  0  0  0  0
   30.5531   54.3582  -25.4270 H   0  0  0  0  0  0
   28.4478   59.2883  -27.6933 H   0  0  0  0  0  0
   26.7599   57.8725  -27.7478 H   0  0  0  0  0  0
   24.6569   58.0280  -25.4556 H   0  0  0  0  0  0
   26.6920   56.7473  -24.8137 H   0  0  0  0  0  0
   24.7729   56.1808  -27.9148 H   0  0  0  0  0  0
   23.5187   56.1655  -26.6291 H   0  0  0  0  0  0
   22.8170   57.3212  -28.6981 H   0  0  0  0  0  0
   22.7975   58.3711  -27.2408 H   0  0  0  0  0  0
   24.9058   58.2776  -29.3986 H   0  0  0  0  0  0
   23.6852   59.5640  -29.1121 H   0  0  0  0  0  0
   24.6584   59.9347  -26.8320 H   0  0  0  0  0  0
   25.3857   61.3910  -28.6181 H   0  0  0  0  0  0
   26.7887   60.9899  -27.5705 H   0  0  0  0  0  0
   27.4150   60.8123  -30.0175 H   0  0  0  0  0  0
  1  2  1  0  0  0
  1 22  1  0  0  0
  2  3  1  0  0  0
  2 11  1  0  0  0
  2 23  1  0  0  0
  3  4  1  0  0  0
  3  5  1  0  0  0
  3 24  1  0  0  0
  4 25  1  0  0  0
  5  6  1  0  0  0
  5  7  1  0  0  0
  5 26  1  0  0  0
  6 27  1  0  0  0
  7  8  1  0  0  0
  7 10  1  0  0  0
  7 28  1  0  0  0
  8  9  1  0  0  0
  8 29  1  0  0  0
  8 30  1  0  0  0
  9 31  1  0  0  0
 10 11  1  0  0  0
 11 12  1  0  0  0
 11 32  1  0  0  0
 12 13  1  0  0  0
 13 14  1  0  0  0
 13 19  1  0  0  0
 13 33  1  0  0  0
 14 15  1  0  0  0
 14 16  1  0  0  0
 14 34  1  0  0  0
 15 35  1  0  0  0
 16 17  1  0  0  0
 16 36  1  0  0  0
 16 37  1  0  0  0
 17 18  1  0  0  0
 17 38  1  0  0  0
 17 39  1  0  0  0
 18 19  1  0  0  0
 18 40  1  0  0  0
 18 41  1  0  0  0
 19 20  1  0  0  0
 19 42  1  0  0  0
 20 21  1  0  0  0
 20 43  1  0  0  0
 20 44  1  0  0  0
 21 45  1  0  0  0
M  CHG  1  17   1
M  END
> <s_m_source_file>
../2oyk_ligand.sdf

> <i_m_source_file_index>
1

> <s_epik_input>
W09IXVtDQEBIXTFbQ0BASF0oW09IXSlbQ0BIXShbT0hdKVtDQEBIXShbQ0gyXVtPSF0pT1tDQEhdMU9bQ0BIXTJbQ0BIXShbT0hdKVtDSDJdW05IMitdW0NIMl1bQ0BASF0yW0NIMl1bT0hd

> <s_epik_cmdline>
J2VwaWtfYXBwJywgJy1pbWFlJywgJ2xpZ2FuZF9wcm8ubWFlJywgJy1vbWFlJywgJ2xpZ2FuZF9wcmVwLm1hZScsICctbXMnLCAnMScsICctcGgnLCAnNycsICctcGh0JywgJzAuNScsICctbnQn

> <r_lp_tautomer_probability>
1

> <r_epik_Ionization_Penalty>
  0.0080

> <r_epik_Ionization_Penalty_Charging>
  0.0080

> <r_epik_Ionization_Penalty_Neutral>
  0.0000

> <r_epik_State_Penalty>
 -0.0000

> <r_epik_Charging_Adjusted_Penalty>
0.00795629459225398

> <i_epik_Tot_Q>
1

> <i_epik_Tot_abs_Q>
1

> <s_epik_Chemistry_Notes>
This compound contains an acetal/aminal-like group ( X-CH(R)-Y where X, Y are N, S, or O) that may be acid/base labile, releasing an aldehyde.

$$$$
