2oyl_ligand
                    3D
 Schrodinger Suite 2020-3.
 48 50  0  0  1  0            999 V2000
   28.6580   59.0970  -26.4550 C   0  0  1  0  0  0
   29.6170   59.8630  -25.5440 C   0  0  1  0  0  0
   31.0650   59.6880  -26.0140 C   0  0  2  0  0  0
   31.4030   58.2110  -26.1100 C   0  0  1  0  0  0
   30.3640   57.4790  -26.9800 C   0  0  1  0  0  0
   30.6090   55.9670  -26.9480 C   0  0  0  0  0  0
   29.3000   61.2320  -25.5330 O   0  0  0  0  0  0
   31.9270   60.3160  -25.0700 O   0  0  0  0  0  0
   32.7210   58.0680  -26.6760 O   0  0  0  0  0  0
   29.0110   57.7000  -26.4710 O   0  0  0  0  0  0
   30.3900   55.4390  -25.6330 O   0  0  0  0  0  0
   24.1230   58.2290  -28.4830 C   0  0  0  0  0  0
   24.4830   57.1950  -27.3960 C   0  0  1  0  0  0
   25.3330   57.8290  -26.2930 C   0  0  2  0  0  0
   26.3640   58.7810  -26.8970 C   0  0  1  0  0  0
   25.5960   59.9910  -27.4510 C   0  0  1  0  0  0
   26.5310   61.0610  -28.0110 C   0  0  0  0  0  0
   23.3330   56.5350  -26.8220 O   0  0  0  0  0  0
   25.9930   56.7910  -25.5530 O   0  0  0  0  0  0
   27.3320   59.1620  -25.9120 O   0  0  0  0  0  0
   24.6780   59.5290  -28.5060 N   0  0  0  0  0  0
   27.3190   60.5550  -29.0880 O   0  0  0  0  0  0
   23.3520   58.1390  -29.5630 N   0  3  0  0  0  0
   23.3950   59.3050  -30.2150 C   0  0  0  0  0  0
   24.1950   60.1500  -29.5720 C   0  0  0  0  0  0
   28.6680   59.4999  -27.4785 H   0  0  0  0  0  0
   29.4861   59.5373  -24.5015 H   0  0  0  0  0  0
   31.2467   60.1819  -26.9799 H   0  0  0  0  0  0
   31.4471   57.7606  -25.1074 H   0  0  0  0  0  0
   30.4140   57.8837  -28.0016 H   0  0  0  0  0  0
   29.9210   55.4692  -27.6472 H   0  0  0  0  0  0
   31.6475   55.7575  -27.2439 H   0  0  0  0  0  0
   28.2978   61.5620  -25.2221 H   0  0  0  0  0  0
   31.8289   61.3926  -24.8668 H   0  0  0  0  0  0
   33.5861   58.5314  -26.1792 H   0  0  0  0  0  0
   30.5250   54.3641  -25.4424 H   0  0  0  0  0  0
   25.0242   56.3685  -27.8798 H   0  0  0  0  0  0
   24.7037   58.3678  -25.5694 H   0  0  0  0  0  0
   26.9845   58.3039  -27.6698 H   0  0  0  0  0  0
   25.0007   60.4475  -26.6465 H   0  0  0  0  0  0
   25.9370   61.9090  -28.3826 H   0  0  0  0  0  0
   27.2085   61.4080  -27.2169 H   0  0  0  0  0  0
   22.6101   56.0232  -27.4743 H   0  0  0  0  0  0
   25.4007   56.0135  -25.0483 H   0  0  0  0  0  0
   28.0424   61.2102  -29.5954 H   0  0  0  0  0  0
   22.8555   59.5293  -31.1352 H   0  0  0  0  0  0
   24.4152   61.1751  -29.8699 H   0  0  0  0  0  0
   22.8153   57.2035  -29.7792 H   0  0  0  0  0  0
  1  2  1  0  0  0
  1 10  1  0  0  0
  1 20  1  0  0  0
  1 26  1  0  0  0
  2  3  1  0  0  0
  2  7  1  0  0  0
  2 27  1  0  0  0
  3  4  1  0  0  0
  3  8  1  0  0  0
  3 28  1  0  0  0
  4  5  1  0  0  0
  4  9  1  0  0  0
  4 29  1  0  0  0
  5  6  1  0  0  0
  5 10  1  0  0  0
  5 30  1  0  0  0
  6 11  1  0  0  0
  6 31  1  0  0  0
  6 32  1  0  0  0
  7 33  1  0  0  0
  8 34  1  0  0  0
  9 35  1  0  0  0
 11 36  1  0  0  0
 12 13  1  0  0  0
 12 21  1  0  0  0
 12 23  2  0  0  0
 13 14  1  0  0  0
 13 18  1  0  0  0
 13 37  1  0  0  0
 14 15  1  0  0  0
 14 19  1  0  0  0
 14 38  1  0  0  0
 15 16  1  0  0  0
 15 20  1  0  0  0
 15 39  1  0  0  0
 16 17  1  0  0  0
 16 21  1  0  0  0
 16 40  1  0  0  0
 17 22  1  0  0  0
 17 41  1  0  0  0
 17 42  1  0  0  0
 18 43  1  0  0  0
 19 44  1  0  0  0
 21 25  1  0  0  0
 22 45  1  0  0  0
 23 24  1  0  0  0
 23 48  1  0  0  0
 24 25  2  0  0  0
 24 46  1  0  0  0
 25 47  1  0  0  0
M  CHG  1  23   1
M  END
> <s_m_source_file>
../2oyl_ligand.sdf

> <i_m_source_file_index>
1

> <s_epik_input>
W09IXVtDSDJdW0NAQEhdKE8xKVtDQEBIXShbT0hdKVtDQEhdKFtPSF0pW0NAQEhdKFtPSF0pW0NAQEhdMU9bQ0BASF0oW0NASF0oW09IXSlbQ0BIXTJbT0hdKVtDQEBIXShbQ0gyXVtPSF0pbihjMjMpW2NIXVtjSF1uMw==

> <s_epik_cmdline>
J2VwaWtfYXBwJywgJy1pbWFlJywgJ2xpZ2FuZF9wcm8ubWFlJywgJy1vbWFlJywgJ2xpZ2FuZF9wcmVwLm1hZScsICctbXMnLCAnMScsICctcGgnLCAnNycsICctcGh0JywgJzAuNScsICctbnQn

> <r_lp_tautomer_probability>
1

> <r_epik_Ionization_Penalty>
  0.2519

> <r_epik_Ionization_Penalty_Charging>
  0.0000

> <r_epik_Ionization_Penalty_Neutral>
  0.2519

> <r_epik_State_Penalty>
  0.2429

> <r_epik_Charging_Adjusted_Penalty>
0.242864884130158

> <i_epik_Tot_Q>
1

> <i_epik_Tot_abs_Q>
1

> <s_epik_Chemistry_Notes>
This compound contains an acetal/aminal-like group ( X-CH(R)-Y where X, Y are N, S, or O) that may be acid/base labile, releasing an aldehyde.

$$$$
