2oym_ligand
                    3D
 Schrodinger Suite 2020-3.
 46 47  0  0  1  0            999 V2000
   25.3250   58.5110  -32.7080 O   0  0  0  0  0  0
   24.6690   57.5440  -32.3470 C   0  0  0  0  0  0
   24.8110   56.2730  -33.1330 C   0  0  0  0  0  0
   24.1070   55.1120  -32.8110 C   0  0  0  0  0  0
   24.2660   53.9600  -33.5690 C   0  0  0  0  0  0
   25.1150   53.9530  -34.6800 C   0  0  0  0  0  0
   25.2750   52.8330  -35.4470 N   0  0  0  0  0  0
   26.1610   52.8410  -36.6020 C   0  0  0  0  0  0
   24.5750   51.6060  -35.1180 C   0  0  0  0  0  0
   25.8000   55.1190  -35.0010 C   0  0  0  0  0  0
   25.6530   56.2640  -34.2340 C   0  0  0  0  0  0
   23.9110   57.6250  -31.2440 N   0  0  0  0  0  0
   23.6830   58.8600  -30.5000 C   0  0  0  0  0  0
   24.1770   58.9690  -29.0740 C   0  0  1  0  0  0
   23.7900   57.8450  -28.2380 N   0  3  0  0  0  0
   24.9040   57.4260  -27.4190 C   0  0  2  0  0  0
   24.4910   57.0810  -25.9990 C   0  0  0  0  0  0
   23.4210   56.1360  -26.0670 O   0  0  0  0  0  0
   25.8960   58.5690  -27.5330 C   0  0  1  0  0  0
   27.2480   58.1760  -27.2870 O   0  0  0  0  0  0
   25.6790   59.0260  -28.9600 C   0  0  2  0  0  0
   26.2270   60.3270  -29.2000 O   0  0  0  0  0  0
   23.4277   55.1097  -31.9586 H   0  0  0  0  0  0
   23.7249   53.0540  -33.2961 H   0  0  0  0  0  0
   26.6103   53.8390  -36.7126 H   0  0  0  0  0  0
   25.5859   52.5955  -37.5070 H   0  0  0  0  0  0
   26.9563   52.0946  -36.4592 H   0  0  0  0  0  0
   23.9519   51.7673  -34.2260 H   0  0  0  0  0  0
   25.3063   50.8097  -34.9154 H   0  0  0  0  0  0
   23.9359   51.3106  -35.9632 H   0  0  0  0  0  0
   26.4614   55.1331  -35.8673 H   0  0  0  0  0  0
   26.2047   57.1659  -34.4991 H   0  0  0  0  0  0
   23.4478   56.6861  -30.9065 H   0  0  0  0  0  0
   24.1698   59.6973  -31.0214 H   0  0  0  0  0  0
   22.6020   59.0510  -30.4289 H   0  0  0  0  0  0
   23.6934   59.8848  -28.7033 H   0  0  0  0  0  0
   22.9557   58.1431  -27.5860 H   0  0  0  0  0  0
   23.4755   57.0053  -28.8751 H   0  0  0  0  0  0
   25.3197   56.4805  -27.7974 H   0  0  0  0  0  0
   25.3479   56.6465  -25.4633 H   0  0  0  0  0  0
   24.1595   57.9934  -25.4816 H   0  0  0  0  0  0
   22.9688   55.7496  -25.1417 H   0  0  0  0  0  0
   25.7928   59.3477  -26.7630 H   0  0  0  0  0  0
   27.5448   57.8217  -26.2888 H   0  0  0  0  0  0
   26.2120   58.4569  -29.7359 H   0  0  0  0  0  0
   26.1415   60.7845  -30.1967 H   0  0  0  0  0  0
  1  2  2  0  0  0
  2  3  1  0  0  0
  2 12  1  0  0  0
  3  4  2  0  0  0
  3 11  1  0  0  0
  4  5  1  0  0  0
  4 23  1  0  0  0
  5  6  2  0  0  0
  5 24  1  0  0  0
  6  7  1  0  0  0
  6 10  1  0  0  0
  7  8  1  0  0  0
  7  9  1  0  0  0
  8 25  1  0  0  0
  8 26  1  0  0  0
  8 27  1  0  0  0
  9 28  1  0  0  0
  9 29  1  0  0  0
  9 30  1  0  0  0
 10 11  2  0  0  0
 10 31  1  0  0  0
 11 32  1  0  0  0
 12 13  1  0  0  0
 12 33  1  0  0  0
 13 14  1  0  0  0
 13 34  1  0  0  0
 13 35  1  0  0  0
 14 15  1  0  0  0
 14 21  1  0  0  0
 14 36  1  0  0  0
 15 16  1  0  0  0
 15 37  1  0  0  0
 15 38  1  0  0  0
 16 17  1  0  0  0
 16 19  1  0  0  0
 16 39  1  0  0  0
 17 18  1  0  0  0
 17 40  1  0  0  0
 17 41  1  0  0  0
 18 42  1  0  0  0
 19 20  1  0  0  0
 19 21  1  0  0  0
 19 43  1  0  0  0
 20 44  1  0  0  0
 21 22  1  0  0  0
 21 45  1  0  0  0
 22 46  1  0  0  0
M  CHG  1  15   1
M  END
> <s_m_source_file>
../2oym_ligand.sdf

> <i_m_source_file_index>
1

> <s_epik_input>
W0NIM11OKFtDSDNdKWMoW2NIXVtjSF0xKVtjSF1bY0hdYzFDKD1PKVtOSF1bQ0gyXVtDQEhdMltOSDIrXVtDQEhdKFtDSDJdW09IXSlbQ0BASF0oW09IXSlbQ0BASF0yW09IXQ==

> <s_epik_cmdline>
J2VwaWtfYXBwJywgJy1pbWFlJywgJ2xpZ2FuZF9wcm8ubWFlJywgJy1vbWFlJywgJ2xpZ2FuZF9wcmVwLm1hZScsICctbXMnLCAnMScsICctcGgnLCAnNycsICctcGh0JywgJzAuNScsICctbnQn

> <r_epik_Ionization_Penalty>
  0.0258

> <r_epik_Ionization_Penalty_Charging>
  0.0252

> <r_epik_Ionization_Penalty_Neutral>
  0.0005

> <r_epik_State_Penalty>
  0.0205

> <r_epik_Charging_Adjusted_Penalty>
0.0457878108280886

> <i_epik_Tot_Q>
1

> <i_epik_Tot_abs_Q>
1

$$$$
