2oz6_ligand
                    3D
 Schrodinger Suite 2020-3.
 33 36  0  0  1  0            999 V2000
  -18.5870   37.0410   18.4140 P   0  0  1  0  0  0
  -19.2790   36.5250   19.6640 O   0  5  0  0  0  0
  -17.1720   37.4380   18.7670 O   0  0  0  0  0  0
  -18.6020   35.9310   17.3760 O   0  0  0  0  0  0
  -19.8690   35.4450   16.8650 C   0  0  0  0  0  0
  -20.3320   36.6780   16.0750 C   0  0  1  0  0  0
  -21.5990   36.5450   15.4320 O   0  0  0  0  0  0
  -20.4850   37.8420   17.0550 C   0  0  1  0  0  0
  -19.2520   38.1870   17.6800 O   0  0  0  0  0  0
  -21.3460   38.7740   16.2330 C   0  0  1  0  0  0
  -20.6900   39.4420   15.1900 O   0  0  0  0  0  0
  -22.3820   37.6060   15.9780 C   0  0  2  0  0  0
  -23.8250   37.7630   16.4750 N   0  0  0  0  0  0
  -24.8130   37.8910   15.4700 C   0  0  0  0  0  0
  -26.0460   38.0100   15.8910 N   0  0  0  0  0  0
  -25.8430   37.9590   17.2640 C   0  0  0  0  0  0
  -26.6740   38.0190   18.4160 C   0  0  0  0  0  0
  -27.9870   38.1500   18.3430 N   0  0  0  0  0  0
  -26.0180   37.9230   19.6510 N   0  0  0  0  0  0
  -24.6850   37.7810   19.8670 C   0  0  0  0  0  0
  -23.8590   37.7190   18.8110 N   0  0  0  0  0  0
  -24.5360   37.8160   17.6370 C   0  0  0  0  0  0
  -19.6960   34.5551   16.2420 H   0  0  0  0  0  0
  -20.5268   35.1813   17.7063 H   0  0  0  0  0  0
  -19.6266   36.8269   15.2442 H   0  0  0  0  0  0
  -20.9314   37.7459   18.0558 H   0  0  0  0  0  0
  -21.6801   39.7685   16.5636 H   0  0  0  0  0  0
  -19.9771   40.2487   15.4159 H   0  0  0  0  0  0
  -23.2035   37.0292   15.5279 H   0  0  0  0  0  0
  -24.5619   37.8905   14.4093 H   0  0  0  0  0  0
  -28.4787   38.2234   17.3618 H   0  0  0  0  0  0
  -28.5882   38.1857   19.2635 H   0  0  0  0  0  0
  -24.2921   37.7184   20.8818 H   0  0  0  0  0  0
  1  2  1  0  0  0
  1  3  2  0  0  0
  1  4  1  0  0  0
  1  9  1  0  0  0
  4  5  1  0  0  0
  5  6  1  0  0  0
  5 23  1  0  0  0
  5 24  1  0  0  0
  6  7  1  0  0  0
  6  8  1  0  0  0
  6 25  1  0  0  0
  7 12  1  0  0  0
  8  9  1  0  0  0
  8 10  1  0  0  0
  8 26  1  0  0  0
 10 11  1  0  0  0
 10 12  1  0  0  0
 10 27  1  0  0  0
 11 28  1  0  0  0
 12 13  1  0  0  0
 12 29  1  0  0  0
 13 14  1  0  0  0
 13 22  1  0  0  0
 14 15  2  0  0  0
 14 30  1  0  0  0
 15 16  1  0  0  0
 16 17  2  0  0  0
 16 22  1  0  0  0
 17 18  1  0  0  0
 17 19  1  0  0  0
 18 31  1  0  0  0
 18 32  1  0  0  0
 19 20  2  0  0  0
 20 21  1  0  0  0
 20 33  1  0  0  0
 21 22  2  0  0  0
M  CHG  1   2  -1
M  END
> <s_m_source_file>
../2oz6_ligand.sdf

> <i_m_source_file_index>
1

> <s_epik_input>
W0NIMl0xT1tQQF0oPU8pKFtPSF0pT1tDQEhdKFtDQEBIXTEyKVtDQEBIXShbT0hdKVtDSF0oTzIpbihbY0hdbjMpYyhjMzQpbltjSF1uYzRbTkgyXQ==

> <s_epik_cmdline>
J2VwaWtfYXBwJywgJy1pbWFlJywgJ2xpZ2FuZF9wcm8ubWFlJywgJy1vbWFlJywgJ2xpZ2FuZF9wcmVwLm1hZScsICctbXMnLCAnMScsICctcGgnLCAnNycsICctcGh0JywgJzAuNScsICctbnQn

> <r_lp_tautomer_probability>
1

> <r_epik_Ionization_Penalty>
  0.0008

> <r_epik_Ionization_Penalty_Charging>
  0.0002

> <r_epik_Ionization_Penalty_Neutral>
  0.0005

> <r_epik_State_Penalty>
 -0.0000

> <r_epik_Charging_Adjusted_Penalty>
0.000248221998699987

> <i_epik_Tot_Q>
-1

> <i_epik_Tot_abs_Q>
1

> <s_epik_Chemistry_Notes>
This compound contains an acetal/aminal-like group ( X-CH(R)-Y where X, Y are N, S, or O) that may be acid/base labile, releasing an aldehyde.

$$$$
