2oz7_ligand
                    3D
 Schrodinger Suite 2020-3.
 58 62  0  0  1  0            999 V2000
   25.3710    5.4860    4.3600 C   0  0  0  0  0  0
   27.7990    0.4200    3.9100 C   0  0  1  0  0  0
   26.0230    4.2600    4.4340 C   0  0  0  0  0  0
   25.2610    3.1080    4.6110 C   0  0  0  0  0  0
   29.5410    2.7440    3.9590 C   0  0  0  0  0  0
   25.8560    1.8540    4.7240 C   0  0  0  0  0  0
   27.3760    1.6800    4.6680 C   0  0  2  0  0  0
   28.0150    2.8790    3.9640 C   0  0  1  0  0  0
   27.5410    4.1740    4.6230 C   0  0  2  0  0  0
   29.9710    1.4620    3.2380 C   0  0  0  0  0  0
   29.3160    0.2570    3.9150 C   0  0  1  0  0  0
   26.0480    6.6800    4.1380 C   0  0  0  0  0  0
   27.7830    4.1280    6.1340 C   0  0  0  0  0  0
   28.3140    5.3730    4.0650 C   0  0  1  0  0  0
   27.9610    5.8950    2.6730 C   0  0  0  0  0  0
   27.5610    6.6960    3.9160 C   0  0  1  0  0  0
   25.4290    7.7430    4.1380 O   0  0  0  0  0  0
   23.5410    3.2460    4.7440 Cl  0  0  0  0  0  0
   29.8460    0.1050    5.3430 C   0  0  0  0  0  0
   27.3500   -0.9240    4.4870 C   0  0  0  0  0  0
   28.3530   -1.9110    3.8730 C   0  0  0  0  0  0
   29.3940   -1.0580    3.1380 C   0  0  2  0  0  0
   30.7950   -1.6720    3.1960 C   0  0  0  0  0  0
   31.1210   -2.7110    4.2700 C   0  0  0  0  0  0
   31.6470   -1.3520    2.3680 O   0  0  0  0  0  0
   28.9720   -0.8100    1.7920 O   0  0  0  0  0  0
   29.0160   -1.9120    0.9930 C   0  0  0  0  0  0
   28.6380   -1.7700   -0.4820 C   0  0  0  0  0  0
   29.3700   -3.0040    1.4370 O   0  0  0  0  0  0
   24.2786    5.5360    4.4788 H   0  0  0  0  0  0
   27.3284    0.6002    2.9322 H   0  0  0  0  0  0
   29.9838    3.6077    3.4413 H   0  0  0  0  0  0
   29.9094    2.7090    4.9949 H   0  0  0  0  0  0
   25.2310    0.9586    4.8570 H   0  0  0  0  0  0
   27.7157    1.5962    5.7109 H   0  0  0  0  0  0
   27.6951    2.9092    2.9120 H   0  0  0  0  0  0
   29.6550    1.5097    2.1855 H   0  0  0  0  0  0
   31.0654    1.3626    3.2881 H   0  0  0  0  0  0
   27.2396    3.2750    6.5666 H   0  0  0  0  0  0
   27.4238    5.0617    6.5914 H   0  0  0  0  0  0
   28.8595    4.0143    6.3296 H   0  0  0  0  0  0
   29.2464    5.0524    4.5528 H   0  0  0  0  0  0
   28.8835    6.0460    2.0932 H   0  0  0  0  0  0
   27.3203    5.1636    2.1587 H   0  0  0  0  0  0
   27.7303    7.7025    4.3261 H   0  0  0  0  0  0
   29.7726    1.0699    5.8660 H   0  0  0  0  0  0
   30.8977   -0.2159    5.3115 H   0  0  0  0  0  0
   29.2486   -0.6482    5.8776 H   0  0  0  0  0  0
   27.4072   -0.8891    5.5850 H   0  0  0  0  0  0
   26.3133   -1.1268    4.1801 H   0  0  0  0  0  0
   28.8200   -2.5043    4.6729 H   0  0  0  0  0  0
   27.8280   -2.5822    3.1774 H   0  0  0  0  0  0
   30.2408   -2.8633    4.9119 H   0  0  0  0  0  0
   31.9633   -2.3547    4.8812 H   0  0  0  0  0  0
   31.3933   -3.6622    3.7893 H   0  0  0  0  0  0
   28.3512   -0.7283   -0.6883 H   0  0  0  0  0  0
   27.7919   -2.4352   -0.7094 H   0  0  0  0  0  0
   29.4990   -2.0444   -1.1092 H   0  0  0  0  0  0
  1  3  2  0  0  0
  1 12  1  0  0  0
  1 30  1  0  0  0
  2  7  1  0  0  0
  2 11  1  0  0  0
  2 20  1  0  0  0
  2 31  1  0  0  0
  3  4  1  0  0  0
  3  9  1  0  0  0
  4  6  2  0  0  0
  4 18  1  0  0  0
  5  8  1  0  0  0
  5 10  1  0  0  0
  5 32  1  0  0  0
  5 33  1  0  0  0
  6  7  1  0  0  0
  6 34  1  0  0  0
  7  8  1  0  0  0
  7 35  1  0  0  0
  8  9  1  0  0  0
  8 36  1  0  0  0
  9 13  1  0  0  0
  9 14  1  0  0  0
 10 11  1  0  0  0
 10 37  1  0  0  0
 10 38  1  0  0  0
 11 19  1  0  0  0
 11 22  1  0  0  0
 12 16  1  0  0  0
 12 17  2  0  0  0
 13 39  1  0  0  0
 13 40  1  0  0  0
 13 41  1  0  0  0
 14 15  1  0  0  0
 14 16  1  0  0  0
 14 42  1  0  0  0
 15 16  1  0  0  0
 15 43  1  0  0  0
 15 44  1  0  0  0
 16 45  1  0  0  0
 19 46  1  0  0  0
 19 47  1  0  0  0
 19 48  1  0  0  0
 20 21  1  0  0  0
 20 49  1  0  0  0
 20 50  1  0  0  0
 21 22  1  0  0  0
 21 51  1  0  0  0
 21 52  1  0  0  0
 22 23  1  0  0  0
 22 26  1  0  0  0
 23 24  1  0  0  0
 23 25  2  0  0  0
 24 53  1  0  0  0
 24 54  1  0  0  0
 24 55  1  0  0  0
 26 27  1  0  0  0
 27 28  1  0  0  0
 27 29  2  0  0  0
 28 56  1  0  0  0
 28 57  1  0  0  0
 28 58  1  0  0  0
M  END
> <s_m_source_file>
../2oz7_ligand.sdf

> <i_m_source_file_index>
1

> <s_epik_input>
W0NIMl0xW0NASF0yW0NAQEhdMUMoPU8pW0NIXT1DKFtDQF0yM1tDSDNdKUMoQ2wpPVtDSF1bQ0BIXTRbQ0BIXTVbQ0BdKFtDSDNdKShbQ0gyXVtDSDJdW0NASF0zNClbQ0BdKFtDSDJdW0NIMl01KShDKD1PKVtDSDNdKU9DKD1PKVtDSDNd

> <s_epik_cmdline>
J2VwaWtfYXBwJywgJy1pbWFlJywgJ2xpZ2FuZF9wcm8ubWFlJywgJy1vbWFlJywgJ2xpZ2FuZF9wcmVwLm1hZScsICctbXMnLCAnMScsICctcGgnLCAnNycsICctcGh0JywgJzAuNScsICctbnQn

> <r_lp_tautomer_probability>
1

> <r_epik_Ionization_Penalty>
  0.0000

> <r_epik_Ionization_Penalty_Charging>
  0.0000

> <r_epik_Ionization_Penalty_Neutral>
  0.0000

> <r_epik_State_Penalty>
 -0.0000

> <r_epik_Charging_Adjusted_Penalty>
0

> <i_epik_Tot_Q>
0

> <i_epik_Tot_abs_Q>
0

> <s_epik_Chemistry_Notes>
This compound has an ester and may undergo hydrolysis at high or low pH.

$$$$
