2ozr_ligand
                    3D
 Schrodinger Suite 2020-3.
 51 54  0  0  1  0            999 V2000
    6.1160   33.5450    4.5750 N   0  0  0  0  0  0
    6.1860   34.0960    8.2370 C   0  0  0  0  0  0
    7.7950   34.5970    6.4920 C   0  0  0  0  0  0
    8.9640   34.5620    2.4830 C   0  0  0  0  0  0
   10.9690   35.5660    3.1060 C   0  0  0  0  0  0
    9.8190   35.0950    3.4560 C   0  0  0  0  0  0
    7.5120   30.5890   10.3940 C   0  0  0  0  0  0
    6.2830   30.5700    9.7150 C   0  0  0  0  0  0
    5.8520   31.6960    9.0150 C   0  0  0  0  0  0
    7.8680   32.8640    9.6630 C   0  0  0  0  0  0
   14.4830   35.7010    2.7490 C   0  0  0  0  0  0
    6.6460   32.8480    8.9840 C   0  0  0  0  0  0
    8.1820   34.5870    5.1560 C   0  0  0  0  0  0
    7.9870   29.3910   11.1770 C   0  0  0  0  0  0
   12.0110   35.9830    2.7280 C   0  0  0  0  0  0
    7.4800   28.2920   11.0400 O   0  0  0  0  0  0
    8.9370   29.5240   12.0910 O   0  5  0  0  0  0
    8.3010   31.7410   10.3620 C   0  0  0  0  0  0
    6.5980   34.0880    6.8290 N   0  0  0  0  0  0
    8.5420   35.0730    7.3830 O   0  0  0  0  0  0
    7.3160   34.0460    4.1890 C   0  0  0  0  0  0
    7.7200   34.0350    2.8500 C   0  0  0  0  0  0
    5.1560   32.9630    3.6320 C   0  0  0  0  0  0
    5.7710   33.5720    5.8840 C   0  0  0  0  0  0
    4.6600   33.1010    6.2280 O   0  0  0  0  0  0
    9.4310   35.0980    4.7890 C   0  0  0  0  0  0
   13.2950   36.4940    2.2150 C   0  0  0  0  0  0
   15.7490   35.8910    2.1860 C   0  0  0  0  0  0
   16.8560   35.1940    2.6630 C   0  0  0  0  0  0
   14.3380   34.8000    3.8060 C   0  0  0  0  0  0
   15.4400   34.0940    4.2910 C   0  0  0  0  0  0
   16.7020   34.2930    3.7180 C   0  0  0  0  0  0
    5.0883   34.1590    8.2695 H   0  0  0  0  0  0
    6.6188   34.9884    8.7127 H   0  0  0  0  0  0
    9.2683   34.5575    1.4363 H   0  0  0  0  0  0
    5.6645   29.6727    9.7353 H   0  0  0  0  0  0
    4.8961   31.6791    8.4916 H   0  0  0  0  0  0
    8.4857   33.7619    9.6449 H   0  0  0  0  0  0
    9.2571   31.7606   10.8851 H   0  0  0  0  0  0
    7.0632   33.6141    2.0887 H   0  0  0  0  0  0
    5.5687   33.0091    2.6134 H   0  0  0  0  0  0
    4.2137   33.5291    3.6719 H   0  0  0  0  0  0
    4.9654   31.9142    3.9033 H   0  0  0  0  0  0
   10.1004   35.4989    5.5501 H   0  0  0  0  0  0
   13.3905   37.5468    2.5190 H   0  0  0  0  0  0
   13.2750   36.4298    1.1171 H   0  0  0  0  0  0
   15.8708   36.5945    1.3624 H   0  0  0  0  0  0
   17.8373   35.3510    2.2151 H   0  0  0  0  0  0
   13.3569   34.6469    4.2556 H   0  0  0  0  0  0
   15.3185   33.3895    5.1138 H   0  0  0  0  0  0
   17.5646   33.7441    4.0959 H   0  0  0  0  0  0
  1 21  1  0  0  0
  1 23  1  0  0  0
  1 24  1  0  0  0
  2 12  1  0  0  0
  2 19  1  0  0  0
  2 33  1  0  0  0
  2 34  1  0  0  0
  3 13  1  0  0  0
  3 19  1  0  0  0
  3 20  2  0  0  0
  4  6  1  0  0  0
  4 22  2  0  0  0
  4 35  1  0  0  0
  5  6  1  0  0  0
  5 15  3  0  0  0
  6 26  2  0  0  0
  7  8  2  0  0  0
  7 14  1  0  0  0
  7 18  1  0  0  0
  8  9  1  0  0  0
  8 36  1  0  0  0
  9 12  2  0  0  0
  9 37  1  0  0  0
 10 12  1  0  0  0
 10 18  2  0  0  0
 10 38  1  0  0  0
 11 27  1  0  0  0
 11 28  2  0  0  0
 11 30  1  0  0  0
 13 21  2  0  0  0
 13 26  1  0  0  0
 14 16  2  0  0  0
 14 17  1  0  0  0
 15 27  1  0  0  0
 18 39  1  0  0  0
 19 24  1  0  0  0
 21 22  1  0  0  0
 22 40  1  0  0  0
 23 41  1  0  0  0
 23 42  1  0  0  0
 23 43  1  0  0  0
 24 25  2  0  0  0
 26 44  1  0  0  0
 27 45  1  0  0  0
 27 46  1  0  0  0
 28 29  1  0  0  0
 28 47  1  0  0  0
 29 32  2  0  0  0
 29 48  1  0  0  0
 30 31  2  0  0  0
 30 49  1  0  0  0
 31 32  1  0  0  0
 31 50  1  0  0  0
 32 51  1  0  0  0
M  CHG  1  17  -1
M  END
> <s_m_source_file>
../2ozr_ligand.sdf

> <i_m_source_file_index>
1

> <s_epik_input>
Tz1DKFtPSF0pYzFbY0hdW2NIXWMoW2NIXVtjSF0xKVtDSDJdbihjMj1PKWMoPU8pbihbQ0gzXSljKGMyMylbY0hdW2NIXWMoW2NIXTMpQyNDW0NIMl1jNFtjSF1bY0hdW2NIXVtjSF1bY0hdNA==

> <s_epik_cmdline>
J2VwaWtfYXBwJywgJy1pbWFlJywgJ2xpZ2FuZF9wcm8ubWFlJywgJy1vbWFlJywgJ2xpZ2FuZF9wcmVwLm1hZScsICctbXMnLCAnMScsICctcGgnLCAnNycsICctcGh0JywgJzAuNScsICctbnQn

> <r_lp_tautomer_probability>
1

> <r_epik_Ionization_Penalty>
  0.0012

> <r_epik_Ionization_Penalty_Charging>
  0.0012

> <r_epik_Ionization_Penalty_Neutral>
  0.0000

> <r_epik_State_Penalty>
 -0.0000

> <r_epik_Charging_Adjusted_Penalty>
0.00116507974520005

> <i_epik_Tot_Q>
-1

> <i_epik_Tot_abs_Q>
1

$$$$
