2p09_ligand
                    3D
 Schrodinger Suite 2020-3.
 43 45  0  0  1  0            999 V2000
   -3.2400   26.0270   20.6140 P   0  0  0  0  0  0
   -3.5630   25.4860   22.0040 O   0  5  0  0  0  0
   -3.8050   25.1340   19.5150 O   0  0  0  0  0  0
   -3.5840   27.5050   20.4060 O   0  5  0  0  0  0
   -0.7210   25.7520   19.1450 P   0  0  2  0  0  0
   -1.6470   25.3820   17.9860 O   0  0  0  0  0  0
    0.4760   24.8390   19.5070 O   0  5  0  0  0  0
   -1.5900   25.9870   20.5070 O   0  0  0  0  0  0
   -0.2770   28.6810   19.1860 P   0  0  1  0  0  0
   -1.7430   29.0980   19.4140 O   0  5  0  0  0  0
    0.6920   28.9140   20.3340 O   0  0  0  0  0  0
   -0.0910   27.1800   18.6420 O   0  0  0  0  0  0
    1.5790   33.1250   16.7850 N   0  0  0  0  0  0
    0.6150   33.2490   17.7370 C   0  0  0  0  0  0
    0.7750   34.4250   18.4050 N   0  0  0  0  0  0
    1.8340   35.0600   17.8760 C   0  0  0  0  0  0
    2.5310   36.3250   18.1300 C   0  0  0  0  0  0
    2.1010   37.1530   19.1260 N   0  0  0  0  0  0
    3.6300   36.6300   17.3590 N   0  0  0  0  0  0
    4.0480   35.7750   16.3690 C   0  0  0  0  0  0
    3.4490   34.5930   16.0920 N   0  0  0  0  0  0
    2.3640   34.1890   16.7960 C   0  0  0  0  0  0
    0.2570   29.4780   17.9420 O   0  0  0  0  0  0
   -0.3620   29.3290   16.6370 C   0  0  0  0  0  0
    0.5290   29.9810   15.5690 C   0  0  1  0  0  0
    0.4590   31.4100   15.6640 O   0  0  0  0  0  0
    2.0060   29.6410   15.6620 C   0  0  1  0  0  0
    2.5910   29.7290   14.3410 O   0  0  0  0  0  0
    2.5420   30.8290   16.4810 C   0  0  1  0  0  0
    3.9230   31.0820   16.3450 O   0  0  0  0  0  0
    1.7420   31.9900   15.8340 C   0  0  2  0  0  0
   -0.1679   32.5170   17.9353 H   0  0  0  0  0  0
    1.2192   36.8813   19.7248 H   0  0  0  0  0  0
    2.6362   38.0921   19.3300 H   0  0  0  0  0  0
    4.9123   36.0649   15.7715 H   0  0  0  0  0  0
   -0.4843   28.2598   16.4091 H   0  0  0  0  0  0
   -1.3473   29.8181   16.6405 H   0  0  0  0  0  0
    0.1311   29.6440   14.6004 H   0  0  0  0  0  0
    2.2287   28.6301   16.0342 H   0  0  0  0  0  0
    2.3456   28.9742   13.5794 H   0  0  0  0  0  0
    2.5114   30.6754   17.5698 H   0  0  0  0  0  0
    4.6554   30.3654   16.7451 H   0  0  0  0  0  0
    2.1649   32.3867   14.8992 H   0  0  0  0  0  0
  1  2  1  0  0  0
  1  3  2  0  0  0
  1  4  1  0  0  0
  1  8  1  0  0  0
  5  6  2  0  0  0
  5  7  1  0  0  0
  5  8  1  0  0  0
  5 12  1  0  0  0
  9 10  1  0  0  0
  9 11  2  0  0  0
  9 12  1  0  0  0
  9 23  1  0  0  0
 13 14  1  0  0  0
 13 22  1  0  0  0
 13 31  1  0  0  0
 14 15  2  0  0  0
 14 32  1  0  0  0
 15 16  1  0  0  0
 16 17  2  0  0  0
 16 22  1  0  0  0
 17 18  1  0  0  0
 17 19  1  0  0  0
 18 33  1  0  0  0
 18 34  1  0  0  0
 19 20  2  0  0  0
 20 21  1  0  0  0
 20 35  1  0  0  0
 21 22  2  0  0  0
 23 24  1  0  0  0
 24 25  1  0  0  0
 24 36  1  0  0  0
 24 37  1  0  0  0
 25 26  1  0  0  0
 25 27  1  0  0  0
 25 38  1  0  0  0
 26 31  1  0  0  0
 27 28  1  0  0  0
 27 29  1  0  0  0
 27 39  1  0  0  0
 28 40  1  0  0  0
 29 30  1  0  0  0
 29 31  1  0  0  0
 29 41  1  0  0  0
 30 42  1  0  0  0
 31 43  1  0  0  0
M  CHG  4   2  -1   4  -1   7  -1  10  -1
M  END
> <s_m_source_file>
../2p09_ligand.sdf

> <i_m_source_file_index>
1

> <s_epik_input>
W09IXVAoPU8pKFtPSF0pT1tQQF0oPU8pKFtPSF0pT1tQQF0oPU8pKFtPSF0pT1tDSDJdW0NASF0xT1tDQEhdKFtDQEhdKFtPSF0pW0NAQEhdMVtPSF0pbihbY0hdbjIpYyhjMjMpbltjSF1uYzNbTkgyXQ==

> <s_epik_cmdline>
J2VwaWtfYXBwJywgJy1pbWFlJywgJ2xpZ2FuZF9wcm8ubWFlJywgJy1vbWFlJywgJ2xpZ2FuZF9wcmVwLm1hZScsICctbXMnLCAnMScsICctcGgnLCAnNycsICctcGh0JywgJzAuNScsICctbnQn

> <r_lp_tautomer_probability>
0.999997216410988

> <r_epik_Ionization_Penalty>
  0.0818

> <r_epik_Ionization_Penalty_Charging>
  0.0813

> <r_epik_Ionization_Penalty_Neutral>
  0.0004

> <r_epik_State_Penalty>
  0.0708

> <r_epik_Charging_Adjusted_Penalty>
0.152157994418768

> <i_epik_Tot_Q>
-4

> <i_epik_Tot_abs_Q>
4

> <s_epik_Chemistry_Notes>
This compound contains an acetal/aminal-like group ( X-CH(R)-Y where X, Y are N, S, or O) that may be acid/base labile, releasing an aldehyde.

$$$$
