2p0d_ligand
                    3D
 Schrodinger Suite 2020-3.
 33 33  0  0  1  0            999 V2000
   -9.0730  -16.6550   -0.5780 C   0  0  2  0  0  0
   -8.7130  -16.6340   -2.0400 C   0  0  1  0  0  0
   -7.2130  -16.8260   -2.2070 C   0  0  1  0  0  0
   -6.8070  -18.1640   -1.5160 C   0  0  2  0  0  0
   -7.2310  -18.2050   -0.0530 C   0  0  1  0  0  0
   -8.7530  -17.9900    0.1300 C   0  0  1  0  0  0
  -10.4510  -16.3270   -0.5670 O   0  0  0  0  0  0
   -9.4580  -17.6610   -2.7340 O   0  0  0  0  0  0
   -6.9170  -16.9390   -3.6070 O   0  0  0  0  0  0
   -5.3610  -18.3370   -1.6240 O   0  0  0  0  0  0
   -6.8640  -19.4350    0.5490 O   0  0  0  0  0  0
   -8.9780  -17.7550    1.5090 O   0  0  0  0  0  0
  -10.9500  -14.8550   -0.1500 P   0  0  0  0  0  0
  -10.4100  -14.4330    1.1600 O   0  0  0  0  0  0
  -12.4770  -15.0820    0.0030 O   0  5  0  0  0  0
  -10.6150  -14.0910   -1.4030 O   0  5  0  0  0  0
   -4.6010  -19.1520   -2.7680 P   0  0  0  0  0  0
   -4.8830  -20.6170   -2.6710 O   0  0  0  0  0  0
   -5.0410  -18.6300   -4.1030 O   0  5  0  0  0  0
   -3.1610  -18.8100   -2.4500 O   0  5  0  0  0  0
   -6.2130  -19.5690    2.0030 P   0  0  0  0  0  0
   -6.1900  -21.0690    2.1610 O   0  5  0  0  0  0
   -7.0920  -18.8590    2.9830 O   0  0  0  0  0  0
   -4.8660  -18.9000    1.9170 O   0  5  0  0  0  0
   -8.5316  -15.8903   -0.0017 H   0  0  0  0  0  0
   -9.0161  -15.6825   -2.5012 H   0  0  0  0  0  0
   -6.6596  -15.9528   -1.8311 H   0  0  0  0  0  0
   -7.2764  -19.0205   -2.0220 H   0  0  0  0  0  0
   -6.6541  -17.4363    0.4821 H   0  0  0  0  0  0
   -9.3705  -18.8465   -0.1784 H   0  0  0  0  0  0
  -10.5576  -17.6567   -2.7060 H   0  0  0  0  0  0
   -7.1288  -16.0979   -4.2836 H   0  0  0  0  0  0
   -9.9988  -17.5740    1.8767 H   0  0  0  0  0  0
  1  2  1  0  0  0
  1  6  1  0  0  0
  1  7  1  0  0  0
  1 25  1  0  0  0
  2  3  1  0  0  0
  2  8  1  0  0  0
  2 26  1  0  0  0
  3  4  1  0  0  0
  3  9  1  0  0  0
  3 27  1  0  0  0
  4  5  1  0  0  0
  4 10  1  0  0  0
  4 28  1  0  0  0
  5  6  1  0  0  0
  5 11  1  0  0  0
  5 29  1  0  0  0
  6 12  1  0  0  0
  6 30  1  0  0  0
  7 13  1  0  0  0
  8 31  1  0  0  0
  9 32  1  0  0  0
 10 17  1  0  0  0
 11 21  1  0  0  0
 12 33  1  0  0  0
 13 14  2  0  0  0
 13 15  1  0  0  0
 13 16  1  0  0  0
 17 18  2  0  0  0
 17 19  1  0  0  0
 17 20  1  0  0  0
 21 22  1  0  0  0
 21 23  2  0  0  0
 21 24  1  0  0  0
M  CHG  6  15  -1  16  -1  19  -1  20  -1  22  -1  24  -1
M  END
> <s_m_source_file>
../2p0d_ligand.sdf

> <i_m_source_file_index>
1

> <s_epik_input>
Tz1QKFtPSF0pKFtPSF0pT1tDQEBIXTFbQ0BIXShbT0hdKVtDQEhdKFtPSF0pW0NAQEhdKE9QKD1PKShbT0hdKVtPSF0pW0NAQEhdKFtDQEhdMVtPSF0pT1AoPU8pKFtPSF0pW09IXQ==

> <s_epik_cmdline>
J2VwaWtfYXBwJywgJy1pbWFlJywgJ2xpZ2FuZF9wcm8ubWFlJywgJy1vbWFlJywgJ2xpZ2FuZF9wcmVwLm1hZScsICctbXMnLCAnMScsICctcGgnLCAnNycsICctcGh0JywgJzAuNScsICctbnQn

> <r_epik_Ionization_Penalty>
  0.3495

> <r_epik_Ionization_Penalty_Charging>
  0.3495

> <r_epik_Ionization_Penalty_Neutral>
  0.0000

> <r_epik_State_Penalty>
  0.1949

> <r_epik_Charging_Adjusted_Penalty>
0.544395994108791

> <i_epik_Tot_Q>
-6

> <i_epik_Tot_abs_Q>
6

$$$$
