2p0x_ligand
                    3D
 Schrodinger Suite 2020-3.
 43 45  0  0  1  0            999 V2000
    1.6760    0.0200   12.4610 P   0  0  0  0  0  0
    0.8670   -0.7850   13.4040 O   0  0  0  0  0  0
    3.1870    0.1240   13.0090 O   0  5  0  0  0  0
    1.0460    1.4930   12.3210 O   0  5  0  0  0  0
    0.1710   -0.6460   10.4630 P   0  0  1  0  0  0
   -0.7800   -0.6640   11.5980 O   0  0  0  0  0  0
   -0.0490    0.6970    9.6020 O   0  5  0  0  0  0
    1.6820   -0.6980   11.0170 O   0  0  0  0  0  0
    0.9450   -1.8340    8.3000 P   0  0  2  0  0  0
    2.2920   -1.4980    8.8120 O   0  0  0  0  0  0
    0.4670   -0.6930    7.2640 O   0  5  0  0  0  0
   -0.0960   -1.9260    9.5240 O   0  0  0  0  0  0
    1.0010   -3.2570    7.5440 O   0  0  0  0  0  0
    1.5460   -3.0220    6.2440 C   0  0  0  0  0  0
    2.6690   -4.0270    5.9720 C   0  0  1  0  0  0
    2.1470   -5.2560    5.4020 O   0  0  0  0  0  0
    3.6810   -3.4820    4.9590 C   0  0  1  0  0  0
    5.0050   -3.9330    5.2640 O   0  0  0  0  0  0
    3.1810   -4.0000    3.6060 C   0  0  1  0  0  0
    4.2710   -4.4540    2.7980 O   0  0  0  0  0  0
    2.1900   -5.1360    3.9460 C   0  0  2  0  0  0
    0.8560   -4.8190    3.4240 N   0  0  0  0  0  0
   -0.2540   -4.5370    4.1700 C   0  0  0  0  0  0
   -1.2330   -4.1720    3.3940 N   0  0  0  0  0  0
   -0.8720   -4.3700    2.1070 C   0  0  0  0  0  0
   -1.5180   -4.2780    0.8480 C   0  0  0  0  0  0
   -2.8790   -4.0440    0.7750 N   0  0  0  0  0  0
   -0.7800   -4.4220   -0.2830 N   0  0  0  0  0  0
    0.4930   -4.8370   -0.2470 C   0  0  0  0  0  0
    1.1230   -4.9850    0.9200 N   0  0  0  0  0  0
    0.4920   -4.7580    2.1020 C   0  0  0  0  0  0
    0.7559   -3.1416    5.4881 H   0  0  0  0  0  0
    1.9489   -1.9996    6.1946 H   0  0  0  0  0  0
    3.1361   -4.2639    6.9393 H   0  0  0  0  0  0
    3.8165   -2.3907    4.9842 H   0  0  0  0  0  0
    5.4845   -3.6331    6.2075 H   0  0  0  0  0  0
    2.7457   -3.2210    2.9629 H   0  0  0  0  0  0
    5.0526   -3.7476    2.4815 H   0  0  0  0  0  0
    2.4713   -6.1074    3.5132 H   0  0  0  0  0  0
   -0.3110   -4.6075    5.2562 H   0  0  0  0  0  0
   -3.4675   -3.9289    1.6972 H   0  0  0  0  0  0
   -3.3731   -3.9730   -0.2052 H   0  0  0  0  0  0
    1.0178   -5.0553   -1.1771 H   0  0  0  0  0  0
  1  2  2  0  0  0
  1  3  1  0  0  0
  1  4  1  0  0  0
  1  8  1  0  0  0
  5  6  2  0  0  0
  5  7  1  0  0  0
  5  8  1  0  0  0
  5 12  1  0  0  0
  9 10  2  0  0  0
  9 11  1  0  0  0
  9 12  1  0  0  0
  9 13  1  0  0  0
 13 14  1  0  0  0
 14 15  1  0  0  0
 14 32  1  0  0  0
 14 33  1  0  0  0
 15 16  1  0  0  0
 15 17  1  0  0  0
 15 34  1  0  0  0
 16 21  1  0  0  0
 17 18  1  0  0  0
 17 19  1  0  0  0
 17 35  1  0  0  0
 18 36  1  0  0  0
 19 20  1  0  0  0
 19 21  1  0  0  0
 19 37  1  0  0  0
 20 38  1  0  0  0
 21 22  1  0  0  0
 21 39  1  0  0  0
 22 23  1  0  0  0
 22 31  1  0  0  0
 23 24  2  0  0  0
 23 40  1  0  0  0
 24 25  1  0  0  0
 25 26  2  0  0  0
 25 31  1  0  0  0
 26 27  1  0  0  0
 26 28  1  0  0  0
 27 41  1  0  0  0
 27 42  1  0  0  0
 28 29  2  0  0  0
 29 30  1  0  0  0
 29 43  1  0  0  0
 30 31  2  0  0  0
M  CHG  4   3  -1   4  -1   7  -1  11  -1
M  END
> <s_m_source_file>
../2p0x_ligand.sdf

> <i_m_source_file_index>
1

> <s_epik_input>
Tz1QKFtPSF0pKFtPSF0pT1tQQEBdKD1PKShbT0hdKU9bUEBdKD1PKShbT0hdKU9bQ0gyXVtDQEhdMU9bQ0BIXShbQ0BIXShbT0hdKVtDQEBIXTFbT0hdKW4oW2NIXW4yKWMoYzIzKW5bY0hdbmMzW05IMl0=

> <s_epik_cmdline>
J2VwaWtfYXBwJywgJy1pbWFlJywgJ2xpZ2FuZF9wcm8ubWFlJywgJy1vbWFlJywgJ2xpZ2FuZF9wcmVwLm1hZScsICctbXMnLCAnMScsICctcGgnLCAnNycsICctcGh0JywgJzAuNScsICctbnQn

> <r_lp_tautomer_probability>
0.999997216410988

> <r_epik_Ionization_Penalty>
  0.0818

> <r_epik_Ionization_Penalty_Charging>
  0.0813

> <r_epik_Ionization_Penalty_Neutral>
  0.0004

> <r_epik_State_Penalty>
  0.0708

> <r_epik_Charging_Adjusted_Penalty>
0.152157994418768

> <i_epik_Tot_Q>
-4

> <i_epik_Tot_abs_Q>
4

> <s_epik_Chemistry_Notes>
This compound contains an acetal/aminal-like group ( X-CH(R)-Y where X, Y are N, S, or O) that may be acid/base labile, releasing an aldehyde.

$$$$
