2p1c_ligand
                    3D
 Schrodinger Suite 2020-3.
 47 47  0  0  1  0            999 V2000
   70.2990   36.9170    0.6930 C   0  0  0  0  0  0
   71.4470   37.7870   -1.2770 C   0  0  0  0  0  0
   70.8280   35.8090    1.6510 C   0  0  0  0  0  0
   71.4490   34.6920    0.7790 C   0  0  2  0  0  0
   71.2690   32.7360    2.7170 O   0  5  0  0  0  0
   70.8370   33.0770    1.3150 P   0  0  0  0  0  0
   71.3170   32.1430    0.2630 O   0  0  0  0  0  0
   69.3140   33.2720    1.2510 O   0  5  0  0  0  0
   73.2990   34.7380    0.8190 P   0  0  0  0  0  0
   73.6200   34.3700    2.2510 O   0  5  0  0  0  0
   73.8220   33.6220   -0.0860 O   0  0  0  0  0  0
   73.6200   36.1430    0.3890 O   0  0  0  0  0  0
   70.9320   34.8000   -0.5820 O   0  0  0  0  0  0
   71.3710   37.8260    0.2190 N   0  3  1  0  0  0
   71.1500   39.1790    0.7560 C   0  0  0  0  0  0
   70.7410   38.8750   -2.0820 C   0  0  0  0  0  0
   71.0090   38.5320   -3.5370 C   0  0  0  0  0  0
   71.2980   39.8110   -4.2670 C   0  0  0  0  0  0
   71.5740   39.6100   -5.7500 C   0  0  0  0  0  0
   71.8720   40.7690   -6.5220 C   0  0  0  0  0  0
   72.1240   40.6580   -7.9130 C   0  0  0  0  0  0
   72.0840   39.3800   -8.5300 C   0  0  0  0  0  0
   71.7990   38.2190   -7.7700 C   0  0  0  0  0  0
   71.5500   38.3180   -6.3830 C   0  0  0  0  0  0
   69.8398   36.4493   -0.1904 H   0  0  0  0  0  0
   69.5483   37.5269    1.2169 H   0  0  0  0  0  0
   72.4990   37.8490   -1.5924 H   0  0  0  0  0  0
   71.0097   36.8460   -1.6420 H   0  0  0  0  0  0
   71.5867   36.2368    2.3228 H   0  0  0  0  0  0
   69.9937   35.4104    2.2468 H   0  0  0  0  0  0
   73.6243   32.5701    0.1677 H   0  0  0  0  0  0
   69.8467   34.7869   -0.7607 H   0  0  0  0  0  0
   72.3473   37.5011    0.6081 H   0  0  0  0  0  0
   71.1048   39.1347    1.8542 H   0  0  0  0  0  0
   70.2021   39.5781    0.3657 H   0  0  0  0  0  0
   71.9780   39.8350    0.4493 H   0  0  0  0  0  0
   69.6648   38.8592   -1.8548 H   0  0  0  0  0  0
   71.1577   39.8574   -1.8151 H   0  0  0  0  0  0
   71.8727   37.8538   -3.6007 H   0  0  0  0  0  0
   70.1240   38.0400   -3.9668 H   0  0  0  0  0  0
   70.4339   40.4862   -4.1799 H   0  0  0  0  0  0
   72.1846   40.2916   -3.8278 H   0  0  0  0  0  0
   71.9066   41.7466   -6.0411 H   0  0  0  0  0  0
   72.3466   41.5466   -8.5037 H   0  0  0  0  0  0
   72.2746   39.2912   -9.5995 H   0  0  0  0  0  0
   71.7717   37.2446   -8.2578 H   0  0  0  0  0  0
   71.3414   37.4229   -5.7970 H   0  0  0  0  0  0
  1  3  1  0  0  0
  1 14  1  0  0  0
  1 25  1  0  0  0
  1 26  1  0  0  0
  2 14  1  0  0  0
  2 16  1  0  0  0
  2 27  1  0  0  0
  2 28  1  0  0  0
  3  4  1  0  0  0
  3 29  1  0  0  0
  3 30  1  0  0  0
  4  6  1  0  0  0
  4  9  1  0  0  0
  4 13  1  0  0  0
  5  6  1  0  0  0
  6  7  2  0  0  0
  6  8  1  0  0  0
  9 10  1  0  0  0
  9 11  1  0  0  0
  9 12  2  0  0  0
 11 31  1  0  0  0
 13 32  1  0  0  0
 14 15  1  0  0  0
 14 33  1  0  0  0
 15 34  1  0  0  0
 15 35  1  0  0  0
 15 36  1  0  0  0
 16 17  1  0  0  0
 16 37  1  0  0  0
 16 38  1  0  0  0
 17 18  1  0  0  0
 17 39  1  0  0  0
 17 40  1  0  0  0
 18 19  1  0  0  0
 18 41  1  0  0  0
 18 42  1  0  0  0
 19 20  2  0  0  0
 19 24  1  0  0  0
 20 21  1  0  0  0
 20 43  1  0  0  0
 21 22  2  0  0  0
 21 44  1  0  0  0
 22 23  1  0  0  0
 22 45  1  0  0  0
 23 24  2  0  0  0
 23 46  1  0  0  0
 24 47  1  0  0  0
M  CHG  4   5  -1   8  -1  10  -1  14   1
M  END
> <s_m_source_file>
../2p1c_ligand.sdf

> <i_m_source_file_index>
1

> <s_epik_input>
W09IXVAoPU8pKFtPSF0pQyhbT0hdKShQKD1PKShbT0hdKVtPSF0pW0NIMl1bQ0gyXVtOQEgrXShbQ0gzXSlbQ0gyXVtDSDJdW0NIMl1bQ0gyXWMxW2NIXVtjSF1bY0hdW2NIXVtjSF0x

> <s_epik_cmdline>
J2VwaWtfYXBwJywgJy1pbWFlJywgJ2xpZ2FuZF9wcm8ubWFlJywgJy1vbWFlJywgJ2xpZ2FuZF9wcmVwLm1hZScsICctbXMnLCAnMScsICctcGgnLCAnNycsICctcGh0JywgJzAuNScsICctbnQn

> <r_lp_tautomer_probability>
1

> <r_epik_Ionization_Penalty>
  0.1197

> <r_epik_Ionization_Penalty_Charging>
  0.1197

> <r_epik_Ionization_Penalty_Neutral>
  0.0001

> <r_epik_State_Penalty>
 -0.0000

> <r_epik_Charging_Adjusted_Penalty>
0.119654106930602

> <i_epik_Tot_Q>
-2

> <i_epik_Tot_abs_Q>
4

$$$$
