2p2a_ligand
                    3D
 Schrodinger Suite 2020-3.
 37 39  0  0  1  0            999 V2000
    6.2430   24.4950   21.1910 C   0  0  0  0  0  0
    6.7110   24.7570   22.4500 C   0  0  0  0  0  0
    5.9630   24.1250   23.3920 O   0  0  0  0  0  0
    4.9180   23.4280   22.7300 N   0  0  0  0  0  0
    5.1460   23.6150   21.4410 C   0  0  0  0  0  0
    7.8360   25.5560   22.9010 C   0  0  0  0  0  0
    8.1300   25.8590   24.1860 N   0  0  0  0  0  0
    9.2230   26.5970   24.1300 N   0  0  0  0  0  0
    9.5500   26.7160   22.8530 N   0  0  3  0  0  0
    8.7220   26.0880   22.0520 N   0  0  0  0  0  0
   10.7240   27.4720   22.3690 C   0  0  0  0  0  0
   12.8200   29.6790   25.5030 C   0  0  0  0  0  0
   11.8710   30.3410   24.6690 C   0  0  0  0  0  0
   11.1880   29.6200   23.6480 C   0  0  0  0  0  0
   11.4470   28.2360   23.4550 C   0  0  0  0  0  0
   12.3950   27.5720   24.2900 C   0  0  0  0  0  0
   13.0830   28.2930   25.3120 C   0  0  0  0  0  0
    4.4410   23.0420   20.4570 O   0  5  0  0  0  0
    6.7410   24.9690   19.8580 C   0  0  0  0  0  0
    7.6010   23.9450   19.0990 C   0  0  1  0  0  0
    7.2410   23.8810   17.5740 C   0  0  0  0  0  0
    8.1980   24.0330   16.7720 O   0  5  0  0  0  0
    6.0330   23.6970   17.3110 O   0  0  0  0  0  0
    9.0810   24.2760   19.2250 N   0  3  0  0  0  0
   11.4488   26.7763   21.9210 H   0  0  0  0  0  0
   10.4028   28.2038   21.6132 H   0  0  0  0  0  0
   13.3420   30.2323   26.2837 H   0  0  0  0  0  0
   11.6678   31.4021   24.8135 H   0  0  0  0  0  0
   10.4646   30.1312   23.0128 H   0  0  0  0  0  0
   12.5945   26.5100   24.1468 H   0  0  0  0  0  0
   13.8088   27.7830   25.9454 H   0  0  0  0  0  0
    5.8845   25.2100   19.2112 H   0  0  0  0  0  0
    7.3603   25.8675   19.9963 H   0  0  0  0  0  0
    7.4057   22.9751   19.5798 H   0  0  0  0  0  0
    9.3562   24.3261   20.2888 H   0  0  0  0  0  0
    9.2814   25.2469   18.7483 H   0  0  0  0  0  0
    9.6751   23.4943   18.7289 H   0  0  0  0  0  0
  1  2  2  0  0  0
  1  5  1  0  0  0
  1 19  1  0  0  0
  2  3  1  0  0  0
  2  6  1  0  0  0
  3  4  1  0  0  0
  4  5  2  0  0  0
  5 18  1  0  0  0
  6  7  1  0  0  0
  6 10  2  0  0  0
  7  8  2  0  0  0
  8  9  1  0  0  0
  9 10  1  0  0  0
  9 11  1  0  0  0
 11 15  1  0  0  0
 11 25  1  0  0  0
 11 26  1  0  0  0
 12 13  2  0  0  0
 12 17  1  0  0  0
 12 27  1  0  0  0
 13 14  1  0  0  0
 13 28  1  0  0  0
 14 15  2  0  0  0
 14 29  1  0  0  0
 15 16  1  0  0  0
 16 17  2  0  0  0
 16 30  1  0  0  0
 17 31  1  0  0  0
 19 20  1  0  0  0
 19 32  1  0  0  0
 19 33  1  0  0  0
 20 21  1  0  0  0
 20 24  1  0  0  0
 20 34  1  0  0  0
 21 22  1  0  0  0
 21 23  2  0  0  0
 24 35  1  0  0  0
 24 36  1  0  0  0
 24 37  1  0  0  0
M  CHG  3  18  -1  22  -1  24   1
M  END
> <s_m_source_file>
../2p2a_ligand.sdf

> <i_m_source_file_index>
1

> <s_epik_input>
W09IXUMoPU8pW0NAQEhdKFtOSDMrXSlbQ0gyXWMxYyhvW25IXWMxPU8pLWMybm5uKG4yKVtDSDJdYzNbY0hdW2NIXVtjSF1bY0hdW2NIXTM=

> <s_epik_cmdline>
J2VwaWtfYXBwJywgJy1pbWFlJywgJ2xpZ2FuZF9wcm8ubWFlJywgJy1vbWFlJywgJ2xpZ2FuZF9wcmVwLm1hZScsICctbXMnLCAnMScsICctcGgnLCAnNycsICctcGh0JywgJzAuNScsICctbnQn

> <r_lp_tautomer_probability>
1

> <r_epik_Ionization_Penalty>
  0.0039

> <r_epik_Ionization_Penalty_Charging>
  0.0039

> <r_epik_Ionization_Penalty_Neutral>
  0.0000

> <r_epik_State_Penalty>
 -0.0000

> <r_epik_Charging_Adjusted_Penalty>
0.00394451811671287

> <i_epik_Tot_Q>
-1

> <i_epik_Tot_abs_Q>
3

$$$$
