2p2i_ligand
                    3D
 Schrodinger Suite 2020-3.
 50 53  0  0  1  0            999 V2000
   39.0830   38.0740   10.2210 C   0  0  0  0  0  0
   38.4520   36.8620   10.6480 C   0  0  0  0  0  0
   37.5400   36.9260   11.7810 C   0  0  0  0  0  0
   37.2160   38.1350   12.5220 C   0  0  0  0  0  0
   37.8490   39.3560   12.0980 C   0  0  0  0  0  0
   38.7700   39.2990   10.9530 C   0  0  0  0  0  0
   39.9550   29.0860   11.2910 C   0  0  0  0  0  0
   40.3640   27.9400   11.9980 N   0  0  0  0  0  0
   39.4910   30.1940   12.0660 C   0  0  0  0  0  0
   39.5020   29.9880   13.5080 C   0  0  0  0  0  0
   39.9310   28.7730   14.1930 C   0  0  0  0  0  0
   40.3810   27.7150   13.3640 C   0  0  0  0  0  0
   36.6970   33.5070   12.7930 C   0  0  0  0  0  0
   35.3090   33.5010   12.3840 C   0  0  0  0  0  0
   34.4750   32.3620   12.5770 C   0  0  0  0  0  0
   35.0560   31.2070   13.1990 C   0  0  0  0  0  0
   36.3690   31.2060   13.5950 N   0  0  0  0  0  0
   37.1910   32.3220   13.4080 C   0  0  0  0  0  0
   38.4940   32.2980   13.8100 N   0  0  0  0  0  0
   39.0620   31.1190   14.4470 C   0  0  0  0  0  0
   37.5690   34.6710   12.5260 C   0  0  0  0  0  0
   36.9230   35.8070   12.2220 N   0  0  0  0  0  0
   38.7950   34.6450   12.5520 O   0  0  0  0  0  0
   39.4620   40.4250   10.4230 O   0  0  0  0  0  0
   39.1060   43.8750   11.8670 C   0  0  0  0  0  0
   38.3180   44.4460   10.7820 C   0  0  0  0  0  0
   37.8980   43.7040    9.5990 C   0  0  0  0  0  0
   38.2810   42.3120    9.4800 C   0  0  0  0  0  0
   39.0680   41.7400   10.5530 C   0  0  0  0  0  0
   39.4850   42.4880   11.7400 C   0  0  0  0  0  0
   39.7739   38.0826    9.3779 H   0  0  0  0  0  0
   38.6488   35.9182   10.1394 H   0  0  0  0  0  0
   36.5229   38.1170   13.3631 H   0  0  0  0  0  0
   37.6512   40.2970   12.6114 H   0  0  0  0  0  0
   39.9904   29.1269   10.2023 H   0  0  0  0  0  0
   39.1535   31.1252   11.6110 H   0  0  0  0  0  0
   39.9068   28.6842   15.2791 H   0  0  0  0  0  0
   40.7243   26.7688   13.7822 H   0  0  0  0  0  0
   34.8902   34.3917   11.9157 H   0  0  0  0  0  0
   33.4313   32.3679   12.2628 H   0  0  0  0  0  0
   34.4455   30.3183   13.3590 H   0  0  0  0  0  0
   39.1180   33.1889   13.6459 H   0  0  0  0  0  0
   38.2903   30.7445   15.1356 H   0  0  0  0  0  0
   39.9282   31.4737   15.0249 H   0  0  0  0  0  0
   35.8305   35.7952   12.3493 H   0  0  0  0  0  0
   39.3958   44.4680   12.7344 H   0  0  0  0  0  0
   38.0243   45.4928   10.8597 H   0  0  0  0  0  0
   37.3079   44.1869    8.8201 H   0  0  0  0  0  0
   37.9878   41.7171    8.6150 H   0  0  0  0  0  0
   40.0745   42.0036   12.5185 H   0  0  0  0  0  0
  1  2  2  0  0  0
  1  6  1  0  0  0
  1 31  1  0  0  0
  2  3  1  0  0  0
  2 32  1  0  0  0
  3  4  2  0  0  0
  3 22  1  0  0  0
  4  5  1  0  0  0
  4 33  1  0  0  0
  5  6  2  0  0  0
  5 34  1  0  0  0
  6 24  1  0  0  0
  7  8  2  0  0  0
  7  9  1  0  0  0
  7 35  1  0  0  0
  8 12  1  0  0  0
  9 10  2  0  0  0
  9 36  1  0  0  0
 10 11  1  0  0  0
 10 20  1  0  0  0
 11 12  2  0  0  0
 11 37  1  0  0  0
 12 38  1  0  0  0
 13 14  2  0  0  0
 13 18  1  0  0  0
 13 21  1  0  0  0
 14 15  1  0  0  0
 14 39  1  0  0  0
 15 16  2  0  0  0
 15 40  1  0  0  0
 16 17  1  0  0  0
 16 41  1  0  0  0
 17 18  2  0  0  0
 18 19  1  0  0  0
 19 20  1  0  0  0
 19 42  1  0  0  0
 20 43  1  0  0  0
 20 44  1  0  0  0
 21 22  1  0  0  0
 21 23  2  0  0  0
 22 45  1  0  0  0
 24 29  1  0  0  0
 25 26  2  0  0  0
 25 30  1  0  0  0
 25 46  1  0  0  0
 26 27  1  0  0  0
 26 47  1  0  0  0
 27 28  2  0  0  0
 27 48  1  0  0  0
 28 29  1  0  0  0
 28 49  1  0  0  0
 29 30  2  0  0  0
 30 50  1  0  0  0
M  END
> <s_m_source_file>
../2p2i_ligand.sdf

> <i_m_source_file_index>
1

> <s_epik_input>
W2NIXTFbY0hdW2NIXVtjSF1bY0hdYzFPYyhbY0hdW2NIXTIpW2NIXVtjSF1jMltOSF1DKD1PKWMzW2NIXVtjSF1bY0hdbmMzW05IXVtDSDJdYzRbY0hdW2NIXW5bY0hdW2NIXTQ=

> <s_epik_cmdline>
J2VwaWtfYXBwJywgJy1pbWFlJywgJ2xpZ2FuZF9wcm8ubWFlJywgJy1vbWFlJywgJ2xpZ2FuZF9wcmVwLm1hZScsICctbXMnLCAnMScsICctcGgnLCAnNycsICctcGh0JywgJzAuNScsICctbnQn

> <r_lp_tautomer_probability>
1

> <r_epik_Ionization_Penalty>
  0.2218

> <r_epik_Ionization_Penalty_Charging>
  0.0000

> <r_epik_Ionization_Penalty_Neutral>
  0.2218

> <r_epik_State_Penalty>
 -0.0000

> <r_epik_Charging_Adjusted_Penalty>
0

> <i_epik_Tot_Q>
0

> <i_epik_Tot_abs_Q>
0

$$$$
