2p33_ligand
                    3D
 Schrodinger Suite 2020-3.
 50 53  0  0  1  0            999 V2000
   29.1850    4.5930   29.2020 C   0  0  0  0  0  0
   28.4270    5.0480   27.9700 C   0  0  0  0  0  0
   26.9940    4.8280   28.1280 N   0  0  0  0  0  0
   26.1190    5.8870   28.0050 C   0  0  0  0  0  0
   25.9170    6.4400   26.9220 O   0  0  0  0  0  0
   25.4790    6.2960   29.2120 N   0  0  0  0  0  0
   24.5380    7.4400   29.1350 C   0  0  0  0  0  0
   23.1780    7.1060   29.7560 C   0  0  0  0  0  0
   23.3740    6.6250   31.2170 C   0  0  0  0  0  0
   24.2950    5.3720   31.2230 C   0  0  0  0  0  0
   25.6530    5.6990   30.5860 C   0  0  0  0  0  0
   22.0520    6.3120   31.8210 N   0  0  0  0  0  0
   21.1470    7.2600   32.3030 C   0  0  0  0  0  0
   21.4630    8.5710   32.1220 N   0  0  0  0  0  0
   20.5940    9.5520   32.5890 C   0  0  0  0  0  0
   19.3600    9.2250   33.2570 C   0  0  0  0  0  0
   19.1420    7.8510   33.3800 C   0  0  0  0  0  0
   19.9950    6.8680   32.9200 N   0  0  0  0  0  0
   18.1740   10.3030   33.8950 Cl  0  0  0  0  0  0
   21.0960   10.9110   32.2930 C   0  0  0  0  0  0
   22.3730   11.2950   31.7860 C   0  0  0  0  0  0
   23.5660   10.5870   31.4090 C   0  0  0  0  0  0
   24.6810   11.3190   30.9250 C   0  0  0  0  0  0
   24.6310   12.7280   30.8140 C   0  0  0  0  0  0
   23.4720   13.4510   31.1800 C   0  0  0  0  0  0
   22.3620   12.7120   31.6650 C   0  0  0  0  0  0
   21.1340   13.1470   32.0800 N   0  0  0  0  0  0
   20.3740   12.0870   32.4550 C   0  0  0  0  0  0
   30.2609    4.7698   29.0566 H   0  0  0  0  0  0
   29.0086    3.5196   29.3654 H   0  0  0  0  0  0
   28.8353    5.1595   30.0776 H   0  0  0  0  0  0
   28.6034    6.1214   27.8066 H   0  0  0  0  0  0
   28.7767    4.4815   27.0943 H   0  0  0  0  0  0
   26.6131    3.8191   28.3448 H   0  0  0  0  0  0
   24.9609    8.2996   29.6755 H   0  0  0  0  0  0
   24.3773    7.7123   28.0814 H   0  0  0  0  0  0
   22.5419    8.0034   29.7500 H   0  0  0  0  0  0
   22.6939    6.3095   29.1719 H   0  0  0  0  0  0
   23.8110    7.4193   31.8400 H   0  0  0  0  0  0
   24.4572    5.0411   32.2594 H   0  0  0  0  0  0
   23.8175    4.5632   30.6504 H   0  0  0  0  0  0
   26.2388    4.7710   30.5110 H   0  0  0  0  0  0
   26.1814    6.4150   31.2327 H   0  0  0  0  0  0
   21.7235    5.2663   31.9140 H   0  0  0  0  0  0
   18.2271    7.5299   33.8780 H   0  0  0  0  0  0
   23.6213    9.4915   31.4919 H   0  0  0  0  0  0
   25.5998   10.7908   30.6303 H   0  0  0  0  0  0
   25.5016   13.2665   30.4395 H   0  0  0  0  0  0
   23.4109   14.5464   31.1000 H   0  0  0  0  0  0
   19.3485   12.2470   32.8195 H   0  0  0  0  0  0
  1  2  1  0  0  0
  1 29  1  0  0  0
  1 30  1  0  0  0
  1 31  1  0  0  0
  2  3  1  0  0  0
  2 32  1  0  0  0
  2 33  1  0  0  0
  3  4  1  0  0  0
  3 34  1  0  0  0
  4  5  2  0  0  0
  4  6  1  0  0  0
  6  7  1  0  0  0
  6 11  1  0  0  0
  7  8  1  0  0  0
  7 35  1  0  0  0
  7 36  1  0  0  0
  8  9  1  0  0  0
  8 37  1  0  0  0
  8 38  1  0  0  0
  9 10  1  0  0  0
  9 12  1  0  0  0
  9 39  1  0  0  0
 10 11  1  0  0  0
 10 40  1  0  0  0
 10 41  1  0  0  0
 11 42  1  0  0  0
 11 43  1  0  0  0
 12 13  1  0  0  0
 12 44  1  0  0  0
 13 14  2  0  0  0
 13 18  1  0  0  0
 14 15  1  0  0  0
 15 16  2  0  0  0
 15 20  1  0  0  0
 16 17  1  0  0  0
 16 19  1  0  0  0
 17 18  2  0  0  0
 17 45  1  0  0  0
 20 21  2  0  0  0
 20 28  1  0  0  0
 21 22  1  0  0  0
 21 26  1  0  0  0
 22 23  2  0  0  0
 22 46  1  0  0  0
 23 24  1  0  0  0
 23 47  1  0  0  0
 24 25  1  0  0  0
 24 48  1  0  0  0
 25 26  2  0  0  0
 25 49  1  0  0  0
 26 27  1  0  0  0
 27 28  2  0  0  0
 28 50  1  0  0  0
M  END
> <s_m_source_file>
../2p33_ligand.sdf

> <i_m_source_file_index>
1

> <s_epik_input>
W0NIM11bQ0gyXVtOSF1DKD1PKU4xW0NIMl1bQ0gyXVtDSF0oW0NIMl1bQ0gyXTEpW05IXWMybmMoYyhDbClbY0hdbjIpQz0zW0NIXT1OQyhDMzQpPVtDSF1bQ0gyXVtDSF09W0NIXTQ=

> <s_epik_cmdline>
J2VwaWtfYXBwJywgJy1pbWFlJywgJ2xpZ2FuZF9wcm8ubWFlJywgJy1vbWFlJywgJ2xpZ2FuZF9wcmVwLm1hZScsICctbXMnLCAnMScsICctcGgnLCAnNycsICctcGh0JywgJzAuNScsICctbnQn

> <r_lp_tautomer_probability>
1

> <r_epik_Ionization_Penalty>
  0.0001

> <r_epik_Ionization_Penalty_Charging>
  0.0000

> <r_epik_Ionization_Penalty_Neutral>
  0.0001

> <r_epik_State_Penalty>
 -0.0000

> <r_epik_Charging_Adjusted_Penalty>
0

> <i_epik_Tot_Q>
0

> <i_epik_Tot_abs_Q>
0

> <s_epik_Chemistry_Notes>
This compound has an imine and may undergo hydrolysis.

$$$$
