2p3a_ligand
                    3D
 Schrodinger Suite 2020-3.
130133  0  0  1  0            999 V2000
   18.2190    1.2750    1.9740 N   0  0  0  0  0  0
   18.2400    1.2900    0.5240 C   0  0  2  0  0  0
   16.3440    2.1220    4.6850 N   0  0  0  0  0  0
   19.1620    0.2190   -0.0290 C   0  0  1  0  0  0
   18.8020    2.6180    0.0650 C   0  0  0  0  0  0
   17.8760    3.7170    0.4890 C   0  0  0  0  0  0
   18.4020    4.8310    1.1740 C   0  0  0  0  0  0
   20.4630    0.4950    0.4650 O   0  0  0  0  0  0
   17.5370    5.8580    1.5660 C   0  0  0  0  0  0
   16.1670    5.7530    1.2670 C   0  0  0  0  0  0
   16.0300    0.8090    2.1630 O   0  0  0  0  0  0
   15.6560    4.6350    0.5910 C   0  0  0  0  0  0
   16.5110    3.6150    0.1940 C   0  0  0  0  0  0
   17.2550    1.1070    4.1680 C   0  0  2  0  0  0
   17.1110    1.0430    2.6750 C   0  0  0  0  0  0
   17.0460   -0.2270    4.8970 C   0  0  0  0  0  0
   12.5100    5.6960   11.0640 C   0  0  0  0  0  0
   11.7140    6.8480   11.0300 C   0  0  0  0  0  0
   16.1040    4.6000    7.1750 N   0  0  0  0  0  0
   12.1500    7.9930   10.3570 C   0  0  0  0  0  0
   13.3930    7.9840    9.7110 C   0  0  0  0  0  0
   14.1960    6.8390    9.7460 C   0  0  0  0  0  0
   18.0540    3.0410    5.7890 O   0  0  0  0  0  0
   16.0040    4.2500    5.7870 C   0  0  2  0  0  0
   16.8920    3.0840    5.4300 C   0  0  0  0  0  0
   16.4030    5.4680    4.9770 C   0  0  0  0  0  0
   14.8480   -3.8320   -7.4940 O   0  0  0  0  0  0
   15.8890   -4.3970   -7.7940 C   0  0  0  0  0  0
   15.9360   -5.0730   -9.0630 O   0  0  0  0  0  0
   14.6990   -5.0860   -9.7970 C   0  0  0  0  0  0
   13.8220   -6.2860   -9.5060 C   0  0  0  0  0  0
   12.7720   -6.5710  -10.3930 C   0  0  0  0  0  0
   11.9270   -7.6610  -10.1740 C   0  0  0  0  0  0
   12.1190   -8.4920   -9.0670 C   0  0  0  0  0  0
   13.1690   -8.2110   -8.1710 C   0  0  0  0  0  0
   14.0240   -7.1180   -8.3970 C   0  0  0  0  0  0
   16.9790   -4.4210   -7.0540 N   0  0  0  0  0  0
   16.8900   -4.3350   -5.6100 C   0  0  1  0  0  0
   17.4830   -5.5860   -4.9820 C   0  0  0  0  0  0
   17.6040   -3.0850   -5.1990 C   0  0  0  0  0  0
   18.7340   -2.8620   -5.6300 O   0  0  0  0  0  0
   16.8870   -2.2820   -4.4170 N   0  0  0  0  0  0
   17.3080   -0.9790   -3.9290 C   0  0  1  0  0  0
   16.7270    0.1510   -4.8160 C   0  0  0  0  0  0
   16.8580   -0.0590   -6.3120 C   0  0  0  0  0  0
   17.2800    1.5420   -4.4620 C   0  0  0  0  0  0
   16.8500   -0.9570   -2.4910 C   0  0  0  0  0  0
   15.8310   -0.3870   -2.1610 O   0  0  0  0  0  0
   17.5870   -1.6870   -1.6450 N   0  0  0  0  0  0
   17.4730   -1.6920   -0.1970 C   0  0  1  0  0  0
   17.3220   -3.0950    0.4090 C   0  0  0  0  0  0
   16.7220   -4.1830   -0.4470 C   0  0  0  0  0  0
   15.4240   -4.0520   -0.9200 C   0  0  0  0  0  0
   14.8770   -5.0630   -1.6920 C   0  0  0  0  0  0
   15.6080   -6.2260   -1.9750 C   0  0  0  0  0  0
   16.9160   -6.3710   -1.5020 C   0  0  0  0  0  0
   17.4640   -5.3450   -0.7290 C   0  0  0  0  0  0
   18.7520   -1.1770    0.4290 C   0  0  1  0  0  0
   19.7830   -2.0790    0.0650 O   0  0  0  0  0  0
   17.5690   -0.1690    6.3290 C   0  0  0  0  0  0
   17.6970   -1.3790    4.1160 C   0  0  0  0  0  0
   15.1520    4.3930    8.0640 C   0  0  0  0  0  0
   13.9890    4.1390    7.8160 O   0  0  0  0  0  0
   15.5740    4.5070    9.4450 O   0  0  0  0  0  0
   14.5920    4.4530   10.4690 C   0  0  0  0  0  0
   13.7420    5.6960   10.4120 C   0  0  0  0  0  0
   19.1442    1.4602    2.5394 H   0  0  0  0  0  0
   17.1992    1.1178    0.2124 H   0  0  0  0  0  0
   15.2701    2.0663    4.4536 H   0  0  0  0  0  0
   19.1846    0.2548   -1.1282 H   0  0  0  0  0  0
   19.7920    2.7736    0.5185 H   0  0  0  0  0  0
   18.8968    2.6170   -1.0309 H   0  0  0  0  0  0
   19.4676    4.8913    1.3951 H   0  0  0  0  0  0
   20.9426    1.4596    0.2426 H   0  0  0  0  0  0
   17.9204    6.7293    2.0969 H   0  0  0  0  0  0
   15.4906    6.5539    1.5655 H   0  0  0  0  0  0
   14.5893    4.5669    0.3776 H   0  0  0  0  0  0
   16.1247    2.7468   -0.3400 H   0  0  0  0  0  0
   18.2898    1.4205    4.3702 H   0  0  0  0  0  0
   15.9639   -0.4148    4.9580 H   0  0  0  0  0  0
   12.1691    4.8075   11.5955 H   0  0  0  0  0  0
   10.7467    6.8517   11.5324 H   0  0  0  0  0  0
   17.0199    5.0736    7.5582 H   0  0  0  0  0  0
   11.5268    8.8870   10.3350 H   0  0  0  0  0  0
   13.7355    8.8718    9.1795 H   0  0  0  0  0  0
   15.1701    6.8377    9.2569 H   0  0  0  0  0  0
   14.9596    3.9473    5.6206 H   0  0  0  0  0  0
   15.7519    6.3140    5.2421 H   0  0  0  0  0  0
   16.2974    5.2460    3.9048 H   0  0  0  0  0  0
   17.4492    5.7276    5.1964 H   0  0  0  0  0  0
   14.1144   -4.1886   -9.5462 H   0  0  0  0  0  0
   14.9129   -5.0946  -10.8760 H   0  0  0  0  0  0
   12.6143   -5.9338  -11.2632 H   0  0  0  0  0  0
   11.1134   -7.8647  -10.8702 H   0  0  0  0  0  0
   11.4643   -9.3471   -8.8989 H   0  0  0  0  0  0
   13.3196   -8.8448   -7.2971 H   0  0  0  0  0  0
   14.8450   -6.9177   -7.7086 H   0  0  0  0  0  0
   17.9619   -4.5071   -7.5403 H   0  0  0  0  0  0
   15.8354   -4.2693   -5.3041 H   0  0  0  0  0  0
   16.9193   -6.4682   -5.3196 H   0  0  0  0  0  0
   17.4232   -5.5098   -3.8863 H   0  0  0  0  0  0
   18.5356   -5.6851   -5.2858 H   0  0  0  0  0  0
   15.8988   -2.6793   -4.1420 H   0  0  0  0  0  0
   18.4012   -0.8659   -3.9762 H   0  0  0  0  0  0
   15.6495    0.1076   -4.5988 H   0  0  0  0  0  0
   16.4656   -1.0514   -6.5787 H   0  0  0  0  0  0
   17.9177    0.0058   -6.5999 H   0  0  0  0  0  0
   16.2858    0.7163   -6.8426 H   0  0  0  0  0  0
   17.1907    1.7071   -3.3781 H   0  0  0  0  0  0
   16.7064    2.3121   -4.9987 H   0  0  0  0  0  0
   18.3383    1.6015   -4.7560 H   0  0  0  0  0  0
   18.3335   -2.3254   -2.1401 H   0  0  0  0  0  0
   16.5854   -1.0609   -0.0426 H   0  0  0  0  0  0
   18.3116   -3.4773    0.6997 H   0  0  0  0  0  0
   16.6738   -3.0434    1.2962 H   0  0  0  0  0  0
   14.8405   -3.1616   -0.6860 H   0  0  0  0  0  0
   13.8660   -4.9537   -2.0845 H   0  0  0  0  0  0
   15.1542   -7.0210   -2.5667 H   0  0  0  0  0  0
   17.4952   -7.2653   -1.7316 H   0  0  0  0  0  0
   18.4773   -5.4454   -0.3400 H   0  0  0  0  0  0
   18.6297   -1.1611    1.5221 H   0  0  0  0  0  0
   20.8129   -1.9053    0.4101 H   0  0  0  0  0  0
   17.0863    0.6633    6.8622 H   0  0  0  0  0  0
   18.6579   -0.0135    6.3156 H   0  0  0  0  0  0
   17.3399   -1.1149    6.8416 H   0  0  0  0  0  0
   17.3015   -1.3958    3.0897 H   0  0  0  0  0  0
   17.4688   -2.3336    4.6126 H   0  0  0  0  0  0
   18.7868   -1.2323    4.0866 H   0  0  0  0  0  0
   13.9574    3.5666   10.3221 H   0  0  0  0  0  0
   15.0874    4.3909   11.4492 H   0  0  0  0  0  0
  1  2  1  0  0  0
  1 15  1  0  0  0
  1 67  1  0  0  0
  2  4  1  0  0  0
  2  5  1  0  0  0
  2 68  1  0  0  0
  3 14  1  0  0  0
  3 25  1  0  0  0
  3 69  1  0  0  0
  4  8  1  0  0  0
  4 58  1  0  0  0
  4 70  1  0  0  0
  5  6  1  0  0  0
  5 71  1  0  0  0
  5 72  1  0  0  0
  6  7  2  0  0  0
  6 13  1  0  0  0
  7  9  1  0  0  0
  7 73  1  0  0  0
  8 74  1  0  0  0
  9 10  2  0  0  0
  9 75  1  0  0  0
 10 12  1  0  0  0
 10 76  1  0  0  0
 11 15  2  0  0  0
 12 13  2  0  0  0
 12 77  1  0  0  0
 13 78  1  0  0  0
 14 15  1  0  0  0
 14 16  1  0  0  0
 14 79  1  0  0  0
 16 60  1  0  0  0
 16 61  1  0  0  0
 16 80  1  0  0  0
 17 18  2  0  0  0
 17 66  1  0  0  0
 17 81  1  0  0  0
 18 20  1  0  0  0
 18 82  1  0  0  0
 19 24  1  0  0  0
 19 62  1  0  0  0
 19 83  1  0  0  0
 20 21  2  0  0  0
 20 84  1  0  0  0
 21 22  1  0  0  0
 21 85  1  0  0  0
 22 66  2  0  0  0
 22 86  1  0  0  0
 23 25  2  0  0  0
 24 25  1  0  0  0
 24 26  1  0  0  0
 24 87  1  0  0  0
 26 88  1  0  0  0
 26 89  1  0  0  0
 26 90  1  0  0  0
 27 28  2  0  0  0
 28 29  1  0  0  0
 28 37  1  0  0  0
 29 30  1  0  0  0
 30 31  1  0  0  0
 30 91  1  0  0  0
 30 92  1  0  0  0
 31 32  2  0  0  0
 31 36  1  0  0  0
 32 33  1  0  0  0
 32 93  1  0  0  0
 33 34  2  0  0  0
 33 94  1  0  0  0
 34 35  1  0  0  0
 34 95  1  0  0  0
 35 36  2  0  0  0
 35 96  1  0  0  0
 36 97  1  0  0  0
 37 38  1  0  0  0
 37 98  1  0  0  0
 38 39  1  0  0  0
 38 40  1  0  0  0
 38 99  1  0  0  0
 39100  1  0  0  0
 39101  1  0  0  0
 39102  1  0  0  0
 40 41  2  0  0  0
 40 42  1  0  0  0
 42 43  1  0  0  0
 42103  1  0  0  0
 43 44  1  0  0  0
 43 47  1  0  0  0
 43104  1  0  0  0
 44 45  1  0  0  0
 44 46  1  0  0  0
 44105  1  0  0  0
 45106  1  0  0  0
 45107  1  0  0  0
 45108  1  0  0  0
 46109  1  0  0  0
 46110  1  0  0  0
 46111  1  0  0  0
 47 48  2  0  0  0
 47 49  1  0  0  0
 49 50  1  0  0  0
 49112  1  0  0  0
 50 51  1  0  0  0
 50 58  1  0  0  0
 50113  1  0  0  0
 51 52  1  0  0  0
 51114  1  0  0  0
 51115  1  0  0  0
 52 53  2  0  0  0
 52 57  1  0  0  0
 53 54  1  0  0  0
 53116  1  0  0  0
 54 55  2  0  0  0
 54117  1  0  0  0
 55 56  1  0  0  0
 55118  1  0  0  0
 56 57  2  0  0  0
 56119  1  0  0  0
 57120  1  0  0  0
 58 59  1  0  0  0
 58121  1  0  0  0
 59122  1  0  0  0
 60123  1  0  0  0
 60124  1  0  0  0
 60125  1  0  0  0
 61126  1  0  0  0
 61127  1  0  0  0
 61128  1  0  0  0
 62 63  2  0  0  0
 62 64  1  0  0  0
 64 65  1  0  0  0
 65 66  1  0  0  0
 65129  1  0  0  0
 65130  1  0  0  0
M  END
> <s_m_source_file>
../2p3a_ligand.sdf

> <i_m_source_file_index>
1

> <s_epik_input>
W2NIXTFbY0hdW2NIXVtjSF1bY0hdYzFbQ0gyXU9DKD1PKVtOSF1bQ0BASF0oW0NIM10pQyg9TylbTkhdW0NAQEhdKFtDSF0oW0NIM10pW0NIM10pQyg9TylbTkhdW0NAQEhdKFtDSDJdYzJbY0hdW2NIXVtjSF1bY0hdW2NIXTIpW0NAQEhdKFtPSF0pW0NASF0oW09IXSlbQ0BIXShbQ0gyXWMzW2NIXVtjSF1bY0hdW2NIXVtjSF0zKVtOSF1DKD1PKVtDQEhdKFtDSF0oW0NIM10pW0NIM10pW05IXUMoPU8pW0NASF0oW0NIM10pW05IXUMoPU8pT1tDSDJdYzRbY0hdW2NIXVtjSF1bY0hdW2NIXTQ=

> <s_epik_cmdline>
J2VwaWtfYXBwJywgJy1pbWFlJywgJ2xpZ2FuZF9wcm8ubWFlJywgJy1vbWFlJywgJ2xpZ2FuZF9wcmVwLm1hZScsICctbXMnLCAnMScsICctcGgnLCAnNycsICctcGh0JywgJzAuNScsICctbnQn

> <r_lp_tautomer_probability>
1

> <r_epik_Ionization_Penalty>
  0.0000

> <r_epik_Ionization_Penalty_Charging>
  0.0000

> <r_epik_Ionization_Penalty_Neutral>
  0.0000

> <r_epik_State_Penalty>
 -0.0000

> <r_epik_Charging_Adjusted_Penalty>
0

> <i_epik_Tot_Q>
0

> <i_epik_Tot_abs_Q>
0

> <s_epik_Chemistry_Notes>
This compound has an ester and may undergo hydrolysis at high or low pH.

$$$$
