2p3g_ligand
                    3D
 Schrodinger Suite 2020-3.
 36 39  0  0  1  0            999 V2000
   87.7620  260.1570  111.6410 N   0  0  0  0  0  0
   88.5970  260.7450  109.5390 O   0  0  0  0  0  0
   79.0800  262.6050  106.2230 C   0  0  0  0  0  0
   81.9920  261.2230  107.9860 C   0  0  0  0  0  0
   77.7060  262.6780  106.1980 C   0  0  0  0  0  0
   85.7050  260.9450  108.6950 C   0  0  0  0  0  0
   86.6550  260.2380  112.5800 C   0  0  0  0  0  0
   85.3990  259.5690  112.0610 C   0  0  0  0  0  0
   86.2930  260.4980  109.8980 C   0  0  0  0  0  0
   87.6680  260.4790  110.3000 C   0  0  0  0  0  0
   83.8470  261.5410  106.5510 C   0  0  0  0  0  0
   82.9710  261.9010  105.5620 C   0  0  0  0  0  0
   85.2640  260.0900  110.7060 C   0  0  3  0  0  0
   83.3580  261.1890  107.7880 C   0  0  0  0  0  0
   84.3350  260.8050  108.7880 C   0  0  0  0  0  0
   81.1820  261.5950  106.9290 C   0  0  0  0  0  0
   79.7360  261.6530  106.9730 C   0  0  0  0  0  0
   78.9540  260.7770  107.6960 C   0  0  0  0  0  0
   77.5790  260.8360  107.6910 C   0  0  0  0  0  0
   76.9480  261.7910  106.9300 C   0  0  0  0  0  0
   79.5220  259.8280  108.4410 F   0  0  0  0  0  0
   84.0890  260.2640  110.0260 N   0  0  0  0  0  0
   81.6500  261.9320  105.7220 N   0  0  0  0  0  0
   88.7517  259.8221  111.9851 H   0  0  0  0  0  0
   79.6623  263.3158  105.6367 H   0  0  0  0  0  0
   81.5621  260.9626  108.9532 H   0  0  0  0  0  0
   77.2148  263.4421  105.5955 H   0  0  0  0  0  0
   86.3395  261.3246  107.8805 H   0  0  0  0  0  0
   86.9359  259.7435  113.5216 H   0  0  0  0  0  0
   86.4178  261.2939  112.7770 H   0  0  0  0  0  0
   85.5321  258.4772  112.0763 H   0  0  0  0  0  0
   84.5466  259.8435  112.6998 H   0  0  0  0  0  0
   84.9202  261.5334  106.3604 H   0  0  0  0  0  0
   83.3782  262.1776  104.5895 H   0  0  0  0  0  0
   76.9959  260.1321  108.2849 H   0  0  0  0  0  0
   75.8596  261.8458  106.9061 H   0  0  0  0  0  0
  1  7  1  0  0  0
  1 10  1  0  0  0
  1 24  1  0  0  0
  2 10  2  0  0  0
  3  5  2  0  0  0
  3 17  1  0  0  0
  3 25  1  0  0  0
  4 14  2  0  0  0
  4 16  1  0  0  0
  4 26  1  0  0  0
  5 20  1  0  0  0
  5 27  1  0  0  0
  6  9  2  0  0  0
  6 15  1  0  0  0
  6 28  1  0  0  0
  7  8  1  0  0  0
  7 29  1  0  0  0
  7 30  1  0  0  0
  8 13  1  0  0  0
  8 31  1  0  0  0
  8 32  1  0  0  0
  9 10  1  0  0  0
  9 13  1  0  0  0
 11 12  2  0  0  0
 11 14  1  0  0  0
 11 33  1  0  0  0
 12 23  1  0  0  0
 12 34  1  0  0  0
 13 22  1  0  0  0
 14 15  1  0  0  0
 15 22  2  0  0  0
 16 17  1  0  0  0
 16 23  2  0  0  0
 17 18  2  0  0  0
 18 19  1  0  0  0
 18 21  1  0  0  0
 19 20  2  0  0  0
 19 35  1  0  0  0
 20 36  1  0  0  0
M  END
> <s_m_source_file>
../2p3g_ligand.sdf

> <i_m_source_file_index>
1

> <s_epik_input>
Tz1DMVtOSF1bQ0gyXVtDSDJdW0NIXShDMTIpTj1DKFtDSF09MiljM1tjSF1jKG5bY0hdW2NIXTMpLWM0W2NIXVtjSF1bY0hdW2NIXWM0Rg==

> <s_epik_cmdline>
J2VwaWtfYXBwJywgJy1pbWFlJywgJ2xpZ2FuZF9wcm8ubWFlJywgJy1vbWFlJywgJ2xpZ2FuZF9wcmVwLm1hZScsICctbXMnLCAnMScsICctcGgnLCAnNycsICctcGh0JywgJzAuNScsICctbnQn

> <r_lp_tautomer_probability>
1

> <r_epik_Ionization_Penalty>
  0.0010

> <r_epik_Ionization_Penalty_Charging>
  0.0000

> <r_epik_Ionization_Penalty_Neutral>
  0.0010

> <r_epik_State_Penalty>
 -0.0000

> <r_epik_Charging_Adjusted_Penalty>
0

> <i_epik_Tot_Q>
0

> <i_epik_Tot_abs_Q>
0

> <s_epik_Chemistry_Notes>
This compound has an imine and may undergo hydrolysis.

$$$$
