2p3i_ligand
                    3D
 Schrodinger Suite 2020-3.
 42 42  0  0  1  0            999 V2000
   44.3530   10.2540   18.3400 C   0  0  0  0  0  0
   44.2540   11.4040   19.3330 C   0  0  2  0  0  0
   45.2980   12.4930   19.0700 C   0  0  0  0  0  0
   44.9200   13.3860   17.8750 C   0  0  1  0  0  0
   43.4860   13.9030   17.9810 C   0  0  2  0  0  0
   42.5540   12.6980   18.1730 C   0  0  2  0  0  0
   41.0750   13.0440   18.3060 C   0  0  1  0  0  0
   40.2110   11.7860   18.4090 C   0  0  1  0  0  0
   38.7810   12.0980   18.0010 C   0  0  0  0  0  0
   42.4110   15.7830   16.7950 C   0  0  0  0  0  0
   42.0880   16.3480   15.4430 C   0  0  0  0  0  0
   43.7150    9.8010   21.1110 C   0  0  0  0  0  0
   43.1560   14.6710   16.7940 N   0  0  0  0  0  0
   45.4670    9.7070   18.1760 O   0  0  0  0  0  0
   43.3160    9.8570   17.7510 O   0  5  0  0  0  0
   44.4890   10.9120   20.6470 O   0  0  0  0  0  0
   45.8710   14.4590   17.7890 O   0  0  0  0  0  0
   42.9470   11.9830   19.3680 O   0  0  0  0  0  0
   40.8630   13.8420   19.4840 O   0  0  0  0  0  0
   40.7230   10.7440   17.5680 O   0  0  0  0  0  0
   37.9900   10.9220   18.2470 O   0  0  0  0  0  0
   42.0110   16.2990   17.8280 O   0  0  0  0  0  0
   45.3910   13.1341   19.9590 H   0  0  0  0  0  0
   46.2693   12.0249   18.8523 H   0  0  0  0  0  0
   45.0022   12.8402   16.9235 H   0  0  0  0  0  0
   43.3570   14.6184   18.8066 H   0  0  0  0  0  0
   42.6734   12.0499   17.2923 H   0  0  0  0  0  0
   40.7713   13.6515   17.4407 H   0  0  0  0  0  0
   40.2519   11.3861   19.4329 H   0  0  0  0  0  0
   38.4058   12.9431   18.5968 H   0  0  0  0  0  0
   38.7534   12.3613   16.9333 H   0  0  0  0  0  0
   42.5504   15.7233   14.6646 H   0  0  0  0  0  0
   42.4797   17.3734   15.3710 H   0  0  0  0  0  0
   40.9971   16.3615   15.3023 H   0  0  0  0  0  0
   44.0175    9.5466   22.1376 H   0  0  0  0  0  0
   43.8850    8.9356   20.4536 H   0  0  0  0  0  0
   42.6477   10.0670   21.0985 H   0  0  0  0  0  0
   43.5254   14.3479   15.8095 H   0  0  0  0  0  0
   46.9452   14.2367   17.7078 H   0  0  0  0  0  0
   41.3965   14.7963   19.6052 H   0  0  0  0  0  0
   41.7504   10.3775   17.7100 H   0  0  0  0  0  0
   36.9135   10.9259   18.0206 H   0  0  0  0  0  0
  1  2  1  0  0  0
  1 14  2  0  0  0
  1 15  1  0  0  0
  2  3  1  0  0  0
  2 16  1  0  0  0
  2 18  1  0  0  0
  3  4  1  0  0  0
  3 23  1  0  0  0
  3 24  1  0  0  0
  4  5  1  0  0  0
  4 17  1  0  0  0
  4 25  1  0  0  0
  5  6  1  0  0  0
  5 13  1  0  0  0
  5 26  1  0  0  0
  6  7  1  0  0  0
  6 18  1  0  0  0
  6 27  1  0  0  0
  7  8  1  0  0  0
  7 19  1  0  0  0
  7 28  1  0  0  0
  8  9  1  0  0  0
  8 20  1  0  0  0
  8 29  1  0  0  0
  9 21  1  0  0  0
  9 30  1  0  0  0
  9 31  1  0  0  0
 10 11  1  0  0  0
 10 13  1  0  0  0
 10 22  2  0  0  0
 11 32  1  0  0  0
 11 33  1  0  0  0
 11 34  1  0  0  0
 12 16  1  0  0  0
 12 35  1  0  0  0
 12 36  1  0  0  0
 12 37  1  0  0  0
 13 38  1  0  0  0
 17 39  1  0  0  0
 19 40  1  0  0  0
 20 41  1  0  0  0
 21 42  1  0  0  0
M  CHG  1  15  -1
M  END
> <s_m_source_file>
../2p3i_ligand.sdf

> <i_m_source_file_index>
1

> <s_epik_input>
W0NIM11PW0NAXTEoQyg9TylbT0hdKVtDSDJdW0NASF0oW09IXSlbQ0BASF0oW05IXUMoPU8pW0NIM10pW0NAQEhdKE8xKVtDQEhdKFtPSF0pW0NASF0oW09IXSlbQ0gyXVtPSF0=

> <s_epik_cmdline>
J2VwaWtfYXBwJywgJy1pbWFlJywgJ2xpZ2FuZF9wcm8ubWFlJywgJy1vbWFlJywgJ2xpZ2FuZF9wcmVwLm1hZScsICctbXMnLCAnMScsICctcGgnLCAnNycsICctcGh0JywgJzAuNScsICctbnQn

> <r_lp_tautomer_probability>
1

> <r_epik_Ionization_Penalty>
  0.0000

> <r_epik_Ionization_Penalty_Charging>
  0.0000

> <r_epik_Ionization_Penalty_Neutral>
  0.0000

> <r_epik_State_Penalty>
 -0.0000

> <r_epik_Charging_Adjusted_Penalty>
1.80962144140925e-05

> <i_epik_Tot_Q>
-1

> <i_epik_Tot_abs_Q>
1

$$$$
