2p3o_ligand
                    3D
 Schrodinger Suite 2020-3.
 77 82  0  0  1  0            999 V2000
   16.0310   52.7420  -11.8090 N   0  0  0  0  0  0
   19.0260   54.1840   -8.5550 O   0  0  0  0  0  0
   18.1180   53.3930   -8.9270 C   0  0  0  0  0  0
   17.6460   52.4000   -8.0420 C   0  0  0  0  0  0
   17.9500   52.0310   -6.7660 N   0  0  0  0  0  0
   18.8150   52.5830   -5.7280 C   0  0  0  0  0  0
   17.1270   50.9870   -6.4890 C   0  0  0  0  0  0
   16.3130   50.7040   -7.5380 N   0  3  0  0  0  0
   16.6300   51.5660   -8.4960 C   0  0  0  0  0  0
   16.1310   51.7210   -9.7350 N   0  0  0  0  0  0
   16.5940   52.6640  -10.5740 C   0  0  0  0  0  0
   17.5860   53.5040  -10.1810 N   0  0  0  0  0  0
   14.8300   46.2790   -6.9960 O   0  0  0  0  0  0
   15.2190   49.6840   -7.7060 C   0  0  1  0  0  0
   15.6940   48.2600   -7.8910 C   0  0  1  0  0  0
   15.3480   47.5480   -6.6190 C   0  0  1  0  0  0
   14.2400   48.3680   -6.0010 C   0  0  1  0  0  0
   14.4590   48.4940   -4.5070 C   0  0  0  0  0  0
   14.2770   49.6630   -6.6310 O   0  0  0  0  0  0
   14.8880   47.7000   -8.9410 O   0  0  0  0  0  0
   15.6540   50.3130   -2.9500 P   0  0  1  0  0  0
   14.4850   49.9820   -2.0540 O   0  0  0  0  0  0
   16.0750   51.7560   -3.1470 O   0  5  0  0  0  0
   16.9620   49.5010   -2.5080 O   0  0  0  0  0  0
   15.4230   49.5350   -4.3430 O   0  0  0  0  0  0
   16.9990   48.3850   -1.3370 P   0  0  2  0  0  0
   17.2280   47.0090   -1.9500 O   0  5  0  0  0  0
   15.8400   48.6910   -0.4170 O   0  0  0  0  0  0
   18.3960   48.7480   -0.5940 O   0  0  0  0  0  0
   19.6800   49.4540   -1.3100 P   0  0  2  0  0  0
   20.8630   49.2210   -0.3880 O   0  0  0  0  0  0
   19.3400   50.8940   -1.7360 O   0  5  0  0  0  0
   19.9620   48.5430   -2.6100 O   0  0  0  0  0  0
   19.9310   49.1730   -3.8730 C   0  0  0  0  0  0
   19.6430   48.0880   -4.8720 C   0  0  1  0  0  0
   19.2070   48.7070   -6.0860 O   0  0  0  0  0  0
   20.9340   47.3390   -5.1540 C   0  0  1  0  0  0
   20.6720   45.9290   -5.2450 O   0  0  0  0  0  0
   21.3820   47.9060   -6.4860 C   0  0  1  0  0  0
   22.1210   46.9550   -7.2810 O   0  0  0  0  0  0
   20.0610   48.2920   -7.1410 C   0  0  2  0  0  0
   20.2600   49.4160   -8.0610 N   0  0  0  0  0  0
   21.0570   50.4820   -7.8520 C   0  0  0  0  0  0
   20.9890   51.2880   -8.9150 N   0  0  0  0  0  0
   20.1530   50.7030   -9.7690 C   0  0  0  0  0  0
   19.7540   51.1540  -11.0150 C   0  0  0  0  0  0
   20.2010   52.2360  -11.4400 N   0  0  0  0  0  0
   18.8950   50.4040  -11.7300 N   0  0  0  0  0  0
   18.4360   49.2430  -11.2130 C   0  0  0  0  0  0
   18.8090   48.7850   -9.9800 N   0  0  0  0  0  0
   19.6840   49.5210   -9.2500 C   0  0  0  0  0  0
   15.2292   52.0446  -12.0930 H   0  0  0  0  0  0
   19.4010   53.4160   -6.1437 H   0  0  0  0  0  0
   19.4971   51.8003   -5.3646 H   0  0  0  0  0  0
   18.1988   52.9488   -4.8934 H   0  0  0  0  0  0
   17.1207   50.4446   -5.5436 H   0  0  0  0  0  0
   15.4883   45.5341   -7.4670 H   0  0  0  0  0  0
   14.6890   50.0433   -8.6004 H   0  0  0  0  0  0
   16.7568   48.1607   -8.1569 H   0  0  0  0  0  0
   16.1939   47.3742   -5.9377 H   0  0  0  0  0  0
   13.2468   47.9304   -6.1801 H   0  0  0  0  0  0
   13.5078   48.7495   -4.0173 H   0  0  0  0  0  0
   14.8312   47.5384   -4.1091 H   0  0  0  0  0  0
   14.9821   48.0803   -9.9689 H   0  0  0  0  0  0
   19.1421   49.9395   -3.8811 H   0  0  0  0  0  0
   20.9041   49.6463   -4.0707 H   0  0  0  0  0  0
   18.8423   47.4190   -4.5238 H   0  0  0  0  0  0
   21.6979   47.4040   -4.3652 H   0  0  0  0  0  0
   20.3374   45.3733   -4.3566 H   0  0  0  0  0  0
   22.1201   48.7172   -6.4014 H   0  0  0  0  0  0
   23.0962   46.5856   -6.9310 H   0  0  0  0  0  0
   19.5878   47.4728   -7.7023 H   0  0  0  0  0  0
   21.6592   50.6580   -6.9607 H   0  0  0  0  0  0
   20.9016   52.8209  -10.8259 H   0  0  0  0  0  0
   19.8952   52.6068  -12.4294 H   0  0  0  0  0  0
   17.7398   48.6472  -11.8032 H   0  0  0  0  0  0
   16.3773   53.5026  -12.5243 H   0  0  0  0  0  0
  1 11  1  0  0  0
  1 52  1  0  0  0
  1 77  1  0  0  0
  2  3  2  0  0  0
  3  4  1  0  0  0
  3 12  1  0  0  0
  4  5  1  0  0  0
  4  9  2  0  0  0
  5  6  1  0  0  0
  5  7  1  0  0  0
  6 53  1  0  0  0
  6 54  1  0  0  0
  6 55  1  0  0  0
  7  8  2  0  0  0
  7 56  1  0  0  0
  8  9  1  0  0  0
  8 14  1  0  0  0
  9 10  1  0  0  0
 10 11  2  0  0  0
 11 12  1  0  0  0
 13 16  1  0  0  0
 13 57  1  0  0  0
 14 15  1  0  0  0
 14 19  1  0  0  0
 14 58  1  0  0  0
 15 16  1  0  0  0
 15 20  1  0  0  0
 15 59  1  0  0  0
 16 17  1  0  0  0
 16 60  1  0  0  0
 17 18  1  0  0  0
 17 19  1  0  0  0
 17 61  1  0  0  0
 18 25  1  0  0  0
 18 62  1  0  0  0
 18 63  1  0  0  0
 20 64  1  0  0  0
 21 22  2  0  0  0
 21 23  1  0  0  0
 21 24  1  0  0  0
 21 25  1  0  0  0
 24 26  1  0  0  0
 26 27  1  0  0  0
 26 28  2  0  0  0
 26 29  1  0  0  0
 29 30  1  0  0  0
 30 31  2  0  0  0
 30 32  1  0  0  0
 30 33  1  0  0  0
 33 34  1  0  0  0
 34 35  1  0  0  0
 34 65  1  0  0  0
 34 66  1  0  0  0
 35 36  1  0  0  0
 35 37  1  0  0  0
 35 67  1  0  0  0
 36 41  1  0  0  0
 37 38  1  0  0  0
 37 39  1  0  0  0
 37 68  1  0  0  0
 38 69  1  0  0  0
 39 40  1  0  0  0
 39 41  1  0  0  0
 39 70  1  0  0  0
 40 71  1  0  0  0
 41 42  1  0  0  0
 41 72  1  0  0  0
 42 43  1  0  0  0
 42 51  1  0  0  0
 43 44  2  0  0  0
 43 73  1  0  0  0
 44 45  1  0  0  0
 45 46  1  0  0  0
 45 51  2  0  0  0
 46 47  1  0  0  0
 46 48  2  0  0  0
 47 74  1  0  0  0
 47 75  1  0  0  0
 48 49  1  0  0  0
 49 50  2  0  0  0
 49 76  1  0  0  0
 50 51  1  0  0  0
M  CHG  4   8   1  23  -1  27  -1  32  -1
M  END
> <s_m_source_file>
../2p3o_ligand.sdf

> <i_m_source_file_index>
1

> <s_epik_input>
Tz1jMVtuSF1jKD1OXFtIXSkvW25IXWMoYzEyKW4oW2NIXVtuK10yW0NIM10pW0NASF0zW0NASF0oW09IXSlbQ0BIXShbT0hdKVtDQEhdKE8zKVtDSDJdT1tQQF0oPU8pKFtPSF0pT1tQQEBdKD1PKShbT0hdKU9bUEBdKD1PKShbT0hdKU9bQ0gyXVtDQEhdNE9bQ0BIXShbQ0BIXShbT0hdKVtDQEBIXTRbT0hdKW4oW2NIXW41KWMoYzU2KW5bY0hdbmM2W05IMl0=

> <s_epik_cmdline>
J2VwaWtfYXBwJywgJy1pbWFlJywgJ2xpZ2FuZF9wcm8ubWFlJywgJy1vbWFlJywgJ2xpZ2FuZF9wcmVwLm1hZScsICctbXMnLCAnMScsICctcGgnLCAnNycsICctcGh0JywgJzAuNScsICctbnQn

> <r_lp_tautomer_probability>
1

> <r_epik_Ionization_Penalty>
  0.0014

> <r_epik_Ionization_Penalty_Charging>
  0.0008

> <r_epik_Ionization_Penalty_Neutral>
  0.0006

> <r_epik_State_Penalty>
 -0.0000

> <r_epik_Charging_Adjusted_Penalty>
0.000761810447618523

> <i_epik_Tot_Q>
-2

> <i_epik_Tot_abs_Q>
4

> <s_epik_Chemistry_Notes>
This compound has an imine and may undergo hydrolysis. This compound contains an acetal/aminal-like group ( X-CH(R)-Y where X, Y are N, S, or O) that may be acid/base labile, releasing an aldehyde.

$$$$
