2p4i_ligand
                    3D
 Schrodinger Suite 2020-3.
 68 72  0  0  1  0            999 V2000
   25.9530    5.7030   91.1250 C   0  0  0  0  0  0
   26.8990    4.5000   91.1830 C   0  0  0  0  0  0
   26.9740    3.9770   92.5290 O   0  0  0  0  0  0
   25.6500    3.7690   93.1560 C   0  0  0  0  0  0
   24.6620    4.9360   92.9980 C   0  0  0  0  0  0
   24.6170    5.2400   91.5560 N   0  0  0  0  0  0
   23.6760    6.1310   91.2010 C   0  0  0  0  0  0
   23.4400    7.2910   91.9540 C   0  0  0  0  0  0
   22.4690    8.1870   91.5410 C   0  0  0  0  0  0
   21.7200    7.9420   90.3960 C   0  0  0  0  0  0
   20.6750    8.9700   89.9520 C   0  0  0  0  0  0
   21.3370   10.0020   89.4820 F   0  0  0  0  0  0
   19.9610    9.3860   90.9720 F   0  0  0  0  0  0
   19.8730    8.5370   88.9830 F   0  0  0  0  0  0
   21.9590    6.8050   89.6390 C   0  0  0  0  0  0
   22.9470    5.8980   90.0270 C   0  0  0  0  0  0
   23.1440    4.7540   89.3430 N   0  0  0  0  0  0
   22.9340    4.5240   88.0380 C   0  0  0  0  0  0
   22.5250    5.3640   87.2380 O   0  0  0  0  0  0
   23.1680    3.0730   87.5770 C   0  0  0  0  0  0
   22.8430    2.7280   86.2630 C   0  0  0  0  0  0
   23.6130    2.0750   88.4490 C   0  0  0  0  0  0
   23.7750    0.7660   87.9970 C   0  0  0  0  0  0
   23.4720    0.4340   86.6820 C   0  0  0  0  0  0
   23.6560   -1.0190   86.1930 C   0  0  0  0  0  0
   23.0190    1.4230   85.8110 C   0  0  0  0  0  0
   22.7010    1.1280   84.5140 O   0  0  0  0  0  0
   23.6450    1.1290   83.5410 C   0  0  0  0  0  0
   24.9540    1.1830   83.8440 N   0  0  0  0  0  0
   25.9090    1.1820   82.9090 C   0  0  0  0  0  0
   25.5610    1.1260   81.5590 C   0  0  0  0  0  0
   24.2100    1.0640   81.2150 C   0  0  0  0  0  0
   23.2300    1.0750   82.2130 C   0  0  0  0  0  0
   21.8740    0.9870   81.8520 C   0  0  0  0  0  0
   21.5510    0.8720   80.5530 N   0  0  0  0  0  0
   20.8370    0.9670   82.7960 C   0  0  0  0  0  0
   19.5250    0.8470   82.3540 C   0  0  0  0  0  0
   19.2880    0.7380   81.0620 N   0  0  0  0  0  0
   20.2780    0.7480   80.1600 C   0  0  0  0  0  0
   20.0010    0.6550   78.8620 N   0  0  0  0  0  0
   21.0880    0.7800   77.8750 C   0  0  0  0  0  0
   26.3214    6.4919   91.7973 H   0  0  0  0  0  0
   25.9123    6.0882   90.0954 H   0  0  0  0  0  0
   26.5287    3.7097   90.5134 H   0  0  0  0  0  0
   27.9053    4.8091   90.8639 H   0  0  0  0  0  0
   25.1675    2.8869   92.7098 H   0  0  0  0  0  0
   25.7771    3.6098   94.2370 H   0  0  0  0  0  0
   23.6727    4.6318   93.3705 H   0  0  0  0  0  0
   25.0210    5.8010   93.5749 H   0  0  0  0  0  0
   24.0172    7.4854   92.8580 H   0  0  0  0  0  0
   22.2900    9.0934   92.1193 H   0  0  0  0  0  0
   21.3738    6.6188   88.7384 H   0  0  0  0  0  0
   23.5228    3.8612   89.8620 H   0  0  0  0  0  0
   22.4486    3.4862   85.5865 H   0  0  0  0  0  0
   23.8344    2.3214   89.4874 H   0  0  0  0  0  0
   24.1414   -0.0013   88.6790 H   0  0  0  0  0  0
   24.0182   -1.6424   87.0238 H   0  0  0  0  0  0
   24.3884   -1.0398   85.3726 H   0  0  0  0  0  0
   22.6924   -1.4099   85.8343 H   0  0  0  0  0  0
   26.9584    1.2249   83.2007 H   0  0  0  0  0  0
   26.3305    1.1306   80.7870 H   0  0  0  0  0  0
   23.9178    1.0069   80.1664 H   0  0  0  0  0  0
   21.0569    1.0444   83.8608 H   0  0  0  0  0  0
   18.7012    0.8431   83.0677 H   0  0  0  0  0  0
   18.9680    0.4859   78.5240 H   0  0  0  0  0  0
   20.6755    0.6778   76.8604 H   0  0  0  0  0  0
   21.8338   -0.0097   78.0489 H   0  0  0  0  0  0
   21.5661    1.7652   77.9789 H   0  0  0  0  0  0
  1  2  1  0  0  0
  1  6  1  0  0  0
  1 42  1  0  0  0
  1 43  1  0  0  0
  2  3  1  0  0  0
  2 44  1  0  0  0
  2 45  1  0  0  0
  3  4  1  0  0  0
  4  5  1  0  0  0
  4 46  1  0  0  0
  4 47  1  0  0  0
  5  6  1  0  0  0
  5 48  1  0  0  0
  5 49  1  0  0  0
  6  7  1  0  0  0
  7  8  2  0  0  0
  7 16  1  0  0  0
  8  9  1  0  0  0
  8 50  1  0  0  0
  9 10  2  0  0  0
  9 51  1  0  0  0
 10 11  1  0  0  0
 10 15  1  0  0  0
 11 12  1  0  0  0
 11 13  1  0  0  0
 11 14  1  0  0  0
 15 16  2  0  0  0
 15 52  1  0  0  0
 16 17  1  0  0  0
 17 18  1  0  0  0
 17 53  1  0  0  0
 18 19  2  0  0  0
 18 20  1  0  0  0
 20 21  2  0  0  0
 20 22  1  0  0  0
 21 26  1  0  0  0
 21 54  1  0  0  0
 22 23  2  0  0  0
 22 55  1  0  0  0
 23 24  1  0  0  0
 23 56  1  0  0  0
 24 25  1  0  0  0
 24 26  2  0  0  0
 25 57  1  0  0  0
 25 58  1  0  0  0
 25 59  1  0  0  0
 26 27  1  0  0  0
 27 28  1  0  0  0
 28 29  2  0  0  0
 28 33  1  0  0  0
 29 30  1  0  0  0
 30 31  2  0  0  0
 30 60  1  0  0  0
 31 32  1  0  0  0
 31 61  1  0  0  0
 32 33  2  0  0  0
 32 62  1  0  0  0
 33 34  1  0  0  0
 34 35  2  0  0  0
 34 36  1  0  0  0
 35 39  1  0  0  0
 36 37  2  0  0  0
 36 63  1  0  0  0
 37 38  1  0  0  0
 37 64  1  0  0  0
 38 39  2  0  0  0
 39 40  1  0  0  0
 40 41  1  0  0  0
 40 65  1  0  0  0
 41 66  1  0  0  0
 41 67  1  0  0  0
 41 68  1  0  0  0
M  END
> <s_m_source_file>
../2p4i_ligand.sdf

> <i_m_source_file_index>
1

> <s_epik_input>
W0NIMl0xW0NIMl1PW0NIMl1bQ0gyXU4xYzJbY0hdW2NIXWMoQyhGKShGKUYpW2NIXWMyW05IXUMoPU8pYzNbY0hdYyhjKFtDSDNdKVtjSF1bY0hdMylPYzRuW2NIXVtjSF1bY0hdYzQtYzVuYyhbTkhdW0NIM10pbltjSF1bY0hdNQ==

> <s_epik_cmdline>
J2VwaWtfYXBwJywgJy1pbWFlJywgJ2xpZ2FuZF9wcm8ubWFlJywgJy1vbWFlJywgJ2xpZ2FuZF9wcmVwLm1hZScsICctbXMnLCAnMScsICctcGgnLCAnNycsICctcGh0JywgJzAuNScsICctbnQn

> <r_lp_tautomer_probability>
1

> <r_epik_Ionization_Penalty>
  0.0004

> <r_epik_Ionization_Penalty_Charging>
  0.0000

> <r_epik_Ionization_Penalty_Neutral>
  0.0004

> <r_epik_State_Penalty>
 -0.0000

> <r_epik_Charging_Adjusted_Penalty>
0

> <i_epik_Tot_Q>
0

> <i_epik_Tot_abs_Q>
0

$$$$
