2p4s_ligand
                    3D
 Schrodinger Suite 2020-3.
 35 37  0  0  1  0            999 V2000
   40.8270    5.0450  106.3490 O   0  0  0  0  0  0
   39.8860    4.0540  106.8070 C   0  0  0  0  0  0
   38.5160    4.5440  106.4060 C   0  0  1  0  0  0
   38.4480    4.8610  104.8950 C   0  0  0  0  0  0
   37.4800    3.4770  106.6860 C   0  0  1  0  0  0
   36.2630    4.1260  107.0600 O   0  0  0  0  0  0
   37.2610    2.8240  105.3340 C   0  0  0  0  0  0
   37.3440    3.9900  104.3990 N   0  0  2  0  0  0
   37.3790    3.5290  103.0030 C   0  0  0  0  0  0
   38.6840    3.0000  102.4480 C   0  0  0  0  0  0
   39.6920    3.7860  101.8280 C   0  0  0  0  0  0
   40.6970    2.9590  101.4280 N   0  3  0  0  0  0
   40.3910    1.6770  101.7580 C   0  0  0  0  0  0
   41.0470    0.3570  101.5360 C   0  0  0  0  0  0
   42.1990    0.2510  100.9440 O   0  0  0  0  0  0
   40.3700   -0.7130  102.0030 N   0  0  0  0  0  0
   39.1630   -0.6330  102.6410 C   0  0  0  0  0  0
   38.5270    0.5340  102.8280 N   0  0  0  0  0  0
   39.1340    1.6860  102.3850 C   0  0  0  0  0  0
   41.9033    4.9058  106.5283 H   0  0  0  0  0  0
   40.1115    3.0874  106.3328 H   0  0  0  0  0  0
   39.9625    3.9530  107.8997 H   0  0  0  0  0  0
   38.3229    5.4439  107.0084 H   0  0  0  0  0  0
   38.2303    5.9300  104.7541 H   0  0  0  0  0  0
   39.4128    4.6183  104.4256 H   0  0  0  0  0  0
   37.7396    2.7871  107.5025 H   0  0  0  0  0  0
   36.1995    4.6675  108.0154 H   0  0  0  0  0  0
   38.0475    2.0757  105.1565 H   0  0  0  0  0  0
   36.2771    2.3323  105.3193 H   0  0  0  0  0  0
   36.6636    2.7038  102.8713 H   0  0  0  0  0  0
   37.1071    4.3600  102.3355 H   0  0  0  0  0  0
   39.5662    4.8756  101.7445 H   0  0  0  0  0  0
   40.7859   -1.7238  101.8794 H   0  0  0  0  0  0
   38.7015   -1.5488  103.0104 H   0  0  0  0  0  0
   41.5811    3.3730  100.9211 H   0  0  0  0  0  0
  1  2  1  0  0  0
  1 20  1  0  0  0
  2  3  1  0  0  0
  2 21  1  0  0  0
  2 22  1  0  0  0
  3  4  1  0  0  0
  3  5  1  0  0  0
  3 23  1  0  0  0
  4  8  1  0  0  0
  4 24  1  0  0  0
  4 25  1  0  0  0
  5  6  1  0  0  0
  5  7  1  0  0  0
  5 26  1  0  0  0
  6 27  1  0  0  0
  7  8  1  0  0  0
  7 28  1  0  0  0
  7 29  1  0  0  0
  8  9  1  0  0  0
  9 10  1  0  0  0
  9 30  1  0  0  0
  9 31  1  0  0  0
 10 11  2  0  0  0
 10 19  1  0  0  0
 11 12  1  0  0  0
 11 32  1  0  0  0
 12 13  1  0  0  0
 12 35  1  0  0  0
 13 14  1  0  0  0
 13 19  2  0  0  0
 14 15  2  0  0  0
 14 16  1  0  0  0
 16 17  1  0  0  0
 16 33  1  0  0  0
 17 18  2  0  0  0
 17 34  1  0  0  0
 18 19  1  0  0  0
M  CHG  1  12   1
M  END
> <s_m_source_file>
../2p4s_ligand.sdf

> <i_m_source_file_index>
1

> <s_epik_input>
W09IXVtDSDJdW0NASF0xW0NIMl1bTkBIK10oW0NIMl1bQ0BASF0xW09IXSlbQ0gyXWMoW2NIXVtuSF0yKWMoYzIzKW5bY0hdW25IXWMzPU8=

> <s_epik_cmdline>
J2VwaWtfYXBwJywgJy1pbWFlJywgJ2xpZ2FuZF9wcm8ubWFlJywgJy1vbWFlJywgJ2xpZ2FuZF9wcmVwLm1hZScsICctbXMnLCAnMScsICctcGgnLCAnNycsICctcGh0JywgJzAuNScsICctbnQn

> <r_epik_Ionization_Penalty>
  0.2787

> <r_epik_Ionization_Penalty_Charging>
  0.0000

> <r_epik_Ionization_Penalty_Neutral>
  0.2787

> <r_epik_State_Penalty>
  0.2711

> <r_epik_Charging_Adjusted_Penalty>
0.271117166616451

> <i_epik_Tot_Q>
1

> <i_epik_Tot_abs_Q>
1

$$$$
