2p53_ligand
                    3D
 Schrodinger Suite 2020-3.
 34 34  0  0  1  0            999 V2000
  -35.3460   15.5200  -12.1780 C   0  0  1  0  0  0
  -34.8400   15.5980  -10.7170 C   0  0  1  0  0  0
  -34.8400   17.0790  -10.2370 C   0  0  2  0  0  0
  -34.0620   17.9690  -11.2290 C   0  0  1  0  0  0
  -34.6320   17.7620  -12.6620 C   0  0  1  0  0  0
  -33.8240   18.6020  -13.6700 C   0  0  0  0  0  0
  -35.2350   13.9130   -8.6440 P   0  0  2  0  0  0
  -36.5800   13.1020   -7.8030 C   0  0  0  0  0  0
  -35.7510   14.8260   -9.8860 N   0  0  1  0  0  0
  -36.7210   15.9220  -12.2530 O   0  0  0  0  0  0
  -34.2160   17.1660   -8.9520 O   0  0  0  0  0  0
  -34.2250   19.3460  -10.8500 O   0  0  0  0  0  0
  -34.5380   16.3620  -13.0400 O   0  0  0  0  0  0
  -32.4360   18.2770  -13.5480 O   0  0  0  0  0  0
  -34.3570   12.8430   -9.2120 O   0  0  0  0  0  0
  -34.3380   14.8530   -7.6980 O   0  5  0  0  0  0
  -31.5820   19.1540  -14.6070 P   0  0  0  0  0  0
  -30.1640   19.1130  -14.2030 O   0  0  0  0  0  0
  -31.7400   18.5280  -16.0800 O   0  5  0  0  0  0
  -32.0920   20.6860  -14.6280 O   0  5  0  0  0  0
  -35.2989   14.4983  -12.5830 H   0  0  0  0  0  0
  -33.8398   15.1526  -10.6111 H   0  0  0  0  0  0
  -35.8671   17.4482  -10.1000 H   0  0  0  0  0  0
  -32.9813   17.7687  -11.1847 H   0  0  0  0  0  0
  -35.7012   18.0184  -12.6961 H   0  0  0  0  0  0
  -34.1668   18.3790  -14.6911 H   0  0  0  0  0  0
  -33.9726   19.6712  -13.4587 H   0  0  0  0  0  0
  -37.1396   12.4822   -8.5190 H   0  0  0  0  0  0
  -37.2510   13.8585   -7.3700 H   0  0  0  0  0  0
  -36.1797   12.4646   -7.0008 H   0  0  0  0  0  0
  -36.4715   15.5035   -9.4046 H   0  0  0  0  0  0
  -37.4821   15.3917  -11.6619 H   0  0  0  0  0  0
  -34.6250   16.5993   -8.1025 H   0  0  0  0  0  0
  -33.8803   19.6894   -9.8635 H   0  0  0  0  0  0
  1  2  1  0  0  0
  1 10  1  0  0  0
  1 13  1  0  0  0
  1 21  1  0  0  0
  2  3  1  0  0  0
  2  9  1  0  0  0
  2 22  1  0  0  0
  3  4  1  0  0  0
  3 11  1  0  0  0
  3 23  1  0  0  0
  4  5  1  0  0  0
  4 12  1  0  0  0
  4 24  1  0  0  0
  5  6  1  0  0  0
  5 13  1  0  0  0
  5 25  1  0  0  0
  6 14  1  0  0  0
  6 26  1  0  0  0
  6 27  1  0  0  0
  7  8  1  0  0  0
  7  9  1  0  0  0
  7 15  2  0  0  0
  7 16  1  0  0  0
  8 28  1  0  0  0
  8 29  1  0  0  0
  8 30  1  0  0  0
  9 31  1  0  0  0
 10 32  1  0  0  0
 11 33  1  0  0  0
 12 34  1  0  0  0
 14 17  1  0  0  0
 17 18  2  0  0  0
 17 19  1  0  0  0
 17 20  1  0  0  0
M  CHG  3  16  -1  19  -1  20  -1
M  END
> <s_m_source_file>
../2p53_ligand.sdf

> <i_m_source_file_index>
1

> <s_epik_input>
W0NIM11bUEBdKD1PKShbT0hdKVtOSF1bQ0BASF0oW0NASF0xW09IXSlbQ0BASF0oW09IXSlbQ0BIXShbT0hdKVtDQEhdKE8xKVtDSDJdT1AoPU8pKFtPSF0pW09IXQ==

> <s_epik_cmdline>
J2VwaWtfYXBwJywgJy1pbWFlJywgJ2xpZ2FuZF9wcm8ubWFlJywgJy1vbWFlJywgJ2xpZ2FuZF9wcmVwLm1hZScsICctbXMnLCAnMScsICctcGgnLCAnNycsICctcGh0JywgJzAuNScsICctbnQn

> <r_epik_Ionization_Penalty>
  0.1064

> <r_epik_Ionization_Penalty_Charging>
  0.1064

> <r_epik_Ionization_Penalty_Neutral>
  0.0000

> <r_epik_State_Penalty>
  0.0959

> <r_epik_Charging_Adjusted_Penalty>
0.20228752932899

> <i_epik_Tot_Q>
-3

> <i_epik_Tot_abs_Q>
3

> <s_epik_Chemistry_Notes>
This compound contains an acetal/aminal-like group ( X-CH(R)-Y where X, Y are N, S, or O) that may be acid/base labile, releasing an aldehyde.

$$$$
