2p59_ligand
                    3D
 Schrodinger Suite 2020-3.
106110  0  0  1  0            999 V2000
   84.4040   76.1350   48.9260 C   0  0  2  0  0  0
   83.6740   76.0340   50.3010 C   0  0  2  0  0  0
   76.1180   75.6710   49.7570 C   0  0  0  0  0  0
   90.3060   68.6870   49.8650 C   0  0  0  0  0  0
   76.7550   75.7760   51.1550 C   0  0  0  0  0  0
   79.1460   75.7660   49.9960 C   0  0  0  0  0  0
   78.5130   80.5220   58.6130 O   0  5  0  0  0  0
   91.2530   69.7900   50.5010 C   0  0  0  0  0  0
   78.8800   75.7390   52.5170 C   0  0  2  0  0  0
   82.3810   74.3900   52.5990 C   0  0  2  0  0  0
   84.5070   73.6370   49.3030 C   0  0  2  0  0  0
   85.9630   70.0460   50.0160 C   0  0  1  0  0  0
   78.4450   75.7150   48.6310 C   0  0  0  0  0  0
   80.3980   75.9340   52.5000 C   0  0  0  0  0  0
   87.6160   70.8710   48.2210 O   0  0  0  0  0  0
   78.5940   81.0000   56.3020 O   0  0  0  0  0  0
   83.1230   73.5110   51.5860 C   0  0  0  0  0  0
   89.1830   69.2100   49.0520 N   0  0  0  0  0  0
   85.5330   72.6260   49.8790 C   0  0  0  0  0  0
   77.0630   75.0140   48.7230 C   0  0  0  0  0  0
   80.9210   77.0130   52.8220 O   0  0  0  0  0  0
   78.2450   76.1710   51.1770 C   0  0  0  0  0  0
   82.7000   74.2760   54.1770 C   0  0  0  0  0  0
   85.1920   74.8530   48.6620 C   0  0  0  0  0  0
   85.1510   68.8490   50.5370 C   0  0  0  0  0  0
   82.4240   75.6350   54.9300 C   0  0  0  0  0  0
   81.0500   74.8100   52.1050 N   0  0  0  0  0  0
   83.2280   72.2820   51.7470 O   0  0  0  0  0  0
   86.6260   73.0130   50.3610 O   0  0  0  0  0  0
   77.9760   76.3970   57.3610 N   0  0  0  0  0  0
   84.2580   73.9930   54.3440 C   0  0  0  0  0  0
   81.7710   73.1060   54.8210 C   0  0  0  0  0  0
   84.1000   69.2030   51.5750 C   0  0  0  0  0  0
   85.0160   77.5350   48.6840 C   0  0  0  0  0  0
   86.8650   69.6570   48.7370 C   0  0  1  0  0  0
   84.6120   76.4140   51.4640 C   0  0  0  0  0  0
   90.4530   69.4040   51.2790 C   0  0  0  0  0  0
   78.2160   76.2740   53.7120 N   0  0  0  0  0  0
   87.6070   67.6810   49.7150 O   0  0  0  0  0  0
   83.6700   74.3810   50.3910 N   0  0  0  0  0  0
   85.1090   71.2710   49.8070 N   0  0  0  0  0  0
   87.9180   68.7560   49.2130 C   0  0  0  0  0  0
   84.7820   69.1510   52.9260 C   0  0  0  0  0  0
   78.7660   74.5420   55.1950 O   0  0  0  0  0  0
   78.4770   75.7330   54.9740 C   0  0  0  0  0  0
   85.7120   77.4720   51.1440 C   0  0  0  0  0  0
   85.3360   78.3720   49.9480 C   0  0  0  0  0  0
   78.0050   77.6380   58.0400 C   0  0  0  0  0  0
   78.3800   76.6720   56.0200 C   0  0  0  0  0  0
   78.6920   78.0790   55.7830 C   0  0  0  0  0  0
   78.4380   78.6800   57.0880 C   0  0  3  0  0  0
   78.5280   80.1810   57.3320 N   0  3  0  0  0  0
   83.7324   76.1180   48.0550 H   0  0  0  0  0  0
   82.7763   76.6663   50.3668 H   0  0  0  0  0  0
   75.2040   75.0618   49.8154 H   0  0  0  0  0  0
   75.8650   76.6776   49.3928 H   0  0  0  0  0  0
   90.3180   67.7143   49.3515 H   0  0  0  0  0  0
   76.2232   76.5378   51.7439 H   0  0  0  0  0  0
   76.6842   74.8035   51.6642 H   0  0  0  0  0  0
   79.5525   74.7726   50.2368 H   0  0  0  0  0  0
   79.9657   76.4987   49.9601 H   0  0  0  0  0  0
   91.9819   70.5587   50.7972 H   0  0  0  0  0  0
   78.6782   74.6680   52.6663 H   0  0  0  0  0  0
   82.8470   75.3789   52.4765 H   0  0  0  0  0  0
   83.9231   73.0030   48.6196 H   0  0  0  0  0  0
   86.6174   70.3552   50.8443 H   0  0  0  0  0  0
   78.2905   76.7388   48.2597 H   0  0  0  0  0  0
   79.0701   75.1570   47.9184 H   0  0  0  0  0  0
   87.0618   71.7214   47.7971 H   0  0  0  0  0  0
   89.3670   69.9866   48.2950 H   0  0  0  0  0  0
   77.2392   73.9647   49.0021 H   0  0  0  0  0  0
   76.6009   75.0555   47.7256 H   0  0  0  0  0  0
   78.2042   77.2635   51.0555 H   0  0  0  0  0  0
   85.2639   74.6836   47.5775 H   0  0  0  0  0  0
   86.2025   74.9499   49.0857 H   0  0  0  0  0  0
   84.6233   68.3711   49.6985 H   0  0  0  0  0  0
   85.8300   68.1213   51.0054 H   0  0  0  0  0  0
   83.0509   76.4282   54.4966 H   0  0  0  0  0  0
   82.6654   75.5186   55.9969 H   0  0  0  0  0  0
   81.3633   75.9055   54.8214 H   0  0  0  0  0  0
   80.5188   74.1942   51.3644 H   0  0  0  0  0  0
   84.8307   74.8155   53.8907 H   0  0  0  0  0  0
   84.5147   73.0479   53.8432 H   0  0  0  0  0  0
   84.5048   73.9201   55.4135 H   0  0  0  0  0  0
   80.7103   73.3578   54.6745 H   0  0  0  0  0  0
   81.9824   73.0207   55.8971 H   0  0  0  0  0  0
   81.9923   72.1485   54.3268 H   0  0  0  0  0  0
   83.7107   70.2118   51.3733 H   0  0  0  0  0  0
   83.2764   68.4755   51.5257 H   0  0  0  0  0  0
   85.9672   77.4305   48.1416 H   0  0  0  0  0  0
   84.3187   78.1419   48.0878 H   0  0  0  0  0  0
   86.2764   69.1989   47.9285 H   0  0  0  0  0  0
   84.0197   76.8328   52.2909 H   0  0  0  0  0  0
   85.1457   75.5175   51.8126 H   0  0  0  0  0  0
   90.4366   69.8132   52.2999 H   0  0  0  0  0  0
   77.5054   77.1085   53.6192 H   0  0  0  0  0  0
   84.0399   71.1626   49.5719 H   0  0  0  0  0  0
   84.0558   69.4018   53.7132 H   0  0  0  0  0  0
   85.6100   69.8749   52.9469 H   0  0  0  0  0  0
   85.1757   68.1386   53.0993 H   0  0  0  0  0  0
   85.8641   78.1193   52.0203 H   0  0  0  0  0  0
   86.6538   76.9592   50.8990 H   0  0  0  0  0  0
   86.1819   79.0433   49.7388 H   0  0  0  0  0  0
   84.4545   78.9686   50.2256 H   0  0  0  0  0  0
   77.7283   77.6897   59.1034 H   0  0  0  0  0  0
   79.0240   78.4086   54.7874 H   0  0  0  0  0  0
  1  2  1  0  0  0
  1 24  1  0  0  0
  1 34  1  0  0  0
  1 53  1  0  0  0
  2 36  1  0  0  0
  2 40  1  0  0  0
  2 54  1  0  0  0
  3  5  1  0  0  0
  3 20  1  0  0  0
  3 55  1  0  0  0
  3 56  1  0  0  0
  4  8  1  0  0  0
  4 18  1  0  0  0
  4 37  1  0  0  0
  4 57  1  0  0  0
  5 22  1  0  0  0
  5 58  1  0  0  0
  5 59  1  0  0  0
  6 13  1  0  0  0
  6 22  1  0  0  0
  6 60  1  0  0  0
  6 61  1  0  0  0
  7 52  1  0  0  0
  8 37  2  0  0  0
  8 62  1  0  0  0
  9 14  1  0  0  0
  9 22  1  0  0  0
  9 38  1  0  0  0
  9 63  1  0  0  0
 10 17  1  0  0  0
 10 23  1  0  0  0
 10 27  1  0  0  0
 10 64  1  0  0  0
 11 19  1  0  0  0
 11 24  1  0  0  0
 11 40  1  0  0  0
 11 65  1  0  0  0
 12 25  1  0  0  0
 12 35  1  0  0  0
 12 41  1  0  0  0
 12 66  1  0  0  0
 13 20  1  0  0  0
 13 67  1  0  0  0
 13 68  1  0  0  0
 14 21  2  0  0  0
 14 27  1  0  0  0
 15 35  1  0  0  0
 15 69  1  0  0  0
 16 52  2  0  0  0
 17 28  2  0  0  0
 17 40  1  0  0  0
 18 42  1  0  0  0
 18 70  1  0  0  0
 19 29  2  0  0  0
 19 41  1  0  0  0
 20 71  1  0  0  0
 20 72  1  0  0  0
 22 73  1  0  0  0
 23 26  1  0  0  0
 23 31  1  0  0  0
 23 32  1  0  0  0
 24 74  1  0  0  0
 24 75  1  0  0  0
 25 33  1  0  0  0
 25 76  1  0  0  0
 25 77  1  0  0  0
 26 78  1  0  0  0
 26 79  1  0  0  0
 26 80  1  0  0  0
 27 81  1  0  0  0
 30 48  2  0  0  0
 30 49  1  0  0  0
 31 82  1  0  0  0
 31 83  1  0  0  0
 31 84  1  0  0  0
 32 85  1  0  0  0
 32 86  1  0  0  0
 32 87  1  0  0  0
 33 43  1  0  0  0
 33 88  1  0  0  0
 33 89  1  0  0  0
 34 47  1  0  0  0
 34 90  1  0  0  0
 34 91  1  0  0  0
 35 42  1  0  0  0
 35 92  1  0  0  0
 36 46  1  0  0  0
 36 93  1  0  0  0
 36 94  1  0  0  0
 37 95  1  0  0  0
 38 45  1  0  0  0
 38 96  1  0  0  0
 39 42  2  0  0  0
 41 97  1  0  0  0
 43 98  1  0  0  0
 43 99  1  0  0  0
 43100  1  0  0  0
 44 45  2  0  0  0
 45 49  1  0  0  0
 46 47  1  0  0  0
 46101  1  0  0  0
 46102  1  0  0  0
 47103  1  0  0  0
 47104  1  0  0  0
 48 51  1  0  0  0
 48105  1  0  0  0
 49 50  2  0  0  0
 50 51  1  0  0  0
 50106  1  0  0  0
 51 52  1  0  0  0
M  CHG  2   7  -1  52   1
M  END
> <s_m_source_file>
../2p59_ligand.sdf

> <i_m_source_file_index>
1

> <s_epik_input>
W0NIXTE9W0NIXVtDSF0xW05IXUMoPU8pW0NASF0oW09IXSlbQ0BIXShbQ0gyXVtDSDJdW0NIM10pW05IXUMoPU8pW0NASF0oW0NIMl0yKU4oW0NASF0oW0NASF0yMylbQ0gyXVtDSDJdW0NIMl1bQ0gyXTMpQyg9TylbQ0BIXShDKFtDSDNdKShbQ0gzXSlbQ0gzXSlbTkhdQyg9TylbQ0BIXShbQ0hdNFtDSDJdW0NIMl1bQ0gyXVtDSDJdW0NIMl00KVtOSF1DKD1PKUM1PVtDSF1bQ0hdKFtDSF09TjUpW04rXShbTy1dKT1P

> <s_epik_cmdline>
J2VwaWtfYXBwJywgJy1pbWFlJywgJ2xpZ2FuZF9wcm8ubWFlJywgJy1vbWFlJywgJ2xpZ2FuZF9wcmVwLm1hZScsICctbXMnLCAnMScsICctcGgnLCAnNycsICctcGh0JywgJzAuNScsICctbnQn

> <r_epik_Ionization_Penalty>
  0.2560

> <r_epik_Ionization_Penalty_Charging>
  0.0000

> <r_epik_Ionization_Penalty_Neutral>
  0.2560

> <r_epik_State_Penalty>
  0.2475

> <r_epik_Charging_Adjusted_Penalty>
0.247541558587036

> <i_epik_Tot_Q>
0

> <i_epik_Tot_abs_Q>
2

> <s_epik_Chemistry_Notes>
This compound has an imine and may undergo hydrolysis.

$$$$
