2p7a_ligand
                    3D
 Schrodinger Suite 2020-3.
 16 16  0  0  1  0            999 V2000
   49.2170  -26.6050  -94.6520 C   0  0  0  0  0  0
   48.5980  -27.3830  -95.6670 C   0  0  0  0  0  0
   47.4150  -26.9030  -96.3410 C   0  0  0  0  0  0
   46.7120  -27.6820  -97.4270 C   0  0  0  0  0  0
   46.8900  -25.6310  -95.9630 C   0  0  0  0  0  0
   47.5210  -24.8620  -94.9470 C   0  0  0  0  0  0
   48.6810  -25.3420  -94.2880 C   0  0  0  0  0  0
   49.3230  -28.9030  -96.0450 Cl  0  0  0  0  0  0
   46.9740  -23.6490  -94.6330 O   0  0  0  0  0  0
   50.1087  -26.9802  -94.1499 H   0  0  0  0  0  0
   47.2394  -28.6323  -97.5966 H   0  0  0  0  0  0
   46.7083  -27.0937  -98.3564 H   0  0  0  0  0  0
   45.6762  -27.8874  -97.1190 H   0  0  0  0  0  0
   45.9981  -25.2458  -96.4571 H   0  0  0  0  0  0
   49.1569  -24.7465  -93.5089 H   0  0  0  0  0  0
   46.0735  -23.2990  -95.1589 H   0  0  0  0  0  0
  1  2  2  0  0  0
  1  7  1  0  0  0
  1 10  1  0  0  0
  2  3  1  0  0  0
  2  8  1  0  0  0
  3  4  1  0  0  0
  3  5  2  0  0  0
  4 11  1  0  0  0
  4 12  1  0  0  0
  4 13  1  0  0  0
  5  6  1  0  0  0
  5 14  1  0  0  0
  6  7  2  0  0  0
  6  9  1  0  0  0
  7 15  1  0  0  0
  9 16  1  0  0  0
M  END
> <s_m_source_file>
../2p7a_ligand.sdf

> <i_m_source_file_index>
1

> <s_epik_input>
Q2xjMVtjSF1bY0hdYyhbT0hdKVtjSF1jMVtDSDNd

> <s_epik_cmdline>
J2VwaWtfYXBwJywgJy1pbWFlJywgJ2xpZ2FuZF9wcm8ubWFlJywgJy1vbWFlJywgJ2xpZ2FuZF9wcmVwLm1hZScsICctbXMnLCAnMScsICctcGgnLCAnNycsICctcGh0JywgJzAuNScsICctbnQn

> <r_lp_tautomer_probability>
1

> <r_epik_Ionization_Penalty>
  0.0026

> <r_epik_Ionization_Penalty_Charging>
  0.0000

> <r_epik_Ionization_Penalty_Neutral>
  0.0026

> <r_epik_State_Penalty>
 -0.0000

> <r_epik_Charging_Adjusted_Penalty>
0

> <i_epik_Tot_Q>
0

> <i_epik_Tot_abs_Q>
0

$$$$
