2p7g_ligand
                    3D
 Schrodinger Suite 2020-3.
 33 34  0  0  1  0            999 V2000
   48.5790  -29.6480 -101.2110 O   0  0  0  0  0  0
   48.5640  -29.4780  -99.8580 C   0  0  0  0  0  0
   47.5250  -30.0870  -99.1290 C   0  0  0  0  0  0
   47.4680  -29.9360  -97.7110 C   0  0  0  0  0  0
   49.5590  -28.7140  -99.1980 C   0  0  0  0  0  0
   49.5080  -28.5580  -97.7840 C   0  0  0  0  0  0
   48.4580  -29.1650  -96.9920 C   0  0  0  0  0  0
   48.4200  -28.9690  -95.4200 C   0  0  0  0  0  0
   49.7240  -29.6120  -94.8290 C   0  0  0  0  0  0
   47.2320  -29.7120  -94.7540 C   0  0  0  0  0  0
   48.2150  -27.4370  -95.0660 C   0  0  0  0  0  0
   49.1120  -26.6650  -94.2480 C   0  0  0  0  0  0
   48.8460  -25.2860  -93.9710 C   0  0  0  0  0  0
   47.0510  -26.7480  -95.5860 C   0  0  0  0  0  0
   46.7960  -25.3860  -95.3140 C   0  0  0  0  0  0
   47.6860  -24.6620  -94.5100 C   0  0  0  0  0  0
   47.4540  -23.3420  -94.2300 O   0  0  0  0  0  0
   47.7950  -30.2457 -101.6989 H   0  0  0  0  0  0
   46.7654  -30.6728  -99.6466 H   0  0  0  0  0  0
   46.6595  -30.4129  -97.1570 H   0  0  0  0  0  0
   50.3603  -28.2476  -99.7712 H   0  0  0  0  0  0
   50.2771  -27.9680  -97.2856 H   0  0  0  0  0  0
   49.7785  -30.6697  -95.1263 H   0  0  0  0  0  0
   49.7033  -29.5401  -93.7315 H   0  0  0  0  0  0
   50.6041  -29.0768  -95.2150 H   0  0  0  0  0  0
   47.3112  -30.7895  -94.9607 H   0  0  0  0  0  0
   46.2850  -29.3290  -95.1620 H   0  0  0  0  0  0
   47.2576  -29.5443  -93.6672 H   0  0  0  0  0  0
   50.0041  -27.1354  -93.8345 H   0  0  0  0  0  0
   49.5323  -24.7136  -93.3469 H   0  0  0  0  0  0
   46.3476  -27.3005  -96.2090 H   0  0  0  0  0  0
   45.9118  -24.9007  -95.7272 H   0  0  0  0  0  0
   48.1586  -22.7818  -93.5977 H   0  0  0  0  0  0
  1  2  1  0  0  0
  1 18  1  0  0  0
  2  3  2  0  0  0
  2  5  1  0  0  0
  3  4  1  0  0  0
  3 19  1  0  0  0
  4  7  2  0  0  0
  4 20  1  0  0  0
  5  6  2  0  0  0
  5 21  1  0  0  0
  6  7  1  0  0  0
  6 22  1  0  0  0
  7  8  1  0  0  0
  8  9  1  0  0  0
  8 10  1  0  0  0
  8 11  1  0  0  0
  9 23  1  0  0  0
  9 24  1  0  0  0
  9 25  1  0  0  0
 10 26  1  0  0  0
 10 27  1  0  0  0
 10 28  1  0  0  0
 11 12  2  0  0  0
 11 14  1  0  0  0
 12 13  1  0  0  0
 12 29  1  0  0  0
 13 16  2  0  0  0
 13 30  1  0  0  0
 14 15  2  0  0  0
 14 31  1  0  0  0
 15 16  1  0  0  0
 15 32  1  0  0  0
 16 17  1  0  0  0
 17 33  1  0  0  0
M  END
> <s_m_source_file>
../2p7g_ligand.sdf

> <i_m_source_file_index>
1

> <s_epik_input>
W09IXWMxW2NIXVtjSF1jKFtjSF1bY0hdMSlDKFtDSDNdKShbQ0gzXSljMltjSF1bY0hdYyhbT0hdKVtjSF1bY0hdMg==

> <s_epik_cmdline>
J2VwaWtfYXBwJywgJy1pbWFlJywgJ2xpZ2FuZF9wcm8ubWFlJywgJy1vbWFlJywgJ2xpZ2FuZF9wcmVwLm1hZScsICctbXMnLCAnMScsICctcGgnLCAnNycsICctcGh0JywgJzAuNScsICctbnQn

> <r_lp_tautomer_probability>
0.99999999999473

> <r_epik_Ionization_Penalty>
  0.0746

> <r_epik_Ionization_Penalty_Charging>
  0.0000

> <r_epik_Ionization_Penalty_Neutral>
  0.0746

> <r_epik_State_Penalty>
  0.0657

> <r_epik_Charging_Adjusted_Penalty>
0.0657047236635915

> <i_epik_Tot_Q>
0

> <i_epik_Tot_abs_Q>
0

$$$$
