2p7z_ligand
                    3D
 Schrodinger Suite 2020-3.
 59 61  0  0  1  0            999 V2000
   48.2330  -29.3590  -99.9140 C   0  0  0  0  0  0
   49.2520  -29.0890  -98.7940 C   0  0  0  0  0  0
   49.0700  -29.9170  -97.4700 C   0  0  0  0  0  0
   49.3450  -31.3290  -97.7080 C   0  0  0  0  0  0
   48.3500  -32.2940  -97.4170 C   0  0  0  0  0  0
   48.6170  -33.6620  -97.6420 C   0  0  0  0  0  0
   49.8820  -34.0730  -98.1570 C   0  0  0  0  0  0
   50.8800  -33.1210  -98.4480 C   0  0  0  0  0  0
   50.6150  -31.7490  -98.2250 C   0  0  0  0  0  0
   48.7180  -29.4030  -96.2040 C   0  0  0  0  0  0
   48.2640  -27.9550  -95.9440 C   0  0  0  0  0  0
   49.0150  -27.0930  -95.0740 C   0  0  0  0  0  0
   48.5780  -25.7570  -94.8150 C   0  0  0  0  0  0
   47.3880  -25.2720  -95.4250 C   0  0  0  0  0  0
   46.9940  -23.9930  -95.1540 O   0  0  0  0  0  0
   46.6330  -26.0950  -96.2870 C   0  0  0  0  0  0
   47.0660  -27.4280  -96.5420 C   0  0  0  0  0  0
   48.7560  -30.2940  -95.0090 C   0  0  0  0  0  0
   49.9430  -30.9790  -94.5770 C   0  0  0  0  0  0
   49.9380  -31.7390  -93.3700 C   0  0  0  0  0  0
   48.7470  -31.8250  -92.5830 C   0  0  0  0  0  0
   48.7750  -32.5580  -91.4860 O   0  0  0  0  0  0
   48.5020  -32.0500  -90.1680 C   0  0  0  0  0  0
   48.6480  -33.2450  -89.2000 C   0  0  0  0  0  0
   49.9920  -33.4070  -88.5720 N   0  3  0  0  0  0
   50.9960  -32.6270  -89.3330 C   0  0  0  0  0  0
   50.0270  -32.9800  -87.1480 C   0  0  0  0  0  0
   47.5780  -31.1490  -93.0330 C   0  0  0  0  0  0
   47.5760  -30.3890  -94.2270 C   0  0  0  0  0  0
   48.4646  -28.7235 -100.7815 H   0  0  0  0  0  0
   47.2202  -29.1295  -99.5513 H   0  0  0  0  0  0
   48.2854  -30.4171 -100.2101 H   0  0  0  0  0  0
   50.2648  -29.3185  -99.1567 H   0  0  0  0  0  0
   49.1996  -28.0309  -98.4978 H   0  0  0  0  0  0
   47.3833  -31.9822  -97.0215 H   0  0  0  0  0  0
   47.8530  -34.4074  -97.4212 H   0  0  0  0  0  0
   50.0786  -35.1316  -98.3269 H   0  0  0  0  0  0
   51.8459  -33.4384  -98.8408 H   0  0  0  0  0  0
   51.3813  -31.0064  -98.4477 H   0  0  0  0  0  0
   49.9279  -27.4618  -94.6064 H   0  0  0  0  0  0
   49.1547  -25.1119  -94.1522 H   0  0  0  0  0  0
   47.5937  -23.3639  -94.4797 H   0  0  0  0  0  0
   45.7251  -25.7137  -96.7544 H   0  0  0  0  0  0
   46.4771  -28.0624  -97.2044 H   0  0  0  0  0  0
   50.8522  -30.9175  -95.1750 H   0  0  0  0  0  0
   50.8425  -32.2546  -93.0472 H   0  0  0  0  0  0
   49.2231  -31.2559  -89.9245 H   0  0  0  0  0  0
   47.4815  -31.6407  -90.1369 H   0  0  0  0  0  0
   47.9316  -33.1361  -88.3724 H   0  0  0  0  0  0
   48.4447  -34.1814  -89.7402 H   0  0  0  0  0  0
   50.2311  -34.4803  -88.5994 H   0  0  0  0  0  0
   50.9774  -32.9363  -90.3885 H   0  0  0  0  0  0
   51.9967  -32.8105  -88.9147 H   0  0  0  0  0  0
   50.7592  -31.5552  -89.2607 H   0  0  0  0  0  0
   49.2843  -33.5542  -86.5747 H   0  0  0  0  0  0
   49.7926  -31.9074  -87.0810 H   0  0  0  0  0  0
   51.0300  -33.1626  -86.7350 H   0  0  0  0  0  0
   46.6632  -31.2182  -92.4444 H   0  0  0  0  0  0
   46.6681  -29.8768  -94.5457 H   0  0  0  0  0  0
  1  2  1  0  0  0
  1 30  1  0  0  0
  1 31  1  0  0  0
  1 32  1  0  0  0
  2  3  1  0  0  0
  2 33  1  0  0  0
  2 34  1  0  0  0
  3  4  1  0  0  0
  3 10  2  0  0  0
  4  5  2  0  0  0
  4  9  1  0  0  0
  5  6  1  0  0  0
  5 35  1  0  0  0
  6  7  2  0  0  0
  6 36  1  0  0  0
  7  8  1  0  0  0
  7 37  1  0  0  0
  8  9  2  0  0  0
  8 38  1  0  0  0
  9 39  1  0  0  0
 10 11  1  0  0  0
 10 18  1  0  0  0
 11 12  2  0  0  0
 11 17  1  0  0  0
 12 13  1  0  0  0
 12 40  1  0  0  0
 13 14  2  0  0  0
 13 41  1  0  0  0
 14 15  1  0  0  0
 14 16  1  0  0  0
 15 42  1  0  0  0
 16 17  2  0  0  0
 16 43  1  0  0  0
 17 44  1  0  0  0
 18 19  2  0  0  0
 18 29  1  0  0  0
 19 20  1  0  0  0
 19 45  1  0  0  0
 20 21  2  0  0  0
 20 46  1  0  0  0
 21 22  1  0  0  0
 21 28  1  0  0  0
 22 23  1  0  0  0
 23 24  1  0  0  0
 23 47  1  0  0  0
 23 48  1  0  0  0
 24 25  1  0  0  0
 24 49  1  0  0  0
 24 50  1  0  0  0
 25 26  1  0  0  0
 25 27  1  0  0  0
 25 51  1  0  0  0
 26 52  1  0  0  0
 26 53  1  0  0  0
 26 54  1  0  0  0
 27 55  1  0  0  0
 27 56  1  0  0  0
 27 57  1  0  0  0
 28 29  2  0  0  0
 28 58  1  0  0  0
 29 59  1  0  0  0
M  CHG  1  25   1
M  END
> <s_m_source_file>
../2p7z_ligand.sdf

> <i_m_source_file_index>
1

> <s_epik_input>
W2NIXTFbY0hdW2NIXVtjSF1bY0hdYzFDKFxbQ0gyXVtDSDNdKT1DKFxjMltjSF1bY0hdYyhbT0hdKVtjSF1bY0hdMiljM1tjSF1bY0hdYyhbY0hdW2NIXTMpT1tDSDJdW0NIMl1bTkgrXShbQ0gzXSlbQ0gzXQ==

> <s_epik_cmdline>
J2VwaWtfYXBwJywgJy1pbWFlJywgJ2xpZ2FuZF9wcm8ubWFlJywgJy1vbWFlJywgJ2xpZ2FuZF9wcmVwLm1hZScsICctbXMnLCAnMScsICctcGgnLCAnNycsICctcGh0JywgJzAuNScsICctbnQn

> <r_epik_Ionization_Penalty>
  0.0251

> <r_epik_Ionization_Penalty_Charging>
  0.0248

> <r_epik_Ionization_Penalty_Neutral>
  0.0003

> <r_epik_State_Penalty>
  0.0202

> <r_epik_Charging_Adjusted_Penalty>
0.0449633694247609

> <i_epik_Tot_Q>
1

> <i_epik_Tot_abs_Q>
1

$$$$
