2p83_ligand
                    3D
 Schrodinger Suite 2020-3.
 85 87  0  0  1  0            999 V2000
  -23.1910   56.9660   64.0390 N   0  0  0  0  0  0
  -25.6080   57.0410   64.4350 C   0  0  0  0  0  0
  -25.4090   57.5420   65.7700 C   0  0  0  0  0  0
  -26.3000   58.1290   68.1220 C   0  0  0  0  0  0
  -29.2860   56.1760   64.4740 C   0  0  0  0  0  0
  -24.4760   56.9980   63.4910 C   0  0  0  0  0  0
  -25.3990   60.6170   67.7380 C   0  0  0  0  0  0
  -26.6470   61.2590   67.0870 C   0  0  0  0  0  0
  -21.8950   56.9600   63.2570 C   0  0  1  0  0  0
  -20.9590   57.9280   64.0340 C   0  0  0  0  0  0
  -22.4840   53.3060   59.6490 C   0  0  0  0  0  0
  -23.7590   53.5870   59.0400 C   0  0  0  0  0  0
  -23.8240   54.3330   57.7990 C   0  0  0  0  0  0
  -21.3010   54.5330   57.7590 C   0  0  0  0  0  0
  -22.9390   61.2620   63.4260 C   0  0  0  0  0  0
  -21.6530   59.3000   64.3070 C   0  0  0  0  0  0
  -26.5170   57.6040   66.7220 C   0  0  0  0  0  0
  -27.8120   57.1570   66.3130 C   0  0  0  0  0  0
  -27.9810   56.6560   64.9600 C   0  0  0  0  0  0
  -26.8830   56.6020   64.0360 C   0  0  0  0  0  0
  -26.8860   57.5070   69.0410 O   0  0  0  0  0  0
  -25.4990   59.2770   68.4870 N   0  0  0  0  0  0
  -24.7090   59.1130   69.7700 C   0  0  0  0  0  0
  -23.2720   59.7260   69.7060 C   0  0  0  0  0  0
  -22.2190   58.6630   69.2690 C   0  0  0  0  0  0
  -27.7990   61.2990   68.1000 C   0  0  0  0  0  0
  -24.6430   57.0100   62.2660 O   0  0  0  0  0  0
  -21.2460   55.6060   62.9840 C   0  0  1  0  0  0
  -22.1630   54.7100   62.1750 C   0  0  0  0  0  0
  -21.5070   53.3930   61.8670 N   0  3  0  0  0  0
  -22.3780   52.5320   60.9960 C   0  0  0  0  0  0
  -22.6000   54.7960   57.1770 C   0  0  0  0  0  0
  -21.2660   53.7940   58.9810 C   0  0  0  0  0  0
  -20.2220   55.0470   57.0450 O   0  0  0  0  0  0
  -22.2810   60.0060   63.2270 C   0  0  0  0  0  0
  -21.6930   59.8860   65.6460 C   0  0  0  0  0  0
  -22.3580   61.1590   65.8560 C   0  0  0  0  0  0
  -22.9810   61.8370   64.7340 C   0  0  0  0  0  0
  -20.0390   55.8500   62.2320 O   0  0  0  0  0  0
  -18.8620   54.8920   57.4650 C   0  0  0  0  0  0
  -30.4530   56.7200   65.0170 N   0  0  0  0  0  0
  -29.3280   55.2790   63.5670 O   0  0  0  0  0  0
  -22.3990   61.6920   67.0530 F   0  0  0  0  0  0
  -23.5100   61.8900   62.4130 F   0  0  0  0  0  0
  -23.1700   56.9440   65.1386 H   0  0  0  0  0  0
  -24.4186   57.8798   66.0752 H   0  0  0  0  0  0
  -24.6411   60.4226   66.9648 H   0  0  0  0  0  0
  -24.9855   61.3023   68.4926 H   0  0  0  0  0  0
  -26.4076   62.2841   66.7677 H   0  0  0  0  0  0
  -26.9516   60.6644   66.2131 H   0  0  0  0  0  0
  -22.1267   57.2647   62.2258 H   0  0  0  0  0  0
  -20.6863   57.4778   64.9999 H   0  0  0  0  0  0
  -20.0485   58.1100   63.4442 H   0  0  0  0  0  0
  -24.6766   53.2379   59.5134 H   0  0  0  0  0  0
  -24.7880   54.5445   57.3364 H   0  0  0  0  0  0
  -28.6555   57.1914   67.0025 H   0  0  0  0  0  0
  -27.0377   56.2211   63.0265 H   0  0  0  0  0  0
  -25.2409   59.6107   70.5942 H   0  0  0  0  0  0
  -24.5985   58.0426   69.9983 H   0  0  0  0  0  0
  -23.2574   60.5511   68.9787 H   0  0  0  0  0  0
  -22.9915   60.1074   70.6989 H   0  0  0  0  0  0
  -21.2222   59.1269   69.2346 H   0  0  0  0  0  0
  -22.4788   58.2779   68.2719 H   0  0  0  0  0  0
  -22.2129   57.8341   69.9921 H   0  0  0  0  0  0
  -28.6832   61.7562   67.6319 H   0  0  0  0  0  0
  -27.4978   61.8946   68.9744 H   0  0  0  0  0  0
  -28.0417   60.2749   68.4198 H   0  0  0  0  0  0
  -20.9845   55.0947   63.9222 H   0  0  0  0  0  0
  -23.0839   54.5175   62.7450 H   0  0  0  0  0  0
  -22.4160   55.2054   61.2260 H   0  0  0  0  0  0
  -20.5573   53.5705   61.3411 H   0  0  0  0  0  0
  -21.3113   52.8526   62.8049 H   0  0  0  0  0  0
  -23.3827   52.4033   61.4250 H   0  0  0  0  0  0
  -21.9265   51.5450   60.8172 H   0  0  0  0  0  0
  -22.6590   55.3580   56.2449 H   0  0  0  0  0  0
  -20.2988   53.5829   59.4372 H   0  0  0  0  0  0
  -22.2564   59.5738   62.2267 H   0  0  0  0  0  0
  -21.2251   59.3687   66.4836 H   0  0  0  0  0  0
  -23.4843   62.7912   64.8899 H   0  0  0  0  0  0
  -19.2455   56.4831   62.6557 H   0  0  0  0  0  0
  -18.1961   55.3824   56.7397 H   0  0  0  0  0  0
  -18.6160   53.8214   57.5232 H   0  0  0  0  0  0
  -18.7291   55.3531   58.4548 H   0  0  0  0  0  0
  -30.3883   57.4921   65.7978 H   0  0  0  0  0  0
  -31.4363   56.3762   64.6636 H   0  0  0  0  0  0
  1  6  1  0  0  0
  1  9  1  0  0  0
  1 45  1  0  0  0
  2  3  2  0  0  0
  2  6  1  0  0  0
  2 20  1  0  0  0
  3 17  1  0  0  0
  3 46  1  0  0  0
  4 17  1  0  0  0
  4 21  2  0  0  0
  4 22  1  0  0  0
  5 19  1  0  0  0
  5 41  1  0  0  0
  5 42  2  0  0  0
  6 27  2  0  0  0
  7  8  1  0  0  0
  7 22  1  0  0  0
  7 47  1  0  0  0
  7 48  1  0  0  0
  8 26  1  0  0  0
  8 49  1  0  0  0
  8 50  1  0  0  0
  9 10  1  0  0  0
  9 28  1  0  0  0
  9 51  1  0  0  0
 10 16  1  0  0  0
 10 52  1  0  0  0
 10 53  1  0  0  0
 11 12  2  0  0  0
 11 31  1  0  0  0
 11 33  1  0  0  0
 12 13  1  0  0  0
 12 54  1  0  0  0
 13 32  2  0  0  0
 13 55  1  0  0  0
 14 32  1  0  0  0
 14 33  2  0  0  0
 14 34  1  0  0  0
 15 35  2  0  0  0
 15 38  1  0  0  0
 15 44  1  0  0  0
 16 35  1  0  0  0
 16 36  2  0  0  0
 17 18  2  0  0  0
 18 19  1  0  0  0
 18 56  1  0  0  0
 19 20  2  0  0  0
 20 57  1  0  0  0
 22 23  1  0  0  0
 23 24  1  0  0  0
 23 58  1  0  0  0
 23 59  1  0  0  0
 24 25  1  0  0  0
 24 60  1  0  0  0
 24 61  1  0  0  0
 25 62  1  0  0  0
 25 63  1  0  0  0
 25 64  1  0  0  0
 26 65  1  0  0  0
 26 66  1  0  0  0
 26 67  1  0  0  0
 28 29  1  0  0  0
 28 39  1  0  0  0
 28 68  1  0  0  0
 29 30  1  0  0  0
 29 69  1  0  0  0
 29 70  1  0  0  0
 30 31  1  0  0  0
 30 71  1  0  0  0
 30 72  1  0  0  0
 31 73  1  0  0  0
 31 74  1  0  0  0
 32 75  1  0  0  0
 33 76  1  0  0  0
 34 40  1  0  0  0
 35 77  1  0  0  0
 36 37  1  0  0  0
 36 78  1  0  0  0
 37 38  2  0  0  0
 37 43  1  0  0  0
 38 79  1  0  0  0
 39 80  1  0  0  0
 40 81  1  0  0  0
 40 82  1  0  0  0
 40 83  1  0  0  0
 41 84  1  0  0  0
 41 85  1  0  0  0
M  CHG  1  30   1
M  END
> <s_m_source_file>
../2p83_ligand.sdf

> <i_m_source_file_index>
1

> <s_epik_input>
W0NIM11bQ0gyXVtDSDJdTihbQ0gyXVtDSDJdW0NIM10pQyg9TyljKFtjSF1jKFtjSF0xKUMoPU8pW05IMl0pW2NIXWMxQyg9TylbTkhdW0NAQEhdKFtDSDJdYyhbY0hdYzJGKVtjSF1jKEYpW2NIXTIpW0NASF0oW09IXSlbQ0gyXVtOSDIrXVtDSDJdYzNbY0hdW2NIXVtjSF1jKFtjSF0zKU9bQ0gzXQ==

> <s_epik_cmdline>
J2VwaWtfYXBwJywgJy1pbWFlJywgJ2xpZ2FuZF9wcm8ubWFlJywgJy1vbWFlJywgJ2xpZ2FuZF9wcmVwLm1hZScsICctbXMnLCAnMScsICctcGgnLCAnNycsICctcGh0JywgJzAuNScsICctbnQn

> <r_lp_tautomer_probability>
1

> <r_epik_Ionization_Penalty>
  0.0203

> <r_epik_Ionization_Penalty_Charging>
  0.0203

> <r_epik_Ionization_Penalty_Neutral>
  0.0000

> <r_epik_State_Penalty>
  0.0163

> <r_epik_Charging_Adjusted_Penalty>
0.0366092764671401

> <i_epik_Tot_Q>
1

> <i_epik_Tot_abs_Q>
1

$$$$
