2p8n_ligand
                    3D
 Schrodinger Suite 2020-3.
 15 16  0  0  1  0            999 V2000
  -23.2210   11.9740   -8.6430 N   0  3  0  0  0  0
  -23.9430   12.3660   -7.5400 C   0  0  0  0  0  0
  -24.2420   11.3970   -6.7270 N   0  0  0  0  0  0
  -23.6880   10.2970   -7.3000 C   0  0  0  0  0  0
  -23.6690    8.9490   -6.9250 C   0  0  0  0  0  0
  -24.2520    8.5300   -5.7940 N   0  0  0  0  0  0
  -23.0060    8.1060   -7.7700 N   0  0  0  0  0  0
  -22.4380    8.5840   -8.8910 C   0  0  0  0  0  0
  -22.3920    9.8150   -9.3550 N   0  0  0  0  0  0
  -23.0610   10.6250   -8.4930 C   0  0  0  0  0  0
  -24.2389   13.4000   -7.3629 H   0  0  0  0  0  0
  -24.7748    9.2487   -5.1458 H   0  0  0  0  0  0
  -24.2079    7.4673   -5.5135 H   0  0  0  0  0  0
  -21.9394    7.8382   -9.5102 H   0  0  0  0  0  0
  -22.9158   12.7181   -9.3935 H   0  0  0  0  0  0
  1  2  2  0  0  0
  1 10  1  0  0  0
  1 15  1  0  0  0
  2  3  1  0  0  0
  2 11  1  0  0  0
  3  4  1  0  0  0
  4  5  1  0  0  0
  4 10  2  0  0  0
  5  6  1  0  0  0
  5  7  2  0  0  0
  6 12  1  0  0  0
  6 13  1  0  0  0
  7  8  1  0  0  0
  8  9  2  0  0  0
  8 14  1  0  0  0
  9 10  1  0  0  0
M  CHG  1   1   1
M  END
> <s_m_source_file>
../2p8n_ligand.sdf

> <i_m_source_file_index>
1

> <s_epik_input>
W25IXTFbY0hdbmMoYzEyKW5bY0hdbmMyW05IMl0=

> <s_epik_cmdline>
J2VwaWtfYXBwJywgJy1pbWFlJywgJ2xpZ2FuZF9wcm8ubWFlJywgJy1vbWFlJywgJ2xpZ2FuZF9wcmVwLm1hZScsICctbXMnLCAnMScsICctcGgnLCAnNycsICctcGh0JywgJzAuNScsICctbnQn

> <r_epik_Ionization_Penalty>
  0.0017

> <r_epik_Ionization_Penalty_Charging>
  0.0000

> <r_epik_Ionization_Penalty_Neutral>
  0.0017

> <r_epik_State_Penalty>
  0.0711

> <r_epik_Charging_Adjusted_Penalty>
0.0711426176655075

> <i_epik_Tot_Q>
1

> <i_epik_Tot_abs_Q>
1

$$$$
