2p8s_ligand
                    3D
 Schrodinger Suite 2020-3.
 49 52  0  0  1  0            999 V2000
   34.7310   50.4710   36.3910 C   0  0  0  0  0  0
   35.9770   51.0680   36.5800 C   0  0  0  0  0  0
   37.2100   50.3820   36.3930 C   0  0  0  0  0  0
   37.1530   49.0100   35.9870 C   0  0  0  0  0  0
   35.8900   48.3970   35.7950 C   0  0  0  0  0  0
   34.6950   49.1280   35.9960 C   0  0  0  0  0  0
   38.5190   51.1180   36.6180 C   0  0  1  0  0  0
   39.4530   50.3730   37.6060 C   0  0  0  0  0  0
   40.7550   51.1730   37.8190 C   0  0  0  0  0  0
   41.5200   51.4310   36.4790 C   0  0  1  0  0  0
   40.5800   52.1470   35.4690 C   0  0  0  0  0  0
   39.2640   51.3620   35.2580 C   0  0  2  0  0  0
   42.7790   52.2300   36.6550 N   0  0  2  0  0  0
   43.9240   51.4030   37.1440 C   0  0  0  0  0  0
   45.2800   52.1690   37.1080 C   0  0  0  0  0  0
   45.1260   53.5950   37.5070 N   0  0  0  0  0  0
   43.9470   54.2130   37.7040 C   0  0  0  0  0  0
   42.6280   53.4650   37.5260 C   0  0  0  0  0  0
   46.0350   54.5570   37.7680 C   0  0  0  0  0  0
   45.3680   55.6890   38.0910 N   0  0  0  0  0  0
   44.1360   55.4830   38.0550 N   0  0  0  0  0  0
   35.8440   47.1120   35.4190 F   0  0  0  0  0  0
   35.9780   52.3450   36.9570 F   0  0  0  0  0  0
   38.3910   52.0670   34.3150 N   0  3  0  0  0  0
   47.5570   54.4190   37.7080 C   0  0  0  0  0  0
   48.1170   55.5870   38.0250 F   0  0  0  0  0  0
   47.8820   54.0480   36.4740 F   0  0  0  0  0  0
   47.9070   53.4850   38.5850 F   0  0  0  0  0  0
   33.5100   48.5560   35.8190 F   0  0  0  0  0  0
   33.8107   51.0341   36.5464 H   0  0  0  0  0  0
   38.0706   48.4437   35.8275 H   0  0  0  0  0  0
   38.2329   52.0746   37.0797 H   0  0  0  0  0  0
   38.9429   50.2532   38.5732 H   0  0  0  0  0  0
   39.7029   49.3824   37.1982 H   0  0  0  0  0  0
   40.5167   52.1484   38.2681 H   0  0  0  0  0  0
   41.4233   50.6138   38.4903 H   0  0  0  0  0  0
   41.8639   50.4617   36.0888 H   0  0  0  0  0  0
   40.3290   53.1485   35.8483 H   0  0  0  0  0  0
   41.0878   52.2395   34.4976 H   0  0  0  0  0  0
   39.4967   50.4019   34.7741 H   0  0  0  0  0  0
   43.7379   51.0978   38.1843 H   0  0  0  0  0  0
   44.0264   50.5084   36.5121 H   0  0  0  0  0  0
   45.9886   51.6929   37.8018 H   0  0  0  0  0  0
   45.6904   52.1403   36.0878 H   0  0  0  0  0  0
   41.9055   54.1536   37.0636 H   0  0  0  0  0  0
   42.2669   53.1693   38.5221 H   0  0  0  0  0  0
   37.4616   51.4948   34.1777 H   0  0  0  0  0  0
   38.9041   52.1707   33.3476 H   0  0  0  0  0  0
   38.1521   53.0646   34.7121 H   0  0  0  0  0  0
  1  2  2  0  0  0
  1  6  1  0  0  0
  1 30  1  0  0  0
  2  3  1  0  0  0
  2 23  1  0  0  0
  3  4  2  0  0  0
  3  7  1  0  0  0
  4  5  1  0  0  0
  4 31  1  0  0  0
  5  6  2  0  0  0
  5 22  1  0  0  0
  6 29  1  0  0  0
  7  8  1  0  0  0
  7 12  1  0  0  0
  7 32  1  0  0  0
  8  9  1  0  0  0
  8 33  1  0  0  0
  8 34  1  0  0  0
  9 10  1  0  0  0
  9 35  1  0  0  0
  9 36  1  0  0  0
 10 11  1  0  0  0
 10 13  1  0  0  0
 10 37  1  0  0  0
 11 12  1  0  0  0
 11 38  1  0  0  0
 11 39  1  0  0  0
 12 24  1  0  0  0
 12 40  1  0  0  0
 13 14  1  0  0  0
 13 18  1  0  0  0
 14 15  1  0  0  0
 14 41  1  0  0  0
 14 42  1  0  0  0
 15 16  1  0  0  0
 15 43  1  0  0  0
 15 44  1  0  0  0
 16 17  1  0  0  0
 16 19  1  0  0  0
 17 18  1  0  0  0
 17 21  2  0  0  0
 18 45  1  0  0  0
 18 46  1  0  0  0
 19 20  2  0  0  0
 19 25  1  0  0  0
 20 21  1  0  0  0
 24 47  1  0  0  0
 24 48  1  0  0  0
 24 49  1  0  0  0
 25 26  1  0  0  0
 25 27  1  0  0  0
 25 28  1  0  0  0
M  CHG  1  24   1
M  END
> <s_m_source_file>
../2p8s_ligand.sdf

> <i_m_source_file_index>
1

> <s_epik_input>
RmMxW2NIXWMoRiljKEYpW2NIXWMxW0NASF0yW0NIMl1bQ0gyXVtDQEBIXShbQ0gyXVtDQEBIXTJbTkgzK10pW05ASCtdKFtDSDJdW0NIMl0zKVtDSDJdYyhuMzQpbm5jNEMoRikoRilG

> <s_epik_cmdline>
J2VwaWtfYXBwJywgJy1pbWFlJywgJ2xpZ2FuZF9wcm8ubWFlJywgJy1vbWFlJywgJ2xpZ2FuZF9wcmVwLm1hZScsICctbXMnLCAnMScsICctcGgnLCAnNycsICctcGh0JywgJzAuNScsICctbnQn

> <r_lp_tautomer_probability>
1

> <r_epik_Ionization_Penalty>
  0.0113

> <r_epik_Ionization_Penalty_Charging>
  0.0005

> <r_epik_Ionization_Penalty_Neutral>
  0.0108

> <r_epik_State_Penalty>
  0.0083

> <r_epik_Charging_Adjusted_Penalty>
0.00880233660353934

> <i_epik_Tot_Q>
1

> <i_epik_Tot_abs_Q>
1

$$$$
