2p94_ligand
                    3D
 Schrodinger Suite 2020-3.
 59 63  0  0  1  0            999 V2000
    5.0040   44.3070   61.2040 C   0  0  1  0  0  0
    3.5610   44.4010   60.6550 C   0  0  0  0  0  0
    2.6880   43.3340   61.3240 C   0  0  0  0  0  0
    7.2990   45.3360   63.1160 C   0  0  0  0  0  0
    8.5780   44.9900   63.7740 C   0  0  0  0  0  0
    8.5550   44.3200   65.0860 C   0  0  0  0  0  0
    9.8160   43.9460   65.7130 C   0  0  0  0  0  0
   11.0950   44.2480   65.0120 C   0  0  0  0  0  0
   12.1640   43.7570   65.8800 C   0  0  3  0  0  0
   11.4770   43.2260   66.9840 C   0  0  0  0  0  0
    9.8490   45.2890   63.0830 C   0  0  0  0  0  0
    6.8450   42.8410   60.4850 C   0  0  0  0  0  0
    7.0580   40.3190   60.1750 C   0  0  0  0  0  0
    8.3940   40.8680   57.6030 C   0  0  0  0  0  0
    8.6060   38.4370   57.1860 N   0  0  0  0  0  0
    9.7660   37.7170   57.4690 C   0  0  0  0  0  0
   10.2540   36.8490   56.4230 C   0  0  0  0  0  0
    9.5820   36.6670   55.1570 C   0  0  0  0  0  0
    8.3750   37.3750   54.8640 C   0  0  0  0  0  0
    7.8890   38.3300   55.9120 C   0  0  0  0  0  0
    2.6890   43.4780   62.8460 C   0  0  0  0  0  0
    4.1060   43.4140   63.4150 C   0  0  0  0  0  0
    4.9920   44.4970   62.7440 C   0  0  1  0  0  0
    6.3130   44.4410   63.3590 N   0  0  0  0  0  0
    7.1390   46.3310   62.4020 O   0  0  0  0  0  0
   10.1210   43.3340   66.8970 N   0  0  0  0  0  0
   13.9110   43.7010   65.7040 Cl  0  0  0  0  0  0
   11.1100   44.9090   63.7160 C   0  0  0  0  0  0
    5.5280   43.0020   60.7570 N   0  0  0  0  0  0
    7.7040   43.6260   60.8810 O   0  0  0  0  0  0
    7.2460   41.6840   59.6790 C   0  0  0  0  0  0
    7.5430   39.1990   59.3710 C   0  0  0  0  0  0
    8.2100   39.4760   58.0710 C   0  0  0  0  0  0
    7.9090   41.9780   58.4080 C   0  0  0  0  0  0
    6.9110   39.0360   55.6500 O   0  0  0  0  0  0
    5.6936   45.0633   60.8010 H   0  0  0  0  0  0
    3.1506   45.3984   60.8714 H   0  0  0  0  0  0
    3.5710   44.2368   59.5674 H   0  0  0  0  0  0
    1.6521   43.4312   60.9671 H   0  0  0  0  0  0
    3.0711   42.3347   61.0699 H   0  0  0  0  0  0
    7.6075   44.1070   65.5809 H   0  0  0  0  0  0
   11.9358   42.7547   67.8657 H   0  0  0  0  0  0
    9.8462   45.7867   62.1133 H   0  0  0  0  0  0
    6.5635   40.1409   61.1299 H   0  0  0  0  0  0
    8.8936   41.0615   56.6538 H   0  0  0  0  0  0
   10.2769   37.8045   58.4279 H   0  0  0  0  0  0
   11.1799   36.3012   56.5982 H   0  0  0  0  0  0
    9.9994   35.9831   54.4180 H   0  0  0  0  0  0
    7.8365   37.2280   53.9278 H   0  0  0  0  0  0
    2.2466   44.4463   63.1230 H   0  0  0  0  0  0
    2.0983   42.6641   63.2917 H   0  0  0  0  0  0
    4.0738   43.5918   64.5001 H   0  0  0  0  0  0
    4.5354   42.4204   63.2189 H   0  0  0  0  0  0
    4.6469   45.5229   62.9401 H   0  0  0  0  0  0
    6.5560   43.6357   64.0679 H   0  0  0  0  0  0
   12.0573   45.1197   63.2196 H   0  0  0  0  0  0
    4.8467   42.1462   60.6413 H   0  0  0  0  0  0
    7.4175   38.1739   59.7197 H   0  0  0  0  0  0
    8.0366   43.0070   58.0717 H   0  0  0  0  0  0
  1  2  1  0  0  0
  1 23  1  0  0  0
  1 29  1  0  0  0
  1 36  1  0  0  0
  2  3  1  0  0  0
  2 37  1  0  0  0
  2 38  1  0  0  0
  3 21  1  0  0  0
  3 39  1  0  0  0
  3 40  1  0  0  0
  4  5  1  0  0  0
  4 24  1  0  0  0
  4 25  2  0  0  0
  5  6  2  0  0  0
  5 11  1  0  0  0
  6  7  1  0  0  0
  6 41  1  0  0  0
  7  8  2  0  0  0
  7 26  1  0  0  0
  8  9  1  0  0  0
  8 28  1  0  0  0
  9 10  1  0  0  0
  9 27  1  0  0  0
 10 26  2  0  0  0
 10 42  1  0  0  0
 11 28  2  0  0  0
 11 43  1  0  0  0
 12 29  1  0  0  0
 12 30  2  0  0  0
 12 31  1  0  0  0
 13 31  2  0  0  0
 13 32  1  0  0  0
 13 44  1  0  0  0
 14 33  1  0  0  0
 14 34  2  0  0  0
 14 45  1  0  0  0
 15 16  1  0  0  0
 15 20  1  0  0  0
 15 33  1  0  0  0
 16 17  2  0  0  0
 16 46  1  0  0  0
 17 18  1  0  0  0
 17 47  1  0  0  0
 18 19  2  0  0  0
 18 48  1  0  0  0
 19 20  1  0  0  0
 19 49  1  0  0  0
 20 35  2  0  0  0
 21 22  1  0  0  0
 21 50  1  0  0  0
 21 51  1  0  0  0
 22 23  1  0  0  0
 22 52  1  0  0  0
 22 53  1  0  0  0
 23 24  1  0  0  0
 23 54  1  0  0  0
 24 55  1  0  0  0
 28 56  1  0  0  0
 29 57  1  0  0  0
 31 34  1  0  0  0
 32 33  2  0  0  0
 32 58  1  0  0  0
 34 59  1  0  0  0
M  END
> <s_m_source_file>
../2p94_ligand.sdf

> <i_m_source_file_index>
1

> <s_epik_input>
Tz1jMVtjSF1bY0hdW2NIXVtjSF1uMS1jKFtjSF1bY0hdMilbY0hdW2NIXWMyQyg9TylbTkhdW0NASF0zW0NIMl1bQ0gyXVtDSDJdW0NIMl1bQ0BIXTNbTkhdQyg9TyljKFtjSF00KVtjSF1bY0hdYyhjNDUpW0NIXShDbClbQ0hdPU41

> <s_epik_cmdline>
J2VwaWtfYXBwJywgJy1pbWFlJywgJ2xpZ2FuZF9wcm8ubWFlJywgJy1vbWFlJywgJ2xpZ2FuZF9wcmVwLm1hZScsICctbXMnLCAnMScsICctcGgnLCAnNycsICctcGh0JywgJzAuNScsICctbnQn

> <r_lp_tautomer_probability>
1

> <r_epik_Ionization_Penalty>
  0.0003

> <r_epik_Ionization_Penalty_Charging>
  0.0000

> <r_epik_Ionization_Penalty_Neutral>
  0.0003

> <r_epik_State_Penalty>
 -0.0000

> <r_epik_Charging_Adjusted_Penalty>
6.3485959736833e-07

> <i_epik_Tot_Q>
0

> <i_epik_Tot_abs_Q>
0

> <s_epik_Chemistry_Notes>
This compound has an imine and may undergo hydrolysis.

$$$$
