2p98_ligand
                    3D
 Schrodinger Suite 2020-3.
 27 29  0  0  1  0            999 V2000
   -1.4350    0.7620   10.3750 C   0  0  0  0  0  0
   -2.7440    0.5730   10.2310 N   0  0  0  0  0  0
   -3.8490    0.9390   11.0090 C   0  0  0  0  0  0
   -5.1300    0.6010   10.5880 C   0  0  0  0  0  0
   -5.3150   -0.0980    9.3990 C   0  0  0  0  0  0
   -6.5990   -0.4280    8.9820 C   0  0  0  0  0  0
   -6.7920   -1.1240    7.7940 C   0  0  0  0  0  0
   -5.6960   -1.4910    7.0190 C   0  0  0  0  0  0
   -4.4110   -1.1620    7.4340 C   0  0  0  0  0  0
   -4.2190   -0.4650    8.6230 C   0  0  0  0  0  0
   -2.9350   -0.1310    9.0360 C   0  0  0  0  0  0
   -1.7340   -0.3400    8.5050 N   0  0  0  0  0  0
   -0.8390    0.2080    9.3240 C   0  0  0  0  0  0
    0.6680    0.1970    9.0700 C   0  0  0  0  0  0
    1.0990    0.0330    7.9310 O   0  0  0  0  0  0
    1.4400    0.3330   10.1450 N   0  0  0  0  0  0
    2.2740    1.3960   10.3100 N   0  0  0  0  0  0
   -0.9429    1.2755   11.2010 H   0  0  0  0  0  0
   -3.7055    1.4865   11.9405 H   0  0  0  0  0  0
   -5.9925    0.8844   11.1913 H   0  0  0  0  0  0
   -7.4578   -0.1402    9.5885 H   0  0  0  0  0  0
   -7.8003   -1.3818    7.4701 H   0  0  0  0  0  0
   -5.8452   -2.0362    6.0870 H   0  0  0  0  0  0
   -3.5525   -1.4503    6.8274 H   0  0  0  0  0  0
    1.3885   -0.4504   10.9154 H   0  0  0  0  0  0
    2.1879    2.0676    9.4431 H   0  0  0  0  0  0
    1.9972    1.9406   11.2247 H   0  0  0  0  0  0
  1  2  1  0  0  0
  1 13  2  0  0  0
  1 18  1  0  0  0
  2  3  1  0  0  0
  2 11  1  0  0  0
  3  4  2  0  0  0
  3 19  1  0  0  0
  4  5  1  0  0  0
  4 20  1  0  0  0
  5  6  1  0  0  0
  5 10  2  0  0  0
  6  7  2  0  0  0
  6 21  1  0  0  0
  7  8  1  0  0  0
  7 22  1  0  0  0
  8  9  2  0  0  0
  8 23  1  0  0  0
  9 10  1  0  0  0
  9 24  1  0  0  0
 10 11  1  0  0  0
 11 12  2  0  0  0
 12 13  1  0  0  0
 13 14  1  0  0  0
 14 15  2  0  0  0
 14 16  1  0  0  0
 16 17  1  0  0  0
 16 25  1  0  0  0
 17 26  1  0  0  0
 17 27  1  0  0  0
M  END
> <s_m_source_file>
../2p98_ligand.sdf

> <i_m_source_file_index>
1

> <s_epik_input>
W05IMytdW05IXUMoPU8pYyhbY0hdMSluYyhuMTIpYzNjKFtjSF1bY0hdMilbY0hdW2NIXVtjSF1bY0hdMw==

> <s_epik_cmdline>
J2VwaWtfYXBwJywgJy1pbWFlJywgJ2xpZ2FuZF9wcm8ubWFlJywgJy1vbWFlJywgJ2xpZ2FuZF9wcmVwLm1hZScsICctbXMnLCAnMScsICctcGgnLCAnNycsICctcGh0JywgJzAuNScsICctbnQn

> <r_lp_tautomer_probability>
1

> <r_epik_Ionization_Penalty>
  0.0027

> <r_epik_Ionization_Penalty_Charging>
  0.0026

> <r_epik_Ionization_Penalty_Neutral>
  0.0001

> <r_epik_State_Penalty>
 -0.0000

> <r_epik_Charging_Adjusted_Penalty>
0.00256065086435134

> <i_epik_Tot_Q>
0

> <i_epik_Tot_abs_Q>
0

$$$$
