2p99_ligand
                    3D
 Schrodinger Suite 2020-3.
 23 24  0  0  1  0            999 V2000
   -5.9060    1.2490    9.6940 Cl  0  0  0  0  0  0
   -5.7530   -0.0300    8.5380 C   0  0  0  0  0  0
   -6.9030   -0.4750    7.8930 C   0  0  0  0  0  0
   -6.8310   -1.4580    6.9130 C   0  0  0  0  0  0
   -5.5970   -2.0030    6.5730 C   0  0  0  0  0  0
   -4.4480   -1.5630    7.2180 C   0  0  0  0  0  0
   -4.5180   -0.5790    8.2020 C   0  0  0  0  0  0
   -3.3290   -0.2080    8.8200 C   0  0  0  0  0  0
   -2.1310   -0.4230    8.2010 O   0  0  0  0  0  0
   -3.1060    0.3830    9.9950 C   0  0  0  0  0  0
   -1.7960    0.5550   10.1500 C   0  0  0  0  0  0
   -1.1960    0.0690    9.0640 C   0  0  0  0  0  0
    0.3080    0.0660    8.7880 C   0  0  0  0  0  0
    0.7340    0.0070    7.6370 O   0  0  0  0  0  0
    1.0890    0.1210    9.8640 N   0  0  0  0  0  0
    2.3120    0.1260    9.7160 N   0  0  0  0  0  0
   -7.8701   -0.0483    8.1590 H   0  0  0  0  0  0
   -7.7372   -1.8003    6.4132 H   0  0  0  0  0  0
   -5.5319   -2.7723    5.8035 H   0  0  0  0  0  0
   -3.4820   -1.9919    6.9516 H   0  0  0  0  0  0
   -3.8727    0.6772   10.7117 H   0  0  0  0  0  0
   -1.3032    1.0105   11.0089 H   0  0  0  0  0  0
    2.7439    0.0853    8.7051 H   0  0  0  0  0  0
  1  2  1  0  0  0
  2  3  2  0  0  0
  2  7  1  0  0  0
  3  4  1  0  0  0
  3 17  1  0  0  0
  4  5  2  0  0  0
  4 18  1  0  0  0
  5  6  1  0  0  0
  5 19  1  0  0  0
  6  7  2  0  0  0
  6 20  1  0  0  0
  7  8  1  0  0  0
  8  9  1  0  0  0
  8 10  2  0  0  0
  9 12  1  0  0  0
 10 11  1  0  0  0
 10 21  1  0  0  0
 11 12  2  0  0  0
 11 22  1  0  0  0
 12 13  1  0  0  0
 13 14  2  0  0  0
 13 15  1  0  0  0
 15 16  2  0  0  0
 16 23  1  0  0  0
M  END
> <s_m_source_file>
../2p99_ligand.sdf

> <i_m_source_file_index>
1

> <s_epik_input>
Q2xjMVtjSF1bY0hdW2NIXVtjSF1jMS1jMm9jKFtjSF1bY0hdMilDKD1PKS9OPU5cW0hd

> <s_epik_cmdline>
J2VwaWtfYXBwJywgJy1pbWFlJywgJ2xpZ2FuZF9wcm8ubWFlJywgJy1vbWFlJywgJ2xpZ2FuZF9wcmVwLm1hZScsICctbXMnLCAnMScsICctcGgnLCAnNycsICctcGh0JywgJzAuNScsICctbnQn

> <r_lp_tautomer_probability>
1

> <r_epik_Ionization_Penalty>
  0.0000

> <r_epik_Ionization_Penalty_Charging>
  0.0000

> <r_epik_Ionization_Penalty_Neutral>
  0.0000

> <r_epik_State_Penalty>
 -0.0000

> <r_epik_Charging_Adjusted_Penalty>
0

> <i_epik_Tot_Q>
0

> <i_epik_Tot_abs_Q>
0

$$$$
