2pcu_ligand
                    3D
 Schrodinger Suite 2020-3.
 91 92  0  0  1  0            999 V2000
    5.4480   48.4730   24.2180 N   0  3  0  0  0  0
    4.3940   48.7120   23.1890 C   0  0  2  0  0  0
    3.0940   49.1270   23.8710 C   0  0  0  0  0  0
    2.9430   48.9280   25.0600 O   0  0  0  0  0  0
    4.1880   47.4530   22.3370 C   0  0  0  0  0  0
    4.0990   46.1790   23.1460 C   0  0  0  0  0  0
    5.2080   45.3500   23.2720 C   0  0  0  0  0  0
    2.9360   45.8500   23.8050 C   0  0  0  0  0  0
    5.1470   44.1880   24.0290 C   0  0  0  0  0  0
    2.8590   44.6900   24.5690 C   0  0  0  0  0  0
    3.9730   43.8710   24.7020 C   0  0  0  0  0  0
    2.1560   49.6740   23.0910 N   0  0  0  0  0  0
    0.9010   50.1580   23.6450 C   0  0  2  0  0  0
   -0.3100   49.4230   23.1620 C   0  0  0  0  0  0
   -1.4200   49.6300   23.6930 O   0  0  0  0  0  0
    0.7760   51.6560   23.3140 C   0  0  0  0  0  0
    1.8680   52.4640   24.0310 C   0  0  0  0  0  0
    1.9660   52.4210   25.2570 O   0  0  0  0  0  0
    2.7120   53.1310   23.2900 N   0  0  0  0  0  0
   -0.1330   48.5930   22.1380 N   0  0  0  0  0  0
   -1.2110   47.7250   21.6660 C   0  0  2  0  0  0
   -0.6970   46.3000   21.5240 C   0  0  0  0  0  0
    0.5110   46.0710   21.4110 O   0  0  0  0  0  0
   -1.7240   48.1830   20.3150 C   0  0  0  0  0  0
   -2.0970   49.6760   20.2570 C   0  0  0  0  0  0
   -3.0080   49.8930   19.0910 C   0  0  0  0  0  0
   -3.1700   51.3200   18.7450 N   0  0  0  0  0  0
   -4.1020   51.7330   17.8840 C   0  0  0  0  0  0
   -5.0080   50.8580   17.4320 N   0  0  0  0  0  0
   -4.1890   53.0140   17.5080 N   0  3  0  0  0  0
   -1.6130   45.3210   21.6270 N   0  0  0  0  0  0
   -1.1390   43.9470   21.5560 C   0  0  2  0  0  0
   -0.5580   43.5540   20.1810 C   0  0  0  0  0  0
   -0.8370   44.1680   19.1010 O   0  0  0  0  0  0
   -2.3770   43.1100   21.9240 C   0  0  0  0  0  0
   -3.5580   43.9910   21.5440 C   0  0  0  0  0  0
   -3.0660   45.3890   21.9240 C   0  0  0  0  0  0
    0.2690   42.5350   20.2570 N   0  0  0  0  0  0
    1.1120   42.1370   19.0900 C   0  0  2  0  0  0
    0.7400   40.7300   18.5120 C   0  0  0  0  0  0
    1.5190   39.9760   17.8900 O   0  5  0  0  0  0
    2.6050   42.2590   19.4680 C   0  0  0  0  0  0
    3.0020   43.7390   19.5760 C   0  0  0  0  0  0
    2.9660   41.4700   20.7540 C   0  0  0  0  0  0
   -0.4280   40.3160   18.5520 O   0  0  0  0  0  0
    5.5850   49.3829   24.8208 H   0  0  0  0  0  0
    6.3949   48.2169   23.7203 H   0  0  0  0  0  0
    5.1410   47.6431   24.8714 H   0  0  0  0  0  0
    4.7359   49.5311   22.5393 H   0  0  0  0  0  0
    3.2515   47.5450   21.7673 H   0  0  0  0  0  0
    5.0315   47.3398   21.6401 H   0  0  0  0  0  0
    6.1380   45.6161   22.7696 H   0  0  0  0  0  0
    2.0677   46.5043   23.7275 H   0  0  0  0  0  0
    6.0130   43.5294   24.0951 H   0  0  0  0  0  0
    1.9246   44.4238   25.0632 H   0  0  0  0  0  0
    3.9266   42.9827   25.3320 H   0  0  0  0  0  0
    2.3477   49.7545   22.0108 H   0  0  0  0  0  0
    0.9647   49.9386   24.7210 H   0  0  0  0  0  0
    0.8810   51.8017   22.2288 H   0  0  0  0  0  0
   -0.2087   52.0225   23.6396 H   0  0  0  0  0  0
    2.5916   53.1459   22.1967 H   0  0  0  0  0  0
    3.5431   53.6778   23.7593 H   0  0  0  0  0  0
    0.8495   48.5681   21.6439 H   0  0  0  0  0  0
   -2.0082   47.7981   22.4204 H   0  0  0  0  0  0
   -0.9500   48.0130   19.5521 H   0  0  0  0  0  0
   -2.6279   47.6133   20.0536 H   0  0  0  0  0  0
   -2.6055   49.9633   21.1891 H   0  0  0  0  0  0
   -1.1840   50.2777   20.1370 H   0  0  0  0  0  0
   -2.6019   49.3784   18.2077 H   0  0  0  0  0  0
   -4.0045   49.4899   19.3243 H   0  0  0  0  0  0
   -2.5123   52.0746   19.2010 H   0  0  0  0  0  0
   -4.9497   49.8014   17.7323 H   0  0  0  0  0  0
   -5.8110   51.1954   16.7602 H   0  0  0  0  0  0
   -3.4517   53.7451   17.8712 H   0  0  0  0  0  0
   -0.2956   43.8396   22.2540 H   0  0  0  0  0  0
   -2.3663   42.1693   21.3539 H   0  0  0  0  0  0
   -2.3615   42.8862   23.0009 H   0  0  0  0  0  0
   -3.7608   43.8882   20.4677 H   0  0  0  0  0  0
   -4.4454   43.6813   22.1155 H   0  0  0  0  0  0
   -3.2120   45.6141   22.9908 H   0  0  0  0  0  0
   -3.5280   46.1806   21.3157 H   0  0  0  0  0  0
    0.3342   41.9723   21.1999 H   0  0  0  0  0  0
    0.8840   42.8644   18.2970 H   0  0  0  0  0  0
    3.1921   41.8045   18.6564 H   0  0  0  0  0  0
    2.7295   44.2605   18.6466 H   0  0  0  0  0  0
    4.0876   43.8167   19.7353 H   0  0  0  0  0  0
    2.4731   44.1996   20.4234 H   0  0  0  0  0  0
    2.6660   40.4184   20.6353 H   0  0  0  0  0  0
    2.4367   41.9075   21.6133 H   0  0  0  0  0  0
    4.0512   41.5247   20.9252 H   0  0  0  0  0  0
   -4.9978   53.3361   16.8357 H   0  0  0  0  0  0
  1  2  1  0  0  0
  1 46  1  0  0  0
  1 47  1  0  0  0
  1 48  1  0  0  0
  2  3  1  0  0  0
  2  5  1  0  0  0
  2 49  1  0  0  0
  3  4  2  0  0  0
  3 12  1  0  0  0
  5  6  1  0  0  0
  5 50  1  0  0  0
  5 51  1  0  0  0
  6  7  2  0  0  0
  6  8  1  0  0  0
  7  9  1  0  0  0
  7 52  1  0  0  0
  8 10  2  0  0  0
  8 53  1  0  0  0
  9 11  2  0  0  0
  9 54  1  0  0  0
 10 11  1  0  0  0
 10 55  1  0  0  0
 11 56  1  0  0  0
 12 13  1  0  0  0
 12 57  1  0  0  0
 13 14  1  0  0  0
 13 16  1  0  0  0
 13 58  1  0  0  0
 14 15  2  0  0  0
 14 20  1  0  0  0
 16 17  1  0  0  0
 16 59  1  0  0  0
 16 60  1  0  0  0
 17 18  2  0  0  0
 17 19  1  0  0  0
 19 61  1  0  0  0
 19 62  1  0  0  0
 20 21  1  0  0  0
 20 63  1  0  0  0
 21 22  1  0  0  0
 21 24  1  0  0  0
 21 64  1  0  0  0
 22 23  2  0  0  0
 22 31  1  0  0  0
 24 25  1  0  0  0
 24 65  1  0  0  0
 24 66  1  0  0  0
 25 26  1  0  0  0
 25 67  1  0  0  0
 25 68  1  0  0  0
 26 27  1  0  0  0
 26 69  1  0  0  0
 26 70  1  0  0  0
 27 28  1  0  0  0
 27 71  1  0  0  0
 28 29  1  0  0  0
 28 30  2  0  0  0
 29 72  1  0  0  0
 29 73  1  0  0  0
 30 74  1  0  0  0
 30 91  1  0  0  0
 31 32  1  0  0  0
 31 37  1  0  0  0
 32 33  1  0  0  0
 32 35  1  0  0  0
 32 75  1  0  0  0
 33 34  2  0  0  0
 33 38  1  0  0  0
 35 36  1  0  0  0
 35 76  1  0  0  0
 35 77  1  0  0  0
 36 37  1  0  0  0
 36 78  1  0  0  0
 36 79  1  0  0  0
 37 80  1  0  0  0
 37 81  1  0  0  0
 38 39  1  0  0  0
 38 82  1  0  0  0
 39 40  1  0  0  0
 39 42  1  0  0  0
 39 83  1  0  0  0
 40 41  1  0  0  0
 40 45  2  0  0  0
 42 43  1  0  0  0
 42 44  1  0  0  0
 42 84  1  0  0  0
 43 85  1  0  0  0
 43 86  1  0  0  0
 43 87  1  0  0  0
 44 88  1  0  0  0
 44 89  1  0  0  0
 44 90  1  0  0  0
M  CHG  3   1   1  30   1  41  -1
M  END
> <s_m_source_file>
../2pcu_ligand.sdf

> <i_m_source_file_index>
1

> <s_epik_input>
W2NIXTFbY0hdW2NIXVtjSF1bY0hdYzFbQ0gyXVtDQEhdKFtOSDMrXSlDKD1PKVtOSF1bQ0BASF0oW0NIMl1DKD1PKVtOSDJdKUMoPU8pW05IXVtDQEBIXShbQ0gyXVtDSDJdW0NIMl1bTkhdL0MoW05IMl0pPU5cW0hdKUMoPU8pTjJbQ0BASF0oW0NIMl1bQ0gyXVtDSDJdMilDKD1PKVtOSF1bQ0BIXShDKD1PKVtPSF0pW0NIXShbQ0gzXSlbQ0gzXQ==

> <s_epik_cmdline>
J2VwaWtfYXBwJywgJy1pbWFlJywgJ2xpZ2FuZF9wcm8ubWFlJywgJy1vbWFlJywgJ2xpZ2FuZF9wcmVwLm1hZScsICctbXMnLCAnMScsICctcGgnLCAnNycsICctcGh0JywgJzAuNScsICctbnQn

> <r_epik_Ionization_Penalty>
  0.2043

> <r_epik_Ionization_Penalty_Charging>
  0.2043

> <r_epik_Ionization_Penalty_Neutral>
  0.0000

> <r_epik_State_Penalty>
  0.1940

> <r_epik_Charging_Adjusted_Penalty>
0.398260544255287

> <i_epik_Tot_Q>
1

> <i_epik_Tot_abs_Q>
3

> <s_epik_Chemistry_Notes>
This compound has an imine and may undergo hydrolysis.

$$$$
