2pe0_ligand
                    3D
 Schrodinger Suite 2020-3.
 29 31  0  0  1  0            999 V2000
   -8.1570   41.3290   44.3300 C   0  0  0  0  0  0
   -7.0000   42.1150   44.4040 C   0  0  0  0  0  0
   -8.7520   43.2870   43.5880 C   0  0  0  0  0  0
   -7.3780   43.3830   43.9220 C   0  0  0  0  0  0
   -6.7040   44.6130   43.7320 C   0  0  0  0  0  0
   -7.3910   45.7240   43.2210 C   0  0  0  0  0  0
   -8.7540   45.6240   42.8960 C   0  0  0  0  0  0
   -9.4330   44.4080   43.0790 C   0  0  0  0  0  0
   -5.6870   41.7280   44.8960 C   0  0  0  0  0  0
   -4.5610   42.7820   45.0010 C   0  0  0  0  0  0
   -5.3620   40.4090   45.3170 C   0  0  0  0  0  0
   -8.2660   40.1560   44.6670 O   0  0  0  0  0  0
   -9.1720   42.0430   43.8450 N   0  0  0  0  0  0
   -6.7310   46.8910   43.0200 O   0  0  0  0  0  0
   -4.1840   40.0240   45.8230 C   0  0  0  0  0  0
   -4.2480   38.7250   46.1130 C   0  0  0  0  0  0
   -5.4630   38.2960   45.7900 C   0  0  0  0  0  0
   -6.1460   39.3290   45.3010 N   0  0  0  0  0  0
   -5.6468   44.6972   43.9838 H   0  0  0  0  0  0
   -9.2850   46.4904   42.5016 H   0  0  0  0  0  0
  -10.4905   44.3327   42.8259 H   0  0  0  0  0  0
   -4.9349   43.7544   44.6479 H   0  0  0  0  0  0
   -3.7078   42.4700   44.3808 H   0  0  0  0  0  0
   -4.2392   42.8716   46.0491 H   0  0  0  0  0  0
  -10.1605   41.5776   43.7177 H   0  0  0  0  0  0
   -5.6637   46.9701   43.2742 H   0  0  0  0  0  0
   -3.3682   40.7535   45.9338 H   0  0  0  0  0  0
   -3.4463   38.1219   46.5393 H   0  0  0  0  0  0
   -5.9385   37.3067   45.8618 H   0  0  0  0  0  0
  1  2  1  0  0  0
  1 12  2  0  0  0
  1 13  1  0  0  0
  2  4  1  0  0  0
  2  9  2  0  0  0
  3  4  2  0  0  0
  3  8  1  0  0  0
  3 13  1  0  0  0
  4  5  1  0  0  0
  5  6  2  0  0  0
  5 19  1  0  0  0
  6  7  1  0  0  0
  6 14  1  0  0  0
  7  8  2  0  0  0
  7 20  1  0  0  0
  8 21  1  0  0  0
  9 10  1  0  0  0
  9 11  1  0  0  0
 10 22  1  0  0  0
 10 23  1  0  0  0
 10 24  1  0  0  0
 11 15  2  0  0  0
 11 18  1  0  0  0
 13 25  1  0  0  0
 14 26  1  0  0  0
 15 16  1  0  0  0
 15 27  1  0  0  0
 16 17  1  0  0  0
 16 28  1  0  0  0
 17 18  2  0  0  0
 17 29  1  0  0  0
M  END
> <s_m_source_file>
../2pe0_ligand.sdf

> <i_m_source_file_index>
1

> <s_epik_input>
W2NIXTFbY0hdYyhbT0hdKVtjSF1jKGMxMilDKFxDKD1PKVtOSF0yKT1DKC9bQ0gzXSlDMz1bQ0hdW0NIMl1bQ0hdPU4z

> <s_epik_cmdline>
J2VwaWtfYXBwJywgJy1pbWFlJywgJ2xpZ2FuZF9wcm8ubWFlJywgJy1vbWFlJywgJ2xpZ2FuZF9wcmVwLm1hZScsICctbXMnLCAnMScsICctcGgnLCAnNycsICctcGh0JywgJzAuNScsICctbnQn

> <r_lp_tautomer_probability>
1

> <r_epik_Ionization_Penalty>
  0.0070

> <r_epik_Ionization_Penalty_Charging>
  0.0000

> <r_epik_Ionization_Penalty_Neutral>
  0.0070

> <r_epik_State_Penalty>
 -0.0000

> <r_epik_Charging_Adjusted_Penalty>
0

> <i_epik_Tot_Q>
0

> <i_epik_Tot_abs_Q>
0

> <s_epik_Chemistry_Notes>
This compound has an imine and may undergo hydrolysis.

$$$$
