2pe1_ligand
                    3D
 Schrodinger Suite 2020-3.
 36 38  0  0  1  0            999 V2000
   -6.2660   39.9610   45.5570 N   0  0  0  0  0  0
   -5.6210   38.8900   46.0160 C   0  0  0  0  0  0
   -4.3960   39.2650   46.3560 C   0  0  0  0  0  0
   -4.2810   40.5660   46.1090 C   0  0  0  0  0  0
   -5.4440   41.0110   45.6130 C   0  0  0  0  0  0
   -5.7280   42.3580   45.2500 C   0  0  3  0  0  0
   -4.5770   43.3720   45.4190 C   0  0  0  0  0  0
   -7.0250   42.8040   44.7640 C   0  0  1  0  0  0
   -7.3500   44.0880   44.2770 C   0  0  0  0  0  0
   -6.6320   45.2930   44.0860 C   0  0  0  0  0  0
   -8.2100   42.0570   44.6680 C   0  0  0  0  0  0
   -8.3810   40.8940   45.0330 O   0  0  0  0  0  0
   -9.1860   42.8070   44.1620 N   0  0  0  0  0  0
   -8.7150   44.0350   43.9110 C   0  0  0  0  0  0
   -9.3400   45.1670   43.3640 C   0  0  0  0  0  0
   -8.6180   46.3540   43.1740 C   0  0  0  0  0  0
   -7.2540   46.4280   43.5320 C   0  0  0  0  0  0
   -6.5180   47.5590   43.3850 N   0  0  0  0  0  0
   -6.9310   48.7370   42.8500 C   0  0  0  0  0  0
   -8.0480   48.9110   42.3490 O   0  0  0  0  0  0
   -6.0270   49.7080   42.8300 N   0  0  0  0  0  0
   -6.1306   37.9159   46.0551 H   0  0  0  0  0  0
   -3.6192   38.6197   46.7662 H   0  0  0  0  0  0
   -3.4390   41.2608   46.2443 H   0  0  0  0  0  0
   -6.0611   42.5648   46.2778 H   0  0  0  0  0  0
   -3.6827   42.8524   45.7936 H   0  0  0  0  0  0
   -4.8764   44.1503   46.1364 H   0  0  0  0  0  0
   -4.3516   43.8360   44.4475 H   0  0  0  0  0  0
   -7.2973   43.1210   45.7815 H   0  0  0  0  0  0
   -5.5814   45.3428   44.3723 H   0  0  0  0  0  0
  -10.1887   42.3792   44.0154 H   0  0  0  0  0  0
  -10.3929   45.1229   43.0853 H   0  0  0  0  0  0
   -9.1133   47.2260   42.7468 H   0  0  0  0  0  0
   -5.4696   47.5800   43.7173 H   0  0  0  0  0  0
   -5.0355   49.5456   43.2778 H   0  0  0  0  0  0
   -6.2691   50.6754   42.3657 H   0  0  0  0  0  0
  1  2  2  0  0  0
  1  5  1  0  0  0
  2  3  1  0  0  0
  2 22  1  0  0  0
  3  4  1  0  0  0
  3 23  1  0  0  0
  4  5  2  0  0  0
  4 24  1  0  0  0
  5  6  1  0  0  0
  6  7  1  0  0  0
  6  8  1  0  0  0
  6 25  1  0  0  0
  7 26  1  0  0  0
  7 27  1  0  0  0
  7 28  1  0  0  0
  8  9  1  0  0  0
  8 11  1  0  0  0
  8 29  1  0  0  0
  9 10  2  0  0  0
  9 14  1  0  0  0
 10 17  1  0  0  0
 10 30  1  0  0  0
 11 12  2  0  0  0
 11 13  1  0  0  0
 13 14  1  0  0  0
 13 31  1  0  0  0
 14 15  2  0  0  0
 15 16  1  0  0  0
 15 32  1  0  0  0
 16 17  2  0  0  0
 16 33  1  0  0  0
 17 18  1  0  0  0
 18 19  1  0  0  0
 18 34  1  0  0  0
 19 20  2  0  0  0
 19 21  1  0  0  0
 21 35  1  0  0  0
 21 36  1  0  0  0
M  END
> <s_m_source_file>
../2pe1_ligand.sdf

> <i_m_source_file_index>
1

> <s_epik_input>
TjE9W0NIXVtDSDJdW0NIXT1DMVtDSF0oW0NIM10pW0NIXTJDKD1PKVtOSF1jKGMyMylbY0hdW2NIXWMoW2NIXTMpW05IXUMoPU8pW05IMl0=

> <s_epik_cmdline>
J2VwaWtfYXBwJywgJy1pbWFlJywgJ2xpZ2FuZF9wcm8ubWFlJywgJy1vbWFlJywgJ2xpZ2FuZF9wcmVwLm1hZScsICctbXMnLCAnMScsICctcGgnLCAnNycsICctcGh0JywgJzAuNScsICctbnQn

> <r_lp_tautomer_probability>
1

> <r_epik_Ionization_Penalty>
  0.0000

> <r_epik_Ionization_Penalty_Charging>
  0.0000

> <r_epik_Ionization_Penalty_Neutral>
  0.0000

> <r_epik_State_Penalty>
 -0.0000

> <r_epik_Charging_Adjusted_Penalty>
0

> <i_epik_Tot_Q>
0

> <i_epik_Tot_abs_Q>
0

> <s_epik_Chemistry_Notes>
This compound has an imine and may undergo hydrolysis.

$$$$
