2pe2_ligand
                    3D
 Schrodinger Suite 2020-3.
 67 71  0  0  1  0            999 V2000
    1.1440   31.2170   44.3120 C   0  0  0  0  0  0
    2.6280   31.2050   43.9080 C   0  0  0  0  0  0
    3.2450   32.5930   44.1170 C   0  0  0  0  0  0
    2.4450   33.6550   43.3510 C   0  0  0  0  0  0
    0.9620   33.6150   43.7690 C   0  0  0  0  0  0
    0.4190   32.2540   43.5250 N   0  3  0  0  0  0
   -1.0520   32.1800   43.7810 C   0  0  0  0  0  0
   -1.4390   32.3450   45.2690 C   0  0  0  0  0  0
   -1.5920   33.7690   45.6290 N   0  0  0  0  0  0
   -0.9780   34.3160   46.6830 C   0  0  0  0  0  0
   -0.2190   33.6930   47.4300 O   0  0  0  0  0  0
   -1.2600   35.8190   46.9210 C   0  0  0  0  0  0
   -2.3910   36.4540   46.3500 C   0  0  0  0  0  0
   -0.3830   36.5580   47.7320 C   0  0  0  0  0  0
   -0.6180   37.9190   47.9730 C   0  0  0  0  0  0
   -1.7360   38.5530   47.4060 C   0  0  0  0  0  0
   -2.6340   37.8320   46.5930 C   0  0  0  0  0  0
   -3.7900   38.4780   46.0910 C   0  0  0  0  0  0
   -3.9020   39.7800   45.7790 C   0  0  0  0  0  0
   -4.9780   37.9120   45.8550 C   0  0  0  0  0  0
   -5.8110   38.8550   45.4150 N   0  0  0  0  0  0
   -5.1510   40.0140   45.3690 C   0  0  3  0  0  0
   -5.5220   41.3200   44.9860 C   0  0  0  0  0  0
   -6.8170   41.7080   44.5450 C   0  0  0  0  0  0
   -7.1580   42.9910   44.1410 C   0  0  0  0  0  0
   -6.4210   44.1840   43.9780 C   0  0  0  0  0  0
   -7.9630   40.9250   44.4060 C   0  0  0  0  0  0
   -8.0640   39.7220   44.6650 O   0  0  0  0  0  0
   -8.9680   41.6810   43.9450 N   0  0  0  0  0  0
   -8.5210   42.9410   43.7690 C   0  0  0  0  0  0
   -9.1400   44.0890   43.2470 C   0  0  0  0  0  0
   -8.3990   45.2780   43.0750 C   0  0  0  0  0  0
   -7.0290   45.3320   43.4310 C   0  0  0  0  0  0
   -6.2530   46.4360   43.2340 N   0  0  0  0  0  0
   -6.6340   47.6230   42.6920 C   0  0  0  0  0  0
   -7.7610   47.8370   42.2280 O   0  0  0  0  0  0
   -5.6870   48.5530   42.6200 N   0  0  0  0  0  0
    0.7013   30.2303   44.1110 H   0  0  0  0  0  0
    1.0578   31.4460   45.3844 H   0  0  0  0  0  0
    3.1701   30.4734   44.5252 H   0  0  0  0  0  0
    2.7170   30.9275   42.8473 H   0  0  0  0  0  0
    3.2352   32.8410   45.1886 H   0  0  0  0  0  0
    4.2821   32.5923   43.7503 H   0  0  0  0  0  0
    2.8531   34.6521   43.5728 H   0  0  0  0  0  0
    2.5182   33.4608   42.2708 H   0  0  0  0  0  0
    0.8757   33.8595   44.8380 H   0  0  0  0  0  0
    0.3945   34.3490   43.1781 H   0  0  0  0  0  0
    0.5873   32.0467   42.4579 H   0  0  0  0  0  0
   -1.5621   32.9783   43.2219 H   0  0  0  0  0  0
   -1.4326   31.2016   43.4526 H   0  0  0  0  0  0
   -2.3932   31.8317   45.4588 H   0  0  0  0  0  0
   -0.6543   31.9063   45.9028 H   0  0  0  0  0  0
   -2.2317   34.4246   45.0199 H   0  0  0  0  0  0
   -3.0760   35.8834   45.7228 H   0  0  0  0  0  0
    0.4849   36.0708   48.1763 H   0  0  0  0  0  0
    0.0683   38.4864   48.6017 H   0  0  0  0  0  0
   -1.9107   39.6119   47.5964 H   0  0  0  0  0  0
   -3.0343   40.4477   45.8854 H   0  0  0  0  0  0
   -5.3290   36.8751   45.9635 H   0  0  0  0  0  0
   -4.7159   42.0658   45.0484 H   0  0  0  0  0  0
   -5.3735   44.2176   44.2775 H   0  0  0  0  0  0
   -9.9589   41.2346   43.7750 H   0  0  0  0  0  0
  -10.1949   44.0615   42.9742 H   0  0  0  0  0  0
   -8.8855   46.1628   42.6644 H   0  0  0  0  0  0
   -5.1928   46.4225   43.5270 H   0  0  0  0  0  0
   -4.6880   48.3540   43.0352 H   0  0  0  0  0  0
   -5.9023   49.5216   42.1452 H   0  0  0  0  0  0
  1  2  1  0  0  0
  1  6  1  0  0  0
  1 38  1  0  0  0
  1 39  1  0  0  0
  2  3  1  0  0  0
  2 40  1  0  0  0
  2 41  1  0  0  0
  3  4  1  0  0  0
  3 42  1  0  0  0
  3 43  1  0  0  0
  4  5  1  0  0  0
  4 44  1  0  0  0
  4 45  1  0  0  0
  5  6  1  0  0  0
  5 46  1  0  0  0
  5 47  1  0  0  0
  6  7  1  0  0  0
  6 48  1  0  0  0
  7  8  1  0  0  0
  7 49  1  0  0  0
  7 50  1  0  0  0
  8  9  1  0  0  0
  8 51  1  0  0  0
  8 52  1  0  0  0
  9 10  1  0  0  0
  9 53  1  0  0  0
 10 11  2  0  0  0
 10 12  1  0  0  0
 12 13  2  0  0  0
 12 14  1  0  0  0
 13 17  1  0  0  0
 13 54  1  0  0  0
 14 15  2  0  0  0
 14 55  1  0  0  0
 15 16  1  0  0  0
 15 56  1  0  0  0
 16 17  2  0  0  0
 16 57  1  0  0  0
 17 18  1  0  0  0
 18 19  2  0  0  0
 18 20  1  0  0  0
 19 22  1  0  0  0
 19 58  1  0  0  0
 20 21  2  0  0  0
 20 59  1  0  0  0
 21 22  1  0  0  0
 22 23  1  0  0  0
 23 24  2  0  0  0
 23 60  1  0  0  0
 24 25  1  0  0  0
 24 27  1  0  0  0
 25 26  2  0  0  0
 25 30  1  0  0  0
 26 33  1  0  0  0
 26 61  1  0  0  0
 27 28  2  0  0  0
 27 29  1  0  0  0
 29 30  1  0  0  0
 29 62  1  0  0  0
 30 31  2  0  0  0
 31 32  1  0  0  0
 31 63  1  0  0  0
 32 33  2  0  0  0
 32 64  1  0  0  0
 33 34  1  0  0  0
 34 35  1  0  0  0
 34 65  1  0  0  0
 35 36  2  0  0  0
 35 37  1  0  0  0
 37 66  1  0  0  0
 37 67  1  0  0  0
M  CHG  1   6   1
M  END
> <s_m_source_file>
../2pe2_ligand.sdf

> <i_m_source_file_index>
1

> <s_epik_input>
W0NIMl0xW0NIMl1bQ0gyXVtDSDJdW0NIMl1bTkgrXTFbQ0gyXVtDSDJdW05IXUMoPU8pYzJbY0hdYyhbY0hdW2NIXVtjSF0yKUMzPVtDSF1bQ0hdKE49W0NIXTMpL1tDSF09Qy80Qyg9TylbTkhdYyhjNDUpW2NIXVtjSF1jKFtjSF01KVtOSF1DKD1PKVtOSDJd

> <s_epik_cmdline>
J2VwaWtfYXBwJywgJy1pbWFlJywgJ2xpZ2FuZF9wcm8ubWFlJywgJy1vbWFlJywgJ2xpZ2FuZF9wcmVwLm1hZScsICctbXMnLCAnMScsICctcGgnLCAnNycsICctcGh0JywgJzAuNScsICctbnQn

> <r_lp_tautomer_probability>
1

> <r_epik_Ionization_Penalty>
  0.0028

> <r_epik_Ionization_Penalty_Charging>
  0.0027

> <r_epik_Ionization_Penalty_Neutral>
  0.0000

> <r_epik_State_Penalty>
 -0.0000

> <r_epik_Charging_Adjusted_Penalty>
0.00271406788325658

> <i_epik_Tot_Q>
1

> <i_epik_Tot_abs_Q>
1

> <s_epik_Chemistry_Notes>
This compound has an imine and may undergo hydrolysis.

$$$$
