2peh_ligand
                    3D
 Schrodinger Suite 2020-3.
173175  0  0  1  0            999 V2000
   24.7380  -21.7170    0.8570 N   0  3  0  0  0  0
   23.2840  -21.6270    0.9030 C   0  0  2  0  0  0
   22.8070  -21.0730    2.2410 C   0  0  0  0  0  0
   21.7950  -21.5190    2.7830 O   0  0  0  0  0  0
   22.6540  -22.9980    0.6460 C   0  0  0  0  0  0
   22.4120  -23.8150    1.9050 C   0  0  0  0  0  0
   22.5690  -25.3020    1.6360 C   0  0  0  0  0  0
   23.2290  -26.0090    2.8090 C   0  0  0  0  0  0
   22.5900  -25.6490    4.1050 N   0  3  0  0  0  0
   23.5420  -20.1000    2.7690 N   0  0  0  0  0  0
   23.0110  -19.2090    3.7910 C   0  0  2  0  0  0
   21.6290  -18.7100    3.4050 C   0  0  0  0  0  0
   21.3900  -18.3890    2.2500 O   0  0  0  0  0  0
   23.9490  -18.0290    3.9440 C   0  0  0  0  0  0
   23.5050  -16.9210    4.8810 C   0  0  0  0  0  0
   23.8120  -15.5800    4.2410 C   0  0  0  0  0  0
   24.9600  -15.7330    3.3480 N   0  0  0  0  0  0
   25.2000  -14.9680    2.2920 C   0  0  0  0  0  0
   24.3960  -13.9580    2.0020 N   0  0  0  0  0  0
   26.2630  -15.2110    1.5320 N   0  0  0  0  0  0
   20.7300  -18.6810    4.3830 N   0  0  0  0  0  0
   19.3360  -18.3010    4.1730 C   0  0  2  0  0  0
   19.2660  -16.8990    3.6010 C   0  0  0  0  0  0
   20.0480  -16.0270    4.0120 O   0  0  0  0  0  0
   18.5550  -18.3600    5.4770 C   0  0  0  0  0  0
   18.3620  -16.7250    2.6280 N   0  0  0  0  0  0
   18.1340  -15.4620    1.9880 C   0  0  2  0  0  0
   17.4860  -14.4830    2.9540 C   0  0  0  0  0  0
   16.9070  -14.8730    3.9830 O   0  0  0  0  0  0
   17.1990  -15.6310    0.7760 C   0  0  0  0  0  0
   15.8400  -15.7740    1.1980 O   0  0  0  0  0  0
   17.5530  -13.2140    2.5780 N   0  0  0  0  0  0
   16.8400  -12.1620    3.2780 C   0  0  2  0  0  0
   15.3290  -12.1520    2.9980 C   0  0  0  0  0  0
   14.6070  -11.4290    3.6540 O   0  0  0  0  0  0
   17.4610  -10.7960    2.9420 C   0  0  0  0  0  0
   18.7520  -10.5100    3.7230 C   0  0  0  0  0  0
   19.5230   -9.3590    3.1230 C   0  0  0  0  0  0
   20.1840   -9.7540    1.8910 N   0  0  0  0  0  0
   20.9780   -8.9660    1.1810 C   0  0  0  0  0  0
   21.2150   -7.7180    1.5790 N   0  0  0  0  0  0
   21.5540   -9.4300    0.0780 N   0  0  0  0  0  0
   14.8310  -12.9210    2.0280 N   0  0  0  0  0  0
   13.3880  -12.9520    1.7940 C   0  0  2  0  0  0
   12.5950  -13.3420    3.0380 C   0  0  0  0  0  0
   12.9370  -14.3010    3.7410 O   0  0  0  0  0  0
   13.0240  -13.8700    0.6170 C   0  0  0  0  0  0
   13.4870  -13.2850   -0.6670 C   0  0  0  0  0  0
   14.5620  -13.6720   -1.3770 C   0  0  0  0  0  0
   12.9510  -12.1460   -1.3330 C   0  0  0  0  0  0
   14.7300  -12.8710   -2.4580 N   0  0  0  0  0  0
   13.7570  -11.9120   -2.4560 C   0  0  0  0  0  0
   11.8820  -11.2760   -1.0730 C   0  0  0  0  0  0
   13.4880  -10.9010   -3.3700 C   0  0  0  0  0  0
   11.6450  -10.2470   -1.9440 C   0  0  0  0  0  0
   12.4500  -10.0650   -3.0900 C   0  0  0  0  0  0
   11.5390  -12.5710    3.2930 N   0  0  0  0  0  0
   10.6000  -12.7570    4.4370 C   0  0  2  0  0  0
   11.1980  -12.5360    5.8190 C   0  0  0  0  0  0
   10.6090  -12.9350    6.8240 O   0  0  0  0  0  0
    9.9330  -14.1270    4.4030 C   0  0  0  0  0  0
    9.2700  -14.3920    3.1050 C   0  0  0  0  0  0
    9.6450  -15.3880    2.4680 O   0  0  0  0  0  0
    8.3960  -13.5960    2.7190 O   0  0  0  0  0  0
   12.3660  -11.9020    5.8580 N   0  0  0  0  0  0
   12.9840  -11.4980    7.1140 C   0  0  2  0  0  0
   12.3210  -10.2470    7.6800 C   0  0  0  0  0  0
   12.3120   -9.1930    7.0450 O   0  0  0  0  0  0
   14.4830  -11.2570    6.9210 C   0  0  0  0  0  0
   15.3680  -12.0960    7.8270 C   0  0  0  0  0  0
   16.8350  -12.0060    7.4550 C   0  0  0  0  0  0
   17.3270  -10.8780    7.2410 O   0  0  0  0  0  0
   17.4960  -13.0620    7.3760 O   0  0  0  0  0  0
   11.7660  -10.3770    8.8800 N   0  0  0  0  0  0
   11.1710   -9.2490    9.5850 C   0  0  2  0  0  0
   12.2730   -8.3620   10.1750 C   0  0  0  0  0  0
   13.4320   -8.7960   10.2810 O   0  0  0  0  0  0
   10.2610   -9.7500   10.7280 C   0  0  2  0  0  0
   11.0690  -10.3690   11.7350 O   0  0  0  0  0  0
    9.2370  -10.7720   10.2170 C   0  0  0  0  0  0
   11.9130   -7.1260   10.5710 N   0  0  0  0  0  0
   12.8050   -6.2300   11.2940 C   0  0  2  0  0  0
   13.3560   -6.7880   12.5950 C   0  0  0  0  0  0
   12.7690   -7.6890   13.2350 O   0  0  0  0  0  0
   11.9010   -5.0340   11.6350 C   0  0  0  0  0  0
   10.8040   -5.0770   10.6890 C   0  0  0  0  0  0
   10.5900   -6.5060   10.3430 C   0  0  0  0  0  0
   14.3750   -6.2560   13.0530 O   0  0  0  0  0  0
   25.1729  -20.7240    1.0436 H   0  0  0  0  0  0
   25.0520  -22.0744   -0.1348 H   0  0  0  0  0  0
   25.0864  -22.4205    1.6275 H   0  0  0  0  0  0
   23.0151  -20.9240    0.1008 H   0  0  0  0  0  0
   21.6797  -22.8671    0.1525 H   0  0  0  0  0  0
   23.3166  -23.5903   -0.0022 H   0  0  0  0  0  0
   23.1370  -23.5206    2.6781 H   0  0  0  0  0  0
   21.3910  -23.6312    2.2708 H   0  0  0  0  0  0
   21.5788  -25.7510    1.4691 H   0  0  0  0  0  0
   23.1935  -25.4491    0.7425 H   0  0  0  0  0  0
   23.1461  -27.0976    2.6747 H   0  0  0  0  0  0
   24.2907  -25.7254    2.8578 H   0  0  0  0  0  0
   23.0966  -26.1808    4.9238 H   0  0  0  0  0  0
   21.5284  -25.9363    4.0827 H   0  0  0  0  0  0
   22.6730  -24.5640    4.2658 H   0  0  0  0  0  0
   24.5762  -19.9766    2.4151 H   0  0  0  0  0  0
   22.9465  -19.7929    4.7210 H   0  0  0  0  0  0
   24.9170  -18.3781    4.3326 H   0  0  0  0  0  0
   24.0982  -17.5498    2.9652 H   0  0  0  0  0  0
   22.4235  -17.0062    5.0630 H   0  0  0  0  0  0
   24.0454  -17.0090    5.8350 H   0  0  0  0  0  0
   22.9376  -15.2387    3.6674 H   0  0  0  0  0  0
   24.0461  -14.8446    5.0248 H   0  0  0  0  0  0
   25.6984  -16.5272    3.5326 H   0  0  0  0  0  0
   23.5163  -13.7571    2.6311 H   0  0  0  0  0  0
   26.9313  -16.0508    1.7733 H   0  0  0  0  0  0
   26.4745  -14.5724    0.6617 H   0  0  0  0  0  0
   21.0784  -18.9608    5.3882 H   0  0  0  0  0  0
   18.9248  -19.0303    3.4596 H   0  0  0  0  0  0
   18.6073  -19.3782    5.8900 H   0  0  0  0  0  0
   17.5044  -18.0947    5.2875 H   0  0  0  0  0  0
   18.9885  -17.6498    6.1965 H   0  0  0  0  0  0
   17.7808  -17.6082    2.3245 H   0  0  0  0  0  0
   19.1397  -15.1258    1.6956 H   0  0  0  0  0  0
   17.2771  -14.7466    0.1266 H   0  0  0  0  0  0
   17.4905  -16.5282    0.2103 H   0  0  0  0  0  0
   15.0430  -15.9046    0.4512 H   0  0  0  0  0  0
   18.1748  -12.9696    1.7041 H   0  0  0  0  0  0
   16.9824  -12.4228    4.3371 H   0  0  0  0  0  0
   17.7057  -10.7582    1.8702 H   0  0  0  0  0  0
   16.7434   -9.9978    3.1826 H   0  0  0  0  0  0
   18.5022  -10.2549    4.7634 H   0  0  0  0  0  0
   19.3947  -11.4026    3.7085 H   0  0  0  0  0  0
   18.8330   -8.5316    2.9010 H   0  0  0  0  0  0
   20.2870   -9.0177    3.8369 H   0  0  0  0  0  0
   20.0392  -10.7679    1.4898 H   0  0  0  0  0  0
   20.7387   -7.3322    2.4924 H   0  0  0  0  0  0
   21.8872   -7.0726    0.9945 H   0  0  0  0  0  0
   21.3592  -10.4610   -0.2522 H   0  0  0  0  0  0
   15.5024  -13.5305    1.4053 H   0  0  0  0  0  0
   13.1537  -11.9059    1.5474 H   0  0  0  0  0  0
   13.5036  -14.8503    0.7547 H   0  0  0  0  0  0
   11.9323  -13.9985    0.5762 H   0  0  0  0  0  0
   15.2075  -14.5117   -1.1194 H   0  0  0  0  0  0
   11.2523  -11.4166   -0.1945 H   0  0  0  0  0  0
   14.0838  -10.7816   -4.2749 H   0  0  0  0  0  0
   10.8229   -9.5580   -1.7502 H   0  0  0  0  0  0
   12.2357   -9.2369   -3.7656 H   0  0  0  0  0  0
   11.3833  -11.7461    2.5821 H   0  0  0  0  0  0
    9.8715  -11.9507    4.2662 H   0  0  0  0  0  0
   10.6905  -14.9077    4.5664 H   0  0  0  0  0  0
    9.1713  -14.1837    5.1946 H   0  0  0  0  0  0
    7.8843  -13.7637    1.7598 H   0  0  0  0  0  0
   12.8670  -11.6839    4.9033 H   0  0  0  0  0  0
   12.8149  -12.3420    7.7989 H   0  0  0  0  0  0
   14.7623  -11.4960    5.8842 H   0  0  0  0  0  0
   14.7146  -10.2020    7.1292 H   0  0  0  0  0  0
   15.2613  -11.7506    8.8659 H   0  0  0  0  0  0
   15.0665  -13.1517    7.7588 H   0  0  0  0  0  0
   18.3887  -10.7836    6.9694 H   0  0  0  0  0  0
   11.7649  -11.3759    9.3406 H   0  0  0  0  0  0
   10.5909   -8.7020    8.8272 H   0  0  0  0  0  0
    9.7463   -8.9045   11.2078 H   0  0  0  0  0  0
   11.8677   -9.7958   12.2285 H   0  0  0  0  0  0
    8.6101  -10.3068    9.4421 H   0  0  0  0  0  0
    8.6022  -11.1038   11.0518 H   0  0  0  0  0  0
    9.7646  -11.6380    9.7908 H   0  0  0  0  0  0
   13.6780   -6.0491   10.6496 H   0  0  0  0  0  0
   13.2002   -8.0670   14.1737 H   0  0  0  0  0  0
   11.5375   -5.1321   12.6685 H   0  0  0  0  0  0
   12.4745   -4.1007   11.5351 H   0  0  0  0  0  0
    9.9031   -4.6487   11.1526 H   0  0  0  0  0  0
   11.0683   -4.4943    9.7943 H   0  0  0  0  0  0
   10.2986   -6.6403    9.2908 H   0  0  0  0  0  0
    9.8437   -6.9846   10.9941 H   0  0  0  0  0  0
  1  2  1  0  0  0
  1 89  1  0  0  0
  1 90  1  0  0  0
  1 91  1  0  0  0
  2  3  1  0  0  0
  2  5  1  0  0  0
  2 92  1  0  0  0
  3  4  2  0  0  0
  3 10  1  0  0  0
  5  6  1  0  0  0
  5 93  1  0  0  0
  5 94  1  0  0  0
  6  7  1  0  0  0
  6 95  1  0  0  0
  6 96  1  0  0  0
  7  8  1  0  0  0
  7 97  1  0  0  0
  7 98  1  0  0  0
  8  9  1  0  0  0
  8 99  1  0  0  0
  8100  1  0  0  0
  9101  1  0  0  0
  9102  1  0  0  0
  9103  1  0  0  0
 10 11  1  0  0  0
 10104  1  0  0  0
 11 12  1  0  0  0
 11 14  1  0  0  0
 11105  1  0  0  0
 12 13  2  0  0  0
 12 21  1  0  0  0
 14 15  1  0  0  0
 14106  1  0  0  0
 14107  1  0  0  0
 15 16  1  0  0  0
 15108  1  0  0  0
 15109  1  0  0  0
 16 17  1  0  0  0
 16110  1  0  0  0
 16111  1  0  0  0
 17 18  1  0  0  0
 17112  1  0  0  0
 18 19  2  0  0  0
 18 20  1  0  0  0
 19113  1  0  0  0
 20114  1  0  0  0
 20115  1  0  0  0
 21 22  1  0  0  0
 21116  1  0  0  0
 22 23  1  0  0  0
 22 25  1  0  0  0
 22117  1  0  0  0
 23 24  2  0  0  0
 23 26  1  0  0  0
 25118  1  0  0  0
 25119  1  0  0  0
 25120  1  0  0  0
 26 27  1  0  0  0
 26121  1  0  0  0
 27 28  1  0  0  0
 27 30  1  0  0  0
 27122  1  0  0  0
 28 29  2  0  0  0
 28 32  1  0  0  0
 30 31  1  0  0  0
 30123  1  0  0  0
 30124  1  0  0  0
 31125  1  0  0  0
 32 33  1  0  0  0
 32126  1  0  0  0
 33 34  1  0  0  0
 33 36  1  0  0  0
 33127  1  0  0  0
 34 35  2  0  0  0
 34 43  1  0  0  0
 36 37  1  0  0  0
 36128  1  0  0  0
 36129  1  0  0  0
 37 38  1  0  0  0
 37130  1  0  0  0
 37131  1  0  0  0
 38 39  1  0  0  0
 38132  1  0  0  0
 38133  1  0  0  0
 39 40  1  0  0  0
 39134  1  0  0  0
 40 41  1  0  0  0
 40 42  2  0  0  0
 41135  1  0  0  0
 41136  1  0  0  0
 42137  1  0  0  0
 43 44  1  0  0  0
 43138  1  0  0  0
 44 45  1  0  0  0
 44 47  1  0  0  0
 44139  1  0  0  0
 45 46  2  0  0  0
 45 57  1  0  0  0
 47 48  1  0  0  0
 47140  1  0  0  0
 47141  1  0  0  0
 48 49  2  0  0  0
 48 50  1  0  0  0
 49 51  1  0  0  0
 49142  1  0  0  0
 50 52  2  0  0  0
 50 53  1  0  0  0
 51 52  1  0  0  0
 52 54  1  0  0  0
 53 55  2  0  0  0
 53143  1  0  0  0
 54 56  2  0  0  0
 54144  1  0  0  0
 55 56  1  0  0  0
 55145  1  0  0  0
 56146  1  0  0  0
 57 58  1  0  0  0
 57147  1  0  0  0
 58 59  1  0  0  0
 58 61  1  0  0  0
 58148  1  0  0  0
 59 60  2  0  0  0
 59 65  1  0  0  0
 61 62  1  0  0  0
 61149  1  0  0  0
 61150  1  0  0  0
 62 63  2  0  0  0
 62 64  1  0  0  0
 64151  1  0  0  0
 65 66  1  0  0  0
 65152  1  0  0  0
 66 67  1  0  0  0
 66 69  1  0  0  0
 66153  1  0  0  0
 67 68  2  0  0  0
 67 74  1  0  0  0
 69 70  1  0  0  0
 69154  1  0  0  0
 69155  1  0  0  0
 70 71  1  0  0  0
 70156  1  0  0  0
 70157  1  0  0  0
 71 72  1  0  0  0
 71 73  2  0  0  0
 72158  1  0  0  0
 74 75  1  0  0  0
 74159  1  0  0  0
 75 76  1  0  0  0
 75 78  1  0  0  0
 75160  1  0  0  0
 76 77  2  0  0  0
 76 81  1  0  0  0
 78 79  1  0  0  0
 78 80  1  0  0  0
 78161  1  0  0  0
 79162  1  0  0  0
 80163  1  0  0  0
 80164  1  0  0  0
 80165  1  0  0  0
 81 82  1  0  0  0
 81 87  1  0  0  0
 82 83  1  0  0  0
 82 85  1  0  0  0
 82166  1  0  0  0
 83 84  1  0  0  0
 83 88  2  0  0  0
 84167  1  0  0  0
 85 86  1  0  0  0
 85168  1  0  0  0
 85169  1  0  0  0
 86 87  1  0  0  0
 86170  1  0  0  0
 86171  1  0  0  0
 87172  1  0  0  0
 87173  1  0  0  0
M  CHG  2   1   1   9   1
M  END
> <s_m_source_file>
../2peh_ligand.sdf

> <i_m_source_file_index>
1

> <s_epik_input>
W05IMytdW0NIMl1bQ0gyXVtDSDJdW0NIMl1bQ0BIXShbTkgzK10pQyg9TylbTkhdW0NAQEhdKFtDSDJdW0NIMl1bQ0gyXVtOSF0vQyg9TlxbSF0pW05IMl0pQyg9TylbTkhdW0NAQEhdKFtDSDNdKUMoPU8pW05IXVtDQEBIXShbQ0gyXVtPSF0pQyg9TylbTkhdW0NAQEhdKFtDSDJdW0NIMl1bQ0gyXVtOSF0vQyhbTkgyXSk9TlxbSF0pQyg9TylbTkhdW0NAQEhdKFtDSDJdYzFbY0hdW25IXWMoYzEyKVtjSF1bY0hdW2NIXVtjSF0yKUMoPU8pW05IXVtDQEBIXShbQ0gyXUMoPU8pW09IXSlDKD1PKVtOSF1bQ0BASF0oW0NIMl1bQ0gyXUMoPU8pW09IXSlDKD1PKVtOSF1bQ0BASF0oW0NASF0oW09IXSlbQ0gzXSlDKD1PKU4zW0NASF0oQyg9TylbT0hdKVtDSDJdW0NIMl1bQ0gyXTM=

> <s_epik_cmdline>
J2VwaWtfYXBwJywgJy1pbWFlJywgJ2xpZ2FuZF9wcm8ubWFlJywgJy1vbWFlJywgJ2xpZ2FuZF9wcmVwLm1hZScsICctbXMnLCAnMScsICctcGgnLCAnNycsICctcGh0JywgJzAuNScsICctbnQn

> <s_epik_pKa_notes>
Molecule size exceeds maximum supported for generating protonation states

> <s_epik_Chemistry_Notes>
This compound has an imine and may undergo hydrolysis.

$$$$
