2pem_ligand
                    3D
 Schrodinger Suite 2020-3.
107108  0  0  1  0            999 V2000
   25.5740   14.0200  -64.8600 N   0  3  0  0  0  0
   25.3550   13.7100  -63.4080 C   0  0  2  0  0  0
   26.0840   14.6820  -62.4470 C   0  0  0  0  0  0
   27.3040   14.8910  -62.5450 O   0  0  0  0  0  0
   25.7210   12.2390  -63.0940 C   0  0  0  0  0  0
   25.3160   15.2950  -61.5440 N   0  0  0  0  0  0
   25.8840   15.9330  -60.3540 C   0  0  2  0  0  0
   25.7950   14.8820  -59.2450 C   0  0  0  0  0  0
   24.7220   14.3220  -58.9780 O   0  0  0  0  0  0
   25.1330   17.2330  -59.9130 C   0  0  2  0  0  0
   24.8270   18.1680  -61.1010 C   0  0  0  0  0  0
   25.9280   17.9600  -58.8320 C   0  0  0  0  0  0
   23.5530   17.8070  -61.9020 C   0  0  0  0  0  0
   26.9300   14.6060  -58.6170 N   0  0  0  0  0  0
   27.0010   13.5970  -57.5760 C   0  0  2  0  0  0
   26.8440   14.2160  -56.1780 C   0  0  0  0  0  0
   27.2930   15.3400  -55.9240 O   0  0  0  0  0  0
   28.3200   12.8230  -57.6950 C   0  0  0  0  0  0
   26.1770   13.4830  -55.2880 N   0  0  0  0  0  0
   26.1610   13.8260  -53.8710 C   0  0  2  0  0  0
   27.0280   12.8100  -53.1360 C   0  0  0  0  0  0
   26.9450   11.6190  -53.4250 O   0  0  0  0  0  0
   24.7290   13.8170  -53.3230 C   0  0  0  0  0  0
   24.6050   14.3590  -51.9220 C   0  0  0  0  0  0
   24.3670   15.7020  -51.7030 C   0  0  0  0  0  0
   24.7280   13.5230  -50.8210 C   0  0  0  0  0  0
   24.2550   16.2050  -50.4110 C   0  0  0  0  0  0
   24.6140   14.0210  -49.5310 C   0  0  0  0  0  0
   24.3750   15.3640  -49.3290 C   0  0  0  0  0  0
   27.8670   13.2840  -52.2110 N   0  0  0  0  0  0
   28.7100   12.4210  -51.3820 C   0  0  2  0  0  0
   28.7400   12.9220  -49.9570 C   0  0  0  0  0  0
   28.7720   14.1330  -49.7410 O   0  0  0  0  0  0
   30.1480   12.3960  -51.8960 C   0  0  0  0  0  0
   30.5460   11.0830  -52.5520 C   0  0  0  0  0  0
   30.6930   11.2190  -54.0710 C   0  0  0  0  0  0
   31.6360   11.9320  -54.5070 O   0  0  0  0  0  0
   29.8810   10.6080  -54.8200 O   0  5  0  0  0  0
   28.7400   12.0130  -48.9780 N   0  0  0  0  0  0
   28.9510   12.4480  -47.5860 C   0  0  2  0  0  0
   30.3960   12.4220  -47.1210 C   0  0  0  0  0  0
   31.0000   11.3590  -46.9780 O   0  0  0  0  0  0
   28.0260   11.7970  -46.5370 C   0  0  0  0  0  0
   27.3450   10.5190  -46.9640 C   0  0  0  0  0  0
   27.8640    9.2900  -46.6040 C   0  0  0  0  0  0
   26.1230   10.5550  -47.6310 C   0  0  0  0  0  0
   27.2050    8.1190  -46.9560 C   0  0  0  0  0  0
   25.4660    9.3880  -47.9840 C   0  0  0  0  0  0
   26.0050    8.1740  -47.6480 C   0  0  0  0  0  0
   30.9340   13.6200  -46.8990 N   0  0  0  0  0  0
   32.2610   13.7950  -46.3250 C   0  0  2  0  0  0
   32.2510   13.1400  -44.9480 C   0  0  0  0  0  0
   31.2820   13.2880  -44.1880 O   0  5  0  0  0  0
   32.6260   15.2870  -46.2230 C   0  0  0  0  0  0
   33.1870   12.4260  -44.5890 O   0  0  0  0  0  0
   25.3069   15.0690  -65.0553 H   0  0  0  0  0  0
   24.9438   13.3606  -65.4748 H   0  0  0  0  0  0
   26.6319   13.8576  -65.1141 H   0  0  0  0  0  0
   24.2758   13.8652  -63.2626 H   0  0  0  0  0  0
   25.1904   11.5726  -63.7899 H   0  0  0  0  0  0
   25.4266   12.0003  -62.0614 H   0  0  0  0  0  0
   26.8061   12.0989  -63.2076 H   0  0  0  0  0  0
   24.2290   15.3132  -61.7120 H   0  0  0  0  0  0
   26.9135   16.2174  -60.6172 H   0  0  0  0  0  0
   24.1609   16.9492  -59.4834 H   0  0  0  0  0  0
   24.6886   19.1953  -60.7329 H   0  0  0  0  0  0
   25.6655   18.1433  -61.8125 H   0  0  0  0  0  0
   26.1310   17.2701  -57.9997 H   0  0  0  0  0  0
   25.3464   18.8179  -58.4636 H   0  0  0  0  0  0
   26.8796   18.3160  -59.2536 H   0  0  0  0  0  0
   23.4201   18.5265  -62.7234 H   0  0  0  0  0  0
   22.6782   17.8450  -61.2362 H   0  0  0  0  0  0
   23.6551   16.7929  -62.3158 H   0  0  0  0  0  0
   27.8330   15.1649  -58.9037 H   0  0  0  0  0  0
   26.1473   12.9288  -57.7622 H   0  0  0  0  0  0
   28.4030   12.3930  -58.7040 H   0  0  0  0  0  0
   28.3394   12.0147  -56.9492 H   0  0  0  0  0  0
   29.1634   13.5063  -57.5171 H   0  0  0  0  0  0
   25.6289   12.5991  -55.6462 H   0  0  0  0  0  0
   26.5690   14.8427  -53.7714 H   0  0  0  0  0  0
   24.0858   14.4340  -53.9677 H   0  0  0  0  0  0
   24.3492   12.7848  -53.3064 H   0  0  0  0  0  0
   24.2657   16.3762  -52.5535 H   0  0  0  0  0  0
   24.9168   12.4601  -50.9719 H   0  0  0  0  0  0
   24.0717   17.2682  -50.2555 H   0  0  0  0  0  0
   24.7134   13.3507  -48.6773 H   0  0  0  0  0  0
   24.2816   15.7573  -48.3167 H   0  0  0  0  0  0
   27.9074   14.3762  -52.0863 H   0  0  0  0  0  0
   28.2455   11.4258  -51.4429 H   0  0  0  0  0  0
   30.2829   13.1886  -52.6467 H   0  0  0  0  0  0
   30.8401   12.5635  -51.0576 H   0  0  0  0  0  0
   31.5102   10.7464  -52.1433 H   0  0  0  0  0  0
   29.7765   10.3236  -52.3489 H   0  0  0  0  0  0
   28.5843   10.9477  -49.2037 H   0  0  0  0  0  0
   28.6581   13.5020  -47.7016 H   0  0  0  0  0  0
   28.6089   11.5488  -45.6378 H   0  0  0  0  0  0
   27.2223   12.4992  -46.2707 H   0  0  0  0  0  0
   28.7957    9.2392  -46.0406 H   0  0  0  0  0  0
   25.6762   11.5177  -47.8794 H   0  0  0  0  0  0
   27.6330    7.1533  -46.6871 H   0  0  0  0  0  0
   24.5225    9.4352  -48.5278 H   0  0  0  0  0  0
   25.4913    7.2532  -47.9243 H   0  0  0  0  0  0
   30.3311   14.4996  -47.1689 H   0  0  0  0  0  0
   32.9815   13.3043  -46.9959 H   0  0  0  0  0  0
   32.6259   15.7340  -47.2281 H   0  0  0  0  0  0
   33.6257   15.3902  -45.7759 H   0  0  0  0  0  0
   31.8872   15.8029  -45.5922 H   0  0  0  0  0  0
  1  2  1  0  0  0
  1 56  1  0  0  0
  1 57  1  0  0  0
  1 58  1  0  0  0
  2  3  1  0  0  0
  2  5  1  0  0  0
  2 59  1  0  0  0
  3  4  2  0  0  0
  3  6  1  0  0  0
  5 60  1  0  0  0
  5 61  1  0  0  0
  5 62  1  0  0  0
  6  7  1  0  0  0
  6 63  1  0  0  0
  7  8  1  0  0  0
  7 10  1  0  0  0
  7 64  1  0  0  0
  8  9  2  0  0  0
  8 14  1  0  0  0
 10 11  1  0  0  0
 10 12  1  0  0  0
 10 65  1  0  0  0
 11 13  1  0  0  0
 11 66  1  0  0  0
 11 67  1  0  0  0
 12 68  1  0  0  0
 12 69  1  0  0  0
 12 70  1  0  0  0
 13 71  1  0  0  0
 13 72  1  0  0  0
 13 73  1  0  0  0
 14 15  1  0  0  0
 14 74  1  0  0  0
 15 16  1  0  0  0
 15 18  1  0  0  0
 15 75  1  0  0  0
 16 17  2  0  0  0
 16 19  1  0  0  0
 18 76  1  0  0  0
 18 77  1  0  0  0
 18 78  1  0  0  0
 19 20  1  0  0  0
 19 79  1  0  0  0
 20 21  1  0  0  0
 20 23  1  0  0  0
 20 80  1  0  0  0
 21 22  2  0  0  0
 21 30  1  0  0  0
 23 24  1  0  0  0
 23 81  1  0  0  0
 23 82  1  0  0  0
 24 25  2  0  0  0
 24 26  1  0  0  0
 25 27  1  0  0  0
 25 83  1  0  0  0
 26 28  2  0  0  0
 26 84  1  0  0  0
 27 29  2  0  0  0
 27 85  1  0  0  0
 28 29  1  0  0  0
 28 86  1  0  0  0
 29 87  1  0  0  0
 30 31  1  0  0  0
 30 88  1  0  0  0
 31 32  1  0  0  0
 31 34  1  0  0  0
 31 89  1  0  0  0
 32 33  2  0  0  0
 32 39  1  0  0  0
 34 35  1  0  0  0
 34 90  1  0  0  0
 34 91  1  0  0  0
 35 36  1  0  0  0
 35 92  1  0  0  0
 35 93  1  0  0  0
 36 37  2  0  0  0
 36 38  1  0  0  0
 39 40  1  0  0  0
 39 94  1  0  0  0
 40 41  1  0  0  0
 40 43  1  0  0  0
 40 95  1  0  0  0
 41 42  2  0  0  0
 41 50  1  0  0  0
 43 44  1  0  0  0
 43 96  1  0  0  0
 43 97  1  0  0  0
 44 45  2  0  0  0
 44 46  1  0  0  0
 45 47  1  0  0  0
 45 98  1  0  0  0
 46 48  2  0  0  0
 46 99  1  0  0  0
 47 49  2  0  0  0
 47100  1  0  0  0
 48 49  1  0  0  0
 48101  1  0  0  0
 49102  1  0  0  0
 50 51  1  0  0  0
 50103  1  0  0  0
 51 52  1  0  0  0
 51 54  1  0  0  0
 51104  1  0  0  0
 52 53  1  0  0  0
 52 55  2  0  0  0
 54105  1  0  0  0
 54106  1  0  0  0
 54107  1  0  0  0
M  CHG  3   1   1  38  -1  53  -1
M  END
> <s_m_source_file>
../2pem_ligand.sdf

> <i_m_source_file_index>
1

> <s_epik_input>
W05IMytdW0NAQEhdKFtDSDNdKUMoPU8pW05IXVtDQEBIXShbQ0BASF0oW0NIM10pW0NIMl1bQ0gzXSlDKD1PKVtOSF1bQ0BASF0oW0NIM10pQyg9TylbTkhdW0NAQEhdKFtDSDJdYzFbY0hdW2NIXVtjSF1bY0hdW2NIXTEpQyg9TylbTkhdW0NAQEhdKFtDSDJdW0NIMl1DKD1PKVtPSF0pQyg9TylbTkhdW0NASF0oQyg9TylbTkhdW0NAQEhdKFtDSDNdKUMoPU8pW09IXSlbQ0gyXWMyW2NIXVtjSF1bY0hdW2NIXVtjSF0y

> <s_epik_cmdline>
J2VwaWtfYXBwJywgJy1pbWFlJywgJ2xpZ2FuZF9wcm8ubWFlJywgJy1vbWFlJywgJ2xpZ2FuZF9wcmVwLm1hZScsICctbXMnLCAnMScsICctcGgnLCAnNycsICctcGh0JywgJzAuNScsICctbnQn

> <r_epik_Ionization_Penalty>
  0.1218

> <r_epik_Ionization_Penalty_Charging>
  0.1218

> <r_epik_Ionization_Penalty_Neutral>
  0.0000

> <r_epik_State_Penalty>
  0.1095

> <r_epik_Charging_Adjusted_Penalty>
0.231231191056613

> <i_epik_Tot_Q>
-1

> <i_epik_Tot_abs_Q>
3

$$$$
