2pg2_ligand
                    3D
 Schrodinger Suite 2020-3.
 46 48  0  0  1  0            999 V2000
   30.7710   14.1460   13.4240 O   0  0  0  0  0  0
   30.3480   13.5460   14.3590 C   0  0  0  0  0  0
   31.0580   12.8710   15.4850 C   0  0  0  0  0  0
   32.7830   12.9520   15.3570 S   0  0  0  0  0  0
   33.0400   12.0200   16.7840 C   0  0  0  0  0  0
   31.7890   11.6950   17.3150 C   0  0  0  0  0  0
   30.6510   12.1390   16.6230 C   0  0  0  0  0  0
   29.0820   13.6140   14.4480 N   0  0  0  0  0  0
   28.1390   14.0770   13.5770 C   0  0  0  0  0  0
   27.8830   13.4590   12.0100 S   0  0  0  0  0  0
   26.5550   14.5530   11.7220 C   0  0  0  0  0  0
   26.3240   15.3400   12.8480 C   0  0  0  0  0  0
   25.2260   16.3690   12.8850 C   0  0  0  0  0  0
   24.7240   16.6640   11.4420 C   0  0  0  0  0  0
   25.3540   15.9960   10.2040 C   0  0  0  0  0  0
   25.7720   14.5160   10.4290 C   0  0  0  0  0  0
   27.2460   15.0980   13.8800 C   0  0  0  0  0  0
   26.9620   15.8310   15.1570 C   0  0  0  0  0  0
   26.0490   16.5220   15.1490 O   0  0  0  0  0  0
   27.6240   16.2330   16.1880 N   0  0  0  0  0  0
   28.7520   15.6290   15.8900 C   0  0  0  0  0  0
   29.3760   17.1010   15.1840 C   0  0  0  0  0  0
   27.7060   16.7560   17.5290 C   0  0  0  0  0  0
   28.3940   15.6740   18.3140 C   0  0  0  0  0  0
   34.0069   11.7347   17.1986 H   0  0  0  0  0  0
   31.6998   11.1168   18.2347 H   0  0  0  0  0  0
   29.6186   11.9494   16.9167 H   0  0  0  0  0  0
   28.5746   13.2573   15.3564 H   0  0  0  0  0  0
   24.3885   15.9899   13.4890 H   0  0  0  0  0  0
   25.6092   17.2982   13.3318 H   0  0  0  0  0  0
   23.6635   16.3839   11.3583 H   0  0  0  0  0  0
   24.8381   17.7366   11.2262 H   0  0  0  0  0  0
   24.6320   16.0071    9.3741 H   0  0  0  0  0  0
   26.2589   16.5480    9.9101 H   0  0  0  0  0  0
   26.4161   14.1387    9.6210 H   0  0  0  0  0  0
   24.9029   13.8519   10.5455 H   0  0  0  0  0  0
   29.2249   15.2598   16.8120 H   0  0  0  0  0  0
   28.5482   14.7822   15.2181 H   0  0  0  0  0  0
   30.3933   16.9234   14.8052 H   0  0  0  0  0  0
   29.4021   17.8918   15.9482 H   0  0  0  0  0  0
   28.7253   17.4142   14.3543 H   0  0  0  0  0  0
   28.2862   17.6906   17.5232 H   0  0  0  0  0  0
   26.6926   16.9559   17.9072 H   0  0  0  0  0  0
   28.4999   15.9920   19.3617 H   0  0  0  0  0  0
   29.3895   15.4866   17.8853 H   0  0  0  0  0  0
   27.7960   14.7519   18.2693 H   0  0  0  0  0  0
  1  2  2  0  0  0
  2  3  1  0  0  0
  2  8  1  0  0  0
  3  4  1  0  0  0
  3  7  2  0  0  0
  4  5  1  0  0  0
  5  6  2  0  0  0
  5 25  1  0  0  0
  6  7  1  0  0  0
  6 26  1  0  0  0
  7 27  1  0  0  0
  8  9  1  0  0  0
  8 28  1  0  0  0
  9 10  1  0  0  0
  9 17  2  0  0  0
 10 11  1  0  0  0
 11 12  2  0  0  0
 11 16  1  0  0  0
 12 13  1  0  0  0
 12 17  1  0  0  0
 13 14  1  0  0  0
 13 29  1  0  0  0
 13 30  1  0  0  0
 14 15  1  0  0  0
 14 31  1  0  0  0
 14 32  1  0  0  0
 15 16  1  0  0  0
 15 33  1  0  0  0
 15 34  1  0  0  0
 16 35  1  0  0  0
 16 36  1  0  0  0
 17 18  1  0  0  0
 18 19  2  0  0  0
 18 20  1  0  0  0
 20 21  1  0  0  0
 20 23  1  0  0  0
 21 22  1  0  0  0
 21 37  1  0  0  0
 21 38  1  0  0  0
 22 39  1  0  0  0
 22 40  1  0  0  0
 22 41  1  0  0  0
 23 24  1  0  0  0
 23 42  1  0  0  0
 23 43  1  0  0  0
 24 44  1  0  0  0
 24 45  1  0  0  0
 24 46  1  0  0  0
M  END
> <s_m_source_file>
../2pg2_ligand.sdf

> <i_m_source_file_index>
1

> <s_epik_input>
W2NIXTFbY0hdW2NIXXNjMUMoPU8pW05IXWMoczIpYyhDKD1PKU4oW0NIMl1bQ0gzXSlbQ0gyXVtDSDNdKWMoYzIzKVtDSDJdW0NIMl1bQ0gyXVtDSDJdMw==

> <s_epik_cmdline>
J2VwaWtfYXBwJywgJy1pbWFlJywgJ2xpZ2FuZF9wcm8ubWFlJywgJy1vbWFlJywgJ2xpZ2FuZF9wcmVwLm1hZScsICctbXMnLCAnMScsICctcGgnLCAnNycsICctcGh0JywgJzAuNScsICctbnQn

> <r_lp_tautomer_probability>
1

> <r_epik_Ionization_Penalty>
  0.0000

> <r_epik_Ionization_Penalty_Charging>
  0.0000

> <r_epik_Ionization_Penalty_Neutral>
  0.0000

> <r_epik_State_Penalty>
 -0.0000

> <r_epik_Charging_Adjusted_Penalty>
0

> <i_epik_Tot_Q>
0

> <i_epik_Tot_abs_Q>
0

$$$$
