2pgj_ligand
                    3D
 Schrodinger Suite 2020-3.
 51 55  0  0  1  0            999 V2000
    5.5610    3.5100    3.3870 O   0  0  0  0  0  0
    4.1620    4.1010    3.4810 P   0  0  1  0  0  0
    3.6290    3.9540    4.9900 O   0  0  0  0  0  0
    3.8740    5.5440    3.0580 O   0  5  0  0  0  0
    3.1650    3.1570    2.6320 O   0  0  0  0  0  0
    1.7560    3.3960    2.6900 C   0  0  0  0  0  0
    1.1920    3.6620    1.2870 C   0  0  2  0  0  0
   -0.3070    3.4630    1.2690 C   0  0  1  0  0  0
   -0.8900    4.5840    0.5910 O   0  0  0  0  0  0
   -0.5400    2.1560    0.5270 C   0  0  1  0  0  0
   -1.3500    2.4160   -0.6240 O   0  0  0  0  0  0
    1.6900    2.7430    0.3050 O   0  0  0  0  0  0
    0.8310    1.6120    0.1250 C   0  0  1  0  0  0
    1.3060    0.5800    1.0650 N   0  0  0  0  0  0
    0.4220   -0.3510    1.6720 C   0  0  0  0  0  0
   -0.7950   -0.3960    1.4040 O   0  0  0  0  0  0
    0.9950   -1.3270    2.6280 C   0  0  0  0  0  0
    0.4540   -2.3190    3.3690 N   0  0  0  0  0  0
    1.4640   -2.8810    4.0690 C   0  0  0  0  0  0
    2.6140    0.5350    1.3900 C   0  0  0  0  0  0
    3.1270   -0.3500    2.2630 N   0  0  0  0  0  0
    2.3500   -1.2740    2.8930 C   0  0  0  0  0  0
    2.6100   -2.2510    3.7710 N   0  0  0  0  0  0
    3.9150   -2.5960    4.3890 C   0  0  2  0  0  0
    4.0050   -1.7400    5.5350 O   0  0  0  0  0  0
    5.1370   -2.3060    3.5260 C   0  0  2  0  0  0
    6.0650   -3.3830    3.7110 O   0  0  0  0  0  0
    5.7000   -1.0820    4.1610 C   0  0  0  0  0  0
    6.7950   -0.4600    3.7320 O   0  0  0  0  0  0
    4.9960   -0.7360    5.2210 C   0  0  1  0  0  0
    5.1750    0.5350    6.0220 C   0  0  0  0  0  0
    4.4730    1.6110    5.3930 O   0  0  0  0  0  0
    4.4190    3.0660    6.0790 P   0  0  1  0  0  0
    5.8320    3.5850    6.2400 O   0  5  0  0  0  0
    3.5060    3.0060    7.2780 O   0  0  0  0  0  0
    1.2519    2.5153    3.1145 H   0  0  0  0  0  0
    1.5586    4.2727    3.3244 H   0  0  0  0  0  0
    1.5111    4.6727    0.9927 H   0  0  0  0  0  0
   -0.7887    3.4538    2.2579 H   0  0  0  0  0  0
   -0.7974    5.5937    1.0175 H   0  0  0  0  0  0
   -1.1116    1.4195    1.1108 H   0  0  0  0  0  0
   -2.3687    2.8124   -0.5014 H   0  0  0  0  0  0
    0.8556    1.1840   -0.8880 H   0  0  0  0  0  0
    1.3634   -3.7138    4.7650 H   0  0  0  0  0  0
    3.2890    1.2515    0.9219 H   0  0  0  0  0  0
    3.9100   -3.6692    4.6301 H   0  0  0  0  0  0
    4.9640   -2.2140    2.4436 H   0  0  0  0  0  0
    5.8347   -4.3821    3.3125 H   0  0  0  0  0  0
    4.7779    0.3876    7.0372 H   0  0  0  0  0  0
    6.2448    0.7847    6.0794 H   0  0  0  0  0  0
    5.7212   -1.2488    5.8700 H   0  0  0  0  0  0
  1  2  2  0  0  0
  2  3  1  0  0  0
  2  4  1  0  0  0
  2  5  1  0  0  0
  3 33  1  0  0  0
  5  6  1  0  0  0
  6  7  1  0  0  0
  6 36  1  0  0  0
  6 37  1  0  0  0
  7  8  1  0  0  0
  7 12  1  0  0  0
  7 38  1  0  0  0
  8  9  1  0  0  0
  8 10  1  0  0  0
  8 39  1  0  0  0
  9 40  1  0  0  0
 10 11  1  0  0  0
 10 13  1  0  0  0
 10 41  1  0  0  0
 11 42  1  0  0  0
 12 13  1  0  0  0
 13 14  1  0  0  0
 13 43  1  0  0  0
 14 15  1  0  0  0
 14 20  1  0  0  0
 15 16  2  0  0  0
 15 17  1  0  0  0
 17 18  1  0  0  0
 17 22  2  0  0  0
 18 19  2  0  0  0
 19 23  1  0  0  0
 19 44  1  0  0  0
 20 21  2  0  0  0
 20 45  1  0  0  0
 21 22  1  0  0  0
 22 23  1  0  0  0
 23 24  1  0  0  0
 24 25  1  0  0  0
 24 26  1  0  0  0
 24 46  1  0  0  0
 25 30  1  0  0  0
 26 27  1  0  0  0
 26 28  1  0  0  0
 26 47  1  0  0  0
 27 48  1  0  0  0
 28 29  2  0  0  0
 28 30  1  0  0  0
 30 31  1  0  0  0
 30 51  1  0  0  0
 31 32  1  0  0  0
 31 49  1  0  0  0
 31 50  1  0  0  0
 32 33  1  0  0  0
 33 34  1  0  0  0
 33 35  2  0  0  0
M  CHG  2   4  -1  34  -1
M  END
> <s_m_source_file>
../2pgj_ligand.sdf

> <i_m_source_file_index>
1

> <s_epik_input>
W0NAQEhdMTJbQ0gyXU9bUEBAXSg9TykoW09IXSlPW1BAXSg9TykoW09IXSlPW0NIMl1DMz1DKFtPSF0pW0NAQEhdKFtPSF0pW0NAQEhdKE8zKW40YzVjKG5bY0hdNCljKD1PKW4oW2NIXW41KVtDQEhdKE8yKVtDQEhdKFtPSF0pW0NAQEhdMVtPSF0=

> <s_epik_cmdline>
J2VwaWtfYXBwJywgJy1pbWFlJywgJ2xpZ2FuZF9wcm8ubWFlJywgJy1vbWFlJywgJ2xpZ2FuZF9wcmVwLm1hZScsICctbXMnLCAnMScsICctcGgnLCAnNycsICctcGh0JywgJzAuNScsICctbnQn

> <r_lp_tautomer_probability>
1

> <r_epik_Ionization_Penalty>
  0.0018

> <r_epik_Ionization_Penalty_Charging>
  0.0005

> <r_epik_Ionization_Penalty_Neutral>
  0.0013

> <r_epik_State_Penalty>
 -0.0000

> <r_epik_Charging_Adjusted_Penalty>
0.000472617774650912

> <i_epik_Tot_Q>
-2

> <i_epik_Tot_abs_Q>
2

> <s_epik_Chemistry_Notes>
This compound contains an acetal/aminal-like group ( X-CH(R)-Y where X, Y are N, S, or O) that may be acid/base labile, releasing an aldehyde.

$$$$
