2pgl_ligand
                    3D
 Schrodinger Suite 2020-3.
 51 55  0  0  1  0            999 V2000
    5.5760    3.7310    3.4880 O   0  5  0  0  0  0
    4.1500    4.3030    3.5420 P   0  0  1  0  0  0
    3.6050    4.2030    5.0570 O   0  0  0  0  0  0
    3.8040    5.6690    3.0020 O   0  0  0  0  0  0
    3.1920    3.3220    2.6770 O   0  0  0  0  0  0
    1.7740    3.5160    2.6980 C   0  0  0  0  0  0
    1.2420    3.7840    1.2900 C   0  0  2  0  0  0
   -0.2640    3.6200    1.2640 C   0  0  1  0  0  0
   -0.7840    4.7760    0.5950 O   0  0  0  0  0  0
   -0.5340    2.2960    0.5380 C   0  0  1  0  0  0
   -1.4020    2.5430   -0.5810 O   0  0  0  0  0  0
    1.7160    2.8480    0.3010 O   0  0  0  0  0  0
    0.8410    1.7220    0.1420 C   0  0  1  0  0  0
    1.3430    0.6900    1.0840 N   0  0  0  0  0  0
    0.4940   -0.3080    1.6170 C   0  0  0  0  0  0
   -0.7100   -0.3670    1.2880 O   0  0  0  0  0  0
    1.0600   -1.2980    2.5830 C   0  0  0  0  0  0
    0.5350   -2.3430    3.2640 N   0  0  0  0  0  0
    1.5210   -2.8800    4.0050 C   0  0  0  0  0  0
    2.6400    0.6870    1.4810 C   0  0  0  0  0  0
    3.1540   -0.2050    2.3600 N   0  0  0  0  0  0
    2.3970   -1.1960    2.9250 C   0  0  0  0  0  0
    2.6470   -2.1990    3.7890 N   0  0  0  0  0  0
    3.9190   -2.5280    4.4730 C   0  0  2  0  0  0
    4.0050   -1.5980    5.5650 O   0  0  0  0  0  0
    5.1480   -2.3210    3.5970 C   0  0  2  0  0  0
    6.1030   -3.3590    3.8890 O   0  0  0  0  0  0
    5.6390   -0.9990    4.0860 C   0  0  0  0  0  0
    6.6210   -0.3010    3.5280 O   0  0  0  0  0  0
    4.9600   -0.5980    5.1400 C   0  0  1  0  0  0
    5.1360    0.7410    5.8220 C   0  0  0  0  0  0
    4.2120    1.7470    5.3720 O   0  0  0  0  0  0
    4.3130    3.1960    6.1010 P   0  0  1  0  0  0
    5.7890    3.5620    6.1960 O   0  5  0  0  0  0
    3.4400    3.1630    7.3300 O   0  0  0  0  0  0
    1.2863    2.6137    3.0956 H   0  0  0  0  0  0
    1.5311    4.3766    3.3386 H   0  0  0  0  0  0
    1.6066    4.7815    1.0034 H   0  0  0  0  0  0
   -0.7738    3.6228    2.2387 H   0  0  0  0  0  0
   -0.6436    5.7749    1.0336 H   0  0  0  0  0  0
   -1.1076    1.5600    1.1205 H   0  0  0  0  0  0
   -2.4093    2.9530   -0.4157 H   0  0  0  0  0  0
    0.8397    1.2738   -0.8625 H   0  0  0  0  0  0
    1.4164   -3.7341    4.6741 H   0  0  0  0  0  0
    3.3058    1.4454    1.0691 H   0  0  0  0  0  0
    3.8883   -3.5755    4.8074 H   0  0  0  0  0  0
    5.0053   -2.3716    2.5075 H   0  0  0  0  0  0
    5.8937   -4.3978    3.5938 H   0  0  0  0  0  0
    4.9880    0.6228    6.9056 H   0  0  0  0  0  0
    6.1506    1.1199    5.6297 H   0  0  0  0  0  0
    5.7198   -1.0435    5.7990 H   0  0  0  0  0  0
  1  2  1  0  0  0
  2  3  1  0  0  0
  2  4  2  0  0  0
  2  5  1  0  0  0
  3 33  1  0  0  0
  5  6  1  0  0  0
  6  7  1  0  0  0
  6 36  1  0  0  0
  6 37  1  0  0  0
  7  8  1  0  0  0
  7 12  1  0  0  0
  7 38  1  0  0  0
  8  9  1  0  0  0
  8 10  1  0  0  0
  8 39  1  0  0  0
  9 40  1  0  0  0
 10 11  1  0  0  0
 10 13  1  0  0  0
 10 41  1  0  0  0
 11 42  1  0  0  0
 12 13  1  0  0  0
 13 14  1  0  0  0
 13 43  1  0  0  0
 14 15  1  0  0  0
 14 20  1  0  0  0
 15 16  2  0  0  0
 15 17  1  0  0  0
 17 18  1  0  0  0
 17 22  2  0  0  0
 18 19  2  0  0  0
 19 23  1  0  0  0
 19 44  1  0  0  0
 20 21  2  0  0  0
 20 45  1  0  0  0
 21 22  1  0  0  0
 22 23  1  0  0  0
 23 24  1  0  0  0
 24 25  1  0  0  0
 24 26  1  0  0  0
 24 46  1  0  0  0
 25 30  1  0  0  0
 26 27  1  0  0  0
 26 28  1  0  0  0
 26 47  1  0  0  0
 27 48  1  0  0  0
 28 29  2  0  0  0
 28 30  1  0  0  0
 30 31  1  0  0  0
 30 51  1  0  0  0
 31 32  1  0  0  0
 31 49  1  0  0  0
 31 50  1  0  0  0
 32 33  1  0  0  0
 33 34  1  0  0  0
 33 35  2  0  0  0
M  CHG  2   1  -1  34  -1
M  END
> <s_m_source_file>
../2pgl_ligand.sdf

> <i_m_source_file_index>
1

> <s_epik_input>
W0NAQEhdMTJbQ0gyXU9bUEBdKD1PKShbT0hdKU9bUEBdKD1PKShbT0hdKU9bQ0gyXUMzPUMoW09IXSlbQ0BASF0oW09IXSlbQ0BASF0oTzMpbjRjNWMobltjSF00KWMoPU8pbihbY0hdbjUpW0NASF0oTzIpW0NASF0oW09IXSlbQ0BASF0xW09IXQ==

> <s_epik_cmdline>
J2VwaWtfYXBwJywgJy1pbWFlJywgJ2xpZ2FuZF9wcm8ubWFlJywgJy1vbWFlJywgJ2xpZ2FuZF9wcmVwLm1hZScsICctbXMnLCAnMScsICctcGgnLCAnNycsICctcGh0JywgJzAuNScsICctbnQn

> <r_lp_tautomer_probability>
1

> <r_epik_Ionization_Penalty>
  0.0018

> <r_epik_Ionization_Penalty_Charging>
  0.0005

> <r_epik_Ionization_Penalty_Neutral>
  0.0013

> <r_epik_State_Penalty>
 -0.0000

> <r_epik_Charging_Adjusted_Penalty>
0.000472617774650912

> <i_epik_Tot_Q>
-2

> <i_epik_Tot_abs_Q>
2

> <s_epik_Chemistry_Notes>
This compound contains an acetal/aminal-like group ( X-CH(R)-Y where X, Y are N, S, or O) that may be acid/base labile, releasing an aldehyde.

$$$$
