2pgz_ligand
                    3D
 Schrodinger Suite 2020-3.
 44 46  0  0  1  0            999 V2000
  -10.1970   19.6950   59.8270 C   0  0  0  0  0  0
  -10.0460   19.6920   61.2510 O   0  0  0  0  0  0
  -11.1460   20.0610   62.0940 C   0  0  0  0  0  0
  -12.1900   20.4570   61.5530 O   0  0  0  0  0  0
  -10.9530   19.9740   63.5840 C   0  0  2  0  0  0
  -11.8090   18.8400   64.1840 C   0  0  2  0  0  0
  -13.1920   19.2620   64.2010 N   0  3  1  0  0  0
  -14.2670   18.3950   63.7470 C   0  0  0  0  0  0
  -11.7340   18.8160   65.7220 C   0  0  0  0  0  0
  -12.7430   19.8540   66.2540 C   0  0  0  0  0  0
  -13.4590   20.4290   65.0160 C   0  0  1  0  0  0
  -12.7230   21.6400   64.4100 C   0  0  0  0  0  0
  -11.2220   21.3460   64.2150 C   0  0  2  0  0  0
  -10.6710   22.2890   63.3320 O   0  0  0  0  0  0
   -9.9120   23.3200   63.9810 C   0  0  0  0  0  0
   -9.7320   23.2940   65.1880 O   0  0  0  0  0  0
   -9.4450   24.4380   63.1070 C   0  0  0  0  0  0
   -8.5990   25.4320   63.5990 C   0  0  0  0  0  0
   -8.2190   26.4610   62.7490 C   0  0  0  0  0  0
   -8.6730   26.5090   61.4290 C   0  0  0  0  0  0
   -9.5300   25.5310   60.9420 C   0  0  0  0  0  0
   -9.9130   24.4880   61.7880 C   0  0  0  0  0  0
   -9.2516   19.3857   59.3574 H   0  0  0  0  0  0
  -10.4605   20.7079   59.4884 H   0  0  0  0  0  0
  -10.9949   18.9937   59.5414 H   0  0  0  0  0  0
   -9.9039   19.7153   63.7902 H   0  0  0  0  0  0
  -11.5418   17.9345   63.6195 H   0  0  0  0  0  0
  -13.3148   19.6274   63.1707 H   0  0  0  0  0  0
  -13.8474   17.5745   63.1464 H   0  0  0  0  0  0
  -14.9718   18.9754   63.1334 H   0  0  0  0  0  0
  -14.7952   17.9792   64.6177 H   0  0  0  0  0  0
  -11.9906   17.8102   66.0859 H   0  0  0  0  0  0
  -10.7139   19.0730   66.0434 H   0  0  0  0  0  0
  -13.4560   19.3593   66.9299 H   0  0  0  0  0  0
  -12.2046   20.6415   66.8017 H   0  0  0  0  0  0
  -14.5046   20.7520   65.1273 H   0  0  0  0  0  0
  -13.1612   21.8829   63.4307 H   0  0  0  0  0  0
  -12.8249   22.5049   65.0820 H   0  0  0  0  0  0
  -10.7194   21.4456   65.1884 H   0  0  0  0  0  0
   -8.2440   25.4011   64.6291 H   0  0  0  0  0  0
   -7.5560   27.2439   63.1172 H   0  0  0  0  0  0
   -8.3520   27.3206   60.7760 H   0  0  0  0  0  0
   -9.8975   25.5766   59.9168 H   0  0  0  0  0  0
  -10.5799   23.7085   61.4197 H   0  0  0  0  0  0
  1  2  1  0  0  0
  1 23  1  0  0  0
  1 24  1  0  0  0
  1 25  1  0  0  0
  2  3  1  0  0  0
  3  4  2  0  0  0
  3  5  1  0  0  0
  5  6  1  0  0  0
  5 13  1  0  0  0
  5 26  1  0  0  0
  6  7  1  0  0  0
  6  9  1  0  0  0
  6 27  1  0  0  0
  7  8  1  0  0  0
  7 11  1  0  0  0
  7 28  1  0  0  0
  8 29  1  0  0  0
  8 30  1  0  0  0
  8 31  1  0  0  0
  9 10  1  0  0  0
  9 32  1  0  0  0
  9 33  1  0  0  0
 10 11  1  0  0  0
 10 34  1  0  0  0
 10 35  1  0  0  0
 11 12  1  0  0  0
 11 36  1  0  0  0
 12 13  1  0  0  0
 12 37  1  0  0  0
 12 38  1  0  0  0
 13 14  1  0  0  0
 13 39  1  0  0  0
 14 15  1  0  0  0
 15 16  2  0  0  0
 15 17  1  0  0  0
 17 18  2  0  0  0
 17 22  1  0  0  0
 18 19  1  0  0  0
 18 40  1  0  0  0
 19 20  2  0  0  0
 19 41  1  0  0  0
 20 21  1  0  0  0
 20 42  1  0  0  0
 21 22  2  0  0  0
 21 43  1  0  0  0
 22 44  1  0  0  0
M  CHG  1   7   1
M  END
> <s_m_source_file>
../2pgz_ligand.sdf

> <i_m_source_file_index>
1

> <s_epik_input>
W0NIM11PQyg9TylbQ0BIXShbQ0BIXTEyKVtDQEhdKFtDSDJdW0NAQEhdKFtOQEBIK10xW0NIM10pW0NIMl1bQ0gyXTIpT0MoPU8pYzNbY0hdW2NIXVtjSF1bY0hdW2NIXTM=

> <s_epik_cmdline>
J2VwaWtfYXBwJywgJy1pbWFlJywgJ2xpZ2FuZF9wcm8ubWFlJywgJy1vbWFlJywgJ2xpZ2FuZF9wcmVwLm1hZScsICctbXMnLCAnMScsICctcGgnLCAnNycsICctcGh0JywgJzAuNScsICctbnQn

> <r_epik_Ionization_Penalty>
  0.0650

> <r_epik_Ionization_Penalty_Charging>
  0.0650

> <r_epik_Ionization_Penalty_Neutral>
  0.0000

> <r_epik_State_Penalty>
  0.0567

> <r_epik_Charging_Adjusted_Penalty>
0.121649389844584

> <i_epik_Tot_Q>
1

> <i_epik_Tot_abs_Q>
1

> <s_epik_Chemistry_Notes>
This compound has an ester and may undergo hydrolysis at high or low pH.

$$$$
