2ph6_ligand
                    3D
 Schrodinger Suite 2020-3.
 70 72  0  0  1  0            999 V2000
   31.0490   37.5600    2.4680 C   0  0  2  0  0  0
   30.9790   38.3830    3.7150 N   0  0  0  0  0  0
   30.0370   38.0530    1.4510 C   0  0  0  0  0  0
   29.7700   39.3470    1.6340 O   0  0  0  0  0  0
   29.6890   37.4030    0.4750 O   0  0  0  0  0  0
   30.6300   36.1510    2.9050 C   0  0  0  0  0  0
   32.4580   37.6230    1.8490 C   0  0  0  0  0  0
   32.9990   38.9670    1.3980 C   0  0  0  0  0  0
   33.7240   39.7720    2.2770 C   0  0  0  0  0  0
   33.9920   41.4690    0.5720 C   0  0  0  0  0  0
   33.2620   40.6680   -0.3130 C   0  0  0  0  0  0
   34.2200   41.0170    1.8740 C   0  0  0  0  0  0
   32.7730   39.4250    0.0980 C   0  0  0  0  0  0
   28.4770   44.2060    0.9870 C   0  0  0  0  0  0
   29.6870   43.6240    1.4080 C   0  0  0  0  0  0
   29.8630   42.2310    1.3270 C   0  0  0  0  0  0
   28.8240   41.4310    0.8380 C   0  0  0  0  0  0
   27.6390   42.0270    0.4340 C   0  0  0  0  0  0
   27.4410   43.3970    0.4940 C   0  0  0  0  0  0
   26.2370   43.8610    0.0710 N   0  0  0  0  0  0
   30.7580   44.5390    1.9230 C   0  0  0  0  0  0
   31.4770   44.0530    2.9480 N   0  0  0  0  0  0
   30.9440   45.6330    1.3780 O   0  0  0  0  0  0
   25.3650   44.9530    1.0160 S   0  0  0  0  0  0
   25.7200   46.4950    0.3630 C   0  0  0  0  0  0
   25.9870   44.8720    2.5750 O   0  0  0  0  0  0
   23.7320   44.6620    0.7530 O   0  0  0  0  0  0
   25.6280   43.3780   -1.1780 C   0  0  0  0  0  0
   32.5530   44.7780    3.5960 C   0  0  1  0  0  0
   32.1110   45.3510    4.9220 C   0  0  0  0  0  0
   31.7390   44.4960    5.9720 C   0  0  0  0  0  0
   31.3290   46.3860    7.3800 C   0  0  0  0  0  0
   31.6810   47.2490    6.3470 C   0  0  0  0  0  0
   31.3460   45.0050    7.2110 C   0  0  0  0  0  0
   32.0790   46.7320    5.1210 C   0  0  0  0  0  0
   33.8360   43.9330    3.7060 C   0  0  0  0  0  0
   30.9570   46.9100    8.5590 F   0  0  0  0  0  0
   28.8840   39.9350    0.6670 C   0  0  0  0  0  0
   29.9653   38.3224    4.1379 H   0  0  0  0  0  0
   31.7053   38.0012    4.4476 H   0  0  0  0  0  0
   29.6181   36.1862    3.3349 H   0  0  0  0  0  0
   31.3364   35.7761    3.6602 H   0  0  0  0  0  0
   30.6349   35.4801    2.0333 H   0  0  0  0  0  0
   33.1956   37.2573    2.5785 H   0  0  0  0  0  0
   32.4909   36.9937    0.9474 H   0  0  0  0  0  0
   33.9071   39.4256    3.2942 H   0  0  0  0  0  0
   34.3787   42.4355    0.2489 H   0  0  0  0  0  0
   33.0736   41.0155   -1.3288 H   0  0  0  0  0  0
   34.7833   41.6330    2.5749 H   0  0  0  0  0  0
   32.2103   38.8075   -0.6021 H   0  0  0  0  0  0
   28.3439   45.2864    1.0437 H   0  0  0  0  0  0
   30.8024   41.7775    1.6430 H   0  0  0  0  0  0
   26.8350   41.3955    0.0559 H   0  0  0  0  0  0
   31.2088   43.0433    3.2922 H   0  0  0  0  0  0
   26.7853   46.7219    0.5168 H   0  0  0  0  0  0
   25.1065   47.2565    0.8666 H   0  0  0  0  0  0
   25.4963   46.4974   -0.7140 H   0  0  0  0  0  0
   26.3163   42.6785   -1.6750 H   0  0  0  0  0  0
   25.4292   44.2314   -1.8429 H   0  0  0  0  0  0
   24.6832   42.8629   -0.9500 H   0  0  0  0  0  0
   32.7530   45.6266    2.9253 H   0  0  0  0  0  0
   31.7574   43.4172    5.8170 H   0  0  0  0  0  0
   31.6445   48.3277    6.4995 H   0  0  0  0  0  0
   31.0600   44.3383    8.0245 H   0  0  0  0  0  0
   32.3666   47.4053    4.3135 H   0  0  0  0  0  0
   34.1059   43.5452    2.7126 H   0  0  0  0  0  0
   33.6632   43.0919    4.3935 H   0  0  0  0  0  0
   34.6551   44.5585    4.0904 H   0  0  0  0  0  0
   29.2450   39.7078   -0.3469 H   0  0  0  0  0  0
   27.8728   39.5220    0.7973 H   0  0  0  0  0  0
  1  2  1  0  0  0
  1  3  1  0  0  0
  1  6  1  0  0  0
  1  7  1  0  0  0
  2 39  1  0  0  0
  2 40  1  0  0  0
  3  4  1  0  0  0
  3  5  2  0  0  0
  4 38  1  0  0  0
  6 41  1  0  0  0
  6 42  1  0  0  0
  6 43  1  0  0  0
  7  8  1  0  0  0
  7 44  1  0  0  0
  7 45  1  0  0  0
  8  9  2  0  0  0
  8 13  1  0  0  0
  9 12  1  0  0  0
  9 46  1  0  0  0
 10 11  1  0  0  0
 10 12  2  0  0  0
 10 47  1  0  0  0
 11 13  2  0  0  0
 11 48  1  0  0  0
 12 49  1  0  0  0
 13 50  1  0  0  0
 14 15  2  0  0  0
 14 19  1  0  0  0
 14 51  1  0  0  0
 15 16  1  0  0  0
 15 21  1  0  0  0
 16 17  2  0  0  0
 16 52  1  0  0  0
 17 18  1  0  0  0
 17 38  1  0  0  0
 18 19  2  0  0  0
 18 53  1  0  0  0
 19 20  1  0  0  0
 20 24  1  0  0  0
 20 28  1  0  0  0
 21 22  1  0  0  0
 21 23  2  0  0  0
 22 29  1  0  0  0
 22 54  1  0  0  0
 24 25  1  0  0  0
 24 26  2  0  0  0
 24 27  2  0  0  0
 25 55  1  0  0  0
 25 56  1  0  0  0
 25 57  1  0  0  0
 28 58  1  0  0  0
 28 59  1  0  0  0
 28 60  1  0  0  0
 29 30  1  0  0  0
 29 36  1  0  0  0
 29 61  1  0  0  0
 30 31  2  0  0  0
 30 35  1  0  0  0
 31 34  1  0  0  0
 31 62  1  0  0  0
 32 33  1  0  0  0
 32 34  2  0  0  0
 32 37  1  0  0  0
 33 35  2  0  0  0
 33 63  1  0  0  0
 34 64  1  0  0  0
 35 65  1  0  0  0
 36 66  1  0  0  0
 36 67  1  0  0  0
 36 68  1  0  0  0
 38 69  1  0  0  0
 38 70  1  0  0  0
M  END
> <s_m_source_file>
../2ph6_ligand.sdf

> <i_m_source_file_index>
1

> <s_epik_input>
W2NIXTFbY0hdW2NIXVtjSF1bY0hdYzFbQ0gyXVtDQF0oW05IMytdKShbQ0gzXSlDKD1PKU9bQ0gyXWMoW2NIXTIpW2NIXWMoTihbQ0gzXSlTKD1PKSg9TylbQ0gzXSlbY0hdYzJDKD1PKVtOSF1bQ0BIXShbQ0gzXSljM1tjSF1bY0hdYyhGKVtjSF1bY0hdMw==

> <s_epik_cmdline>
J2VwaWtfYXBwJywgJy1pbWFlJywgJ2xpZ2FuZF9wcm8ubWFlJywgJy1vbWFlJywgJ2xpZ2FuZF9wcmVwLm1hZScsICctbXMnLCAnMScsICctcGgnLCAnNycsICctcGh0JywgJzAuNScsICctbnQn

> <r_epik_Ionization_Penalty>
  0.2141

> <r_epik_Ionization_Penalty_Charging>
  0.0000

> <r_epik_Ionization_Penalty_Neutral>
  0.2141

> <r_epik_State_Penalty>
  0.2043

> <r_epik_Charging_Adjusted_Penalty>
0.204290099257452

> <i_epik_Tot_Q>
0

> <i_epik_Tot_abs_Q>
0

> <s_epik_Chemistry_Notes>
This compound has an ester and may undergo hydrolysis at high or low pH.

$$$$
