2ph8_ligand
                    3D
 Schrodinger Suite 2020-3.
 65 67  0  0  1  0            999 V2000
   28.6480   41.9880    0.6210 C   0  0  0  0  0  0
   29.8060   42.9190    0.7930 C   0  0  0  0  0  0
   33.3860   41.3570   -0.4010 C   0  0  0  0  0  0
   32.9880   39.9990    0.0830 C   0  0  0  0  0  0
   29.6800   39.8810    1.5750 O   0  0  0  0  0  0
   28.7290   40.4780    0.6530 C   0  0  0  0  0  0
   32.9350   39.7370    1.3860 C   0  0  0  0  0  0
   32.5530   38.3690    1.8910 C   0  0  0  0  0  0
   31.1140   38.1670    2.3560 C   0  0  1  0  0  0
   33.6880   42.3190    0.4660 C   0  0  0  0  0  0
   33.6230   42.0430    1.9360 C   0  0  0  0  0  0
   33.2740   40.8310    2.3430 C   0  0  0  0  0  0
   31.0910   45.6780    2.2900 C   0  0  0  0  0  0
   31.8070   44.6160    3.1390 C   0  0  1  0  0  0
   33.2830   44.4680    2.7270 C   0  0  0  0  0  0
   33.9680   43.1170    2.9620 C   0  0  0  0  0  0
   29.6050   44.2420    0.7230 C   0  0  0  0  0  0
   30.7470   45.2320    0.8780 C   0  0  0  0  0  0
   28.3820   44.7920    0.4910 N   0  0  0  0  0  0
   27.4610   42.5320    0.3930 C   0  0  0  0  0  0
   27.3630   44.0120    0.3530 C   0  0  0  0  0  0
   26.1320   44.5290    0.0920 N   0  0  0  0  0  0
   25.4760   45.6950    1.1270 S   0  0  0  0  0  0
   25.9950   47.2230    0.5280 C   0  0  0  0  0  0
   23.8160   45.6250    0.9680 O   0  0  0  0  0  0
   26.1120   45.5140    2.6530 O   0  0  0  0  0  0
   25.6970   44.5070   -1.3130 C   0  0  0  0  0  0
   31.6490   44.9280    4.6290 C   0  0  0  0  0  0
   30.1830   38.6610    1.2800 C   0  0  0  0  0  0
   30.0050   38.0210    0.2570 O   0  0  0  0  0  0
   30.8590   36.6700    2.6030 C   0  0  0  0  0  0
   30.8490   38.8790    3.6430 N   0  0  0  0  0  0
   30.8058   42.5243    0.9739 H   0  0  0  0  0  0
   33.4288   41.5595   -1.4712 H   0  0  0  0  0  0
   32.7398   39.2189   -0.6367 H   0  0  0  0  0  0
   27.7494   40.0642    0.9344 H   0  0  0  0  0  0
   29.0125   40.1048   -0.3422 H   0  0  0  0  0  0
   32.7079   37.6273    1.0935 H   0  0  0  0  0  0
   33.1781   38.1106    2.7585 H   0  0  0  0  0  0
   33.9820   43.3055    0.1075 H   0  0  0  0  0  0
   33.2332   40.6262    3.4128 H   0  0  0  0  0  0
   30.1447   45.9586    2.7755 H   0  0  0  0  0  0
   31.7327   46.5665    2.1966 H   0  0  0  0  0  0
   31.3288   43.6422    2.9571 H   0  0  0  0  0  0
   33.3826   44.6529    1.6472 H   0  0  0  0  0  0
   33.8933   45.1961    3.2815 H   0  0  0  0  0  0
   33.6671   42.7771    3.9639 H   0  0  0  0  0  0
   35.0521   43.3027    2.9481 H   0  0  0  0  0  0
   30.4613   46.1074    0.2764 H   0  0  0  0  0  0
   31.6225   44.7449    0.4238 H   0  0  0  0  0  0
   26.5802   41.9086    0.2390 H   0  0  0  0  0  0
   25.5912   47.3766   -0.4836 H   0  0  0  0  0  0
   27.0941   47.2485    0.4918 H   0  0  0  0  0  0
   25.6314   48.0202    1.1930 H   0  0  0  0  0  0
   26.2149   43.6950   -1.8445 H   0  0  0  0  0  0
   25.9402   45.4693   -1.7872 H   0  0  0  0  0  0
   24.6106   44.3402   -1.3579 H   0  0  0  0  0  0
   30.5805   45.0239    4.8722 H   0  0  0  0  0  0
   32.1644   45.8713    4.8627 H   0  0  0  0  0  0
   32.0886   44.1131    5.2229 H   0  0  0  0  0  0
   31.0440   36.1086    1.6753 H   0  0  0  0  0  0
   29.8156   36.5230    2.9187 H   0  0  0  0  0  0
   31.5351   36.3081    3.3916 H   0  0  0  0  0  0
   31.0209   39.9570    3.5078 H   0  0  0  0  0  0
   29.8057   38.7094    3.9478 H   0  0  0  0  0  0
  1  2  2  0  0  0
  1  6  1  0  0  0
  1 20  1  0  0  0
  2 17  1  0  0  0
  2 33  1  0  0  0
  3  4  2  0  0  0
  3 10  1  0  0  0
  3 34  1  0  0  0
  4  7  1  0  0  0
  4 35  1  0  0  0
  5  6  1  0  0  0
  5 29  1  0  0  0
  6 36  1  0  0  0
  6 37  1  0  0  0
  7  8  1  0  0  0
  7 12  2  0  0  0
  8  9  1  0  0  0
  8 38  1  0  0  0
  8 39  1  0  0  0
  9 29  1  0  0  0
  9 31  1  0  0  0
  9 32  1  0  0  0
 10 11  2  0  0  0
 10 40  1  0  0  0
 11 12  1  0  0  0
 11 16  1  0  0  0
 12 41  1  0  0  0
 13 14  1  0  0  0
 13 18  1  0  0  0
 13 42  1  0  0  0
 13 43  1  0  0  0
 14 15  1  0  0  0
 14 28  1  0  0  0
 14 44  1  0  0  0
 15 16  1  0  0  0
 15 45  1  0  0  0
 15 46  1  0  0  0
 16 47  1  0  0  0
 16 48  1  0  0  0
 17 18  1  0  0  0
 17 19  2  0  0  0
 18 49  1  0  0  0
 18 50  1  0  0  0
 19 21  1  0  0  0
 20 21  2  0  0  0
 20 51  1  0  0  0
 21 22  1  0  0  0
 22 23  1  0  0  0
 22 27  1  0  0  0
 23 24  1  0  0  0
 23 25  2  0  0  0
 23 26  2  0  0  0
 24 52  1  0  0  0
 24 53  1  0  0  0
 24 54  1  0  0  0
 27 55  1  0  0  0
 27 56  1  0  0  0
 27 57  1  0  0  0
 28 58  1  0  0  0
 28 59  1  0  0  0
 28 60  1  0  0  0
 29 30  2  0  0  0
 31 61  1  0  0  0
 31 62  1  0  0  0
 31 63  1  0  0  0
 32 64  1  0  0  0
 32 65  1  0  0  0
M  END
> <s_m_source_file>
../2ph8_ligand.sdf

> <i_m_source_file_index>
1

> <s_epik_input>
W0NIM11TKD1PKSg9TylOKFtDSDNdKWMoW2NIXTEpbmMoW2NIXWMxMilbQ0gyXVtDSDJdW0NASF0oW0NIM10pW0NIMl1bQ0gyXWMzW2NIXVtjSF1bY0hdYyhbY0hdMylbQ0gyXVtDQEBdKFtDSDNdKShbTkgzK10pQyg9TylPW0NIMl0y

> <s_epik_cmdline>
J2VwaWtfYXBwJywgJy1pbWFlJywgJ2xpZ2FuZF9wcm8ubWFlJywgJy1vbWFlJywgJ2xpZ2FuZF9wcmVwLm1hZScsICctbXMnLCAnMScsICctcGgnLCAnNycsICctcGh0JywgJzAuNScsICctbnQn

> <r_epik_Ionization_Penalty>
  0.2105

> <r_epik_Ionization_Penalty_Charging>
  0.0000

> <r_epik_Ionization_Penalty_Neutral>
  0.2105

> <r_epik_State_Penalty>
  0.2005

> <r_epik_Charging_Adjusted_Penalty>
0.200524248035729

> <i_epik_Tot_Q>
0

> <i_epik_Tot_abs_Q>
0

> <s_epik_Chemistry_Notes>
This compound has an ester and may undergo hydrolysis at high or low pH.

$$$$
