2ph9_ligand
                    3D
 Schrodinger Suite 2020-3.
 43 46  0  0  1  0            999 V2000
    6.3140   37.9710   -8.0020 C   0  0  0  0  0  0
    5.8590   39.1680   -8.3800 C   0  0  0  0  0  0
    4.8680   39.3640   -9.5210 C   0  0  1  0  0  0
    4.8830   38.1940  -10.5010 C   0  0  0  0  0  0
    4.7920   36.8620   -9.7510 C   0  0  1  0  0  0
    5.8740   36.6420   -8.6330 C   0  0  1  0  0  0
    3.4910   36.7070   -9.1420 O   0  0  0  0  0  0
    2.6650   35.5210   -7.0120 C   0  0  0  0  0  0
    3.0860   34.9210   -5.8240 C   0  0  0  0  0  0
    4.4410   34.8210   -5.4770 C   0  0  0  0  0  0
    6.9050   35.2140   -5.8770 C   0  0  0  0  0  0
    7.5300   34.5420   -7.0290 N   0  3  1  0  0  0
    8.1100   35.4970   -8.0000 C   0  0  0  0  0  0
    7.0670   35.7650   -9.0970 C   0  0  0  0  0  0
    3.6570   36.0870   -7.9330 C   0  0  0  0  0  0
    5.0620   35.9800   -7.5710 C   0  0  0  0  0  0
    5.4580   35.3410   -6.2820 C   0  0  0  0  0  0
    0.6040   36.6660   -6.7040 C   0  0  0  0  0  0
    1.3580   35.6290   -7.3370 O   0  0  0  0  0  0
    3.5390   39.5230   -9.0190 O   0  0  0  0  0  0
    8.5600   33.6220   -6.5560 C   0  0  0  0  0  0
    7.0519   37.8945   -7.1899 H   0  0  0  0  0  0
    6.1995   40.0753   -7.8595 H   0  0  0  0  0  0
    5.1192   40.3026  -10.0366 H   0  0  0  0  0  0
    4.0254   38.2774  -11.1847 H   0  0  0  0  0  0
    5.8175   38.2134  -11.0810 H   0  0  0  0  0  0
    4.8945   36.0956  -10.5334 H   0  0  0  0  0  0
    2.3366   34.5168   -5.1435 H   0  0  0  0  0  0
    4.7103   34.3203   -4.5470 H   0  0  0  0  0  0
    7.0340   34.5948   -4.9771 H   0  0  0  0  0  0
    7.3822   36.1926   -5.7202 H   0  0  0  0  0  0
    6.7435   33.9775   -7.5512 H   0  0  0  0  0  0
    8.3643   36.4349   -7.4846 H   0  0  0  0  0  0
    9.0191   35.0636   -8.4423 H   0  0  0  0  0  0
    6.6935   34.7873   -9.4355 H   0  0  0  0  0  0
    7.5891   36.2651   -9.9260 H   0  0  0  0  0  0
   -0.4357   36.6340   -7.0618 H   0  0  0  0  0  0
    1.0463   37.6428   -6.9493 H   0  0  0  0  0  0
    0.6214   36.5189   -5.6140 H   0  0  0  0  0  0
    3.3168   40.3192   -8.2932 H   0  0  0  0  0  0
    8.1193   32.9171   -5.8356 H   0  0  0  0  0  0
    9.3638   34.1917   -6.0667 H   0  0  0  0  0  0
    8.9730   33.0640   -7.4092 H   0  0  0  0  0  0
  1  2  2  0  0  0
  1  6  1  0  0  0
  1 22  1  0  0  0
  2  3  1  0  0  0
  2 23  1  0  0  0
  3  4  1  0  0  0
  3 20  1  0  0  0
  3 24  1  0  0  0
  4  5  1  0  0  0
  4 25  1  0  0  0
  4 26  1  0  0  0
  5  6  1  0  0  0
  5  7  1  0  0  0
  5 27  1  0  0  0
  6 14  1  0  0  0
  6 16  1  0  0  0
  7 15  1  0  0  0
  8  9  2  0  0  0
  8 15  1  0  0  0
  8 19  1  0  0  0
  9 10  1  0  0  0
  9 28  1  0  0  0
 10 17  2  0  0  0
 10 29  1  0  0  0
 11 12  1  0  0  0
 11 17  1  0  0  0
 11 30  1  0  0  0
 11 31  1  0  0  0
 12 13  1  0  0  0
 12 21  1  0  0  0
 12 32  1  0  0  0
 13 14  1  0  0  0
 13 33  1  0  0  0
 13 34  1  0  0  0
 14 35  1  0  0  0
 14 36  1  0  0  0
 15 16  2  0  0  0
 16 17  1  0  0  0
 18 19  1  0  0  0
 18 37  1  0  0  0
 18 38  1  0  0  0
 18 39  1  0  0  0
 20 40  1  0  0  0
 21 41  1  0  0  0
 21 42  1  0  0  0
 21 43  1  0  0  0
M  CHG  1  12   1
M  END
> <s_m_source_file>
../2ph9_ligand.sdf

> <i_m_source_file_index>
1

> <s_epik_input>
W0NIXTE9W0NIXVtDQEhdKFtPSF0pW0NIMl1bQ0BASF0oW0NAXTEyMylPYzRjM2MoW0NIMl1bTkBIK10oW0NIM10pW0NIMl1bQ0gyXTIpW2NIXVtjSF1jNE9bQ0gzXQ==

> <s_epik_cmdline>
J2VwaWtfYXBwJywgJy1pbWFlJywgJ2xpZ2FuZF9wcm8ubWFlJywgJy1vbWFlJywgJ2xpZ2FuZF9wcmVwLm1hZScsICctbXMnLCAnMScsICctcGgnLCAnNycsICctcGh0JywgJzAuNScsICctbnQn

> <r_lp_tautomer_probability>
1

> <r_epik_Ionization_Penalty>
  0.0211

> <r_epik_Ionization_Penalty_Charging>
  0.0211

> <r_epik_Ionization_Penalty_Neutral>
  0.0000

> <r_epik_State_Penalty>
  0.0169

> <r_epik_Charging_Adjusted_Penalty>
0.0379604800893199

> <i_epik_Tot_Q>
1

> <i_epik_Tot_abs_Q>
1

$$$$
