2pix_ligand
                    3D
 Schrodinger Suite 2020-3.
 29 30  0  0  1  0            999 V2000
   20.0840   15.6620   31.3940 C   0  0  0  0  0  0
   20.7420   17.9120   30.9340 O   0  0  0  0  0  0
   20.4610   14.5320   32.0990 C   0  0  0  0  0  0
   20.0280   13.2680   31.6900 C   0  0  0  0  0  0
   20.9050   17.1950   33.0240 O   0  5  0  0  0  0
   19.2190   13.1490   30.5710 C   0  0  0  0  0  0
   18.8420   14.2980   29.8580 C   0  0  0  0  0  0
   19.2770   15.5480   30.2630 C   0  0  0  0  0  0
   20.6290   17.0320   31.8100 C   0  0  0  0  0  0
   18.8600   16.6720   29.6640 N   0  0  0  0  0  0
   18.0940   16.7380   28.5810 C   0  0  0  0  0  0
   17.7060   17.9870   28.1380 C   0  0  0  0  0  0
   16.8600   18.1200   27.0270 C   0  0  0  0  0  0
   16.4150   16.9870   26.3610 C   0  0  0  0  0  0
   16.8050   15.7290   26.8100 C   0  0  0  0  0  0
   17.6330   15.6030   27.9090 C   0  0  0  0  0  0
   16.4090   19.5190   26.5820 C   0  0  0  0  0  0
   16.0240   20.2380   27.6370 F   0  0  0  0  0  0
   15.3890   19.4190   25.7300 F   0  0  0  0  0  0
   17.4240   20.1340   25.9760 F   0  0  0  0  0  0
   21.0988   14.6287   32.9776 H   0  0  0  0  0  0
   20.3250   12.3801   32.2482 H   0  0  0  0  0  0
   18.8766   12.1666   30.2457 H   0  0  0  0  0  0
   18.2028   14.2052   28.9800 H   0  0  0  0  0  0
   19.1525   17.6521   30.0689 H   0  0  0  0  0  0
   18.0604   18.8779   28.6565 H   0  0  0  0  0  0
   15.7642   17.0818   25.4918 H   0  0  0  0  0  0
   16.4549   14.8367   26.2911 H   0  0  0  0  0  0
   17.9284   14.6121   28.2538 H   0  0  0  0  0  0
  1  3  2  0  0  0
  1  8  1  0  0  0
  1  9  1  0  0  0
  2  9  2  0  0  0
  3  4  1  0  0  0
  3 21  1  0  0  0
  4  6  2  0  0  0
  4 22  1  0  0  0
  5  9  1  0  0  0
  6  7  1  0  0  0
  6 23  1  0  0  0
  7  8  2  0  0  0
  7 24  1  0  0  0
  8 10  1  0  0  0
 10 11  1  0  0  0
 10 25  1  0  0  0
 11 12  2  0  0  0
 11 16  1  0  0  0
 12 13  1  0  0  0
 12 26  1  0  0  0
 13 14  2  0  0  0
 13 17  1  0  0  0
 14 15  1  0  0  0
 14 27  1  0  0  0
 15 16  2  0  0  0
 15 28  1  0  0  0
 16 29  1  0  0  0
 17 18  1  0  0  0
 17 19  1  0  0  0
 17 20  1  0  0  0
M  CHG  1   5  -1
M  END
> <s_m_source_file>
../2pix_ligand.sdf

> <i_m_source_file_index>
1

> <s_epik_input>
Tz1DKFtPSF0pYzFbY0hdW2NIXVtjSF1bY0hdYzFbTkhdYzJbY0hdYyhDKEYpKEYpRilbY0hdW2NIXVtjSF0y

> <s_epik_cmdline>
J2VwaWtfYXBwJywgJy1pbWFlJywgJ2xpZ2FuZF9wcm8ubWFlJywgJy1vbWFlJywgJ2xpZ2FuZF9wcmVwLm1hZScsICctbXMnLCAnMScsICctcGgnLCAnNycsICctcGh0JywgJzAuNScsICctbnQn

> <r_lp_tautomer_probability>
1

> <r_epik_Ionization_Penalty>
  0.0013

> <r_epik_Ionization_Penalty_Charging>
  0.0013

> <r_epik_Ionization_Penalty_Neutral>
  0.0000

> <r_epik_State_Penalty>
 -0.0000

> <r_epik_Charging_Adjusted_Penalty>
0.0013249278917022

> <i_epik_Tot_Q>
-1

> <i_epik_Tot_abs_Q>
1

$$$$
