2piy_ligand
                    3D
 Schrodinger Suite 2020-3.
 65 66  0  0  1  0            999 V2000
   39.2930   14.7300   68.2480 C   0  0  0  0  0  0
   40.5210   15.4400   68.2960 C   0  0  0  0  0  0
   41.6140   15.0210   67.4950 C   0  0  0  0  0  0
   41.4810   13.8940   66.6460 C   0  0  0  0  0  0
   40.2540   13.1820   66.5960 C   0  0  0  0  0  0
   39.1560   13.5980   67.3970 C   0  0  0  0  0  0
   37.8210   12.8160   67.3520 C   0  0  0  0  0  0
   36.6920   13.6000   66.6520 C   0  0  0  0  0  0
   36.9240   13.7190   65.1400 C   0  0  0  0  0  0
   35.7810   14.8830   64.3390 S   0  0  0  0  0  0
   34.3600   14.4580   64.5980 O   0  0  0  0  0  0
   36.0000   16.2510   64.9040 O   0  0  0  0  0  0
   36.0790   14.9090   62.7190 N   0  0  3  0  0  0
   35.0830   14.6060   61.7260 C   0  0  1  0  0  0
   34.8910   15.7800   60.7300 C   0  0  0  0  0  0
   36.1750   16.1800   59.9940 C   0  0  0  0  0  0
   34.3310   17.0000   61.4690 C   0  0  0  0  0  0
   35.3560   12.9430   60.9630 P   0  0  2  0  0  0
   34.4320   12.7930   59.8150 O   0  0  0  0  0  0
   35.2360   11.9750   62.0800 O   0  5  0  0  0  0
   37.0720   12.9060   60.3390 C   0  0  0  0  0  0
   37.4970   11.4490   60.0160 C   0  0  2  0  0  0
   37.7360   10.6200   61.3020 C   0  0  0  0  0  0
   37.3990    9.4200   61.2670 O   0  0  0  0  0  0
   38.2560   11.2070   62.2820 O   0  5  0  0  0  0
   38.7870   11.4110   59.1630 C   0  0  0  0  0  0
   38.8010   10.6340   57.9820 C   0  0  0  0  0  0
   39.9820   12.0610   59.5900 C   0  0  0  0  0  0
   41.1750   11.9180   58.8420 C   0  0  0  0  0  0
   41.1830   11.1330   57.6660 C   0  0  0  0  0  0
   39.9950   10.4920   57.2370 C   0  0  0  0  0  0
   40.0030    9.6280   55.9820 C   0  0  0  0  0  0
   40.1050    8.2160   56.3740 N   0  3  0  0  0  0
   38.4536   15.0524   68.8640 H   0  0  0  0  0  0
   40.6241   16.3071   68.9483 H   0  0  0  0  0  0
   42.5571   15.5663   67.5324 H   0  0  0  0  0  0
   42.3218   13.5736   66.0308 H   0  0  0  0  0  0
   40.1537   12.3153   65.9426 H   0  0  0  0  0  0
   37.9662   11.8740   66.8028 H   0  0  0  0  0  0
   37.4906   12.5952   68.3777 H   0  0  0  0  0  0
   35.7337   13.0843   66.8121 H   0  0  0  0  0  0
   36.6363   14.6155   67.0711 H   0  0  0  0  0  0
   37.9485   14.0731   64.9530 H   0  0  0  0  0  0
   36.7846   12.7347   64.6690 H   0  0  0  0  0  0
   37.1341   15.0131   62.4258 H   0  0  0  0  0  0
   34.1953   14.7593   62.3573 H   0  0  0  0  0  0
   34.1848   15.4362   59.9599 H   0  0  0  0  0  0
   36.5800   15.3065   59.4621 H   0  0  0  0  0  0
   36.9164   16.5429   60.7210 H   0  0  0  0  0  0
   35.9497   16.9776   59.2708 H   0  0  0  0  0  0
   33.4093   16.7168   61.9985 H   0  0  0  0  0  0
   34.1075   17.7968   60.7444 H   0  0  0  0  0  0
   35.0742   17.3621   62.1946 H   0  0  0  0  0  0
   37.1423   13.5116   59.4234 H   0  0  0  0  0  0
   37.7489   13.3163   61.1029 H   0  0  0  0  0  0
   36.6666   11.0052   59.4473 H   0  0  0  0  0  0
   37.8885   10.1426   57.6444 H   0  0  0  0  0  0
   39.9768   12.6693   60.4944 H   0  0  0  0  0  0
   42.0880   12.4132   59.1726 H   0  0  0  0  0  0
   42.1019   11.0213   57.0905 H   0  0  0  0  0  0
   39.0719    9.7903   55.4192 H   0  0  0  0  0  0
   40.8636    9.9017   55.3539 H   0  0  0  0  0  0
   40.1114    7.5849   55.4731 H   0  0  0  0  0  0
   39.2441    7.9472   57.0038 H   0  0  0  0  0  0
   41.0358    8.0586   56.9386 H   0  0  0  0  0  0
  1  2  2  0  0  0
  1  6  1  0  0  0
  1 34  1  0  0  0
  2  3  1  0  0  0
  2 35  1  0  0  0
  3  4  2  0  0  0
  3 36  1  0  0  0
  4  5  1  0  0  0
  4 37  1  0  0  0
  5  6  2  0  0  0
  5 38  1  0  0  0
  6  7  1  0  0  0
  7  8  1  0  0  0
  7 39  1  0  0  0
  7 40  1  0  0  0
  8  9  1  0  0  0
  8 41  1  0  0  0
  8 42  1  0  0  0
  9 10  1  0  0  0
  9 43  1  0  0  0
  9 44  1  0  0  0
 10 11  2  0  0  0
 10 12  2  0  0  0
 10 13  1  0  0  0
 13 14  1  0  0  0
 13 45  1  0  0  0
 14 15  1  0  0  0
 14 18  1  0  0  0
 14 46  1  0  0  0
 15 16  1  0  0  0
 15 17  1  0  0  0
 15 47  1  0  0  0
 16 48  1  0  0  0
 16 49  1  0  0  0
 16 50  1  0  0  0
 17 51  1  0  0  0
 17 52  1  0  0  0
 17 53  1  0  0  0
 18 19  2  0  0  0
 18 20  1  0  0  0
 18 21  1  0  0  0
 21 22  1  0  0  0
 21 54  1  0  0  0
 21 55  1  0  0  0
 22 23  1  0  0  0
 22 26  1  0  0  0
 22 56  1  0  0  0
 23 24  2  0  0  0
 23 25  1  0  0  0
 26 27  2  0  0  0
 26 28  1  0  0  0
 27 31  1  0  0  0
 27 57  1  0  0  0
 28 29  2  0  0  0
 28 58  1  0  0  0
 29 30  1  0  0  0
 29 59  1  0  0  0
 30 31  2  0  0  0
 30 60  1  0  0  0
 31 32  1  0  0  0
 32 33  1  0  0  0
 32 61  1  0  0  0
 32 62  1  0  0  0
 33 63  1  0  0  0
 33 64  1  0  0  0
 33 65  1  0  0  0
M  CHG  3  20  -1  25  -1  33   1
M  END
> <s_m_source_file>
../2piy_ligand.sdf

> <i_m_source_file_index>
1

> <s_epik_input>
W2NIXTFbY0hdW2NIXVtjSF1bY0hdYzFbQ0gyXVtDSDJdW0NIMl1TKD1PKSg9TylbTkhdW0NAQEhdKFtDSF0oW0NIM10pW0NIM10pW1BAXSg9TykoW09IXSlbQ0gyXVtDQEhdKEMoPU8pW09IXSljMltjSF1jKFtDSDJdW05IMytdKVtjSF1bY0hdW2NIXTI=

> <s_epik_cmdline>
J2VwaWtfYXBwJywgJy1pbWFlJywgJ2xpZ2FuZF9wcm8ubWFlJywgJy1vbWFlJywgJ2xpZ2FuZF9wcmVwLm1hZScsICctbXMnLCAnMScsICctcGgnLCAnNycsICctcGh0JywgJzAuNScsICctbnQn

> <r_epik_Ionization_Penalty>
  0.0260

> <r_epik_Ionization_Penalty_Charging>
  0.0260

> <r_epik_Ionization_Penalty_Neutral>
  0.0000

> <r_epik_State_Penalty>
  0.0205

> <r_epik_Charging_Adjusted_Penalty>
0.0465074531734235

> <i_epik_Tot_Q>
-1

> <i_epik_Tot_abs_Q>
3

$$$$
