2piz_ligand
                    3D
 Schrodinger Suite 2020-3.
 50 51  0  0  1  0            999 V2000
   35.5980   18.5350   63.3690 C   0  0  0  0  0  0
   36.3650   19.4500   64.1340 C   0  0  0  0  0  0
   37.3160   20.2890   63.4910 C   0  0  0  0  0  0
   37.4970   20.2130   62.0860 C   0  0  0  0  0  0
   36.7290   19.2980   61.3210 C   0  0  0  0  0  0
   35.7800   18.4590   61.9600 C   0  0  0  0  0  0
   34.9430   17.4830   61.1210 C   0  0  0  0  0  0
   35.4510   16.0480   61.2680 C   0  0  0  0  0  0
   34.6780   15.0870   60.3590 C   0  0  0  0  0  0
   35.1990   13.3660   60.6110 P   0  0  2  0  0  0
   34.4640   12.5380   59.6320 O   0  5  0  0  0  0
   35.0350   13.0660   62.0440 O   0  0  0  0  0  0
   36.9470   13.3740   60.1230 C   0  0  0  0  0  0
   37.5990   12.0100   60.4580 C   0  0  2  0  0  0
   37.9090   11.8860   61.9770 C   0  0  0  0  0  0
   37.7350   10.7690   62.4900 O   0  0  0  0  0  0
   38.3360   12.9090   62.5830 O   0  5  0  0  0  0
   38.9200   11.8050   59.6840 C   0  0  0  0  0  0
   39.2110   10.5120   59.1750 C   0  0  0  0  0  0
   39.8950   12.8430   59.5750 C   0  0  0  0  0  0
   41.1480   12.5730   58.9690 C   0  0  0  0  0  0
   41.4360   11.2760   58.4710 C   0  0  0  0  0  0
   40.4680   10.2450   58.5780 C   0  0  0  0  0  0
   40.7780    8.9930   58.1990 N   0  0  0  0  0  0
   40.4850    8.4880   56.9870 C   0  0  0  0  0  0
   39.8920    9.2310   56.0480 N   0  0  0  0  0  0
   40.8210    7.2290   56.7200 N   0  3  0  0  0  0
   34.8693   17.8902   63.8602 H   0  0  0  0  0  0
   36.2258   19.5101   65.2134 H   0  0  0  0  0  0
   37.9069   20.9917   64.0785 H   0  0  0  0  0  0
   38.2259   20.8574   61.5945 H   0  0  0  0  0  0
   36.8681   19.2395   60.2415 H   0  0  0  0  0  0
   33.8950   17.5192   61.4534 H   0  0  0  0  0  0
   35.0013   17.7681   60.0602 H   0  0  0  0  0  0
   36.5159   16.0063   60.9956 H   0  0  0  0  0  0
   35.3261   15.7198   62.3104 H   0  0  0  0  0  0
   33.6025   15.1602   60.5782 H   0  0  0  0  0  0
   34.8568   15.3538   59.3069 H   0  0  0  0  0  0
   37.0247   13.5553   59.0408 H   0  0  0  0  0  0
   37.4760   14.1704   60.6671 H   0  0  0  0  0  0
   36.8726   11.2420   60.1538 H   0  0  0  0  0  0
   38.4641    9.7211   59.2438 H   0  0  0  0  0  0
   39.6763   13.8403   59.9568 H   0  0  0  0  0  0
   41.8927   13.3646   58.8854 H   0  0  0  0  0  0
   42.4007   11.0721   58.0064 H   0  0  0  0  0  0
   41.2999    8.3207   58.8959 H   0  0  0  0  0  0
   39.6129   10.2725   56.2657 H   0  0  0  0  0  0
   39.6829    8.8012   55.0573 H   0  0  0  0  0  0
   41.3093    6.6148   57.4909 H   0  0  0  0  0  0
   40.6106    6.8021   55.7283 H   0  0  0  0  0  0
  1  2  2  0  0  0
  1  6  1  0  0  0
  1 28  1  0  0  0
  2  3  1  0  0  0
  2 29  1  0  0  0
  3  4  2  0  0  0
  3 30  1  0  0  0
  4  5  1  0  0  0
  4 31  1  0  0  0
  5  6  2  0  0  0
  5 32  1  0  0  0
  6  7  1  0  0  0
  7  8  1  0  0  0
  7 33  1  0  0  0
  7 34  1  0  0  0
  8  9  1  0  0  0
  8 35  1  0  0  0
  8 36  1  0  0  0
  9 10  1  0  0  0
  9 37  1  0  0  0
  9 38  1  0  0  0
 10 11  1  0  0  0
 10 12  2  0  0  0
 10 13  1  0  0  0
 13 14  1  0  0  0
 13 39  1  0  0  0
 13 40  1  0  0  0
 14 15  1  0  0  0
 14 18  1  0  0  0
 14 41  1  0  0  0
 15 16  2  0  0  0
 15 17  1  0  0  0
 18 19  2  0  0  0
 18 20  1  0  0  0
 19 23  1  0  0  0
 19 42  1  0  0  0
 20 21  2  0  0  0
 20 43  1  0  0  0
 21 22  1  0  0  0
 21 44  1  0  0  0
 22 23  2  0  0  0
 22 45  1  0  0  0
 23 24  1  0  0  0
 24 25  1  0  0  0
 24 46  1  0  0  0
 25 26  1  0  0  0
 25 27  2  0  0  0
 26 47  1  0  0  0
 26 48  1  0  0  0
 27 49  1  0  0  0
 27 50  1  0  0  0
M  CHG  3  11  -1  17  -1  27   1
M  END
> <s_m_source_file>
../2piz_ligand.sdf

> <i_m_source_file_index>
1

> <s_epik_input>
W2NIXTFbY0hdW2NIXVtjSF1bY0hdYzFbQ0gyXVtDSDJdW0NIMl1bUEBAXSg9TykoW09IXSlbQ0gyXVtDQEhdKEMoPU8pW09IXSljMltjSF1jKFtjSF1bY0hdW2NIXTIpW05IXS9DKFtOSDJdKT1OXFtIXQ==

> <s_epik_cmdline>
J2VwaWtfYXBwJywgJy1pbWFlJywgJ2xpZ2FuZF9wcm8ubWFlJywgJy1vbWFlJywgJ2xpZ2FuZF9wcmVwLm1hZScsICctbXMnLCAnMScsICctcGgnLCAnNycsICctcGh0JywgJzAuNScsICctbnQn

> <r_lp_tautomer_probability>
1

> <r_epik_Ionization_Penalty>
  0.0008

> <r_epik_Ionization_Penalty_Charging>
  0.0008

> <r_epik_Ionization_Penalty_Neutral>
  0.0000

> <r_epik_State_Penalty>
 -0.0000

> <r_epik_Charging_Adjusted_Penalty>
0.000824661458220279

> <i_epik_Tot_Q>
-1

> <i_epik_Tot_abs_Q>
3

> <s_epik_Chemistry_Notes>
This compound has an imine and may undergo hydrolysis.

$$$$
