2pj0_ligand
                    3D
 Schrodinger Suite 2020-3.
 59 60  0  0  1  0            999 V2000
   38.6870   14.5670   67.3650 C   0  0  0  0  0  0
   39.9380   14.1510   67.9020 C   0  0  0  0  0  0
   40.8610   13.4390   67.0930 C   0  0  0  0  0  0
   40.5370   13.1390   65.7450 C   0  0  0  0  0  0
   39.2900   13.5520   65.2080 C   0  0  0  0  0  0
   38.3600   14.2720   66.0150 C   0  0  0  0  0  0
   37.1500   14.7290   65.4560 C   0  0  0  0  0  0
   37.1350   15.0010   64.0360 O   0  0  0  0  0  0
   35.9480   14.8540   63.3630 C   0  0  0  0  0  0
   34.8630   14.7340   63.9620 O   0  0  0  0  0  0
   36.0470   14.9570   62.0370 N   0  0  0  0  0  0
   34.9080   14.8150   61.1230 C   0  0  1  0  0  0
   34.8860   15.9870   60.1150 C   0  0  0  0  0  0
   34.5090   17.2870   60.8440 C   0  0  0  0  0  0
   36.2170   16.1610   59.3750 C   0  0  0  0  0  0
   34.9480   13.1490   60.3520 P   0  0  2  0  0  0
   33.8970   13.0710   59.3160 O   0  0  0  0  0  0
   34.8880   12.1920   61.4770 O   0  5  0  0  0  0
   36.3790   13.0070   59.6460 O   0  0  0  0  0  0
   36.7480   11.7020   59.1790 C   0  0  2  0  0  0
   37.3180   10.8640   60.3320 C   0  0  0  0  0  0
   36.9740    9.6620   60.3670 O   0  0  0  0  0  0
   38.0490   11.4480   61.1630 O   0  5  0  0  0  0
   37.7330   11.7600   57.9850 C   0  0  0  0  0  0
   38.3780   10.5760   57.5780 C   0  0  0  0  0  0
   37.9610   12.9650   57.2590 C   0  0  0  0  0  0
   38.8320   12.9580   56.1380 C   0  0  0  0  0  0
   39.4780   11.7550   55.7410 C   0  0  0  0  0  0
   39.2510   10.5580   56.4650 C   0  0  0  0  0  0
   39.8550    9.4010   56.0920 N   0  0  0  0  0  0
   40.5250    8.5940   56.9590 C   0  0  0  0  0  0
   40.9510    9.0460   58.1490 N   0  0  0  0  0  0
   40.7940    7.3350   56.6140 N   0  3  0  0  0  0
   37.9799   15.1121   67.9903 H   0  0  0  0  0  0
   40.1877   14.3802   68.9380 H   0  0  0  0  0  0
   41.8184   13.1228   67.5071 H   0  0  0  0  0  0
   41.2449   12.5919   65.1224 H   0  0  0  0  0  0
   39.0415   13.3177   64.1729 H   0  0  0  0  0  0
   36.3642   13.9764   65.6175 H   0  0  0  0  0  0
   36.8574   15.6738   65.9374 H   0  0  0  0  0  0
   37.0513   15.1600   61.6368 H   0  0  0  0  0  0
   34.0520   15.0754   61.7629 H   0  0  0  0  0  0
   34.1339   15.7543   59.3467 H   0  0  0  0  0  0
   33.5530   17.1483   61.3702 H   0  0  0  0  0  0
   34.4098   18.1022   60.1122 H   0  0  0  0  0  0
   35.2944   17.5406   61.5712 H   0  0  0  0  0  0
   36.4745   15.2246   58.8584 H   0  0  0  0  0  0
   37.0081   16.4108   60.0973 H   0  0  0  0  0  0
   36.1235   16.9725   58.6383 H   0  0  0  0  0  0
   35.7924   11.2790   58.8357 H   0  0  0  0  0  0
   38.2008    9.6543   58.1322 H   0  0  0  0  0  0
   37.4685   13.8885   57.5633 H   0  0  0  0  0  0
   39.0062   13.8778   55.5797 H   0  0  0  0  0  0
   40.1472   11.7535   54.8806 H   0  0  0  0  0  0
   39.8171    9.0744   55.0423 H   0  0  0  0  0  0
   40.7389   10.0820   58.4518 H   0  0  0  0  0  0
   41.5122    8.3804   58.8213 H   0  0  0  0  0  0
   40.4534    6.9460   55.6431 H   0  0  0  0  0  0
   41.3566    6.6849   57.3002 H   0  0  0  0  0  0
  1  2  2  0  0  0
  1  6  1  0  0  0
  1 34  1  0  0  0
  2  3  1  0  0  0
  2 35  1  0  0  0
  3  4  2  0  0  0
  3 36  1  0  0  0
  4  5  1  0  0  0
  4 37  1  0  0  0
  5  6  2  0  0  0
  5 38  1  0  0  0
  6  7  1  0  0  0
  7  8  1  0  0  0
  7 39  1  0  0  0
  7 40  1  0  0  0
  8  9  1  0  0  0
  9 10  2  0  0  0
  9 11  1  0  0  0
 11 12  1  0  0  0
 11 41  1  0  0  0
 12 13  1  0  0  0
 12 16  1  0  0  0
 12 42  1  0  0  0
 13 14  1  0  0  0
 13 15  1  0  0  0
 13 43  1  0  0  0
 14 44  1  0  0  0
 14 45  1  0  0  0
 14 46  1  0  0  0
 15 47  1  0  0  0
 15 48  1  0  0  0
 15 49  1  0  0  0
 16 17  2  0  0  0
 16 18  1  0  0  0
 16 19  1  0  0  0
 19 20  1  0  0  0
 20 21  1  0  0  0
 20 24  1  0  0  0
 20 50  1  0  0  0
 21 22  2  0  0  0
 21 23  1  0  0  0
 24 25  2  0  0  0
 24 26  1  0  0  0
 25 29  1  0  0  0
 25 51  1  0  0  0
 26 27  2  0  0  0
 26 52  1  0  0  0
 27 28  1  0  0  0
 27 53  1  0  0  0
 28 29  2  0  0  0
 28 54  1  0  0  0
 29 30  1  0  0  0
 30 31  1  0  0  0
 30 55  1  0  0  0
 31 32  1  0  0  0
 31 33  2  0  0  0
 32 56  1  0  0  0
 32 57  1  0  0  0
 33 58  1  0  0  0
 33 59  1  0  0  0
M  CHG  3  18  -1  23  -1  33   1
M  END
> <s_m_source_file>
../2pj0_ligand.sdf

> <i_m_source_file_index>
1

> <s_epik_input>
W2NIXTFbY0hdW2NIXVtjSF1bY0hdYzFbQ0gyXU9DKD1PKVtOSF1bQ0BASF0oW0NIXShbQ0gzXSlbQ0gzXSlbUEBdKD1PKShbT0hdKU9bQ0BIXShDKD1PKVtPSF0pYzJbY0hdYyhbY0hdW2NIXVtjSF0yKVtOSF0vQyhbTkgyXSk9TlxbSF0=

> <s_epik_cmdline>
J2VwaWtfYXBwJywgJy1pbWFlJywgJ2xpZ2FuZF9wcm8ubWFlJywgJy1vbWFlJywgJ2xpZ2FuZF9wcmVwLm1hZScsICctbXMnLCAnMScsICctcGgnLCAnNycsICctcGh0JywgJzAuNScsICctbnQn

> <r_lp_tautomer_probability>
1

> <r_epik_Ionization_Penalty>
  0.0001

> <r_epik_Ionization_Penalty_Charging>
  0.0001

> <r_epik_Ionization_Penalty_Neutral>
  0.0000

> <r_epik_State_Penalty>
 -0.0000

> <r_epik_Charging_Adjusted_Penalty>
8.14157287342213e-05

> <i_epik_Tot_Q>
-1

> <i_epik_Tot_abs_Q>
3

> <s_epik_Chemistry_Notes>
This compound has an ester and may undergo hydrolysis at high or low pH. This compound has an imine and may undergo hydrolysis.

$$$$
