2pj2_ligand
                    3D
 Schrodinger Suite 2020-3.
 59 60  0  0  1  0            999 V2000
   37.1570   11.2900   59.7160 C   0  0  2  0  0  0
   37.2910   10.5750   61.0050 C   0  0  0  0  0  0
   38.4500   11.2270   58.9360 C   0  0  0  0  0  0
   39.6360   12.0320   59.2630 C   0  0  0  0  0  0
   40.8790   11.9450   58.5420 C   0  0  0  0  0  0
   40.9260   11.0080   57.4480 C   0  0  0  0  0  0
   39.7870   10.1910   57.0740 C   0  0  0  0  0  0
   38.5530   10.3010   57.8190 C   0  0  0  0  0  0
   39.8590    9.2460   55.9530 C   0  0  0  0  0  0
   39.9850    7.8380   56.3680 N   0  3  0  0  0  0
   37.6870   11.1330   62.0610 O   0  5  0  0  0  0
   37.0180    9.3580   61.0390 O   0  0  0  0  0  0
   36.6050   12.7390   60.0370 C   0  0  0  0  0  0
   35.0440   12.9250   60.6430 P   0  0  1  0  0  0
   34.8300   14.3630   61.4890 C   0  0  2  0  0  0
   34.9330   15.7110   60.6910 C   0  0  0  0  0  0
   36.3250   16.2340   60.2970 C   0  0  0  0  0  0
   34.2450   16.8510   61.4660 C   0  0  0  0  0  0
   35.7230   14.3150   62.6340 N   0  0  0  0  0  0
   35.3160   14.2320   63.9310 C   0  0  0  0  0  0
   34.0980   14.2100   64.2660 O   0  0  0  0  0  0
   36.3170   14.1540   64.8440 O   0  0  0  0  0  0
   36.1950   13.9520   66.2620 C   0  0  0  0  0  0
   34.0960   12.8650   59.5580 O   0  5  0  0  0  0
   34.7870   11.8600   61.5730 O   0  0  0  0  0  0
   37.4950   13.9730   66.9450 C   0  0  0  0  0  0
   37.5960   14.6960   68.2040 C   0  0  0  0  0  0
   38.8670   14.7330   68.9040 C   0  0  0  0  0  0
   40.0070   14.0410   68.3220 C   0  0  0  0  0  0
   39.9210   13.3150   67.0650 C   0  0  0  0  0  0
   38.6480   13.2800   66.3680 C   0  0  0  0  0  0
   36.4596   10.7552   59.0545 H   0  0  0  0  0  0
   39.5706   12.7321   60.0959 H   0  0  0  0  0  0
   41.7406   12.5566   58.8098 H   0  0  0  0  0  0
   41.8515   10.9095   56.8806 H   0  0  0  0  0  0
   37.6958    9.6872   57.5424 H   0  0  0  0  0  0
   38.9450    9.3265   55.3463 H   0  0  0  0  0  0
   40.7345    9.4819   55.3302 H   0  0  0  0  0  0
   40.0328    7.1958   55.4762 H   0  0  0  0  0  0
   39.1134    7.5558   56.9768 H   0  0  0  0  0  0
   40.9029    7.7112   56.9608 H   0  0  0  0  0  0
   37.2448   13.2156   60.7943 H   0  0  0  0  0  0
   36.6098   13.3449   59.1189 H   0  0  0  0  0  0
   33.8187   14.4783   61.9061 H   0  0  0  0  0  0
   34.4470   15.4563   59.7376 H   0  0  0  0  0  0
   36.8642   15.4556   59.7373 H   0  0  0  0  0  0
   36.8905   16.4912   61.2048 H   0  0  0  0  0  0
   36.2156   17.1292   59.6672 H   0  0  0  0  0  0
   33.2391   16.5299   61.7743 H   0  0  0  0  0  0
   34.1649   17.7375   60.8197 H   0  0  0  0  0  0
   34.8398   17.0995   62.3573 H   0  0  0  0  0  0
   36.8122   14.3457   62.4836 H   0  0  0  0  0  0
   35.5719   14.7492   66.6936 H   0  0  0  0  0  0
   35.7263   12.9756   66.4543 H   0  0  0  0  0  0
   36.7253   15.2050   68.6174 H   0  0  0  0  0  0
   38.9656   15.2691   69.8479 H   0  0  0  0  0  0
   40.9613   14.0678   68.8480 H   0  0  0  0  0  0
   40.7941   12.8077   66.6547 H   0  0  0  0  0  0
   38.5518   12.7430   65.4244 H   0  0  0  0  0  0
  1  2  1  0  0  0
  1  3  1  0  0  0
  1 13  1  0  0  0
  1 32  1  0  0  0
  2 11  1  0  0  0
  2 12  2  0  0  0
  3  4  2  0  0  0
  3  8  1  0  0  0
  4  5  1  0  0  0
  4 33  1  0  0  0
  5  6  2  0  0  0
  5 34  1  0  0  0
  6  7  1  0  0  0
  6 35  1  0  0  0
  7  8  2  0  0  0
  7  9  1  0  0  0
  8 36  1  0  0  0
  9 10  1  0  0  0
  9 37  1  0  0  0
  9 38  1  0  0  0
 10 39  1  0  0  0
 10 40  1  0  0  0
 10 41  1  0  0  0
 13 14  1  0  0  0
 13 42  1  0  0  0
 13 43  1  0  0  0
 14 15  1  0  0  0
 14 24  1  0  0  0
 14 25  2  0  0  0
 15 16  1  0  0  0
 15 19  1  0  0  0
 15 44  1  0  0  0
 16 17  1  0  0  0
 16 18  1  0  0  0
 16 45  1  0  0  0
 17 46  1  0  0  0
 17 47  1  0  0  0
 17 48  1  0  0  0
 18 49  1  0  0  0
 18 50  1  0  0  0
 18 51  1  0  0  0
 19 20  1  0  0  0
 19 52  1  0  0  0
 20 21  2  0  0  0
 20 22  1  0  0  0
 22 23  1  0  0  0
 23 26  1  0  0  0
 23 53  1  0  0  0
 23 54  1  0  0  0
 26 27  2  0  0  0
 26 31  1  0  0  0
 27 28  1  0  0  0
 27 55  1  0  0  0
 28 29  2  0  0  0
 28 56  1  0  0  0
 29 30  1  0  0  0
 29 57  1  0  0  0
 30 31  2  0  0  0
 30 58  1  0  0  0
 31 59  1  0  0  0
M  CHG  3  10   1  11  -1  24  -1
M  END
> <s_m_source_file>
../2pj2_ligand.sdf

> <i_m_source_file_index>
1

> <s_epik_input>
W05IMytdW0NIMl1jKFtjSF0xKVtjSF1bY0hdW2NIXWMxW0NAQEhdKEMoPU8pW09IXSlbQ0gyXVtQQF0oPU8pKFtPSF0pW0NASF0oW0NIXShbQ0gzXSlbQ0gzXSlbTkhdQyg9TylPW0NIMl1jMltjSF1bY0hdW2NIXVtjSF1bY0hdMg==

> <s_epik_cmdline>
J2VwaWtfYXBwJywgJy1pbWFlJywgJ2xpZ2FuZF9wcm8ubWFlJywgJy1vbWFlJywgJ2xpZ2FuZF9wcmVwLm1hZScsICctbXMnLCAnMScsICctcGgnLCAnNycsICctcGh0JywgJzAuNScsICctbnQn

> <r_epik_Ionization_Penalty>
  0.0260

> <r_epik_Ionization_Penalty_Charging>
  0.0260

> <r_epik_Ionization_Penalty_Neutral>
  0.0000

> <r_epik_State_Penalty>
  0.0206

> <r_epik_Charging_Adjusted_Penalty>
0.0465682875948799

> <i_epik_Tot_Q>
-1

> <i_epik_Tot_abs_Q>
3

> <s_epik_Chemistry_Notes>
This compound has an ester and may undergo hydrolysis at high or low pH.

$$$$
