2pj3_ligand
                    3D
 Schrodinger Suite 2020-3.
 61 62  0  0  1  0            999 V2000
   37.5110   13.3620   67.7130 C   0  0  0  0  0  0
   38.3310   13.4990   68.8630 C   0  0  0  0  0  0
   39.7370   13.6230   68.7210 C   0  0  0  0  0  0
   40.3240   13.6090   67.4290 C   0  0  0  0  0  0
   39.5050   13.4710   66.2780 C   0  0  0  0  0  0
   38.0960   13.3480   66.4190 C   0  0  0  0  0  0
   37.2050   13.1890   65.1740 C   0  0  0  0  0  0
   36.8910   14.5440   64.5310 C   0  0  0  0  0  0
   35.7230   14.4280   63.5520 C   0  0  0  0  0  0
   34.5630   14.3310   63.9640 O   0  0  0  0  0  0
   36.0650   14.4490   62.2550 N   0  0  0  0  0  0
   35.0500   14.3490   61.1890 C   0  0  1  0  0  0
   35.1060   15.5550   60.2250 C   0  0  0  0  0  0
   34.5730   16.8140   60.9250 C   0  0  0  0  0  0
   36.5070   15.8110   59.6650 C   0  0  0  0  0  0
   35.1690   12.7100   60.3590 P   0  0  2  0  0  0
   34.1830   12.6440   59.2580 O   0  0  0  0  0  0
   35.0810   11.7110   61.4490 O   0  5  0  0  0  0
   36.6410   12.6290   59.7360 O   0  0  0  0  0  0
   37.0580   11.3380   59.2780 C   0  0  2  0  0  0
   37.6470   10.5010   60.4460 C   0  0  0  0  0  0
   37.3920    9.2760   60.4400 O   0  5  0  0  0  0
   38.3080   11.1060   61.3170 O   0  0  0  0  0  0
   38.0310   11.4280   58.0800 C   0  0  0  0  0  0
   38.7260   10.2690   57.6830 C   0  0  0  0  0  0
   38.2100   12.6350   57.3500 C   0  0  0  0  0  0
   39.0880   12.6590   56.2290 C   0  0  0  0  0  0
   39.7870   11.4770   55.8430 C   0  0  0  0  0  0
   39.6030   10.2780   56.5770 C   0  0  0  0  0  0
   40.2250    9.1390   56.2240 N   0  0  0  0  0  0
   41.0350    8.4510   57.0590 C   0  0  0  0  0  0
   41.3580    8.9280   58.2760 N   0  0  0  0  0  0
   41.5490    7.2950   56.6570 N   0  3  0  0  0  0
   36.4307   13.2674   67.8230 H   0  0  0  0  0  0
   37.8805   13.5090   69.8555 H   0  0  0  0  0  0
   40.3666   13.7291   69.6044 H   0  0  0  0  0  0
   41.4044   13.7043   67.3205 H   0  0  0  0  0  0
   39.9565   13.4593   65.2860 H   0  0  0  0  0  0
   37.7210   12.5627   64.4314 H   0  0  0  0  0  0
   36.2563   12.7116   65.4606 H   0  0  0  0  0  0
   36.6240   15.2685   65.3144 H   0  0  0  0  0  0
   37.7750   14.9042   63.9844 H   0  0  0  0  0  0
   37.1294   14.5433   61.9939 H   0  0  0  0  0  0
   34.1373   14.6044   61.7474 H   0  0  0  0  0  0
   34.4702   15.3131   59.3606 H   0  0  0  0  0  0
   33.5666   16.6147   61.3217 H   0  0  0  0  0  0
   34.5251   17.6425   60.2030 H   0  0  0  0  0  0
   35.2457   17.0865   61.7516 H   0  0  0  0  0  0
   36.8748   14.9015   59.1674 H   0  0  0  0  0  0
   37.1869   16.0797   60.4869 H   0  0  0  0  0  0
   36.4663   16.6357   58.9382 H   0  0  0  0  0  0
   36.1166   10.8908   58.9261 H   0  0  0  0  0  0
   38.5834    9.3444   58.2424 H   0  0  0  0  0  0
   37.6773   13.5383   57.6472 H   0  0  0  0  0  0
   39.2260   13.5817   55.6653 H   0  0  0  0  0  0
   40.4606   11.4955   54.9863 H   0  0  0  0  0  0
   40.0851    8.7261   55.2141 H   0  0  0  0  0  0
   40.9387    9.8847   58.6208 H   0  0  0  0  0  0
   42.0411    8.3610   58.9255 H   0  0  0  0  0  0
   41.2929    6.8945   55.6650 H   0  0  0  0  0  0
   42.2310    6.7375   57.3159 H   0  0  0  0  0  0
  1  2  2  0  0  0
  1  6  1  0  0  0
  1 34  1  0  0  0
  2  3  1  0  0  0
  2 35  1  0  0  0
  3  4  2  0  0  0
  3 36  1  0  0  0
  4  5  1  0  0  0
  4 37  1  0  0  0
  5  6  2  0  0  0
  5 38  1  0  0  0
  6  7  1  0  0  0
  7  8  1  0  0  0
  7 39  1  0  0  0
  7 40  1  0  0  0
  8  9  1  0  0  0
  8 41  1  0  0  0
  8 42  1  0  0  0
  9 10  2  0  0  0
  9 11  1  0  0  0
 11 12  1  0  0  0
 11 43  1  0  0  0
 12 13  1  0  0  0
 12 16  1  0  0  0
 12 44  1  0  0  0
 13 14  1  0  0  0
 13 15  1  0  0  0
 13 45  1  0  0  0
 14 46  1  0  0  0
 14 47  1  0  0  0
 14 48  1  0  0  0
 15 49  1  0  0  0
 15 50  1  0  0  0
 15 51  1  0  0  0
 16 17  2  0  0  0
 16 18  1  0  0  0
 16 19  1  0  0  0
 19 20  1  0  0  0
 20 21  1  0  0  0
 20 24  1  0  0  0
 20 52  1  0  0  0
 21 22  1  0  0  0
 21 23  2  0  0  0
 24 25  2  0  0  0
 24 26  1  0  0  0
 25 29  1  0  0  0
 25 53  1  0  0  0
 26 27  2  0  0  0
 26 54  1  0  0  0
 27 28  1  0  0  0
 27 55  1  0  0  0
 28 29  2  0  0  0
 28 56  1  0  0  0
 29 30  1  0  0  0
 30 31  1  0  0  0
 30 57  1  0  0  0
 31 32  1  0  0  0
 31 33  2  0  0  0
 32 58  1  0  0  0
 32 59  1  0  0  0
 33 60  1  0  0  0
 33 61  1  0  0  0
M  CHG  3  18  -1  22  -1  33   1
M  END
> <s_m_source_file>
../2pj3_ligand.sdf

> <i_m_source_file_index>
1

> <s_epik_input>
W2NIXTFbY0hdW2NIXVtjSF1bY0hdYzFbQ0gyXVtDSDJdQyg9TylbTkhdW0NAQEhdKFtDSF0oW0NIM10pW0NIM10pW1BAXSg9TykoW09IXSlPW0NASF0oQyg9TylbT0hdKWMyW2NIXWMoW2NIXVtjSF1bY0hdMilbTkhdL0MoW05IMl0pPU5cW0hd

> <s_epik_cmdline>
J2VwaWtfYXBwJywgJy1pbWFlJywgJ2xpZ2FuZF9wcm8ubWFlJywgJy1vbWFlJywgJ2xpZ2FuZF9wcmVwLm1hZScsICctbXMnLCAnMScsICctcGgnLCAnNycsICctcGh0JywgJzAuNScsICctbnQn

> <r_lp_tautomer_probability>
1

> <r_epik_Ionization_Penalty>
  0.0001

> <r_epik_Ionization_Penalty_Charging>
  0.0001

> <r_epik_Ionization_Penalty_Neutral>
  0.0000

> <r_epik_State_Penalty>
 -0.0000

> <r_epik_Charging_Adjusted_Penalty>
8.36990850449777e-05

> <i_epik_Tot_Q>
-1

> <i_epik_Tot_abs_Q>
3

> <s_epik_Chemistry_Notes>
This compound has an imine and may undergo hydrolysis.

$$$$
