2pj4_ligand
                    3D
 Schrodinger Suite 2020-3.
 66 68  0  0  1  0            999 V2000
   16.9760   29.0750   53.7340 C   0  0  0  0  0  0
   17.7730   29.6590   52.7110 C   0  0  0  0  0  0
   17.5700   29.2940   51.3520 C   0  0  0  0  0  0
   16.5720   28.3450   51.0090 C   0  0  0  0  0  0
   15.7790   27.7610   52.0260 C   0  0  0  0  0  0
   15.9780   28.1250   53.3940 C   0  0  0  0  0  0
   15.1820   27.5530   54.3940 C   0  0  0  0  0  0
   14.0510   26.7610   53.9850 O   0  0  0  0  0  0
   13.3160   26.1490   54.9620 C   0  0  0  0  0  0
   13.5840   26.2940   56.1690 O   0  0  0  0  0  0
   12.2940   25.4240   54.5090 N   0  0  0  0  0  0
   11.3640   24.6830   55.3540 C   0  0  1  0  0  0
    9.9250   25.1990   55.1520 C   0  0  0  0  0  0
    9.5290   25.2320   53.6380 C   0  0  0  0  0  0
    8.1430   25.8960   53.4270 C   0  0  0  0  0  0
    8.1130   27.3300   54.0180 C   0  0  0  0  0  0
    8.4320   27.2930   55.5290 C   0  0  0  0  0  0
    9.8110   26.6400   55.7700 C   0  0  0  0  0  0
   11.6220   22.8870   55.0740 P   0  0  2  0  0  0
   10.6250   22.1200   55.8550 O   0  0  0  0  0  0
   13.0650   22.7290   55.3710 O   0  5  0  0  0  0
   11.4380   22.5860   53.4970 O   0  0  0  0  0  0
   12.0010   21.3350   53.0080 C   0  0  2  0  0  0
   13.4800   21.5180   52.5770 C   0  0  0  0  0  0
   14.2250   20.5080   52.6610 O   0  5  0  0  0  0
   13.8430   22.6640   52.2340 O   0  0  0  0  0  0
   11.1250   20.6930   51.8910 C   0  0  0  0  0  0
   11.6540   19.6620   51.0710 C   0  0  0  0  0  0
    9.7640   21.0790   51.7210 C   0  0  0  0  0  0
    8.9540   20.4370   50.7440 C   0  0  0  0  0  0
    9.4940   19.4080   49.9270 C   0  0  0  0  0  0
   10.8470   19.0180   50.0850 C   0  0  0  0  0  0
   11.3580   18.0210   49.3240 N   0  0  0  0  0  0
   12.4600   18.1640   48.5580 C   0  0  0  0  0  0
   13.0860   19.3460   48.4420 N   0  0  0  0  0  0
   12.9160   17.1110   47.8910 N   0  3  0  0  0  0
   17.1312   29.3561   54.7756 H   0  0  0  0  0  0
   18.5411   30.3880   52.9694 H   0  0  0  0  0  0
   18.1827   29.7444   50.5711 H   0  0  0  0  0  0
   16.4167   28.0669   49.9666 H   0  0  0  0  0  0
   15.0133   27.0306   51.7648 H   0  0  0  0  0  0
   15.7955   26.8795   55.0105 H   0  0  0  0  0  0
   14.7611   28.3480   55.0271 H   0  0  0  0  0  0
   12.1761   25.4077   53.4155 H   0  0  0  0  0  0
   11.5539   25.0907   56.3578 H   0  0  0  0  0  0
    9.2456   24.4984   55.6595 H   0  0  0  0  0  0
   10.2794   25.8065   53.0752 H   0  0  0  0  0  0
    9.4856   24.2044   53.2478 H   0  0  0  0  0  0
    7.9249   25.9552   52.3505 H   0  0  0  0  0  0
    7.3685   25.2945   53.9254 H   0  0  0  0  0  0
    8.8625   27.9527   53.5076 H   0  0  0  0  0  0
    7.1136   27.7658   53.8723 H   0  0  0  0  0  0
    8.4462   28.3188   55.9260 H   0  0  0  0  0  0
    7.6613   26.7080   56.0523 H   0  0  0  0  0  0
    9.9697   26.5863   56.8572 H   0  0  0  0  0  0
   10.5731   27.2933   55.3201 H   0  0  0  0  0  0
   11.9677   20.6765   53.8885 H   0  0  0  0  0  0
   12.6930   19.3572   51.1962 H   0  0  0  0  0  0
    9.3421   21.8692   52.3420 H   0  0  0  0  0  0
    7.9131   20.7362   50.6214 H   0  0  0  0  0  0
    8.8686   18.9193   49.1799 H   0  0  0  0  0  0
   10.8710   17.0348   49.3102 H   0  0  0  0  0  0
   12.7129   20.2223   48.9923 H   0  0  0  0  0  0
   13.9720   19.4381   47.7967 H   0  0  0  0  0  0
   12.4074   16.1399   47.9820 H   0  0  0  0  0  0
   13.8025   17.2094   47.2473 H   0  0  0  0  0  0
  1  2  2  0  0  0
  1  6  1  0  0  0
  1 37  1  0  0  0
  2  3  1  0  0  0
  2 38  1  0  0  0
  3  4  2  0  0  0
  3 39  1  0  0  0
  4  5  1  0  0  0
  4 40  1  0  0  0
  5  6  2  0  0  0
  5 41  1  0  0  0
  6  7  1  0  0  0
  7  8  1  0  0  0
  7 42  1  0  0  0
  7 43  1  0  0  0
  8  9  1  0  0  0
  9 10  2  0  0  0
  9 11  1  0  0  0
 11 12  1  0  0  0
 11 44  1  0  0  0
 12 13  1  0  0  0
 12 19  1  0  0  0
 12 45  1  0  0  0
 13 14  1  0  0  0
 13 18  1  0  0  0
 13 46  1  0  0  0
 14 15  1  0  0  0
 14 47  1  0  0  0
 14 48  1  0  0  0
 15 16  1  0  0  0
 15 49  1  0  0  0
 15 50  1  0  0  0
 16 17  1  0  0  0
 16 51  1  0  0  0
 16 52  1  0  0  0
 17 18  1  0  0  0
 17 53  1  0  0  0
 17 54  1  0  0  0
 18 55  1  0  0  0
 18 56  1  0  0  0
 19 20  2  0  0  0
 19 21  1  0  0  0
 19 22  1  0  0  0
 22 23  1  0  0  0
 23 24  1  0  0  0
 23 27  1  0  0  0
 23 57  1  0  0  0
 24 25  1  0  0  0
 24 26  2  0  0  0
 27 28  2  0  0  0
 27 29  1  0  0  0
 28 32  1  0  0  0
 28 58  1  0  0  0
 29 30  2  0  0  0
 29 59  1  0  0  0
 30 31  1  0  0  0
 30 60  1  0  0  0
 31 32  2  0  0  0
 31 61  1  0  0  0
 32 33  1  0  0  0
 33 34  1  0  0  0
 33 62  1  0  0  0
 34 35  1  0  0  0
 34 36  2  0  0  0
 35 63  1  0  0  0
 35 64  1  0  0  0
 36 65  1  0  0  0
 36 66  1  0  0  0
M  CHG  3  21  -1  25  -1  36   1
M  END
> <s_m_source_file>
../2pj4_ligand.sdf

> <i_m_source_file_index>
1

> <s_epik_input>
W2NIXTFbY0hdW2NIXVtjSF1bY0hdYzFbQ0gyXU9DKD1PKVtOSF1bQ0BASF0oW0NIXTJbQ0gyXVtDSDJdW0NIMl1bQ0gyXVtDSDJdMilbUEBdKD1PKShbT0hdKU9bQ0BIXShDKD1PKVtPSF0pYzNbY0hdYyhbY0hdW2NIXVtjSF0zKVtOSF0vQyhbTkgyXSk9TlxbSF0=

> <s_epik_cmdline>
J2VwaWtfYXBwJywgJy1pbWFlJywgJ2xpZ2FuZF9wcm8ubWFlJywgJy1vbWFlJywgJ2xpZ2FuZF9wcmVwLm1hZScsICctbXMnLCAnMScsICctcGgnLCAnNycsICctcGh0JywgJzAuNScsICctbnQn

> <r_lp_tautomer_probability>
1

> <r_epik_Ionization_Penalty>
  0.0001

> <r_epik_Ionization_Penalty_Charging>
  0.0001

> <r_epik_Ionization_Penalty_Neutral>
  0.0000

> <r_epik_State_Penalty>
 -0.0000

> <r_epik_Charging_Adjusted_Penalty>
8.10221530133184e-05

> <i_epik_Tot_Q>
-1

> <i_epik_Tot_abs_Q>
3

> <s_epik_Chemistry_Notes>
This compound has an ester and may undergo hydrolysis at high or low pH. This compound has an imine and may undergo hydrolysis.

$$$$
