2pj5_ligand
                    3D
 Schrodinger Suite 2020-3.
 65 66  0  0  1  0            999 V2000
   39.0030   13.9720   66.6010 C   0  0  0  0  0  0
   39.9780   13.8570   67.6070 C   0  0  0  0  0  0
   39.5870   13.6950   68.9470 C   0  0  0  0  0  0
   38.2220   13.6480   69.2790 C   0  0  0  0  0  0
   37.2460   13.7630   68.2730 C   0  0  0  0  0  0
   37.6340   13.9250   66.9330 C   0  0  0  0  0  0
   36.6650   14.0440   65.9340 C   0  0  0  0  0  0
   37.0690   14.0330   64.5460 O   0  0  0  0  0  0
   36.0370   14.2140   63.6620 C   0  0  0  0  0  0
   34.8720   14.3090   64.0730 O   0  0  0  0  0  0
   36.3650   14.2810   62.3700 N   0  0  0  0  0  0
   35.3790   14.3660   61.2820 C   0  0  1  0  0  0
   35.8670   15.3800   60.2280 C   0  0  0  0  0  0
   36.2600   16.7290   60.8540 C   0  0  0  0  0  0
   35.0760   17.4290   61.5370 C   0  0  0  0  0  0
   35.5270   18.7070   62.2640 C   0  0  0  0  0  0
   36.0990   19.7490   61.2950 C   0  0  0  0  0  0
   35.2350   12.6980   60.5390 P   0  0  2  0  0  0
   34.1810   12.7180   59.5050 O   0  0  0  0  0  0
   35.1050   11.7340   61.6590 O   0  5  0  0  0  0
   36.6630   12.4820   59.8220 O   0  0  0  0  0  0
   37.0150   11.1670   59.3810 C   0  0  2  0  0  0
   37.6150   10.3610   60.5500 C   0  0  0  0  0  0
   37.3390    9.1420   60.5920 O   0  0  0  0  0  0
   38.3260   10.9810   61.3730 O   0  5  0  0  0  0
   38.0050   11.2240   58.1950 C   0  0  0  0  0  0
   38.6800   10.0600   57.8080 C   0  0  0  0  0  0
   38.2210   12.4210   57.4840 C   0  0  0  0  0  0
   39.1130   12.4390   56.3920 C   0  0  0  0  0  0
   39.7900   11.2620   56.0110 C   0  0  0  0  0  0
   39.5720   10.0680   56.7230 C   0  0  0  0  0  0
   40.1890    8.9300   56.3630 N   0  0  0  0  0  0
   41.0020    8.2540   57.2030 C   0  0  0  0  0  0
   41.2940    8.7300   58.4190 N   0  0  0  0  0  0
   41.5440    7.1060   56.8080 N   0  3  0  0  0  0
   39.3064   14.0978   65.5617 H   0  0  0  0  0  0
   41.0362   13.8934   67.3480 H   0  0  0  0  0  0
   40.3417   13.6059   69.7284 H   0  0  0  0  0  0
   37.9192   13.5221   70.3185 H   0  0  0  0  0  0
   36.1882   13.7264   68.5334 H   0  0  0  0  0  0
   35.9508   13.2113   66.0149 H   0  0  0  0  0  0
   36.1308   14.9981   66.0531 H   0  0  0  0  0  0
   37.4402   14.2700   62.1382 H   0  0  0  0  0  0
   34.5074   14.8503   61.7466 H   0  0  0  0  0  0
   36.7489   14.9749   59.7103 H   0  0  0  0  0  0
   35.0654   15.5641   59.4975 H   0  0  0  0  0  0
   37.0406   16.5679   61.6121 H   0  0  0  0  0  0
   36.6428   17.3993   60.0703 H   0  0  0  0  0  0
   34.3259   17.7027   60.7804 H   0  0  0  0  0  0
   34.6229   16.7488   62.2732 H   0  0  0  0  0  0
   34.6674   19.1564   62.7828 H   0  0  0  0  0  0
   36.3074   18.4557   62.9973 H   0  0  0  0  0  0
   36.4072   20.6426   61.8576 H   0  0  0  0  0  0
   35.3300   20.0263   60.5590 H   0  0  0  0  0  0
   36.9700   19.3255   60.7735 H   0  0  0  0  0  0
   36.0599   10.7303   59.0539 H   0  0  0  0  0  0
   38.5107    9.1337   58.3569 H   0  0  0  0  0  0
   37.6993   13.3319   57.7776 H   0  0  0  0  0  0
   39.2796   13.3647   55.8412 H   0  0  0  0  0  0
   40.4801   11.2771   55.1674 H   0  0  0  0  0  0
   40.0395    8.5188   55.3538 H   0  0  0  0  0  0
   40.8528    9.6786   58.7589 H   0  0  0  0  0  0
   41.9753    8.1727   59.0788 H   0  0  0  0  0  0
   41.3128    6.7029   55.8110 H   0  0  0  0  0  0
   42.2236    6.5593   57.4782 H   0  0  0  0  0  0
  1  2  2  0  0  0
  1  6  1  0  0  0
  1 36  1  0  0  0
  2  3  1  0  0  0
  2 37  1  0  0  0
  3  4  2  0  0  0
  3 38  1  0  0  0
  4  5  1  0  0  0
  4 39  1  0  0  0
  5  6  2  0  0  0
  5 40  1  0  0  0
  6  7  1  0  0  0
  7  8  1  0  0  0
  7 41  1  0  0  0
  7 42  1  0  0  0
  8  9  1  0  0  0
  9 10  2  0  0  0
  9 11  1  0  0  0
 11 12  1  0  0  0
 11 43  1  0  0  0
 12 13  1  0  0  0
 12 18  1  0  0  0
 12 44  1  0  0  0
 13 14  1  0  0  0
 13 45  1  0  0  0
 13 46  1  0  0  0
 14 15  1  0  0  0
 14 47  1  0  0  0
 14 48  1  0  0  0
 15 16  1  0  0  0
 15 49  1  0  0  0
 15 50  1  0  0  0
 16 17  1  0  0  0
 16 51  1  0  0  0
 16 52  1  0  0  0
 17 53  1  0  0  0
 17 54  1  0  0  0
 17 55  1  0  0  0
 18 19  2  0  0  0
 18 20  1  0  0  0
 18 21  1  0  0  0
 21 22  1  0  0  0
 22 23  1  0  0  0
 22 26  1  0  0  0
 22 56  1  0  0  0
 23 24  2  0  0  0
 23 25  1  0  0  0
 26 27  2  0  0  0
 26 28  1  0  0  0
 27 31  1  0  0  0
 27 57  1  0  0  0
 28 29  2  0  0  0
 28 58  1  0  0  0
 29 30  1  0  0  0
 29 59  1  0  0  0
 30 31  2  0  0  0
 30 60  1  0  0  0
 31 32  1  0  0  0
 32 33  1  0  0  0
 32 61  1  0  0  0
 33 34  1  0  0  0
 33 35  2  0  0  0
 34 62  1  0  0  0
 34 63  1  0  0  0
 35 64  1  0  0  0
 35 65  1  0  0  0
M  CHG  3  20  -1  25  -1  35   1
M  END
> <s_m_source_file>
../2pj5_ligand.sdf

> <i_m_source_file_index>
1

> <s_epik_input>
W2NIXTFbY0hdW2NIXVtjSF1bY0hdYzFbQ0gyXU9DKD1PKVtOSF1bQ0BASF0oW0NIMl1bQ0gyXVtDSDJdW0NIMl1bQ0gzXSlbUEBdKD1PKShbT0hdKU9bQ0BIXShDKD1PKVtPSF0pYzJbY0hdYyhbY0hdW2NIXVtjSF0yKVtOSF0vQyhbTkgyXSk9TlxbSF0=

> <s_epik_cmdline>
J2VwaWtfYXBwJywgJy1pbWFlJywgJ2xpZ2FuZF9wcm8ubWFlJywgJy1vbWFlJywgJ2xpZ2FuZF9wcmVwLm1hZScsICctbXMnLCAnMScsICctcGgnLCAnNycsICctcGh0JywgJzAuNScsICctbnQn

> <r_lp_tautomer_probability>
1

> <r_epik_Ionization_Penalty>
  0.0001

> <r_epik_Ionization_Penalty_Charging>
  0.0001

> <r_epik_Ionization_Penalty_Neutral>
  0.0000

> <r_epik_State_Penalty>
 -0.0000

> <r_epik_Charging_Adjusted_Penalty>
8.08663047503911e-05

> <i_epik_Tot_Q>
-1

> <i_epik_Tot_abs_Q>
3

> <s_epik_Chemistry_Notes>
This compound has an ester and may undergo hydrolysis at high or low pH. This compound has an imine and may undergo hydrolysis.

$$$$
