2pj6_ligand
                    3D
 Schrodinger Suite 2020-3.
 62 63  0  0  1  0            999 V2000
   -1.9620    5.3260    9.0040 C   0  0  0  0  0  0
   -3.0020    4.4860    8.5380 C   0  0  0  0  0  0
   -3.8640    3.8520    9.4690 C   0  0  0  0  0  0
   -3.6840    4.0570   10.8630 C   0  0  0  0  0  0
   -2.6420    4.8980   11.3290 C   0  0  0  0  0  0
   -1.7810    5.5350   10.4000 C   0  0  0  0  0  0
   -0.6870    6.4880   10.8930 C   0  0  0  0  0  0
    0.7170    5.8860   10.7420 C   0  0  0  0  0  0
    1.3320    4.9780   12.1980 S   0  0  0  0  0  0
    1.4110    5.9170   13.3640 O   0  0  0  0  0  0
    0.4190    3.8330   12.5390 O   0  0  0  0  0  0
    2.8550    4.3800   11.8300 N   0  0  3  0  0  0
    4.0560    4.7340   12.5080 C   0  0  1  0  0  0
    4.7760    3.4800   13.0620 C   0  0  0  0  0  0
    5.0130    2.4010   11.9970 C   0  0  0  0  0  0
    3.9670    2.8770   14.2180 C   0  0  0  0  0  0
    5.1200    5.8930   11.5190 P   0  0  2  0  0  0
    6.3790    6.0750   12.2640 O   0  0  0  0  0  0
    4.2540    7.0860   11.2700 O   0  5  0  0  0  0
    5.4670    5.0790    9.9140 C   0  0  0  0  0  0
    5.9220    6.1310    8.8610 C   0  0  2  0  0  0
    4.7560    7.0510    8.4310 C   0  0  0  0  0  0
    5.0420    8.2430    8.1780 O   0  0  0  0  0  0
    3.6150    6.5320    8.3450 O   0  5  0  0  0  0
    6.4690    5.4620    7.5900 C   0  0  0  0  0  0
    7.6900    5.9200    7.0540 C   0  0  0  0  0  0
    5.6950    4.5000    6.8810 C   0  0  0  0  0  0
    6.1470    4.0180    5.6320 C   0  0  0  0  0  0
    7.3680    4.4870    5.0940 C   0  0  0  0  0  0
    8.1380    5.4350    5.8030 C   0  0  0  0  0  0
    9.4400    5.9540    5.2130 C   0  0  0  0  0  0
    9.1720    7.1880    4.4600 N   0  3  0  0  0  0
   -1.2976    5.8143    8.2911 H   0  0  0  0  0  0
   -3.1397    4.3272    7.4685 H   0  0  0  0  0  0
   -4.6667    3.2058    9.1138 H   0  0  0  0  0  0
   -4.3478    3.5671   11.5754 H   0  0  0  0  0  0
   -2.5032    5.0544   12.3988 H   0  0  0  0  0  0
   -0.7235    7.4206   10.3108 H   0  0  0  0  0  0
   -0.8495    6.7136   11.9573 H   0  0  0  0  0  0
    0.7224    5.1741    9.9035 H   0  0  0  0  0  0
    1.4415    6.6900   10.5451 H   0  0  0  0  0  0
    2.9007    3.7967   10.8985 H   0  0  0  0  0  0
    3.5754    5.1042   13.4256 H   0  0  0  0  0  0
    5.7646    3.8075   13.4163 H   0  0  0  0  0  0
    5.5928    2.8278   11.1654 H   0  0  0  0  0  0
    4.0451    2.0382   11.6209 H   0  0  0  0  0  0
    5.5710    1.5636   12.4413 H   0  0  0  0  0  0
    3.7940    3.6464   14.9849 H   0  0  0  0  0  0
    4.5265    2.0389   14.6591 H   0  0  0  0  0  0
    3.0006    2.5135   13.8387 H   0  0  0  0  0  0
    6.2659    4.3345   10.0457 H   0  0  0  0  0  0
    4.5564    4.5795    9.5517 H   0  0  0  0  0  0
    6.7158    6.7230    9.3399 H   0  0  0  0  0  0
    8.2882    6.6471    7.6031 H   0  0  0  0  0  0
    4.7568    4.1365    7.3003 H   0  0  0  0  0  0
    5.5551    3.2853    5.0836 H   0  0  0  0  0  0
    7.7155    4.1159    4.1298 H   0  0  0  0  0  0
   10.1522    6.1642    6.0245 H   0  0  0  0  0  0
    9.8653    5.1956    4.5393 H   0  0  0  0  0  0
   10.1113    7.5672    4.0312 H   0  0  0  0  0  0
    8.7455    7.9443    5.1354 H   0  0  0  0  0  0
    8.4586    6.9757    3.6501 H   0  0  0  0  0  0
  1  2  2  0  0  0
  1  6  1  0  0  0
  1 33  1  0  0  0
  2  3  1  0  0  0
  2 34  1  0  0  0
  3  4  2  0  0  0
  3 35  1  0  0  0
  4  5  1  0  0  0
  4 36  1  0  0  0
  5  6  2  0  0  0
  5 37  1  0  0  0
  6  7  1  0  0  0
  7  8  1  0  0  0
  7 38  1  0  0  0
  7 39  1  0  0  0
  8  9  1  0  0  0
  8 40  1  0  0  0
  8 41  1  0  0  0
  9 10  2  0  0  0
  9 11  2  0  0  0
  9 12  1  0  0  0
 12 13  1  0  0  0
 12 42  1  0  0  0
 13 14  1  0  0  0
 13 17  1  0  0  0
 13 43  1  0  0  0
 14 15  1  0  0  0
 14 16  1  0  0  0
 14 44  1  0  0  0
 15 45  1  0  0  0
 15 46  1  0  0  0
 15 47  1  0  0  0
 16 48  1  0  0  0
 16 49  1  0  0  0
 16 50  1  0  0  0
 17 18  2  0  0  0
 17 19  1  0  0  0
 17 20  1  0  0  0
 20 21  1  0  0  0
 20 51  1  0  0  0
 20 52  1  0  0  0
 21 22  1  0  0  0
 21 25  1  0  0  0
 21 53  1  0  0  0
 22 23  2  0  0  0
 22 24  1  0  0  0
 25 26  2  0  0  0
 25 27  1  0  0  0
 26 30  1  0  0  0
 26 54  1  0  0  0
 27 28  2  0  0  0
 27 55  1  0  0  0
 28 29  1  0  0  0
 28 56  1  0  0  0
 29 30  2  0  0  0
 29 57  1  0  0  0
 30 31  1  0  0  0
 31 32  1  0  0  0
 31 58  1  0  0  0
 31 59  1  0  0  0
 32 60  1  0  0  0
 32 61  1  0  0  0
 32 62  1  0  0  0
M  CHG  3  19  -1  24  -1  32   1
M  END
> <s_m_source_file>
../2pj6_ligand.sdf

> <i_m_source_file_index>
1

> <s_epik_input>
W2NIXTFbY0hdW2NIXVtjSF1bY0hdYzFbQ0gyXVtDSDJdUyg9TykoPU8pW05IXVtDQEBIXShbQ0hdKFtDSDNdKVtDSDNdKVtQQF0oPU8pKFtPSF0pW0NIMl1bQ0BIXShDKD1PKVtPSF0pYzJbY0hdYyhbQ0gyXVtOSDMrXSlbY0hdW2NIXVtjSF0y

> <s_epik_cmdline>
J2VwaWtfYXBwJywgJy1pbWFlJywgJ2xpZ2FuZF9wcm8ubWFlJywgJy1vbWFlJywgJ2xpZ2FuZF9wcmVwLm1hZScsICctbXMnLCAnMScsICctcGgnLCAnNycsICctcGh0JywgJzAuNScsICctbnQn

> <r_epik_Ionization_Penalty>
  0.0260

> <r_epik_Ionization_Penalty_Charging>
  0.0260

> <r_epik_Ionization_Penalty_Neutral>
  0.0000

> <r_epik_State_Penalty>
  0.0205

> <r_epik_Charging_Adjusted_Penalty>
0.0465099040400358

> <i_epik_Tot_Q>
-1

> <i_epik_Tot_abs_Q>
3

$$$$
