2pj7_ligand
                    3D
 Schrodinger Suite 2020-3.
 56 57  0  0  1  0            999 V2000
   37.2300   15.1860   66.6110 C   0  0  0  0  0  0
   38.2480   14.6620   67.4490 C   0  0  0  0  0  0
   38.8750   13.4330   67.1150 C   0  0  0  0  0  0
   38.4810   12.7310   65.9460 C   0  0  0  0  0  0
   37.4620   13.2550   65.1090 C   0  0  0  0  0  0
   36.8360   14.4820   65.4390 C   0  0  0  0  0  0
   35.5540   15.1160   64.4230 S   0  0  0  0  0  0
   35.3940   16.5210   64.6840 O   0  0  0  0  0  0
   34.2800   14.4000   64.7500 O   0  0  0  0  0  0
   35.9210   14.8990   62.8200 N   0  0  3  0  0  0
   34.9680   14.6850   61.7940 C   0  0  1  0  0  0
   34.8830   15.9040   60.8280 C   0  0  0  0  0  0
   36.2390   16.3130   60.2520 C   0  0  0  0  0  0
   34.2530   17.1110   61.5340 C   0  0  0  0  0  0
   35.3140   13.0850   60.9520 P   0  0  2  0  0  0
   34.3560   12.9700   59.8270 O   0  0  0  0  0  0
   35.2040   12.0790   62.0410 O   0  5  0  0  0  0
   36.9960   12.9580   60.2460 C   0  0  0  0  0  0
   37.4150   11.4940   59.9560 C   0  0  2  0  0  0
   37.6140   10.6570   61.2440 C   0  0  0  0  0  0
   37.3410    9.4440   61.1640 O   0  0  0  0  0  0
   38.0610   11.2440   62.2600 O   0  5  0  0  0  0
   38.7380   11.4520   59.1610 C   0  0  0  0  0  0
   38.8040   10.6690   57.9880 C   0  0  0  0  0  0
   39.9140   12.1050   59.6440 C   0  0  0  0  0  0
   41.1400   11.9570   58.9560 C   0  0  0  0  0  0
   41.1990   11.1650   57.7830 C   0  0  0  0  0  0
   40.0320   10.5220   57.3000 C   0  0  0  0  0  0
   40.0960    9.6560   56.0420 C   0  0  0  0  0  0
   40.2620    8.2470   56.4340 N   0  3  0  0  0  0
   36.7486   16.1302   66.8657 H   0  0  0  0  0  0
   38.5479   15.2019   68.3472 H   0  0  0  0  0  0
   39.6585   13.0287   67.7559 H   0  0  0  0  0  0
   38.9624   11.7870   65.6906 H   0  0  0  0  0  0
   37.1610   12.7134   64.2122 H   0  0  0  0  0  0
   36.9930   14.7679   62.6110 H   0  0  0  0  0  0
   34.0494   14.8114   62.3857 H   0  0  0  0  0  0
   34.2548   15.5965   59.9790 H   0  0  0  0  0  0
   36.6965   15.4513   59.7439 H   0  0  0  0  0  0
   36.8968   16.6500   61.0667 H   0  0  0  0  0  0
   36.0992   17.1319   59.5310 H   0  0  0  0  0  0
   33.2766   16.8234   61.9509 H   0  0  0  0  0  0
   34.1165   17.9286   60.8109 H   0  0  0  0  0  0
   34.9141   17.4467   62.3465 H   0  0  0  0  0  0
   37.0387   13.5144   59.2980 H   0  0  0  0  0  0
   37.7236   13.3825   60.9534 H   0  0  0  0  0  0
   36.5917   11.0574   59.3716 H   0  0  0  0  0  0
   37.9073   10.1767   57.6115 H   0  0  0  0  0  0
   39.8655   12.7179   60.5440 H   0  0  0  0  0  0
   42.0378   12.4511   59.3272 H   0  0  0  0  0  0
   42.1434   11.0499   57.2511 H   0  0  0  0  0  0
   39.1646    9.7729   55.4686 H   0  0  0  0  0  0
   40.9494    9.9706   55.4233 H   0  0  0  0  0  0
   40.3087    7.6186   55.5323 H   0  0  0  0  0  0
   39.4083    7.9359   57.0539 H   0  0  0  0  0  0
   41.1931    8.1336   57.0087 H   0  0  0  0  0  0
  1  2  2  0  0  0
  1  6  1  0  0  0
  1 31  1  0  0  0
  2  3  1  0  0  0
  2 32  1  0  0  0
  3  4  2  0  0  0
  3 33  1  0  0  0
  4  5  1  0  0  0
  4 34  1  0  0  0
  5  6  2  0  0  0
  5 35  1  0  0  0
  6  7  1  0  0  0
  7  8  2  0  0  0
  7  9  2  0  0  0
  7 10  1  0  0  0
 10 11  1  0  0  0
 10 36  1  0  0  0
 11 12  1  0  0  0
 11 15  1  0  0  0
 11 37  1  0  0  0
 12 13  1  0  0  0
 12 14  1  0  0  0
 12 38  1  0  0  0
 13 39  1  0  0  0
 13 40  1  0  0  0
 13 41  1  0  0  0
 14 42  1  0  0  0
 14 43  1  0  0  0
 14 44  1  0  0  0
 15 16  2  0  0  0
 15 17  1  0  0  0
 15 18  1  0  0  0
 18 19  1  0  0  0
 18 45  1  0  0  0
 18 46  1  0  0  0
 19 20  1  0  0  0
 19 23  1  0  0  0
 19 47  1  0  0  0
 20 21  2  0  0  0
 20 22  1  0  0  0
 23 24  2  0  0  0
 23 25  1  0  0  0
 24 28  1  0  0  0
 24 48  1  0  0  0
 25 26  2  0  0  0
 25 49  1  0  0  0
 26 27  1  0  0  0
 26 50  1  0  0  0
 27 28  2  0  0  0
 27 51  1  0  0  0
 28 29  1  0  0  0
 29 30  1  0  0  0
 29 52  1  0  0  0
 29 53  1  0  0  0
 30 54  1  0  0  0
 30 55  1  0  0  0
 30 56  1  0  0  0
M  CHG  3  17  -1  22  -1  30   1
M  END
> <s_m_source_file>
../2pj7_ligand.sdf

> <i_m_source_file_index>
1

> <s_epik_input>
W2NIXTFbY0hdW2NIXVtjSF1bY0hdYzFTKD1PKSg9TylbTkhdW0NAQEhdKFtDSF0oW0NIM10pW0NIM10pW1BAXSg9TykoW09IXSlbQ0gyXVtDQEhdKEMoPU8pW09IXSljMltjSF1jKFtDSDJdW05IMytdKVtjSF1bY0hdW2NIXTI=

> <s_epik_cmdline>
J2VwaWtfYXBwJywgJy1pbWFlJywgJ2xpZ2FuZF9wcm8ubWFlJywgJy1vbWFlJywgJ2xpZ2FuZF9wcmVwLm1hZScsICctbXMnLCAnMScsICctcGgnLCAnNycsICctcGh0JywgJzAuNScsICctbnQn

> <r_epik_Ionization_Penalty>
  0.0260

> <r_epik_Ionization_Penalty_Charging>
  0.0260

> <r_epik_Ionization_Penalty_Neutral>
  0.0000

> <r_epik_State_Penalty>
  0.0206

> <r_epik_Charging_Adjusted_Penalty>
0.0465133469317167

> <i_epik_Tot_Q>
-1

> <i_epik_Tot_abs_Q>
3

$$$$
