2pj8_ligand
                    3D
 Schrodinger Suite 2020-3.
 66 68  0  0  1  0            999 V2000
   37.9700   20.7890   67.0120 C   0  0  0  0  0  0
   38.2610   22.1410   67.3150 C   0  0  0  0  0  0
   37.3650   23.1660   66.9150 C   0  0  0  0  0  0
   36.1760   22.8430   66.2140 C   0  0  0  0  0  0
   35.8780   21.4910   65.9110 C   0  0  0  0  0  0
   36.7720   20.4420   66.3030 C   0  0  0  0  0  0
   36.5350   19.0920   65.8900 C   0  0  0  0  0  0
   37.6270   18.1870   65.7000 C   0  0  0  0  0  0
   37.4030   16.8830   65.1930 C   0  0  0  0  0  0
   35.2130   18.6490   65.5610 C   0  0  0  0  0  0
   34.9950   17.3440   65.0590 C   0  0  0  0  0  0
   36.0880   16.4610   64.8730 C   0  0  0  0  0  0
   35.8260   14.8600   64.2220 S   0  0  0  0  0  0
   34.4730   14.4310   64.4930 O   0  0  0  0  0  0
   36.7910   13.8970   64.8550 O   0  0  0  0  0  0
   36.0960   14.8830   62.5540 N   0  0  3  0  0  0
   35.1050   14.6150   61.6080 C   0  0  1  0  0  0
   34.9730   15.7960   60.6120 C   0  0  0  0  0  0
   36.2980   16.1720   59.9370 C   0  0  0  0  0  0
   34.4130   17.0280   61.3310 C   0  0  0  0  0  0
   35.4090   12.9730   60.8180 P   0  0  2  0  0  0
   34.4720   12.8420   59.6940 O   0  0  0  0  0  0
   35.2840   12.0120   61.9370 O   0  5  0  0  0  0
   37.0920   12.8170   60.1310 C   0  0  0  0  0  0
   37.4830   11.3520   59.8260 C   0  0  2  0  0  0
   37.6630   10.5060   61.1070 C   0  0  0  0  0  0
   37.4150    9.2870   61.0100 O   0  0  0  0  0  0
   38.0700   11.0950   62.1370 O   0  5  0  0  0  0
   38.8130   11.3210   59.0480 C   0  0  0  0  0  0
   38.8790   10.6190   57.8270 C   0  0  0  0  0  0
   39.9840   11.9380   59.5740 C   0  0  0  0  0  0
   41.2090   11.8450   58.8780 C   0  0  0  0  0  0
   41.2730   11.1380   57.6570 C   0  0  0  0  0  0
   40.1080   10.5210   57.1340 C   0  0  0  0  0  0
   40.1930    9.6890   55.8660 C   0  0  0  0  0  0
   40.3000    8.2700   56.2430 N   0  3  0  0  0  0
   38.6620   20.0051   67.3200 H   0  0  0  0  0  0
   39.1731   22.3945   67.8554 H   0  0  0  0  0  0
   37.5920   24.2064   67.1478 H   0  0  0  0  0  0
   35.4913   23.6341   65.9082 H   0  0  0  0  0  0
   34.9607   21.2470   65.3751 H   0  0  0  0  0  0
   38.6402   18.5036   65.9475 H   0  0  0  0  0  0
   38.2429   16.2034   65.0488 H   0  0  0  0  0  0
   34.3675   19.3231   65.6986 H   0  0  0  0  0  0
   33.9842   17.0171   64.8148 H   0  0  0  0  0  0
   37.1476   14.9628   62.2414 H   0  0  0  0  0  0
   34.2212   14.7617   62.2463 H   0  0  0  0  0  0
   34.2870   15.4694   59.8166 H   0  0  0  0  0  0
   36.7075   15.2928   59.4180 H   0  0  0  0  0  0
   37.0136   16.5142   60.6991 H   0  0  0  0  0  0
   36.1231   16.9786   59.2098 H   0  0  0  0  0  0
   33.4619   16.7673   61.8184 H   0  0  0  0  0  0
   34.2423   17.8327   60.6007 H   0  0  0  0  0  0
   35.1328   17.3683   62.0900 H   0  0  0  0  0  0
   37.1584   13.3845   59.1910 H   0  0  0  0  0  0
   37.8208   13.2155   60.8521 H   0  0  0  0  0  0
   36.6625   10.9209   59.2336 H   0  0  0  0  0  0
   37.9833   10.1521   57.4174 H   0  0  0  0  0  0
   39.9344   12.4835   60.5164 H   0  0  0  0  0  0
   42.1039   12.3181   59.2824 H   0  0  0  0  0  0
   42.2171   11.0666   57.1170 H   0  0  0  0  0  0
   39.2883    9.8490   55.2611 H   0  0  0  0  0  0
   41.0787    9.9911   55.2879 H   0  0  0  0  0  0
   40.3626    7.6530   55.3345 H   0  0  0  0  0  0
   39.4135    7.9773   56.8247 H   0  0  0  0  0  0
   41.2039    8.1195   56.8515 H   0  0  0  0  0  0
  1  2  2  0  0  0
  1  6  1  0  0  0
  1 37  1  0  0  0
  2  3  1  0  0  0
  2 38  1  0  0  0
  3  4  2  0  0  0
  3 39  1  0  0  0
  4  5  1  0  0  0
  4 40  1  0  0  0
  5  6  2  0  0  0
  5 41  1  0  0  0
  6  7  1  0  0  0
  7  8  2  0  0  0
  7 10  1  0  0  0
  8  9  1  0  0  0
  8 42  1  0  0  0
  9 12  2  0  0  0
  9 43  1  0  0  0
 10 11  2  0  0  0
 10 44  1  0  0  0
 11 12  1  0  0  0
 11 45  1  0  0  0
 12 13  1  0  0  0
 13 14  2  0  0  0
 13 15  2  0  0  0
 13 16  1  0  0  0
 16 17  1  0  0  0
 16 46  1  0  0  0
 17 18  1  0  0  0
 17 21  1  0  0  0
 17 47  1  0  0  0
 18 19  1  0  0  0
 18 20  1  0  0  0
 18 48  1  0  0  0
 19 49  1  0  0  0
 19 50  1  0  0  0
 19 51  1  0  0  0
 20 52  1  0  0  0
 20 53  1  0  0  0
 20 54  1  0  0  0
 21 22  2  0  0  0
 21 23  1  0  0  0
 21 24  1  0  0  0
 24 25  1  0  0  0
 24 55  1  0  0  0
 24 56  1  0  0  0
 25 26  1  0  0  0
 25 29  1  0  0  0
 25 57  1  0  0  0
 26 27  2  0  0  0
 26 28  1  0  0  0
 29 30  2  0  0  0
 29 31  1  0  0  0
 30 34  1  0  0  0
 30 58  1  0  0  0
 31 32  2  0  0  0
 31 59  1  0  0  0
 32 33  1  0  0  0
 32 60  1  0  0  0
 33 34  2  0  0  0
 33 61  1  0  0  0
 34 35  1  0  0  0
 35 36  1  0  0  0
 35 62  1  0  0  0
 35 63  1  0  0  0
 36 64  1  0  0  0
 36 65  1  0  0  0
 36 66  1  0  0  0
M  CHG  3  23  -1  28  -1  36   1
M  END
> <s_m_source_file>
../2pj8_ligand.sdf

> <i_m_source_file_index>
1

> <s_epik_input>
W2NIXTFbY0hdW2NIXVtjSF1bY0hdYzEtYzJbY0hdW2NIXWMoW2NIXVtjSF0yKVMoPU8pKD1PKVtOSF1bQ0BASF0oW0NIXShbQ0gzXSlbQ0gzXSlbUEBdKD1PKShbT0hdKVtDSDJdW0NASF0oQyg9TylbT0hdKWMzW2NIXWMoW0NIMl1bTkgzK10pW2NIXVtjSF1bY0hdMw==

> <s_epik_cmdline>
J2VwaWtfYXBwJywgJy1pbWFlJywgJ2xpZ2FuZF9wcm8ubWFlJywgJy1vbWFlJywgJ2xpZ2FuZF9wcmVwLm1hZScsICctbXMnLCAnMScsICctcGgnLCAnNycsICctcGh0JywgJzAuNScsICctbnQn

> <r_epik_Ionization_Penalty>
  0.0260

> <r_epik_Ionization_Penalty_Charging>
  0.0260

> <r_epik_Ionization_Penalty_Neutral>
  0.0000

> <r_epik_State_Penalty>
  0.0206

> <r_epik_Charging_Adjusted_Penalty>
0.0465133469317167

> <i_epik_Tot_Q>
-1

> <i_epik_Tot_abs_Q>
3

$$$$
