2pj9_ligand
                    3D
 Schrodinger Suite 2020-3.
 57 59  0  0  1  0            999 V2000
   36.0790   -0.3050   11.9830 C   0  0  0  0  0  0
   35.9360   -0.2240   10.6480 N   0  0  0  0  0  0
   37.1970   -1.0250    9.9890 S   0  0  0  0  0  0
   37.9750   -1.5090   11.3210 N   0  0  0  0  0  0
   37.2710   -1.0600   12.3800 C   0  0  0  0  0  0
   37.5440   -1.2350   13.7610 C   0  0  0  0  0  0
   36.6950   -0.6970   14.7510 C   0  0  0  0  0  0
   35.5490    0.0310   14.3660 C   0  0  0  0  0  0
   35.2450    0.2260   12.9940 C   0  0  0  0  0  0
   33.8470    1.1770   12.5480 S   0  0  0  0  0  0
   33.0380    1.3950   13.7090 O   0  0  0  0  0  0
   33.0690    0.4400   11.5090 O   0  0  0  0  0  0
   34.3680    2.6370   11.8830 N   0  0  3  0  0  0
   34.1670    3.8000   12.6880 C   0  0  1  0  0  0
   35.4720    4.4780   13.1930 C   0  0  0  0  0  0
   36.5390    4.5740   12.0940 C   0  0  0  0  0  0
   36.0480    3.7090   14.3870 C   0  0  0  0  0  0
   33.0080    4.9770   11.8120 P   0  0  2  0  0  0
   32.9090    6.2580   12.5460 O   0  0  0  0  0  0
   31.7780    4.1760   11.6140 O   0  5  0  0  0  0
   33.7640    5.3250   10.1760 C   0  0  0  0  0  0
   32.7010    5.8290    9.1440 C   0  0  2  0  0  0
   31.7270    4.7090    8.7190 C   0  0  0  0  0  0
   30.5630    5.0550    8.4360 O   0  0  0  0  0  0
   32.1730    3.5360    8.6650 O   0  5  0  0  0  0
   33.3820    6.3710    7.8630 C   0  0  0  0  0  0
   32.9480    7.6060    7.3190 C   0  0  0  0  0  0
   34.3660    5.6040    7.1700 C   0  0  0  0  0  0
   34.9000    6.0660    5.9440 C   0  0  0  0  0  0
   34.4600    7.2960    5.3990 C   0  0  0  0  0  0
   33.4860    8.0680    6.0840 C   0  0  0  0  0  0
   33.0240    9.3970    5.4940 C   0  0  0  0  0  0
   31.9970    9.1470    4.4700 N   0  3  0  0  0  0
   38.4278   -1.7966   14.0635 H   0  0  0  0  0  0
   36.9228   -0.8428   15.8069 H   0  0  0  0  0  0
   34.8916    0.4471   15.1294 H   0  0  0  0  0  0
   34.6835    2.7417   10.8344 H   0  0  0  0  0  0
   33.8959    3.2593   13.6068 H   0  0  0  0  0  0
   35.2159    5.5017   13.5037 H   0  0  0  0  0  0
   36.1310    5.1253   11.2340 H   0  0  0  0  0  0
   36.8301    3.5619   11.7762 H   0  0  0  0  0  0
   37.4206    5.1036   12.4842 H   0  0  0  0  0  0
   35.2872    3.6370   15.1783 H   0  0  0  0  0  0
   36.9303    4.2399   14.7739 H   0  0  0  0  0  0
   36.3398    2.6982   14.0658 H   0  0  0  0  0  0
   34.5354    6.1014   10.2863 H   0  0  0  0  0  0
   34.2223    4.4063    9.7809 H   0  0  0  0  0  0
   32.1323    6.6282    9.6418 H   0  0  0  0  0  0
   32.2027    8.2019    7.8458 H   0  0  0  0  0  0
   34.7080    4.6570    7.5876 H   0  0  0  0  0  0
   35.6503    5.4747    5.4191 H   0  0  0  0  0  0
   34.8694    7.6503    4.4530 H   0  0  0  0  0  0
   32.6016   10.0253    6.2920 H   0  0  0  0  0  0
   33.8810    9.9127    5.0362 H   0  0  0  0  0  0
   31.6632   10.1047    4.0440 H   0  0  0  0  0  0
   31.1403    8.6311    4.9282 H   0  0  0  0  0  0
   32.4198    8.5184    3.6725 H   0  0  0  0  0  0
  1  2  2  0  0  0
  1  5  1  0  0  0
  1  9  1  0  0  0
  2  3  1  0  0  0
  3  4  1  0  0  0
  4  5  2  0  0  0
  5  6  1  0  0  0
  6  7  2  0  0  0
  6 34  1  0  0  0
  7  8  1  0  0  0
  7 35  1  0  0  0
  8  9  2  0  0  0
  8 36  1  0  0  0
  9 10  1  0  0  0
 10 11  2  0  0  0
 10 12  2  0  0  0
 10 13  1  0  0  0
 13 14  1  0  0  0
 13 37  1  0  0  0
 14 15  1  0  0  0
 14 18  1  0  0  0
 14 38  1  0  0  0
 15 16  1  0  0  0
 15 17  1  0  0  0
 15 39  1  0  0  0
 16 40  1  0  0  0
 16 41  1  0  0  0
 16 42  1  0  0  0
 17 43  1  0  0  0
 17 44  1  0  0  0
 17 45  1  0  0  0
 18 19  2  0  0  0
 18 20  1  0  0  0
 18 21  1  0  0  0
 21 22  1  0  0  0
 21 46  1  0  0  0
 21 47  1  0  0  0
 22 23  1  0  0  0
 22 26  1  0  0  0
 22 48  1  0  0  0
 23 24  2  0  0  0
 23 25  1  0  0  0
 26 27  2  0  0  0
 26 28  1  0  0  0
 27 31  1  0  0  0
 27 49  1  0  0  0
 28 29  2  0  0  0
 28 50  1  0  0  0
 29 30  1  0  0  0
 29 51  1  0  0  0
 30 31  2  0  0  0
 30 52  1  0  0  0
 31 32  1  0  0  0
 32 33  1  0  0  0
 32 53  1  0  0  0
 32 54  1  0  0  0
 33 55  1  0  0  0
 33 56  1  0  0  0
 33 57  1  0  0  0
M  CHG  3  20  -1  25  -1  33   1
M  END
> <s_m_source_file>
../2pj9_ligand.sdf

> <i_m_source_file_index>
1

> <s_epik_input>
bjFzbmMoYzEyKVtjSF1bY0hdW2NIXWMyUyg9TykoPU8pW05IXVtDQEBIXShbQ0hdKFtDSDNdKVtDSDNdKVtQQF0oPU8pKFtPSF0pW0NIMl1bQ0BIXShDKD1PKVtPSF0pYzNbY0hdYyhbQ0gyXVtOSDMrXSlbY0hdW2NIXVtjSF0z

> <s_epik_cmdline>
J2VwaWtfYXBwJywgJy1pbWFlJywgJ2xpZ2FuZF9wcm8ubWFlJywgJy1vbWFlJywgJ2xpZ2FuZF9wcmVwLm1hZScsICctbXMnLCAnMScsICctcGgnLCAnNycsICctcGh0JywgJzAuNScsICctbnQn

> <r_epik_Ionization_Penalty>
  0.0267

> <r_epik_Ionization_Penalty_Charging>
  0.0260

> <r_epik_Ionization_Penalty_Neutral>
  0.0007

> <r_epik_State_Penalty>
  0.0206

> <r_epik_Charging_Adjusted_Penalty>
0.0465133469317167

> <i_epik_Tot_Q>
-1

> <i_epik_Tot_abs_Q>
3

$$$$
