2pjb_ligand
                    3D
 Schrodinger Suite 2020-3.
 83 85  0  0  1  0            999 V2000
   37.7940   19.6870   63.2180 C   0  0  0  0  0  0
   36.7250   20.5490   62.8660 C   0  0  0  0  0  0
   36.5290   20.9100   61.5110 C   0  0  0  0  0  0
   37.4010   20.4100   60.5090 C   0  0  0  0  0  0
   38.4690   19.5470   60.8570 C   0  0  0  0  0  0
   38.6680   19.1830   62.2130 C   0  0  0  0  0  0
   39.7220   18.3260   62.5570 C   0  0  0  0  0  0
   39.5900   17.4050   63.6810 O   0  0  0  0  0  0
   39.0100   16.1800   63.3880 C   0  0  0  0  0  0
   38.6750   15.8940   62.2230 O   0  0  0  0  0  0
   38.8440   15.3430   64.4150 N   0  0  0  0  0  0
   38.2610   13.9890   64.2860 C   0  0  1  0  0  0
   39.1050   12.9850   65.0850 C   0  0  0  0  0  0
   40.5600   12.8390   64.5750 C   0  0  0  0  0  0
   40.8990   13.0350   63.1980 C   0  0  0  0  0  0
   42.2300   12.8310   62.7550 C   0  0  0  0  0  0
   43.2270   12.4320   63.6780 C   0  0  0  0  0  0
   42.8980   12.2400   65.0450 C   0  0  0  0  0  0
   41.5680   12.4450   65.4930 C   0  0  0  0  0  0
   36.8220   13.9470   64.8050 C   0  0  0  0  0  0
   35.6810   15.0550   63.9130 S   0  0  0  0  0  0
   34.2720   14.6290   64.1990 O   0  0  0  0  0  0
   35.8880   16.4640   64.3830 O   0  0  0  0  0  0
   35.9690   14.9650   62.3010 N   0  0  3  0  0  0
   34.9830   14.6650   61.3290 C   0  0  1  0  0  0
   34.8030   15.8310   60.3180 C   0  0  0  0  0  0
   36.1110   16.2600   59.6420 C   0  0  0  0  0  0
   34.1790   17.0430   61.0270 C   0  0  0  0  0  0
   35.2460   12.9850   60.5990 P   0  0  2  0  0  0
   34.3460   12.8190   59.4470 O   0  0  0  0  0  0
   35.1120   12.0490   61.7410 O   0  5  0  0  0  0
   36.9770   12.9540   60.0040 C   0  0  0  0  0  0
   37.4180   11.4940   59.7180 C   0  0  2  0  0  0
   37.5980   10.6660   61.0090 C   0  0  0  0  0  0
   37.3250    9.4520   60.9320 O   0  0  0  0  0  0
   38.0190   11.2580   62.0270 O   0  5  0  0  0  0
   38.7430   11.4490   58.9300 C   0  0  0  0  0  0
   38.7910   10.6840   57.7440 C   0  0  0  0  0  0
   39.9290   12.0800   59.4190 C   0  0  0  0  0  0
   41.1480   11.9260   58.7160 C   0  0  0  0  0  0
   41.1880   11.1510   57.5290 C   0  0  0  0  0  0
   40.0080   10.5310   57.0450 C   0  0  0  0  0  0
   40.0470    9.6830   55.7750 C   0  0  0  0  0  0
   40.0900    8.2580   56.1390 N   0  3  0  0  0  0
   37.9474   19.4092   64.2608 H   0  0  0  0  0  0
   36.0559   20.9327   63.6362 H   0  0  0  0  0  0
   35.7078   21.5724   61.2372 H   0  0  0  0  0  0
   37.2482   20.6913   59.4671 H   0  0  0  0  0  0
   39.1359   19.1638   60.0847 H   0  0  0  0  0  0
   39.9522   17.6680   61.7061 H   0  0  0  0  0  0
   40.6111   18.9218   62.8108 H   0  0  0  0  0  0
   39.1690   15.7104   65.3996 H   0  0  0  0  0  0
   38.2699   13.7600   63.2101 H   0  0  0  0  0  0
   39.1599   13.3064   66.1356 H   0  0  0  0  0  0
   38.6402   11.9895   65.0299 H   0  0  0  0  0  0
   40.1312   13.3421   62.4879 H   0  0  0  0  0  0
   42.4855   12.9810   61.7060 H   0  0  0  0  0  0
   44.2500   12.2719   63.3375 H   0  0  0  0  0  0
   43.6691   11.9343   65.7522 H   0  0  0  0  0  0
   41.3196   12.2997   66.5443 H   0  0  0  0  0  0
   36.4264   12.9253   64.7066 H   0  0  0  0  0  0
   36.8050   14.2464   65.8633 H   0  0  0  0  0  0
   37.0311   14.9936   62.0163 H   0  0  0  0  0  0
   34.1016   14.8414   61.9630 H   0  0  0  0  0  0
   34.1412   15.4671   59.5183 H   0  0  0  0  0  0
   36.5614   15.3952   59.1329 H   0  0  0  0  0  0
   36.8083   16.6422   60.4020 H   0  0  0  0  0  0
   35.9014   17.0503   58.9062 H   0  0  0  0  0  0
   33.2402   16.7399   61.5135 H   0  0  0  0  0  0
   33.9716   17.8324   60.2896 H   0  0  0  0  0  0
   34.8785   17.4243   61.7854 H   0  0  0  0  0  0
   37.0571   13.5427   59.0782 H   0  0  0  0  0  0
   37.6363   13.3859   60.7713 H   0  0  0  0  0  0
   36.6102   11.0483   59.1190 H   0  0  0  0  0  0
   37.8849   10.2098   57.3668 H   0  0  0  0  0  0
   39.8947   12.6776   60.3299 H   0  0  0  0  0  0
   42.0553   12.4028   59.0868 H   0  0  0  0  0  0
   42.1268   11.0318   56.9881 H   0  0  0  0  0  0
   39.1473    9.8813   55.1740 H   0  0  0  0  0  0
   40.9426    9.9396   55.1901 H   0  0  0  0  0  0
   40.1181    7.6468   55.2249 H   0  0  0  0  0  0
   39.1944    8.0018   56.7240 H   0  0  0  0  0  0
   40.9897    8.0601   56.7402 H   0  0  0  0  0  0
  1  2  2  0  0  0
  1  6  1  0  0  0
  1 45  1  0  0  0
  2  3  1  0  0  0
  2 46  1  0  0  0
  3  4  2  0  0  0
  3 47  1  0  0  0
  4  5  1  0  0  0
  4 48  1  0  0  0
  5  6  2  0  0  0
  5 49  1  0  0  0
  6  7  1  0  0  0
  7  8  1  0  0  0
  7 50  1  0  0  0
  7 51  1  0  0  0
  8  9  1  0  0  0
  9 10  2  0  0  0
  9 11  1  0  0  0
 11 12  1  0  0  0
 11 52  1  0  0  0
 12 13  1  0  0  0
 12 20  1  0  0  0
 12 53  1  0  0  0
 13 14  1  0  0  0
 13 54  1  0  0  0
 13 55  1  0  0  0
 14 15  2  0  0  0
 14 19  1  0  0  0
 15 16  1  0  0  0
 15 56  1  0  0  0
 16 17  2  0  0  0
 16 57  1  0  0  0
 17 18  1  0  0  0
 17 58  1  0  0  0
 18 19  2  0  0  0
 18 59  1  0  0  0
 19 60  1  0  0  0
 20 21  1  0  0  0
 20 61  1  0  0  0
 20 62  1  0  0  0
 21 22  2  0  0  0
 21 23  2  0  0  0
 21 24  1  0  0  0
 24 25  1  0  0  0
 24 63  1  0  0  0
 25 26  1  0  0  0
 25 29  1  0  0  0
 25 64  1  0  0  0
 26 27  1  0  0  0
 26 28  1  0  0  0
 26 65  1  0  0  0
 27 66  1  0  0  0
 27 67  1  0  0  0
 27 68  1  0  0  0
 28 69  1  0  0  0
 28 70  1  0  0  0
 28 71  1  0  0  0
 29 30  2  0  0  0
 29 31  1  0  0  0
 29 32  1  0  0  0
 32 33  1  0  0  0
 32 72  1  0  0  0
 32 73  1  0  0  0
 33 34  1  0  0  0
 33 37  1  0  0  0
 33 74  1  0  0  0
 34 35  2  0  0  0
 34 36  1  0  0  0
 37 38  2  0  0  0
 37 39  1  0  0  0
 38 42  1  0  0  0
 38 75  1  0  0  0
 39 40  2  0  0  0
 39 76  1  0  0  0
 40 41  1  0  0  0
 40 77  1  0  0  0
 41 42  2  0  0  0
 41 78  1  0  0  0
 42 43  1  0  0  0
 43 44  1  0  0  0
 43 79  1  0  0  0
 43 80  1  0  0  0
 44 81  1  0  0  0
 44 82  1  0  0  0
 44 83  1  0  0  0
M  CHG  3  31  -1  36  -1  44   1
M  END
> <s_m_source_file>
../2pjb_ligand.sdf

> <i_m_source_file_index>
1

> <s_epik_input>
W2NIXTFbY0hdW2NIXVtjSF1bY0hdYzFbQ0gyXU9DKD1PKVtOSF1bQ0BASF0oW0NIMl1jMltjSF1bY0hdW2NIXVtjSF1bY0hdMilbQ0gyXVMoPU8pKD1PKVtOSF1bQ0BASF0oW0NIXShbQ0gzXSlbQ0gzXSlbUEBdKD1PKShbT0hdKVtDSDJdW0NASF0oQyg9TylbT0hdKWMzW2NIXWMoW0NIMl1bTkgzK10pW2NIXVtjSF1bY0hdMw==

> <s_epik_cmdline>
J2VwaWtfYXBwJywgJy1pbWFlJywgJ2xpZ2FuZF9wcm8ubWFlJywgJy1vbWFlJywgJ2xpZ2FuZF9wcmVwLm1hZScsICctbXMnLCAnMScsICctcGgnLCAnNycsICctcGh0JywgJzAuNScsICctbnQn

> <r_epik_Ionization_Penalty>
  0.0260

> <r_epik_Ionization_Penalty_Charging>
  0.0260

> <r_epik_Ionization_Penalty_Neutral>
  0.0000

> <r_epik_State_Penalty>
  0.0205

> <r_epik_Charging_Adjusted_Penalty>
0.0465065328772176

> <i_epik_Tot_Q>
-1

> <i_epik_Tot_abs_Q>
3

> <s_epik_Chemistry_Notes>
This compound has an ester and may undergo hydrolysis at high or low pH.

$$$$
