2pjc_ligand
                    3D
 Schrodinger Suite 2020-3.
 80 82  0  0  1  0            999 V2000
   38.6540   18.7540   62.5460 C   0  0  0  0  0  0
   39.2400   19.1450   61.3150 C   0  0  0  0  0  0
   38.4780   19.8840   60.3730 C   0  0  0  0  0  0
   37.1320   20.2310   60.6670 C   0  0  0  0  0  0
   36.5450   19.8390   61.8990 C   0  0  0  0  0  0
   37.3040   19.0980   62.8380 C   0  0  0  0  0  0
   36.7170   18.6490   64.0210 C   0  0  0  0  0  0
   36.6480   17.2210   64.2190 O   0  0  0  0  0  0
   36.3140   16.7610   65.4760 C   0  0  0  0  0  0
   35.8750   17.5300   66.3410 O   0  0  0  0  0  0
   36.4250   15.4380   65.6820 N   0  0  0  0  0  0
   36.8610   14.4960   64.6090 C   0  0  1  0  0  0
   37.2080   13.1160   65.1980 C   0  0  0  0  0  0
   38.2660   13.1990   66.3110 C   0  0  0  0  0  0
   39.6440   13.2870   65.9880 C   0  0  0  0  0  0
   40.6120   13.3450   67.0260 C   0  0  0  0  0  0
   40.2000   13.3150   68.3870 C   0  0  0  0  0  0
   41.1260   13.3630   69.3840 O   0  0  0  0  0  0
   38.8220   13.2280   68.7090 C   0  0  0  0  0  0
   37.8570   13.1710   67.6720 C   0  0  0  0  0  0
   35.7070   14.3360   63.6040 C   0  0  0  0  0  0
   34.5440   14.2470   64.0040 O   0  0  0  0  0  0
   36.0590   14.3730   62.3130 N   0  0  0  0  0  0
   35.0540   14.2310   61.2460 C   0  0  1  0  0  0
   35.0520   15.4360   60.2750 C   0  0  0  0  0  0
   36.4460   15.7650   59.7360 C   0  0  0  0  0  0
   34.4410   16.6630   60.9650 C   0  0  0  0  0  0
   35.2150   12.6100   60.4240 P   0  0  2  0  0  0
   34.1780   12.5100   59.3670 O   0  5  0  0  0  0
   35.2020   11.5980   61.5000 O   0  0  0  0  0  0
   36.6570   12.5710   59.7280 O   0  0  0  0  0  0
   37.1060   11.2820   59.2760 C   0  0  2  0  0  0
   37.7510   10.4920   60.4550 C   0  0  0  0  0  0
   37.5080    9.2660   60.5130 O   0  5  0  0  0  0
   38.4380   11.1350   61.2760 O   0  0  0  0  0  0
   38.0760   11.3860   58.0600 C   0  0  0  0  0  0
   38.7480   10.2240   57.6390 C   0  0  0  0  0  0
   38.2960   12.6110   57.3670 C   0  0  0  0  0  0
   39.1980   12.6460   56.2620 C   0  0  0  0  0  0
   39.8770   11.4570   55.8510 C   0  0  0  0  0  0
   39.6450   10.2420   56.5470 C   0  0  0  0  0  0
   40.2290    9.0850   56.1750 N   0  0  0  0  0  0
   41.0720    8.4010   56.9830 C   0  0  0  0  0  0
   41.4540    8.8930   58.1670 N   0  0  0  0  0  0
   41.5820    7.2480   56.5740 N   0  3  0  0  0  0
   39.2394   18.1882   63.2708 H   0  0  0  0  0  0
   40.2733   18.8785   61.0929 H   0  0  0  0  0  0
   38.9247   20.1849   59.4254 H   0  0  0  0  0  0
   36.5478   20.8003   59.9440 H   0  0  0  0  0  0
   35.5124   20.1077   62.1218 H   0  0  0  0  0  0
   37.2808   19.0392   64.8812 H   0  0  0  0  0  0
   35.6773   19.0045   64.0724 H   0  0  0  0  0  0
   36.1813   15.0554   66.6841 H   0  0  0  0  0  0
   37.7559   14.9265   64.1360 H   0  0  0  0  0  0
   36.3021   12.6615   65.6256 H   0  0  0  0  0  0
   37.6036   12.4669   64.4029 H   0  0  0  0  0  0
   39.9599   13.3101   64.9450 H   0  0  0  0  0  0
   41.6715   13.4126   66.7792 H   0  0  0  0  0  0
   42.1960   13.4305   69.1380 H   0  0  0  0  0  0
   38.5052   13.2050   69.7517 H   0  0  0  0  0  0
   36.7974   13.1055   67.9193 H   0  0  0  0  0  0
   37.1192   14.5122   62.0550 H   0  0  0  0  0  0
   34.1387   14.4464   61.8169 H   0  0  0  0  0  0
   34.4412   15.1629   59.4019 H   0  0  0  0  0  0
   36.8686   14.8758   59.2453 H   0  0  0  0  0  0
   37.0982   16.0697   60.5677 H   0  0  0  0  0  0
   36.3731   16.5860   59.0075 H   0  0  0  0  0  0
   33.4407   16.4093   61.3459 H   0  0  0  0  0  0
   34.3596   17.4878   60.2417 H   0  0  0  0  0  0
   35.0847   16.9715   61.8019 H   0  0  0  0  0  0
   36.1744   10.8002   58.9444 H   0  0  0  0  0  0
   38.5726    9.2871   58.1678 H   0  0  0  0  0  0
   37.7776   13.5175   57.6795 H   0  0  0  0  0  0
   39.3698   13.5817   55.7299 H   0  0  0  0  0  0
   40.5683   11.4833   55.0087 H   0  0  0  0  0  0
   40.0267    8.6618   55.1800 H   0  0  0  0  0  0
   41.0423    9.8484   58.5243 H   0  0  0  0  0  0
   42.1798    8.3421   58.7832 H   0  0  0  0  0  0
   41.2807    6.8267   55.6036 H   0  0  0  0  0  0
   42.3066    6.7124   57.2050 H   0  0  0  0  0  0
  1  2  2  0  0  0
  1  6  1  0  0  0
  1 46  1  0  0  0
  2  3  1  0  0  0
  2 47  1  0  0  0
  3  4  2  0  0  0
  3 48  1  0  0  0
  4  5  1  0  0  0
  4 49  1  0  0  0
  5  6  2  0  0  0
  5 50  1  0  0  0
  6  7  1  0  0  0
  7  8  1  0  0  0
  7 51  1  0  0  0
  7 52  1  0  0  0
  8  9  1  0  0  0
  9 10  2  0  0  0
  9 11  1  0  0  0
 11 12  1  0  0  0
 11 53  1  0  0  0
 12 13  1  0  0  0
 12 21  1  0  0  0
 12 54  1  0  0  0
 13 14  1  0  0  0
 13 55  1  0  0  0
 13 56  1  0  0  0
 14 15  2  0  0  0
 14 20  1  0  0  0
 15 16  1  0  0  0
 15 57  1  0  0  0
 16 17  2  0  0  0
 16 58  1  0  0  0
 17 18  1  0  0  0
 17 19  1  0  0  0
 18 59  1  0  0  0
 19 20  2  0  0  0
 19 60  1  0  0  0
 20 61  1  0  0  0
 21 22  2  0  0  0
 21 23  1  0  0  0
 23 24  1  0  0  0
 23 62  1  0  0  0
 24 25  1  0  0  0
 24 28  1  0  0  0
 24 63  1  0  0  0
 25 26  1  0  0  0
 25 27  1  0  0  0
 25 64  1  0  0  0
 26 65  1  0  0  0
 26 66  1  0  0  0
 26 67  1  0  0  0
 27 68  1  0  0  0
 27 69  1  0  0  0
 27 70  1  0  0  0
 28 29  1  0  0  0
 28 30  2  0  0  0
 28 31  1  0  0  0
 31 32  1  0  0  0
 32 33  1  0  0  0
 32 36  1  0  0  0
 32 71  1  0  0  0
 33 34  1  0  0  0
 33 35  2  0  0  0
 36 37  2  0  0  0
 36 38  1  0  0  0
 37 41  1  0  0  0
 37 72  1  0  0  0
 38 39  2  0  0  0
 38 73  1  0  0  0
 39 40  1  0  0  0
 39 74  1  0  0  0
 40 41  2  0  0  0
 40 75  1  0  0  0
 41 42  1  0  0  0
 42 43  1  0  0  0
 42 76  1  0  0  0
 43 44  1  0  0  0
 43 45  2  0  0  0
 44 77  1  0  0  0
 44 78  1  0  0  0
 45 79  1  0  0  0
 45 80  1  0  0  0
M  CHG  3  29  -1  34  -1  45   1
M  END
> <s_m_source_file>
../2pjc_ligand.sdf

> <i_m_source_file_index>
1

> <s_epik_input>
W2NIXTFbY0hdW2NIXVtjSF1bY0hdYzFbQ0gyXU9DKD1PKVtOSF1bQ0BASF0oW0NIMl1jMltjSF1bY0hdYyhbT0hdKVtjSF1bY0hdMilDKD1PKVtOSF1bQ0BASF0oW0NIXShbQ0gzXSlbQ0gzXSlbUEBAXSg9TykoW09IXSlPW0NASF0oQyg9TylbT0hdKWMzW2NIXWMoW2NIXVtjSF1bY0hdMylbTkhdL0MoW05IMl0pPU5cW0hd

> <s_epik_cmdline>
J2VwaWtfYXBwJywgJy1pbWFlJywgJ2xpZ2FuZF9wcm8ubWFlJywgJy1vbWFlJywgJ2xpZ2FuZF9wcmVwLm1hZScsICctbXMnLCAnMScsICctcGgnLCAnNycsICctcGh0JywgJzAuNScsICctbnQn

> <r_lp_tautomer_probability>
1

> <r_epik_Ionization_Penalty>
  0.0007

> <r_epik_Ionization_Penalty_Charging>
  0.0001

> <r_epik_Ionization_Penalty_Neutral>
  0.0006

> <r_epik_State_Penalty>
 -0.0000

> <r_epik_Charging_Adjusted_Penalty>
8.2907900863498e-05

> <i_epik_Tot_Q>
-1

> <i_epik_Tot_abs_Q>
3

> <s_epik_Chemistry_Notes>
This compound has an ester and may undergo hydrolysis at high or low pH. This compound has an imine and may undergo hydrolysis.

$$$$
