2pjl_ligand
                    3D
 Schrodinger Suite 2020-3.
 54 57  0  0  1  0            999 V2000
  -10.7060   -8.1570    7.7670 N   0  0  0  0  0  0
  -11.4770   -7.3940    8.5860 C   0  0  0  0  0  0
  -12.7810   -7.8860    8.5740 C   0  0  0  0  0  0
  -12.6940   -9.0680    7.6420 C   0  0  0  0  0  0
  -11.4160   -9.1330    7.2320 C   0  0  0  0  0  0
  -13.8280   -9.9920    7.2580 C   0  0  0  0  0  0
  -14.8930   -9.3050    6.4870 N   0  3  0  0  0  0
  -14.5360   -8.8910    5.1120 C   0  0  0  0  0  0
  -15.3780   -7.6800    4.6040 C   0  0  0  0  0  0
  -16.8840   -8.0390    4.3870 C   0  0  0  0  0  0
  -17.6740   -6.8420    3.7910 C   0  0  0  0  0  0
  -17.4510   -5.5250    4.5910 C   0  0  0  0  0  0
  -15.9300   -5.2290    4.8000 C   0  0  0  0  0  0
  -15.2500   -6.4300    5.5240 C   0  0  0  0  0  0
  -13.8120   -7.3010    9.3180 C   0  0  0  0  0  0
  -13.4690   -6.1870   10.0890 C   0  0  0  0  0  0
  -12.1600   -5.6780   10.1020 C   0  0  0  0  0  0
  -11.1390   -6.2790    9.3600 C   0  0  0  0  0  0
   -9.3690   -8.0080    7.5380 C   0  0  0  0  0  0
   -8.5690   -9.1470    7.6630 C   0  0  0  0  0  0
   -7.1920   -9.0840    7.4430 C   0  0  0  0  0  0
   -6.5890   -7.8740    7.0880 C   0  0  0  0  0  0
   -7.3820   -6.7210    6.9490 C   0  0  0  0  0  0
   -8.7680   -6.7900    7.1700 C   0  0  0  0  0  0
   -5.0710   -7.8710    6.8660 C   0  0  0  0  0  0
  -11.0203   -9.8872    6.5518 H   0  0  0  0  0  0
  -13.4386  -10.8117    6.6363 H   0  0  0  0  0  0
  -14.2864  -10.4076    8.1675 H   0  0  0  0  0  0
  -15.7624   -9.9716    6.3885 H   0  0  0  0  0  0
  -15.1927   -8.3869    7.0136 H   0  0  0  0  0  0
  -13.4761   -8.5984    5.0807 H   0  0  0  0  0  0
  -14.7053   -9.7298    4.4209 H   0  0  0  0  0  0
  -14.9452   -7.4216    3.6263 H   0  0  0  0  0  0
  -16.9621   -8.8882    3.6922 H   0  0  0  0  0  0
  -17.3387   -8.3109    5.3510 H   0  0  0  0  0  0
  -17.3496   -6.6683    2.7544 H   0  0  0  0  0  0
  -18.7501   -7.0694    3.8051 H   0  0  0  0  0  0
  -17.8964   -4.6824    4.0417 H   0  0  0  0  0  0
  -17.9269   -5.6111    5.5790 H   0  0  0  0  0  0
  -15.4488   -5.0750    3.8229 H   0  0  0  0  0  0
  -15.8136   -4.3230    5.4129 H   0  0  0  0  0  0
  -15.7501   -6.6282    6.4835 H   0  0  0  0  0  0
  -14.1864   -6.2136    5.7027 H   0  0  0  0  0  0
  -14.8287   -7.6935    9.2972 H   0  0  0  0  0  0
  -14.2349   -5.7020   10.6942 H   0  0  0  0  0  0
  -11.9357   -4.7966   10.7028 H   0  0  0  0  0  0
  -10.1196   -5.8939    9.3837 H   0  0  0  0  0  0
   -9.0266  -10.0978    7.9361 H   0  0  0  0  0  0
   -6.5841   -9.9826    7.5485 H   0  0  0  0  0  0
   -6.9214   -5.7734    6.6697 H   0  0  0  0  0  0
   -9.3806   -5.8957    7.0558 H   0  0  0  0  0  0
   -4.6742   -8.8835    7.0317 H   0  0  0  0  0  0
   -4.5986   -7.1719    7.5718 H   0  0  0  0  0  0
   -4.8518   -7.5554    5.8353 H   0  0  0  0  0  0
  1  2  1  0  0  0
  1  5  1  0  0  0
  1 19  1  0  0  0
  2  3  2  0  0  0
  2 18  1  0  0  0
  3  4  1  0  0  0
  3 15  1  0  0  0
  4  5  2  0  0  0
  4  6  1  0  0  0
  5 26  1  0  0  0
  6  7  1  0  0  0
  6 27  1  0  0  0
  6 28  1  0  0  0
  7  8  1  0  0  0
  7 29  1  0  0  0
  7 30  1  0  0  0
  8  9  1  0  0  0
  8 31  1  0  0  0
  8 32  1  0  0  0
  9 10  1  0  0  0
  9 14  1  0  0  0
  9 33  1  0  0  0
 10 11  1  0  0  0
 10 34  1  0  0  0
 10 35  1  0  0  0
 11 12  1  0  0  0
 11 36  1  0  0  0
 11 37  1  0  0  0
 12 13  1  0  0  0
 12 38  1  0  0  0
 12 39  1  0  0  0
 13 14  1  0  0  0
 13 40  1  0  0  0
 13 41  1  0  0  0
 14 42  1  0  0  0
 14 43  1  0  0  0
 15 16  2  0  0  0
 15 44  1  0  0  0
 16 17  1  0  0  0
 16 45  1  0  0  0
 17 18  2  0  0  0
 17 46  1  0  0  0
 18 47  1  0  0  0
 19 20  2  0  0  0
 19 24  1  0  0  0
 20 21  1  0  0  0
 20 48  1  0  0  0
 21 22  2  0  0  0
 21 49  1  0  0  0
 22 23  1  0  0  0
 22 25  1  0  0  0
 23 24  2  0  0  0
 23 50  1  0  0  0
 24 51  1  0  0  0
 25 52  1  0  0  0
 25 53  1  0  0  0
 25 54  1  0  0  0
M  CHG  1   7   1
M  END
> <s_m_source_file>
../2pjl_ligand.sdf

> <i_m_source_file_index>
1

> <s_epik_input>
W2NIXTFbY0hdYyhbQ0gzXSlbY0hdW2NIXWMxLW4yW2NIXWMoYyhjMjMpW2NIXVtjSF1bY0hdW2NIXTMpW0NIMl1bTkgyK11bQ0gyXVtDSF00W0NIMl1bQ0gyXVtDSDJdW0NIMl1bQ0gyXTQ=

> <s_epik_cmdline>
J2VwaWtfYXBwJywgJy1pbWFlJywgJ2xpZ2FuZF9wcm8ubWFlJywgJy1vbWFlJywgJ2xpZ2FuZF9wcmVwLm1hZScsICctbXMnLCAnMScsICctcGgnLCAnNycsICctcGh0JywgJzAuNScsICctbnQn

> <r_lp_tautomer_probability>
1

> <r_epik_Ionization_Penalty>
  0.0016

> <r_epik_Ionization_Penalty_Charging>
  0.0016

> <r_epik_Ionization_Penalty_Neutral>
  0.0000

> <r_epik_State_Penalty>
 -0.0000

> <r_epik_Charging_Adjusted_Penalty>
0.00155006423727851

> <i_epik_Tot_Q>
1

> <i_epik_Tot_abs_Q>
1

$$$$
