2pjt_ligand
                    3D
 Schrodinger Suite 2020-3.
 63 64  0  0  1  0            999 V2000
   -0.7000   23.1420  142.4390 C   0  0  0  0  0  0
    0.4050   23.9370  141.9070 C   0  0  0  0  0  0
    1.3020   24.5920  141.4500 C   0  0  0  0  0  0
    2.3900   25.3920  140.8830 C   0  0  0  0  0  0
    3.6160   25.2210  141.6370 N   0  0  0  0  0  0
    4.8950   25.5680  141.1760 C   0  0  0  0  0  0
    5.1840   26.6780  140.3210 C   0  0  0  0  0  0
    6.5050   26.9700  139.8810 C   0  0  0  0  0  0
    7.5860   26.1490  140.3020 C   0  0  0  0  0  0
    7.3580   25.0490  141.1630 C   0  0  0  0  0  0
    6.0060   24.7710  141.6010 C   0  0  0  0  0  0
    9.2450   26.5060  139.7250 S   0  0  0  0  0  0
    9.1490   27.8240  139.0970 O   0  0  0  0  0  0
    9.6760   25.3840  138.8880 O   0  0  0  0  0  0
   10.3310   26.5730  141.1660 C   0  0  0  0  0  0
   10.6240   27.9440  141.8120 C   0  0  0  0  0  0
   11.2660   28.9460  140.7420 C   0  0  0  0  0  0
   11.8260   30.2290  141.3650 C   0  0  0  0  0  0
   12.8100   29.9030  142.3710 N   0  0  0  0  0  0
   12.3240   29.0390  143.5040 C   0  0  0  0  0  0
   11.6870   27.7160  142.9650 C   0  0  0  0  0  0
   14.1440   30.4000  142.3700 C   0  0  0  0  0  0
   14.5870   31.2360  141.5390 O   0  0  0  0  0  0
   14.8810   29.8010  143.4070 O   0  0  0  0  0  0
   16.3260   29.8210  143.7790 C   0  0  0  0  0  0
   16.7710   28.3700  143.6880 C   0  0  0  0  0  0
   17.1630   30.6070  142.7450 C   0  0  0  0  0  0
   16.5440   30.3750  145.1820 C   0  0  0  0  0  0
    9.3050   28.5230  142.4020 C   0  0  0  0  0  0
    8.7170   27.9500  143.3330 O   0  0  0  0  0  0
    8.8000   29.6390  141.7640 N   0  0  0  0  0  0
    7.6260   30.2010  142.2610 O   0  0  0  0  0  0
   -0.4810   22.8599  143.4794 H   0  0  0  0  0  0
   -0.8241   22.2337  141.8311 H   0  0  0  0  0  0
   -1.6265   23.7342  142.4069 H   0  0  0  0  0  0
    2.5714   25.0801  139.8439 H   0  0  0  0  0  0
    2.1118   26.4560  140.9032 H   0  0  0  0  0  0
    3.5839   24.7910  142.6490 H   0  0  0  0  0  0
    4.3657   27.3207  139.9962 H   0  0  0  0  0  0
    6.6873   27.8201  139.2236 H   0  0  0  0  0  0
    8.1866   24.4213  141.4910 H   0  0  0  0  0  0
    5.8291   23.9314  142.2732 H   0  0  0  0  0  0
    9.9001   25.9691  141.9782 H   0  0  0  0  0  0
   11.3207   26.1745  140.8982 H   0  0  0  0  0  0
   12.0947   28.4442  140.2209 H   0  0  0  0  0  0
   10.4992   29.2425  140.0111 H   0  0  0  0  0  0
   12.2985   30.8407  140.5823 H   0  0  0  0  0  0
   11.0078   30.7978  141.8309 H   0  0  0  0  0  0
   13.1701   28.7825  144.1585 H   0  0  0  0  0  0
   11.5653   29.5860  144.0829 H   0  0  0  0  0  0
   11.2028   27.2153  143.8164 H   0  0  0  0  0  0
   12.5074   27.0875  142.5883 H   0  0  0  0  0  0
   16.6021   27.9981  142.6667 H   0  0  0  0  0  0
   16.1916   27.7635  144.3996 H   0  0  0  0  0  0
   17.8412   28.2987  143.9319 H   0  0  0  0  0  0
   16.9906   30.1910  141.7414 H   0  0  0  0  0  0
   18.2303   30.5240  142.9980 H   0  0  0  0  0  0
   16.8639   31.6655  142.7596 H   0  0  0  0  0  0
   15.9398   29.8018  145.9005 H   0  0  0  0  0  0
   16.2416   31.4322  145.2098 H   0  0  0  0  0  0
   17.6080   30.2908  145.4482 H   0  0  0  0  0  0
    9.2956   30.0846  140.8889 H   0  0  0  0  0  0
    7.1947   31.0903  141.7783 H   0  0  0  0  0  0
  1  2  1  0  0  0
  1 33  1  0  0  0
  1 34  1  0  0  0
  1 35  1  0  0  0
  2  3  3  0  0  0
  3  4  1  0  0  0
  4  5  1  0  0  0
  4 36  1  0  0  0
  4 37  1  0  0  0
  5  6  1  0  0  0
  5 38  1  0  0  0
  6  7  2  0  0  0
  6 11  1  0  0  0
  7  8  1  0  0  0
  7 39  1  0  0  0
  8  9  2  0  0  0
  8 40  1  0  0  0
  9 10  1  0  0  0
  9 12  1  0  0  0
 10 11  2  0  0  0
 10 41  1  0  0  0
 11 42  1  0  0  0
 12 13  2  0  0  0
 12 14  2  0  0  0
 12 15  1  0  0  0
 15 16  1  0  0  0
 15 43  1  0  0  0
 15 44  1  0  0  0
 16 17  1  0  0  0
 16 21  1  0  0  0
 16 29  1  0  0  0
 17 18  1  0  0  0
 17 45  1  0  0  0
 17 46  1  0  0  0
 18 19  1  0  0  0
 18 47  1  0  0  0
 18 48  1  0  0  0
 19 20  1  0  0  0
 19 22  1  0  0  0
 20 21  1  0  0  0
 20 49  1  0  0  0
 20 50  1  0  0  0
 21 51  1  0  0  0
 21 52  1  0  0  0
 22 23  2  0  0  0
 22 24  1  0  0  0
 24 25  1  0  0  0
 25 26  1  0  0  0
 25 27  1  0  0  0
 25 28  1  0  0  0
 26 53  1  0  0  0
 26 54  1  0  0  0
 26 55  1  0  0  0
 27 56  1  0  0  0
 27 57  1  0  0  0
 27 58  1  0  0  0
 28 59  1  0  0  0
 28 60  1  0  0  0
 28 61  1  0  0  0
 29 30  2  0  0  0
 29 31  1  0  0  0
 31 32  1  0  0  0
 31 62  1  0  0  0
 32 63  1  0  0  0
M  END
> <s_m_source_file>
../2pjt_ligand.sdf

> <i_m_source_file_index>
1

> <s_epik_input>
W0NIM11DI0NbQ0gyXVtOSF1jMVtjSF1bY0hdYyhbY0hdW2NIXTEpUyg9TykoPU8pW0NIMl1DMihDKD1PKVtOSF1bT0hdKVtDSDJdW0NIMl1OKFtDSDJdW0NIMl0yKUMoPU8pT0MoW0NIM10pKFtDSDNdKVtDSDNd

> <s_epik_cmdline>
J2VwaWtfYXBwJywgJy1pbWFlJywgJ2xpZ2FuZF9wcm8ubWFlJywgJy1vbWFlJywgJ2xpZ2FuZF9wcmVwLm1hZScsICctbXMnLCAnMScsICctcGgnLCAnNycsICctcGh0JywgJzAuNScsICctbnQn

> <r_epik_Ionization_Penalty>
  0.0111

> <r_epik_Ionization_Penalty_Charging>
  0.0000

> <r_epik_Ionization_Penalty_Neutral>
  0.0111

> <r_epik_State_Penalty>
  0.0085

> <r_epik_Charging_Adjusted_Penalty>
0.00851883088706381

> <i_epik_Tot_Q>
0

> <i_epik_Tot_abs_Q>
0

> <s_epik_Chemistry_Notes>
This compound has an ester and may undergo hydrolysis at high or low pH. This compound has a N-S or N-O group and may undergo hydrolysis at high or low pH.

$$$$
