2pk5_ligand
                    3D
 Schrodinger Suite 2020-3.
101106  0  0  1  0            999 V2000
   10.0340  -19.7240  -17.1200 O   0  0  0  0  0  0
   10.0270  -18.7220  -17.8540 C   0  0  0  0  0  0
    9.3720  -17.5850  -17.5960 N   0  0  0  0  0  0
    8.5260  -17.4410  -16.4250 C   0  0  1  0  0  0
    9.1530  -16.8350  -15.2460 C   0  0  0  0  0  0
   10.4160  -17.1180  -14.7360 C   0  0  0  0  0  0
   10.8140  -16.4180  -13.5920 C   0  0  0  0  0  0
    9.9450  -15.4730  -13.0280 C   0  0  0  0  0  0
    8.6710  -15.2120  -13.5510 C   0  0  0  0  0  0
    8.2950  -15.9260  -14.6780 C   0  0  0  0  0  0
    6.9880  -15.8100  -15.4400 C   0  0  0  0  0  0
    7.4060  -16.4440  -16.7670 C   0  0  1  0  0  0
    7.8910  -15.3880  -17.6250 O   0  0  0  0  0  0
   10.7880  -18.6900  -19.1530 C   0  0  2  0  0  0
    9.9260  -19.2400  -20.3010 C   0  0  0  0  0  0
   10.3100  -18.5520  -21.5920 C   0  0  0  0  0  0
    8.4110  -19.1100  -20.1450 C   0  0  0  0  0  0
   10.3640  -20.9290  -20.3420 S   0  0  0  0  0  0
   12.0150  -20.7250  -19.7810 C   0  0  0  0  0  0
   12.0510  -19.4310  -19.0760 N   0  0  0  0  0  0
   13.0950  -18.9080  -18.4150 C   0  0  0  0  0  0
   13.0460  -17.8590  -17.7830 O   0  0  0  0  0  0
   14.3830  -19.6820  -18.4760 C   0  0  1  0  0  0
   15.4980  -18.7890  -18.5700 O   0  0  0  0  0  0
   14.5160  -20.5850  -17.2560 C   0  0  2  0  0  0
   15.0670  -19.8190  -16.0530 C   0  0  0  0  0  0
   15.3330  -20.8100  -14.9630 C   0  0  0  0  0  0
   16.6580  -21.0600  -14.5970 C   0  0  0  0  0  0
   16.9310  -21.9870  -13.5940 C   0  0  0  0  0  0
   15.8770  -22.6420  -12.9570 C   0  0  0  0  0  0
   14.5530  -22.3880  -13.3250 C   0  0  0  0  0  0
   14.2670  -21.4720  -14.3370 C   0  0  0  0  0  0
   15.5010  -21.5970  -17.6440 N   0  0  0  0  0  0
   15.1570  -22.8160  -18.0880 C   0  0  0  0  0  0
   13.9920  -23.1920  -18.1930 O   0  0  0  0  0  0
   16.3240  -23.7100  -18.4450 C   0  0  2  0  0  0
   15.9440  -24.9760  -19.2370 C   0  0  0  0  0  0
   17.1910  -25.6790  -20.1170 S   0  0  0  0  0  0
   17.9750  -24.6800  -20.7930 O   0  0  0  0  0  0
   18.1460  -26.5960  -19.0980 C   0  0  0  0  0  0
   16.6470  -26.5340  -21.1190 O   0  0  0  0  0  0
   16.9770  -24.1510  -17.2210 N   0  0  0  0  0  0
   18.2540  -23.8690  -16.9850 C   0  0  0  0  0  0
   18.9520  -23.2530  -17.7650 O   0  0  0  0  0  0
   18.8850  -24.3620  -15.6970 C   0  0  0  0  0  0
   17.9290  -24.7770  -14.7250 O   0  0  0  0  0  0
   18.3430  -25.1600  -13.4730 C   0  0  0  0  0  0
   17.4720  -25.8340  -12.6250 C   0  0  0  0  0  0
   16.1680  -26.1380  -13.0060 C   0  0  0  0  0  0
   17.8960  -26.2190  -11.3520 C   0  0  0  0  0  0
   17.0110  -26.9070  -10.5150 C   0  0  0  0  0  0
   15.7640  -27.1940  -10.9230 N   0  0  0  0  0  0
   15.3200  -26.8240  -12.1370 C   0  0  0  0  0  0
   19.1930  -25.9250  -10.9270 C   0  0  0  0  0  0
   20.0700  -25.2340  -11.7630 C   0  0  0  0  0  0
   19.6400  -24.8560  -13.0410 C   0  0  0  0  0  0
    9.4869  -16.7460  -18.2981 H   0  0  0  0  0  0
    8.2735  -18.4846  -16.1861 H   0  0  0  0  0  0
   11.0676  -17.8536  -15.2076 H   0  0  0  0  0  0
   11.7897  -16.6053  -13.1436 H   0  0  0  0  0  0
   10.2732  -14.9196  -12.1482 H   0  0  0  0  0  0
    8.0059  -14.4805  -13.0921 H   0  0  0  0  0  0
    6.2017  -16.3634  -14.9057 H   0  0  0  0  0  0
    6.7021  -14.7507  -15.5185 H   0  0  0  0  0  0
    6.5878  -16.9217  -17.3260 H   0  0  0  0  0  0
    8.2469  -15.6230  -18.6390 H   0  0  0  0  0  0
   11.0729  -17.6430  -19.3334 H   0  0  0  0  0  0
   10.0241  -17.4910  -21.5412 H   0  0  0  0  0  0
    9.7883  -19.0325  -22.4328 H   0  0  0  0  0  0
   11.3969  -18.6321  -21.7409 H   0  0  0  0  0  0
    8.1351  -18.0455  -20.1192 H   0  0  0  0  0  0
    8.0961  -19.5933  -19.2084 H   0  0  0  0  0  0
    7.9117  -19.5977  -20.9952 H   0  0  0  0  0  0
   12.2773  -21.5521  -19.1049 H   0  0  0  0  0  0
   12.6980  -20.7256  -20.6433 H   0  0  0  0  0  0
   14.4142  -20.2771  -19.4006 H   0  0  0  0  0  0
   15.5564  -18.0673  -19.3981 H   0  0  0  0  0  0
   13.5522  -21.0363  -16.9778 H   0  0  0  0  0  0
   15.9977  -19.3072  -16.3392 H   0  0  0  0  0  0
   14.3270  -19.0759  -15.7212 H   0  0  0  0  0  0
   17.4729  -20.5329  -15.0933 H   0  0  0  0  0  0
   17.9614  -22.1992  -13.3087 H   0  0  0  0  0  0
   16.0883  -23.3594  -12.1640 H   0  0  0  0  0  0
   13.7400  -22.9083  -12.8187 H   0  0  0  0  0  0
   13.2372  -21.2749  -14.6349 H   0  0  0  0  0  0
   16.5758  -21.3723  -17.5776 H   0  0  0  0  0  0
   17.0054  -23.0903  -19.0464 H   0  0  0  0  0  0
   15.5806  -25.7477  -18.5424 H   0  0  0  0  0  0
   15.1524  -24.7320  -19.9607 H   0  0  0  0  0  0
   18.5744  -25.9503  -18.3173 H   0  0  0  0  0  0
   18.9583  -27.0606  -19.6762 H   0  0  0  0  0  0
   17.5340  -27.3809  -18.6296 H   0  0  0  0  0  0
   16.4124  -24.7275  -16.4734 H   0  0  0  0  0  0
   19.5339  -25.2236  -15.9129 H   0  0  0  0  0  0
   19.4839  -23.5550  -15.2497 H   0  0  0  0  0  0
   15.8075  -25.8379  -13.9899 H   0  0  0  0  0  0
   17.3370  -27.2134   -9.5211 H   0  0  0  0  0  0
   14.3001  -27.0596  -12.4411 H   0  0  0  0  0  0
   19.5222  -26.2373   -9.9360 H   0  0  0  0  0  0
   21.0777  -24.9912  -11.4257 H   0  0  0  0  0  0
   20.3198  -24.3213  -13.7044 H   0  0  0  0  0  0
  1  2  2  0  0  0
  2  3  1  0  0  0
  2 14  1  0  0  0
  3  4  1  0  0  0
  3 57  1  0  0  0
  4  5  1  0  0  0
  4 12  1  0  0  0
  4 58  1  0  0  0
  5  6  2  0  0  0
  5 10  1  0  0  0
  6  7  1  0  0  0
  6 59  1  0  0  0
  7  8  2  0  0  0
  7 60  1  0  0  0
  8  9  1  0  0  0
  8 61  1  0  0  0
  9 10  2  0  0  0
  9 62  1  0  0  0
 10 11  1  0  0  0
 11 12  1  0  0  0
 11 63  1  0  0  0
 11 64  1  0  0  0
 12 13  1  0  0  0
 12 65  1  0  0  0
 13 66  1  0  0  0
 14 15  1  0  0  0
 14 20  1  0  0  0
 14 67  1  0  0  0
 15 16  1  0  0  0
 15 17  1  0  0  0
 15 18  1  0  0  0
 16 68  1  0  0  0
 16 69  1  0  0  0
 16 70  1  0  0  0
 17 71  1  0  0  0
 17 72  1  0  0  0
 17 73  1  0  0  0
 18 19  1  0  0  0
 19 20  1  0  0  0
 19 74  1  0  0  0
 19 75  1  0  0  0
 20 21  1  0  0  0
 21 22  2  0  0  0
 21 23  1  0  0  0
 23 24  1  0  0  0
 23 25  1  0  0  0
 23 76  1  0  0  0
 24 77  1  0  0  0
 25 26  1  0  0  0
 25 33  1  0  0  0
 25 78  1  0  0  0
 26 27  1  0  0  0
 26 79  1  0  0  0
 26 80  1  0  0  0
 27 28  2  0  0  0
 27 32  1  0  0  0
 28 29  1  0  0  0
 28 81  1  0  0  0
 29 30  2  0  0  0
 29 82  1  0  0  0
 30 31  1  0  0  0
 30 83  1  0  0  0
 31 32  2  0  0  0
 31 84  1  0  0  0
 32 85  1  0  0  0
 33 34  1  0  0  0
 33 86  1  0  0  0
 34 35  2  0  0  0
 34 36  1  0  0  0
 36 37  1  0  0  0
 36 42  1  0  0  0
 36 87  1  0  0  0
 37 38  1  0  0  0
 37 88  1  0  0  0
 37 89  1  0  0  0
 38 39  2  0  0  0
 38 40  1  0  0  0
 38 41  2  0  0  0
 40 90  1  0  0  0
 40 91  1  0  0  0
 40 92  1  0  0  0
 42 43  1  0  0  0
 42 93  1  0  0  0
 43 44  2  0  0  0
 43 45  1  0  0  0
 45 46  1  0  0  0
 45 94  1  0  0  0
 45 95  1  0  0  0
 46 47  1  0  0  0
 47 48  2  0  0  0
 47 56  1  0  0  0
 48 49  1  0  0  0
 48 50  1  0  0  0
 49 53  2  0  0  0
 49 96  1  0  0  0
 50 51  1  0  0  0
 50 54  2  0  0  0
 51 52  2  0  0  0
 51 97  1  0  0  0
 52 53  1  0  0  0
 53 98  1  0  0  0
 54 55  1  0  0  0
 54 99  1  0  0  0
 55 56  2  0  0  0
 55100  1  0  0  0
 56101  1  0  0  0
M  END
> <s_m_source_file>
../2pk5_ligand.sdf

> <i_m_source_file_index>
1

> <s_epik_input>
W2NIXTFbY0hdW2NIXVtjSF1jKGMxMilbQ0gyXVtDQEBIXShbT0hdKVtDQEhdMltOSF1DKD1PKVtDQEhdKEMzKFtDSDNdKVtDSDNdKU4oW0NIMl1TMylDKD1PKVtDQEBIXShbT0hdKVtDQEhdKFtDSDJdYzRbY0hdW2NIXVtjSF1bY0hdW2NIXTQpW05IXUMoPU8pW0NASF0oW0NIMl1TKD1PKSg9TylbQ0gzXSlbTkhdQyg9TylbQ0gyXU9jNVtjSF1bY0hdW2NIXWMoYzU2KVtjSF1uW2NIXVtjSF02

> <s_epik_cmdline>
J2VwaWtfYXBwJywgJy1pbWFlJywgJ2xpZ2FuZF9wcm8ubWFlJywgJy1vbWFlJywgJ2xpZ2FuZF9wcmVwLm1hZScsICctbXMnLCAnMScsICctcGgnLCAnNycsICctcGh0JywgJzAuNScsICctbnQn

> <r_epik_Ionization_Penalty>
  0.0200

> <r_epik_Ionization_Penalty_Charging>
  0.0000

> <r_epik_Ionization_Penalty_Neutral>
  0.0200

> <r_epik_State_Penalty>
  0.0121

> <r_epik_Charging_Adjusted_Penalty>
0.0120734630336364

> <i_epik_Tot_Q>
0

> <i_epik_Tot_abs_Q>
0

> <s_epik_Chemistry_Notes>
This compound contains an acetal/aminal-like group ( X-CH(R)-Y where X, Y are N, S, or O) that may be acid/base labile, releasing an aldehyde.

$$$$
