2pks_ligand
                    3D
 Schrodinger Suite 2020-3.
 47 49  0  0  1  0            999 V2000
   22.0150  -16.8170   25.3410 C   0  0  0  0  0  0
   20.9810  -15.7310   25.1810 C   0  0  0  0  0  0
   21.2030  -14.5120   25.7950 C   0  0  0  0  0  0
   20.2950  -13.4690   25.6770 C   0  0  0  0  0  0
   19.1560  -13.6290   24.9310 C   0  0  0  0  0  0
   18.9040  -14.8360   24.2890 C   0  0  0  0  0  0
   19.8460  -15.8960   24.4080 C   0  0  0  0  0  0
   17.7730  -14.9360   23.3280 C   0  0  0  0  0  0
   17.0110  -15.8760   23.2620 O   0  0  0  0  0  0
   17.7900  -13.9210   22.2090 C   0  0  0  0  0  0
   19.0200  -13.8330   21.5050 C   0  0  0  0  0  0
   19.1680  -12.9380   20.4520 C   0  0  0  0  0  0
   18.1160  -12.1930   20.0650 N   0  0  0  0  0  0
   16.8820  -12.2300   20.5930 C   0  0  0  0  0  0
   15.9380  -11.3030   20.0160 N   0  0  0  0  0  0
   14.4800  -11.3670   19.5900 C   0  0  0  0  0  0
   13.5440  -11.0210   20.7270 C   0  0  0  0  0  0
   13.0530  -12.1060   21.3700 C   0  0  0  0  0  0
   12.2680  -11.9940   22.4790 C   0  0  0  0  0  0
   11.9900  -10.7340   22.9680 C   0  0  0  0  0  0
   12.4470   -9.5790   22.3270 C   0  0  0  0  0  0
   13.2390   -9.7420   21.1740 C   0  0  0  0  0  0
   11.1130  -10.7450   24.1410 C   0  0  0  0  0  0
   10.6740  -11.8900   24.5390 N   0  3  0  0  0  0
   10.7470   -9.6140   24.8540 N   0  0  0  0  0  0
   16.7140  -13.0930   21.7440 C   0  0  0  0  0  0
   22.8230  -16.4602   25.9966 H   0  0  0  0  0  0
   22.4298  -17.0764   24.3558 H   0  0  0  0  0  0
   21.5464  -17.7065   25.7873 H   0  0  0  0  0  0
   22.1091  -14.3674   26.3833 H   0  0  0  0  0  0
   20.4879  -12.5206   26.1785 H   0  0  0  0  0  0
   18.4457  -12.8071   24.8410 H   0  0  0  0  0  0
   19.6729  -16.8390   23.8894 H   0  0  0  0  0  0
   19.8546  -14.4723   21.7926 H   0  0  0  0  0  0
   20.1275  -12.8403   19.9441 H   0  0  0  0  0  0
   16.5048  -10.3676   19.8984 H   0  0  0  0  0  0
   14.3056  -10.6534   18.7712 H   0  0  0  0  0  0
   14.2427  -12.3846   19.2463 H   0  0  0  0  0  0
   13.2924  -13.0991   20.9898 H   0  0  0  0  0  0
   11.8682  -12.8816   22.9693 H   0  0  0  0  0  0
   12.1992   -8.5875   22.7060 H   0  0  0  0  0  0
   13.6103   -8.8699   20.6358 H   0  0  0  0  0  0
   10.9483  -12.8044   23.9925 H   0  0  0  0  0  0
   11.1067   -8.6239   24.5374 H   0  0  0  0  0  0
   10.0968   -9.7066   25.7364 H   0  0  0  0  0  0
   15.7565  -13.1139   22.2645 H   0  0  0  0  0  0
   10.0252  -11.9525   25.4251 H   0  0  0  0  0  0
  1  2  1  0  0  0
  1 27  1  0  0  0
  1 28  1  0  0  0
  1 29  1  0  0  0
  2  3  2  0  0  0
  2  7  1  0  0  0
  3  4  1  0  0  0
  3 30  1  0  0  0
  4  5  2  0  0  0
  4 31  1  0  0  0
  5  6  1  0  0  0
  5 32  1  0  0  0
  6  7  2  0  0  0
  6  8  1  0  0  0
  7 33  1  0  0  0
  8  9  2  0  0  0
  8 10  1  0  0  0
 10 11  2  0  0  0
 10 26  1  0  0  0
 11 12  1  0  0  0
 11 34  1  0  0  0
 12 13  2  0  0  0
 12 35  1  0  0  0
 13 14  1  0  0  0
 14 15  1  0  0  0
 14 26  2  0  0  0
 15 16  1  0  0  0
 15 36  1  0  0  0
 16 17  1  0  0  0
 16 37  1  0  0  0
 16 38  1  0  0  0
 17 18  2  0  0  0
 17 22  1  0  0  0
 18 19  1  0  0  0
 18 39  1  0  0  0
 19 20  2  0  0  0
 19 40  1  0  0  0
 20 21  1  0  0  0
 20 23  1  0  0  0
 21 22  2  0  0  0
 21 41  1  0  0  0
 22 42  1  0  0  0
 23 24  2  0  0  0
 23 25  1  0  0  0
 24 43  1  0  0  0
 24 47  1  0  0  0
 25 44  1  0  0  0
 25 45  1  0  0  0
 26 46  1  0  0  0
M  CHG  1  24   1
M  END
> <s_m_source_file>
../2pks_ligand.sdf

> <i_m_source_file_index>
1

> <s_epik_input>
W0NIM11jMVtjSF1bY0hdW2NIXWMoW2NIXTEpQyg9TyljMltjSF1bY0hdbmMoW2NIXTIpW05IXVtDSDJdYzNbY0hdW2NIXWMoW2NIXVtjSF0zKS9DKD1OXFtIXSlbTkgyXQ==

> <s_epik_cmdline>
J2VwaWtfYXBwJywgJy1pbWFlJywgJ2xpZ2FuZF9wcm8ubWFlJywgJy1vbWFlJywgJ2xpZ2FuZF9wcmVwLm1hZScsICctbXMnLCAnMScsICctcGgnLCAnNycsICctcGh0JywgJzAuNScsICctbnQn

> <r_lp_tautomer_probability>
1

> <r_epik_Ionization_Penalty>
  0.0007

> <r_epik_Ionization_Penalty_Charging>
  0.0002

> <r_epik_Ionization_Penalty_Neutral>
  0.0005

> <r_epik_State_Penalty>
 -0.0000

> <r_epik_Charging_Adjusted_Penalty>
0.000162947685306239

> <i_epik_Tot_Q>
1

> <i_epik_Tot_abs_Q>
1

> <s_epik_Chemistry_Notes>
This compound has an imine and may undergo hydrolysis.

$$$$
