2pl9_ligand
                    3D
 Schrodinger Suite 2020-3.
271271  0  0  1  0            999 V2000
  -26.0450   36.7580  -23.7710 N   0  3  0  0  0  0
  -24.6950   36.8810  -24.3530 C   0  0  2  0  0  0
  -24.1040   38.2890  -24.1430 C   0  0  0  0  0  0
  -22.9600   38.5300  -24.5260 O   0  0  0  0  0  0
  -24.7190   36.5550  -25.8470 C   0  0  0  0  0  0
  -24.8600   39.2380  -23.5250 N   0  0  0  0  0  0
  -24.2380   40.4930  -23.0640 C   0  0  0  0  0  0
  -23.4500   40.2020  -21.7990 C   0  0  0  0  0  0
  -22.6010   40.9960  -21.3780 O   0  0  0  0  0  0
  -23.7300   39.0370  -21.2140 N   0  0  0  0  0  0
  -23.0720   38.5710  -19.9980 C   0  0  2  0  0  0
  -22.0890   37.4390  -20.3220 C   0  0  0  0  0  0
  -22.2950   36.6430  -21.2530 O   0  0  0  0  0  0
  -24.0910   38.0420  -18.9720 C   0  0  0  0  0  0
  -23.3760   37.4500  -17.7670 C   0  0  0  0  0  0
  -25.0420   39.1510  -18.5450 C   0  0  0  0  0  0
  -20.9490   37.4650  -19.5750 N   0  0  0  0  0  0
  -20.0110   36.3450  -19.5810 C   0  0  2  0  0  0
  -20.4040   35.3450  -18.4660 C   0  0  0  0  0  0
  -20.8600   35.7520  -17.3910 O   0  0  0  0  0  0
  -18.5450   36.8410  -19.3770 C   0  0  0  0  0  0
  -17.5770   35.6870  -19.4930 C   0  0  0  0  0  0
  -18.1930   37.9210  -20.3990 C   0  0  0  0  0  0
  -20.2490   34.0480  -18.7310 N   0  0  0  0  0  0
  -20.6750   33.0120  -17.7730 C   0  0  2  0  0  0
  -19.5250   32.1220  -17.2600 C   0  0  0  0  0  0
  -19.7620   31.1370  -16.5420 O   0  0  0  0  0  0
  -21.7810   32.1580  -18.3770 C   0  0  0  0  0  0
  -18.2900   32.4710  -17.6270 N   0  0  0  0  0  0
  -17.1220   31.6770  -17.2650 C   0  0  2  0  0  0
  -15.8650   32.5300  -17.1970 C   0  0  0  0  0  0
  -15.7900   33.6080  -17.8100 O   0  0  0  0  0  0
  -16.9100   30.5590  -18.2800 C   0  0  0  0  0  0
  -16.1680   31.0400  -19.4140 O   0  0  0  0  0  0
  -14.8690   32.0270  -16.4640 N   0  0  0  0  0  0
  -13.5450   32.6430  -16.4080 C   0  0  2  0  0  0
  -12.8750   32.7080  -17.7780 C   0  0  0  0  0  0
  -12.3260   33.7480  -18.1580 O   0  0  0  0  0  0
  -12.6390   31.9080  -15.4150 C   0  0  0  0  0  0
  -11.3760   32.6990  -15.0520 C   0  0  0  0  0  0
  -11.6820   34.1480  -14.6350 C   0  0  0  0  0  0
  -12.5240   34.3880  -13.7700 O   0  0  0  0  0  0
  -10.9940   35.1140  -15.2610 N   0  0  0  0  0  0
  -12.9290   31.6000  -18.5180 N   0  0  0  0  0  0
  -12.3340   31.5400  -19.8480 C   0  0  2  0  0  0
  -12.8890   32.6390  -20.7600 C   0  0  0  0  0  0
  -12.1320   33.3250  -21.4390 O   0  0  0  0  0  0
  -12.5140   30.1460  -20.4790 C   0  0  0  0  0  0
  -11.4390   29.1460  -20.0020 C   0  0  0  0  0  0
  -10.8090   29.3860  -18.9450 O   0  0  0  0  0  0
  -11.2260   28.1140  -20.6840 O   0  0  0  0  0  0
  -14.2070   32.8150  -20.7460 N   0  0  0  0  0  0
  -14.8390   33.9030  -21.4790 C   0  0  2  0  0  0
  -14.2650   35.2780  -21.0990 C   0  0  0  0  0  0
  -13.9820   36.0830  -21.9690 O   0  0  0  0  0  0
  -16.3570   33.8720  -21.2910 C   0  0  0  0  0  0
  -17.0840   32.8160  -22.1270 C   0  0  0  0  0  0
  -18.5990   32.7920  -21.8840 C   0  0  0  0  0  0
  -19.1400   33.6370  -21.1570 O   0  0  0  0  0  0
  -19.2870   31.8240  -22.5090 N   0  0  0  0  0  0
  -14.0770   35.5290  -19.8010 N   0  0  0  0  0  0
  -13.4640   36.7890  -19.3280 C   0  0  2  0  0  0
  -12.0170   36.9180  -19.8120 C   0  0  0  0  0  0
  -11.6090   37.9720  -20.3010 O   0  0  0  0  0  0
  -13.5050   36.9150  -17.7590 C   0  0  0  0  0  0
  -12.8380   38.2280  -17.2930 C   0  0  0  0  0  0
  -14.9250   36.8450  -17.2640 C   0  0  0  0  0  0
  -11.2570   35.8310  -19.6700 N   0  0  0  0  0  0
   -9.8710   35.7740  -20.1240 C   0  0  2  0  0  0
   -9.7780   36.0340  -21.6210 C   0  0  0  0  0  0
   -8.9490   36.8160  -22.0710 O   0  0  0  0  0  0
   -9.2510   34.4080  -19.8020 C   0  0  0  0  0  0
   -9.0790   34.1760  -18.3130 C   0  0  0  0  0  0
   -9.4340   35.0760  -17.5090 O   0  0  0  0  0  0
   -8.5750   33.0860  -17.9450 O   0  0  0  0  0  0
  -10.6300   35.3750  -22.3880 N   0  0  0  0  0  0
  -10.6360   35.5530  -23.8300 C   0  0  2  0  0  0
  -10.9780   37.0080  -24.1890 C   0  0  0  0  0  0
  -10.3220   37.6230  -25.0280 O   0  0  0  0  0  0
  -11.6160   34.5760  -24.4900 C   0  0  0  0  0  0
  -11.4320   34.4960  -25.9800 C   0  0  0  0  0  0
  -12.2100   35.1480  -26.7090 O   0  0  0  0  0  0
  -10.4950   33.8010  -26.4290 O   0  0  0  0  0  0
  -11.9850   37.5580  -23.5100 N   0  0  0  0  0  0
  -12.3720   38.9430  -23.7040 C   0  0  2  0  0  0
  -11.1760   39.8840  -23.4730 C   0  0  0  0  0  0
  -10.7390   40.5770  -24.4050 O   0  0  0  0  0  0
  -13.5430   39.3210  -22.7750 C   0  0  0  0  0  0
  -14.5520   40.3950  -23.2420 C   0  0  0  0  0  0
  -15.0910   41.1900  -22.0490 C   0  0  0  0  0  0
  -14.0030   41.3320  -24.3150 C   0  0  0  0  0  0
  -10.6470   39.8910  -22.2410 N   0  0  0  0  0  0
   -9.5200   40.7590  -21.8960 C   0  0  2  0  0  0
   -8.3280   40.5670  -22.8340 C   0  0  0  0  0  0
   -7.6650   41.5340  -23.2120 O   0  0  0  0  0  0
   -9.1010   40.5740  -20.4250 C   0  0  0  0  0  0
  -10.0860   41.1050  -19.3590 C   0  0  0  0  0  0
   -9.5110   40.9960  -17.9530 C   0  0  0  0  0  0
  -10.4960   42.5390  -19.6720 C   0  0  0  0  0  0
   -8.0770   39.3200  -23.2220 N   0  0  0  0  0  0
   -7.0110   38.9960  -24.1820 C   0  0  2  0  0  0
   -7.2550   39.6430  -25.5390 C   0  0  0  0  0  0
   -6.3560   40.2680  -26.0990 O   0  0  0  0  0  0
   -6.8930   37.4800  -24.3560 C   0  0  0  0  0  0
   -5.5210   37.0480  -24.8340 C   0  0  0  0  0  0
   -4.6450   37.9150  -25.0800 O   0  0  0  0  0  0
   -5.3080   35.8200  -24.9480 O   0  0  0  0  0  0
   -8.4860   39.4990  -26.0460 N   0  0  0  0  0  0
   -8.8600   40.0180  -27.3670 C   0  0  2  0  0  0
   -8.7030   41.5290  -27.4800 C   0  0  0  0  0  0
   -8.7230   42.0760  -28.5790 O   0  0  0  0  0  0
  -10.3070   39.6080  -27.7320 C   0  0  0  0  0  0
  -11.2720   40.4820  -27.1460 O   0  0  0  0  0  0
   -8.5320   42.1960  -26.3430 N   0  0  0  0  0  0
   -8.4910   43.6560  -26.3240 C   0  0  2  0  0  0
   -7.1470   44.2280  -25.8880 C   0  0  0  0  0  0
   -7.0200   45.4340  -25.6980 O   0  0  0  0  0  0
   -9.6200   44.2170  -25.4550 C   0  0  0  0  0  0
  -11.0400   44.0460  -25.9920 C   0  0  0  0  0  0
  -12.0730   44.2550  -24.8890 C   0  0  0  0  0  0
  -11.2940   44.9790  -27.1880 C   0  0  0  0  0  0
   -6.1440   43.3660  -25.7470 N   0  0  0  0  0  0
   -4.7880   43.8110  -25.4080 C   0  0  0  0  0  0
   -4.5310   43.9480  -23.9090 C   0  0  0  0  0  0
   -3.6230   44.6750  -23.4950 O   0  0  0  0  0  0
   -5.3220   43.2430  -23.0950 N   0  0  0  0  0  0
   -5.1270   43.2370  -21.6460 C   0  0  2  0  0  0
   -4.5860   41.9100  -21.1320 C   0  0  0  0  0  0
   -4.4990   41.6970  -19.9190 O   0  0  0  0  0  0
   -6.4280   43.5930  -20.9290 C   0  0  0  0  0  0
   -6.9680   44.9430  -21.3140 C   0  0  0  0  0  0
   -8.0550   45.0470  -22.1980 C   0  0  0  0  0  0
   -6.3700   46.1170  -20.8260 C   0  0  0  0  0  0
   -8.5410   46.2930  -22.5770 C   0  0  0  0  0  0
   -6.8560   47.3700  -21.1980 C   0  0  0  0  0  0
   -7.9410   47.4590  -22.0730 C   0  0  0  0  0  0
   -4.2180   41.0160  -21.9030 O   0  0  0  0  0  0
  -26.0048   36.9964  -22.6979 H   0  0  0  0  0  0
  -26.4095   35.7288  -23.9046 H   0  0  0  0  0  0
  -26.7273   37.4571  -24.2766 H   0  0  0  0  0  0
  -24.0898   36.1398  -23.8104 H   0  0  0  0  0  0
  -25.1408   35.5501  -25.9963 H   0  0  0  0  0  0
  -23.6941   36.5854  -26.2454 H   0  0  0  0  0  0
  -25.3393   37.2951  -26.3738 H   0  0  0  0  0  0
  -25.9356   39.0678  -23.3697 H   0  0  0  0  0  0
  -23.5661   40.8778  -23.8453 H   0  0  0  0  0  0
  -25.0220   41.2360  -22.8560 H   0  0  0  0  0  0
  -24.5005   38.4164  -21.6948 H   0  0  0  0  0  0
  -22.5542   39.4625  -19.6145 H   0  0  0  0  0  0
  -24.6890   37.2431  -19.4348 H   0  0  0  0  0  0
  -22.6956   36.6523  -18.0998 H   0  0  0  0  0  0
  -24.1171   37.0326  -17.0695 H   0  0  0  0  0  0
  -22.7982   38.2371  -17.2603 H   0  0  0  0  0  0
  -25.5465   39.5629  -19.4315 H   0  0  0  0  0  0
  -24.4739   39.9480  -18.0429 H   0  0  0  0  0  0
  -25.7929   38.7435  -17.8521 H   0  0  0  0  0  0
  -20.7418   38.3526  -18.9592 H   0  0  0  0  0  0
  -20.1122   35.8832  -20.5742 H   0  0  0  0  0  0
  -18.4354   37.2689  -18.3696 H   0  0  0  0  0  0
  -17.8372   34.9145  -18.7544 H   0  0  0  0  0  0
  -16.5545   36.0457  -19.3037 H   0  0  0  0  0  0
  -17.6345   35.2606  -20.5054 H   0  0  0  0  0  0
  -18.9021   38.7570  -20.3079 H   0  0  0  0  0  0
  -18.2518   37.4992  -21.4132 H   0  0  0  0  0  0
  -17.1718   38.2843  -20.2116 H   0  0  0  0  0  0
  -19.7921   33.7573  -19.6885 H   0  0  0  0  0  0
  -21.0580   33.5889  -16.9183 H   0  0  0  0  0  0
  -22.5915   32.8087  -18.7370 H   0  0  0  0  0  0
  -22.1738   31.4721  -17.6120 H   0  0  0  0  0  0
  -21.3768   31.5761  -19.2184 H   0  0  0  0  0  0
  -18.1685   33.3891  -18.2206 H   0  0  0  0  0  0
  -17.3514   31.2739  -16.2675 H   0  0  0  0  0  0
  -16.3495   29.7379  -17.8093 H   0  0  0  0  0  0
  -17.8860   30.1865  -18.6244 H   0  0  0  0  0  0
  -15.9272   30.3583  -20.2431 H   0  0  0  0  0  0
  -15.0752   31.1129  -15.8878 H   0  0  0  0  0  0
  -13.7458   33.6680  -16.0629 H   0  0  0  0  0  0
  -13.1929   31.7196  -14.4835 H   0  0  0  0  0  0
  -12.3181   30.9504  -15.8509 H   0  0  0  0  0  0
  -10.8645   32.2075  -14.2113 H   0  0  0  0  0  0
  -10.7026   32.7337  -15.9211 H   0  0  0  0  0  0
  -10.2508   34.8511  -16.0281 H   0  0  0  0  0  0
  -11.1729   36.1693  -15.0074 H   0  0  0  0  0  0
  -13.4377   30.7175  -18.1027 H   0  0  0  0  0  0
  -11.2640   31.7291  -19.6766 H   0  0  0  0  0  0
  -13.5003   29.7438  -20.2043 H   0  0  0  0  0  0
  -12.4431   30.2271  -21.5737 H   0  0  0  0  0  0
  -10.4643   27.3890  -20.3613 H   0  0  0  0  0  0
  -14.8225   32.1144  -20.1625 H   0  0  0  0  0  0
  -14.5870   33.6963  -22.5296 H   0  0  0  0  0  0
  -16.5917   33.6600  -20.2374 H   0  0  0  0  0  0
  -16.7813   34.8472  -21.5721 H   0  0  0  0  0  0
  -16.9218   33.0191  -23.1959 H   0  0  0  0  0  0
  -16.6916   31.8186  -21.8796 H   0  0  0  0  0  0
  -18.7598   31.0970  -23.1443 H   0  0  0  0  0  0
  -20.3781   31.7576  -22.3860 H   0  0  0  0  0  0
  -14.3933   34.7650  -19.0756 H   0  0  0  0  0  0
  -14.0788   37.5681  -19.8024 H   0  0  0  0  0  0
  -12.9676   36.0720  -17.3001 H   0  0  0  0  0  0
  -11.8024   38.2642  -17.6621 H   0  0  0  0  0  0
  -12.8372   38.2688  -16.1938 H   0  0  0  0  0  0
  -13.3995   39.0859  -17.6913 H   0  0  0  0  0  0
  -15.3858   35.9056  -17.6036 H   0  0  0  0  0  0
  -15.4945   37.6977  -17.6622 H   0  0  0  0  0  0
  -14.9322   36.8805  -16.1646 H   0  0  0  0  0  0
  -11.7145   34.9542  -19.1885 H   0  0  0  0  0  0
   -9.3568   36.5754  -19.5732 H   0  0  0  0  0  0
   -9.8989   33.6099  -20.1934 H   0  0  0  0  0  0
   -8.2580   34.3366  -20.2697 H   0  0  0  0  0  0
   -9.3161   34.9238  -16.4260 H   0  0  0  0  0  0
  -11.3426   34.6823  -21.9164 H   0  0  0  0  0  0
   -9.6126   35.3197  -24.1590 H   0  0  0  0  0  0
  -11.4646   33.5685  -24.0752 H   0  0  0  0  0  0
  -12.6478   34.9024  -24.2929 H   0  0  0  0  0  0
  -10.3379   33.7252  -27.5151 H   0  0  0  0  0  0
  -12.5274   36.9315  -22.7866 H   0  0  0  0  0  0
  -12.6919   38.9942  -24.7552 H   0  0  0  0  0  0
  -14.1582   38.4303  -22.5796 H   0  0  0  0  0  0
  -13.1469   39.7087  -21.8248 H   0  0  0  0  0  0
  -15.3838   39.8579  -23.7212 H   0  0  0  0  0  0
  -15.4802   40.4946  -21.2908 H   0  0  0  0  0  0
  -15.8999   41.8546  -22.3866 H   0  0  0  0  0  0
  -14.2800   41.7917  -21.6128 H   0  0  0  0  0  0
  -13.6225   40.7391  -25.1598 H   0  0  0  0  0  0
  -13.1855   41.9345  -23.8922 H   0  0  0  0  0  0
  -14.8054   41.9975  -24.6661 H   0  0  0  0  0  0
  -11.0799   39.2237  -21.4813 H   0  0  0  0  0  0
   -9.9147   41.7742  -22.0493 H   0  0  0  0  0  0
   -8.9744   39.5023  -20.2118 H   0  0  0  0  0  0
   -8.1507   41.0982  -20.2457 H   0  0  0  0  0  0
  -10.9910   40.4801  -19.3802 H   0  0  0  0  0  0
   -9.2241   39.9529  -17.7541 H   0  0  0  0  0  0
  -10.2685   41.3138  -17.2214 H   0  0  0  0  0  0
   -8.6251   41.6426  -17.8680 H   0  0  0  0  0  0
  -10.9069   42.5887  -20.6912 H   0  0  0  0  0  0
   -9.6168   43.1960  -19.5987 H   0  0  0  0  0  0
  -11.2602   42.8673  -18.9521 H   0  0  0  0  0  0
   -8.6989   38.5173  -22.7991 H   0  0  0  0  0  0
   -6.0939   39.4153  -23.7427 H   0  0  0  0  0  0
   -7.0843   36.9844  -23.3928 H   0  0  0  0  0  0
   -7.6300   37.1375  -25.0973 H   0  0  0  0  0  0
   -3.6479   37.6063  -25.4271 H   0  0  0  0  0  0
   -9.2294   38.9687  -25.4328 H   0  0  0  0  0  0
   -8.1268   39.5521  -28.0418 H   0  0  0  0  0  0
  -10.4325   39.6393  -28.8244 H   0  0  0  0  0  0
  -10.5015   38.5878  -27.3697 H   0  0  0  0  0  0
  -12.3449   40.3123  -27.3196 H   0  0  0  0  0  0
   -8.4205   41.6304  -25.4062 H   0  0  0  0  0  0
   -8.6340   43.9248  -27.3810 H   0  0  0  0  0  0
   -9.6075   43.7216  -24.4730 H   0  0  0  0  0  0
   -9.4767   45.2994  -25.3215 H   0  0  0  0  0  0
  -11.1451   43.0087  -26.3428 H   0  0  0  0  0  0
  -11.8598   43.5727  -24.0529 H   0  0  0  0  0  0
  -13.0784   44.0477  -25.2842 H   0  0  0  0  0  0
  -12.0256   45.2953  -24.5346 H   0  0  0  0  0  0
  -10.5319   44.8002  -27.9608 H   0  0  0  0  0  0
  -11.2395   46.0258  -26.8545 H   0  0  0  0  0  0
  -12.2923   44.7783  -27.6041 H   0  0  0  0  0  0
   -6.3516   42.2954  -25.8913 H   0  0  0  0  0  0
   -4.0567   43.0867  -25.7961 H   0  0  0  0  0  0
   -4.6022   44.7970  -25.8588 H   0  0  0  0  0  0
   -6.1377   42.6563  -23.5426 H   0  0  0  0  0  0
   -4.3630   44.0090  -21.4716 H   0  0  0  0  0  0
   -7.1976   42.8460  -21.1733 H   0  0  0  0  0  0
   -6.2573   43.6016  -19.8424 H   0  0  0  0  0  0
   -8.5212   44.1430  -22.5900 H   0  0  0  0  0  0
   -5.5178   46.0477  -20.1500 H   0  0  0  0  0  0
   -9.3849   46.3651  -23.2631 H   0  0  0  0  0  0
   -6.3914   48.2755  -20.8078 H   0  0  0  0  0  0
   -8.3236   48.4367  -22.3659 H   0  0  0  0  0  0
   -3.8315   40.0678  -21.5011 H   0  0  0  0  0  0
  1  2  1  0  0  0
  1138  1  0  0  0
  1139  1  0  0  0
  1140  1  0  0  0
  2  3  1  0  0  0
  2  5  1  0  0  0
  2141  1  0  0  0
  3  4  2  0  0  0
  3  6  1  0  0  0
  5142  1  0  0  0
  5143  1  0  0  0
  5144  1  0  0  0
  6  7  1  0  0  0
  6145  1  0  0  0
  7  8  1  0  0  0
  7146  1  0  0  0
  7147  1  0  0  0
  8  9  2  0  0  0
  8 10  1  0  0  0
 10 11  1  0  0  0
 10148  1  0  0  0
 11 12  1  0  0  0
 11 14  1  0  0  0
 11149  1  0  0  0
 12 13  2  0  0  0
 12 17  1  0  0  0
 14 15  1  0  0  0
 14 16  1  0  0  0
 14150  1  0  0  0
 15151  1  0  0  0
 15152  1  0  0  0
 15153  1  0  0  0
 16154  1  0  0  0
 16155  1  0  0  0
 16156  1  0  0  0
 17 18  1  0  0  0
 17157  1  0  0  0
 18 19  1  0  0  0
 18 21  1  0  0  0
 18158  1  0  0  0
 19 20  2  0  0  0
 19 24  1  0  0  0
 21 22  1  0  0  0
 21 23  1  0  0  0
 21159  1  0  0  0
 22160  1  0  0  0
 22161  1  0  0  0
 22162  1  0  0  0
 23163  1  0  0  0
 23164  1  0  0  0
 23165  1  0  0  0
 24 25  1  0  0  0
 24166  1  0  0  0
 25 26  1  0  0  0
 25 28  1  0  0  0
 25167  1  0  0  0
 26 27  2  0  0  0
 26 29  1  0  0  0
 28168  1  0  0  0
 28169  1  0  0  0
 28170  1  0  0  0
 29 30  1  0  0  0
 29171  1  0  0  0
 30 31  1  0  0  0
 30 33  1  0  0  0
 30172  1  0  0  0
 31 32  2  0  0  0
 31 35  1  0  0  0
 33 34  1  0  0  0
 33173  1  0  0  0
 33174  1  0  0  0
 34175  1  0  0  0
 35 36  1  0  0  0
 35176  1  0  0  0
 36 37  1  0  0  0
 36 39  1  0  0  0
 36177  1  0  0  0
 37 38  2  0  0  0
 37 44  1  0  0  0
 39 40  1  0  0  0
 39178  1  0  0  0
 39179  1  0  0  0
 40 41  1  0  0  0
 40180  1  0  0  0
 40181  1  0  0  0
 41 42  2  0  0  0
 41 43  1  0  0  0
 43182  1  0  0  0
 43183  1  0  0  0
 44 45  1  0  0  0
 44184  1  0  0  0
 45 46  1  0  0  0
 45 48  1  0  0  0
 45185  1  0  0  0
 46 47  2  0  0  0
 46 52  1  0  0  0
 48 49  1  0  0  0
 48186  1  0  0  0
 48187  1  0  0  0
 49 50  2  0  0  0
 49 51  1  0  0  0
 51188  1  0  0  0
 52 53  1  0  0  0
 52189  1  0  0  0
 53 54  1  0  0  0
 53 56  1  0  0  0
 53190  1  0  0  0
 54 55  2  0  0  0
 54 61  1  0  0  0
 56 57  1  0  0  0
 56191  1  0  0  0
 56192  1  0  0  0
 57 58  1  0  0  0
 57193  1  0  0  0
 57194  1  0  0  0
 58 59  2  0  0  0
 58 60  1  0  0  0
 60195  1  0  0  0
 60196  1  0  0  0
 61 62  1  0  0  0
 61197  1  0  0  0
 62 63  1  0  0  0
 62 65  1  0  0  0
 62198  1  0  0  0
 63 64  2  0  0  0
 63 68  1  0  0  0
 65 66  1  0  0  0
 65 67  1  0  0  0
 65199  1  0  0  0
 66200  1  0  0  0
 66201  1  0  0  0
 66202  1  0  0  0
 67203  1  0  0  0
 67204  1  0  0  0
 67205  1  0  0  0
 68 69  1  0  0  0
 68206  1  0  0  0
 69 70  1  0  0  0
 69 72  1  0  0  0
 69207  1  0  0  0
 70 71  2  0  0  0
 70 76  1  0  0  0
 72 73  1  0  0  0
 72208  1  0  0  0
 72209  1  0  0  0
 73 74  1  0  0  0
 73 75  2  0  0  0
 74210  1  0  0  0
 76 77  1  0  0  0
 76211  1  0  0  0
 77 78  1  0  0  0
 77 80  1  0  0  0
 77212  1  0  0  0
 78 79  2  0  0  0
 78 84  1  0  0  0
 80 81  1  0  0  0
 80213  1  0  0  0
 80214  1  0  0  0
 81 82  2  0  0  0
 81 83  1  0  0  0
 83215  1  0  0  0
 84 85  1  0  0  0
 84216  1  0  0  0
 85 86  1  0  0  0
 85 88  1  0  0  0
 85217  1  0  0  0
 86 87  2  0  0  0
 86 92  1  0  0  0
 88 89  1  0  0  0
 88218  1  0  0  0
 88219  1  0  0  0
 89 90  1  0  0  0
 89 91  1  0  0  0
 89220  1  0  0  0
 90221  1  0  0  0
 90222  1  0  0  0
 90223  1  0  0  0
 91224  1  0  0  0
 91225  1  0  0  0
 91226  1  0  0  0
 92 93  1  0  0  0
 92227  1  0  0  0
 93 94  1  0  0  0
 93 96  1  0  0  0
 93228  1  0  0  0
 94 95  2  0  0  0
 94100  1  0  0  0
 96 97  1  0  0  0
 96229  1  0  0  0
 96230  1  0  0  0
 97 98  1  0  0  0
 97 99  1  0  0  0
 97231  1  0  0  0
 98232  1  0  0  0
 98233  1  0  0  0
 98234  1  0  0  0
 99235  1  0  0  0
 99236  1  0  0  0
 99237  1  0  0  0
100101  1  0  0  0
100238  1  0  0  0
101102  1  0  0  0
101104  1  0  0  0
101239  1  0  0  0
102103  2  0  0  0
102108  1  0  0  0
104105  1  0  0  0
104240  1  0  0  0
104241  1  0  0  0
105106  1  0  0  0
105107  2  0  0  0
106242  1  0  0  0
108109  1  0  0  0
108243  1  0  0  0
109110  1  0  0  0
109112  1  0  0  0
109244  1  0  0  0
110111  2  0  0  0
110114  1  0  0  0
112113  1  0  0  0
112245  1  0  0  0
112246  1  0  0  0
113247  1  0  0  0
114115  1  0  0  0
114248  1  0  0  0
115116  1  0  0  0
115118  1  0  0  0
115249  1  0  0  0
116117  2  0  0  0
116122  1  0  0  0
118119  1  0  0  0
118250  1  0  0  0
118251  1  0  0  0
119120  1  0  0  0
119121  1  0  0  0
119252  1  0  0  0
120253  1  0  0  0
120254  1  0  0  0
120255  1  0  0  0
121256  1  0  0  0
121257  1  0  0  0
121258  1  0  0  0
122123  1  0  0  0
122259  1  0  0  0
123124  1  0  0  0
123260  1  0  0  0
123261  1  0  0  0
124125  2  0  0  0
124126  1  0  0  0
126127  1  0  0  0
126262  1  0  0  0
127128  1  0  0  0
127130  1  0  0  0
127263  1  0  0  0
128129  2  0  0  0
128137  1  0  0  0
130131  1  0  0  0
130264  1  0  0  0
130265  1  0  0  0
131132  2  0  0  0
131133  1  0  0  0
132134  1  0  0  0
132266  1  0  0  0
133135  2  0  0  0
133267  1  0  0  0
134136  2  0  0  0
134268  1  0  0  0
135136  1  0  0  0
135269  1  0  0  0
136270  1  0  0  0
137271  1  0  0  0
M  CHG  1   1   1
M  END
> <s_m_source_file>
../2pl9_ligand.sdf

> <i_m_source_file_index>
1

> <s_epik_input>
W05IMytdW0NAQEhdKFtDSDNdKUMoPU8pW05IXVtDSDJdQyg9TylbTkhdW0NAQEhdKFtDSF0oW0NIM10pW0NIM10pQyg9TylbTkhdW0NAQEhdKFtDSF0oW0NIM10pW0NIM10pQyg9TylbTkhdW0NAQEhdKFtDSDNdKUMoPU8pW05IXVtDQEBIXShbQ0gyXVtPSF0pQyg9TylbTkhdW0NAQEhdKFtDSDJdW0NIMl1DKD1PKVtOSDJdKUMoPU8pW05IXVtDQEBIXShbQ0gyXUMoPU8pW09IXSlDKD1PKVtOSF1bQ0BASF0oW0NIMl1bQ0gyXUMoPU8pW05IMl0pQyg9TylbTkhdW0NAQEhdKFtDSF0oW0NIM10pW0NIM10pQyg9TylbTkhdW0NAQEhdKFtDSDJdQyg9TylbT0hdKUMoPU8pW05IXVtDQEBIXShbQ0gyXUMoPU8pW09IXSlDKD1PKVtOSF1bQ0BASF0oW0NIMl1bQ0hdKFtDSDNdKVtDSDNdKUMoPU8pW05IXVtDQEBIXShbQ0gyXVtDSF0oW0NIM10pW0NIM10pQyg9TylbTkhdW0NAQEhdKFtDSDJdQyg9TylbT0hdKUMoPU8pW05IXVtDQEBIXShbQ0gyXVtPSF0pQyg9TylbTkhdW0NAQEhdKFtDSDJdW0NIXShbQ0gzXSlbQ0gzXSlDKD1PKVtOSF1bQ0gyXUMoPU8pW05IXVtDQEhdKEMoPU8pW09IXSlbQ0gyXWMxW2NIXVtjSF1bY0hdW2NIXVtjSF0x

> <s_epik_cmdline>
J2VwaWtfYXBwJywgJy1pbWFlJywgJ2xpZ2FuZF9wcm8ubWFlJywgJy1vbWFlJywgJ2xpZ2FuZF9wcmVwLm1hZScsICctbXMnLCAnMScsICctcGgnLCAnNycsICctcGh0JywgJzAuNScsICctbnQn

> <s_epik_pKa_notes>
Molecule size exceeds maximum supported for generating protonation states

$$$$
