2pmc_ligand
                    3D
 Schrodinger Suite 2020-3.
122122  0  0  1  0            999 V2000
    4.4070   16.0220   -0.1210 N   0  3  0  0  0  0
    3.5530   16.8330    0.8040 C   0  0  2  0  0  0
    2.9730   18.0590    0.0940 C   0  0  0  0  0  0
    1.8520   18.4980    0.3930 O   0  0  0  0  0  0
    4.3550   17.2610    2.0470 C   0  0  0  0  0  0
    3.4640   17.5740    3.2630 C   0  0  0  0  0  0
    2.3130   18.0590    3.0950 O   0  5  0  0  0  0
    3.9380   17.3470    4.4020 O   0  0  0  0  0  0
    3.7330   18.6030   -0.8520 N   0  0  0  0  0  0
    3.3380   19.8340   -1.5390 C   0  0  2  0  0  0
    2.1130   19.6100   -2.4210 C   0  0  0  0  0  0
    1.0800   20.2570   -2.2230 O   0  0  0  0  0  0
    4.5020   20.4080   -2.3610 C   0  0  0  0  0  0
    5.9490   20.0260   -1.9740 C   0  0  0  0  0  0
    6.8920   20.4090   -3.0930 C   0  0  0  0  0  0
    6.4370   20.6210   -0.6190 C   0  0  0  0  0  0
    2.2180   18.6730   -3.3670 N   0  0  0  0  0  0
    1.1470   18.4350   -4.3380 C   0  0  2  0  0  0
   -0.2480   18.4790   -3.7040 C   0  0  0  0  0  0
   -1.1190   19.2030   -4.1750 O   0  0  0  0  0  0
    1.3600   17.1070   -5.0900 C   0  0  0  0  0  0
    2.2760   17.0420   -6.3370 C   0  0  0  0  0  0
    2.8060   15.6080   -6.5630 C   0  0  0  0  0  0
    1.5640   17.5690   -7.6030 C   0  0  0  0  0  0
   -0.4270   17.7330   -2.6130 N   0  0  0  0  0  0
   -1.7400   17.5120   -1.9820 C   0  0  2  0  0  0
   -2.3920   18.7920   -1.4560 C   0  0  0  0  0  0
   -3.5160   19.1390   -1.8430 O   0  0  0  0  0  0
   -1.6100   16.4990   -0.8250 C   0  0  0  0  0  0
   -1.3330   15.0640   -1.3030 C   0  0  0  0  0  0
   -1.4160   14.7830   -2.5240 O   0  5  0  0  0  0
   -1.0370   14.2070   -0.4360 O   0  0  0  0  0  0
   -1.6750   19.4680   -0.5600 N   0  0  0  0  0  0
   -2.0990   20.7320    0.0360 C   0  0  2  0  0  0
   -2.6070   21.7370   -0.9940 C   0  0  0  0  0  0
   -3.4290   22.6060   -0.6910 O   0  0  0  0  0  0
   -0.9140   21.3490    0.7470 C   0  0  0  0  0  0
    0.1990   21.3720   -0.1280 O   0  0  0  0  0  0
   -2.1080   21.6210   -2.2120 N   0  0  0  0  0  0
   -2.4260   22.5770   -3.2460 C   0  0  2  0  0  0
   -3.6850   22.2050   -4.0290 C   0  0  0  0  0  0
   -4.0640   22.9030   -4.9860 O   0  0  0  0  0  0
   -1.2320   22.7100   -4.1800 C   0  0  0  0  0  0
   -0.0320   23.3370   -3.4860 C   0  0  0  0  0  0
    1.2580   22.9040   -4.1520 C   0  0  0  0  0  0
   -0.1770   24.8520   -3.4840 C   0  0  0  0  0  0
   -4.3360   21.1170   -3.6150 N   0  0  0  0  0  0
   -5.4630   20.5630   -4.3690 C   0  0  0  0  0  0
   -5.0180   19.9100   -5.6760 C   0  0  0  0  0  0
   -5.8430   19.6530   -6.5630 O   0  0  0  0  0  0
   -3.7110   19.6520   -5.7950 N   0  0  0  0  0  0
   -3.1610   18.8840   -6.9200 C   0  0  2  0  0  0
   -3.1150   17.3730   -6.6150 C   0  0  0  0  0  0
   -2.9580   16.5400   -7.5170 O   0  5  0  0  0  0
   -1.7620   19.3820   -7.3140 C   0  0  0  0  0  0
   -1.7010   20.8480   -7.7020 C   0  0  0  0  0  0
   -2.8490   21.5520   -8.0720 C   0  0  0  0  0  0
   -0.4740   21.5130   -7.7360 C   0  0  0  0  0  0
   -2.7760   22.8980   -8.4370 C   0  0  0  0  0  0
   -0.3940   22.8530   -8.1060 C   0  0  0  0  0  0
   -1.5480   23.5460   -8.4540 C   0  0  0  0  0  0
   -3.2390   16.9360   -5.4640 O   0  0  0  0  0  0
    3.8165   15.7268   -1.0009 H   0  0  0  0  0  0
    4.7611   15.1214    0.4020 H   0  0  0  0  0  0
    5.2706   16.6222   -0.4435 H   0  0  0  0  0  0
    2.7207   16.1809    1.1072 H   0  0  0  0  0  0
    5.0416   16.4520    2.3368 H   0  0  0  0  0  0
    4.9334   18.1676    1.8159 H   0  0  0  0  0  0
    4.6784   18.1057   -1.1146 H   0  0  0  0  0  0
    3.0730   20.5330   -0.7321 H   0  0  0  0  0  0
    4.4025   20.0899   -3.4093 H   0  0  0  0  0  0
    4.4819   21.5065   -2.3077 H   0  0  0  0  0  0
    5.9619   18.9328   -1.8526 H   0  0  0  0  0  0
    6.5310   19.9803   -4.0395 H   0  0  0  0  0  0
    7.8975   20.0203   -2.8743 H   0  0  0  0  0  0
    6.9332   21.5049   -3.1789 H   0  0  0  0  0  0
    5.7394   20.3319    0.1808 H   0  0  0  0  0  0
    6.4759   21.7178   -0.6930 H   0  0  0  0  0  0
    7.4402   20.2333   -0.3884 H   0  0  0  0  0  0
    3.1387   18.0723   -3.4054 H   0  0  0  0  0  0
    1.2372   19.2846   -5.0308 H   0  0  0  0  0  0
    1.8001   16.3654   -4.4071 H   0  0  0  0  0  0
    0.3929   16.7360   -5.4601 H   0  0  0  0  0  0
    3.1355   17.7011   -6.1452 H   0  0  0  0  0  0
    3.3079   15.2545   -5.6502 H   0  0  0  0  0  0
    3.5219   15.6091   -7.3982 H   0  0  0  0  0  0
    1.9654   14.9398   -6.8014 H   0  0  0  0  0  0
    1.1959   18.5891   -7.4188 H   0  0  0  0  0  0
    0.7164   16.9119   -7.8473 H   0  0  0  0  0  0
    2.2728   17.5812   -8.4441 H   0  0  0  0  0  0
    0.4742   17.2706   -2.1840 H   0  0  0  0  0  0
   -2.3598   17.1296   -2.8064 H   0  0  0  0  0  0
   -0.7787   16.7964   -0.1690 H   0  0  0  0  0  0
   -2.5454   16.4812   -0.2464 H   0  0  0  0  0  0
   -0.7118   19.0206   -0.2736 H   0  0  0  0  0  0
   -2.9197   20.4651    0.7181 H   0  0  0  0  0  0
   -1.1633   22.3762    1.0516 H   0  0  0  0  0  0
   -0.6691   20.7517    1.6376 H   0  0  0  0  0  0
    1.1587   21.7872    0.2136 H   0  0  0  0  0  0
   -1.4386   20.7761   -2.4311 H   0  0  0  0  0  0
   -2.6249   23.5163   -2.7092 H   0  0  0  0  0  0
   -0.9373   21.7141   -4.5424 H   0  0  0  0  0  0
   -1.5046   23.3456   -5.0354 H   0  0  0  0  0  0
    0.0102   22.9878   -2.4438 H   0  0  0  0  0  0
    1.3288   21.8064   -4.1352 H   0  0  0  0  0  0
    2.1129   23.3350   -3.6103 H   0  0  0  0  0  0
    1.2689   23.2563   -5.1940 H   0  0  0  0  0  0
   -1.1221   25.1292   -2.9941 H   0  0  0  0  0  0
   -0.1789   25.2215   -4.5201 H   0  0  0  0  0  0
    0.6652   25.3002   -2.9364 H   0  0  0  0  0  0
   -4.0076   20.6343   -2.6827 H   0  0  0  0  0  0
   -5.9707   19.7995   -3.7614 H   0  0  0  0  0  0
   -6.1717   21.3679   -4.6135 H   0  0  0  0  0  0
   -3.0410   20.0373   -5.0123 H   0  0  0  0  0  0
   -3.8689   19.0778   -7.7394 H   0  0  0  0  0  0
   -1.0728   19.2466   -6.4675 H   0  0  0  0  0  0
   -1.3982   18.8073   -8.1785 H   0  0  0  0  0  0
   -3.8137   21.0447   -8.0759 H   0  0  0  0  0  0
    0.4355   20.9749   -7.4688 H   0  0  0  0  0  0
   -3.6822   23.4395   -8.7083 H   0  0  0  0  0  0
    0.5719   23.3579   -8.1228 H   0  0  0  0  0  0
   -1.4889   24.5962   -8.7397 H   0  0  0  0  0  0
  1  2  1  0  0  0
  1 63  1  0  0  0
  1 64  1  0  0  0
  1 65  1  0  0  0
  2  3  1  0  0  0
  2  5  1  0  0  0
  2 66  1  0  0  0
  3  4  2  0  0  0
  3  9  1  0  0  0
  5  6  1  0  0  0
  5 67  1  0  0  0
  5 68  1  0  0  0
  6  7  1  0  0  0
  6  8  2  0  0  0
  9 10  1  0  0  0
  9 69  1  0  0  0
 10 11  1  0  0  0
 10 13  1  0  0  0
 10 70  1  0  0  0
 11 12  2  0  0  0
 11 17  1  0  0  0
 13 14  1  0  0  0
 13 71  1  0  0  0
 13 72  1  0  0  0
 14 15  1  0  0  0
 14 16  1  0  0  0
 14 73  1  0  0  0
 15 74  1  0  0  0
 15 75  1  0  0  0
 15 76  1  0  0  0
 16 77  1  0  0  0
 16 78  1  0  0  0
 16 79  1  0  0  0
 17 18  1  0  0  0
 17 80  1  0  0  0
 18 19  1  0  0  0
 18 21  1  0  0  0
 18 81  1  0  0  0
 19 20  2  0  0  0
 19 25  1  0  0  0
 21 22  1  0  0  0
 21 82  1  0  0  0
 21 83  1  0  0  0
 22 23  1  0  0  0
 22 24  1  0  0  0
 22 84  1  0  0  0
 23 85  1  0  0  0
 23 86  1  0  0  0
 23 87  1  0  0  0
 24 88  1  0  0  0
 24 89  1  0  0  0
 24 90  1  0  0  0
 25 26  1  0  0  0
 25 91  1  0  0  0
 26 27  1  0  0  0
 26 29  1  0  0  0
 26 92  1  0  0  0
 27 28  2  0  0  0
 27 33  1  0  0  0
 29 30  1  0  0  0
 29 93  1  0  0  0
 29 94  1  0  0  0
 30 31  1  0  0  0
 30 32  2  0  0  0
 33 34  1  0  0  0
 33 95  1  0  0  0
 34 35  1  0  0  0
 34 37  1  0  0  0
 34 96  1  0  0  0
 35 36  2  0  0  0
 35 39  1  0  0  0
 37 38  1  0  0  0
 37 97  1  0  0  0
 37 98  1  0  0  0
 38 99  1  0  0  0
 39 40  1  0  0  0
 39100  1  0  0  0
 40 41  1  0  0  0
 40 43  1  0  0  0
 40101  1  0  0  0
 41 42  2  0  0  0
 41 47  1  0  0  0
 43 44  1  0  0  0
 43102  1  0  0  0
 43103  1  0  0  0
 44 45  1  0  0  0
 44 46  1  0  0  0
 44104  1  0  0  0
 45105  1  0  0  0
 45106  1  0  0  0
 45107  1  0  0  0
 46108  1  0  0  0
 46109  1  0  0  0
 46110  1  0  0  0
 47 48  1  0  0  0
 47111  1  0  0  0
 48 49  1  0  0  0
 48112  1  0  0  0
 48113  1  0  0  0
 49 50  2  0  0  0
 49 51  1  0  0  0
 51 52  1  0  0  0
 51114  1  0  0  0
 52 53  1  0  0  0
 52 55  1  0  0  0
 52115  1  0  0  0
 53 54  1  0  0  0
 53 62  2  0  0  0
 55 56  1  0  0  0
 55116  1  0  0  0
 55117  1  0  0  0
 56 57  2  0  0  0
 56 58  1  0  0  0
 57 59  1  0  0  0
 57118  1  0  0  0
 58 60  2  0  0  0
 58119  1  0  0  0
 59 61  2  0  0  0
 59120  1  0  0  0
 60 61  1  0  0  0
 60121  1  0  0  0
 61122  1  0  0  0
M  CHG  4   1   1   7  -1  31  -1  54  -1
M  END
> <s_m_source_file>
../2pmc_ligand.sdf

> <i_m_source_file_index>
1

> <s_epik_input>
W09IXUMoPU8pW0NIMl1bQ0BIXShbTkgzK10pQyg9TylbTkhdW0NAQEhdKFtDSDJdW0NIXShbQ0gzXSlbQ0gzXSlDKD1PKVtOSF1bQ0BASF0oW0NIMl1bQ0hdKFtDSDNdKVtDSDNdKUMoPU8pW05IXVtDQEBIXShbQ0gyXUMoPU8pW09IXSlDKD1PKVtOSF1bQ0BASF0oW0NIMl1bT0hdKUMoPU8pW05IXVtDQEBIXShbQ0gyXVtDSF0oW0NIM10pW0NIM10pQyg9TylbTkhdW0NIMl1DKD1PKVtOSF1bQ0BIXShDKD1PKVtPSF0pW0NIMl1jMVtjSF1bY0hdW2NIXVtjSF1bY0hdMQ==

> <s_epik_cmdline>
J2VwaWtfYXBwJywgJy1pbWFlJywgJ2xpZ2FuZF9wcm8ubWFlJywgJy1vbWFlJywgJ2xpZ2FuZF9wcmVwLm1hZScsICctbXMnLCAnMScsICctcGgnLCAnNycsICctcGh0JywgJzAuNScsICctbnQn

> <r_epik_Ionization_Penalty>
  0.0260

> <r_epik_Ionization_Penalty_Charging>
  0.0260

> <r_epik_Ionization_Penalty_Neutral>
  0.0000

> <r_epik_State_Penalty>
  0.0156

> <r_epik_Charging_Adjusted_Penalty>
0.0416523790052011

> <i_epik_Tot_Q>
-2

> <i_epik_Tot_abs_Q>
4

$$$$
