2pmk_ligand
                    3D
 Schrodinger Suite 2020-3.
 54 58  0  0  1  0            999 V2000
  -26.0760   14.9510  -10.1650 P   0  0  0  0  0  0
  -24.9670   15.4220  -11.0580 O   0  0  0  0  0  0
  -25.8920   15.1680   -8.5980 O   0  5  0  0  0  0
  -26.4970   13.4650  -10.4300 O   0  5  0  0  0  0
  -27.9480   17.2120   -9.9790 P   0  0  1  0  0  0
  -29.0280   16.7820   -9.0500 O   0  5  0  0  0  0
  -26.8240   18.0500   -9.4950 O   0  0  0  0  0  0
  -27.3760   15.8530  -10.5850 O   0  0  0  0  0  0
  -28.6440   17.9650  -11.2390 O   0  0  0  0  0  0
  -29.8320   17.5430  -11.8850 C   0  0  0  0  0  0
  -30.2680   18.6170  -12.9200 C   0  0  1  0  0  0
  -30.6810   19.7430  -12.1600 O   0  0  0  0  0  0
  -29.0160   18.9830  -13.7260 C   0  0  1  0  0  0
  -29.2000   18.7130  -15.1650 O   0  0  0  0  0  0
  -28.8590   20.4730  -13.5700 C   0  0  1  0  0  0
  -28.8320   20.9950  -14.9260 O   0  0  0  0  0  0
  -30.1000   20.9280  -12.8170 C   0  0  2  0  0  0
  -29.8930   21.7710  -11.6240 N   0  0  0  0  0  0
  -29.1130   21.5010  -10.5720 C   0  0  0  0  0  0
  -29.2090   22.4740   -9.6750 N   0  0  0  0  0  0
  -30.0510   23.3840  -10.1780 C   0  0  0  0  0  0
  -30.5480   24.5890   -9.7250 C   0  0  0  0  0  0
  -30.1580   25.0580   -8.5410 N   0  0  0  0  0  0
  -31.4360   25.2530  -10.4960 N   0  0  0  0  0  0
  -31.8190   24.7730  -11.6800 C   0  0  0  0  0  0
  -31.3810   23.6320  -12.1470 N   0  0  0  0  0  0
  -30.4870   22.9210  -11.4180 C   0  0  0  0  0  0
  -29.1400   19.9490  -15.9030 C   0  0  1  0  0  0
  -27.9050   19.8910  -16.8250 C   0  0  0  0  0  0
  -28.0080   20.1310  -18.2070 C   0  0  0  0  0  0
  -29.2170   20.4180  -18.8340 C   0  0  0  0  0  0
  -30.3800   20.5020  -18.1200 C   0  0  0  0  0  0
  -30.4290   20.2740  -16.7440 C   0  5  0  0  0  0
  -26.6960   19.6080  -16.3020 N   0  3  0  0  0  0
  -29.3370   20.6530  -20.1580 N   0  3  0  0  0  0
  -31.6490   20.3860  -16.2350 N   0  3  0  0  0  0
  -26.4810   19.3620  -14.9020 O   0  0  0  0  0  0
  -25.5430   19.5570  -17.1220 O   0  5  0  0  0  0
  -30.5970   20.9550  -20.7010 O   0  0  0  0  0  0
  -28.2400   20.6210  -20.9510 O   0  5  0  0  0  0
  -32.7690   20.7020  -17.0350 O   0  0  0  0  0  0
  -31.9170   20.2040  -14.8950 O   0  5  0  0  0  0
  -29.6496   16.5889  -12.4012 H   0  0  0  0  0  0
  -30.6281   17.4092  -11.1377 H   0  0  0  0  0  0
  -31.1094   18.3412  -13.5727 H   0  0  0  0  0  0
  -28.1422   18.3996  -13.4001 H   0  0  0  0  0  0
  -27.9444   20.8152  -13.0637 H   0  0  0  0  0  0
  -30.6926   21.4727  -13.5668 H   0  0  0  0  0  0
  -28.4902   20.6127  -10.4668 H   0  0  0  0  0  0
  -29.4329   24.4926   -7.9372 H   0  0  0  0  0  0
  -30.5610   26.0107   -8.1669 H   0  0  0  0  0  0
  -32.5216   25.3517  -12.2796 H   0  0  0  0  0  0
  -27.1090   20.0959  -18.8398 H   0  0  0  0  0  0
  -31.3210   20.7570  -18.6295 H   0  0  0  0  0  0
  1  2  2  0  0  0
  1  3  1  0  0  0
  1  4  1  0  0  0
  1  8  1  0  0  0
  5  6  1  0  0  0
  5  7  2  0  0  0
  5  8  1  0  0  0
  5  9  1  0  0  0
  9 10  1  0  0  0
 10 11  1  0  0  0
 10 43  1  0  0  0
 10 44  1  0  0  0
 11 12  1  0  0  0
 11 13  1  0  0  0
 11 45  1  0  0  0
 12 17  1  0  0  0
 13 14  1  0  0  0
 13 15  1  0  0  0
 13 46  1  0  0  0
 14 28  1  0  0  0
 15 16  1  0  0  0
 15 17  1  0  0  0
 15 47  1  0  0  0
 16 28  1  0  0  0
 17 18  1  0  0  0
 17 48  1  0  0  0
 18 19  1  0  0  0
 18 27  1  0  0  0
 19 20  2  0  0  0
 19 49  1  0  0  0
 20 21  1  0  0  0
 21 22  2  0  0  0
 21 27  1  0  0  0
 22 23  1  0  0  0
 22 24  1  0  0  0
 23 50  1  0  0  0
 23 51  1  0  0  0
 24 25  2  0  0  0
 25 26  1  0  0  0
 25 52  1  0  0  0
 26 27  2  0  0  0
 28 29  1  0  0  0
 28 33  1  0  0  0
 29 30  2  0  0  0
 29 34  1  0  0  0
 30 31  1  0  0  0
 30 53  1  0  0  0
 31 32  2  0  0  0
 31 35  1  0  0  0
 32 33  1  0  0  0
 32 54  1  0  0  0
 33 36  1  0  0  0
 34 37  2  0  0  0
 34 38  1  0  0  0
 35 39  2  0  0  0
 35 40  1  0  0  0
 36 41  2  0  0  0
 36 42  1  0  0  0
M  CHG  8   3  -1   4  -1   6  -1  33  -1  34   1  35   1  36   1  38  -1
M  CHG  2  40  -1  42  -1
M  END
> <s_m_source_file>
../2pmk_ligand.sdf

> <i_m_source_file_index>
1

> <s_epik_input>
Tz1QKFtPSF0pKFtPSF0pT1tQQF0oPU8pKFtPSF0pT1tDSDJdW0NASF0xT1tDQEBIXShuKFtjSF1uMiljKGMyMyluW2NIXW5jM1tOSDJdKVtDQEhdKE80KVtDQEBIXTFPW0NAXTQ1QyhbTitdKD1PKVtPLV0pPVtDSF1DKFtOK10oPU8pW08tXSk9W0NIXVtDSF01W04rXSg9TylbTy1d

> <s_epik_cmdline>
J2VwaWtfYXBwJywgJy1pbWFlJywgJ2xpZ2FuZF9wcm8ubWFlJywgJy1vbWFlJywgJ2xpZ2FuZF9wcmVwLm1hZScsICctbXMnLCAnMScsICctcGgnLCAnNycsICctcGh0JywgJzAuNScsICctbnQn

> <r_lp_tautomer_probability>
0.999997216410988

> <r_epik_Ionization_Penalty>
  0.1035

> <r_epik_Ionization_Penalty_Charging>
  0.1030

> <r_epik_Ionization_Penalty_Neutral>
  0.0005

> <r_epik_State_Penalty>
  0.0919

> <r_epik_Charging_Adjusted_Penalty>
0.194886299374804

> <i_epik_Tot_Q>
-4

> <i_epik_Tot_abs_Q>
10

> <s_epik_Chemistry_Notes>
This compound contains an acetal/aminal-like group ( X-CH(R)-Y where X, Y are N, S, or O) that may be acid/base labile, releasing an aldehyde.

$$$$
