2pmn_ligand
                    3D
 Schrodinger Suite 2020-3.
 43 45  0  0  1  0            999 V2000
   -7.0100  -30.4760  -16.1160 N   0  0  0  0  0  0
   -7.9230  -31.1730  -16.2920 C   0  0  0  0  0  0
   -8.9790  -31.8490  -16.5670 C   0  0  0  0  0  0
   -9.4110  -32.8210  -15.6750 C   0  0  0  0  0  0
  -10.5550  -33.5620  -15.9570 C   0  0  0  0  0  0
  -11.2670  -33.3570  -17.1340 C   0  0  0  0  0  0
  -10.8380  -32.3600  -18.0180 C   0  0  0  0  0  0
   -9.6870  -31.6160  -17.7470 C   0  0  0  0  0  0
  -12.5240  -34.1400  -17.3490 C   0  0  0  0  0  0
  -13.3780  -34.6890  -16.4170 C   0  0  0  0  0  0
  -14.4000  -35.2280  -17.1240 N   0  0  0  0  0  0
  -14.1990  -35.0000  -18.4390 C   0  0  0  0  0  0
  -14.9340  -35.3330  -19.5640 C   0  0  0  0  0  0
  -14.4630  -34.9530  -20.8060 C   0  0  0  0  0  0
  -13.2690  -34.2420  -20.9150 C   0  0  0  0  0  0
  -12.5660  -33.9250  -19.8050 N   0  0  0  0  0  0
  -13.0600  -34.3250  -18.5620 N   0  0  0  0  0  0
  -12.8200  -33.8650  -22.1300 N   0  0  0  0  0  0
  -11.4320  -33.5160  -22.3460 C   0  0  2  0  0  0
  -11.2480  -31.9960  -22.2590 C   0  0  0  0  0  0
  -12.1630  -31.2950  -23.1080 O   0  0  0  0  0  0
  -10.9960  -34.1700  -23.6610 C   0  0  0  0  0  0
  -10.4040  -35.5350  -23.3420 C   0  0  0  0  0  0
  -10.0290  -33.3520  -24.5180 C   0  0  0  0  0  0
   -8.8552  -33.0036  -14.7553 H   0  0  0  0  0  0
  -10.8976  -34.3134  -15.2455 H   0  0  0  0  0  0
  -11.4073  -32.1623  -18.9263 H   0  0  0  0  0  0
   -9.3443  -30.8588  -18.4522 H   0  0  0  0  0  0
  -13.2561  -34.6894  -15.3338 H   0  0  0  0  0  0
  -15.8688  -35.8858  -19.4714 H   0  0  0  0  0  0
  -15.0265  -35.2098  -21.7030 H   0  0  0  0  0  0
  -13.5335  -33.8259  -22.9663 H   0  0  0  0  0  0
  -10.8161  -33.9306  -21.5344 H   0  0  0  0  0  0
  -11.4177  -31.6648  -21.2239 H   0  0  0  0  0  0
  -10.2249  -31.7324  -22.5652 H   0  0  0  0  0  0
  -12.1449  -30.1959  -23.1473 H   0  0  0  0  0  0
  -11.8978  -34.2559  -24.2850 H   0  0  0  0  0  0
  -11.1132  -36.1073  -22.7260 H   0  0  0  0  0  0
   -9.4608  -35.4059  -22.7910 H   0  0  0  0  0  0
  -10.2101  -36.0785  -24.2785 H   0  0  0  0  0  0
  -10.4742  -32.3704  -24.7376 H   0  0  0  0  0  0
   -9.8333  -33.8850  -25.4602 H   0  0  0  0  0  0
   -9.0840  -33.2123  -23.9726 H   0  0  0  0  0  0
  1  2  3  0  0  0
  2  3  1  0  0  0
  3  4  2  0  0  0
  3  8  1  0  0  0
  4  5  1  0  0  0
  4 25  1  0  0  0
  5  6  2  0  0  0
  5 26  1  0  0  0
  6  7  1  0  0  0
  6  9  1  0  0  0
  7  8  2  0  0  0
  7 27  1  0  0  0
  8 28  1  0  0  0
  9 10  2  0  0  0
  9 17  1  0  0  0
 10 11  1  0  0  0
 10 29  1  0  0  0
 11 12  2  0  0  0
 12 13  1  0  0  0
 12 17  1  0  0  0
 13 14  2  0  0  0
 13 30  1  0  0  0
 14 15  1  0  0  0
 14 31  1  0  0  0
 15 16  2  0  0  0
 15 18  1  0  0  0
 16 17  1  0  0  0
 18 19  1  0  0  0
 18 32  1  0  0  0
 19 20  1  0  0  0
 19 22  1  0  0  0
 19 33  1  0  0  0
 20 21  1  0  0  0
 20 34  1  0  0  0
 20 35  1  0  0  0
 21 36  1  0  0  0
 22 23  1  0  0  0
 22 24  1  0  0  0
 22 37  1  0  0  0
 23 38  1  0  0  0
 23 39  1  0  0  0
 23 40  1  0  0  0
 24 41  1  0  0  0
 24 42  1  0  0  0
 24 43  1  0  0  0
M  END
> <s_m_source_file>
../2pmn_ligand.sdf

> <i_m_source_file_index>
1

> <s_epik_input>
TiNDYzFbY0hdW2NIXWMoW2NIXVtjSF0xKS1jKFtjSF1uMiluKGMyMyluYyhbY0hdW2NIXTMpW05IXVtDQEhdKFtDSDJdW09IXSlbQ0hdKFtDSDNdKVtDSDNd

> <s_epik_cmdline>
J2VwaWtfYXBwJywgJy1pbWFlJywgJ2xpZ2FuZF9wcm8ubWFlJywgJy1vbWFlJywgJ2xpZ2FuZF9wcmVwLm1hZScsICctbXMnLCAnMScsICctcGgnLCAnNycsICctcGh0JywgJzAuNScsICctbnQn

> <r_lp_tautomer_probability>
0.99999999999948

> <r_epik_Ionization_Penalty>
  0.0113

> <r_epik_Ionization_Penalty_Charging>
  0.0000

> <r_epik_Ionization_Penalty_Neutral>
  0.0113

> <r_epik_State_Penalty>
  0.0087

> <r_epik_Charging_Adjusted_Penalty>
0.00867582063232164

> <i_epik_Tot_Q>
0

> <i_epik_Tot_abs_Q>
0

$$$$
