2pnc_ligand
                    3D
 Schrodinger Suite 2020-3.
 27 28  0  0  1  0            999 V2000
   37.0790   -8.9240   43.0460 Cl  0  0  0  0  0  0
   33.3700  -10.2680   42.1170 C   0  0  0  0  0  0
   32.8120   -9.1890   41.4380 C   0  0  0  0  0  0
   33.5550   -8.0300   41.2450 C   0  0  0  0  0  0
   34.8510   -7.9540   41.7370 C   0  0  0  0  0  0
   34.6660  -10.1930   42.6000 C   0  0  0  0  0  0
   35.4040   -9.0350   42.4140 C   0  0  0  0  0  0
   32.4050  -11.7610   42.3600 Cl  0  0  0  0  0  0
   35.1980  -11.2170   43.2650 N   0  0  0  0  0  0
   36.0320  -12.2400   42.8240 C   0  0  0  0  0  0
   36.4350  -12.3300   41.5580 N   0  3  2  0  0  0
   37.2420  -13.5250   41.3250 C   0  0  0  0  0  0
   37.7120  -13.8530   42.7540 C   0  0  0  0  0  0
   36.5950  -13.3060   43.5130 N   0  3  2  0  0  0
   31.7925   -9.2526   41.0576 H   0  0  0  0  0  0
   33.1221   -7.1848   40.7099 H   0  0  0  0  0  0
   35.4357   -7.0456   41.5923 H   0  0  0  0  0  0
   34.8835  -11.1794   44.3184 H   0  0  0  0  0  0
   35.1517  -12.8557   42.5875 H   0  0  0  0  0  0
   35.5575  -12.3734   40.8961 H   0  0  0  0  0  0
   36.6137  -14.3108   40.8803 H   0  0  0  0  0  0
   38.0665  -13.2825   40.6385 H   0  0  0  0  0  0
   37.8358  -14.9410   42.8586 H   0  0  0  0  0  0
   38.6732  -13.3543   42.9474 H   0  0  0  0  0  0
   36.9570  -12.9595   44.4922 H   0  0  0  0  0  0
   37.0432  -11.4495   41.3033 H   0  0  0  0  0  0
   35.8371  -14.0898   43.6587 H   0  0  0  0  0  0
  1  7  1  0  0  0
  2  3  2  0  0  0
  2  6  1  0  0  0
  2  8  1  0  0  0
  3  4  1  0  0  0
  3 15  1  0  0  0
  4  5  2  0  0  0
  4 16  1  0  0  0
  5  7  1  0  0  0
  5 17  1  0  0  0
  6  7  2  0  0  0
  6  9  1  0  0  0
  9 10  1  0  0  0
  9 18  1  0  0  0
 10 11  1  0  0  0
 10 14  1  0  0  0
 10 19  1  0  0  0
 11 12  1  0  0  0
 11 20  1  0  0  0
 11 26  1  0  0  0
 12 13  1  0  0  0
 12 21  1  0  0  0
 12 22  1  0  0  0
 13 14  1  0  0  0
 13 23  1  0  0  0
 13 24  1  0  0  0
 14 25  1  0  0  0
 14 27  1  0  0  0
M  CHG  2  11   1  14   1
M  END
> <s_m_source_file>
../2pnc_ligand.sdf

> <i_m_source_file_index>
1

> <s_epik_input>
Q2xjMVtjSF1bY0hdW2NIXWMoQ2wpYzFbTkhdW0NIXTJbTkhdW0NIMl1bQ0gyXVtOSF0y

> <s_epik_cmdline>
J2VwaWtfYXBwJywgJy1pbWFlJywgJ2xpZ2FuZF9wcm8ubWFlJywgJy1vbWFlJywgJ2xpZ2FuZF9wcmVwLm1hZScsICctbXMnLCAnMScsICctcGgnLCAnNycsICctcGh0JywgJzAuNScsICctbnQn

> <r_lp_tautomer_probability>
1

> <r_epik_Ionization_Penalty>
  0.0021

> <r_epik_Ionization_Penalty_Charging>
  0.0004

> <r_epik_Ionization_Penalty_Neutral>
  0.0017

> <r_epik_State_Penalty>
 -0.0000

> <r_epik_Charging_Adjusted_Penalty>
0.000393399323440268

> <i_epik_Tot_Q>
2

> <i_epik_Tot_abs_Q>
2

> <s_epik_Chemistry_Notes>
This compound contains an acetal/aminal-like group ( X-CH(R)-Y where X, Y are N, S, or O) that may be acid/base labile, releasing an aldehyde.

$$$$
