2pnx_ligand
                    3D
 Schrodinger Suite 2020-3.
192191  0  0  1  0            999 V2000
   52.1600    6.7710    9.0900 N   0  3  0  0  0  0
   52.5030    7.0450   10.5150 C   0  0  2  0  0  0
   51.5630    8.0970   11.1060 C   0  0  0  0  0  0
   51.0320    8.9430   10.3850 O   0  0  0  0  0  0
   53.9450    7.5210   10.6130 C   0  0  0  0  0  0
   51.3610    8.0400   12.4190 N   0  0  0  0  0  0
   50.4900    8.9980   13.0960 C   0  0  2  0  0  0
   51.3640   10.1630   13.5700 C   0  0  0  0  0  0
   52.3800    9.9630   14.2370 O   0  0  0  0  0  0
   49.7740    8.3180   14.2670 C   0  0  0  0  0  0
   50.6920    7.7330   15.3200 C   0  0  0  0  0  0
   50.0990    6.4650   15.9300 C   0  0  0  0  0  0
   50.6670    6.1910   17.2450 N   0  0  0  0  0  0
   50.3610    6.8800   18.3410 C   0  0  0  0  0  0
   49.4880    7.8770   18.2740 N   0  0  0  0  0  0
   50.9350    6.5830   19.4990 N   0  0  0  0  0  0
   50.9700   11.3780   13.2090 N   0  0  0  0  0  0
   51.7530   12.5550   13.5660 C   0  0  2  0  0  0
   50.8370   13.6680   14.0550 C   0  0  0  0  0  0
   49.6100   13.5730   13.9880 O   0  0  0  0  0  0
   52.5220   13.0820   12.3430 C   0  0  2  0  0  0
   51.5860   13.4250   11.3100 O   0  0  0  0  0  0
   53.4820   12.0250   11.8160 C   0  0  0  0  0  0
   51.4590   14.7270   14.5580 N   0  0  0  0  0  0
   50.7260   15.8920   15.0220 C   0  0  1  0  0  0
   50.1780   15.7450   16.4490 C   0  0  0  0  0  0
   51.0400   16.3940   17.5330 C   0  0  0  0  0  0
   50.4540   16.2480   18.9320 C   0  0  0  0  0  0
   51.2600   15.3010   19.8210 C   0  0  0  0  0  0
   51.7470   15.9680   21.0840 N   0  3  0  0  0  0
   51.6460   17.1060   14.8840 C   0  0  0  0  0  0
   52.8670   17.0090   15.0690 O   0  0  0  0  0  0
   52.8610   15.4080   21.8810 C   0  0  0  0  0  0
   50.9210   16.8940   21.9460 C   0  0  0  0  0  0
   50.9160   14.9060   21.7470 C   0  0  0  0  0  0
   51.0450   18.2380   14.5320 N   0  0  0  0  0  0
   51.7770   19.4900   14.3500 C   0  0  2  0  0  0
   51.5740   20.3450   15.5940 C   0  0  0  0  0  0
   50.5430   20.2510   16.2610 O   0  0  0  0  0  0
   51.2370   20.2490   13.1370 C   0  0  0  0  0  0
   51.4070   19.5510   11.8030 C   0  0  0  0  0  0
   52.8530   19.5140   11.3450 C   0  0  0  0  0  0
   53.6830   20.3030   11.8030 O   0  0  0  0  0  0
   53.1590   18.6070   10.4220 N   0  0  0  0  0  0
   52.5610   21.1820   15.8930 N   0  0  0  0  0  0
   52.4960   22.0810   17.0490 C   0  0  2  0  0  0
   52.8360   23.4700   16.5280 C   0  0  0  0  0  0
   53.7920   23.6200   15.7720 O   0  0  0  0  0  0
   53.5410   21.7040   18.1130 C   0  0  2  0  0  0
   53.5440   20.2860   18.2970 O   0  0  0  0  0  0
   53.2160   22.3690   19.4400 C   0  0  0  0  0  0
   52.0560   24.4750   16.9160 N   0  0  0  0  0  0
   52.3110   25.8510   16.4680 C   0  0  2  0  0  0
   53.6910   26.2780   16.9860 C   0  0  0  0  0  0
   54.4630   26.9150   16.2670 O   0  0  0  0  0  0
   51.2280   26.7870   16.9960 C   0  0  0  0  0  0
   53.9930   25.9250   18.2330 N   0  0  0  0  0  0
   55.2940   26.2570   18.8350 C   0  0  2  0  0  0
   56.3680   25.5890   17.9670 C   0  0  0  0  0  0
   56.2680   24.4030   17.6600 O   0  0  0  0  0  0
   55.3680   25.7190   20.2680 C   0  0  0  0  0  0
   56.6620   26.0550   20.9960 C   0  0  0  0  0  0
   56.7780   25.2810   22.2980 C   0  0  0  0  0  0
   55.7120   25.6020   23.2450 N   0  0  0  0  0  0
   55.6290   26.7420   23.9220 C   0  0  0  0  0  0
   56.5520   27.6830   23.7630 N   0  0  0  0  0  0
   54.6240   26.9410   24.7650 N   0  0  0  0  0  0
   57.3910   26.3480   17.5790 N   0  0  0  0  0  0
   58.4510   25.8160   16.7120 C   0  0  2  0  0  0
   59.6270   25.2660   17.5260 C   0  0  0  0  0  0
   60.3920   24.4440   17.0250 O   0  0  0  0  0  0
   58.9500   26.9060   15.7600 C   0  0  0  0  0  0
   57.8710   27.5030   14.8680 C   0  0  0  0  0  0
   57.2840   26.4680   13.9220 C   0  0  0  0  0  0
   56.2450   27.0980   13.0020 C   0  0  0  0  0  0
   55.7010   26.1280   12.0090 N   0  3  0  0  0  0
   59.7830   25.7160   18.7660 N   0  0  0  0  0  0
   60.8870   25.2300   19.5990 C   0  0  2  0  0  0
   60.5900   25.5250   21.0670 C   0  0  0  0  0  0
   59.6810   26.2870   21.3850 O   0  0  0  0  0  0
   62.2020   25.8980   19.1830 C   0  0  0  0  0  0
   62.1050   27.3100   19.2490 O   0  0  0  0  0  0
   61.3680   24.9140   21.9560 N   0  0  0  0  0  0
   61.1880   25.1060   23.3960 C   0  0  2  0  0  0
   61.4870   26.5660   23.7440 C   0  0  0  0  0  0
   61.9380   27.3100   22.8470 O   0  0  0  0  0  0
   62.1370   24.1950   24.2050 C   0  0  2  0  0  0
   63.4920   24.4380   23.8040 O   0  0  0  0  0  0
   61.7990   22.7300   23.9740 C   0  0  0  0  0  0
   51.1172    6.4273    9.0234 H   0  0  0  0  0  0
   52.8288    5.9920    8.6952 H   0  0  0  0  0  0
   52.2810    7.6916    8.5002 H   0  0  0  0  0  0
   52.3834    6.1020   11.0685 H   0  0  0  0  0  0
   54.6127    6.7583   10.1858 H   0  0  0  0  0  0
   54.2055    7.6865   11.6688 H   0  0  0  0  0  0
   54.0591    8.4622   10.0552 H   0  0  0  0  0  0
   51.8652    7.2513   12.9967 H   0  0  0  0  0  0
   49.7302    9.3472   12.3813 H   0  0  0  0  0  0
   49.1310    9.0496   14.7783 H   0  0  0  0  0  0
   49.1575    7.4894   13.8885 H   0  0  0  0  0  0
   51.6607    7.4818   14.8633 H   0  0  0  0  0  0
   50.8451    8.4691   16.1229 H   0  0  0  0  0  0
   49.0108    6.5843   16.0379 H   0  0  0  0  0  0
   50.3106    5.6084   15.2731 H   0  0  0  0  0  0
   51.3930    5.3743   17.3712 H   0  0  0  0  0  0
   49.0100    8.1260   17.3151 H   0  0  0  0  0  0
   49.2422    8.4545   19.1774 H   0  0  0  0  0  0
   51.6592    5.7571   19.5581 H   0  0  0  0  0  0
   50.0395   11.4903   12.6331 H   0  0  0  0  0  0
   52.4321   12.2169   14.3626 H   0  0  0  0  0  0
   53.0734   14.0005   12.5924 H   0  0  0  0  0  0
   50.8070   14.1777   11.5014 H   0  0  0  0  0  0
   54.2019   11.7582   12.6037 H   0  0  0  0  0  0
   54.0227   12.4226   10.9445 H   0  0  0  0  0  0
   52.9152   11.1303   11.5189 H   0  0  0  0  0  0
   52.5571   14.7079   14.6189 H   0  0  0  0  0  0
   49.8468   15.9700   14.3656 H   0  0  0  0  0  0
   49.1841   16.2125   16.5101 H   0  0  0  0  0  0
   50.0974   14.6777   16.7027 H   0  0  0  0  0  0
   52.0355   15.9260   17.5389 H   0  0  0  0  0  0
   51.1417   17.4695   17.3256 H   0  0  0  0  0  0
   50.4320   17.2312   19.4247 H   0  0  0  0  0  0
   49.4309   15.8503   18.8613 H   0  0  0  0  0  0
   50.6315   14.4459   20.1104 H   0  0  0  0  0  0
   52.1396   14.9391   19.2685 H   0  0  0  0  0  0
   53.7824   15.9701   21.6689 H   0  0  0  0  0  0
   53.0070   14.3507   21.6148 H   0  0  0  0  0  0
   52.6216   15.4869   22.9517 H   0  0  0  0  0  0
   51.2293   17.9345   21.7663 H   0  0  0  0  0  0
   51.0757   16.6436   23.0059 H   0  0  0  0  0  0
   49.8567   16.7780   21.6934 H   0  0  0  0  0  0
   51.2145   13.9173   21.3684 H   0  0  0  0  0  0
   49.8531   15.0789   21.5227 H   0  0  0  0  0  0
   51.0721   14.9444   22.8352 H   0  0  0  0  0  0
   49.9563   18.2099   14.3769 H   0  0  0  0  0  0
   52.8349   19.2304   14.1972 H   0  0  0  0  0  0
   50.1577   20.4204   13.2624 H   0  0  0  0  0  0
   51.7540   21.2160   13.0496 H   0  0  0  0  0  0
   51.0515   18.5132   11.8843 H   0  0  0  0  0  0
   50.8227   20.0797   11.0354 H   0  0  0  0  0  0
   52.3840   17.9243   10.0436 H   0  0  0  0  0  0
   54.1872   18.5394   10.0369 H   0  0  0  0  0  0
   53.4473   21.1870   15.2415 H   0  0  0  0  0  0
   51.4854   22.0022   17.4762 H   0  0  0  0  0  0
   54.5525   21.9822   17.7822 H   0  0  0  0  0  0
   53.7597   19.6216   17.4473 H   0  0  0  0  0  0
   53.2107   23.4614   19.3111 H   0  0  0  0  0  0
   53.9761   22.0913   20.1851 H   0  0  0  0  0  0
   52.2259   22.0356   19.7844 H   0  0  0  0  0  0
   51.2081   24.2622   17.5837 H   0  0  0  0  0  0
   52.2801   25.8606   15.3685 H   0  0  0  0  0  0
   50.2476   26.4654   16.6146 H   0  0  0  0  0  0
   51.4341   27.8135   16.6585 H   0  0  0  0  0  0
   51.2215   26.7569   18.0956 H   0  0  0  0  0  0
   53.2422   25.3719   18.8163 H   0  0  0  0  0  0
   55.4029   27.3513   18.8613 H   0  0  0  0  0  0
   54.5448   26.1430   20.8618 H   0  0  0  0  0  0
   55.2822   24.6225   20.2529 H   0  0  0  0  0  0
   57.5196   25.7970   20.3573 H   0  0  0  0  0  0
   56.6855   27.1307   21.2245 H   0  0  0  0  0  0
   56.7279   24.2022   22.0889 H   0  0  0  0  0  0
   57.7380   25.5168   22.7805 H   0  0  0  0  0  0
   54.9081   24.8756   23.4352 H   0  0  0  0  0  0
   57.3869   27.5221   23.0651 H   0  0  0  0  0  0
   56.4818   28.6235   24.3292 H   0  0  0  0  0  0
   53.8571   26.1640   24.8998 H   0  0  0  0  0  0
   57.4326   27.3927   17.9208 H   0  0  0  0  0  0
   57.9795   24.9942   16.1531 H   0  0  0  0  0  0
   59.3787   27.7342   16.3434 H   0  0  0  0  0  0
   59.7207   26.4880   15.0957 H   0  0  0  0  0  0
   57.0575   27.9006   15.4926 H   0  0  0  0  0  0
   58.3018   28.3164   14.2656 H   0  0  0  0  0  0
   58.0869   26.0375   13.3056 H   0  0  0  0  0  0
   56.8016   25.6698   14.5053 H   0  0  0  0  0  0
   55.4045   27.4759   13.6026 H   0  0  0  0  0  0
   56.7029   27.9304   12.4474 H   0  0  0  0  0  0
   54.9586   26.6321   11.3728 H   0  0  0  0  0  0
   55.2223   25.2910   12.5384 H   0  0  0  0  0  0
   56.5207   25.7453   11.3832 H   0  0  0  0  0  0
   59.0770   26.4582   19.1668 H   0  0  0  0  0  0
   60.9514   24.1442   19.4349 H   0  0  0  0  0  0
   63.0084   25.5707   19.8557 H   0  0  0  0  0  0
   62.4478   25.6119   18.1497 H   0  0  0  0  0  0
   62.9700   27.9339   18.9798 H   0  0  0  0  0  0
   62.1628   24.2504   21.5847 H   0  0  0  0  0  0
   60.1400   24.8440   23.6037 H   0  0  0  0  0  0
   61.3143   26.9651   24.7544 H   0  0  0  0  0  0
   62.0863   24.4268   25.2791 H   0  0  0  0  0  0
   63.9206   25.4468   23.8968 H   0  0  0  0  0  0
   60.7598   22.5407   24.2809 H   0  0  0  0  0  0
   62.4772   22.0993   24.5674 H   0  0  0  0  0  0
   61.9156   22.4907   22.9067 H   0  0  0  0  0  0
  1  2  1  0  0  0
  1 90  1  0  0  0
  1 91  1  0  0  0
  1 92  1  0  0  0
  2  3  1  0  0  0
  2  5  1  0  0  0
  2 93  1  0  0  0
  3  4  2  0  0  0
  3  6  1  0  0  0
  5 94  1  0  0  0
  5 95  1  0  0  0
  5 96  1  0  0  0
  6  7  1  0  0  0
  6 97  1  0  0  0
  7  8  1  0  0  0
  7 10  1  0  0  0
  7 98  1  0  0  0
  8  9  2  0  0  0
  8 17  1  0  0  0
 10 11  1  0  0  0
 10 99  1  0  0  0
 10100  1  0  0  0
 11 12  1  0  0  0
 11101  1  0  0  0
 11102  1  0  0  0
 12 13  1  0  0  0
 12103  1  0  0  0
 12104  1  0  0  0
 13 14  1  0  0  0
 13105  1  0  0  0
 14 15  1  0  0  0
 14 16  2  0  0  0
 15106  1  0  0  0
 15107  1  0  0  0
 16108  1  0  0  0
 17 18  1  0  0  0
 17109  1  0  0  0
 18 19  1  0  0  0
 18 21  1  0  0  0
 18110  1  0  0  0
 19 20  2  0  0  0
 19 24  1  0  0  0
 21 22  1  0  0  0
 21 23  1  0  0  0
 21111  1  0  0  0
 22112  1  0  0  0
 23113  1  0  0  0
 23114  1  0  0  0
 23115  1  0  0  0
 24 25  1  0  0  0
 24116  1  0  0  0
 25 26  1  0  0  0
 25 31  1  0  0  0
 25117  1  0  0  0
 26 27  1  0  0  0
 26118  1  0  0  0
 26119  1  0  0  0
 27 28  1  0  0  0
 27120  1  0  0  0
 27121  1  0  0  0
 28 29  1  0  0  0
 28122  1  0  0  0
 28123  1  0  0  0
 29 30  1  0  0  0
 29124  1  0  0  0
 29125  1  0  0  0
 30 33  1  0  0  0
 30 34  1  0  0  0
 30 35  1  0  0  0
 31 32  2  0  0  0
 31 36  1  0  0  0
 33126  1  0  0  0
 33127  1  0  0  0
 33128  1  0  0  0
 34129  1  0  0  0
 34130  1  0  0  0
 34131  1  0  0  0
 35132  1  0  0  0
 35133  1  0  0  0
 35134  1  0  0  0
 36 37  1  0  0  0
 36135  1  0  0  0
 37 38  1  0  0  0
 37 40  1  0  0  0
 37136  1  0  0  0
 38 39  2  0  0  0
 38 45  1  0  0  0
 40 41  1  0  0  0
 40137  1  0  0  0
 40138  1  0  0  0
 41 42  1  0  0  0
 41139  1  0  0  0
 41140  1  0  0  0
 42 43  2  0  0  0
 42 44  1  0  0  0
 44141  1  0  0  0
 44142  1  0  0  0
 45 46  1  0  0  0
 45143  1  0  0  0
 46 47  1  0  0  0
 46 49  1  0  0  0
 46144  1  0  0  0
 47 48  2  0  0  0
 47 52  1  0  0  0
 49 50  1  0  0  0
 49 51  1  0  0  0
 49145  1  0  0  0
 50146  1  0  0  0
 51147  1  0  0  0
 51148  1  0  0  0
 51149  1  0  0  0
 52 53  1  0  0  0
 52150  1  0  0  0
 53 54  1  0  0  0
 53 56  1  0  0  0
 53151  1  0  0  0
 54 55  2  0  0  0
 54 57  1  0  0  0
 56152  1  0  0  0
 56153  1  0  0  0
 56154  1  0  0  0
 57 58  1  0  0  0
 57155  1  0  0  0
 58 59  1  0  0  0
 58 61  1  0  0  0
 58156  1  0  0  0
 59 60  2  0  0  0
 59 68  1  0  0  0
 61 62  1  0  0  0
 61157  1  0  0  0
 61158  1  0  0  0
 62 63  1  0  0  0
 62159  1  0  0  0
 62160  1  0  0  0
 63 64  1  0  0  0
 63161  1  0  0  0
 63162  1  0  0  0
 64 65  1  0  0  0
 64163  1  0  0  0
 65 66  1  0  0  0
 65 67  2  0  0  0
 66164  1  0  0  0
 66165  1  0  0  0
 67166  1  0  0  0
 68 69  1  0  0  0
 68167  1  0  0  0
 69 70  1  0  0  0
 69 72  1  0  0  0
 69168  1  0  0  0
 70 71  2  0  0  0
 70 77  1  0  0  0
 72 73  1  0  0  0
 72169  1  0  0  0
 72170  1  0  0  0
 73 74  1  0  0  0
 73171  1  0  0  0
 73172  1  0  0  0
 74 75  1  0  0  0
 74173  1  0  0  0
 74174  1  0  0  0
 75 76  1  0  0  0
 75175  1  0  0  0
 75176  1  0  0  0
 76177  1  0  0  0
 76178  1  0  0  0
 76179  1  0  0  0
 77 78  1  0  0  0
 77180  1  0  0  0
 78 79  1  0  0  0
 78 81  1  0  0  0
 78181  1  0  0  0
 79 80  2  0  0  0
 79 83  1  0  0  0
 81 82  1  0  0  0
 81182  1  0  0  0
 81183  1  0  0  0
 82184  1  0  0  0
 83 84  1  0  0  0
 83185  1  0  0  0
 84 85  1  0  0  0
 84 87  1  0  0  0
 84186  1  0  0  0
 85 86  2  0  0  0
 85187  1  0  0  0
 87 88  1  0  0  0
 87 89  1  0  0  0
 87188  1  0  0  0
 88189  1  0  0  0
 89190  1  0  0  0
 89191  1  0  0  0
 89192  1  0  0  0
M  CHG  3   1   1  30   1  76   1
M  END
> <s_m_source_file>
../2pnx_ligand.sdf

> <i_m_source_file_index>
1

> <s_epik_input>
W0hdL049QyhbTkgyXSlcW05IXVtDSDJdW0NIMl1bQ0gyXVtDQEhdKFtOSF1DKD1PKVtDQEBIXShbTkgzK10pW0NIM10pQyg9TylbTkhdW0NAQEhdKFtDQEhdKFtPSF0pW0NIM10pQyg9TylbTkhdW0NAQEhdKFtDSDJdW0NIMl1bQ0gyXVtDSDJdW04rXShbQ0gzXSkoW0NIM10pW0NIM10pQyg9TylbTkhdW0NAQEhdKFtDSDJdW0NIMl1DKD1PKVtOSDJdKUMoPU8pW05IXVtDQEBIXShbQ0BIXShbT0hdKVtDSDNdKUMoPU8pW05IXVtDQEBIXShbQ0gzXSlDKD1PKVtOSF1bQ0BASF0oW0NIMl1bQ0gyXVtDSDJdW05IXS9DKFtOSDJdKT1OXFtIXSlDKD1PKVtOSF1bQ0BASF0oW0NIMl1bQ0gyXVtDSDJdW0NIMl1bTkgzK10pQyg9TylbTkhdW0NAQEhdKFtDSDJdW09IXSlDKD1PKVtOSF1bQ0BIXShbQ0hdPU8pW0NASF0oW09IXSlbQ0gzXQ==

> <s_epik_cmdline>
J2VwaWtfYXBwJywgJy1pbWFlJywgJ2xpZ2FuZF9wcm8ubWFlJywgJy1vbWFlJywgJ2xpZ2FuZF9wcmVwLm1hZScsICctbXMnLCAnMScsICctcGgnLCAnNycsICctcGh0JywgJzAuNScsICctbnQn

> <s_epik_pKa_notes>
Molecule size exceeds maximum supported for generating protonation states

> <s_epik_Chemistry_Notes>
This compound has an imine and may undergo hydrolysis.

$$$$
