2pou_ligand
                    3D
 Schrodinger Suite 2020-3.
 22 22  0  0  1  0            999 V2000
   -3.8520    2.1690   11.9070 S   0  0  0  0  0  0
   -4.5040    2.9300   10.8880 O   0  0  0  0  0  0
   -3.8880    0.7430   11.8550 O   0  0  0  0  0  0
   -2.3410    2.6200   11.9690 N   0  0  0  0  0  0
   -5.9440    0.7900   16.7620 S   0  0  0  0  0  0
   -5.2420    1.1140   17.9710 O   0  0  0  0  0  0
   -7.3690    0.7690   16.7720 O   0  0  0  0  0  0
   -5.4090   -0.5950   16.2520 N   0  0  0  0  0  0
   -4.5900    2.6530   13.4350 C   0  0  0  0  0  0
   -4.9290    1.6710   14.3820 C   0  0  0  0  0  0
   -5.5260    2.0580   15.5950 C   0  0  0  0  0  0
   -5.7820    3.4210   15.8600 C   0  0  0  0  0  0
   -5.4310    4.3870   14.9070 C   0  0  0  0  0  0
   -4.8370    4.0240   13.6910 C   0  0  0  0  0  0
   -6.5140    3.9040   17.3140 Cl  0  0  0  0  0  0
   -5.7340    6.0460   15.2320 Cl  0  0  0  0  0  0
   -1.8357    2.3386   11.0333 H   0  0  0  0  0  0
   -1.8451    2.1248   12.8169 H   0  0  0  0  0  0
   -5.6701   -1.3789   16.9782 H   0  0  0  0  0  0
   -4.3156   -0.5474   16.1410 H   0  0  0  0  0  0
   -4.7309    0.6188   14.1779 H   0  0  0  0  0  0
   -4.5699    4.7828   12.9555 H   0  0  0  0  0  0
  1  2  2  0  0  0
  1  3  2  0  0  0
  1  4  1  0  0  0
  1  9  1  0  0  0
  4 17  1  0  0  0
  4 18  1  0  0  0
  5  6  2  0  0  0
  5  7  2  0  0  0
  5  8  1  0  0  0
  5 11  1  0  0  0
  8 19  1  0  0  0
  8 20  1  0  0  0
  9 10  2  0  0  0
  9 14  1  0  0  0
 10 11  1  0  0  0
 10 21  1  0  0  0
 11 12  2  0  0  0
 12 13  1  0  0  0
 12 15  1  0  0  0
 13 14  2  0  0  0
 13 16  1  0  0  0
 14 22  1  0  0  0
M  END
> <s_m_source_file>
../2pou_ligand.sdf

> <i_m_source_file_index>
1

> <s_epik_input>
Tz1TKD1PKShbTkgyXSljMVtjSF1jKFMoPU8pKD1PKVtOSDJdKWMoQ2wpYyhDbClbY0hdMQ==

> <s_epik_cmdline>
J2VwaWtfYXBwJywgJy1pbWFlJywgJ2xpZ2FuZF9wcm8ubWFlJywgJy1vbWFlJywgJ2xpZ2FuZF9wcmVwLm1hZScsICctbXMnLCAnMScsICctcGgnLCAnNycsICctcGh0JywgJzAuNScsICctbnQn

> <r_epik_Ionization_Penalty>
  0.0146

> <r_epik_Ionization_Penalty_Charging>
  0.0000

> <r_epik_Ionization_Penalty_Neutral>
  0.0146

> <r_epik_State_Penalty>
  0.0073

> <r_epik_Charging_Adjusted_Penalty>
0.00728565446292464

> <i_epik_Tot_Q>
0

> <i_epik_Tot_abs_Q>
0

$$$$
