2pow_ligand
                    3D
 Schrodinger Suite 2020-3.
 27 27  0  0  1  0            999 V2000
   -4.9980    1.9280   14.6650 C   0  0  0  0  0  0
   -5.5620    2.1870   15.9170 C   0  0  0  0  0  0
   -5.7840    3.5120   16.3610 C   0  0  0  0  0  0
   -5.4180    4.5720   15.5250 C   0  0  0  0  0  0
   -4.8350    4.3490   14.2420 C   0  0  0  0  0  0
   -4.6310    2.9820   13.8130 C   0  0  0  0  0  0
   -6.0070    0.8330   16.9470 S   0  0  0  0  0  0
   -5.3870   -0.4840   16.3400 N   0  0  0  0  0  0
   -5.3930    1.0370   18.2240 O   0  0  0  0  0  0
   -7.4260    0.7510   16.8590 O   0  0  0  0  0  0
   -3.9350    2.4800   12.2400 S   0  0  0  0  0  0
   -2.3860    2.7470   12.2340 N   0  0  0  0  0  0
   -4.1530    1.0690   12.1250 O   0  0  0  0  0  0
   -4.5250    3.3210   11.2450 O   0  0  0  0  0  0
   -6.3440    3.8070   17.5840 N   0  0  0  0  0  0
   -4.4650    5.5270   13.4030 C   0  0  0  0  0  0
   -5.3940    5.8570   12.4910 F   0  0  0  0  0  0
   -4.2780    6.6400   14.1320 F   0  0  0  0  0  0
   -3.3140    5.3730   12.7210 F   0  0  0  0  0  0
   -4.8414    0.8974   14.3466 H   0  0  0  0  0  0
   -5.5825    5.5953   15.8625 H   0  0  0  0  0  0
   -5.6565   -1.3419   16.9735 H   0  0  0  0  0  0
   -4.2919   -0.3884   16.2985 H   0  0  0  0  0  0
   -1.9643    2.4371   11.2665 H   0  0  0  0  0  0
   -1.9115    2.1710   13.0422 H   0  0  0  0  0  0
   -6.6419    2.9944   18.2629 H   0  0  0  0  0  0
   -6.4935    4.8553   17.8820 H   0  0  0  0  0  0
  1  2  2  0  0  0
  1  6  1  0  0  0
  1 20  1  0  0  0
  2  3  1  0  0  0
  2  7  1  0  0  0
  3  4  2  0  0  0
  3 15  1  0  0  0
  4  5  1  0  0  0
  4 21  1  0  0  0
  5  6  2  0  0  0
  5 16  1  0  0  0
  6 11  1  0  0  0
  7  8  1  0  0  0
  7  9  2  0  0  0
  7 10  2  0  0  0
  8 22  1  0  0  0
  8 23  1  0  0  0
 11 12  1  0  0  0
 11 13  2  0  0  0
 11 14  2  0  0  0
 12 24  1  0  0  0
 12 25  1  0  0  0
 15 26  1  0  0  0
 15 27  1  0  0  0
 16 17  1  0  0  0
 16 18  1  0  0  0
 16 19  1  0  0  0
M  END
> <s_m_source_file>
../2pow_ligand.sdf

> <i_m_source_file_index>
1

> <s_epik_input>
W05IMl1TKD1PKSg9TyljMVtjSF1jKFMoPU8pKD1PKVtOSDJdKWMoQyhGKShGKUYpW2NIXWMxW05IMl0=

> <s_epik_cmdline>
J2VwaWtfYXBwJywgJy1pbWFlJywgJ2xpZ2FuZF9wcm8ubWFlJywgJy1vbWFlJywgJ2xpZ2FuZF9wcmVwLm1hZScsICctbXMnLCAnMScsICctcGgnLCAnNycsICctcGh0JywgJzAuNScsICctbnQn

> <r_lp_tautomer_probability>
1

> <r_epik_Ionization_Penalty>
  0.0115

> <r_epik_Ionization_Penalty_Charging>
  0.0000

> <r_epik_Ionization_Penalty_Neutral>
  0.0115

> <r_epik_State_Penalty>
 -0.0000

> <r_epik_Charging_Adjusted_Penalty>
0

> <i_epik_Tot_Q>
0

> <i_epik_Tot_abs_Q>
0

$$$$
