2pqb_ligand
                    3D
 Schrodinger Suite 2020-3.
 36 36  0  0  1  0            999 V2000
 -127.7840   32.0210  127.7750 C   0  0  0  0  0  0
 -127.4180   32.3690  126.4040 C   0  0  0  0  0  0
 -128.5040   32.3270  125.3130 C   0  0  2  0  0  0
 -129.9960   32.3540  125.8790 C   0  0  2  0  0  0
 -130.1890   31.2700  126.9710 C   0  0  1  0  0  0
 -129.1940   31.6430  128.1630 C   0  0  0  0  0  0
 -126.6950   32.0350  128.8280 C   0  0  0  0  0  0
 -128.3580   31.1140  124.3810 O   0  0  0  0  0  0
 -130.8350   32.2050  124.7190 O   0  0  0  0  0  0
 -131.5660   31.2810  127.4530 O   0  0  0  0  0  0
 -125.5540   31.8580  128.4280 O   0  0  0  0  0  0
 -127.0170   32.1910  130.0050 O   0  5  0  0  0  0
 -127.3910   31.1220  123.0460 P   0  0  0  0  0  0
 -125.9160   31.1160  123.5140 O   0  5  0  0  0  0
 -127.8230   32.4300  122.3040 O   0  5  0  0  0  0
 -127.6420   29.7550  122.3860 O   0  0  0  0  0  0
 -132.5120   30.1670  127.2980 C   0  0  2  0  0  0
 -132.6890   29.6280  125.8300 C   0  0  0  0  0  0
 -133.8030   30.6710  127.9060 C   0  0  0  0  0  0
 -133.7180   30.7700  129.1780 O   0  5  0  0  0  0
 -134.8030   30.9360  127.2610 O   0  0  0  0  0  0
 -131.8170   27.7510  128.4630 P   0  0  0  0  0  0
 -131.9020   26.9290  127.2170 O   0  0  0  0  0  0
 -133.1220   27.6380  129.2280 O   0  5  0  0  0  0
 -130.6180   27.2610  129.3300 O   0  5  0  0  0  0
 -131.5780   29.3540  128.0870 O   0  0  0  0  0  0
 -131.5490   29.1990  125.3620 F   0  0  0  0  0  0
 -133.5370   28.6600  125.8580 F   0  0  0  0  0  0
 -126.3825   32.6543  126.1667 H   0  0  0  0  0  0
 -128.2966   33.2395  124.7347 H   0  0  0  0  0  0
 -130.3371   33.2882  126.3491 H   0  0  0  0  0  0
 -130.0583   30.2547  126.5685 H   0  0  0  0  0  0
 -129.1696   30.7607  128.8194 H   0  0  0  0  0  0
 -129.6656   32.4826  128.6946 H   0  0  0  0  0  0
 -130.7659   32.9288  123.8936 H   0  0  0  0  0  0
 -133.0526   30.2932  125.0330 H   0  0  0  0  0  0
  1  2  2  0  0  0
  1  6  1  0  0  0
  1  7  1  0  0  0
  2  3  1  0  0  0
  2 29  1  0  0  0
  3  4  1  0  0  0
  3  8  1  0  0  0
  3 30  1  0  0  0
  4  5  1  0  0  0
  4  9  1  0  0  0
  4 31  1  0  0  0
  5  6  1  0  0  0
  5 10  1  0  0  0
  5 32  1  0  0  0
  6 33  1  0  0  0
  6 34  1  0  0  0
  7 11  2  0  0  0
  7 12  1  0  0  0
  8 13  1  0  0  0
  9 35  1  0  0  0
 10 17  1  0  0  0
 13 14  1  0  0  0
 13 15  1  0  0  0
 13 16  2  0  0  0
 17 18  1  0  0  0
 17 19  1  0  0  0
 17 26  1  0  0  0
 18 27  1  0  0  0
 18 28  1  0  0  0
 18 36  1  0  0  0
 19 20  1  0  0  0
 19 21  2  0  0  0
 22 23  2  0  0  0
 22 24  1  0  0  0
 22 25  1  0  0  0
 22 26  1  0  0  0
M  CHG  6  12  -1  14  -1  15  -1  20  -1  24  -1  25  -1
M  END
> <s_m_source_file>
../2pqb_ligand.sdf

> <i_m_source_file_index>
1

> <s_epik_input>
Tz1DKFtPSF0pQzE9W0NIXVtDQEBIXShPUCg9TykoW09IXSlbT0hdKVtDQEBIXShbT0hdKVtDQEBIXShbQ0gyXTEpT1tDQF0oW0NIXShGKUYpKEMoPU8pW09IXSlPUCg9TykoW09IXSlbT0hd

> <s_epik_cmdline>
J2VwaWtfYXBwJywgJy1pbWFlJywgJ2xpZ2FuZF9wcm8ubWFlJywgJy1vbWFlJywgJ2xpZ2FuZF9wcmVwLm1hZScsICctbXMnLCAnMScsICctcGgnLCAnNycsICctcGh0JywgJzAuNScsICctbnQn

> <r_epik_Ionization_Penalty>
  0.1661

> <r_epik_Ionization_Penalty_Charging>
  0.1661

> <r_epik_Ionization_Penalty_Neutral>
  0.0000

> <r_epik_State_Penalty>
  0.1433

> <r_epik_Charging_Adjusted_Penalty>
0.309389241267437

> <i_epik_Tot_Q>
-6

> <i_epik_Tot_abs_Q>
6

$$$$
