2pql_ligand
                    3D
 Schrodinger Suite 2020-3.
 25 26  0  0  1  0            999 V2000
   13.6610  -23.7050    6.3550 N   0  3  0  0  0  0
   12.4920  -22.8570    6.1960 C   0  0  0  0  0  0
   12.9210  -21.3880    6.1270 C   0  0  0  0  0  0
   11.7170  -20.5530    5.7270 C   0  0  0  0  0  0
   10.3550  -20.8110    5.9710 C   0  0  0  0  0  0
    9.5630  -19.8310    5.4330 N   0  3  0  0  0  0
   10.4050  -18.9530    4.8570 C   0  0  0  0  0  0
   11.6800  -19.3700    5.0250 C   0  0  0  0  0  0
   10.0080  -17.8030    4.2130 C   0  0  0  0  0  0
   11.0590  -17.0130    3.7660 C   0  0  0  0  0  0
   12.3800  -17.4760    3.8130 C   0  0  0  0  0  0
   12.7260  -18.6170    4.5250 C   0  0  0  0  0  0
   13.3463  -24.7579    6.4038 H   0  0  0  0  0  0
   14.1858  -23.4357    7.2835 H   0  0  0  0  0  0
   14.3360  -23.5634    5.4980 H   0  0  0  0  0  0
   11.9672  -23.1263    5.2675 H   0  0  0  0  0  0
   11.8170  -22.9986    7.0529 H   0  0  0  0  0  0
   13.2899  -21.0671    7.1124 H   0  0  0  0  0  0
   13.7214  -21.2744    5.3810 H   0  0  0  0  0  0
   10.0572  -21.7097    6.5311 H   0  0  0  0  0  0
    8.9613  -17.5361    4.0668 H   0  0  0  0  0  0
   10.8528  -16.0176    3.3726 H   0  0  0  0  0  0
   13.1552  -16.9275    3.2778 H   0  0  0  0  0  0
   13.7661  -18.9034    4.6812 H   0  0  0  0  0  0
    8.4693  -19.8902    5.5346 H   0  0  0  0  0  0
  1  2  1  0  0  0
  1 13  1  0  0  0
  1 14  1  0  0  0
  1 15  1  0  0  0
  2  3  1  0  0  0
  2 16  1  0  0  0
  2 17  1  0  0  0
  3  4  1  0  0  0
  3 18  1  0  0  0
  3 19  1  0  0  0
  4  5  2  0  0  0
  4  8  1  0  0  0
  5  6  1  0  0  0
  5 20  1  0  0  0
  6  7  1  0  0  0
  6 25  1  0  0  0
  7  8  2  0  0  0
  7  9  1  0  0  0
  8 12  1  0  0  0
  9 10  2  0  0  0
  9 21  1  0  0  0
 10 11  1  0  0  0
 10 22  1  0  0  0
 11 12  2  0  0  0
 11 23  1  0  0  0
 12 24  1  0  0  0
M  CHG  2   1   1   6   1
M  END
> <s_m_source_file>
../2pql_ligand.sdf

> <i_m_source_file_index>
1

> <s_epik_input>
W05IMytdW0NIMl1bQ0gyXWMoW2NIXVtuSF0xKWMoYzEyKVtjSF1bY0hdW2NIXVtjSF0y

> <s_epik_cmdline>
J2VwaWtfYXBwJywgJy1pbWFlJywgJ2xpZ2FuZF9wcm8ubWFlJywgJy1vbWFlJywgJ2xpZ2FuZF9wcmVwLm1hZScsICctbXMnLCAnMScsICctcGgnLCAnNycsICctcGh0JywgJzAuNScsICctbnQn

> <r_lp_tautomer_probability>
1

> <r_epik_Ionization_Penalty>
  0.0012

> <r_epik_Ionization_Penalty_Charging>
  0.0011

> <r_epik_Ionization_Penalty_Neutral>
  0.0000

> <r_epik_State_Penalty>
 -0.0000

> <r_epik_Charging_Adjusted_Penalty>
0.00114913690555984

> <i_epik_Tot_Q>
2

> <i_epik_Tot_abs_Q>
2

$$$$
