2pqz_ligand
                    3D
 Schrodinger Suite 2020-3.
 71 75  0  0  1  0            999 V2000
   11.2410  -22.8170  -17.3600 O   0  0  0  0  0  0
   11.1490  -22.5440  -18.7790 S   0  0  0  0  0  0
   11.4720  -20.8680  -19.0940 N   0  0  3  0  0  0
   10.9500  -20.3150  -20.3600 C   0  0  0  0  0  0
    9.6670  -19.4960  -20.2630 C   0  0  0  0  0  0
    8.6580  -19.7860  -19.3040 C   0  0  0  0  0  0
    7.4620  -19.0210  -19.2510 C   0  0  0  0  0  0
    7.2830  -17.9280  -20.1440 C   0  0  0  0  0  0
    8.2820  -17.6450  -21.1130 C   0  0  0  0  0  0
    9.4830  -18.3890  -21.1370 C   0  0  0  0  0  0
   12.3090  -20.1040  -18.1380 C   0  0  1  0  0  0
   13.6900  -19.7650  -18.7680 C   0  0  0  0  0  0
   13.9240  -18.3100  -18.6300 N   0  3  0  0  0  0
   12.6150  -17.6520  -18.3440 C   0  0  0  0  0  0
   11.7530  -18.7050  -17.6190 C   0  0  2  0  0  0
   12.0140  -18.7490  -16.1130 N   0  0  3  0  0  0
   10.6490  -19.0780  -15.1710 S   0  0  0  0  0  0
    9.8870  -20.2020  -15.7280 O   0  0  0  0  0  0
    9.6740  -17.6360  -15.0480 C   0  0  0  0  0  0
    8.3470  -17.6650  -15.5880 C   0  0  0  0  0  0
    7.4950  -16.5340  -15.4930 C   0  0  0  0  0  0
    7.9830  -15.3590  -14.8910 C   0  0  0  0  0  0
    9.2990  -15.3370  -14.3430 C   0  0  0  0  0  0
   10.1670  -16.4590  -14.4320 C   0  0  0  0  0  0
   11.0800  -19.1760  -13.7600 O   0  0  0  0  0  0
   13.3300  -18.5990  -15.4190 C   0  0  0  0  0  0
   14.1160  -19.9160  -15.2890 C   0  0  0  0  0  0
   13.4650  -21.1020  -14.8650 C   0  0  0  0  0  0
   14.2470  -22.2880  -14.7550 C   0  0  0  0  0  0
   15.6250  -22.3090  -15.1090 C   0  0  0  0  0  0
   16.3030  -21.1030  -15.4740 C   0  0  0  0  0  0
   15.5040  -19.9410  -15.6250 C   0  0  0  0  0  0
    9.9520  -22.9130  -19.5530 O   0  0  0  0  0  0
   12.5610  -23.1610  -19.6710 C   0  0  0  0  0  0
   13.7330  -23.5290  -18.9450 C   0  0  0  0  0  0
   14.9000  -23.9940  -19.6500 C   0  0  0  0  0  0
   14.8560  -24.0990  -21.0650 C   0  0  0  0  0  0
   13.6700  -23.7480  -21.7870 C   0  0  0  0  0  0
   12.5210  -23.3070  -21.0810 C   0  0  0  0  0  0
   11.7016  -19.6470  -20.8058 H   0  0  0  0  0  0
   10.7312  -21.1375  -21.0568 H   0  0  0  0  0  0
    8.8040  -20.6057  -18.6005 H   0  0  0  0  0  0
    6.6845  -19.2705  -18.5289 H   0  0  0  0  0  0
    6.3856  -17.3122  -20.0849 H   0  0  0  0  0  0
    8.1215  -16.8502  -21.8415 H   0  0  0  0  0  0
   10.2759  -18.1120  -21.8318 H   0  0  0  0  0  0
   12.3181  -20.8456  -17.3256 H   0  0  0  0  0  0
   14.4792  -20.3238  -18.2438 H   0  0  0  0  0  0
   13.6867  -20.0457  -19.8316 H   0  0  0  0  0  0
   14.6269  -18.1284  -17.8036 H   0  0  0  0  0  0
   14.3484  -17.9165  -19.5654 H   0  0  0  0  0  0
   12.7794  -16.7696  -17.7081 H   0  0  0  0  0  0
   12.1468  -17.3405  -19.2894 H   0  0  0  0  0  0
   10.6937  -18.4589  -17.7843 H   0  0  0  0  0  0
    7.9867  -18.5690  -16.0789 H   0  0  0  0  0  0
    6.4771  -16.5747  -15.8807 H   0  0  0  0  0  0
    7.3565  -14.4683  -14.8439 H   0  0  0  0  0  0
    9.6492  -14.4346  -13.8418 H   0  0  0  0  0  0
   11.1823  -16.4153  -14.0379 H   0  0  0  0  0  0
   13.9622  -17.8950  -15.9800 H   0  0  0  0  0  0
   13.1663  -18.2142  -14.4016 H   0  0  0  0  0  0
   12.4005  -21.1064  -14.6307 H   0  0  0  0  0  0
   13.7779  -23.2019  -14.3906 H   0  0  0  0  0  0
   16.1695  -23.2532  -15.1021 H   0  0  0  0  0  0
   17.3817  -21.0785  -15.6286 H   0  0  0  0  0  0
   15.9665  -19.0330  -16.0120 H   0  0  0  0  0  0
   13.7452  -23.4583  -17.8574 H   0  0  0  0  0  0
   15.8048  -24.2617  -19.1042 H   0  0  0  0  0  0
   15.7337  -24.4503  -21.6075 H   0  0  0  0  0  0
   13.6501  -23.8194  -22.8745 H   0  0  0  0  0  0
   11.6040  -23.0795  -21.6245 H   0  0  0  0  0  0
  1  2  2  0  0  0
  2  3  1  0  0  0
  2 33  2  0  0  0
  2 34  1  0  0  0
  3  4  1  0  0  0
  3 11  1  0  0  0
  4  5  1  0  0  0
  4 40  1  0  0  0
  4 41  1  0  0  0
  5  6  2  0  0  0
  5 10  1  0  0  0
  6  7  1  0  0  0
  6 42  1  0  0  0
  7  8  2  0  0  0
  7 43  1  0  0  0
  8  9  1  0  0  0
  8 44  1  0  0  0
  9 10  2  0  0  0
  9 45  1  0  0  0
 10 46  1  0  0  0
 11 12  1  0  0  0
 11 15  1  0  0  0
 11 47  1  0  0  0
 12 13  1  0  0  0
 12 48  1  0  0  0
 12 49  1  0  0  0
 13 14  1  0  0  0
 13 50  1  0  0  0
 13 51  1  0  0  0
 14 15  1  0  0  0
 14 52  1  0  0  0
 14 53  1  0  0  0
 15 16  1  0  0  0
 15 54  1  0  0  0
 16 17  1  0  0  0
 16 26  1  0  0  0
 17 18  2  0  0  0
 17 19  1  0  0  0
 17 25  2  0  0  0
 19 20  2  0  0  0
 19 24  1  0  0  0
 20 21  1  0  0  0
 20 55  1  0  0  0
 21 22  2  0  0  0
 21 56  1  0  0  0
 22 23  1  0  0  0
 22 57  1  0  0  0
 23 24  2  0  0  0
 23 58  1  0  0  0
 24 59  1  0  0  0
 26 27  1  0  0  0
 26 60  1  0  0  0
 26 61  1  0  0  0
 27 28  2  0  0  0
 27 32  1  0  0  0
 28 29  1  0  0  0
 28 62  1  0  0  0
 29 30  2  0  0  0
 29 63  1  0  0  0
 30 31  1  0  0  0
 30 64  1  0  0  0
 31 32  2  0  0  0
 31 65  1  0  0  0
 32 66  1  0  0  0
 34 35  2  0  0  0
 34 39  1  0  0  0
 35 36  1  0  0  0
 35 67  1  0  0  0
 36 37  2  0  0  0
 36 68  1  0  0  0
 37 38  1  0  0  0
 37 69  1  0  0  0
 38 39  2  0  0  0
 38 70  1  0  0  0
 39 71  1  0  0  0
M  CHG  1  13   1
M  END
> <s_m_source_file>
../2pqz_ligand.sdf

> <i_m_source_file_index>
1

> <s_epik_input>
W2NIXTFbY0hdW2NIXVtjSF1bY0hdYzFbQ0gyXU4oUyg9TykoPU8pYzJbY0hdW2NIXVtjSF1bY0hdW2NIXTIpW0NASF0zW0NIMl1bTkgyK11bQ0gyXVtDQEBIXTNOKFMoPU8pKD1PKWM0W2NIXVtjSF1bY0hdW2NIXVtjSF00KVtDSDJdYzVbY0hdW2NIXVtjSF1bY0hdW2NIXTU=

> <s_epik_cmdline>
J2VwaWtfYXBwJywgJy1pbWFlJywgJ2xpZ2FuZF9wcm8ubWFlJywgJy1vbWFlJywgJ2xpZ2FuZF9wcmVwLm1hZScsICctbXMnLCAnMScsICctcGgnLCAnNycsICctcGh0JywgJzAuNScsICctbnQn

> <r_lp_tautomer_probability>
1

> <r_epik_Ionization_Penalty>
  0.0072

> <r_epik_Ionization_Penalty_Charging>
  0.0072

> <r_epik_Ionization_Penalty_Neutral>
  0.0000

> <r_epik_State_Penalty>
 -0.0000

> <r_epik_Charging_Adjusted_Penalty>
0.00720179527267058

> <i_epik_Tot_Q>
1

> <i_epik_Tot_abs_Q>
1

$$$$
