2pr9_ligand
                    3D
 Schrodinger Suite 2020-3.
157158  0  0  1  0            999 V2000
  -43.6150   58.1020   30.6150 N   0  3  0  0  0  0
  -42.2090   57.6190   30.7260 C   0  0  2  0  0  0
  -42.0490   56.1850   30.2610 C   0  0  0  0  0  0
  -43.0340   55.5110   29.9550 O   0  0  0  0  0  0
  -41.7630   57.7130   32.1750 C   0  0  0  0  0  0
  -41.0920   59.0000   32.4780 C   0  0  0  0  0  0
  -41.7850   59.9480   32.8980 O   0  0  0  0  0  0
  -39.8650   59.0530   32.2740 O   0  0  0  0  0  0
  -40.7920   55.7290   30.2120 N   0  0  0  0  0  0
  -40.4370   54.3460   29.8310 C   0  0  2  0  0  0
  -39.0310   53.9650   30.4130 C   0  0  0  0  0  0
  -38.9670   53.6540   31.6090 O   0  0  0  0  0  0
  -40.6550   54.0990   28.3080 C   0  0  0  0  0  0
  -42.1860   54.1860   27.8840 C   0  0  0  0  0  0
  -42.5340   53.6990   26.4720 C   0  0  0  0  0  0
  -41.6160   53.3090   25.7150 O   0  0  0  0  0  0
  -43.7450   53.7050   26.1400 O   0  0  0  0  0  0
  -37.9730   53.8640   29.5760 N   0  0  0  0  0  0
  -36.5890   54.4920   29.7660 C   0  0  2  0  0  0
  -35.0840   53.9530   29.5260 C   0  0  0  0  0  0
  -34.1790   54.6190   30.0880 O   0  0  0  0  0  0
  -36.6140   55.7420   30.7190 C   0  0  0  0  0  0
  -37.0510   55.5740   32.1760 C   0  0  0  0  0  0
  -35.8810   55.3650   33.0990 C   0  0  0  0  0  0
  -35.8970   55.9380   34.2080 O   0  0  0  0  0  0
  -34.9340   54.6460   32.7000 O   0  0  0  0  0  0
  -34.7260   52.8970   28.7180 N   0  0  0  0  0  0
  -35.3910   51.5530   28.3440 C   0  0  2  0  0  0
  -34.2940   50.4640   27.8090 C   0  0  0  0  0  0
  -34.1230   49.3620   28.4230 O   0  0  0  0  0  0
  -36.6290   51.6430   27.4150 C   0  0  0  0  0  0
  -37.7510   50.7220   27.8660 C   0  0  0  0  0  0
  -37.9940   50.5170   29.2560 C   0  0  0  0  0  0
  -38.5860   50.0400   26.9510 C   0  0  0  0  0  0
  -39.0620   49.6460   29.7500 C   0  0  0  0  0  0
  -39.6560   49.1420   27.4400 C   0  0  0  0  0  0
  -39.8810   48.9590   28.8400 C   0  0  0  0  0  0
  -40.8930   48.1190   29.3530 O   0  0  0  0  0  0
  -33.5820   50.7340   26.6900 N   0  0  0  0  0  0
  -33.9940   51.7670   25.7380 C   0  0  0  0  0  0
  -33.1740   52.9690   25.9970 C   0  0  0  0  0  0
  -33.7090   54.0840   26.3550 O   0  0  0  0  0  0
  -31.8470   52.7190   25.9320 N   0  0  0  0  0  0
  -31.2490   51.4170   25.7050 C   0  0  2  0  0  0
  -30.3530   51.1400   26.8950 C   0  0  0  0  0  0
  -30.0130   52.0430   27.6770 O   0  0  0  0  0  0
  -30.3580   51.6320   24.4740 C   0  0  0  0  0  0
  -31.1680   51.5340   23.1690 C   0  0  0  0  0  0
  -31.2890   50.2970   22.5220 C   0  0  0  0  0  0
  -31.7510   52.6380   22.5570 C   0  0  0  0  0  0
  -32.0120   50.1610   21.3050 C   0  0  0  0  0  0
  -32.5130   52.4760   21.3330 C   0  0  0  0  0  0
  -32.6200   51.1870   20.7350 C   0  0  0  0  0  0
  -33.3610   50.8500   19.6080 O   0  0  0  0  0  0
  -29.9060   49.9080   27.0240 N   0  0  0  0  0  0
  -28.8290   49.5920   28.0310 C   0  0  2  0  0  0
  -27.4800   49.3950   27.3010 C   0  0  0  0  0  0
  -27.4460   48.9020   26.1690 O   0  0  0  0  0  0
  -29.0980   48.3330   28.8690 C   0  0  0  0  0  0
  -30.3650   48.3010   29.6840 C   0  0  0  0  0  0
  -30.4590   49.3720   30.8120 C   0  0  0  0  0  0
  -31.6040   49.7950   31.1310 O   0  0  0  0  0  0
  -29.4190   49.7900   31.3850 O   0  0  0  0  0  0
  -26.3900   49.7590   27.9560 N   0  0  0  0  0  0
  -25.0630   49.4790   27.4340 C   0  0  2  0  0  0
  -24.8550   47.9700   27.1150 C   0  0  0  0  0  0
  -25.3240   47.1200   27.8500 O   0  0  0  0  0  0
  -24.0770   50.0080   28.3990 C   0  0  0  0  0  0
  -22.4380   49.6370   27.7510 S   0  0  0  0  0  0
  -24.2330   47.6310   25.9810 N   0  0  0  0  0  0
  -23.9240   46.1980   25.7050 C   0  0  2  0  0  0
  -22.4030   45.9740   25.6830 C   0  0  0  0  0  0
  -21.7360   46.6560   24.9190 O   0  0  0  0  0  0
  -24.5110   45.7970   24.3680 C   0  0  0  0  0  0
  -24.0690   44.3970   23.9340 C   0  0  0  0  0  0
  -24.6070   43.2530   24.8190 C   0  0  0  0  0  0
  -24.4600   44.1950   22.4820 C   0  0  0  0  0  0
  -21.8340   45.1130   26.5160 N   0  0  0  0  0  0
  -20.3480   44.9910   26.5260 C   0  0  2  0  0  0
  -19.6690   44.6390   25.1990 C   0  0  0  0  0  0
  -20.0760   43.7060   24.4870 O   0  0  0  0  0  0
  -19.8160   44.0350   27.6030 C   0  0  0  0  0  0
  -19.9980   44.5760   28.9780 C   0  0  0  0  0  0
  -19.0220   44.5800   29.7410 O   0  0  0  0  0  0
  -21.1430   45.0020   29.2940 O   0  0  0  0  0  0
  -18.6430   45.2660   24.8760 O   0  0  0  0  0  0
  -43.9436   58.0362   29.5673 H   0  0  0  0  0  0
  -43.6712   59.1476   30.9520 H   0  0  0  0  0  0
  -44.2676   57.4785   31.2438 H   0  0  0  0  0  0
  -41.6070   58.2639   30.0690 H   0  0  0  0  0  0
  -42.6386   57.6232   32.8347 H   0  0  0  0  0  0
  -41.0541   56.9008   32.3939 H   0  0  0  0  0  0
  -41.3126   60.9138   33.1306 H   0  0  0  0  0  0
  -40.0014   56.4471   30.4754 H   0  0  0  0  0  0
  -41.1665   53.6848   30.3214 H   0  0  0  0  0  0
  -40.1025   54.8553   27.7311 H   0  0  0  0  0  0
  -40.2888   53.0961   28.0431 H   0  0  0  0  0  0
  -42.7917   53.5757   28.5700 H   0  0  0  0  0  0
  -42.5208   55.2327   27.9317 H   0  0  0  0  0  0
  -44.0420   53.3644   25.1371 H   0  0  0  0  0  0
  -38.1838   53.2572   28.6830 H   0  0  0  0  0  0
  -36.7852   54.3224   28.6970 H   0  0  0  0  0  0
  -35.6032   56.1703   30.7885 H   0  0  0  0  0  0
  -37.3051   56.4968   30.3157 H   0  0  0  0  0  0
  -37.5884   56.4760   32.5039 H   0  0  0  0  0  0
  -37.7143   54.7006   32.2615 H   0  0  0  0  0  0
  -34.0634   54.4727   33.3497 H   0  0  0  0  0  0
  -33.7454   53.1618   28.2956 H   0  0  0  0  0  0
  -35.8493   51.2512   29.2974 H   0  0  0  0  0  0
  -37.0121   52.6741   27.4136 H   0  0  0  0  0  0
  -36.3416   51.3572   26.3924 H   0  0  0  0  0  0
  -37.3595   51.0290   29.9794 H   0  0  0  0  0  0
  -38.4408   50.1764   25.8794 H   0  0  0  0  0  0
  -39.2210   49.5311   30.8222 H   0  0  0  0  0  0
  -40.2819   48.6122   26.7220 H   0  0  0  0  0  0
  -41.0224   48.0146   30.4404 H   0  0  0  0  0  0
  -32.6684   50.1496   26.5062 H   0  0  0  0  0  0
  -33.8305   51.4061   24.7118 H   0  0  0  0  0  0
  -35.0609   51.9934   25.8815 H   0  0  0  0  0  0
  -31.2060   53.6026   26.0676 H   0  0  0  0  0  0
  -32.0059   50.6276   25.5866 H   0  0  0  0  0  0
  -29.8976   52.6297   24.5244 H   0  0  0  0  0  0
  -29.5697   50.8651   24.4534 H   0  0  0  0  0  0
  -30.8178   49.4181   22.9620 H   0  0  0  0  0  0
  -31.6352   53.6280   22.9981 H   0  0  0  0  0  0
  -32.0664   49.1822   20.8284 H   0  0  0  0  0  0
  -33.0009   53.3355   20.8734 H   0  0  0  0  0  0
  -33.3632   49.8130   19.2411 H   0  0  0  0  0  0
  -30.3214   49.1080   26.3936 H   0  0  0  0  0  0
  -28.8313   50.4557   28.7121 H   0  0  0  0  0  0
  -29.1549   47.4568   28.2064 H   0  0  0  0  0  0
  -28.2816   48.1930   29.5928 H   0  0  0  0  0  0
  -31.2296   48.4661   29.0243 H   0  0  0  0  0  0
  -30.4604   47.3214   30.1752 H   0  0  0  0  0  0
  -31.7101   50.5511   31.9228 H   0  0  0  0  0  0
  -26.5039   50.2844   28.9156 H   0  0  0  0  0  0
  -24.9561   50.0418   26.4949 H   0  0  0  0  0  0
  -24.2131   51.0945   28.5039 H   0  0  0  0  0  0
  -24.2239   49.5241   29.3758 H   0  0  0  0  0  0
  -21.5426   49.9424   28.3122 H   0  0  0  0  0  0
  -23.9493   48.4050   25.2527 H   0  0  0  0  0  0
  -24.3858   45.6010   26.5052 H   0  0  0  0  0  0
  -25.6090   45.8019   24.4334 H   0  0  0  0  0  0
  -24.1865   46.5105   23.5962 H   0  0  0  0  0  0
  -22.9750   44.3539   24.0401 H   0  0  0  0  0  0
  -24.3087   43.4262   25.8635 H   0  0  0  0  0  0
  -24.1913   42.2952   24.4729 H   0  0  0  0  0  0
  -25.7045   43.2222   24.7514 H   0  0  0  0  0  0
  -24.0637   45.0237   21.8769 H   0  0  0  0  0  0
  -25.5565   44.1710   22.3975 H   0  0  0  0  0  0
  -24.0433   43.2439   22.1190 H   0  0  0  0  0  0
  -22.4412   44.4941   27.1929 H   0  0  0  0  0  0
  -20.1050   46.0389   26.7557 H   0  0  0  0  0  0
  -20.3525   43.0768   27.5401 H   0  0  0  0  0  0
  -18.7411   43.8645   27.4434 H   0  0  0  0  0  0
  -21.3197   45.4098   30.3002 H   0  0  0  0  0  0
  -18.1330   45.0358   23.9289 H   0  0  0  0  0  0
  1  2  1  0  0  0
  1 87  1  0  0  0
  1 88  1  0  0  0
  1 89  1  0  0  0
  2  3  1  0  0  0
  2  5  1  0  0  0
  2 90  1  0  0  0
  3  4  2  0  0  0
  3  9  1  0  0  0
  5  6  1  0  0  0
  5 91  1  0  0  0
  5 92  1  0  0  0
  6  7  1  0  0  0
  6  8  2  0  0  0
  7 93  1  0  0  0
  9 10  1  0  0  0
  9 94  1  0  0  0
 10 11  1  0  0  0
 10 13  1  0  0  0
 10 95  1  0  0  0
 11 12  2  0  0  0
 11 18  1  0  0  0
 13 14  1  0  0  0
 13 96  1  0  0  0
 13 97  1  0  0  0
 14 15  1  0  0  0
 14 98  1  0  0  0
 14 99  1  0  0  0
 15 16  2  0  0  0
 15 17  1  0  0  0
 17100  1  0  0  0
 18 19  1  0  0  0
 18101  1  0  0  0
 19 20  1  0  0  0
 19 22  1  0  0  0
 19102  1  0  0  0
 20 21  2  0  0  0
 20 27  1  0  0  0
 22 23  1  0  0  0
 22103  1  0  0  0
 22104  1  0  0  0
 23 24  1  0  0  0
 23105  1  0  0  0
 23106  1  0  0  0
 24 25  2  0  0  0
 24 26  1  0  0  0
 26107  1  0  0  0
 27 28  1  0  0  0
 27108  1  0  0  0
 28 29  1  0  0  0
 28 31  1  0  0  0
 28109  1  0  0  0
 29 30  2  0  0  0
 29 39  1  0  0  0
 31 32  1  0  0  0
 31110  1  0  0  0
 31111  1  0  0  0
 32 33  2  0  0  0
 32 34  1  0  0  0
 33 35  1  0  0  0
 33112  1  0  0  0
 34 36  2  0  0  0
 34113  1  0  0  0
 35 37  2  0  0  0
 35114  1  0  0  0
 36 37  1  0  0  0
 36115  1  0  0  0
 37 38  1  0  0  0
 38116  1  0  0  0
 39 40  1  0  0  0
 39117  1  0  0  0
 40 41  1  0  0  0
 40118  1  0  0  0
 40119  1  0  0  0
 41 42  2  0  0  0
 41 43  1  0  0  0
 43 44  1  0  0  0
 43120  1  0  0  0
 44 45  1  0  0  0
 44 47  1  0  0  0
 44121  1  0  0  0
 45 46  2  0  0  0
 45 55  1  0  0  0
 47 48  1  0  0  0
 47122  1  0  0  0
 47123  1  0  0  0
 48 49  2  0  0  0
 48 50  1  0  0  0
 49 51  1  0  0  0
 49124  1  0  0  0
 50 52  2  0  0  0
 50125  1  0  0  0
 51 53  2  0  0  0
 51126  1  0  0  0
 52 53  1  0  0  0
 52127  1  0  0  0
 53 54  1  0  0  0
 54128  1  0  0  0
 55 56  1  0  0  0
 55129  1  0  0  0
 56 57  1  0  0  0
 56 59  1  0  0  0
 56130  1  0  0  0
 57 58  2  0  0  0
 57 64  1  0  0  0
 59 60  1  0  0  0
 59131  1  0  0  0
 59132  1  0  0  0
 60 61  1  0  0  0
 60133  1  0  0  0
 60134  1  0  0  0
 61 62  1  0  0  0
 61 63  2  0  0  0
 62135  1  0  0  0
 64 65  1  0  0  0
 64136  1  0  0  0
 65 66  1  0  0  0
 65 68  1  0  0  0
 65137  1  0  0  0
 66 67  2  0  0  0
 66 70  1  0  0  0
 68 69  1  0  0  0
 68138  1  0  0  0
 68139  1  0  0  0
 69140  1  0  0  0
 70 71  1  0  0  0
 70141  1  0  0  0
 71 72  1  0  0  0
 71 74  1  0  0  0
 71142  1  0  0  0
 72 73  2  0  0  0
 72 78  1  0  0  0
 74 75  1  0  0  0
 74143  1  0  0  0
 74144  1  0  0  0
 75 76  1  0  0  0
 75 77  1  0  0  0
 75145  1  0  0  0
 76146  1  0  0  0
 76147  1  0  0  0
 76148  1  0  0  0
 77149  1  0  0  0
 77150  1  0  0  0
 77151  1  0  0  0
 78 79  1  0  0  0
 78152  1  0  0  0
 79 80  1  0  0  0
 79 82  1  0  0  0
 79153  1  0  0  0
 80 81  2  0  0  0
 80 86  1  0  0  0
 82 83  1  0  0  0
 82154  1  0  0  0
 82155  1  0  0  0
 83 84  2  0  0  0
 83 85  1  0  0  0
 85156  1  0  0  0
 86157  1  0  0  0
M  CHG  1   1   1
M  END
> <s_m_source_file>
../2pr9_ligand.sdf

> <i_m_source_file_index>
1

> <s_epik_input>
W09IXUMoPU8pW0NIMl1bQ0BIXShbTkgzK10pQyg9TylbTkhdW0NAQEhdKFtDSDJdW0NIMl1DKD1PKVtPSF0pQyg9TylbTkhdW0NAQEhdKFtDSDJdW0NIMl1DKD1PKVtPSF0pQyg9TylbTkhdW0NAQEhdKFtDSDJdYzFbY0hdW2NIXWMoW09IXSlbY0hdW2NIXTEpQyg9TylbTkhdW0NIMl1DKD1PKVtOSF1bQ0BASF0oW0NIMl1jMltjSF1bY0hdYyhbT0hdKVtjSF1bY0hdMilDKD1PKVtOSF1bQ0BASF0oW0NIMl1bQ0gyXUMoPU8pW09IXSlDKD1PKVtOSF1bQ0BASF0oW0NIMl1bU0hdKUMoPU8pW05IXVtDQEBIXShbQ0gyXVtDSF0oW0NIM10pW0NIM10pQyg9TylbTkhdW0NASF0oQyg9TylbT0hdKVtDSDJdQyg9TylbT0hd

> <s_epik_cmdline>
J2VwaWtfYXBwJywgJy1pbWFlJywgJ2xpZ2FuZF9wcm8ubWFlJywgJy1vbWFlJywgJ2xpZ2FuZF9wcmVwLm1hZScsICctbXMnLCAnMScsICctcGgnLCAnNycsICctcGh0JywgJzAuNScsICctbnQn

> <s_epik_pKa_notes>
Molecule size exceeds maximum supported for generating protonation states

$$$$
