2pre_ligand
                    3D
 Schrodinger Suite 2020-3.
 54 53  0  0  1  0            999 V2000
   16.8060   26.6230   12.0630 C   0  0  0  0  0  0
   17.4930   27.6640   12.4120 O   0  5  0  0  0  0
   17.1130   25.4960   12.4390 O   0  0  0  0  0  0
   15.6140   26.8210   11.1760 C   0  0  0  0  0  0
   15.3140   25.5940   10.3210 C   0  0  2  0  0  0
   16.2680   24.7250    9.7030 O   0  0  0  0  0  0
   13.8810   25.6050    9.8470 C   0  0  0  0  0  0
   12.9610   25.2760   10.5930 O   0  0  0  0  0  0
   13.6900   26.0030    8.6000 N   0  0  0  0  0  0
   12.4510   26.6520    8.2290 C   0  0  1  0  0  0
   12.6680   28.1520    8.0500 C   0  0  0  0  0  0
   11.5810   29.0720    8.6150 C   0  0  0  0  0  0
   10.5120   29.2880    7.5630 C   0  0  0  0  0  0
   10.9800   28.4700    9.8770 C   0  0  0  0  0  0
   11.9260   26.0530    6.9490 C   0  0  0  0  0  0
   11.0370   26.6150    6.3170 O   0  0  0  0  0  0
   12.4790   24.9040    6.5700 N   0  0  0  0  0  0
   11.8390   23.9430    5.6730 C   0  0  0  0  0  0
   11.7730   22.5430    6.2700 C   0  0  0  0  0  0
   10.8550   21.6420    5.4510 C   0  0  0  0  0  0
   10.5820   20.3190    6.1540 C   0  0  0  0  0  0
   10.7940   19.1770    5.2690 N   0  0  0  0  0  0
    9.8640   18.6710    4.4640 C   0  0  0  0  0  0
    9.2820   17.5230    4.7940 N   0  3  0  0  0  0
    9.4990   19.2770    3.3360 N   0  0  0  0  0  0
   14.7279   27.0290   11.7937 H   0  0  0  0  0  0
   15.7969   27.6692   10.4999 H   0  0  0  0  0  0
   15.7297   24.7371   10.8714 H   0  0  0  0  0  0
   17.3118   24.7186   10.0500 H   0  0  0  0  0  0
   14.4733   25.8405    7.8450 H   0  0  0  0  0  0
   11.7466   26.4613    9.0521 H   0  0  0  0  0  0
   13.6024   28.4493    8.5485 H   0  0  0  0  0  0
   12.7336   28.3876    6.9775 H   0  0  0  0  0  0
   12.0162   30.0469    8.8800 H   0  0  0  0  0  0
   10.9676   29.7229    6.6612 H   0  0  0  0  0  0
    9.7460   29.9738    7.9541 H   0  0  0  0  0  0
   10.0464   28.3240    7.3101 H   0  0  0  0  0  0
   11.7721   28.3220   10.6258 H   0  0  0  0  0  0
   10.5169   27.5016    9.6367 H   0  0  0  0  0  0
   10.2166   29.1514   10.2806 H   0  0  0  0  0  0
   13.4802   24.6957    6.9753 H   0  0  0  0  0  0
   10.8104   24.2693    5.4598 H   0  0  0  0  0  0
   12.4073   23.8841    4.7330 H   0  0  0  0  0  0
   12.7806   22.1018    6.2824 H   0  0  0  0  0  0
   11.3852   22.6005    7.2978 H   0  0  0  0  0  0
    9.8931   22.1499    5.2878 H   0  0  0  0  0  0
   11.3246   21.4254    4.4802 H   0  0  0  0  0  0
   11.2571   20.2159    7.0164 H   0  0  0  0  0  0
    9.5383   20.2965    6.5006 H   0  0  0  0  0  0
   11.7739   18.6780    5.2401 H   0  0  0  0  0  0
    9.5699   17.0072    5.7219 H   0  0  0  0  0  0
    9.9692   20.2281    3.0456 H   0  0  0  0  0  0
    8.7273   18.8265    2.6945 H   0  0  0  0  0  0
    8.5122   17.0885    4.1393 H   0  0  0  0  0  0
  1  2  1  0  0  0
  1  3  2  0  0  0
  1  4  1  0  0  0
  4  5  1  0  0  0
  4 26  1  0  0  0
  4 27  1  0  0  0
  5  6  1  0  0  0
  5  7  1  0  0  0
  5 28  1  0  0  0
  6 29  1  0  0  0
  7  8  2  0  0  0
  7  9  1  0  0  0
  9 10  1  0  0  0
  9 30  1  0  0  0
 10 11  1  0  0  0
 10 15  1  0  0  0
 10 31  1  0  0  0
 11 12  1  0  0  0
 11 32  1  0  0  0
 11 33  1  0  0  0
 12 13  1  0  0  0
 12 14  1  0  0  0
 12 34  1  0  0  0
 13 35  1  0  0  0
 13 36  1  0  0  0
 13 37  1  0  0  0
 14 38  1  0  0  0
 14 39  1  0  0  0
 14 40  1  0  0  0
 15 16  2  0  0  0
 15 17  1  0  0  0
 17 18  1  0  0  0
 17 41  1  0  0  0
 18 19  1  0  0  0
 18 42  1  0  0  0
 18 43  1  0  0  0
 19 20  1  0  0  0
 19 44  1  0  0  0
 19 45  1  0  0  0
 20 21  1  0  0  0
 20 46  1  0  0  0
 20 47  1  0  0  0
 21 22  1  0  0  0
 21 48  1  0  0  0
 21 49  1  0  0  0
 22 23  1  0  0  0
 22 50  1  0  0  0
 23 24  2  0  0  0
 23 25  1  0  0  0
 24 51  1  0  0  0
 24 54  1  0  0  0
 25 52  1  0  0  0
 25 53  1  0  0  0
M  CHG  2   2  -1  24   1
M  END
> <s_m_source_file>
../2pre_ligand.sdf

> <i_m_source_file_index>
1

> <s_epik_input>
W09IXUMoPU8pW0NIMl1bQ0BIXShbT0hdKUMoPU8pW05IXVtDQEBIXShbQ0gyXVtDSF0oW0NIM10pW0NIM10pQyg9TylbTkhdW0NIMl1bQ0gyXVtDSDJdW0NIMl1bTkhdL0MoPU5cW0hdKVtOSDJd

> <s_epik_cmdline>
J2VwaWtfYXBwJywgJy1pbWFlJywgJ2xpZ2FuZF9wcm8ubWFlJywgJy1vbWFlJywgJ2xpZ2FuZF9wcmVwLm1hZScsICctbXMnLCAnMScsICctcGgnLCAnNycsICctcGh0JywgJzAuNScsICctbnQn

> <r_lp_tautomer_probability>
1

> <r_epik_Ionization_Penalty>
  0.0056

> <r_epik_Ionization_Penalty_Charging>
  0.0056

> <r_epik_Ionization_Penalty_Neutral>
  0.0000

> <r_epik_State_Penalty>
 -0.0000

> <r_epik_Charging_Adjusted_Penalty>
0.00564749306387142

> <i_epik_Tot_Q>
0

> <i_epik_Tot_abs_Q>
2

> <s_epik_Chemistry_Notes>
This compound has an imine and may undergo hydrolysis.

$$$$
