2psv_ligand
                    3D
 Schrodinger Suite 2020-3.
 64 66  0  0  1  0            999 V2000
   23.6790   25.1250   11.5560 O   0  0  0  0  0  0
   22.9250   25.7410   10.8070 C   0  0  0  0  0  0
   22.9470   25.5900    9.4790 N   0  0  0  0  0  0
   23.8490   24.6740    8.8030 C   0  0  0  0  0  0
   21.9070   26.6880   11.4080 C   0  0  0  0  0  0
   22.6170   27.7090   12.2780 C   0  0  0  0  0  0
   21.5230   28.6390   12.7800 C   0  0  0  0  0  0
   21.3950   29.7300   12.2460 O   0  0  0  0  0  0
   20.7320   28.2140   13.7660 N   0  0  0  0  0  0
   19.6360   28.9880   14.3450 C   0  0  1  0  0  0
   18.3700   28.1310   14.2540 C   0  0  0  0  0  0
   18.1040   27.7700   12.7980 C   0  0  0  0  0  0
   17.5650   28.7160   11.9310 C   0  0  0  0  0  0
   17.3200   28.3920   10.5950 C   0  0  0  0  0  0
   17.6200   27.1180   10.1230 C   0  0  0  0  0  0
   18.1490   26.1710   10.9900 C   0  0  0  0  0  0
   18.3920   26.4970   12.3180 C   0  0  0  0  0  0
   20.0070   29.3580   15.7910 C   0  0  2  0  0  0
   20.0510   28.1880   16.6180 O   0  0  0  0  0  0
   19.0580   30.4050   16.3950 C   0  0  0  0  0  0
   19.3530   31.6990   15.7310 N   0  0  2  0  0  0
   20.0950   32.6440   16.5880 C   0  0  0  0  0  0
   21.5440   32.1580   16.6800 C   0  0  0  0  0  0
   22.4220   32.3340   15.4410 C   0  0  0  0  0  0
   22.6320   33.2310   16.6520 C   0  0  0  0  0  0
   18.0870   32.3400   14.9480 S   0  0  0  0  0  0
   18.6330   33.3030   14.0350 O   0  0  0  0  0  0
   17.4160   31.2880   14.2590 O   0  0  0  0  0  0
   16.9610   33.1090   15.9000 C   0  0  0  0  0  0
   16.7390   34.4600   15.9210 O   0  0  0  0  0  0
   15.6930   34.6580   16.8190 C   0  0  0  0  0  0
   15.2890   33.4230   17.3250 C   0  0  0  0  0  0
   16.1050   32.4180   16.7070 C   0  0  0  0  0  0
   22.2407   26.1980    8.8946 H   0  0  0  0  0  0
   23.6797   24.7270    7.7174 H   0  0  0  0  0  0
   23.6609   23.6485    9.1538 H   0  0  0  0  0  0
   24.8895   24.9528    9.0259 H   0  0  0  0  0  0
   21.3671   27.2058   10.6016 H   0  0  0  0  0  0
   21.1927   26.1181   12.0204 H   0  0  0  0  0  0
   23.1220   27.1948   13.1090 H   0  0  0  0  0  0
   23.3612   28.2501   11.6753 H   0  0  0  0  0  0
   20.9517   27.2044   14.1434 H   0  0  0  0  0  0
   19.4880   29.9163   13.7737 H   0  0  0  0  0  0
   18.5073   27.2106   14.8406 H   0  0  0  0  0  0
   17.5151   28.6962   14.6535 H   0  0  0  0  0  0
   17.3327   29.7160   12.2972 H   0  0  0  0  0  0
   16.8941   29.1366    9.9224 H   0  0  0  0  0  0
   17.4407   26.8646    9.0781 H   0  0  0  0  0  0
   18.3743   25.1682   10.6270 H   0  0  0  0  0  0
   18.8121   25.7485   12.9899 H   0  0  0  0  0  0
   21.0330   29.7544   15.8031 H   0  0  0  0  0  0
   20.6846   27.3356   16.3317 H   0  0  0  0  0  0
   18.0159   30.1045   16.2115 H   0  0  0  0  0  0
   19.2334   30.4771   17.4785 H   0  0  0  0  0  0
   20.0581   33.6492   16.1428 H   0  0  0  0  0  0
   19.6376   32.6689   17.5881 H   0  0  0  0  0  0
   21.2928   31.3149   17.3404 H   0  0  0  0  0  0
   22.9688   31.4002   15.2434 H   0  0  0  0  0  0
   21.7894   32.5787   14.5750 H   0  0  0  0  0  0
   22.1741   34.2213   16.7923 H   0  0  0  0  0  0
   23.3535   33.0428   17.4607 H   0  0  0  0  0  0
   15.2600   35.6227   17.0836 H   0  0  0  0  0  0
   14.4984   33.2526   18.0558 H   0  0  0  0  0  0
   16.0526   31.3388   16.8507 H   0  0  0  0  0  0
  1  2  2  0  0  0
  2  3  1  0  0  0
  2  5  1  0  0  0
  3  4  1  0  0  0
  3 34  1  0  0  0
  4 35  1  0  0  0
  4 36  1  0  0  0
  4 37  1  0  0  0
  5  6  1  0  0  0
  5 38  1  0  0  0
  5 39  1  0  0  0
  6  7  1  0  0  0
  6 40  1  0  0  0
  6 41  1  0  0  0
  7  8  2  0  0  0
  7  9  1  0  0  0
  9 10  1  0  0  0
  9 42  1  0  0  0
 10 11  1  0  0  0
 10 18  1  0  0  0
 10 43  1  0  0  0
 11 12  1  0  0  0
 11 44  1  0  0  0
 11 45  1  0  0  0
 12 13  2  0  0  0
 12 17  1  0  0  0
 13 14  1  0  0  0
 13 46  1  0  0  0
 14 15  2  0  0  0
 14 47  1  0  0  0
 15 16  1  0  0  0
 15 48  1  0  0  0
 16 17  2  0  0  0
 16 49  1  0  0  0
 17 50  1  0  0  0
 18 19  1  0  0  0
 18 20  1  0  0  0
 18 51  1  0  0  0
 19 52  1  0  0  0
 20 21  1  0  0  0
 20 53  1  0  0  0
 20 54  1  0  0  0
 21 22  1  0  0  0
 21 26  1  0  0  0
 22 23  1  0  0  0
 22 55  1  0  0  0
 22 56  1  0  0  0
 23 24  1  0  0  0
 23 25  1  0  0  0
 23 57  1  0  0  0
 24 25  1  0  0  0
 24 58  1  0  0  0
 24 59  1  0  0  0
 25 60  1  0  0  0
 25 61  1  0  0  0
 26 27  2  0  0  0
 26 28  2  0  0  0
 26 29  1  0  0  0
 29 30  1  0  0  0
 29 33  2  0  0  0
 30 31  1  0  0  0
 31 32  2  0  0  0
 31 62  1  0  0  0
 32 33  1  0  0  0
 32 63  1  0  0  0
 33 64  1  0  0  0
M  END
> <s_m_source_file>
../2psv_ligand.sdf

> <i_m_source_file_index>
1

> <s_epik_input>
W0NIM11bTkhdQyg9TylbQ0gyXVtDSDJdQyg9TylbTkhdW0NAQEhdKFtDSDJdYzFbY0hdW2NIXVtjSF1bY0hdW2NIXTEpW0NASF0oW09IXSlbQ0gyXU4oW0NIMl1bQ0hdMltDSDJdW0NIMl0yKVMoPU8pKD1PKWMzb1tjSF1bY0hdW2NIXTM=

> <s_epik_cmdline>
J2VwaWtfYXBwJywgJy1pbWFlJywgJ2xpZ2FuZF9wcm8ubWFlJywgJy1vbWFlJywgJ2xpZ2FuZF9wcmVwLm1hZScsICctbXMnLCAnMScsICctcGgnLCAnNycsICctcGh0JywgJzAuNScsICctbnQn

> <r_lp_tautomer_probability>
1

> <r_epik_Ionization_Penalty>
  0.0000

> <r_epik_Ionization_Penalty_Charging>
  0.0000

> <r_epik_Ionization_Penalty_Neutral>
  0.0000

> <r_epik_State_Penalty>
 -0.0000

> <r_epik_Charging_Adjusted_Penalty>
0

> <i_epik_Tot_Q>
0

> <i_epik_Tot_abs_Q>
0

$$$$
