2psx_ligand
                    3D
 Schrodinger Suite 2020-3.
 65 64  0  0  1  0            999 V2000
    2.8550   -1.3130   21.4000 N   0  3  0  0  0  0
    2.9100   -2.7570   21.1130 C   0  0  2  0  0  0
    4.3580   -3.2230   20.9540 C   0  0  0  0  0  0
    5.2260   -2.4800   20.4840 O   0  0  0  0  0  0
    2.1870   -3.0370   19.7960 C   0  0  0  0  0  0
    0.6750   -2.9590   20.0030 C   0  0  0  0  0  0
   -0.0490   -3.1810   18.6740 C   0  0  0  0  0  0
    0.2310   -4.0020   21.0310 C   0  0  0  0  0  0
    4.5710   -4.4730   21.3310 N   0  0  0  0  0  0
    5.8980   -5.1050   21.2260 C   0  0  2  0  0  0
    6.1780   -5.3780   19.7460 C   0  0  0  0  0  0
    5.2780   -5.7270   18.9860 O   0  0  0  0  0  0
    5.9180   -6.4240   21.9990 C   0  0  0  0  0  0
    5.7310   -6.1620   23.4960 C   0  0  0  0  0  0
    5.6630   -7.4860   24.2600 C   0  0  0  0  0  0
    6.8630   -5.2930   24.0480 C   0  0  0  0  0  0
    7.4380   -5.1940   19.3680 N   0  0  0  0  0  0
    7.8590   -5.4130   17.9760 C   0  0  2  0  0  0
    8.7990   -6.6180   17.9210 C   0  0  0  0  0  0
    9.1730   -6.8680   16.5640 O   0  0  0  0  0  0
    8.5640   -4.1550   17.4660 C   0  0  0  0  0  0
    7.5850   -2.9800   17.4350 C   0  0  0  0  0  0
    8.2640   -1.6860   16.9860 C   0  0  0  0  0  0
    7.2340   -0.6480   16.8260 N   0  0  0  0  0  0
    7.5540    0.6020   16.5150 C   0  0  0  0  0  0
    6.5920    1.5040   16.3410 N   0  3  0  0  0  0
    8.8280    0.9530   16.3470 N   0  0  0  0  0  0
    3.3745   -1.1075   22.3475 H   0  0  0  0  0  0
    1.8051   -0.9950   21.4810 H   0  0  0  0  0  0
    3.3443   -0.7584   20.5857 H   0  0  0  0  0  0
    2.4292   -3.2579   21.9662 H   0  0  0  0  0  0
    2.4886   -2.2907   19.0463 H   0  0  0  0  0  0
    2.4519   -4.0431   19.4389 H   0  0  0  0  0  0
    0.4187   -1.9585   20.3815 H   0  0  0  0  0  0
    0.2802   -2.4246   17.9463 H   0  0  0  0  0  0
   -1.1345   -3.0930   18.8287 H   0  0  0  0  0  0
    0.1867   -4.1850   18.2913 H   0  0  0  0  0  0
    0.7596   -3.8295   21.9801 H   0  0  0  0  0  0
    0.4677   -5.0091   20.6572 H   0  0  0  0  0  0
   -0.8535   -3.9171   21.1946 H   0  0  0  0  0  0
    3.7205   -5.0432   21.7327 H   0  0  0  0  0  0
    6.6367   -4.4145   21.6590 H   0  0  0  0  0  0
    5.1029   -7.0706   21.6419 H   0  0  0  0  0  0
    6.8826   -6.9280   21.8393 H   0  0  0  0  0  0
    4.7841   -5.6193   23.6330 H   0  0  0  0  0  0
    4.8464   -8.1016   23.8548 H   0  0  0  0  0  0
    5.4770   -7.2854   25.3254 H   0  0  0  0  0  0
    6.6167   -8.0228   24.1490 H   0  0  0  0  0  0
    6.9021   -4.3449   23.4916 H   0  0  0  0  0  0
    7.8202   -5.8234   23.9364 H   0  0  0  0  0  0
    6.6805   -5.0860   25.1128 H   0  0  0  0  0  0
    8.1726   -4.8712   20.1205 H   0  0  0  0  0  0
    6.9626   -5.6122   17.3704 H   0  0  0  0  0  0
    9.1881   -7.2590   18.7258 H   0  0  0  0  0  0
    9.4028   -3.9086   18.1336 H   0  0  0  0  0  0
    8.9448   -4.3346   16.4498 H   0  0  0  0  0  0
    6.7676   -3.2022   16.7332 H   0  0  0  0  0  0
    7.1709   -2.8211   18.4416 H   0  0  0  0  0  0
    8.9963   -1.3737   17.7451 H   0  0  0  0  0  0
    8.7781   -1.8548   16.0283 H   0  0  0  0  0  0
    6.1724   -0.9006   16.9645 H   0  0  0  0  0  0
    5.5387    1.2183   16.4787 H   0  0  0  0  0  0
    9.6266    0.2102   16.4899 H   0  0  0  0  0  0
    9.0814    1.9857   16.0654 H   0  0  0  0  0  0
    6.8497    2.5356   16.0594 H   0  0  0  0  0  0
  1  2  1  0  0  0
  1 28  1  0  0  0
  1 29  1  0  0  0
  1 30  1  0  0  0
  2  3  1  0  0  0
  2  5  1  0  0  0
  2 31  1  0  0  0
  3  4  2  0  0  0
  3  9  1  0  0  0
  5  6  1  0  0  0
  5 32  1  0  0  0
  5 33  1  0  0  0
  6  7  1  0  0  0
  6  8  1  0  0  0
  6 34  1  0  0  0
  7 35  1  0  0  0
  7 36  1  0  0  0
  7 37  1  0  0  0
  8 38  1  0  0  0
  8 39  1  0  0  0
  8 40  1  0  0  0
  9 10  1  0  0  0
  9 41  1  0  0  0
 10 11  1  0  0  0
 10 13  1  0  0  0
 10 42  1  0  0  0
 11 12  2  0  0  0
 11 17  1  0  0  0
 13 14  1  0  0  0
 13 43  1  0  0  0
 13 44  1  0  0  0
 14 15  1  0  0  0
 14 16  1  0  0  0
 14 45  1  0  0  0
 15 46  1  0  0  0
 15 47  1  0  0  0
 15 48  1  0  0  0
 16 49  1  0  0  0
 16 50  1  0  0  0
 16 51  1  0  0  0
 17 18  1  0  0  0
 17 52  1  0  0  0
 18 19  1  0  0  0
 18 21  1  0  0  0
 18 53  1  0  0  0
 19 20  2  0  0  0
 19 54  1  0  0  0
 21 22  1  0  0  0
 21 55  1  0  0  0
 21 56  1  0  0  0
 22 23  1  0  0  0
 22 57  1  0  0  0
 22 58  1  0  0  0
 23 24  1  0  0  0
 23 59  1  0  0  0
 23 60  1  0  0  0
 24 25  1  0  0  0
 24 61  1  0  0  0
 25 26  2  0  0  0
 25 27  1  0  0  0
 26 62  1  0  0  0
 26 65  1  0  0  0
 27 63  1  0  0  0
 27 64  1  0  0  0
M  CHG  2   1   1  26   1
M  END
> <s_m_source_file>
../2psx_ligand.sdf

> <i_m_source_file_index>
1

> <s_epik_input>
W0NIM11bQ0hdKFtDSDNdKVtDSDJdW0NASF0oW05IMytdKUMoPU8pW05IXVtDQEBIXShbQ0gyXVtDSF0oW0NIM10pW0NIM10pQyg9TylbTkhdW0NASF0oW0NIXT1PKVtDSDJdW0NIMl1bQ0gyXVtOSF0vQyg9TlxbSF0pW05IMl0=

> <s_epik_cmdline>
J2VwaWtfYXBwJywgJy1pbWFlJywgJ2xpZ2FuZF9wcm8ubWFlJywgJy1vbWFlJywgJ2xpZ2FuZF9wcmVwLm1hZScsICctbXMnLCAnMScsICctcGgnLCAnNycsICctcGh0JywgJzAuNScsICctbnQn

> <r_lp_tautomer_probability>
0.99990000499975

> <r_epik_Ionization_Penalty>
  0.0877

> <r_epik_Ionization_Penalty_Charging>
  0.0875

> <r_epik_Ionization_Penalty_Neutral>
  0.0003

> <r_epik_State_Penalty>
  0.0779

> <r_epik_Charging_Adjusted_Penalty>
0.165393351984323

> <i_epik_Tot_Q>
2

> <i_epik_Tot_abs_Q>
2

> <s_epik_Chemistry_Notes>
This compound has an imine and may undergo hydrolysis.

$$$$
