2pt9_ligand
                    3D
 Schrodinger Suite 2020-3.
 48 50  0  0  1  0            999 V2000
   14.5650  -20.5660    7.6640 C   0  0  0  0  0  0
   15.5110  -21.5300    8.2540 N   0  3  0  0  0  0
   15.1390  -20.0240    6.3560 C   0  0  0  0  0  0
   15.9150  -18.7360    6.6160 C   0  0  0  0  0  0
   17.7130  -18.9580    6.8690 S   0  0  2  0  0  0
   17.8990  -17.5910    7.9950 C   0  0  0  0  0  0
   18.5900  -18.3980    5.3250 C   0  0  0  0  0  0
   20.1510  -18.3200    5.3820 C   0  0  1  0  0  0
   20.9340  -18.5730    4.1560 O   0  0  0  0  0  0
   22.1810  -17.9400    4.4370 C   0  0  2  0  0  0
   21.6550  -16.5510    4.7320 C   0  0  2  0  0  0
   22.6830  -15.7740    5.3580 O   0  0  0  0  0  0
   20.5110  -16.8720    5.6960 C   0  0  2  0  0  0
   20.9900  -16.8470    7.0170 O   0  0  0  0  0  0
   23.0520  -17.9240    3.2460 N   0  0  0  0  0  0
   22.7700  -17.2920    2.1120 C   0  0  0  0  0  0
   23.7680  -17.4960    1.2420 N   0  0  0  0  0  0
   24.6960  -18.2720    1.8150 C   0  0  0  0  0  0
   25.9250  -18.8010    1.3930 C   0  0  0  0  0  0
   26.3980  -18.5690    0.1580 N   0  0  0  0  0  0
   24.2420  -18.5360    3.1100 C   0  0  0  0  0  0
   25.0040  -19.3210    3.9110 N   0  0  0  0  0  0
   26.1740  -19.8130    3.4790 C   0  0  0  0  0  0
   26.6370  -19.5640    2.2460 N   0  0  0  0  0  0
   13.6070  -21.0681    7.4636 H   0  0  0  0  0  0
   14.4034  -19.7345    8.3657 H   0  0  0  0  0  0
   15.0974  -21.9200    9.1957 H   0  0  0  0  0  0
   16.4690  -21.0279    8.4544 H   0  0  0  0  0  0
   15.6726  -22.3615    7.5522 H   0  0  0  0  0  0
   15.8166  -20.7704    5.9158 H   0  0  0  0  0  0
   14.3182  -19.8149    5.6542 H   0  0  0  0  0  0
   15.7980  -18.0579    5.7578 H   0  0  0  0  0  0
   15.5259  -18.2502    7.5229 H   0  0  0  0  0  0
   17.4062  -17.8318    8.9485 H   0  0  0  0  0  0
   17.4371  -16.6924    7.5602 H   0  0  0  0  0  0
   18.9686  -17.4045    8.1718 H   0  0  0  0  0  0
   18.3591  -19.0892    4.5010 H   0  0  0  0  0  0
   18.2535  -17.3850    5.0591 H   0  0  0  0  0  0
   20.4502  -19.1196    6.0756 H   0  0  0  0  0  0
   22.7745  -18.4480    5.2114 H   0  0  0  0  0  0
   21.3813  -15.9282    3.8676 H   0  0  0  0  0  0
   23.5695  -15.4691    4.7825 H   0  0  0  0  0  0
   19.6824  -16.1490    5.6678 H   0  0  0  0  0  0
   20.3070  -17.0552    7.8537 H   0  0  0  0  0  0
   21.8728  -16.7034    1.9207 H   0  0  0  0  0  0
   25.8225  -17.9473   -0.5436 H   0  0  0  0  0  0
   27.3610  -19.0006   -0.1522 H   0  0  0  0  0  0
   26.7665  -20.4342    4.1507 H   0  0  0  0  0  0
  1  2  1  0  0  0
  1  3  1  0  0  0
  1 25  1  0  0  0
  1 26  1  0  0  0
  2 27  1  0  0  0
  2 28  1  0  0  0
  2 29  1  0  0  0
  3  4  1  0  0  0
  3 30  1  0  0  0
  3 31  1  0  0  0
  4  5  1  0  0  0
  4 32  1  0  0  0
  4 33  1  0  0  0
  5  6  1  0  0  0
  5  7  1  0  0  0
  6 34  1  0  0  0
  6 35  1  0  0  0
  6 36  1  0  0  0
  7  8  1  0  0  0
  7 37  1  0  0  0
  7 38  1  0  0  0
  8  9  1  0  0  0
  8 13  1  0  0  0
  8 39  1  0  0  0
  9 10  1  0  0  0
 10 11  1  0  0  0
 10 15  1  0  0  0
 10 40  1  0  0  0
 11 12  1  0  0  0
 11 13  1  0  0  0
 11 41  1  0  0  0
 12 42  1  0  0  0
 13 14  1  0  0  0
 13 43  1  0  0  0
 14 44  1  0  0  0
 15 16  1  0  0  0
 15 21  1  0  0  0
 16 17  2  0  0  0
 16 45  1  0  0  0
 17 18  1  0  0  0
 18 19  2  0  0  0
 18 21  1  0  0  0
 19 20  1  0  0  0
 19 24  1  0  0  0
 20 46  1  0  0  0
 20 47  1  0  0  0
 21 22  2  0  0  0
 22 23  1  0  0  0
 23 24  2  0  0  0
 23 48  1  0  0  0
M  CHG  1   2   1
M  END
> <s_m_source_file>
../2pt9_ligand.sdf

> <i_m_source_file_index>
1

> <s_epik_input>
W05IMytdW0NIMl1bQ0gyXVtDSDJdW1NASF0oW0NIM10pW0NIMl1bQ0BIXTFPW0NASF0oW0NASF0oW09IXSlbQ0BASF0xW09IXSluKFtjSF1uMiljKGMyMyluW2NIXW5jM1tOSDJd

> <s_epik_cmdline>
J2VwaWtfYXBwJywgJy1pbWFlJywgJ2xpZ2FuZF9wcm8ubWFlJywgJy1vbWFlJywgJ2xpZ2FuZF9wcmVwLm1hZScsICctbXMnLCAnMScsICctcGgnLCAnNycsICctcGh0JywgJzAuNScsICctbnQn

> <r_lp_tautomer_probability>
1

> <r_epik_Ionization_Penalty>
  0.0008

> <r_epik_Ionization_Penalty_Charging>
  0.0004

> <r_epik_Ionization_Penalty_Neutral>
  0.0004

> <r_epik_State_Penalty>
 -0.0000

> <r_epik_Charging_Adjusted_Penalty>
0.000397897786081946

> <i_epik_Tot_Q>
1

> <i_epik_Tot_abs_Q>
1

> <s_epik_Chemistry_Notes>
This compound contains an acetal/aminal-like group ( X-CH(R)-Y where X, Y are N, S, or O) that may be acid/base labile, releasing an aldehyde.

$$$$
