2ptz_ligand
                    3D
 Schrodinger Suite 2020-3.
 14 13  0  0  1  0            999 V2000
   11.6580   28.1130   36.3180 C   0  0  0  0  0  0
   13.1260   28.4200   36.3860 C   0  0  0  0  0  0
   13.5540   29.2950   35.5110 N   0  0  0  0  0  0
   14.8410   29.7050   35.3980 O   0  0  0  0  0  0
   13.8880   27.8380   37.1630 O   0  0  0  0  0  0
   10.4960   30.3590   37.1800 O   0  0  0  0  0  0
   11.8290   29.0880   38.7760 O   0  5  0  0  0  0
    9.6010   28.1910   37.9080 O   0  0  0  0  0  0
   10.8460   29.0270   37.6860 P   0  0  0  0  0  0
   11.2599   28.4391   35.3458 H   0  0  0  0  0  0
   11.5042   27.0298   36.4325 H   0  0  0  0  0  0
   12.7856   29.7033   34.8381 H   0  0  0  0  0  0
   15.1170   30.4460   34.6334 H   0  0  0  0  0  0
    8.8394   28.1180   37.1177 H   0  0  0  0  0  0
  1  2  1  0  0  0
  1  9  1  0  0  0
  1 10  1  0  0  0
  1 11  1  0  0  0
  2  3  1  0  0  0
  2  5  2  0  0  0
  3  4  1  0  0  0
  3 12  1  0  0  0
  4 13  1  0  0  0
  6  9  2  0  0  0
  7  9  1  0  0  0
  8  9  1  0  0  0
  8 14  1  0  0  0
M  CHG  1   7  -1
M  END
> <s_m_source_file>
../2ptz_ligand.sdf

> <i_m_source_file_index>
1

> <s_epik_input>
Tz1QKFtPSF0pKFtPSF0pW0NIMl1DKD1PKVtOSF1bT0hd

> <s_epik_cmdline>
J2VwaWtfYXBwJywgJy1pbWFlJywgJ2xpZ2FuZF9wcm8ubWFlJywgJy1vbWFlJywgJ2xpZ2FuZF9wcmVwLm1hZScsICctbXMnLCAnMScsICctcGgnLCAnNycsICctcGh0JywgJzAuNScsICctbnQn

> <r_epik_Ionization_Penalty>
  0.2560

> <r_epik_Ionization_Penalty_Charging>
  0.0000

> <r_epik_Ionization_Penalty_Neutral>
  0.2560

> <r_epik_State_Penalty>
  0.2364

> <r_epik_Charging_Adjusted_Penalty>
0.236398132167967

> <i_epik_Tot_Q>
-1

> <i_epik_Tot_abs_Q>
1

> <s_epik_Chemistry_Notes>
This compound has a N-S or N-O group and may undergo hydrolysis at high or low pH.

$$$$
