2pu2_ligand
                    3D
 Schrodinger Suite 2020-3.
 37 39  0  0  1  0            999 V2000
   26.2870    5.7260   14.5780 O   0  0  0  0  0  0
   24.9910    5.7100   14.5920 C   0  0  0  0  0  0
   24.1830    5.3260   13.4120 C   0  0  0  0  0  0
   22.8610    5.4360   13.8190 C   0  0  0  0  0  0
   21.8120    5.1480   12.9500 C   0  0  0  0  0  0
   24.5120    4.9110   12.1390 C   0  0  0  0  0  0
   23.4710    4.6160   11.2630 C   0  0  0  0  0  0
   22.1350    4.7190   11.6600 C   0  0  0  0  0  0
   21.0830    4.3940   10.6400 C   0  0  0  0  0  0
   21.3650    4.6380    9.4370 O   0  0  0  0  0  0
   19.9760    3.8910   10.9690 O   0  5  0  0  0  0
   24.2540    6.0390   15.6700 N   0  0  0  0  0  0
   22.9700    5.8910   15.2410 C   0  0  0  0  0  0
   21.9320    6.1140   15.9700 O   0  0  0  0  0  0
   24.7830    6.5010   16.9940 C   0  0  1  0  0  0
   25.8200    5.5510   17.5100 C   0  0  0  0  0  0
   26.8510    6.0230   18.0410 O   0  5  0  0  0  0
   25.6290    4.3330   17.3590 O   0  0  0  0  0  0
   25.3860    7.9060   16.8150 C   0  0  0  0  0  0
   24.2960    8.8280   16.3140 C   0  0  0  0  0  0
   24.1500    9.0610   14.9420 C   0  0  0  0  0  0
   23.1250    9.8930   14.4900 C   0  0  0  0  0  0
   22.2530   10.4790   15.4130 C   0  0  0  0  0  0
   21.2490   11.2830   14.9720 O   0  0  0  0  0  0
   22.3890   10.2350   16.7860 C   0  0  0  0  0  0
   23.4160    9.4070   17.2350 C   0  0  0  0  0  0
   20.7740    5.2536   13.2653 H   0  0  0  0  0  0
   25.5527    4.8170   11.8288 H   0  0  0  0  0  0
   23.7027    4.2981   10.2465 H   0  0  0  0  0  0
   23.9607    6.5062   17.7246 H   0  0  0  0  0  0
   25.7710    8.2655   17.7807 H   0  0  0  0  0  0
   26.2085    7.8619   16.0859 H   0  0  0  0  0  0
   24.8325    8.5956   14.2309 H   0  0  0  0  0  0
   23.0047   10.0850   13.4238 H   0  0  0  0  0  0
   21.1346   11.4801   13.8959 H   0  0  0  0  0  0
   21.6979   10.6887   17.4964 H   0  0  0  0  0  0
   23.5335    9.2109   18.3008 H   0  0  0  0  0  0
  1  2  2  0  0  0
  2  3  1  0  0  0
  2 12  1  0  0  0
  3  4  2  0  0  0
  3  6  1  0  0  0
  4  5  1  0  0  0
  4 13  1  0  0  0
  5  8  2  0  0  0
  5 27  1  0  0  0
  6  7  2  0  0  0
  6 28  1  0  0  0
  7  8  1  0  0  0
  7 29  1  0  0  0
  8  9  1  0  0  0
  9 10  2  0  0  0
  9 11  1  0  0  0
 12 13  1  0  0  0
 12 15  1  0  0  0
 13 14  2  0  0  0
 15 16  1  0  0  0
 15 19  1  0  0  0
 15 30  1  0  0  0
 16 17  1  0  0  0
 16 18  2  0  0  0
 19 20  1  0  0  0
 19 31  1  0  0  0
 19 32  1  0  0  0
 20 21  2  0  0  0
 20 26  1  0  0  0
 21 22  1  0  0  0
 21 33  1  0  0  0
 22 23  2  0  0  0
 22 34  1  0  0  0
 23 24  1  0  0  0
 23 25  1  0  0  0
 24 35  1  0  0  0
 25 26  2  0  0  0
 25 36  1  0  0  0
 26 37  1  0  0  0
M  CHG  2  11  -1  17  -1
M  END
> <s_m_source_file>
../2pu2_ligand.sdf

> <i_m_source_file_index>
1

> <s_epik_input>
W2NIXTFbY0hdYyhDKD1PKVtPSF0pW2NIXWMoYzEyKUMoPU8pTihDMj1PKVtDQEBIXShDKD1PKVtPSF0pW0NIMl1jM1tjSF1bY0hdYyhbT0hdKVtjSF1bY0hdMw==

> <s_epik_cmdline>
J2VwaWtfYXBwJywgJy1pbWFlJywgJ2xpZ2FuZF9wcm8ubWFlJywgJy1vbWFlJywgJ2xpZ2FuZF9wcmVwLm1hZScsICctbXMnLCAnMScsICctcGgnLCAnNycsICctcGh0JywgJzAuNScsICctbnQn

> <r_lp_tautomer_probability>
1

> <r_epik_Ionization_Penalty>
  0.0008

> <r_epik_Ionization_Penalty_Charging>
  0.0002

> <r_epik_Ionization_Penalty_Neutral>
  0.0006

> <r_epik_State_Penalty>
 -0.0000

> <r_epik_Charging_Adjusted_Penalty>
0.00022054727203345

> <i_epik_Tot_Q>
-2

> <i_epik_Tot_abs_Q>
2

$$$$
