2puy_ligand
                    3D
 Schrodinger Suite 2020-3.
170169  0  0  1  0            999 V2000
   63.1190   -4.6260   25.7280 N   0  3  0  0  0  0
   63.6420   -3.5280   26.5860 C   0  0  2  0  0  0
   62.8320   -3.5270   27.8650 C   0  0  0  0  0  0
   61.7680   -4.1310   27.9190 O   0  0  0  0  0  0
   63.5130   -2.1940   25.8670 C   0  0  0  0  0  0
   63.3240   -2.8410   28.8900 N   0  0  0  0  0  0
   62.6350   -2.8070   30.1840 C   0  0  2  0  0  0
   62.3390   -1.4130   30.7160 C   0  0  0  0  0  0
   63.0640   -0.4510   30.4290 O   0  0  0  0  0  0
   63.4730   -3.5480   31.2350 C   0  0  0  0  0  0
   63.8040   -4.9760   30.8650 C   0  0  0  0  0  0
   64.5550   -5.6470   31.9950 C   0  0  0  0  0  0
   65.8260   -4.9890   32.2830 N   0  0  0  0  0  0
   66.3060   -4.8010   33.5100 C   0  0  0  0  0  0
   65.6210   -5.2170   34.5690 N   0  0  0  0  0  0
   67.4720   -4.1950   33.6830 N   0  0  0  0  0  0
   61.2600   -1.3150   31.4820 N   0  0  0  0  0  0
   60.8920   -0.0590   32.1160 C   0  0  2  0  0  0
   60.9680   -0.2670   33.6080 C   0  0  0  0  0  0
   61.0670   -1.3940   34.0980 O   0  0  0  0  0  0
   59.4510    0.3620   31.8270 C   0  0  2  0  0  0
   58.5540   -0.6920   32.2010 O   0  0  0  0  0  0
   59.2740    0.6970   30.3710 C   0  0  0  0  0  0
   60.9230    0.8430   34.3260 N   0  0  0  0  0  0
   60.9090    0.8040   35.7700 C   0  0  2  0  0  0
   59.9930    1.9330   36.1710 C   0  0  0  0  0  0
   59.8060    2.8860   35.4100 O   0  0  0  0  0  0
   62.3060    1.0210   36.3510 C   0  0  0  0  0  0
   62.8800    2.3990   36.1500 C   0  0  0  0  0  0
   64.1950    2.5120   36.8960 C   0  0  0  0  0  0
   64.8250    3.8740   36.7160 C   0  0  0  0  0  0
   66.0110    4.0240   37.6090 N   0  3  0  0  0  0
   59.3850    1.8000   37.3420 N   0  0  0  0  0  0
   58.5040    2.8260   37.8590 C   0  0  2  0  0  0
   59.2400    3.4890   39.0200 C   0  0  0  0  0  0
   59.5890    2.8320   40.0060 O   0  0  0  0  0  0
   57.1890    2.2070   38.3340 C   0  0  0  0  0  0
   56.1250    3.2370   38.6580 C   0  0  0  0  0  0
   55.5570    3.9170   37.4200 C   0  0  0  0  0  0
   55.1800    5.0950   37.4600 O   0  0  0  0  0  0
   55.4660    3.1710   36.3250 N   0  0  0  0  0  0
   59.4920    4.7890   38.8930 N   0  0  0  0  0  0
   60.2070    5.5330   39.9260 C   0  0  2  0  0  0
   59.4130    6.7800   40.2830 C   0  0  0  0  0  0
   58.9950    7.5160   39.4010 O   0  0  0  0  0  0
   61.6020    5.9730   39.4370 C   0  0  2  0  0  0
   62.3850    4.8190   39.0850 O   0  0  0  0  0  0
   62.3140    6.7550   40.5130 C   0  0  0  0  0  0
   59.2160    7.0220   41.5740 N   0  0  0  0  0  0
   58.4550    8.1840   42.0170 C   0  0  2  0  0  0
   59.2630    9.0730   42.9420 C   0  0  0  0  0  0
   59.3020    8.8550   44.1560 O   0  0  0  0  0  0
   57.1740    7.7330   42.7070 C   0  0  0  0  0  0
   59.9090   10.0740   42.3640 N   0  0  0  0  0  0
   60.6860   11.0130   43.1510 C   0  0  2  0  0  0
   59.7110   12.0440   43.7260 C   0  0  0  0  0  0
   58.6370   12.2790   43.1590 O   0  0  0  0  0  0
   61.7700   11.6570   42.2840 C   0  0  0  0  0  0
   62.8370   10.6570   41.8220 C   0  0  0  0  0  0
   63.6040   10.0440   43.0070 C   0  0  0  0  0  0
   64.5420   10.9940   43.5960 N   0  0  0  0  0  0
   65.8470   11.0140   43.3360 C   0  0  0  0  0  0
   66.6270   11.9230   43.9040 N   0  0  0  0  0  0
   66.3750   10.1050   42.5310 N   0  0  0  0  0  0
   60.0740   12.6370   44.8590 N   0  0  0  0  0  0
   59.2040   13.5880   45.5480 C   0  0  2  0  0  0
   59.1140   15.0050   44.9950 C   0  0  0  0  0  0
   60.0660   15.5180   44.4000 O   0  0  0  0  0  0
   59.5870   13.6330   47.0350 C   0  0  0  0  0  0
   59.5190   12.2800   47.7430 C   0  0  0  0  0  0
   60.1060   12.3600   49.1470 C   0  0  0  0  0  0
   60.5320   10.9920   49.6620 C   0  0  0  0  0  0
   61.1250   11.0700   51.0360 N   0  3  0  0  0  0
   57.9630   15.6400   45.2290 N   0  0  0  0  0  0
   57.6850   16.9960   44.7580 C   0  0  2  0  0  0
   57.4540   17.9500   45.9250 C   0  0  0  0  0  0
   56.9220   17.5130   46.9690 O   0  0  0  0  0  0
   56.4300   16.9990   43.8730 C   0  0  0  0  0  0
   56.5920   16.1410   42.7490 O   0  0  0  0  0  0
   57.7730   19.1380   45.7660 O   0  0  0  0  0  0
   63.2177   -5.5846   26.2585 H   0  0  0  0  0  0
   63.6939   -4.6646   24.7910 H   0  0  0  0  0  0
   62.0589   -4.4403   25.5005 H   0  0  0  0  0  0
   64.7065   -3.7006   26.8030 H   0  0  0  0  0  0
   64.1083   -2.2168   24.9423 H   0  0  0  0  0  0
   63.8805   -1.3886   26.5199 H   0  0  0  0  0  0
   62.4569   -2.0119   25.6188 H   0  0  0  0  0  0
   64.2672   -2.2914   28.7545 H   0  0  0  0  0  0
   61.6732   -3.2906   29.9582 H   0  0  0  0  0  0
   64.4278   -3.0215   31.3804 H   0  0  0  0  0  0
   62.9229   -3.5793   32.1871 H   0  0  0  0  0  0
   62.8734   -5.5298   30.6718 H   0  0  0  0  0  0
   64.4303   -4.9847   29.9608 H   0  0  0  0  0  0
   63.9430   -5.6205   32.9086 H   0  0  0  0  0  0
   64.7660   -6.6923   31.7252 H   0  0  0  0  0  0
   66.4502   -4.6136   31.4587 H   0  0  0  0  0  0
   64.6525   -5.7208   34.4344 H   0  0  0  0  0  0
   66.0222   -5.0577   35.5808 H   0  0  0  0  0  0
   68.0458   -3.8473   32.8113 H   0  0  0  0  0  0
   60.6387   -2.2101   31.6330 H   0  0  0  0  0  0
   61.5991    0.6807   31.7125 H   0  0  0  0  0  0
   59.1699    1.2350   32.4343 H   0  0  0  0  0  0
   58.5465   -1.0668   33.2352 H   0  0  0  0  0  0
   59.9660    1.5060   30.0942 H   0  0  0  0  0  0
   58.2386    1.0232   30.1931 H   0  0  0  0  0  0
   59.4879   -0.1932   29.7613 H   0  0  0  0  0  0
   60.8960    1.8096   33.8016 H   0  0  0  0  0  0
   60.5558   -0.1842   36.0996 H   0  0  0  0  0  0
   62.2823    0.8482   37.4371 H   0  0  0  0  0  0
   63.0110    0.3180   35.8832 H   0  0  0  0  0  0
   63.0508    2.5721   35.0772 H   0  0  0  0  0  0
   62.1743    3.1499   36.5348 H   0  0  0  0  0  0
   64.0223    2.3499   37.9702 H   0  0  0  0  0  0
   64.8968    1.7535   36.5189 H   0  0  0  0  0  0
   65.1474    3.9937   35.6711 H   0  0  0  0  0  0
   64.0900    4.6537   36.9645 H   0  0  0  0  0  0
   66.4554    5.0198   37.4642 H   0  0  0  0  0  0
   66.7546    3.2514   37.3638 H   0  0  0  0  0  0
   65.6972    3.9114   38.6573 H   0  0  0  0  0  0
   59.5631    0.8836   37.9238 H   0  0  0  0  0  0
   58.2853    3.5371   37.0487 H   0  0  0  0  0  0
   56.7872    1.5513   37.5474 H   0  0  0  0  0  0
   57.3690    1.6182   39.2456 H   0  0  0  0  0  0
   55.2905    2.7494   39.1832 H   0  0  0  0  0  0
   56.5555    4.0193   39.3004 H   0  0  0  0  0  0
   55.8152    2.1280   36.3395 H   0  0  0  0  0  0
   55.0414    3.5961   35.4036 H   0  0  0  0  0  0
   59.1480    5.3031   37.9834 H   0  0  0  0  0  0
   60.2904    4.8429   40.7785 H   0  0  0  0  0  0
   61.5268    6.5835   38.5250 H   0  0  0  0  0  0
   62.0241    4.1243   38.3122 H   0  0  0  0  0  0
   61.7150    7.6375   40.7821 H   0  0  0  0  0  0
   63.2973    7.0787   40.1411 H   0  0  0  0  0  0
   62.4487    6.1189   41.4002 H   0  0  0  0  0  0
   59.6390    6.3268   42.3141 H   0  0  0  0  0  0
   58.2299    8.7499   41.1010 H   0  0  0  0  0  0
   56.5977    7.0895   42.0260 H   0  0  0  0  0  0
   56.5726    8.6140   42.9757 H   0  0  0  0  0  0
   57.4267    7.1699   43.6175 H   0  0  0  0  0  0
   59.8506   10.1882   41.2715 H   0  0  0  0  0  0
   61.1869   10.4611   43.9601 H   0  0  0  0  0  0
   61.3094   12.0943   41.3859 H   0  0  0  0  0  0
   62.2771   12.4469   42.8576 H   0  0  0  0  0  0
   62.3565    9.8397   41.2642 H   0  0  0  0  0  0
   63.5617   11.1685   41.1714 H   0  0  0  0  0  0
   62.8906    9.7358   43.7855 H   0  0  0  0  0  0
   64.1718    9.1672   42.6622 H   0  0  0  0  0  0
   64.1821   11.7554   44.3037 H   0  0  0  0  0  0
   66.1922   12.6799   44.5734 H   0  0  0  0  0  0
   67.7090   11.9204   43.7059 H   0  0  0  0  0  0
   65.7312    9.3490   42.0577 H   0  0  0  0  0  0
   61.0620   12.3931   45.2765 H   0  0  0  0  0  0
   58.2151   13.1535   45.3397 H   0  0  0  0  0  0
   60.6197   13.9979   47.1367 H   0  0  0  0  0  0
   58.9045   14.3104   47.5691 H   0  0  0  0  0  0
   58.4698   11.9589   47.8201 H   0  0  0  0  0  0
   60.0889   11.5358   47.1673 H   0  0  0  0  0  0
   60.9893   13.0155   49.1383 H   0  0  0  0  0  0
   59.3528   12.7688   49.8366 H   0  0  0  0  0  0
   59.6569   10.3267   49.7025 H   0  0  0  0  0  0
   61.2867   10.5643   48.9857 H   0  0  0  0  0  0
   61.4174   10.0625   51.3669 H   0  0  0  0  0  0
   60.3815   11.4835   51.7333 H   0  0  0  0  0  0
   62.0113   11.7212   51.0164 H   0  0  0  0  0  0
   57.2043   15.0922   45.8071 H   0  0  0  0  0  0
   58.5838   17.2929   44.1977 H   0  0  0  0  0  0
   56.7476   18.1866   47.8209 H   0  0  0  0  0  0
   55.5670   16.6506   44.4594 H   0  0  0  0  0  0
   56.2391   18.0200   43.5109 H   0  0  0  0  0  0
   55.7779   16.0337   42.0171 H   0  0  0  0  0  0
  1  2  1  0  0  0
  1 81  1  0  0  0
  1 82  1  0  0  0
  1 83  1  0  0  0
  2  3  1  0  0  0
  2  5  1  0  0  0
  2 84  1  0  0  0
  3  4  2  0  0  0
  3  6  1  0  0  0
  5 85  1  0  0  0
  5 86  1  0  0  0
  5 87  1  0  0  0
  6  7  1  0  0  0
  6 88  1  0  0  0
  7  8  1  0  0  0
  7 10  1  0  0  0
  7 89  1  0  0  0
  8  9  2  0  0  0
  8 17  1  0  0  0
 10 11  1  0  0  0
 10 90  1  0  0  0
 10 91  1  0  0  0
 11 12  1  0  0  0
 11 92  1  0  0  0
 11 93  1  0  0  0
 12 13  1  0  0  0
 12 94  1  0  0  0
 12 95  1  0  0  0
 13 14  1  0  0  0
 13 96  1  0  0  0
 14 15  1  0  0  0
 14 16  2  0  0  0
 15 97  1  0  0  0
 15 98  1  0  0  0
 16 99  1  0  0  0
 17 18  1  0  0  0
 17100  1  0  0  0
 18 19  1  0  0  0
 18 21  1  0  0  0
 18101  1  0  0  0
 19 20  2  0  0  0
 19 24  1  0  0  0
 21 22  1  0  0  0
 21 23  1  0  0  0
 21102  1  0  0  0
 22103  1  0  0  0
 23104  1  0  0  0
 23105  1  0  0  0
 23106  1  0  0  0
 24 25  1  0  0  0
 24107  1  0  0  0
 25 26  1  0  0  0
 25 28  1  0  0  0
 25108  1  0  0  0
 26 27  2  0  0  0
 26 33  1  0  0  0
 28 29  1  0  0  0
 28109  1  0  0  0
 28110  1  0  0  0
 29 30  1  0  0  0
 29111  1  0  0  0
 29112  1  0  0  0
 30 31  1  0  0  0
 30113  1  0  0  0
 30114  1  0  0  0
 31 32  1  0  0  0
 31115  1  0  0  0
 31116  1  0  0  0
 32117  1  0  0  0
 32118  1  0  0  0
 32119  1  0  0  0
 33 34  1  0  0  0
 33120  1  0  0  0
 34 35  1  0  0  0
 34 37  1  0  0  0
 34121  1  0  0  0
 35 36  2  0  0  0
 35 42  1  0  0  0
 37 38  1  0  0  0
 37122  1  0  0  0
 37123  1  0  0  0
 38 39  1  0  0  0
 38124  1  0  0  0
 38125  1  0  0  0
 39 40  2  0  0  0
 39 41  1  0  0  0
 41126  1  0  0  0
 41127  1  0  0  0
 42 43  1  0  0  0
 42128  1  0  0  0
 43 44  1  0  0  0
 43 46  1  0  0  0
 43129  1  0  0  0
 44 45  2  0  0  0
 44 49  1  0  0  0
 46 47  1  0  0  0
 46 48  1  0  0  0
 46130  1  0  0  0
 47131  1  0  0  0
 48132  1  0  0  0
 48133  1  0  0  0
 48134  1  0  0  0
 49 50  1  0  0  0
 49135  1  0  0  0
 50 51  1  0  0  0
 50 53  1  0  0  0
 50136  1  0  0  0
 51 52  2  0  0  0
 51 54  1  0  0  0
 53137  1  0  0  0
 53138  1  0  0  0
 53139  1  0  0  0
 54 55  1  0  0  0
 54140  1  0  0  0
 55 56  1  0  0  0
 55 58  1  0  0  0
 55141  1  0  0  0
 56 57  2  0  0  0
 56 65  1  0  0  0
 58 59  1  0  0  0
 58142  1  0  0  0
 58143  1  0  0  0
 59 60  1  0  0  0
 59144  1  0  0  0
 59145  1  0  0  0
 60 61  1  0  0  0
 60146  1  0  0  0
 60147  1  0  0  0
 61 62  1  0  0  0
 61148  1  0  0  0
 62 63  1  0  0  0
 62 64  2  0  0  0
 63149  1  0  0  0
 63150  1  0  0  0
 64151  1  0  0  0
 65 66  1  0  0  0
 65152  1  0  0  0
 66 67  1  0  0  0
 66 69  1  0  0  0
 66153  1  0  0  0
 67 68  2  0  0  0
 67 74  1  0  0  0
 69 70  1  0  0  0
 69154  1  0  0  0
 69155  1  0  0  0
 70 71  1  0  0  0
 70156  1  0  0  0
 70157  1  0  0  0
 71 72  1  0  0  0
 71158  1  0  0  0
 71159  1  0  0  0
 72 73  1  0  0  0
 72160  1  0  0  0
 72161  1  0  0  0
 73162  1  0  0  0
 73163  1  0  0  0
 73164  1  0  0  0
 74 75  1  0  0  0
 74165  1  0  0  0
 75 76  1  0  0  0
 75 78  1  0  0  0
 75166  1  0  0  0
 76 77  1  0  0  0
 76 80  2  0  0  0
 77167  1  0  0  0
 78 79  1  0  0  0
 78168  1  0  0  0
 78169  1  0  0  0
 79170  1  0  0  0
M  CHG  3   1   1  32   1  73   1
M  END
> <s_m_source_file>
../2puy_ligand.sdf

> <i_m_source_file_index>
1

> <s_epik_input>
W0hdL049QyhbTkgyXSlcW05IXVtDSDJdW0NIMl1bQ0gyXVtDQEhdKFtOSF1DKD1PKVtDQEBIXShbTkgzK10pW0NIM10pQyg9TylbTkhdW0NAQEhdKFtDQEhdKFtPSF0pW0NIM10pQyg9TylbTkhdW0NAQEhdKFtDSDJdW0NIMl1bQ0gyXVtDSDJdW05IMytdKUMoPU8pW05IXVtDQEBIXShbQ0gyXVtDSDJdQyg9TylbTkgyXSlDKD1PKVtOSF1bQ0BASF0oW0NASF0oW09IXSlbQ0gzXSlDKD1PKVtOSF1bQ0BASF0oW0NIM10pQyg9TylbTkhdW0NAQEhdKFtDSDJdW0NIMl1bQ0gyXVtOSF0vQyhbTkgyXSk9TlxbSF0pQyg9TylbTkhdW0NASF0oQyg9TylbTkhdW0NASF0oQyg9TylbT0hdKVtDSDJdW09IXSlbQ0gyXVtDSDJdW0NIMl1bQ0gyXVtOSDMrXQ==

> <s_epik_cmdline>
J2VwaWtfYXBwJywgJy1pbWFlJywgJ2xpZ2FuZF9wcm8ubWFlJywgJy1vbWFlJywgJ2xpZ2FuZF9wcmVwLm1hZScsICctbXMnLCAnMScsICctcGgnLCAnNycsICctcGh0JywgJzAuNScsICctbnQn

> <s_epik_pKa_notes>
Molecule size exceeds maximum supported for generating protonation states

> <s_epik_Chemistry_Notes>
This compound has an imine and may undergo hydrolysis.

$$$$
