2pv1_ligand
                    3D
 Schrodinger Suite 2020-3.
126129  0  0  1  0            999 V2000
   23.1870  -20.1590   -7.9520 N   0  3  0  0  0  0
   22.2630  -19.1060   -7.4390 C   0  0  2  0  0  0
   22.3760  -18.9880   -5.9340 C   0  0  0  0  0  0
   22.5280  -19.9990   -5.2240 O   0  0  0  0  0  0
   20.8100  -19.4410   -7.8070 C   0  0  0  0  0  0
   20.5780  -19.4830   -9.2670 C   0  0  0  0  0  0
   20.4200  -20.5990  -10.0490 C   0  0  0  0  0  0
   20.5720  -18.3620  -10.1570 C   0  0  0  0  0  0
   20.3260  -20.2360  -11.3720 N   0  3  0  0  0  0
   20.4150  -18.8670  -11.4640 C   0  0  0  0  0  0
   20.6880  -16.9720   -9.9720 C   0  0  0  0  0  0
   20.3760  -18.0390  -12.5860 C   0  0  0  0  0  0
   20.6480  -16.1450  -11.0840 C   0  0  0  0  0  0
   20.4950  -16.6800  -12.3780 C   0  0  0  0  0  0
   22.2920  -17.7640   -5.4320 N   0  0  0  0  0  0
   22.3630  -17.5420   -3.9960 C   0  0  2  0  0  0
   20.9750  -17.7540   -3.4100 C   0  0  0  0  0  0
   20.8230  -18.1800   -2.2670 O   0  0  0  0  0  0
   22.8540  -16.1250   -3.7130 C   0  0  0  0  0  0
   22.9780  -15.7890   -2.2430 C   0  0  0  0  0  0
   23.8210  -16.7980   -1.4950 C   0  0  0  0  0  0
   24.9070  -17.1570   -2.0050 O   0  5  0  0  0  0
   23.3990  -17.2240   -0.3980 O   0  0  0  0  0  0
   19.9580  -17.4590   -4.2120 N   0  0  0  0  0  0
   18.5750  -17.6150   -3.7970 C   0  0  2  0  0  0
   17.6860  -17.8620   -5.0150 C   0  0  0  0  0  0
   17.8200  -17.1670   -6.0300 O   0  0  0  0  0  0
   18.1150  -16.3630   -3.0480 C   0  0  0  0  0  0
   16.6190  -16.2250   -3.0000 C   0  0  0  0  0  0
   15.8270  -17.1880   -2.3740 C   0  0  0  0  0  0
   15.9880  -15.1750   -3.6580 C   0  0  0  0  0  0
   14.4400  -17.1090   -2.4230 C   0  0  0  0  0  0
   14.6130  -15.0840   -3.7110 C   0  0  0  0  0  0
   13.8470  -16.0540   -3.1000 C   0  0  0  0  0  0
   12.4840  -15.9850   -3.2270 O   0  0  0  0  0  0
   16.7890  -18.8450   -4.9250 N   0  0  0  0  0  0
   15.8540  -19.1590   -6.0130 C   0  0  2  0  0  0
   14.4440  -19.1370   -5.4240 C   0  0  0  0  0  0
   14.1140  -19.9320   -4.5510 O   0  0  0  0  0  0
   16.1100  -20.5620   -6.6450 C   0  0  2  0  0  0
   17.5350  -20.6350   -7.2130 C   0  0  0  0  0  0
   15.1000  -20.8260   -7.7640 C   0  0  0  0  0  0
   17.8830  -21.9710   -7.8220 C   0  0  0  0  0  0
   13.5980  -18.2020   -5.8730 N   0  0  0  0  0  0
   12.2430  -18.1500   -5.3230 C   0  0  2  0  0  0
   11.3900  -19.3420   -5.7090 C   0  0  0  0  0  0
   11.6190  -20.0160   -6.7180 O   0  0  0  0  0  0
   11.6880  -16.8210   -5.8600 C   0  0  0  0  0  0
   12.4350  -16.6200   -7.1170 C   0  0  0  0  0  0
   13.8420  -17.0900   -6.8040 C   0  0  0  0  0  0
   10.4010  -19.6030   -4.8680 N   0  0  0  0  0  0
    9.4700  -20.6810   -5.1060 C   0  0  2  0  0  0
    8.4840  -20.2180   -6.1710 C   0  0  0  0  0  0
    8.2110  -19.0090   -6.3020 O   0  0  0  0  0  0
    8.7060  -21.0080   -3.8220 C   0  0  0  0  0  0
    9.5630  -21.7240   -2.8030 C   0  0  0  0  0  0
    9.6050  -21.3360   -1.6390 O   0  0  0  0  0  0
   10.2510  -22.7770   -3.2360 N   0  0  0  0  0  0
    7.9660  -21.1570   -6.9520 N   0  0  0  0  0  0
    6.9690  -20.8180   -7.9600 C   0  0  2  0  0  0
    5.8030  -21.7840   -7.7940 C   0  0  0  0  0  0
    5.9880  -22.8170   -7.1030 O   0  5  0  0  0  0
    7.5390  -20.9010   -9.4170 C   0  0  0  0  0  0
    8.6780  -19.9130   -9.5800 C   0  0  0  0  0  0
    8.0070  -22.3140   -9.7420 C   0  0  0  0  0  0
    4.7240  -21.5070   -8.3500 O   0  0  0  0  0  0
   24.2216  -19.9032   -7.6798 H   0  0  0  0  0  0
   23.1005  -20.2210   -9.0468 H   0  0  0  0  0  0
   22.9201  -21.1292   -7.5076 H   0  0  0  0  0  0
   22.5733  -18.1588   -7.9044 H   0  0  0  0  0  0
   20.5465  -20.4278   -7.3986 H   0  0  0  0  0  0
   20.1395  -18.6783   -7.3842 H   0  0  0  0  0  0
   20.3861  -21.5956   -9.5847 H   0  0  0  0  0  0
   20.8071  -16.5531   -8.9728 H   0  0  0  0  0  0
   20.2561  -18.4497  -13.5885 H   0  0  0  0  0  0
   20.7361  -15.0662  -10.9552 H   0  0  0  0  0  0
   20.4700  -16.0056  -13.2340 H   0  0  0  0  0  0
   22.1672  -16.9108   -6.1149 H   0  0  0  0  0  0
   23.0769  -18.2669   -3.5779 H   0  0  0  0  0  0
   23.8498  -15.9861   -4.1591 H   0  0  0  0  0  0
   22.1520  -15.3996   -4.1500 H   0  0  0  0  0  0
   23.4485  -14.8010   -2.1311 H   0  0  0  0  0  0
   21.9780  -15.7729   -1.7849 H   0  0  0  0  0  0
   20.1909  -17.0855   -5.2201 H   0  0  0  0  0  0
   18.5494  -18.4899   -3.1308 H   0  0  0  0  0  0
   18.4808  -16.4008   -2.0113 H   0  0  0  0  0  0
   18.5175  -15.4689   -3.5465 H   0  0  0  0  0  0
   16.3012  -18.0117   -1.8404 H   0  0  0  0  0  0
   16.5927  -14.4080   -4.1419 H   0  0  0  0  0  0
   13.8264  -17.8666   -1.9355 H   0  0  0  0  0  0
   14.1363  -14.2531   -4.2310 H   0  0  0  0  0  0
   11.8480  -16.7453   -2.7502 H   0  0  0  0  0  0
   16.7653  -19.4296   -3.9935 H   0  0  0  0  0  0
   16.0136  -18.3814   -6.7745 H   0  0  0  0  0  0
   15.9940  -21.3395   -5.8755 H   0  0  0  0  0  0
   17.6548  -19.8770   -8.0011 H   0  0  0  0  0  0
   18.2606  -20.4452   -6.4084 H   0  0  0  0  0  0
   14.0795  -20.7736   -7.3567 H   0  0  0  0  0  0
   15.2749  -21.8261   -8.1874 H   0  0  0  0  0  0
   15.2196  -20.0681   -8.5522 H   0  0  0  0  0  0
   18.9142  -21.9424   -8.2040 H   0  0  0  0  0  0
   17.1914  -22.1881   -8.6494 H   0  0  0  0  0  0
   17.7971  -22.7564   -7.0566 H   0  0  0  0  0  0
   12.2825  -18.2133   -4.2255 H   0  0  0  0  0  0
   10.6049  -16.9167   -6.0269 H   0  0  0  0  0  0
   11.8770  -16.0221   -5.1278 H   0  0  0  0  0  0
   11.9726  -17.2161   -7.9176 H   0  0  0  0  0  0
   12.4105  -15.5552   -7.3919 H   0  0  0  0  0  0
   14.4506  -16.3212   -6.3054 H   0  0  0  0  0  0
   14.3769  -17.4638   -7.6895 H   0  0  0  0  0  0
   10.2980  -18.9754   -3.9705 H   0  0  0  0  0  0
   10.0573  -21.5515   -5.4337 H   0  0  0  0  0  0
    8.3434  -20.0761   -3.3637 H   0  0  0  0  0  0
    7.8502  -21.6569   -4.0597 H   0  0  0  0  0  0
   10.1797  -23.0852   -4.2895 H   0  0  0  0  0  0
   10.8912  -23.3395   -2.5405 H   0  0  0  0  0  0
    8.2957  -22.1997   -6.8334 H   0  0  0  0  0  0
    6.6694  -19.7809   -7.7486 H   0  0  0  0  0  0
    6.7576  -20.6433  -10.1471 H   0  0  0  0  0  0
    8.3216  -18.9000   -9.3415 H   0  0  0  0  0  0
    9.0404  -19.9392  -10.6183 H   0  0  0  0  0  0
    9.4981  -20.1832   -8.8985 H   0  0  0  0  0  0
    7.1687  -23.0154   -9.6184 H   0  0  0  0  0  0
    8.8239  -22.5953   -9.0612 H   0  0  0  0  0  0
    8.3662  -22.3514  -10.7810 H   0  0  0  0  0  0
   20.2010  -21.0072  -12.1464 H   0  0  0  0  0  0
  1  2  1  0  0  0
  1 67  1  0  0  0
  1 68  1  0  0  0
  1 69  1  0  0  0
  2  3  1  0  0  0
  2  5  1  0  0  0
  2 70  1  0  0  0
  3  4  2  0  0  0
  3 15  1  0  0  0
  5  6  1  0  0  0
  5 71  1  0  0  0
  5 72  1  0  0  0
  6  7  2  0  0  0
  6  8  1  0  0  0
  7  9  1  0  0  0
  7 73  1  0  0  0
  8 10  2  0  0  0
  8 11  1  0  0  0
  9 10  1  0  0  0
  9126  1  0  0  0
 10 12  1  0  0  0
 11 13  2  0  0  0
 11 74  1  0  0  0
 12 14  2  0  0  0
 12 75  1  0  0  0
 13 14  1  0  0  0
 13 76  1  0  0  0
 14 77  1  0  0  0
 15 16  1  0  0  0
 15 78  1  0  0  0
 16 17  1  0  0  0
 16 19  1  0  0  0
 16 79  1  0  0  0
 17 18  2  0  0  0
 17 24  1  0  0  0
 19 20  1  0  0  0
 19 80  1  0  0  0
 19 81  1  0  0  0
 20 21  1  0  0  0
 20 82  1  0  0  0
 20 83  1  0  0  0
 21 22  1  0  0  0
 21 23  2  0  0  0
 24 25  1  0  0  0
 24 84  1  0  0  0
 25 26  1  0  0  0
 25 28  1  0  0  0
 25 85  1  0  0  0
 26 27  2  0  0  0
 26 36  1  0  0  0
 28 29  1  0  0  0
 28 86  1  0  0  0
 28 87  1  0  0  0
 29 30  2  0  0  0
 29 31  1  0  0  0
 30 32  1  0  0  0
 30 88  1  0  0  0
 31 33  2  0  0  0
 31 89  1  0  0  0
 32 34  2  0  0  0
 32 90  1  0  0  0
 33 34  1  0  0  0
 33 91  1  0  0  0
 34 35  1  0  0  0
 35 92  1  0  0  0
 36 37  1  0  0  0
 36 93  1  0  0  0
 37 38  1  0  0  0
 37 40  1  0  0  0
 37 94  1  0  0  0
 38 39  2  0  0  0
 38 44  1  0  0  0
 40 41  1  0  0  0
 40 42  1  0  0  0
 40 95  1  0  0  0
 41 43  1  0  0  0
 41 96  1  0  0  0
 41 97  1  0  0  0
 42 98  1  0  0  0
 42 99  1  0  0  0
 42100  1  0  0  0
 43101  1  0  0  0
 43102  1  0  0  0
 43103  1  0  0  0
 44 45  1  0  0  0
 44 50  1  0  0  0
 45 46  1  0  0  0
 45 48  1  0  0  0
 45104  1  0  0  0
 46 47  2  0  0  0
 46 51  1  0  0  0
 48 49  1  0  0  0
 48105  1  0  0  0
 48106  1  0  0  0
 49 50  1  0  0  0
 49107  1  0  0  0
 49108  1  0  0  0
 50109  1  0  0  0
 50110  1  0  0  0
 51 52  1  0  0  0
 51111  1  0  0  0
 52 53  1  0  0  0
 52 55  1  0  0  0
 52112  1  0  0  0
 53 54  2  0  0  0
 53 59  1  0  0  0
 55 56  1  0  0  0
 55113  1  0  0  0
 55114  1  0  0  0
 56 57  2  0  0  0
 56 58  1  0  0  0
 58115  1  0  0  0
 58116  1  0  0  0
 59 60  1  0  0  0
 59117  1  0  0  0
 60 61  1  0  0  0
 60 63  1  0  0  0
 60118  1  0  0  0
 61 62  1  0  0  0
 61 66  2  0  0  0
 63 64  1  0  0  0
 63 65  1  0  0  0
 63119  1  0  0  0
 64120  1  0  0  0
 64121  1  0  0  0
 64122  1  0  0  0
 65123  1  0  0  0
 65124  1  0  0  0
 65125  1  0  0  0
M  CHG  4   1   1   9   1  22  -1  62  -1
M  END
> <s_m_source_file>
../2pv1_ligand.sdf

> <i_m_source_file_index>
1

> <s_epik_input>
W2NIXTFbY0hdW2NIXVtjSF1jKGMxMilbbkhdW2NIXWMyW0NIMl1bQ0BIXShbTkgzK10pQyg9TylbTkhdW0NAQEhdKFtDSDJdW0NIMl1DKD1PKVtPSF0pQyg9TylbTkhdW0NAQEhdKFtDSDJdYzNbY0hdW2NIXWMoW09IXSlbY0hdW2NIXTMpQyg9TylbTkhdW0NAQEhdKFtDQEBIXShbQ0gzXSlbQ0gyXVtDSDNdKUMoPU8pTjRbQ0BASF0oW0NIMl1bQ0gyXVtDSDJdNClDKD1PKVtOSF1bQ0BASF0oW0NIMl1DKD1PKVtOSDJdKUMoPU8pW05IXVtDQEhdKEMoPU8pW09IXSlbQ0hdKFtDSDNdKVtDSDNd

> <s_epik_cmdline>
J2VwaWtfYXBwJywgJy1pbWFlJywgJ2xpZ2FuZF9wcm8ubWFlJywgJy1vbWFlJywgJ2xpZ2FuZF9wcmVwLm1hZScsICctbXMnLCAnMScsICctcGgnLCAnNycsICctcGh0JywgJzAuNScsICctbnQn

> <r_lp_tautomer_probability>
0.999999999997365

> <r_epik_Ionization_Penalty>
  0.1880

> <r_epik_Ionization_Penalty_Charging>
  0.1871

> <r_epik_Ionization_Penalty_Neutral>
  0.0009

> <r_epik_State_Penalty>
  0.1749

> <r_epik_Charging_Adjusted_Penalty>
0.361993703304607

> <i_epik_Tot_Q>
0

> <i_epik_Tot_abs_Q>
4

$$$$
