2pv2_ligand
                    3D
 Schrodinger Suite 2020-3.
233237  0  0  1  0            999 V2000
   -1.3510  -13.0270   16.2630 N   0  3  0  0  0  0
   -1.1080  -14.0650   17.3070 C   0  0  2  0  0  0
   -0.7450  -13.3880   18.6240 C   0  0  0  0  0  0
   -0.0330  -12.3830   18.6300 O   0  0  0  0  0  0
    0.0050  -15.0060   16.8520 C   0  0  0  0  0  0
    0.3590  -16.0310   17.9040 C   0  0  0  0  0  0
    1.2730  -15.8250   18.7050 O   0  0  0  0  0  0
   -0.3820  -17.1320   17.9310 N   0  0  0  0  0  0
   -1.2050  -13.9520   19.7400 N   0  0  0  0  0  0
   -0.9770  -13.3230   21.0380 C   0  0  2  0  0  0
    0.2480  -13.6680   21.8680 C   0  0  0  0  0  0
    0.3910  -13.1630   22.9760 O   0  0  0  0  0  0
   -2.2440  -13.4610   21.9140 C   0  0  0  0  0  0
   -2.6470  -14.8950   22.2770 C   0  0  0  0  0  0
   -3.9950  -15.2680   22.2170 C   0  0  0  0  0  0
   -1.7300  -15.8200   22.7820 C   0  0  0  0  0  0
   -4.4230  -16.5120   22.6490 C   0  0  0  0  0  0
   -2.1540  -17.0780   23.2230 C   0  0  0  0  0  0
   -3.5080  -17.4210   23.1550 C   0  0  0  0  0  0
    1.1480  -14.4840   21.3340 N   0  0  0  0  0  0
    2.3090  -14.9150   22.1060 C   0  0  2  0  0  0
    3.1040  -13.7930   22.7610 C   0  0  0  0  0  0
    3.3080  -13.7980   23.9760 O   0  0  0  0  0  0
    3.2550  -15.7760   21.2390 C   0  0  2  0  0  0
    2.5520  -16.9430   20.7930 O   0  0  0  0  0  0
    4.4640  -16.2320   22.0480 C   0  0  0  0  0  0
    3.5560  -12.8340   21.9600 N   0  0  0  0  0  0
    4.3420  -11.7290   22.4910 C   0  0  2  0  0  0
    3.4870  -10.6130   23.0980 C   0  0  0  0  0  0
    3.9540   -9.8920   23.9800 O   0  0  0  0  0  0
    5.2680  -11.1830   21.4060 C   0  0  0  0  0  0
    6.3200  -12.1820   20.9080 C   0  0  0  0  0  0
    7.2170  -11.4790   19.9050 C   0  0  0  0  0  0
    7.1410  -12.7340   22.0640 C   0  0  0  0  0  0
    2.2410  -10.4780   22.6520 N   0  0  0  0  0  0
    1.3500   -9.4620   23.2160 C   0  0  2  0  0  0
    1.1550   -9.7690   24.6950 C   0  0  0  0  0  0
    1.1120   -8.8660   25.5250 O   0  0  0  0  0  0
   -0.0060   -9.4630   22.5140 C   0  0  0  0  0  0
    0.0280   -8.9530   21.0850 C   0  0  0  0  0  0
   -1.3840   -8.8420   20.5300 C   0  0  0  0  0  0
   -1.4040   -8.2480   19.1280 C   0  0  0  0  0  0
   -0.7570   -9.1400   18.1290 N   0  3  0  0  0  0
    1.0250  -11.0500   25.0390 N   0  0  0  0  0  0
    0.8860  -11.4080   26.4440 C   0  0  2  0  0  0
    2.2160  -11.2530   27.1880 C   0  0  0  0  0  0
    2.2480  -10.7220   28.2920 O   0  0  0  0  0  0
    0.3870  -12.8530   26.6100 C   0  0  0  0  0  0
   -1.1120  -12.9830   26.6280 C   0  0  0  0  0  0
   -1.8620  -12.4340   27.6640 C   0  0  0  0  0  0
   -1.7720  -13.6480   25.6070 C   0  0  0  0  0  0
   -3.2540  -12.5500   27.6740 C   0  0  0  0  0  0
   -3.1610  -13.7670   25.6070 C   0  0  0  0  0  0
   -3.8990  -13.2130   26.6470 C   0  0  0  0  0  0
    3.3170  -11.7130   26.5970 N   0  0  0  0  0  0
    4.5890  -11.6150   27.2970 C   0  0  2  0  0  0
    4.9340  -10.1640   27.6280 C   0  0  0  0  0  0
    5.4240   -9.8800   28.7160 O   0  0  0  0  0  0
    5.7080  -12.2870   26.4840 C   0  0  0  0  0  0
    6.9680  -12.5350   27.2740 C   0  0  0  0  0  0
    7.1160  -12.4720   28.6290 C   0  0  0  0  0  0
    8.2470  -12.9120   26.7490 C   0  0  0  0  0  0
    8.4140  -12.7870   28.9810 N   0  0  0  0  0  0
    9.1240  -13.0600   27.8430 C   0  0  0  0  0  0
    8.7340  -13.1430   25.4580 C   0  0  0  0  0  0
   10.4670  -13.4280   27.6850 C   0  0  0  0  0  0
   10.0700  -13.5130   25.3020 C   0  0  0  0  0  0
   10.9170  -13.6500   26.4110 C   0  0  0  0  0  0
    4.6360   -9.2550   26.7040 N   0  0  0  0  0  0
    4.9250   -7.8360   26.9020 C   0  0  2  0  0  0
    4.2810   -7.2580   28.1550 C   0  0  0  0  0  0
    4.8090   -6.3150   28.7370 O   0  0  0  0  0  0
    4.4740   -7.0140   25.6880 C   0  0  0  0  0  0
    5.3960   -7.1770   24.4860 C   0  0  0  0  0  0
    6.5350   -7.6620   24.6560 O   0  0  0  0  0  0
    4.9800   -6.7990   23.3680 O   0  0  0  0  0  0
    3.1600   -7.8280   28.5760 N   0  0  0  0  0  0
    2.4640   -7.3410   29.7590 C   0  0  2  0  0  0
    3.2640   -7.5260   31.0420 C   0  0  0  0  0  0
    3.1730   -6.7130   31.9710 O   0  0  0  0  0  0
    1.1270   -8.0660   29.9090 C   0  0  2  0  0  0
    0.2600   -7.7760   28.6890 C   0  0  0  0  0  0
    0.4300   -7.6380   31.1950 C   0  0  0  0  0  0
   -1.0060   -8.6100   28.6350 C   0  0  0  0  0  0
    4.0720   -8.5790   31.0790 N   0  0  0  0  0  0
    4.8490   -8.9240   32.2650 C   0  0  2  0  0  0
    6.2520   -8.3690   32.3290 C   0  0  0  0  0  0
    6.9030   -8.4750   33.3660 O   0  0  0  0  0  0
    4.9160  -10.4490   32.3880 C   0  0  0  0  0  0
    3.5770  -11.0980   32.4310 C   0  0  0  0  0  0
    2.8140  -11.0760   33.5960 C   0  0  0  0  0  0
    3.0440  -11.6870   31.2910 C   0  0  0  0  0  0
    1.5440  -11.6240   33.6250 C   0  0  0  0  0  0
    1.7760  -12.2380   31.3100 C   0  0  0  0  0  0
    1.0200  -12.2060   32.4820 C   0  0  0  0  0  0
    6.7200   -7.7750   31.2410 N   0  0  0  0  0  0
    8.0800   -7.2410   31.1970 C   0  0  2  0  0  0
    8.3150   -6.0440   32.1160 C   0  0  0  0  0  0
    7.5080   -5.1150   32.1680 O   0  0  0  0  0  0
    8.4470   -6.8620   29.7580 C   0  0  0  0  0  0
    9.9080   -6.4660   29.5760 C   0  0  0  0  0  0
   10.2360   -6.1930   28.1130 C   0  0  0  0  0  0
    9.4860   -5.0580   27.5800 N   0  0  0  0  0  0
    9.6560   -3.7960   27.9650 C   0  0  0  0  0  0
   10.5560   -3.4940   28.8920 N   0  0  0  0  0  0
    8.9240   -2.8320   27.4210 N   0  0  0  0  0  0
    9.4360   -6.0800   32.8330 N   0  0  0  0  0  0
    9.8170   -5.0120   33.7510 C   0  0  2  0  0  0
   11.2980   -4.6790   33.5760 C   0  0  0  0  0  0
   11.6330   -3.4770   33.5620 O   0  0  0  0  0  0
    9.5480   -5.4290   35.2010 C   0  0  0  0  0  0
   10.3830   -6.6090   35.6690 C   0  0  0  0  0  0
   10.1410   -6.9300   37.1340 C   0  0  0  0  0  0
   10.9920   -8.1090   37.5740 C   0  0  0  0  0  0
   10.7900   -8.4490   39.0100 N   0  3  0  0  0  0
   12.1090   -5.6240   33.4670 O   0  0  0  0  0  0
   -2.1534  -12.3525   16.5964 H   0  0  0  0  0  0
   -1.6489  -13.5149   15.3232 H   0  0  0  0  0  0
   -0.4298  -12.4484   16.0998 H   0  0  0  0  0  0
   -2.0325  -14.6453   17.4435 H   0  0  0  0  0  0
   -0.3166  -15.5443   15.9482 H   0  0  0  0  0  0
    0.9102  -14.4223   16.6285 H   0  0  0  0  0  0
   -1.1873  -17.2712   17.1947 H   0  0  0  0  0  0
   -0.1908  -17.9052   18.6897 H   0  0  0  0  0  0
   -1.7606  -14.8994   19.6779 H   0  0  0  0  0  0
   -0.7325  -12.3161   20.6686 H   0  0  0  0  0  0
   -2.0904  -12.9330   22.8667 H   0  0  0  0  0  0
   -3.1040  -13.0228   21.3865 H   0  0  0  0  0  0
   -4.7251  -14.5623   21.8207 H   0  0  0  0  0  0
   -0.6730  -15.5588   22.8329 H   0  0  0  0  0  0
   -5.4790  -16.7759   22.5910 H   0  0  0  0  0  0
   -1.4299  -17.7900   23.6191 H   0  0  0  0  0  0
   -3.8423  -18.3999   23.4988 H   0  0  0  0  0  0
    1.0133  -14.8357   20.3005 H   0  0  0  0  0  0
    1.8313  -15.4850   22.9165 H   0  0  0  0  0  0
    3.5750  -15.2218   20.3444 H   0  0  0  0  0  0
    1.6401  -16.8377   20.1869 H   0  0  0  0  0  0
    5.0211  -15.3522   22.4022 H   0  0  0  0  0  0
    5.1177  -16.8492   21.4141 H   0  0  0  0  0  0
    4.1255  -16.8237   22.9113 H   0  0  0  0  0  0
    3.3303  -12.8814   20.8845 H   0  0  0  0  0  0
    4.9219  -12.1807   23.3093 H   0  0  0  0  0  0
    4.6716  -10.8832   20.5317 H   0  0  0  0  0  0
    5.8134  -10.3103   21.7945 H   0  0  0  0  0  0
    5.8249  -13.0368   20.4241 H   0  0  0  0  0  0
    6.6062  -11.0875   19.0782 H   0  0  0  0  0  0
    7.9549  -12.1926   19.5098 H   0  0  0  0  0  0
    7.7398  -10.6475   20.4003 H   0  0  0  0  0  0
    6.4745  -13.2388   22.7788 H   0  0  0  0  0  0
    7.6634  -11.9086   22.5697 H   0  0  0  0  0  0
    7.8785  -13.4537   21.6791 H   0  0  0  0  0  0
    1.8823  -11.1403   21.8503 H   0  0  0  0  0  0
    1.8357   -8.4876   23.0592 H   0  0  0  0  0  0
   -0.4001  -10.4894   22.4792 H   0  0  0  0  0  0
   -0.7060   -8.8201   23.0677 H   0  0  0  0  0  0
    0.5022   -7.9607   21.0610 H   0  0  0  0  0  0
    0.6054   -9.6505   20.4604 H   0  0  0  0  0  0
   -1.8398   -9.8421   20.4846 H   0  0  0  0  0  0
   -1.9855   -8.1943   21.1848 H   0  0  0  0  0  0
   -2.4454   -8.0834   18.8144 H   0  0  0  0  0  0
   -0.8653   -7.2890   19.1284 H   0  0  0  0  0  0
   -0.7968   -8.6683   17.1361 H   0  0  0  0  0  0
   -1.2879  -10.1029   18.0990 H   0  0  0  0  0  0
    0.2922   -9.3085   18.4131 H   0  0  0  0  0  0
    1.0223  -11.8351   24.2685 H   0  0  0  0  0  0
    0.1416  -10.6928   26.8239 H   0  0  0  0  0  0
    0.7566  -13.4667   25.7753 H   0  0  0  0  0  0
    0.7604  -13.2630   27.5600 H   0  0  0  0  0  0
   -1.3583  -11.9085   28.4753 H   0  0  0  0  0  0
   -1.1961  -14.0849   24.7911 H   0  0  0  0  0  0
   -3.8313  -12.1178   28.4914 H   0  0  0  0  0  0
   -3.6659  -14.2917   24.7959 H   0  0  0  0  0  0
   -4.9854  -13.3015   26.6524 H   0  0  0  0  0  0
    3.2745  -12.1623   25.5938 H   0  0  0  0  0  0
    4.4357  -12.1588   28.2408 H   0  0  0  0  0  0
    5.3574  -13.2616   26.1135 H   0  0  0  0  0  0
    5.9775  -11.6461   25.6316 H   0  0  0  0  0  0
    6.3247  -12.2110   29.3317 H   0  0  0  0  0  0
    8.0822  -13.0360   24.5909 H   0  0  0  0  0  0
   11.1289  -13.5336   28.5446 H   0  0  0  0  0  0
   10.4617  -13.6986   24.3019 H   0  0  0  0  0  0
   11.9563  -13.9395   26.2555 H   0  0  0  0  0  0
    4.1602   -9.5946   25.7722 H   0  0  0  0  0  0
    6.0177   -7.8210   27.0275 H   0  0  0  0  0  0
    3.4664   -7.3330   25.3830 H   0  0  0  0  0  0
    4.4559   -5.9468   25.9540 H   0  0  0  0  0  0
    5.6200   -6.9022   22.4794 H   0  0  0  0  0  0
    2.7572   -8.6836   28.0141 H   0  0  0  0  0  0
    2.3415   -6.2649   29.5664 H   0  0  0  0  0  0
    1.2977   -9.1508   29.9722 H   0  0  0  0  0  0
   -0.0423   -6.7184   28.6971 H   0  0  0  0  0  0
    0.8326   -7.9867   27.7737 H   0  0  0  0  0  0
    1.0790   -7.8597   32.0550 H   0  0  0  0  0  0
   -0.5172   -8.1876   31.2991 H   0  0  0  0  0  0
    0.2251   -6.5578   31.1590 H   0  0  0  0  0  0
   -1.5790   -8.3487   27.7331 H   0  0  0  0  0  0
   -1.6160   -8.4088   29.5280 H   0  0  0  0  0  0
   -0.7410   -9.6772   28.6047 H   0  0  0  0  0  0
    4.1444   -9.2003   30.1742 H   0  0  0  0  0  0
    4.2914   -8.4211   33.0688 H   0  0  0  0  0  0
    5.4562  -10.8631   31.5239 H   0  0  0  0  0  0
    5.4440  -10.7193   33.3144 H   0  0  0  0  0  0
    3.2233  -10.6205   34.4977 H   0  0  0  0  0  0
    3.6310  -11.7150   30.3730 H   0  0  0  0  0  0
    0.9578  -11.5980   34.5436 H   0  0  0  0  0  0
    1.3673  -12.6971   30.4098 H   0  0  0  0  0  0
    0.0193  -12.6379   32.4985 H   0  0  0  0  0  0
    6.0659   -7.6872   30.3610 H   0  0  0  0  0  0
    8.6870   -8.0754   31.5782 H   0  0  0  0  0  0
    8.2569   -7.7178   29.0936 H   0  0  0  0  0  0
    7.8356   -6.0057   29.4370 H   0  0  0  0  0  0
   10.1155   -5.5539   30.1548 H   0  0  0  0  0  0
   10.5558   -7.2810   29.9312 H   0  0  0  0  0  0
   11.3085   -5.9701   28.0131 H   0  0  0  0  0  0
    9.9879   -7.0790   27.5101 H   0  0  0  0  0  0
    8.7205   -5.2190   26.8066 H   0  0  0  0  0  0
   11.1656   -4.2889   29.3464 H   0  0  0  0  0  0
    8.1764   -3.0765   26.6521 H   0  0  0  0  0  0
    9.0649   -1.7884   27.7390 H   0  0  0  0  0  0
   10.0856   -6.9595   32.7125 H   0  0  0  0  0  0
    9.1929   -4.1468   33.4829 H   0  0  0  0  0  0
    9.7712   -4.5866   35.8722 H   0  0  0  0  0  0
    8.4915   -5.7150   35.3103 H   0  0  0  0  0  0
   10.1262   -7.4985   35.0749 H   0  0  0  0  0  0
   11.4505   -6.3772   35.5394 H   0  0  0  0  0  0
   10.4007   -6.0555   37.7487 H   0  0  0  0  0  0
    9.0807   -7.1817   37.2839 H   0  0  0  0  0  0
   10.7305   -8.9938   36.9750 H   0  0  0  0  0  0
   12.0554   -7.8685   37.4278 H   0  0  0  0  0  0
   11.4263   -9.3056   39.2770 H   0  0  0  0  0  0
    9.7348   -8.7089   39.1803 H   0  0  0  0  0  0
   11.0597   -7.5836   39.6331 H   0  0  0  0  0  0
   13.1817   -5.4163   33.3399 H   0  0  0  0  0  0
  1  2  1  0  0  0
  1117  1  0  0  0
  1118  1  0  0  0
  1119  1  0  0  0
  2  3  1  0  0  0
  2  5  1  0  0  0
  2120  1  0  0  0
  3  4  2  0  0  0
  3  9  1  0  0  0
  5  6  1  0  0  0
  5121  1  0  0  0
  5122  1  0  0  0
  6  7  2  0  0  0
  6  8  1  0  0  0
  8123  1  0  0  0
  8124  1  0  0  0
  9 10  1  0  0  0
  9125  1  0  0  0
 10 11  1  0  0  0
 10 13  1  0  0  0
 10126  1  0  0  0
 11 12  2  0  0  0
 11 20  1  0  0  0
 13 14  1  0  0  0
 13127  1  0  0  0
 13128  1  0  0  0
 14 15  2  0  0  0
 14 16  1  0  0  0
 15 17  1  0  0  0
 15129  1  0  0  0
 16 18  2  0  0  0
 16130  1  0  0  0
 17 19  2  0  0  0
 17131  1  0  0  0
 18 19  1  0  0  0
 18132  1  0  0  0
 19133  1  0  0  0
 20 21  1  0  0  0
 20134  1  0  0  0
 21 22  1  0  0  0
 21 24  1  0  0  0
 21135  1  0  0  0
 22 23  2  0  0  0
 22 27  1  0  0  0
 24 25  1  0  0  0
 24 26  1  0  0  0
 24136  1  0  0  0
 25137  1  0  0  0
 26138  1  0  0  0
 26139  1  0  0  0
 26140  1  0  0  0
 27 28  1  0  0  0
 27141  1  0  0  0
 28 29  1  0  0  0
 28 31  1  0  0  0
 28142  1  0  0  0
 29 30  2  0  0  0
 29 35  1  0  0  0
 31 32  1  0  0  0
 31143  1  0  0  0
 31144  1  0  0  0
 32 33  1  0  0  0
 32 34  1  0  0  0
 32145  1  0  0  0
 33146  1  0  0  0
 33147  1  0  0  0
 33148  1  0  0  0
 34149  1  0  0  0
 34150  1  0  0  0
 34151  1  0  0  0
 35 36  1  0  0  0
 35152  1  0  0  0
 36 37  1  0  0  0
 36 39  1  0  0  0
 36153  1  0  0  0
 37 38  2  0  0  0
 37 44  1  0  0  0
 39 40  1  0  0  0
 39154  1  0  0  0
 39155  1  0  0  0
 40 41  1  0  0  0
 40156  1  0  0  0
 40157  1  0  0  0
 41 42  1  0  0  0
 41158  1  0  0  0
 41159  1  0  0  0
 42 43  1  0  0  0
 42160  1  0  0  0
 42161  1  0  0  0
 43162  1  0  0  0
 43163  1  0  0  0
 43164  1  0  0  0
 44 45  1  0  0  0
 44165  1  0  0  0
 45 46  1  0  0  0
 45 48  1  0  0  0
 45166  1  0  0  0
 46 47  2  0  0  0
 46 55  1  0  0  0
 48 49  1  0  0  0
 48167  1  0  0  0
 48168  1  0  0  0
 49 50  2  0  0  0
 49 51  1  0  0  0
 50 52  1  0  0  0
 50169  1  0  0  0
 51 53  2  0  0  0
 51170  1  0  0  0
 52 54  2  0  0  0
 52171  1  0  0  0
 53 54  1  0  0  0
 53172  1  0  0  0
 54173  1  0  0  0
 55 56  1  0  0  0
 55174  1  0  0  0
 56 57  1  0  0  0
 56 59  1  0  0  0
 56175  1  0  0  0
 57 58  2  0  0  0
 57 69  1  0  0  0
 59 60  1  0  0  0
 59176  1  0  0  0
 59177  1  0  0  0
 60 61  2  0  0  0
 60 62  1  0  0  0
 61 63  1  0  0  0
 61178  1  0  0  0
 62 64  2  0  0  0
 62 65  1  0  0  0
 63 64  1  0  0  0
 64 66  1  0  0  0
 65 67  2  0  0  0
 65179  1  0  0  0
 66 68  2  0  0  0
 66180  1  0  0  0
 67 68  1  0  0  0
 67181  1  0  0  0
 68182  1  0  0  0
 69 70  1  0  0  0
 69183  1  0  0  0
 70 71  1  0  0  0
 70 73  1  0  0  0
 70184  1  0  0  0
 71 72  2  0  0  0
 71 77  1  0  0  0
 73 74  1  0  0  0
 73185  1  0  0  0
 73186  1  0  0  0
 74 75  2  0  0  0
 74 76  1  0  0  0
 76187  1  0  0  0
 77 78  1  0  0  0
 77188  1  0  0  0
 78 79  1  0  0  0
 78 81  1  0  0  0
 78189  1  0  0  0
 79 80  2  0  0  0
 79 85  1  0  0  0
 81 82  1  0  0  0
 81 83  1  0  0  0
 81190  1  0  0  0
 82 84  1  0  0  0
 82191  1  0  0  0
 82192  1  0  0  0
 83193  1  0  0  0
 83194  1  0  0  0
 83195  1  0  0  0
 84196  1  0  0  0
 84197  1  0  0  0
 84198  1  0  0  0
 85 86  1  0  0  0
 85199  1  0  0  0
 86 87  1  0  0  0
 86 89  1  0  0  0
 86200  1  0  0  0
 87 88  2  0  0  0
 87 96  1  0  0  0
 89 90  1  0  0  0
 89201  1  0  0  0
 89202  1  0  0  0
 90 91  2  0  0  0
 90 92  1  0  0  0
 91 93  1  0  0  0
 91203  1  0  0  0
 92 94  2  0  0  0
 92204  1  0  0  0
 93 95  2  0  0  0
 93205  1  0  0  0
 94 95  1  0  0  0
 94206  1  0  0  0
 95207  1  0  0  0
 96 97  1  0  0  0
 96208  1  0  0  0
 97 98  1  0  0  0
 97100  1  0  0  0
 97209  1  0  0  0
 98 99  2  0  0  0
 98107  1  0  0  0
100101  1  0  0  0
100210  1  0  0  0
100211  1  0  0  0
101102  1  0  0  0
101212  1  0  0  0
101213  1  0  0  0
102103  1  0  0  0
102214  1  0  0  0
102215  1  0  0  0
103104  1  0  0  0
103216  1  0  0  0
104105  2  0  0  0
104106  1  0  0  0
105217  1  0  0  0
106218  1  0  0  0
106219  1  0  0  0
107108  1  0  0  0
107220  1  0  0  0
108109  1  0  0  0
108111  1  0  0  0
108221  1  0  0  0
109110  2  0  0  0
109116  1  0  0  0
111112  1  0  0  0
111222  1  0  0  0
111223  1  0  0  0
112113  1  0  0  0
112224  1  0  0  0
112225  1  0  0  0
113114  1  0  0  0
113226  1  0  0  0
113227  1  0  0  0
114115  1  0  0  0
114228  1  0  0  0
114229  1  0  0  0
115230  1  0  0  0
115231  1  0  0  0
115232  1  0  0  0
116233  1  0  0  0
M  CHG  3   1   1  43   1 115   1
M  END
> <s_m_source_file>
../2pv2_ligand.sdf

> <i_m_source_file_index>
1

> <s_epik_input>
W2NIXTFbY0hdW2NIXVtjSF1bY0hdYzFbQ0gyXVtDQEhdKFtOSF1DKD1PKVtDQEBIXShbTkgzK10pW0NIMl1DKD1PKVtOSDJdKUMoPU8pW05IXVtDQEBIXShbQ0BIXShbT0hdKVtDSDNdKUMoPU8pW05IXVtDQEBIXShbQ0gyXVtDSF0oW0NIM10pW0NIM10pQyg9TylbTkhdW0NAQEhdKFtDSDJdW0NIMl1bQ0gyXVtDSDJdW05IMytdKUMoPU8pW05IXVtDQEBIXShbQ0gyXWMyW2NIXVtjSF1bY0hdW2NIXVtjSF0yKUMoPU8pW05IXVtDQEBIXShbQ0gyXWMzW2NIXVtuSF1jKGMzNClbY0hdW2NIXVtjSF1bY0hdNClDKD1PKVtOSF1bQ0BASF0oW0NIMl1DKD1PKVtPSF0pQyg9TylbTkhdW0NAQEhdKFtDQEBIXShbQ0gzXSlbQ0gyXVtDSDNdKUMoPU8pW05IXVtDQEBIXShbQ0gyXWM1W2NIXVtjSF1bY0hdW2NIXVtjSF01KUMoPU8pW05IXVtDQEBIXShbQ0gyXVtDSDJdW0NIMl1bTkhdL0MoPU5cW0hdKVtOSDJdKUMoPU8pW05IXVtDQEhdKEMoPU8pW09IXSlbQ0gyXVtDSDJdW0NIMl1bQ0gyXVtOSDMrXQ==

> <s_epik_cmdline>
J2VwaWtfYXBwJywgJy1pbWFlJywgJ2xpZ2FuZF9wcm8ubWFlJywgJy1vbWFlJywgJ2xpZ2FuZF9wcmVwLm1hZScsICctbXMnLCAnMScsICctcGgnLCAnNycsICctcGh0JywgJzAuNScsICctbnQn

> <s_epik_pKa_notes>
Molecule size exceeds maximum supported for generating protonation states

> <s_epik_Chemistry_Notes>
This compound has an imine and may undergo hydrolysis.

$$$$
