2pv3_ligand
                    3D
 Schrodinger Suite 2020-3.
188192  0  0  1  0            999 V2000
   77.1250   41.9920  -36.4230 N   0  3  0  0  0  0
   75.7100   42.1090  -36.8930 C   0  0  2  0  0  0
   75.4070   43.5370  -37.3450 C   0  0  0  0  0  0
   74.9920   43.7740  -38.4850 O   0  0  0  0  0  0
   74.7350   41.6870  -35.7840 C   0  0  0  0  0  0
   74.9440   40.2500  -35.3190 C   0  0  0  0  0  0
   75.3660   39.3850  -36.0870 O   0  0  0  0  0  0
   74.6340   39.9920  -34.0530 N   0  0  0  0  0  0
   75.6150   44.4780  -36.4290 N   0  0  0  0  0  0
   75.5580   45.8980  -36.7550 C   0  0  2  0  0  0
   76.9090   46.6120  -36.5970 C   0  0  0  0  0  0
   77.0190   47.7850  -36.9540 O   0  0  0  0  0  0
   74.4360   46.6300  -35.9720 C   0  0  0  0  0  0
   74.4770   46.4740  -34.4410 C   0  0  0  0  0  0
   73.2820   46.4300  -33.7250 C   0  0  0  0  0  0
   75.6690   46.4190  -33.7180 C   0  0  0  0  0  0
   73.2720   46.3150  -32.3370 C   0  0  0  0  0  0
   75.6590   46.3000  -32.3270 C   0  0  0  0  0  0
   74.4600   46.2500  -31.6410 C   0  0  0  0  0  0
   77.9290   45.9090  -36.0880 N   0  0  0  0  0  0
   79.2470   46.5080  -35.7860 C   0  0  2  0  0  0
   79.5440   47.6590  -36.7650 C   0  0  0  0  0  0
   79.8970   48.7750  -36.3510 O   0  0  0  0  0  0
   80.3950   45.4020  -35.7380 C   0  0  2  0  0  0
   81.6840   45.9900  -35.5030 O   0  0  0  0  0  0
   80.4480   44.5820  -37.0110 C   0  0  0  0  0  0
   79.3140   47.3910  -38.0530 N   0  0  0  0  0  0
   79.6030   48.3410  -39.1240 C   0  0  2  0  0  0
   78.5770   49.4590  -39.2400 C   0  0  0  0  0  0
   78.9100   50.6100  -38.9630 O   0  0  0  0  0  0
   79.7520   47.6050  -40.4560 C   0  0  0  0  0  0
   81.2230   47.2930  -40.7170 C   0  0  0  0  0  0
   81.3460   46.2190  -41.7700 C   0  0  0  0  0  0
   82.0020   48.5640  -41.1100 C   0  0  0  0  0  0
   77.3520   49.1140  -39.6560 N   0  0  0  0  0  0
   76.2010   50.0460  -39.6960 C   0  0  2  0  0  0
   76.3530   51.1620  -38.6660 C   0  0  0  0  0  0
   76.0280   52.3260  -38.9230 O   0  0  0  0  0  0
   74.8830   49.3170  -39.3760 C   0  0  0  0  0  0
   74.5750   48.0530  -40.1790 C   0  0  0  0  0  0
   73.4410   47.2520  -39.5360 C   0  0  0  0  0  0
   73.3730   45.8340  -40.0850 C   0  0  0  0  0  0
   72.6980   44.8980  -39.1470 N   0  3  0  0  0  0
   76.8310   50.7550  -37.4900 N   0  0  0  0  0  0
   77.0380   51.6130  -36.3270 C   0  0  2  0  0  0
   78.3480   52.4190  -36.3510 C   0  0  0  0  0  0
   78.3440   53.6390  -36.0720 O   0  0  0  0  0  0
   77.0350   50.7400  -35.0730 C   0  0  0  0  0  0
   75.8240   50.9060  -34.2100 C   0  0  0  0  0  0
   75.4840   52.1650  -33.7060 C   0  0  0  0  0  0
   75.0660   49.7960  -33.8430 C   0  0  0  0  0  0
   74.3830   52.3270  -32.8660 C   0  0  0  0  0  0
   73.9620   49.9310  -33.0080 C   0  0  0  0  0  0
   73.6160   51.2080  -32.5110 C   0  0  0  0  0  0
   79.4650   51.7360  -36.6400 N   0  0  0  0  0  0
   80.7550   52.4240  -36.8010 C   0  0  2  0  0  0
   80.5640   53.5740  -37.7740 C   0  0  0  0  0  0
   80.8650   54.7290  -37.4490 O   0  0  0  0  0  0
   81.8600   51.4930  -37.3110 C   0  0  0  0  0  0
   83.2290   52.1690  -37.3820 C   0  0  0  0  0  0
   83.5740   53.4110  -36.9010 C   0  0  0  0  0  0
   84.4280   51.6150  -37.9290 C   0  0  0  0  0  0
   84.9000   53.6620  -37.1390 N   0  0  0  0  0  0
   85.4490   52.5730  -37.7620 C   0  0  0  0  0  0
   84.7390   50.4040  -38.5520 C   0  0  0  0  0  0
   86.7570   52.3510  -38.1940 C   0  0  0  0  0  0
   86.0400   50.1880  -38.9810 C   0  0  0  0  0  0
   87.0300   51.1540  -38.8000 C   0  0  0  0  0  0
   80.0240   53.2500  -38.9470 N   0  0  0  0  0  0
   79.5690   54.2550  -39.8950 C   0  0  2  0  0  0
   78.5150   55.1730  -39.2430 C   0  0  0  0  0  0
   77.4220   55.3490  -39.7750 O   0  0  0  0  0  0
   78.9950   53.5920  -41.1590 C   0  0  0  0  0  0
   79.9630   52.6170  -41.8090 C   0  0  0  0  0  0
   81.0310   52.3510  -41.2230 O   0  0  0  0  0  0
   79.6480   52.1050  -42.9040 O   0  0  0  0  0  0
   78.8300   55.6900  -38.0530 N   0  0  0  0  0  0
   78.2720   56.9460  -37.5450 C   0  0  2  0  0  0
   79.4070   57.8470  -36.9840 C   0  0  0  0  0  0
   79.1660   59.0020  -36.6240 O   0  0  0  0  0  0
   77.1510   56.7030  -36.4760 C   0  0  2  0  0  0
   75.9700   55.9700  -37.1020 C   0  0  0  0  0  0
   76.6420   58.0320  -35.8600 C   0  0  0  0  0  0
   74.6920   55.9650  -36.2410 C   0  0  0  0  0  0
   80.6470   57.3490  -36.9610 N   0  0  0  0  0  0
   81.7260   58.0100  -36.2220 C   0  0  2  0  0  0
   83.0300   58.1490  -37.0090 C   0  0  0  0  0  0
   84.0060   57.4070  -36.8220 O   0  0  0  0  0  0
   81.9740   57.2470  -34.9300 C   0  0  0  0  0  0
   80.7570   57.1240  -34.0660 C   0  0  0  0  0  0
   80.4720   58.0890  -33.1000 C   0  0  0  0  0  0
   79.8900   56.0510  -34.2220 C   0  0  0  0  0  0
   79.3500   57.9800  -32.2950 C   0  0  0  0  0  0
   78.7670   55.9350  -33.4230 C   0  0  0  0  0  0
   78.4940   56.9070  -32.4560 C   0  0  0  0  0  0
   83.1209   59.1036  -37.9306 O   0  0  0  0  0  0
   77.3208   40.9579  -36.1031 H   0  0  0  0  0  0
   77.2877   42.6749  -35.5761 H   0  0  0  0  0  0
   77.8072   42.2571  -37.2442 H   0  0  0  0  0  0
   75.6055   41.4308  -37.7527 H   0  0  0  0  0  0
   74.8673   42.3424  -34.9106 H   0  0  0  0  0  0
   73.7020   41.7711  -36.1524 H   0  0  0  0  0  0
   74.2602   40.7970  -33.4032 H   0  0  0  0  0  0
   74.7512   38.9734  -33.6547 H   0  0  0  0  0  0
   75.8354   44.1584  -35.3998 H   0  0  0  0  0  0
   75.3158   45.8760  -37.8278 H   0  0  0  0  0  0
   74.4934   47.7100  -36.1728 H   0  0  0  0  0  0
   73.4556   46.2489  -36.2938 H   0  0  0  0  0  0
   72.3355   46.4868  -34.2626 H   0  0  0  0  0  0
   76.6210   46.4696  -34.2464 H   0  0  0  0  0  0
   72.3239   46.2764  -31.8006 H   0  0  0  0  0  0
   76.6002   46.2463  -31.7799 H   0  0  0  0  0  0
   74.4540   46.1596  -30.5548 H   0  0  0  0  0  0
   77.7533   44.8404  -35.8950 H   0  0  0  0  0  0
   79.1441   46.9568  -34.7870 H   0  0  0  0  0  0
   80.2434   44.7189  -34.8892 H   0  0  0  0  0  0
   81.8458   46.6256  -34.6199 H   0  0  0  0  0  0
   79.4630   44.1288  -37.1965 H   0  0  0  0  0  0
   81.2026   43.7887  -36.9049 H   0  0  0  0  0  0
   80.7169   45.2333  -37.8557 H   0  0  0  0  0  0
   78.8881   46.4054  -38.2922 H   0  0  0  0  0  0
   80.5526   48.8036  -38.8170 H   0  0  0  0  0  0
   79.1829   46.6643  -40.4208 H   0  0  0  0  0  0
   79.3658   48.2370  -41.2693 H   0  0  0  0  0  0
   81.6670   46.8958  -39.7923 H   0  0  0  0  0  0
   80.7789   45.3305  -41.4554 H   0  0  0  0  0  0
   82.4052   45.9514  -41.8988 H   0  0  0  0  0  0
   80.9435   46.5923  -42.7232 H   0  0  0  0  0  0
   81.8892   49.3219  -40.3208 H   0  0  0  0  0  0
   81.6055   48.9589  -42.0570 H   0  0  0  0  0  0
   83.0671   48.3180  -41.2326 H   0  0  0  0  0  0
   77.2262   48.0704  -39.9803 H   0  0  0  0  0  0
   76.2121   50.4475  -40.7200 H   0  0  0  0  0  0
   74.8839   49.0038  -38.3215 H   0  0  0  0  0  0
   74.0358   49.9950  -39.5564 H   0  0  0  0  0  0
   74.2733   48.3314  -41.1995 H   0  0  0  0  0  0
   75.4724   47.4183  -40.2222 H   0  0  0  0  0  0
   73.6024   47.1955  -38.4494 H   0  0  0  0  0  0
   72.4806   47.7485  -39.7387 H   0  0  0  0  0  0
   72.8108   45.8335  -41.0305 H   0  0  0  0  0  0
   74.3922   45.4609  -40.2642 H   0  0  0  0  0  0
   72.6744   43.8906  -39.5880 H   0  0  0  0  0  0
   71.6695   45.2418  -38.9627 H   0  0  0  0  0  0
   73.2509   44.8693  -38.1965 H   0  0  0  0  0  0
   77.0755   49.6840  -37.4338 H   0  0  0  0  0  0
   76.1970   52.3202  -36.3782 H   0  0  0  0  0  0
   77.0798   49.6801  -35.3640 H   0  0  0  0  0  0
   77.9088   50.9870  -34.4521 H   0  0  0  0  0  0
   76.0881   53.0320  -33.9735 H   0  0  0  0  0  0
   75.3418   48.8093  -34.2151 H   0  0  0  0  0  0
   74.1206   53.3153  -32.4884 H   0  0  0  0  0  0
   73.3677   49.0579  -32.7387 H   0  0  0  0  0  0
   72.7546   51.3229  -31.8530 H   0  0  0  0  0  0
   79.4058   50.6438  -36.7567 H   0  0  0  0  0  0
   81.0398   52.7792  -35.7997 H   0  0  0  0  0  0
   81.9504   50.6279  -36.6376 H   0  0  0  0  0  0
   81.6078   51.1447  -38.3235 H   0  0  0  0  0  0
   82.8901   54.0974  -36.4018 H   0  0  0  0  0  0
   83.9729   49.6425  -38.6983 H   0  0  0  0  0  0
   87.5333   53.1032  -38.0541 H   0  0  0  0  0  0
   86.2935   49.2466  -39.4683 H   0  0  0  0  0  0
   88.0427   50.9515  -39.1485 H   0  0  0  0  0  0
   79.9271   52.1814  -39.1894 H   0  0  0  0  0  0
   80.4699   54.8310  -40.1531 H   0  0  0  0  0  0
   78.0832   53.0345  -40.8987 H   0  0  0  0  0  0
   78.7518   54.3666  -41.9012 H   0  0  0  0  0  0
   80.3301   51.3962  -43.3963 H   0  0  0  0  0  0
   79.5484   55.1213  -37.4443 H   0  0  0  0  0  0
   77.8207   57.4178  -38.4303 H   0  0  0  0  0  0
   77.5738   56.0796  -35.6743 H   0  0  0  0  0  0
   75.7090   56.4453  -38.0591 H   0  0  0  0  0  0
   76.2420   54.9186  -37.2769 H   0  0  0  0  0  0
   77.4853   58.5716  -35.4043 H   0  0  0  0  0  0
   75.8872   57.8139  -35.0901 H   0  0  0  0  0  0
   76.1924   58.6532  -36.6487 H   0  0  0  0  0  0
   73.8969   55.4174  -36.7682 H   0  0  0  0  0  0
   74.3670   57.0004  -36.0612 H   0  0  0  0  0  0
   74.8999   55.4737  -35.2790 H   0  0  0  0  0  0
   80.8483   56.4200  -37.5145 H   0  0  0  0  0  0
   81.3515   59.0275  -36.0367 H   0  0  0  0  0  0
   82.3149   56.2281  -35.1656 H   0  0  0  0  0  0
   82.7453   57.7646  -34.3407 H   0  0  0  0  0  0
   81.1413   58.9405  -32.9769 H   0  0  0  0  0  0
   80.0957   55.2947  -34.9795 H   0  0  0  0  0  0
   79.1433   58.7368  -31.5383 H   0  0  0  0  0  0
   78.0950   55.0859  -33.5473 H   0  0  0  0  0  0
   77.6065   56.8186  -31.8294 H   0  0  0  0  0  0
   84.0488   59.2229  -38.5093 H   0  0  0  0  0  0
  1  2  1  0  0  0
  1 97  1  0  0  0
  1 98  1  0  0  0
  1 99  1  0  0  0
  2  5  1  0  0  0
  2  3  1  0  0  0
  2100  1  0  0  0
  3  4  2  0  0  0
  3  9  1  0  0  0
  5  6  1  0  0  0
  5101  1  0  0  0
  5102  1  0  0  0
  6  8  1  0  0  0
  6  7  2  0  0  0
  8103  1  0  0  0
  8104  1  0  0  0
  9 10  1  0  0  0
  9105  1  0  0  0
 10 13  1  0  0  0
 10 11  1  0  0  0
 10106  1  0  0  0
 11 12  2  0  0  0
 11 20  1  0  0  0
 13 14  1  0  0  0
 13107  1  0  0  0
 13108  1  0  0  0
 14 15  2  0  0  0
 14 16  1  0  0  0
 15 17  1  0  0  0
 15109  1  0  0  0
 16 18  2  0  0  0
 16110  1  0  0  0
 17 19  2  0  0  0
 17111  1  0  0  0
 18 19  1  0  0  0
 18112  1  0  0  0
 19113  1  0  0  0
 20 21  1  0  0  0
 20114  1  0  0  0
 21 24  1  0  0  0
 21 22  1  0  0  0
 21115  1  0  0  0
 22 23  2  0  0  0
 22 27  1  0  0  0
 24 26  1  0  0  0
 24 25  1  0  0  0
 24116  1  0  0  0
 25117  1  0  0  0
 26118  1  0  0  0
 26119  1  0  0  0
 26120  1  0  0  0
 27 28  1  0  0  0
 27121  1  0  0  0
 28 31  1  0  0  0
 28 29  1  0  0  0
 28122  1  0  0  0
 29 30  2  0  0  0
 29 35  1  0  0  0
 31 32  1  0  0  0
 31123  1  0  0  0
 31124  1  0  0  0
 32 33  1  0  0  0
 32 34  1  0  0  0
 32125  1  0  0  0
 33126  1  0  0  0
 33127  1  0  0  0
 33128  1  0  0  0
 34129  1  0  0  0
 34130  1  0  0  0
 34131  1  0  0  0
 35 36  1  0  0  0
 35132  1  0  0  0
 36 39  1  0  0  0
 36 37  1  0  0  0
 36133  1  0  0  0
 37 38  2  0  0  0
 37 44  1  0  0  0
 39 40  1  0  0  0
 39134  1  0  0  0
 39135  1  0  0  0
 40 41  1  0  0  0
 40136  1  0  0  0
 40137  1  0  0  0
 41 42  1  0  0  0
 41138  1  0  0  0
 41139  1  0  0  0
 42 43  1  0  0  0
 42140  1  0  0  0
 42141  1  0  0  0
 43142  1  0  0  0
 43143  1  0  0  0
 43144  1  0  0  0
 44 45  1  0  0  0
 44145  1  0  0  0
 45 48  1  0  0  0
 45 46  1  0  0  0
 45146  1  0  0  0
 46 47  2  0  0  0
 46 55  1  0  0  0
 48 49  1  0  0  0
 48147  1  0  0  0
 48148  1  0  0  0
 49 50  2  0  0  0
 49 51  1  0  0  0
 50 52  1  0  0  0
 50149  1  0  0  0
 51 53  2  0  0  0
 51150  1  0  0  0
 52 54  2  0  0  0
 52151  1  0  0  0
 53 54  1  0  0  0
 53152  1  0  0  0
 54153  1  0  0  0
 55 56  1  0  0  0
 55154  1  0  0  0
 56 59  1  0  0  0
 56 57  1  0  0  0
 56155  1  0  0  0
 57 58  2  0  0  0
 57 69  1  0  0  0
 59 60  1  0  0  0
 59156  1  0  0  0
 59157  1  0  0  0
 60 61  2  0  0  0
 60 62  1  0  0  0
 61 63  1  0  0  0
 61158  1  0  0  0
 62 65  2  0  0  0
 62 64  1  0  0  0
 63 64  1  0  0  0
 64 66  2  0  0  0
 65 67  1  0  0  0
 65159  1  0  0  0
 66 68  1  0  0  0
 66160  1  0  0  0
 67 68  2  0  0  0
 67161  1  0  0  0
 68162  1  0  0  0
 69 70  1  0  0  0
 69163  1  0  0  0
 70 73  1  0  0  0
 70 71  1  0  0  0
 70164  1  0  0  0
 71 72  2  0  0  0
 71 77  1  0  0  0
 73 74  1  0  0  0
 73165  1  0  0  0
 73166  1  0  0  0
 74 75  2  0  0  0
 74 76  1  0  0  0
 76167  1  0  0  0
 77 78  1  0  0  0
 77168  1  0  0  0
 78 81  1  0  0  0
 78 79  1  0  0  0
 78169  1  0  0  0
 79 80  2  0  0  0
 79 85  1  0  0  0
 81 83  1  0  0  0
 81 82  1  0  0  0
 81170  1  0  0  0
 82 84  1  0  0  0
 82171  1  0  0  0
 82172  1  0  0  0
 83173  1  0  0  0
 83174  1  0  0  0
 83175  1  0  0  0
 84176  1  0  0  0
 84177  1  0  0  0
 84178  1  0  0  0
 85 86  1  0  0  0
 85179  1  0  0  0
 86 89  1  0  0  0
 86 87  1  0  0  0
 86180  1  0  0  0
 87 88  2  0  0  0
 87 96  1  0  0  0
 89 90  1  0  0  0
 89181  1  0  0  0
 89182  1  0  0  0
 90 91  2  0  0  0
 90 92  1  0  0  0
 91 93  1  0  0  0
 91183  1  0  0  0
 92 94  2  0  0  0
 92184  1  0  0  0
 93 95  2  0  0  0
 93185  1  0  0  0
 94 95  1  0  0  0
 94186  1  0  0  0
 95187  1  0  0  0
 96188  1  0  0  0
M  CHG  2   1   1  43   1
M  END
> <s_m_source_file>
../2pv3_ligand.sdf

> <i_m_source_file_index>
1

> <s_epik_input>
W2NIXTFbY0hdW2NIXVtjSF1bY0hdYzFbQ0gyXVtDQEhdKFtOSF1DKD1PKVtDQEBIXShbTkgzK10pW0NIMl1DKD1PKVtOSDJdKUMoPU8pW05IXVtDQEBIXShbQ0BIXShbT0hdKVtDSDNdKUMoPU8pW05IXVtDQEBIXShbQ0gyXVtDSF0oW0NIM10pW0NIM10pQyg9TylbTkhdW0NAQEhdKFtDSDJdW0NIMl1bQ0gyXVtDSDJdW05IMytdKUMoPU8pW05IXVtDQEBIXShbQ0gyXWMyW2NIXVtjSF1bY0hdW2NIXVtjSF0yKUMoPU8pW05IXVtDQEBIXShbQ0gyXWMzW2NIXVtuSF1jKGMzNClbY0hdW2NIXVtjSF1bY0hdNClDKD1PKVtOSF1bQ0BASF0oW0NIMl1DKD1PKVtPSF0pQyg9TylbTkhdW0NAQEhdKFtDQEBIXShbQ0gzXSlbQ0gyXVtDSDNdKUMoPU8pW05IXVtDQEhdKEMoPU8pW09IXSlbQ0gyXWM1W2NIXVtjSF1bY0hdW2NIXVtjSF01

> <s_epik_cmdline>
J2VwaWtfYXBwJywgJy1pbWFlJywgJ2xpZ2FuZF9wcm8ubWFlJywgJy1vbWFlJywgJ2xpZ2FuZF9wcmVwLm1hZScsICctbXMnLCAnMScsICctcGgnLCAnNycsICctcGh0JywgJzAuNScsICctbnQn

> <s_epik_pKa_notes>
Molecule size exceeds maximum supported for generating protonation states

$$$$
