2pvj_ligand
                    3D
 Schrodinger Suite 2020-3.
 47 50  0  0  1  0            999 V2000
   20.1150    9.5890   19.7490 N   0  0  0  0  0  0
   20.3570    9.8500   18.4370 C   0  0  0  0  0  0
   21.3330    8.9370   17.9920 C   0  0  0  0  0  0
   21.6480    8.1070   19.1310 C   0  0  0  0  0  0
   20.8890    8.5490   20.1760 N   0  0  0  0  0  0
   22.4960    7.0790   19.2960 N   0  0  0  0  0  0
   22.5510    6.5420   20.5110 C   0  0  0  0  0  0
   21.8330    6.9620   21.5460 N   0  0  0  0  0  0
   20.9950    7.9770   21.3620 C   0  0  0  0  0  0
   20.2380    8.4540   22.3830 N   0  0  0  0  0  0
   20.3150    8.1190   23.7000 C   0  0  0  0  0  0
   20.6540    6.8510   24.1700 C   0  0  0  0  0  0
   20.6440    6.5590   25.5330 C   0  0  0  0  0  0
   20.2930    7.5460   26.4500 C   0  0  0  0  0  0
   19.9870    8.8250   25.9910 C   0  0  0  0  0  0
   19.9990    9.1130   24.6270 C   0  0  0  0  0  0
   23.3800    5.4860   20.6960 N   0  0  0  0  0  0
   23.5450    4.8670   22.0080 C   0  0  0  0  0  0
   22.5240    3.7540   22.2420 C   0  0  0  0  0  0
   22.6730    2.6100   21.2330 C   0  0  0  0  0  0
   21.5680    1.5720   21.4640 C   0  0  0  0  0  0
   21.6170    1.0080   22.8870 C   0  0  0  0  0  0
   21.4980    2.1430   23.9130 C   0  0  0  0  0  0
   22.5540    3.2280   23.6820 C   0  0  0  0  0  0
   21.9590    8.8590   16.7050 C   0  0  0  0  0  0
   22.5400    8.8590   15.7020 N   0  0  0  0  0  0
   19.8814   10.6261   17.8373 H   0  0  0  0  0  0
   19.4548    9.2005   22.1848 H   0  0  0  0  0  0
   20.9320    6.0735   23.4585 H   0  0  0  0  0  0
   20.9103    5.5606   25.8799 H   0  0  0  0  0  0
   20.2580    7.3203   27.5158 H   0  0  0  0  0  0
   19.7356    9.6087   26.7056 H   0  0  0  0  0  0
   19.7604   10.1194   24.2830 H   0  0  0  0  0  0
   23.9352    5.0961   19.8301 H   0  0  0  0  0  0
   24.5529    4.4331   22.0846 H   0  0  0  0  0  0
   23.4128    5.6276   22.7916 H   0  0  0  0  0  0
   21.5371    4.2121   22.0800 H   0  0  0  0  0  0
   22.5912    3.0093   20.2113 H   0  0  0  0  0  0
   23.6555    2.1325   21.3625 H   0  0  0  0  0  0
   20.5855    2.0418   21.3092 H   0  0  0  0  0  0
   21.6924    0.7401   20.7552 H   0  0  0  0  0  0
   20.7840    0.3042   23.0313 H   0  0  0  0  0  0
   22.5714    0.4831   23.0407 H   0  0  0  0  0  0
   20.5031    2.6057   23.8342 H   0  0  0  0  0  0
   21.6344    1.7372   24.9263 H   0  0  0  0  0  0
   23.5437    2.7976   23.8946 H   0  0  0  0  0  0
   22.3568    4.0559   24.3790 H   0  0  0  0  0  0
  1  2  2  0  0  0
  1  5  1  0  0  0
  2  3  1  0  0  0
  2 27  1  0  0  0
  3  4  2  0  0  0
  3 25  1  0  0  0
  4  5  1  0  0  0
  4  6  1  0  0  0
  5  9  1  0  0  0
  6  7  2  0  0  0
  7  8  1  0  0  0
  7 17  1  0  0  0
  8  9  2  0  0  0
  9 10  1  0  0  0
 10 11  1  0  0  0
 10 28  1  0  0  0
 11 12  2  0  0  0
 11 16  1  0  0  0
 12 13  1  0  0  0
 12 29  1  0  0  0
 13 14  2  0  0  0
 13 30  1  0  0  0
 14 15  1  0  0  0
 14 31  1  0  0  0
 15 16  2  0  0  0
 15 32  1  0  0  0
 16 33  1  0  0  0
 17 18  1  0  0  0
 17 34  1  0  0  0
 18 19  1  0  0  0
 18 35  1  0  0  0
 18 36  1  0  0  0
 19 20  1  0  0  0
 19 24  1  0  0  0
 19 37  1  0  0  0
 20 21  1  0  0  0
 20 38  1  0  0  0
 20 39  1  0  0  0
 21 22  1  0  0  0
 21 40  1  0  0  0
 21 41  1  0  0  0
 22 23  1  0  0  0
 22 42  1  0  0  0
 22 43  1  0  0  0
 23 24  1  0  0  0
 23 44  1  0  0  0
 23 45  1  0  0  0
 24 46  1  0  0  0
 24 47  1  0  0  0
 25 26  3  0  0  0
M  END
> <s_m_source_file>
../2pvj_ligand.sdf

> <i_m_source_file_index>
1

> <s_epik_input>
W2NIXTFbY0hdW2NIXVtjSF1bY0hdYzFbTkhdYyhuKGMyMyluW2NIXWMyQyNOKW5jKG4zKVtOSF1bQ0gyXVtDSF00W0NIMl1bQ0gyXVtDSDJdW0NIMl1bQ0gyXTQ=

> <s_epik_cmdline>
J2VwaWtfYXBwJywgJy1pbWFlJywgJ2xpZ2FuZF9wcm8ubWFlJywgJy1vbWFlJywgJ2xpZ2FuZF9wcmVwLm1hZScsICctbXMnLCAnMScsICctcGgnLCAnNycsICctcGh0JywgJzAuNScsICctbnQn

> <r_lp_tautomer_probability>
1

> <r_epik_Ionization_Penalty>
  0.0000

> <r_epik_Ionization_Penalty_Charging>
  0.0000

> <r_epik_Ionization_Penalty_Neutral>
  0.0000

> <r_epik_State_Penalty>
 -0.0000

> <r_epik_Charging_Adjusted_Penalty>
0

> <i_epik_Tot_Q>
0

> <i_epik_Tot_abs_Q>
0

$$$$
