2pvk_ligand
                    3D
 Schrodinger Suite 2020-3.
 41 44  0  0  1  0            999 V2000
   20.1200    9.4960   19.7630 N   0  0  0  0  0  0
   20.3890    9.7720   18.4630 C   0  0  0  0  0  0
   21.3940    8.8920   18.0260 C   0  0  0  0  0  0
   21.6970    8.0640   19.1720 C   0  0  0  0  0  0
   20.9030    8.4730   20.2070 N   0  0  0  0  0  0
   22.5530    7.0510   19.3740 N   0  0  0  0  0  0
   22.5820    6.5020   20.5830 C   0  0  0  0  0  0
   21.8250    6.8860   21.6070 N   0  0  0  0  0  0
   20.9800    7.8910   21.3940 C   0  0  0  0  0  0
   20.2110    8.3430   22.4170 N   0  0  0  0  0  0
   20.2970    7.9630   23.7220 C   0  0  0  0  0  0
   20.6340    6.6690   24.1190 C   0  0  0  0  0  0
   20.6120    6.2930   25.4620 C   0  0  0  0  0  0
   20.2480    7.2200   26.4390 C   0  0  0  0  0  0
   19.9580    8.5300   26.0550 C   0  0  0  0  0  0
   19.9890    8.9020   24.7120 C   0  0  0  0  0  0
   23.4510    5.4820   20.7780 N   0  0  0  0  0  0
   23.6170    4.8260   22.0710 C   0  0  0  0  0  0
   22.5940    3.7600   22.3850 C   0  0  0  0  0  0
   22.3590    3.4210   23.7160 C   0  0  0  0  0  0
   21.4360    2.4260   24.0330 C   0  0  0  0  0  0
   20.7400    1.7500   23.0310 C   0  0  0  0  0  0
   20.9530    2.1220   21.7060 C   0  0  0  0  0  0
   21.8790    3.1130   21.3770 C   0  0  0  0  0  0
   21.9880    8.8670   16.7230 C   0  0  0  0  0  0
   22.4920    8.9460   15.6820 N   0  0  0  0  0  0
   19.6540    0.4560   23.4370 Cl  0  0  0  0  0  0
   19.9087   10.5432   17.8608 H   0  0  0  0  0  0
   19.4266    9.0904   22.2269 H   0  0  0  0  0  0
   20.9204    5.9366   23.3642 H   0  0  0  0  0  0
   20.8790    5.2756   25.7480 H   0  0  0  0  0  0
   20.1909    6.9254   27.4869 H   0  0  0  0  0  0
   19.7045    9.2704   26.8137 H   0  0  0  0  0  0
   19.7716    9.9325   24.4311 H   0  0  0  0  0  0
   24.0450    5.1513   19.9132 H   0  0  0  0  0  0
   24.6018    4.3374   22.1105 H   0  0  0  0  0  0
   23.5467    5.5747   22.8738 H   0  0  0  0  0  0
   22.8985    3.9353   24.5113 H   0  0  0  0  0  0
   21.2557    2.1728   25.0777 H   0  0  0  0  0  0
   20.3877    1.6316   20.9135 H   0  0  0  0  0  0
   22.0434    3.3812   20.3334 H   0  0  0  0  0  0
  1  2  2  0  0  0
  1  5  1  0  0  0
  2  3  1  0  0  0
  2 28  1  0  0  0
  3  4  2  0  0  0
  3 25  1  0  0  0
  4  5  1  0  0  0
  4  6  1  0  0  0
  5  9  1  0  0  0
  6  7  2  0  0  0
  7  8  1  0  0  0
  7 17  1  0  0  0
  8  9  2  0  0  0
  9 10  1  0  0  0
 10 11  1  0  0  0
 10 29  1  0  0  0
 11 12  2  0  0  0
 11 16  1  0  0  0
 12 13  1  0  0  0
 12 30  1  0  0  0
 13 14  2  0  0  0
 13 31  1  0  0  0
 14 15  1  0  0  0
 14 32  1  0  0  0
 15 16  2  0  0  0
 15 33  1  0  0  0
 16 34  1  0  0  0
 17 18  1  0  0  0
 17 35  1  0  0  0
 18 19  1  0  0  0
 18 36  1  0  0  0
 18 37  1  0  0  0
 19 20  2  0  0  0
 19 24  1  0  0  0
 20 21  1  0  0  0
 20 38  1  0  0  0
 21 22  2  0  0  0
 21 39  1  0  0  0
 22 23  1  0  0  0
 22 27  1  0  0  0
 23 24  2  0  0  0
 23 40  1  0  0  0
 24 41  1  0  0  0
 25 26  3  0  0  0
M  END
> <s_m_source_file>
../2pvk_ligand.sdf

> <i_m_source_file_index>
1

> <s_epik_input>
W2NIXTFbY0hdW2NIXVtjSF1bY0hdYzFbTkhdYyhuKGMyMyluW2NIXWMyQyNOKW5jKG4zKVtOSF1bQ0gyXWM0W2NIXVtjSF1jKENsKVtjSF1bY0hdNA==

> <s_epik_cmdline>
J2VwaWtfYXBwJywgJy1pbWFlJywgJ2xpZ2FuZF9wcm8ubWFlJywgJy1vbWFlJywgJ2xpZ2FuZF9wcmVwLm1hZScsICctbXMnLCAnMScsICctcGgnLCAnNycsICctcGh0JywgJzAuNScsICctbnQn

> <r_lp_tautomer_probability>
1

> <r_epik_Ionization_Penalty>
  0.0000

> <r_epik_Ionization_Penalty_Charging>
  0.0000

> <r_epik_Ionization_Penalty_Neutral>
  0.0000

> <r_epik_State_Penalty>
 -0.0000

> <r_epik_Charging_Adjusted_Penalty>
0

> <i_epik_Tot_Q>
0

> <i_epik_Tot_abs_Q>
0

$$$$
