2pvm_ligand
                    3D
 Schrodinger Suite 2020-3.
 40 43  0  0  1  0            999 V2000
   20.1340    9.9390   19.7070 N   0  0  0  0  0  0
   20.4390   10.0350   18.3860 C   0  0  0  0  0  0
   21.4070    9.0650   18.0660 C   0  0  0  0  0  0
   21.6650    8.3550   19.3000 C   0  0  0  0  0  0
   20.8760    8.9320   20.2520 N   0  0  0  0  0  0
   22.4740    7.3330   19.6320 N   0  0  0  0  0  0
   22.4660    6.9290   20.9010 C   0  0  0  0  0  0
   21.7110    7.4830   21.8430 N   0  0  0  0  0  0
   20.9190    8.4910   21.4950 C   0  0  0  0  0  0
   20.1550    9.1040   22.4290 N   0  0  0  0  0  0
   20.1440    8.6660   23.8230 C   0  0  0  0  0  0
   21.3140    9.2600   24.6070 C   0  0  0  0  0  0
   21.2570    8.7150   26.0160 C   0  0  0  0  0  0
   21.2900    7.3950   26.3010 N   0  0  0  0  0  0
   21.2220    7.2880   27.6570 C   0  0  0  0  0  0
   21.1460    8.5320   28.2120 N   0  0  0  0  0  0
   21.1660    9.4540   27.2120 C   0  0  0  0  0  0
   23.2210    5.8920   21.3510 N   0  0  0  0  0  0
   23.9910    5.0260   20.6430 C   0  0  0  0  0  0
   23.9970    4.9270   19.2490 C   0  0  0  0  0  0
   24.8190    4.0160   18.5890 C   0  0  0  0  0  0
   25.6530    3.1850   19.3320 C   0  0  0  0  0  0
   25.6500    3.2670   20.7230 C   0  0  0  0  0  0
   24.8230    4.1810   21.3750 C   0  0  0  0  0  0
   22.0690    8.8930   16.8090 C   0  0  0  0  0  0
   22.6610    8.8540   15.8130 N   0  0  0  0  0  0
   20.0037   10.7488   17.6867 H   0  0  0  0  0  0
   19.5309    9.9535   22.1145 H   0  0  0  0  0  0
   19.2066    8.9869   24.3008 H   0  0  0  0  0  0
   20.2194    7.5693   23.8634 H   0  0  0  0  0  0
   22.1131    9.9591   24.3196 H   0  0  0  0  0  0
   21.2275    6.3511   28.2141 H   0  0  0  0  0  0
   21.1141   10.5264   27.4515 H   0  0  0  0  0  0
   23.2597    5.6660   22.4268 H   0  0  0  0  0  0
   23.3445    5.5765   18.6655 H   0  0  0  0  0  0
   24.8092    3.9545   17.5008 H   0  0  0  0  0  0
   26.3059    2.4728   18.8275 H   0  0  0  0  0  0
   26.2984    2.6123   21.3053 H   0  0  0  0  0  0
   24.8273    4.2349   22.4637 H   0  0  0  0  0  0
   21.3600    6.6582   25.4872 H   0  0  0  0  0  0
  1  2  2  0  0  0
  1  5  1  0  0  0
  2  3  1  0  0  0
  2 27  1  0  0  0
  3  4  2  0  0  0
  3 25  1  0  0  0
  4  5  1  0  0  0
  4  6  1  0  0  0
  5  9  1  0  0  0
  6  7  2  0  0  0
  7  8  1  0  0  0
  7 18  1  0  0  0
  8  9  2  0  0  0
  9 10  1  0  0  0
 10 11  1  0  0  0
 10 28  1  0  0  0
 11 12  1  0  0  0
 11 29  1  0  0  0
 11 30  1  0  0  0
 12 13  2  0  0  0
 12 31  1  0  0  0
 13 14  1  0  0  0
 13 17  1  0  0  0
 14 15  1  0  0  0
 14 40  1  0  0  0
 15 16  1  0  0  0
 15 32  1  0  0  0
 16 17  2  0  0  0
 17 33  1  0  0  0
 18 19  1  0  0  0
 18 34  1  0  0  0
 19 20  2  0  0  0
 19 24  1  0  0  0
 20 21  1  0  0  0
 20 35  1  0  0  0
 21 22  2  0  0  0
 21 36  1  0  0  0
 22 23  1  0  0  0
 22 37  1  0  0  0
 23 24  2  0  0  0
 23 38  1  0  0  0
 24 39  1  0  0  0
 25 26  3  0  0  0
M  END
> <s_m_source_file>
../2pvm_ligand.sdf

> <i_m_source_file_index>
1

> <s_epik_input>
W0NIXTE9TltDSDJdTj1DMVtDSDJdW0NIMl1bTkhdYyhuKGMyMyluW2NIXWMyQyNOKW5jKG4zKVtOSF1jNFtjSF1bY0hdW2NIXVtjSF1bY0hdNA==

> <s_epik_cmdline>
J2VwaWtfYXBwJywgJy1pbWFlJywgJ2xpZ2FuZF9wcm8ubWFlJywgJy1vbWFlJywgJ2xpZ2FuZF9wcmVwLm1hZScsICctbXMnLCAnMScsICctcGgnLCAnNycsICctcGh0JywgJzAuNScsICctbnQn

> <r_lp_tautomer_probability>
1

> <r_epik_Ionization_Penalty>
  0.0000

> <r_epik_Ionization_Penalty_Charging>
  0.0000

> <r_epik_Ionization_Penalty_Neutral>
  0.0000

> <r_epik_State_Penalty>
 -0.0000

> <r_epik_Charging_Adjusted_Penalty>
6.97352145779511e-09

> <i_epik_Tot_Q>
0

> <i_epik_Tot_abs_Q>
0

> <s_epik_Chemistry_Notes>
This compound has an imine and may undergo hydrolysis.

$$$$
