2pvu_ligand
                    3D
 Schrodinger Suite 2020-3.
 25 24  0  0  1  0            999 V2000
  -13.9730   22.9190   12.8300 N   0  3  0  0  0  0
  -13.0840   23.8760   13.5690 C   0  0  2  0  0  0
  -12.4030   24.8150   12.5640 C   0  0  0  0  0  0
  -11.7370   25.7620   12.9560 O   0  0  0  0  0  0
  -12.0170   23.1140   14.3470 C   0  0  0  0  0  0
  -11.1420   22.2350   13.4200 C   0  0  0  0  0  0
   -9.7990   21.8730   14.0890 C   0  0  0  0  0  0
   -9.2180   20.6340   13.4240 C   0  0  0  0  0  0
   -7.7710   20.3520   13.9330 N   0  3  0  0  0  0
  -12.4970   24.6210   11.3320 O   0  5  0  0  0  0
  -14.7367   23.4827   12.2742 H   0  0  0  0  0  0
  -14.4643   22.2459   13.5481 H   0  0  0  0  0  0
  -13.3696   22.3270   12.1262 H   0  0  0  0  0  0
  -13.7099   24.4443   14.2728 H   0  0  0  0  0  0
  -11.3599   23.8286   14.8642 H   0  0  0  0  0  0
  -12.5003   22.4588   15.0867 H   0  0  0  0  0  0
  -11.6774   21.3030   13.1859 H   0  0  0  0  0  0
  -10.9316   22.7809   12.4885 H   0  0  0  0  0  0
   -9.0963   22.7120   13.9781 H   0  0  0  0  0  0
   -9.9642   21.6719   15.1578 H   0  0  0  0  0  0
   -9.8491   19.7634   13.6559 H   0  0  0  0  0  0
   -9.1855   20.7836   12.3347 H   0  0  0  0  0  0
   -7.3765   19.4530   13.4369 H   0  0  0  0  0  0
   -7.7898   20.1919   15.0211 H   0  0  0  0  0  0
   -7.1262   21.2122   13.7000 H   0  0  0  0  0  0
  1  2  1  0  0  0
  1 11  1  0  0  0
  1 12  1  0  0  0
  1 13  1  0  0  0
  2  3  1  0  0  0
  2  5  1  0  0  0
  2 14  1  0  0  0
  3  4  2  0  0  0
  3 10  1  0  0  0
  5  6  1  0  0  0
  5 15  1  0  0  0
  5 16  1  0  0  0
  6  7  1  0  0  0
  6 17  1  0  0  0
  6 18  1  0  0  0
  7  8  1  0  0  0
  7 19  1  0  0  0
  7 20  1  0  0  0
  8  9  1  0  0  0
  8 21  1  0  0  0
  8 22  1  0  0  0
  9 23  1  0  0  0
  9 24  1  0  0  0
  9 25  1  0  0  0
M  CHG  3   1   1   9   1  10  -1
M  END
> <s_m_source_file>
../2pvu_ligand.sdf

> <i_m_source_file_index>
1

> <s_epik_input>
Tz1DKFtPSF0pW0NAQEhdKFtOSDMrXSlbQ0gyXVtDSDJdW0NIMl1bQ0gyXVtOSDMrXQ==

> <s_epik_cmdline>
J2VwaWtfYXBwJywgJy1pbWFlJywgJ2xpZ2FuZF9wcm8ubWFlJywgJy1vbWFlJywgJ2xpZ2FuZF9wcmVwLm1hZScsICctbXMnLCAnMScsICctcGgnLCAnNycsICctcGh0JywgJzAuNScsICctbnQn

> <r_lp_tautomer_probability>
1

> <r_epik_Ionization_Penalty>
  0.0018

> <r_epik_Ionization_Penalty_Charging>
  0.0018

> <r_epik_Ionization_Penalty_Neutral>
  0.0000

> <r_epik_State_Penalty>
 -0.0000

> <r_epik_Charging_Adjusted_Penalty>
0.00179235442229703

> <i_epik_Tot_Q>
1

> <i_epik_Tot_abs_Q>
3

$$$$
