2pvv_ligand
                    3D
 Schrodinger Suite 2020-3.
 14 13  0  0  1  0            999 V2000
   16.1140   44.9720   43.0010 N   0  0  0  0  0  0
   15.8500   44.7730   41.6870 C   0  0  0  0  0  0
   14.4700   45.0540   41.2170 C   0  0  0  0  0  0
   14.6210   46.5040   41.2920 O   0  0  0  0  0  0
   16.8660   44.6740   40.6470 C   0  0  0  0  0  0
   17.7540   45.5610   40.6870 O   0  5  0  0  0  0
   13.9870   47.4220   40.1320 S   0  0  0  0  0  0
   14.4100   46.8740   38.8510 O   0  0  0  0  0  0
   14.4670   48.7770   40.3020 O   0  0  0  0  0  0
   12.5610   47.0900   40.2710 O   0  5  0  0  0  0
   16.7890   43.8970   39.6750 O   0  0  0  0  0  0
   15.2879   45.0352   43.7246 H   0  0  0  0  0  0
   13.7928   44.2228   40.9709 H   0  0  0  0  0  0
   17.1544   45.0704   43.3442 H   0  0  0  0  0  0
  1  2  1  0  0  0
  1 12  1  0  0  0
  1 14  1  0  0  0
  2  3  2  0  0  0
  2  5  1  0  0  0
  3  4  1  0  0  0
  3 13  1  0  0  0
  4  7  1  0  0  0
  5  6  1  0  0  0
  5 11  2  0  0  0
  7  8  2  0  0  0
  7  9  2  0  0  0
  7 10  1  0  0  0
M  CHG  2   6  -1  10  -1
M  END
> <s_m_source_file>
../2pvv_ligand.sdf

> <i_m_source_file_index>
1

> <s_epik_input>
W09IXUMoPU8pQyg9TlxbSF0pL1tDSDJdT1MoPU8pKD1PKVtPSF0=

> <s_epik_cmdline>
J2VwaWtfYXBwJywgJy1pbWFlJywgJ2xpZ2FuZF9wcm8ubWFlJywgJy1vbWFlJywgJ2xpZ2FuZF9wcmVwLm1hZScsICctbXMnLCAnMScsICctcGgnLCAnNycsICctcGh0JywgJzAuNScsICctbnQn

> <r_lp_tautomer_probability>
1

> <r_epik_Ionization_Penalty>
  0.0016

> <r_epik_Ionization_Penalty_Charging>
  0.0014

> <r_epik_Ionization_Penalty_Neutral>
  0.0003

> <r_epik_State_Penalty>
 -0.0000

> <r_epik_Charging_Adjusted_Penalty>
0.00136076587289904

> <i_epik_Tot_Q>
-2

> <i_epik_Tot_abs_Q>
2

> <s_epik_Chemistry_Notes>
This compound has an imine and may undergo hydrolysis.

$$$$
