2pwg_ligand
                    3D
 Schrodinger Suite 2020-3.
 29 30  0  0  1  0            999 V2000
   20.0830   34.2930  112.2200 C   0  0  0  0  0  0
   20.7070   34.5890  110.8970 C   0  0  1  0  0  0
   21.9780   35.5440  111.0290 C   0  0  2  0  0  0
   22.3490   35.9910  112.4640 C   0  0  1  0  0  0
   22.1740   34.8880  113.5380 C   0  0  1  0  0  0
   21.9750   35.3560  115.0110 C   0  0  1  0  0  0
   21.0120   33.3270  110.2660 O   0  0  0  0  0  0
   21.7080   36.7660  110.3030 O   0  0  0  0  0  0
   23.7120   36.4430  112.5220 O   0  0  0  0  0  0
   22.5080   36.6620  115.3030 O   0  0  0  0  0  0
   21.0370   33.9920  113.2870 N   0  3  1  0  0  0
   20.4420   35.2890  115.1520 C   0  0  0  0  0  0
   20.2730   33.8860  114.5330 C   0  0  0  0  0  0
   19.4964   35.1625  112.5515 H   0  0  0  0  0  0
   19.4219   33.4189  112.1262 H   0  0  0  0  0  0
   19.9569   35.0641  110.2477 H   0  0  0  0  0  0
   22.8434   35.0159  110.6022 H   0  0  0  0  0  0
   21.7079   36.8526  112.7018 H   0  0  0  0  0  0
   23.1192   34.3384  113.4175 H   0  0  0  0  0  0
   22.5538   34.7989  115.7625 H   0  0  0  0  0  0
   20.2179   32.5805  110.1169 H   0  0  0  0  0  0
   21.4176   36.7232  109.2429 H   0  0  0  0  0  0
   24.0592   37.2323  111.8391 H   0  0  0  0  0  0
   23.5914   36.8409  115.2383 H   0  0  0  0  0  0
   21.5253   33.0750  112.9256 H   0  0  0  0  0  0
   20.1673   35.3752  116.2137 H   0  0  0  0  0  0
   19.9853   36.1149  114.5869 H   0  0  0  0  0  0
   19.2248   33.6461  114.3011 H   0  0  0  0  0  0
   20.7015   33.0896  115.1592 H   0  0  0  0  0  0
  1  2  1  0  0  0
  1 11  1  0  0  0
  1 14  1  0  0  0
  1 15  1  0  0  0
  2  3  1  0  0  0
  2  7  1  0  0  0
  2 16  1  0  0  0
  3  4  1  0  0  0
  3  8  1  0  0  0
  3 17  1  0  0  0
  4  5  1  0  0  0
  4  9  1  0  0  0
  4 18  1  0  0  0
  5  6  1  0  0  0
  5 11  1  0  0  0
  5 19  1  0  0  0
  6 10  1  0  0  0
  6 12  1  0  0  0
  6 20  1  0  0  0
  7 21  1  0  0  0
  8 22  1  0  0  0
  9 23  1  0  0  0
 10 24  1  0  0  0
 11 13  1  0  0  0
 11 25  1  0  0  0
 12 13  1  0  0  0
 12 26  1  0  0  0
 12 27  1  0  0  0
 13 28  1  0  0  0
 13 29  1  0  0  0
M  CHG  1  11   1
M  END
> <s_m_source_file>
../2pwg_ligand.sdf

> <i_m_source_file_index>
1

> <s_epik_input>
W09IXVtDQEhdMVtDQEhdKFtPSF0pW0NAQEhdKFtPSF0pW0NIMl1bTkBASCtdKFtDQEBIXTEyKVtDSDJdW0NIMl1bQ0BASF0yW09IXQ==

> <s_epik_cmdline>
J2VwaWtfYXBwJywgJy1pbWFlJywgJ2xpZ2FuZF9wcm8ubWFlJywgJy1vbWFlJywgJ2xpZ2FuZF9wcmVwLm1hZScsICctbXMnLCAnMScsICctcGgnLCAnNycsICctcGh0JywgJzAuNScsICctbnQn

> <r_epik_Ionization_Penalty>
  0.0117

> <r_epik_Ionization_Penalty_Charging>
  0.0117

> <r_epik_Ionization_Penalty_Neutral>
  0.0000

> <r_epik_State_Penalty>
  0.0090

> <r_epik_Charging_Adjusted_Penalty>
0.0207317003209308

> <i_epik_Tot_Q>
1

> <i_epik_Tot_abs_Q>
1

$$$$
