2py4_ligand
                    3D
 Schrodinger Suite 2020-3.
 40 41  0  0  1  0            999 V2000
   16.7090   14.9670   41.4770 O   0  0  0  0  0  0
   15.9050   14.1450   41.0080 C   0  0  0  0  0  0
   16.2740   12.8990   40.5010 C   0  0  0  0  0  0
   15.2530   12.0430   40.0280 C   0  0  0  0  0  0
   14.5800   14.5380   40.9840 N   0  0  0  0  0  0
   13.5870   13.7230   40.4540 C   0  0  0  0  0  0
   12.4080   14.1300   40.4510 O   0  0  0  0  0  0
   13.9450   12.4850   40.0030 N   0  0  0  0  0  0
   12.9330   11.5940   39.4020 C   0  0  1  0  0  0
   13.0720   11.6920   37.8800 C   0  0  0  0  0  0
   13.9070   10.4420   37.5540 C   0  0  2  0  0  0
   13.6600    9.9490   36.2110 O   0  0  0  0  0  0
   13.2120   10.2440   39.7640 O   0  0  0  0  0  0
   13.4250    9.4790   38.5750 C   0  0  2  0  0  0
   14.3510    8.3170   38.9130 C   0  0  0  0  0  0
   15.6040    8.9000   39.2920 O   0  0  0  0  0  0
   16.8190    7.9220   39.7510 P   0  0  1  0  0  0
   16.8740    6.7810   38.7370 O   0  5  0  0  0  0
   18.0370    8.8320   39.7780 O   0  0  0  0  0  0
   16.4260    7.4080   41.2300 N   0  0  1  0  0  0
   15.9740    5.8300   41.5500 P   0  0  1  0  0  0
   16.7370    4.8170   40.7530 O   0  0  0  0  0  0
   15.9910    5.6750   43.0690 O   0  5  0  0  0  0
   14.4630    5.6770   41.0790 O   0  0  0  0  0  0
   13.8600    4.6550   40.0190 P   0  0  0  0  0  0
   14.7180    4.6950   38.7880 O   0  5  0  0  0  0
   13.9080    3.3610   40.7640 O   0  0  0  0  0  0
   12.4530    5.1550   39.7320 O   0  5  0  0  0  0
   17.3200   12.5939   40.4703 H   0  0  0  0  0  0
   15.4974   11.0379   39.6843 H   0  0  0  0  0  0
   14.2894   15.5177   41.3911 H   0  0  0  0  0  0
   11.9357   11.8458   39.7919 H   0  0  0  0  0  0
   12.0735   11.6756   37.4188 H   0  0  0  0  0  0
   13.5815   12.6310   37.6180 H   0  0  0  0  0  0
   14.9976   10.5856   37.5512 H   0  0  0  0  0  0
   13.9609   10.5502   35.3404 H   0  0  0  0  0  0
   12.4965    9.0392   38.1819 H   0  0  0  0  0  0
   13.9203    7.7335   39.7401 H   0  0  0  0  0  0
   14.4665    7.6713   38.0300 H   0  0  0  0  0  0
   17.2806    7.5521   41.9074 H   0  0  0  0  0  0
  1  2  2  0  0  0
  2  3  1  0  0  0
  2  5  1  0  0  0
  3  4  2  0  0  0
  3 29  1  0  0  0
  4  8  1  0  0  0
  4 30  1  0  0  0
  5  6  1  0  0  0
  5 31  1  0  0  0
  6  7  2  0  0  0
  6  8  1  0  0  0
  8  9  1  0  0  0
  9 10  1  0  0  0
  9 13  1  0  0  0
  9 32  1  0  0  0
 10 11  1  0  0  0
 10 33  1  0  0  0
 10 34  1  0  0  0
 11 12  1  0  0  0
 11 14  1  0  0  0
 11 35  1  0  0  0
 12 36  1  0  0  0
 13 14  1  0  0  0
 14 15  1  0  0  0
 14 37  1  0  0  0
 15 16  1  0  0  0
 15 38  1  0  0  0
 15 39  1  0  0  0
 16 17  1  0  0  0
 17 18  1  0  0  0
 17 19  2  0  0  0
 17 20  1  0  0  0
 20 21  1  0  0  0
 20 40  1  0  0  0
 21 22  2  0  0  0
 21 23  1  0  0  0
 21 24  1  0  0  0
 24 25  1  0  0  0
 25 26  1  0  0  0
 25 27  2  0  0  0
 25 28  1  0  0  0
M  CHG  4  18  -1  23  -1  26  -1  28  -1
M  END
> <s_m_source_file>
../2py4_ligand.sdf

> <i_m_source_file_index>
1

> <s_epik_input>
Tz1jMVtjSF1bY0hdbihjKD1PKVtuSF0xKVtDQEhdMltDSDJdW0NASF0oW09IXSlbQ0BIXShPMilbQ0gyXU9bUEBdKD1PKShbT0hdKVtOSF1bUEBAXSg9TykoW09IXSlPUCg9TykoW09IXSlbT0hd

> <s_epik_cmdline>
J2VwaWtfYXBwJywgJy1pbWFlJywgJ2xpZ2FuZF9wcm8ubWFlJywgJy1vbWFlJywgJ2xpZ2FuZF9wcmVwLm1hZScsICctbXMnLCAnMScsICctcGgnLCAnNycsICctcGh0JywgJzAuNScsICctbnQn

> <r_lp_tautomer_probability>
0.999537046341301

> <r_epik_Ionization_Penalty>
  0.1180

> <r_epik_Ionization_Penalty_Charging>
  0.1161

> <r_epik_Ionization_Penalty_Neutral>
  0.0020

> <r_epik_State_Penalty>
  0.1037

> <r_epik_Charging_Adjusted_Penalty>
0.219792583007898

> <i_epik_Tot_Q>
-4

> <i_epik_Tot_abs_Q>
4

> <s_epik_Chemistry_Notes>
This compound contains an acetal/aminal-like group ( X-CH(R)-Y where X, Y are N, S, or O) that may be acid/base labile, releasing an aldehyde.

$$$$
