2pyi_ligand
                    3D
 Schrodinger Suite 2020-3.
 46 48  0  0  1  0            999 V2000
   37.4770   27.0690   34.3710 C   0  0  0  0  0  0
   38.1450   28.0950   35.0410 C   0  0  0  0  0  0
   39.0830   28.8750   34.3640 C   0  0  0  0  0  0
   39.3580   28.6220   33.0220 C   0  0  0  0  0  0
   38.6930   27.5940   32.3550 C   0  0  0  0  0  0
   37.7500   26.8160   33.0250 C   0  0  0  0  0  0
   37.0850   25.7900   32.3560 C   0  0  0  0  0  0
   37.3360   25.3420   31.1320 C   0  0  0  0  0  0
   36.0660   25.0610   32.8160 N   0  0  0  0  0  0
   35.7310   24.2410   31.9510 N   0  0  0  0  0  0
   36.4450   24.3770   30.9500 N   0  0  0  0  0  0
   36.3560   23.5880   29.7090 C   0  0  0  0  0  0
   34.9140   23.4540   29.1880 C   0  0  0  0  0  0
   33.9420   23.8780   29.8180 O   0  0  0  0  0  0
   34.8340   22.8440   28.0080 N   0  0  0  0  0  0
   33.5360   22.5910   27.3500 C   0  0  2  0  0  0
   33.2770   21.1790   27.5850 O   0  0  0  0  0  0
   32.0530   20.7010   26.9910 C   0  0  2  0  0  0
   31.8630   19.2380   27.4150 C   0  0  0  0  0  0
   32.9520   18.4460   26.9080 O   0  0  0  0  0  0
   32.1620   20.8690   25.4610 C   0  0  1  0  0  0
   30.9800   20.3750   24.8180 O   0  0  0  0  0  0
   32.4050   22.3470   25.0950 C   0  0  2  0  0  0
   32.6380   22.4610   23.6870 O   0  0  0  0  0  0
   33.6220   22.9060   25.8500 C   0  0  1  0  0  0
   33.7330   24.3210   25.6610 O   0  0  0  0  0  0
   36.7405   26.4638   34.8995 H   0  0  0  0  0  0
   37.9339   28.2869   36.0930 H   0  0  0  0  0  0
   39.5999   29.6812   34.8844 H   0  0  0  0  0  0
   40.0935   29.2281   32.4931 H   0  0  0  0  0  0
   38.9113   27.3978   31.3053 H   0  0  0  0  0  0
   38.0998   25.6882   30.4357 H   0  0  0  0  0  0
   36.9531   24.0729   28.9226 H   0  0  0  0  0  0
   36.7427   22.5743   29.8904 H   0  0  0  0  0  0
   35.7682   22.5256   27.5222 H   0  0  0  0  0  0
   32.7281   23.1971   27.7859 H   0  0  0  0  0  0
   31.2122   21.3020   27.3676 H   0  0  0  0  0  0
   31.8434   19.1741   28.5130 H   0  0  0  0  0  0
   30.9138   18.8588   27.0087 H   0  0  0  0  0  0
   32.9880   17.3657   27.1121 H   0  0  0  0  0  0
   32.9700   20.2399   25.0593 H   0  0  0  0  0  0
   30.6631   19.3334   24.9747 H   0  0  0  0  0  0
   31.5073   22.9457   25.3085 H   0  0  0  0  0  0
   31.8768   22.1124   22.9735 H   0  0  0  0  0  0
   34.5439   22.4876   25.4200 H   0  0  0  0  0  0
   34.5544   24.8767   26.1369 H   0  0  0  0  0  0
  1  2  2  0  0  0
  1  6  1  0  0  0
  1 27  1  0  0  0
  2  3  1  0  0  0
  2 28  1  0  0  0
  3  4  2  0  0  0
  3 29  1  0  0  0
  4  5  1  0  0  0
  4 30  1  0  0  0
  5  6  2  0  0  0
  5 31  1  0  0  0
  6  7  1  0  0  0
  7  8  2  0  0  0
  7  9  1  0  0  0
  8 11  1  0  0  0
  8 32  1  0  0  0
  9 10  2  0  0  0
 10 11  1  0  0  0
 11 12  1  0  0  0
 12 13  1  0  0  0
 12 33  1  0  0  0
 12 34  1  0  0  0
 13 14  2  0  0  0
 13 15  1  0  0  0
 15 16  1  0  0  0
 15 35  1  0  0  0
 16 17  1  0  0  0
 16 25  1  0  0  0
 16 36  1  0  0  0
 17 18  1  0  0  0
 18 19  1  0  0  0
 18 21  1  0  0  0
 18 37  1  0  0  0
 19 20  1  0  0  0
 19 38  1  0  0  0
 19 39  1  0  0  0
 20 40  1  0  0  0
 21 22  1  0  0  0
 21 23  1  0  0  0
 21 41  1  0  0  0
 22 42  1  0  0  0
 23 24  1  0  0  0
 23 25  1  0  0  0
 23 43  1  0  0  0
 24 44  1  0  0  0
 25 26  1  0  0  0
 25 45  1  0  0  0
 26 46  1  0  0  0
M  END
> <s_m_source_file>
../2pyi_ligand.sdf

> <i_m_source_file_index>
1

> <s_epik_input>
W2NIXTFbY0hdW2NIXVtjSF1bY0hdYzEtYzJbY0hdbihubjIpW0NIMl1DKD1PKVtOSF1bQ0BASF0zT1tDQEhdKFtDSDJdW09IXSlbQ0BASF0oW09IXSlbQ0BIXShbT0hdKVtDQEhdM1tPSF0=

> <s_epik_cmdline>
J2VwaWtfYXBwJywgJy1pbWFlJywgJ2xpZ2FuZF9wcm8ubWFlJywgJy1vbWFlJywgJ2xpZ2FuZF9wcmVwLm1hZScsICctbXMnLCAnMScsICctcGgnLCAnNycsICctcGh0JywgJzAuNScsICctbnQn

> <r_lp_tautomer_probability>
1

> <r_epik_Ionization_Penalty>
  0.0000

> <r_epik_Ionization_Penalty_Charging>
  0.0000

> <r_epik_Ionization_Penalty_Neutral>
  0.0000

> <r_epik_State_Penalty>
 -0.0000

> <r_epik_Charging_Adjusted_Penalty>
0

> <i_epik_Tot_Q>
0

> <i_epik_Tot_abs_Q>
0

> <s_epik_Chemistry_Notes>
This compound contains an acetal/aminal-like group ( X-CH(R)-Y where X, Y are N, S, or O) that may be acid/base labile, releasing an aldehyde.

$$$$
