2pym_ligand
                    3D
 Schrodinger Suite 2020-3.
 86 89  0  0  1  0            999 V2000
  -12.5400   13.3380   27.2400 C   0  0  2  0  0  0
  -12.4480   12.6130   28.5900 C   0  0  1  0  0  0
  -12.7700   11.1170   28.4870 C   0  0  0  0  0  0
  -11.9820   10.4270   27.3720 C   0  0  0  0  0  0
  -12.2160   11.1380   26.0400 C   0  0  0  0  0  0
  -11.7940   12.6050   26.1160 C   0  0  0  0  0  0
  -10.7090   14.8840   27.9500 N   0  3  1  0  0  0
  -10.6670   14.2680   29.2940 C   0  0  1  0  0  0
  -11.0810   12.7960   29.2490 C   0  0  0  0  0  0
  -12.0630   14.7930   27.3530 C   0  0  0  0  0  0
   -9.2770   14.2950   29.8530 C   0  0  0  0  0  0
   -9.2130   14.7750   31.0900 N   0  0  0  0  0  0
   -8.0610   14.8160   31.9800 C   0  0  0  0  0  0
   -7.0700   15.8350   31.4450 C   0  0  0  0  0  0
   -7.4290   13.4390   32.1200 C   0  0  0  0  0  0
   -8.5490   15.2460   33.3600 C   0  0  0  0  0  0
   -8.3330   13.8840   29.1880 O   0  0  0  0  0  0
  -10.2870   16.2970   28.0250 C   0  0  0  0  0  0
   -9.7560   16.7650   26.6710 C   0  0  2  0  0  0
   -8.2800   16.4270   26.4760 C   0  0  1  0  0  0
  -10.0180   18.1690   26.4750 O   0  0  0  0  0  0
   -7.9760   16.6250   25.0750 N   0  0  0  0  0  0
   -7.3320   17.2570   27.3410 C   0  0  0  0  0  0
   -7.8750   15.6400   24.1820 C   0  0  0  0  0  0
   -8.0710   14.4600   24.4290 O   0  0  0  0  0  0
   -7.4770   16.0430   22.8020 C   0  0  0  0  0  0
   -6.2730   16.7280   22.6160 C   0  0  0  0  0  0
   -5.8600   17.1280   21.3480 C   0  0  0  0  0  0
   -6.6350   16.8630   20.2180 C   0  0  0  0  0  0
   -7.8480   16.1880   20.3090 C   0  0  0  0  0  0
   -8.3420   15.7450   21.6330 C   0  0  0  0  0  0
   -8.5760   15.9540   19.1890 O   0  0  0  0  0  0
   -9.6550   15.0010   21.7720 C   0  0  0  0  0  0
   -5.7610   16.4590   27.4510 S   0  0  0  0  0  0
   -4.7910   17.1020   26.2050 C   0  0  0  0  0  0
   -3.7200   16.3670   25.6930 C   0  0  0  0  0  0
   -2.9280   16.8950   24.6700 C   0  0  0  0  0  0
   -3.1990   18.1610   24.1510 C   0  0  0  0  0  0
   -4.2710   18.9000   24.6530 C   0  0  0  0  0  0
   -5.0570   18.3730   25.6800 C   0  0  0  0  0  0
  -13.6052   13.3404   26.9654 H   0  0  0  0  0  0
  -13.2117   13.0842   29.2263 H   0  0  0  0  0  0
  -12.5196   10.6218   29.4368 H   0  0  0  0  0  0
  -13.8418   10.9862   28.2768 H   0  0  0  0  0  0
  -10.9085   10.4548   27.6104 H   0  0  0  0  0  0
  -12.3110    9.3811   27.2837 H   0  0  0  0  0  0
  -11.6282   10.6438   25.2524 H   0  0  0  0  0  0
  -13.2846   11.0928   25.7830 H   0  0  0  0  0  0
  -12.0187   13.0858   25.1525 H   0  0  0  0  0  0
  -10.7112   12.6500   26.3045 H   0  0  0  0  0  0
  -10.0108   14.3302   27.3052 H   0  0  0  0  0  0
  -11.3522   14.8761   29.9029 H   0  0  0  0  0  0
  -11.1172   12.4149   30.2802 H   0  0  0  0  0  0
  -10.3218   12.2402   28.6791 H   0  0  0  0  0  0
  -12.0299   15.2468   26.3515 H   0  0  0  0  0  0
  -12.7595   15.3589   27.9891 H   0  0  0  0  0  0
  -10.1811   15.1760   31.4246 H   0  0  0  0  0  0
   -6.7215   15.5203   30.4503 H   0  0  0  0  0  0
   -6.2114   15.9056   32.1290 H   0  0  0  0  0  0
   -7.5594   16.8171   31.3683 H   0  0  0  0  0  0
   -7.0662   13.1006   31.1382 H   0  0  0  0  0  0
   -8.1784   12.7284   32.4989 H   0  0  0  0  0  0
   -6.5855   13.4926   32.8241 H   0  0  0  0  0  0
   -9.0124   16.2412   33.2913 H   0  0  0  0  0  0
   -7.6968   15.2854   34.0544 H   0  0  0  0  0  0
   -9.2896   14.5213   33.7292 H   0  0  0  0  0  0
  -11.1467   16.9218   28.3088 H   0  0  0  0  0  0
   -9.4923   16.4029   28.7782 H   0  0  0  0  0  0
  -10.3237   16.2680   25.8706 H   0  0  0  0  0  0
   -8.1072   15.3730   26.7391 H   0  0  0  0  0  0
  -11.0412   18.5580   26.5836 H   0  0  0  0  0  0
   -7.8114   17.6407   24.6861 H   0  0  0  0  0  0
   -7.2018   18.2523   26.8911 H   0  0  0  0  0  0
   -7.7554   17.3636   28.3506 H   0  0  0  0  0  0
   -5.6463   16.9530   23.4789 H   0  0  0  0  0  0
   -4.9141   17.6578   21.2358 H   0  0  0  0  0  0
   -6.2815   17.1927   19.2410 H   0  0  0  0  0  0
   -8.2011   16.2867   18.2098 H   0  0  0  0  0  0
   -9.8332   14.7666   22.8319 H   0  0  0  0  0  0
   -9.6104   14.0672   21.1924 H   0  0  0  0  0  0
  -10.4744   15.6293   21.3927 H   0  0  0  0  0  0
   -3.5007   15.3770   26.0930 H   0  0  0  0  0  0
   -2.0940   16.3145   24.2755 H   0  0  0  0  0  0
   -2.5759   18.5715   23.3564 H   0  0  0  0  0  0
   -4.4942   19.8857   24.2447 H   0  0  0  0  0  0
   -5.8868   18.9574   26.0775 H   0  0  0  0  0  0
  1  2  1  0  0  0
  1  6  1  0  0  0
  1 10  1  0  0  0
  1 41  1  0  0  0
  2  3  1  0  0  0
  2  9  1  0  0  0
  2 42  1  0  0  0
  3  4  1  0  0  0
  3 43  1  0  0  0
  3 44  1  0  0  0
  4  5  1  0  0  0
  4 45  1  0  0  0
  4 46  1  0  0  0
  5  6  1  0  0  0
  5 47  1  0  0  0
  5 48  1  0  0  0
  6 49  1  0  0  0
  6 50  1  0  0  0
  7  8  1  0  0  0
  7 10  1  0  0  0
  7 18  1  0  0  0
  7 51  1  0  0  0
  8  9  1  0  0  0
  8 11  1  0  0  0
  8 52  1  0  0  0
  9 53  1  0  0  0
  9 54  1  0  0  0
 10 55  1  0  0  0
 10 56  1  0  0  0
 11 12  1  0  0  0
 11 17  2  0  0  0
 12 13  1  0  0  0
 12 57  1  0  0  0
 13 14  1  0  0  0
 13 15  1  0  0  0
 13 16  1  0  0  0
 14 58  1  0  0  0
 14 59  1  0  0  0
 14 60  1  0  0  0
 15 61  1  0  0  0
 15 62  1  0  0  0
 15 63  1  0  0  0
 16 64  1  0  0  0
 16 65  1  0  0  0
 16 66  1  0  0  0
 18 19  1  0  0  0
 18 67  1  0  0  0
 18 68  1  0  0  0
 19 20  1  0  0  0
 19 21  1  0  0  0
 19 69  1  0  0  0
 20 22  1  0  0  0
 20 23  1  0  0  0
 20 70  1  0  0  0
 21 71  1  0  0  0
 22 24  1  0  0  0
 22 72  1  0  0  0
 23 34  1  0  0  0
 23 73  1  0  0  0
 23 74  1  0  0  0
 24 25  2  0  0  0
 24 26  1  0  0  0
 26 27  2  0  0  0
 26 31  1  0  0  0
 27 28  1  0  0  0
 27 75  1  0  0  0
 28 29  2  0  0  0
 28 76  1  0  0  0
 29 30  1  0  0  0
 29 77  1  0  0  0
 30 31  2  0  0  0
 30 32  1  0  0  0
 31 33  1  0  0  0
 32 78  1  0  0  0
 33 79  1  0  0  0
 33 80  1  0  0  0
 33 81  1  0  0  0
 34 35  1  0  0  0
 35 36  2  0  0  0
 35 40  1  0  0  0
 36 37  1  0  0  0
 36 82  1  0  0  0
 37 38  2  0  0  0
 37 83  1  0  0  0
 38 39  1  0  0  0
 38 84  1  0  0  0
 39 40  2  0  0  0
 39 85  1  0  0  0
 40 86  1  0  0  0
M  CHG  1   7   1
M  END
> <s_m_source_file>
../2pym_ligand.sdf

> <i_m_source_file_index>
1

> <s_epik_input>
W0NIMl0xW0NIMl1bQ0gyXVtDSDJdW0NASF0oW0NASF0xMilbQ0gyXVtDQEBIXShDKD1PKVtOSF1DKFtDSDNdKShbQ0gzXSlbQ0gzXSlbTkBASCtdKFtDSDJdMilbQ0gyXVtDQEBIXShbT0hdKVtDQEhdKFtDSDJdU2MzW2NIXVtjSF1bY0hdW2NIXVtjSF0zKVtOSF1DKD1PKWM0W2NIXVtjSF1bY0hdYyhbT0hdKWM0W0NIM10=

> <s_epik_cmdline>
J2VwaWtfYXBwJywgJy1pbWFlJywgJ2xpZ2FuZF9wcm8ubWFlJywgJy1vbWFlJywgJ2xpZ2FuZF9wcmVwLm1hZScsICctbXMnLCAnMScsICctcGgnLCAnNycsICctcGh0JywgJzAuNScsICctbnQn

> <r_lp_tautomer_probability>
0.999999999997365

> <r_epik_Ionization_Penalty>
  0.0194

> <r_epik_Ionization_Penalty_Charging>
  0.0175

> <r_epik_Ionization_Penalty_Neutral>
  0.0019

> <r_epik_State_Penalty>
  0.0138

> <r_epik_Charging_Adjusted_Penalty>
0.0313186340146469

> <i_epik_Tot_Q>
1

> <i_epik_Tot_abs_Q>
1

$$$$
