2pze_ligand
                    3D
 Schrodinger Suite 2020-3.
 43 45  0  0  1  0            999 V2000
    4.7290   11.3860   66.7250 P   0  0  0  0  0  0
    3.2550   11.4140   67.0610 O   0  5  0  0  0  0
    5.3970   10.1560   67.1990 O   0  0  0  0  0  0
    5.0000   11.6920   65.2620 O   0  5  0  0  0  0
    5.7660   12.9540   68.9870 P   0  0  1  0  0  0
    4.7310   13.8440   69.5970 O   0  5  0  0  0  0
    6.1270   11.6330   69.5850 O   0  0  0  0  0  0
    5.3470   12.6900   67.4350 O   0  0  0  0  0  0
    8.6120   13.6340   69.3320 P   0  0  2  0  0  0
    9.2110   12.3750   68.8440 O   0  0  0  0  0  0
    8.5480   13.9380   70.7850 O   0  5  0  0  0  0
    7.1030   13.8360   68.7990 O   0  0  0  0  0  0
    9.3810   14.8780   68.6200 O   0  0  0  0  0  0
    9.1610   16.2370   68.9420 C   0  0  0  0  0  0
   10.1960   16.9780   68.0950 C   0  0  1  0  0  0
   11.5010   16.7330   68.6310 O   0  0  0  0  0  0
   10.2470   16.4930   66.6450 C   0  0  1  0  0  0
   10.3130   17.6380   65.7830 O   0  0  0  0  0  0
   11.5030   15.6530   66.5110 C   0  0  1  0  0  0
   12.1900   15.8570   65.2720 O   0  0  0  0  0  0
   12.3700   16.1240   67.6600 C   0  0  2  0  0  0
   13.1160   15.0060   68.2850 N   0  0  0  0  0  0
   12.5860   13.8880   68.7990 C   0  0  0  0  0  0
   13.5500   13.0870   69.3210 N   0  0  0  0  0  0
   14.7280   13.7160   69.1560 C   0  0  0  0  0  0
   16.1490   13.4280   69.4680 C   0  0  0  0  0  0
   16.4950   12.2800   70.0910 N   0  0  0  0  0  0
   17.0760   14.3570   69.1010 N   0  0  0  0  0  0
   16.7420   15.5020   68.4690 C   0  0  0  0  0  0
   15.4690   15.8190   68.1520 N   0  0  0  0  0  0
   14.4410   14.9820   68.4660 C   0  0  0  0  0  0
    8.1295   16.5139   68.6786 H   0  0  0  0  0  0
    9.3173   16.3883   70.0203 H   0  0  0  0  0  0
    9.9617   18.0516   68.1439 H   0  0  0  0  0  0
    9.3530   15.9373   66.3257 H   0  0  0  0  0  0
    9.4796   18.3555   65.7568 H   0  0  0  0  0  0
   11.2908   14.5741   66.4797 H   0  0  0  0  0  0
   11.7106   15.5719   64.3239 H   0  0  0  0  0  0
   13.1144   16.8609   67.3239 H   0  0  0  0  0  0
   11.5217   13.6526   68.7982 H   0  0  0  0  0  0
   15.7200   11.5521   70.3730 H   0  0  0  0  0  0
   17.5517   12.0733   70.3162 H   0  0  0  0  0  0
   17.5349   16.2010   68.2031 H   0  0  0  0  0  0
  1  2  1  0  0  0
  1  3  2  0  0  0
  1  4  1  0  0  0
  1  8  1  0  0  0
  5  6  1  0  0  0
  5  7  2  0  0  0
  5  8  1  0  0  0
  5 12  1  0  0  0
  9 10  2  0  0  0
  9 11  1  0  0  0
  9 12  1  0  0  0
  9 13  1  0  0  0
 13 14  1  0  0  0
 14 15  1  0  0  0
 14 32  1  0  0  0
 14 33  1  0  0  0
 15 16  1  0  0  0
 15 17  1  0  0  0
 15 34  1  0  0  0
 16 21  1  0  0  0
 17 18  1  0  0  0
 17 19  1  0  0  0
 17 35  1  0  0  0
 18 36  1  0  0  0
 19 20  1  0  0  0
 19 21  1  0  0  0
 19 37  1  0  0  0
 20 38  1  0  0  0
 21 22  1  0  0  0
 21 39  1  0  0  0
 22 23  1  0  0  0
 22 31  1  0  0  0
 23 24  2  0  0  0
 23 40  1  0  0  0
 24 25  1  0  0  0
 25 26  2  0  0  0
 25 31  1  0  0  0
 26 27  1  0  0  0
 26 28  1  0  0  0
 27 41  1  0  0  0
 27 42  1  0  0  0
 28 29  2  0  0  0
 29 30  1  0  0  0
 29 43  1  0  0  0
 30 31  2  0  0  0
M  CHG  4   2  -1   4  -1   6  -1  11  -1
M  END
> <s_m_source_file>
../2pze_ligand.sdf

> <i_m_source_file_index>
1

> <s_epik_input>
W09IXVAoPU8pKFtPSF0pT1tQQF0oPU8pKFtPSF0pT1tQQF0oPU8pKFtPSF0pT1tDSDJdW0NASF0xT1tDQEhdKFtDQEhdKFtPSF0pW0NAQEhdMVtPSF0pbihbY0hdbjIpYyhjMjMpbltjSF1uYzNbTkgyXQ==

> <s_epik_cmdline>
J2VwaWtfYXBwJywgJy1pbWFlJywgJ2xpZ2FuZF9wcm8ubWFlJywgJy1vbWFlJywgJ2xpZ2FuZF9wcmVwLm1hZScsICctbXMnLCAnMScsICctcGgnLCAnNycsICctcGh0JywgJzAuNScsICctbnQn

> <r_lp_tautomer_probability>
0.999997216410988

> <r_epik_Ionization_Penalty>
  0.0818

> <r_epik_Ionization_Penalty_Charging>
  0.0813

> <r_epik_Ionization_Penalty_Neutral>
  0.0004

> <r_epik_State_Penalty>
  0.0708

> <r_epik_Charging_Adjusted_Penalty>
0.152157994418768

> <i_epik_Tot_Q>
-4

> <i_epik_Tot_abs_Q>
4

> <s_epik_Chemistry_Notes>
This compound contains an acetal/aminal-like group ( X-CH(R)-Y where X, Y are N, S, or O) that may be acid/base labile, releasing an aldehyde.

$$$$
