2pzi_ligand
                    3D
 Schrodinger Suite 2020-3.
 34 36  0  0  1  0            999 V2000
   19.0850   -9.2450   -3.5240 O   0  0  0  0  0  0
   19.7770   -9.5920   -2.5650 C   0  0  0  0  0  0
   19.2850   -9.4500   -1.1400 C   0  0  0  0  0  0
   17.8680  -10.0160   -1.0820 C   0  0  0  0  0  0
   18.0840   -8.5070   -1.0200 C   0  0  0  0  0  0
   20.9900  -10.1370   -2.6880 N   0  0  0  0  0  0
   21.6850  -10.2130   -3.8520 C   0  0  0  0  0  0
   21.1860   -9.6150   -5.3790 S   0  0  0  0  0  0
   22.6330  -10.1400   -6.1760 C   0  0  0  0  0  0
   22.7630   -9.8720   -7.6470 C   0  0  0  0  0  0
   24.2540   -9.9470   -7.9610 C   0  0  0  0  0  0
   24.9120  -11.1980   -7.3740 C   0  0  0  0  0  0
   24.8280  -11.3200   -5.8510 C   0  0  0  0  0  0
   23.5100  -10.7990   -5.3290 C   0  0  0  0  0  0
   23.0100  -10.8400   -4.0050 C   0  0  0  0  0  0
   23.6740  -11.4560   -2.8350 C   0  0  0  0  0  0
   23.0170  -11.5090   -1.8100 O   0  0  0  0  0  0
   24.9140  -11.9240   -2.9420 N   0  0  0  0  0  0
   20.2295   -9.5544   -0.5860 H   0  0  0  0  0  0
   17.6639  -10.5882   -1.9990 H   0  0  0  0  0  0
   17.7728  -10.6774   -0.2082 H   0  0  0  0  0  0
   18.1713   -7.9180   -0.0951 H   0  0  0  0  0  0
   18.0623   -7.8288   -1.8858 H   0  0  0  0  0  0
   21.4929  -10.5641   -1.8078 H   0  0  0  0  0  0
   22.2008  -10.6321   -8.2093 H   0  0  0  0  0  0
   22.3596   -8.8744   -7.8750 H   0  0  0  0  0  0
   24.3985   -9.9672   -9.0513 H   0  0  0  0  0  0
   24.7621   -9.0669   -7.5401 H   0  0  0  0  0  0
   24.4290  -12.0951   -7.7886 H   0  0  0  0  0  0
   25.9814  -11.2051   -7.6317 H   0  0  0  0  0  0
   24.9249  -12.3769   -5.5619 H   0  0  0  0  0  0
   25.6404  -10.7381   -5.3912 H   0  0  0  0  0  0
   25.4515  -11.8440   -3.8984 H   0  0  0  0  0  0
   25.4024  -12.3912   -2.0741 H   0  0  0  0  0  0
  1  2  2  0  0  0
  2  3  1  0  0  0
  2  6  1  0  0  0
  3  4  1  0  0  0
  3  5  1  0  0  0
  3 19  1  0  0  0
  4  5  1  0  0  0
  4 20  1  0  0  0
  4 21  1  0  0  0
  5 22  1  0  0  0
  5 23  1  0  0  0
  6  7  1  0  0  0
  6 24  1  0  0  0
  7  8  1  0  0  0
  7 15  2  0  0  0
  8  9  1  0  0  0
  9 10  1  0  0  0
  9 14  2  0  0  0
 10 11  1  0  0  0
 10 25  1  0  0  0
 10 26  1  0  0  0
 11 12  1  0  0  0
 11 27  1  0  0  0
 11 28  1  0  0  0
 12 13  1  0  0  0
 12 29  1  0  0  0
 12 30  1  0  0  0
 13 14  1  0  0  0
 13 31  1  0  0  0
 13 32  1  0  0  0
 14 15  1  0  0  0
 15 16  1  0  0  0
 16 17  2  0  0  0
 16 18  1  0  0  0
 18 33  1  0  0  0
 18 34  1  0  0  0
M  END
> <s_m_source_file>
../2pzi_ligand.sdf

> <i_m_source_file_index>
1

> <s_epik_input>
W0NIMl0xW0NIMl1bQ0hdMUMoPU8pW05IXWMoczIpYyhDKD1PKVtOSDJdKWMoYzIzKVtDSDJdW0NIMl1bQ0gyXVtDSDJdMw==

> <s_epik_cmdline>
J2VwaWtfYXBwJywgJy1pbWFlJywgJ2xpZ2FuZF9wcm8ubWFlJywgJy1vbWFlJywgJ2xpZ2FuZF9wcmVwLm1hZScsICctbXMnLCAnMScsICctcGgnLCAnNycsICctcGh0JywgJzAuNScsICctbnQn

> <r_lp_tautomer_probability>
1

> <r_epik_Ionization_Penalty>
  0.0000

> <r_epik_Ionization_Penalty_Charging>
  0.0000

> <r_epik_Ionization_Penalty_Neutral>
  0.0000

> <r_epik_State_Penalty>
 -0.0000

> <r_epik_Charging_Adjusted_Penalty>
0

> <i_epik_Tot_Q>
0

> <i_epik_Tot_abs_Q>
0

$$$$
