2pzy_ligand
                    3D
 Schrodinger Suite 2020-3.
 56 59  0  0  1  0            999 V2000
   36.6870  -31.0270  -19.5880 C   0  0  0  0  0  0
   37.9710  -30.4040  -19.5700 C   0  0  0  0  0  0
   39.0250  -30.9550  -18.8460 C   0  0  0  0  0  0
   38.8060  -32.1720  -18.1140 C   0  0  0  0  0  0
   37.5600  -32.7860  -18.1220 C   0  0  0  0  0  0
   36.4920  -32.2240  -18.8540 C   0  0  0  0  0  0
   40.4180  -30.5860  -18.6200 C   0  0  0  0  0  0
   40.9350  -31.5860  -17.7930 C   0  0  0  0  0  0
   39.9940  -32.4980  -17.5040 N   0  3  0  0  0  0
   41.2930  -29.4020  -19.1040 C   0  0  2  0  0  0
   42.4990  -29.2070  -18.1170 C   0  0  0  0  0  0
   42.9730  -30.4850  -17.5070 N   0  0  0  0  0  0
   42.2340  -31.6200  -17.3500 C   0  0  0  0  0  0
   42.6660  -32.6440  -16.8500 O   0  0  0  0  0  0
   35.6220  -30.3940  -20.3670 C   0  0  0  0  0  0
   34.4540  -30.5760  -20.0470 O   0  0  0  0  0  0
   36.0160  -29.6260  -21.4190 N   0  0  0  0  0  0
   35.1420  -28.8770  -22.3540 C   0  0  0  0  0  0
   33.4710  -29.1760  -22.5270 S   0  0  0  0  0  0
   33.3190  -27.9620  -23.7050 C   0  0  0  0  0  0
   34.5540  -27.3210  -23.9710 C   0  0  0  0  0  0
   35.5390  -27.8690  -23.1910 N   0  0  0  0  0  0
   34.7800  -26.2780  -24.8880 C   0  0  0  0  0  0
   36.0930  -26.0350  -25.1970 N   0  0  0  0  0  0
   33.8330  -25.6370  -25.3720 O   0  0  0  0  0  0
   36.4750  -24.9700  -26.1500 C   0  0  0  0  0  0
   38.0180  -24.7250  -26.2130 C   0  0  0  0  0  0
   38.6310  -24.5280  -27.5780 N   0  3  0  0  0  0
   39.9080  -23.8010  -27.4840 C   0  0  0  0  0  0
   37.7420  -23.7980  -28.5290 C   0  0  0  0  0  0
   40.5320  -28.0650  -19.1550 C   0  0  0  0  0  0
   38.1288  -29.4831  -20.1314 H   0  0  0  0  0  0
   37.4062  -33.7071  -17.5598 H   0  0  0  0  0  0
   35.5167  -32.7107  -18.8549 H   0  0  0  0  0  0
   41.6034  -29.6532  -20.1290 H   0  0  0  0  0  0
   43.3474  -28.7626  -18.6580 H   0  0  0  0  0  0
   42.1971  -28.5394  -17.2965 H   0  0  0  0  0  0
   44.0050  -30.5675  -17.1354 H   0  0  0  0  0  0
   37.0861  -29.5129  -21.6471 H   0  0  0  0  0  0
   32.3813  -27.7061  -24.1984 H   0  0  0  0  0  0
   36.8697  -26.6510  -24.7203 H   0  0  0  0  0  0
   36.1406  -25.2455  -27.1611 H   0  0  0  0  0  0
   36.0001  -24.0236  -25.8520 H   0  0  0  0  0  0
   38.2685  -23.8168  -25.6452 H   0  0  0  0  0  0
   38.5442  -25.5869  -25.7769 H   0  0  0  0  0  0
   38.8107  -25.5345  -27.9838 H   0  0  0  0  0  0
   40.5777  -24.3250  -26.7862 H   0  0  0  0  0  0
   39.7228  -22.7804  -27.1179 H   0  0  0  0  0  0
   40.3775  -23.7546  -28.4777 H   0  0  0  0  0  0
   36.7813  -24.3271  -28.6125 H   0  0  0  0  0  0
   38.2221  -23.7515  -29.5176 H   0  0  0  0  0  0
   37.5674  -22.7773  -28.1578 H   0  0  0  0  0  0
   39.6748  -28.1569  -19.8382 H   0  0  0  0  0  0
   41.2053  -27.2734  -19.5157 H   0  0  0  0  0  0
   40.1721  -27.8093  -18.1475 H   0  0  0  0  0  0
   40.0633  -33.4036  -16.8834 H   0  0  0  0  0  0
  1  2  2  0  0  0
  1  6  1  0  0  0
  1 15  1  0  0  0
  2  3  1  0  0  0
  2 32  1  0  0  0
  3  4  2  0  0  0
  3  7  1  0  0  0
  4  5  1  0  0  0
  4  9  1  0  0  0
  5  6  2  0  0  0
  5 33  1  0  0  0
  6 34  1  0  0  0
  7  8  2  0  0  0
  7 10  1  0  0  0
  8  9  1  0  0  0
  8 13  1  0  0  0
  9 56  1  0  0  0
 10 11  1  0  0  0
 10 31  1  0  0  0
 10 35  1  0  0  0
 11 12  1  0  0  0
 11 36  1  0  0  0
 11 37  1  0  0  0
 12 13  1  0  0  0
 12 38  1  0  0  0
 13 14  2  0  0  0
 15 16  2  0  0  0
 15 17  1  0  0  0
 17 18  1  0  0  0
 17 39  1  0  0  0
 18 19  1  0  0  0
 18 22  2  0  0  0
 19 20  1  0  0  0
 20 21  2  0  0  0
 20 40  1  0  0  0
 21 22  1  0  0  0
 21 23  1  0  0  0
 23 24  1  0  0  0
 23 25  2  0  0  0
 24 26  1  0  0  0
 24 41  1  0  0  0
 26 27  1  0  0  0
 26 42  1  0  0  0
 26 43  1  0  0  0
 27 28  1  0  0  0
 27 44  1  0  0  0
 27 45  1  0  0  0
 28 29  1  0  0  0
 28 30  1  0  0  0
 28 46  1  0  0  0
 29 47  1  0  0  0
 29 48  1  0  0  0
 29 49  1  0  0  0
 30 50  1  0  0  0
 30 51  1  0  0  0
 30 52  1  0  0  0
 31 53  1  0  0  0
 31 54  1  0  0  0
 31 55  1  0  0  0
M  CHG  2   9   1  28   1
M  END
> <s_m_source_file>
../2pzy_ligand.sdf

> <i_m_source_file_index>
1

> <s_epik_input>
Tz1DMVtOSF1bQ0gyXVtDQEhdKFtDSDNdKWMyYzFbbkhdYyhjMjMpW2NIXVtjSF1jKFtjSF0zKUMoPU8pW05IXWM0c1tjSF1jKG40KUMoPU8pW05IXVtDSDJdW0NIMl1bTkgrXShbQ0gzXSlbQ0gzXQ==

> <s_epik_cmdline>
J2VwaWtfYXBwJywgJy1pbWFlJywgJ2xpZ2FuZF9wcm8ubWFlJywgJy1vbWFlJywgJ2xpZ2FuZF9wcmVwLm1hZScsICctbXMnLCAnMScsICctcGgnLCAnNycsICctcGh0JywgJzAuNScsICctbnQn

> <r_lp_tautomer_probability>
1

> <r_epik_Ionization_Penalty>
  0.0063

> <r_epik_Ionization_Penalty_Charging>
  0.0062

> <r_epik_Ionization_Penalty_Neutral>
  0.0001

> <r_epik_State_Penalty>
 -0.0000

> <r_epik_Charging_Adjusted_Penalty>
0.00619477590996266

> <i_epik_Tot_Q>
2

> <i_epik_Tot_abs_Q>
2

$$$$
