2q11_ligand
                    3D
 Schrodinger Suite 2020-3.
 62 65  0  0  1  0            999 V2000
  197.9170    8.7920   21.0780 C   0  0  0  0  0  0
  198.3070    7.4450   20.6090 N   0  0  0  0  0  0
  199.0590    6.6020   21.4310 C   0  0  0  0  0  0
  199.3820    5.5000   21.0540 O   0  0  0  0  0  0
  199.4830    7.0330   22.8000 C   0  0  0  0  0  0
  198.5970    6.3740   23.8740 C   0  0  0  0  0  0
  197.3700    5.7670   23.2910 N   0  0  0  0  0  0
  196.1360    6.6190   23.1140 C   0  0  0  0  0  0
  195.0370    5.8770   22.3720 C   0  0  0  0  0  0
  193.9290    6.5660   21.8920 C   0  0  0  0  0  0
  192.8930    5.8520   21.1880 C   0  0  0  0  0  0
  191.6870    6.5780   20.6750 C   0  0  0  0  0  0
  190.5910    6.2720   21.1100 O   0  0  0  0  0  0
  191.8020    7.6840   19.6530 C   0  0  0  0  0  0
  193.0710    8.0510   19.0970 C   0  0  0  0  0  0
  193.1490    9.0940   18.1460 C   0  0  0  0  0  0
  191.9800    9.7780   17.7390 C   0  0  0  0  0  0
  190.7250    9.4270   18.2790 C   0  0  0  0  0  0
  190.6280    8.3840   19.2260 C   0  0  0  0  0  0
  193.0160    4.4320   20.9880 C   0  0  0  0  0  0
  194.1280    3.7460   21.4740 C   0  0  0  0  0  0
  195.1520    4.4480   22.1700 C   0  0  0  0  0  0
  196.2320    3.7750   22.6490 N   0  3  0  0  0  0
  197.3650    4.3940   22.9370 C   0  0  0  0  0  0
  198.5550    3.6860   22.9020 N   0  0  0  0  0  0
  197.8690    7.0100   19.2450 C   0  0  0  0  0  0
  199.0500    6.3720   18.4500 C   0  0  0  0  0  0
  198.5660    5.8260   17.0960 C   0  0  0  0  0  0
  197.4500    4.7890   17.3270 C   0  0  0  0  0  0
  196.2520    5.4820   17.9990 C   0  0  0  0  0  0
  196.6790    6.0130   19.3790 C   0  0  0  0  0  0
  198.3136    8.9567   22.0907 H   0  0  0  0  0  0
  196.8200    8.8704   21.0966 H   0  0  0  0  0  0
  198.3273    9.5509   20.3956 H   0  0  0  0  0  0
  200.5288    6.7373   22.9700 H   0  0  0  0  0  0
  199.3926    8.1260   22.8848 H   0  0  0  0  0  0
  199.1647    5.5798   24.3809 H   0  0  0  0  0  0
  198.2885    7.1311   24.6100 H   0  0  0  0  0  0
  195.7482    6.9121   24.1008 H   0  0  0  0  0  0
  196.3924    7.5205   22.5382 H   0  0  0  0  0  0
  193.8439    7.6415   22.0473 H   0  0  0  0  0  0
  193.9748    7.5265   19.4071 H   0  0  0  0  0  0
  194.1148    9.3724   17.7244 H   0  0  0  0  0  0
  192.0491   10.5803   17.0044 H   0  0  0  0  0  0
  189.8287    9.9617   17.9648 H   0  0  0  0  0  0
  189.6549    8.1104   19.6339 H   0  0  0  0  0  0
  192.2356    3.8901   20.4537 H   0  0  0  0  0  0
  194.2134    2.6702   21.3207 H   0  0  0  0  0  0
  199.5028    4.1912   23.1398 H   0  0  0  0  0  0
  198.5523    2.6185   22.6364 H   0  0  0  0  0  0
  197.5448    7.9170   18.7137 H   0  0  0  0  0  0
  199.8236    7.1328   18.2691 H   0  0  0  0  0  0
  199.4794    5.5439   19.0329 H   0  0  0  0  0  0
  198.1758    6.6535   16.4853 H   0  0  0  0  0  0
  199.4067    5.3481   16.5717 H   0  0  0  0  0  0
  197.1385    4.3643   16.3613 H   0  0  0  0  0  0
  197.8254    3.9850   17.9771 H   0  0  0  0  0  0
  195.9134    6.3194   17.3712 H   0  0  0  0  0  0
  195.4314    4.7596   18.1205 H   0  0  0  0  0  0
  196.9821    5.1627   20.0076 H   0  0  0  0  0  0
  195.8225    6.5245   19.8424 H   0  0  0  0  0  0
  196.1464    2.6882   22.7956 H   0  0  0  0  0  0
  1  2  1  0  0  0
  1 32  1  0  0  0
  1 33  1  0  0  0
  1 34  1  0  0  0
  2  3  1  0  0  0
  2 26  1  0  0  0
  3  4  2  0  0  0
  3  5  1  0  0  0
  5  6  1  0  0  0
  5 35  1  0  0  0
  5 36  1  0  0  0
  6  7  1  0  0  0
  6 37  1  0  0  0
  6 38  1  0  0  0
  7  8  1  0  0  0
  7 24  1  0  0  0
  8  9  1  0  0  0
  8 39  1  0  0  0
  8 40  1  0  0  0
  9 10  2  0  0  0
  9 22  1  0  0  0
 10 11  1  0  0  0
 10 41  1  0  0  0
 11 12  1  0  0  0
 11 20  2  0  0  0
 12 13  2  0  0  0
 12 14  1  0  0  0
 14 15  2  0  0  0
 14 19  1  0  0  0
 15 16  1  0  0  0
 15 42  1  0  0  0
 16 17  2  0  0  0
 16 43  1  0  0  0
 17 18  1  0  0  0
 17 44  1  0  0  0
 18 19  2  0  0  0
 18 45  1  0  0  0
 19 46  1  0  0  0
 20 21  1  0  0  0
 20 47  1  0  0  0
 21 22  2  0  0  0
 21 48  1  0  0  0
 22 23  1  0  0  0
 23 24  2  0  0  0
 23 62  1  0  0  0
 24 25  1  0  0  0
 25 49  1  0  0  0
 25 50  1  0  0  0
 26 27  1  0  0  0
 26 31  1  0  0  0
 26 51  1  0  0  0
 27 28  1  0  0  0
 27 52  1  0  0  0
 27 53  1  0  0  0
 28 29  1  0  0  0
 28 54  1  0  0  0
 28 55  1  0  0  0
 29 30  1  0  0  0
 29 56  1  0  0  0
 29 57  1  0  0  0
 30 31  1  0  0  0
 30 58  1  0  0  0
 30 59  1  0  0  0
 31 60  1  0  0  0
 31 61  1  0  0  0
M  CHG  1  23   1
M  END
> <s_m_source_file>
../2q11_ligand.sdf

> <i_m_source_file_index>
1

> <s_epik_input>
W0NIMl0xW0NIMl1bQ0gyXVtDSDJdW0NIMl1bQ0hdMU4oW0NIM10pQyg9TylbQ0gyXVtDSDJdTihbQ0gyXTIpQyhbTkgyXSk9TmMoYzIzKVtjSF1bY0hdYyhbY0hdMylDKD1PKWM0W2NIXVtjSF1bY0hdW2NIXVtjSF00

> <s_epik_cmdline>
J2VwaWtfYXBwJywgJy1pbWFlJywgJ2xpZ2FuZF9wcm8ubWFlJywgJy1vbWFlJywgJ2xpZ2FuZF9wcmVwLm1hZScsICctbXMnLCAnMScsICctcGgnLCAnNycsICctcGh0JywgJzAuNScsICctbnQn

> <r_epik_Ionization_Penalty>
  0.4262

> <r_epik_Ionization_Penalty_Charging>
  0.0000

> <r_epik_Ionization_Penalty_Neutral>
  0.4262

> <r_epik_State_Penalty>
  0.0095

> <r_epik_Charging_Adjusted_Penalty>
0.00953013271065257

> <i_epik_Tot_Q>
1

> <i_epik_Tot_abs_Q>
1

> <s_epik_Chemistry_Notes>
This compound has an imine and may undergo hydrolysis.

$$$$
