2q15_ligand
                    3D
 Schrodinger Suite 2020-3.
 80 84  0  0  1  0            999 V2000
   72.9440   46.5280    7.9080 C   0  0  0  0  0  0
   71.6390   47.1820    7.9130 N   0  0  0  0  0  0
   70.5450   46.4070    8.2060 C   0  0  0  0  0  0
   70.6760   45.2200    8.4690 O   0  0  0  0  0  0
   69.1630   47.0130    8.2000 C   0  0  0  0  0  0
   68.0710   46.0970    8.7240 C   0  0  0  0  0  0
   66.7820   46.6280    8.0820 C   0  0  1  0  0  0
   65.5940   46.0060    8.8160 C   0  0  0  0  0  0
   64.3970   46.8590    8.4240 C   0  0  0  0  0  0
   63.0950   46.3500    9.0180 C   0  0  0  0  0  0
   62.8450   44.9020    8.5990 C   0  0  0  0  0  0
   64.0590   44.0910    9.0320 C   0  0  0  0  0  0
   65.3300   44.5750    8.3270 C   0  0  0  0  0  0
   66.6720   48.0860    8.2110 N   0  0  0  0  0  0
   66.4230   48.5630    9.5710 C   0  0  0  0  0  0
   67.3960   49.6950    9.8370 C   0  0  0  0  0  0
   67.9260   49.8730   11.1350 C   0  0  0  0  0  0
   68.8100   50.9270   11.3860 C   0  0  0  0  0  0
   69.3110   51.2060   12.6370 O   0  0  0  0  0  0
   70.5180   50.6750   12.9980 C   0  0  0  0  0  0
   71.0850   49.6390   12.2950 C   0  0  0  0  0  0
   72.2900   49.1130   12.6840 C   0  0  0  0  0  0
   72.9640   49.6180   13.7850 C   0  0  0  0  0  0
   72.3970   50.6470   14.4630 C   0  0  0  0  0  0
   71.1810   51.1870   14.1060 C   0  0  0  0  0  0
   69.0810   51.7950   10.3390 C   0  0  0  0  0  0
   68.5620   51.6150    9.0620 C   0  0  0  0  0  0
   67.7070   50.5580    8.7660 C   0  0  0  0  0  0
   67.2080   50.3360    7.4740 N   0  3  0  0  0  0
   66.8550   49.0520    7.1830 C   0  0  0  0  0  0
   66.6720   48.6580    5.8740 N   0  0  0  0  0  0
   71.5370   48.6230    7.6680 C   0  0  0  0  0  0
   72.8960   49.1760    7.3060 C   0  0  0  0  0  0
   72.7130   50.6730    7.3220 C   0  0  0  0  0  0
   71.8790   50.9280    6.0660 C   0  0  0  0  0  0
   70.4620   50.4540    6.3600 C   0  0  0  0  0  0
   70.5940   48.9600    6.5230 C   0  0  0  0  0  0
   72.8167   45.4541    8.1094 H   0  0  0  0  0  0
   73.5806   46.9741    8.6863 H   0  0  0  0  0  0
   73.4180   46.6630    6.9246 H   0  0  0  0  0  0
   69.1549   47.9138    8.8313 H   0  0  0  0  0  0
   68.8860   47.2843    7.1706 H   0  0  0  0  0  0
   68.2839   45.0615    8.4201 H   0  0  0  0  0  0
   68.0372   46.1574    9.8218 H   0  0  0  0  0  0
   66.7884   46.4095    7.0039 H   0  0  0  0  0  0
   65.7773   45.9765    9.9002 H   0  0  0  0  0  0
   64.5491   47.8892    8.7785 H   0  0  0  0  0  0
   64.2902   46.8600    7.3292 H   0  0  0  0  0  0
   63.1485   46.4000   10.1156 H   0  0  0  0  0  0
   62.2614   46.9736    8.6627 H   0  0  0  0  0  0
   61.9352   44.5294    9.0923 H   0  0  0  0  0  0
   62.7166   44.8530    7.5076 H   0  0  0  0  0  0
   64.2000   44.1935   10.1181 H   0  0  0  0  0  0
   63.9008   43.0317    8.7811 H   0  0  0  0  0  0
   65.1923   44.5800    7.2357 H   0  0  0  0  0  0
   66.1866   43.9352    8.5856 H   0  0  0  0  0  0
   65.3853   48.9192    9.6504 H   0  0  0  0  0  0
   66.5838   47.7403   10.2833 H   0  0  0  0  0  0
   67.6466   49.1908   11.9379 H   0  0  0  0  0  0
   70.5734   49.2328   11.4224 H   0  0  0  0  0  0
   72.7236   48.2870   12.1202 H   0  0  0  0  0  0
   73.9214   49.2005   14.0968 H   0  0  0  0  0  0
   72.9233   51.0622   15.3225 H   0  0  0  0  0  0
   70.7462   52.0028   14.6836 H   0  0  0  0  0  0
   69.7270   52.6530   10.5248 H   0  0  0  0  0  0
   68.8312   52.3184    8.2741 H   0  0  0  0  0  0
   66.3871   47.6201    5.6467 H   0  0  0  0  0  0
   66.8109   49.3816    5.0573 H   0  0  0  0  0  0
   71.1497   49.0350    8.6116 H   0  0  0  0  0  0
   73.6362   48.8458    8.0497 H   0  0  0  0  0  0
   73.1877   48.8096    6.3107 H   0  0  0  0  0  0
   72.1915   50.9688    8.2442 H   0  0  0  0  0  0
   73.6970   51.1631    7.2840 H   0  0  0  0  0  0
   71.8862   52.0030    5.8331 H   0  0  0  0  0  0
   72.3065   50.3671    5.2218 H   0  0  0  0  0  0
   70.0967   50.9375    7.2780 H   0  0  0  0  0  0
   69.8045   50.7198    5.5191 H   0  0  0  0  0  0
   70.9863   48.5345    5.5876 H   0  0  0  0  0  0
   69.6000   48.5366    6.7299 H   0  0  0  0  0  0
   67.0936   51.1234    6.7145 H   0  0  0  0  0  0
  1  2  1  0  0  0
  1 38  1  0  0  0
  1 39  1  0  0  0
  1 40  1  0  0  0
  2  3  1  0  0  0
  2 32  1  0  0  0
  3  4  2  0  0  0
  3  5  1  0  0  0
  5  6  1  0  0  0
  5 41  1  0  0  0
  5 42  1  0  0  0
  6  7  1  0  0  0
  6 43  1  0  0  0
  6 44  1  0  0  0
  7  8  1  0  0  0
  7 14  1  0  0  0
  7 45  1  0  0  0
  8  9  1  0  0  0
  8 13  1  0  0  0
  8 46  1  0  0  0
  9 10  1  0  0  0
  9 47  1  0  0  0
  9 48  1  0  0  0
 10 11  1  0  0  0
 10 49  1  0  0  0
 10 50  1  0  0  0
 11 12  1  0  0  0
 11 51  1  0  0  0
 11 52  1  0  0  0
 12 13  1  0  0  0
 12 53  1  0  0  0
 12 54  1  0  0  0
 13 55  1  0  0  0
 13 56  1  0  0  0
 14 15  1  0  0  0
 14 30  1  0  0  0
 15 16  1  0  0  0
 15 57  1  0  0  0
 15 58  1  0  0  0
 16 17  2  0  0  0
 16 28  1  0  0  0
 17 18  1  0  0  0
 17 59  1  0  0  0
 18 19  1  0  0  0
 18 26  2  0  0  0
 19 20  1  0  0  0
 20 21  2  0  0  0
 20 25  1  0  0  0
 21 22  1  0  0  0
 21 60  1  0  0  0
 22 23  2  0  0  0
 22 61  1  0  0  0
 23 24  1  0  0  0
 23 62  1  0  0  0
 24 25  2  0  0  0
 24 63  1  0  0  0
 25 64  1  0  0  0
 26 27  1  0  0  0
 26 65  1  0  0  0
 27 28  2  0  0  0
 27 66  1  0  0  0
 28 29  1  0  0  0
 29 30  2  0  0  0
 29 80  1  0  0  0
 30 31  1  0  0  0
 31 67  1  0  0  0
 31 68  1  0  0  0
 32 33  1  0  0  0
 32 37  1  0  0  0
 32 69  1  0  0  0
 33 34  1  0  0  0
 33 70  1  0  0  0
 33 71  1  0  0  0
 34 35  1  0  0  0
 34 72  1  0  0  0
 34 73  1  0  0  0
 35 36  1  0  0  0
 35 74  1  0  0  0
 35 75  1  0  0  0
 36 37  1  0  0  0
 36 76  1  0  0  0
 36 77  1  0  0  0
 37 78  1  0  0  0
 37 79  1  0  0  0
M  CHG  1  29   1
M  END
> <s_m_source_file>
../2q15_ligand.sdf

> <i_m_source_file_index>
1

> <s_epik_input>
W0NIMl0xW0NIMl1bQ0gyXVtDSDJdW0NIMl1bQ0hdMU4oW0NIM10pQyg9TylbQ0gyXVtDSDJdW0NAQEhdKFtDSF0yW0NIMl1bQ0gyXVtDSDJdW0NIMl1bQ0gyXTIpTihbQ0gyXTMpQyhbTkgyXSk9TmMoYzM0KVtjSF1bY0hdYyhbY0hdNClPYzVbY0hdW2NIXVtjSF1bY0hdW2NIXTU=

> <s_epik_cmdline>
J2VwaWtfYXBwJywgJy1pbWFlJywgJ2xpZ2FuZF9wcm8ubWFlJywgJy1vbWFlJywgJ2xpZ2FuZF9wcmVwLm1hZScsICctbXMnLCAnMScsICctcGgnLCAnNycsICctcGh0JywgJzAuNScsICctbnQn

> <r_lp_tautomer_probability>
1

> <r_epik_Ionization_Penalty>
  0.0277

> <r_epik_Ionization_Penalty_Charging>
  0.0000

> <r_epik_Ionization_Penalty_Neutral>
  0.0277

> <r_epik_State_Penalty>
  0.0004

> <r_epik_Charging_Adjusted_Penalty>
0.000354821549759746

> <i_epik_Tot_Q>
1

> <i_epik_Tot_abs_Q>
1

> <s_epik_Chemistry_Notes>
This compound has an imine and may undergo hydrolysis.

$$$$
