2q1l_ligand
                    3D
 Schrodinger Suite 2020-3.
 75 78  0  0  1  0            999 V2000
   -4.3760  -16.1490    5.9810 N   0  0  0  0  0  0
   -4.3140  -16.1660    7.3370 C   0  0  0  0  0  0
   -5.5920  -15.9230    7.7830 C   0  0  0  0  0  0
   -3.2050  -16.4030    5.0930 C   0  0  0  0  0  0
   -3.1160  -16.4370    8.2070 C   0  0  0  0  0  0
   -2.1360  -15.2810    8.1590 C   0  0  0  0  0  0
   -0.6060  -14.0780    9.6930 C   0  0  0  0  0  0
   -2.8120  -15.1510    4.3140 C   0  0  0  0  0  0
   -7.1230  -16.4340   11.2280 C   0  0  0  0  0  0
   -7.8560  -15.3700    1.7450 C   0  0  0  0  0  0
   -8.2580  -15.3070    0.4130 C   0  0  0  0  0  0
   -5.4220  -14.6960    9.8940 C   0  0  0  0  0  0
   -9.6900  -14.1710    7.7540 C   0  0  0  0  0  0
   -5.7090  -14.4730   11.2350 C   0  0  0  0  0  0
   -7.4350  -17.7250    1.5040 C   0  0  0  0  0  0
  -10.5800  -15.1290    7.2720 C   0  0  0  0  0  0
   -1.9920  -10.9220   12.8300 O   0  5  0  0  0  0
   -2.1480  -11.1360   11.6070 C   0  0  0  0  0  0
   -3.1260  -10.6980   10.9630 O   0  0  0  0  0  0
   -1.1020  -11.9480   10.8740 C   0  0  0  0  0  0
   -1.5500  -13.3910   10.6700 C   0  0  2  0  0  0
   -1.5070  -14.1440   11.8700 O   0  0  0  0  0  0
   -1.1460  -15.4480    9.3040 C   0  0  2  0  0  0
   -0.0930  -16.2950    8.8810 O   0  0  0  0  0  0
   -5.9720  -15.7880    9.2190 C   0  0  0  0  0  0
   -6.5650  -15.3430   11.9010 C   0  0  0  0  0  0
   -6.8450  -15.1280   13.1980 F   0  0  0  0  0  0
   -6.8300  -16.6620    9.8810 C   0  0  0  0  0  0
   -3.5440  -17.5670    4.1810 C   0  0  0  0  0  0
   -5.6510  -15.8990    5.5750 C   0  0  0  0  0  0
   -6.4000  -15.6960    6.7190 C   0  0  0  0  0  0
   -7.8510  -15.4500    6.8870 C   0  0  0  0  0  0
   -8.3230  -14.3390    7.5750 C   0  0  0  0  0  0
  -11.8950  -14.9480    7.4520 F   0  0  0  0  0  0
  -10.1090  -16.2560    6.6060 C   0  0  0  0  0  0
   -8.7380  -16.4220    6.4260 C   0  0  0  0  0  0
   -6.2030  -15.7470    4.2020 C   0  0  0  0  0  0
   -5.8090  -14.7540    3.6000 O   0  0  0  0  0  0
   -7.0030  -16.6740    3.6510 N   0  0  0  0  0  0
   -7.4340  -16.5800    2.3050 C   0  0  0  0  0  0
   -7.8480  -17.6630    0.1750 C   0  0  0  0  0  0
   -8.2600  -16.4530   -0.3770 C   0  0  0  0  0  0
   -2.3382  -16.6684    5.7161 H   0  0  0  0  0  0
   -3.4431  -16.5787    9.2476 H   0  0  0  0  0  0
   -2.6060  -17.3462    7.8559 H   0  0  0  0  0  0
   -1.6048  -15.2904    7.1958 H   0  0  0  0  0  0
   -2.6823  -14.3324    8.2672 H   0  0  0  0  0  0
   -0.5052  -13.4630    8.7866 H   0  0  0  0  0  0
    0.3807  -14.2030   10.1629 H   0  0  0  0  0  0
   -2.5768  -14.3396    5.0185 H   0  0  0  0  0  0
   -3.6472  -14.8444    3.6672 H   0  0  0  0  0  0
   -1.9287  -15.3666    3.6949 H   0  0  0  0  0  0
   -7.7918  -17.1120   11.7582 H   0  0  0  0  0  0
   -7.8704  -14.4679    2.3566 H   0  0  0  0  0  0
   -8.5729  -14.3546   -0.0134 H   0  0  0  0  0  0
   -4.7605  -14.0114    9.3631 H   0  0  0  0  0  0
  -10.0671  -13.2891    8.2719 H   0  0  0  0  0  0
   -5.2679  -13.6252   11.7592 H   0  0  0  0  0  0
   -7.1092  -18.6768    1.9235 H   0  0  0  0  0  0
   -0.9158  -11.5002    9.8867 H   0  0  0  0  0  0
   -0.1685  -11.9541   11.4558 H   0  0  0  0  0  0
   -2.6043  -13.3932   10.3563 H   0  0  0  0  0  0
   -1.8049  -15.2029   11.8658 H   0  0  0  0  0  0
   -1.5902  -15.9563   10.1725 H   0  0  0  0  0  0
   -0.3099  -17.3256    8.5635 H   0  0  0  0  0  0
   -7.2668  -17.5117    9.3562 H   0  0  0  0  0  0
   -3.8194  -18.4412    4.7892 H   0  0  0  0  0  0
   -2.6699  -17.8130    3.5601 H   0  0  0  0  0  0
   -4.3884  -17.2908    3.5324 H   0  0  0  0  0  0
   -7.6240  -13.6030    7.9722 H   0  0  0  0  0  0
  -10.8072  -17.0029    6.2282 H   0  0  0  0  0  0
   -8.3582  -17.3122    5.9245 H   0  0  0  0  0  0
   -7.3405  -17.5342    4.2478 H   0  0  0  0  0  0
   -7.8486  -18.5660   -0.4356 H   0  0  0  0  0  0
   -8.5809  -16.4036   -1.4175 H   0  0  0  0  0  0
  1  2  1  0  0  0
  1  4  1  0  0  0
  1 30  1  0  0  0
  2  3  2  0  0  0
  2  5  1  0  0  0
  3 25  1  0  0  0
  3 31  1  0  0  0
  4  8  1  0  0  0
  4 29  1  0  0  0
  4 43  1  0  0  0
  5  6  1  0  0  0
  5 44  1  0  0  0
  5 45  1  0  0  0
  6 23  1  0  0  0
  6 46  1  0  0  0
  6 47  1  0  0  0
  7 21  1  0  0  0
  7 23  1  0  0  0
  7 48  1  0  0  0
  7 49  1  0  0  0
  8 50  1  0  0  0
  8 51  1  0  0  0
  8 52  1  0  0  0
  9 26  2  0  0  0
  9 28  1  0  0  0
  9 53  1  0  0  0
 10 11  2  0  0  0
 10 40  1  0  0  0
 10 54  1  0  0  0
 11 42  1  0  0  0
 11 55  1  0  0  0
 12 14  2  0  0  0
 12 25  1  0  0  0
 12 56  1  0  0  0
 13 16  2  0  0  0
 13 33  1  0  0  0
 13 57  1  0  0  0
 14 26  1  0  0  0
 14 58  1  0  0  0
 15 40  2  0  0  0
 15 41  1  0  0  0
 15 59  1  0  0  0
 16 34  1  0  0  0
 16 35  1  0  0  0
 17 18  1  0  0  0
 18 19  2  0  0  0
 18 20  1  0  0  0
 20 21  1  0  0  0
 20 60  1  0  0  0
 20 61  1  0  0  0
 21 22  1  0  0  0
 21 62  1  0  0  0
 22 63  1  0  0  0
 23 24  1  0  0  0
 23 64  1  0  0  0
 24 65  1  0  0  0
 25 28  2  0  0  0
 26 27  1  0  0  0
 28 66  1  0  0  0
 29 67  1  0  0  0
 29 68  1  0  0  0
 29 69  1  0  0  0
 30 31  2  0  0  0
 30 37  1  0  0  0
 31 32  1  0  0  0
 32 33  2  0  0  0
 32 36  1  0  0  0
 33 70  1  0  0  0
 35 36  2  0  0  0
 35 71  1  0  0  0
 36 72  1  0  0  0
 37 38  2  0  0  0
 37 39  1  0  0  0
 39 40  1  0  0  0
 39 73  1  0  0  0
 41 42  2  0  0  0
 41 74  1  0  0  0
 42 75  1  0  0  0
M  CHG  1  17  -1
M  END
> <s_m_source_file>
../2q1l_ligand.sdf

> <i_m_source_file_index>
1

> <s_epik_input>
W09IXUMoPU8pW0NIMl1bQ0BIXShbT0hdKVtDSDJdW0NASF0oW09IXSlbQ0gyXVtDSDJdYyhuMVtDSF0oW0NIM10pW0NIM10pYygtYzJbY0hdW2NIXWMoRilbY0hdW2NIXTIpYygtYyhbY0hdW2NIXTMpW2NIXVtjSF1jM0YpYzFDKD1PKVtOSF1jNFtjSF1bY0hdW2NIXVtjSF1bY0hdNA==

> <s_epik_cmdline>
J2VwaWtfYXBwJywgJy1pbWFlJywgJ2xpZ2FuZF9wcm8ubWFlJywgJy1vbWFlJywgJ2xpZ2FuZF9wcmVwLm1hZScsICctbXMnLCAnMScsICctcGgnLCAnNycsICctcGh0JywgJzAuNScsICctbnQn

> <r_lp_tautomer_probability>
1

> <r_epik_Ionization_Penalty>
  0.0032

> <r_epik_Ionization_Penalty_Charging>
  0.0032

> <r_epik_Ionization_Penalty_Neutral>
  0.0000

> <r_epik_State_Penalty>
 -0.0000

> <r_epik_Charging_Adjusted_Penalty>
0.00316919018605213

> <i_epik_Tot_Q>
-1

> <i_epik_Tot_abs_Q>
1

$$$$
