2q2n_ligand
                    3D
 Schrodinger Suite 2020-3.
 76 80  0  0  1  0            999 V2000
   26.8370   -3.0190    1.9250 N   0  3  0  0  0  0
   27.5450   -1.8800    1.7580 C   0  0  0  0  0  0
   27.1620   -0.9820    2.7510 C   0  0  0  0  0  0
   27.6930    1.3980    1.6550 O   0  0  0  0  0  0
   29.2260    0.6380    3.3860 O   0  0  0  0  0  0
   26.1980   -1.6100    3.5210 C   0  0  0  0  0  0
   25.1570   -3.8570    3.4550 C   0  0  0  0  0  0
   26.0070   -2.8730    2.9810 C   0  0  0  0  0  0
   22.4650   -7.9650    2.4860 C   0  0  0  0  0  0
   26.9800    1.3790    3.9940 O   0  5  0  0  0  0
   23.3620   -4.5130    5.6450 O   0  5  0  0  0  0
   24.6670   -4.9970    2.8350 C   0  0  0  0  0  0
   23.6550   -5.8180    3.2980 C   0  0  0  0  0  0
   23.4870   -6.8230    2.3860 C   0  0  0  0  0  0
   24.4190   -6.6150    1.3720 C   0  0  0  0  0  0
   24.6300   -7.3690    0.2230 C   0  0  0  0  0  0
   25.4480   -1.0430    4.7470 C   0  0  0  0  0  0
   29.3600  -10.4910   -4.8480 O   0  0  0  0  0  0
   29.8060   -9.4780   -4.2700 C   0  0  0  0  0  0
   30.8840   -8.8660   -4.5130 O   0  0  0  0  0  0
   28.9640   -8.9510   -3.1380 C   0  0  0  0  0  0
   27.7340   -8.2050   -3.6420 C   0  0  0  0  0  0
   27.0460   -7.5880   -2.4190 C   0  0  0  0  0  0
   25.9580   -8.0910   -1.7570 C   0  0  0  0  0  0
   25.1910   -9.3710   -2.1520 C   0  0  0  0  0  0
   25.6590   -7.2460   -0.6990 C   0  0  0  0  0  0
   26.5620   -6.2460   -0.6940 N   0  3  0  0  0  0
   27.4230   -6.4350   -1.7220 C   0  0  0  0  0  0
   28.4930   -5.5950   -2.0280 C   0  0  0  0  0  0
   28.9110   -4.3640   -1.5140 C   0  0  0  0  0  0
   28.2700   -3.7430   -0.5110 N   0  3  0  0  0  0
   30.0060   -3.5720   -1.9060 C   0  0  0  0  0  0
   31.0800   -3.8320   -3.0010 C   0  0  0  0  0  0
   30.5650   -4.6080   -4.2230 C   0  0  0  0  0  0
   30.0820   -3.6910   -5.3540 C   0  0  0  0  0  0
   29.3600   -2.7160   -5.0450 O   0  0  0  0  0  0
   30.4310   -4.0020   -6.5100 O   0  0  0  0  0  0
   29.9640   -2.4620   -1.0810 C   0  0  0  0  0  0
   30.9410   -1.2690   -1.0840 C   0  0  0  0  0  0
   28.8890   -2.5840   -0.2300 C   0  0  0  0  0  0
   28.4770   -1.6870    0.7510 C   0  0  0  0  0  0
   27.7910    0.6560    2.9520 S   0  0  0  0  0  0
   25.1200   -5.5010    1.6730 N   0  3  0  0  0  0
   22.7300   -5.5770    4.7880 S   0  0  0  0  0  0
   22.6610   -6.8570    5.5760 O   0  0  0  0  0  0
   21.3540   -5.1490    4.4190 O   0  0  0  0  0  0
   24.8180   -3.7129    4.4809 H   0  0  0  0  0  0
   21.8732   -7.8479    3.4058 H   0  0  0  0  0  0
   22.9939   -8.9292    2.5105 H   0  0  0  0  0  0
   21.7960   -7.9358    1.6133 H   0  0  0  0  0  0
   23.8982   -8.1515    0.0225 H   0  0  0  0  0  0
   25.7999   -0.0211    4.9517 H   0  0  0  0  0  0
   25.6423   -1.6800    5.6225 H   0  0  0  0  0  0
   24.3679   -1.0243    4.5396 H   0  0  0  0  0  0
   31.5384   -9.2073   -5.3287 H   0  0  0  0  0  0
   28.6250   -9.7896   -2.5120 H   0  0  0  0  0  0
   29.5616   -8.2568   -2.5289 H   0  0  0  0  0  0
   28.0446   -7.4208   -4.3481 H   0  0  0  0  0  0
   27.0602   -8.9103   -4.1505 H   0  0  0  0  0  0
   25.6666   -9.8262   -3.0333 H   0  0  0  0  0  0
   24.1479   -9.1148   -2.3895 H   0  0  0  0  0  0
   25.2119  -10.0841   -1.3147 H   0  0  0  0  0  0
   29.1304   -5.9735   -2.8271 H   0  0  0  0  0  0
   31.4667   -2.8709   -3.3708 H   0  0  0  0  0  0
   31.9057   -4.4191   -2.5727 H   0  0  0  0  0  0
   31.3727   -5.2375   -4.6246 H   0  0  0  0  0  0
   29.7189   -5.2440   -3.9236 H   0  0  0  0  0  0
   28.9927   -2.0342   -5.8262 H   0  0  0  0  0  0
   31.7051   -1.4228   -1.8602 H   0  0  0  0  0  0
   31.4277   -1.1912   -0.1006 H   0  0  0  0  0  0
   30.3871   -0.3420   -1.2934 H   0  0  0  0  0  0
   28.9489   -0.7048    0.7236 H   0  0  0  0  0  0
   26.5068   -5.4589    0.0725 H   0  0  0  0  0  0
   27.3797   -4.2040   -0.0583 H   0  0  0  0  0  0
   26.9953   -3.8696    1.2457 H   0  0  0  0  0  0
   25.9395   -4.9988    1.1380 H   0  0  0  0  0  0
  1  2  2  0  0  0
  1  8  1  0  0  0
  1 75  1  0  0  0
  2  3  1  0  0  0
  2 41  1  0  0  0
  3  6  2  0  0  0
  3 42  1  0  0  0
  4 42  2  0  0  0
  5 42  2  0  0  0
  6  8  1  0  0  0
  6 17  1  0  0  0
  7  8  2  0  0  0
  7 12  1  0  0  0
  7 47  1  0  0  0
  9 14  1  0  0  0
  9 48  1  0  0  0
  9 49  1  0  0  0
  9 50  1  0  0  0
 10 42  1  0  0  0
 11 44  1  0  0  0
 12 13  1  0  0  0
 12 43  2  0  0  0
 13 14  2  0  0  0
 13 44  1  0  0  0
 14 15  1  0  0  0
 15 16  2  0  0  0
 15 43  1  0  0  0
 16 26  1  0  0  0
 16 51  1  0  0  0
 17 52  1  0  0  0
 17 53  1  0  0  0
 17 54  1  0  0  0
 18 19  2  0  0  0
 19 20  1  0  0  0
 19 21  1  0  0  0
 20 55  1  0  0  0
 21 22  1  0  0  0
 21 56  1  0  0  0
 21 57  1  0  0  0
 22 23  1  0  0  0
 22 58  1  0  0  0
 22 59  1  0  0  0
 23 24  2  0  0  0
 23 28  1  0  0  0
 24 25  1  0  0  0
 24 26  1  0  0  0
 25 60  1  0  0  0
 25 61  1  0  0  0
 25 62  1  0  0  0
 26 27  2  0  0  0
 27 28  1  0  0  0
 27 73  1  0  0  0
 28 29  2  0  0  0
 29 30  1  0  0  0
 29 63  1  0  0  0
 30 31  2  0  0  0
 30 32  1  0  0  0
 31 40  1  0  0  0
 31 74  1  0  0  0
 32 33  1  0  0  0
 32 38  2  0  0  0
 33 34  1  0  0  0
 33 64  1  0  0  0
 33 65  1  0  0  0
 34 35  1  0  0  0
 34 66  1  0  0  0
 34 67  1  0  0  0
 35 36  1  0  0  0
 35 37  2  0  0  0
 36 68  1  0  0  0
 38 39  1  0  0  0
 38 40  1  0  0  0
 39 69  1  0  0  0
 39 70  1  0  0  0
 39 71  1  0  0  0
 40 41  2  0  0  0
 41 72  1  0  0  0
 43 76  1  0  0  0
 44 45  2  0  0  0
 44 46  2  0  0  0
M  CHG  6   1   1  10  -1  11  -1  27   1  31   1  43   1
M  END
> <s_m_source_file>
../2q2n_ligand.sdf

> <i_m_source_file_index>
1

> <s_epik_input>
Tz1TKD1PKShbT0hdKWMxYyhbQ0gzXSljKG5jMTIpW2NIXWMzYyhTKD1PKSg9TylbT0hdKWMoW0NIM10pYyhuMylbY0hdYzRjKFtDSDNdKWMoW0NIMl1bQ0gyXUMoPU8pW09IXSljKG40KVtjSF1jNW5jKFtjSF0yKWMoW0NIM10pYzVbQ0gyXVtDSDJdQyg9TylbT0hd

> <s_epik_cmdline>
J2VwaWtfYXBwJywgJy1pbWFlJywgJ2xpZ2FuZF9wcm8ubWFlJywgJy1vbWFlJywgJ2xpZ2FuZF9wcmVwLm1hZScsICctbXMnLCAnMScsICctcGgnLCAnNycsICctcGh0JywgJzAuNScsICctbnQn

> <r_lp_tautomer_probability>
1

> <r_epik_Ionization_Penalty>
  7.4296

> <r_epik_Ionization_Penalty_Charging>
  0.0000

> <r_epik_Ionization_Penalty_Neutral>
  7.4296

> <r_epik_State_Penalty>
 -0.0000

> <r_epik_Charging_Adjusted_Penalty>
2.49146290113444e-08

> <i_epik_Tot_Q>
2

> <i_epik_Tot_abs_Q>
6

$$$$
