2q2y_ligand
                    3D
 Schrodinger Suite 2020-3.
 68 72  0  0  1  0            999 V2000
   21.9000   16.5170  106.1240 C   0  0  0  0  0  0
   20.6630   16.6840  106.8450 C   0  0  0  0  0  0
   20.3150   15.5360  107.6560 C   0  0  0  0  0  0
   21.1400   14.3930  107.6850 C   0  0  0  0  0  0
   22.3140   14.2460  106.9980 C   0  0  0  0  0  0
   22.6750   15.3540  106.1700 C   0  0  0  0  0  0
   19.1170   15.4520  108.4270 N   0  3  0  0  0  0
   18.5790   16.4330  109.0100 N   0  0  0  0  0  0
   17.6140   16.1840  109.8890 C   0  0  1  0  0  0
   17.4540   14.5950  109.9210 C   0  0  1  0  0  0
   18.4700   14.1970  108.8090 C   0  0  2  0  0  0
   17.6410   14.0660  111.3530 C   0  0  0  0  0  0
   16.8730   17.2660  110.6740 C   0  0  0  0  0  0
   17.4730   18.6260  110.6720 C   0  0  0  0  0  0
   15.7920   17.0400  111.2440 O   0  0  0  0  0  0
   18.6610   14.6870  112.1340 C   0  0  0  0  0  0
   18.9970   14.3450  113.4740 C   0  0  0  0  0  0
   18.2150   13.3290  114.0090 C   0  0  0  0  0  0
   17.1740   12.6650  113.2940 C   0  0  0  0  0  0
   16.8900   13.0590  111.9240 C   0  0  0  0  0  0
   20.7560   13.2880  108.4210 O   0  0  0  0  0  0
   22.3890   17.5020  105.3880 F   0  0  0  0  0  0
   19.6320   13.3380  109.2680 C   0  0  0  0  0  0
   16.0120   14.3640  109.4640 C   0  0  0  0  0  0
   15.6410   14.2560  107.9870 C   0  0  0  0  0  0
   14.3280   15.0800  107.6970 C   0  0  0  0  0  0
   13.9080   15.0860  106.2690 N   0  3  0  0  0  0
   13.9750   16.3670  105.5640 C   0  0  0  0  0  0
   13.1720   14.0160  105.6240 C   0  0  0  0  0  0
   12.5210   16.8970  105.7600 C   0  0  0  0  0  0
   11.6500   14.3800  105.6820 C   0  0  0  0  0  0
   11.4400   15.8630  105.3840 N   0  0  0  0  0  0
   10.3150   16.3480  104.8040 C   0  0  0  0  0  0
    9.6020   15.2390  103.9500 C   0  0  0  0  0  0
    9.9870   17.5290  104.9460 O   0  0  0  0  0  0
   20.0510   17.5841  106.7857 H   0  0  0  0  0  0
   22.9291   13.3496  107.0763 H   0  0  0  0  0  0
   23.5760   15.2908  105.5599 H   0  0  0  0  0  0
   16.8660   16.2431  109.0846 H   0  0  0  0  0  0
   17.9365   13.6628  108.0090 H   0  0  0  0  0  0
   18.4221   18.6072  110.1162 H   0  0  0  0  0  0
   17.6608   18.9454  111.7077 H   0  0  0  0  0  0
   16.7801   19.3317  110.1906 H   0  0  0  0  0  0
   19.2301   15.4899  111.6654 H   0  0  0  0  0  0
   19.7956   14.8358  114.0302 H   0  0  0  0  0  0
   18.4083   13.0207  115.0365 H   0  0  0  0  0  0
   16.5982   11.8712  113.7698 H   0  0  0  0  0  0
   16.0983   12.5680  111.3581 H   0  0  0  0  0  0
   20.0032   13.7094  110.2346 H   0  0  0  0  0  0
   19.2963   12.2965  109.3799 H   0  0  0  0  0  0
   15.6428   13.4153  109.8808 H   0  0  0  0  0  0
   15.3784   15.1909  109.8173 H   0  0  0  0  0  0
   16.4613   14.6557  107.3727 H   0  0  0  0  0  0
   15.4697   13.2007  107.7282 H   0  0  0  0  0  0
   13.4937   14.6556  108.2748 H   0  0  0  0  0  0
   14.4811   16.1290  107.9905 H   0  0  0  0  0  0
   14.7334   14.4064  106.0104 H   0  0  0  0  0  0
   14.7397   17.0039  106.0327 H   0  0  0  0  0  0
   14.2387   16.1924  104.5105 H   0  0  0  0  0  0
   13.5025   13.9217  104.5791 H   0  0  0  0  0  0
   13.3590   13.0707  106.1545 H   0  0  0  0  0  0
   12.3685   17.1674  106.8153 H   0  0  0  0  0  0
   12.3657   17.7839  105.1281 H   0  0  0  0  0  0
   11.1022   13.7857  104.9359 H   0  0  0  0  0  0
   11.2582   14.1594  106.6859 H   0  0  0  0  0  0
   10.1558   14.2930  104.0417 H   0  0  0  0  0  0
    9.5769   15.5484  102.8947 H   0  0  0  0  0  0
    8.5740   15.0990  104.3156 H   0  0  0  0  0  0
  1  2  2  0  0  0
  1  6  1  0  0  0
  1 22  1  0  0  0
  2  3  1  0  0  0
  2 36  1  0  0  0
  3  4  2  0  0  0
  3  7  1  0  0  0
  4  5  1  0  0  0
  4 21  1  0  0  0
  5  6  2  0  0  0
  5 37  1  0  0  0
  6 38  1  0  0  0
  7  8  2  0  0  0
  7 11  1  0  0  0
  8  9  1  0  0  0
  9 10  1  0  0  0
  9 13  1  0  0  0
  9 39  1  0  0  0
 10 11  1  0  0  0
 10 12  1  0  0  0
 10 24  1  0  0  0
 11 23  1  0  0  0
 11 40  1  0  0  0
 12 16  2  0  0  0
 12 20  1  0  0  0
 13 14  1  0  0  0
 13 15  2  0  0  0
 14 41  1  0  0  0
 14 42  1  0  0  0
 14 43  1  0  0  0
 16 17  1  0  0  0
 16 44  1  0  0  0
 17 18  2  0  0  0
 17 45  1  0  0  0
 18 19  1  0  0  0
 18 46  1  0  0  0
 19 20  2  0  0  0
 19 47  1  0  0  0
 20 48  1  0  0  0
 21 23  1  0  0  0
 23 49  1  0  0  0
 23 50  1  0  0  0
 24 25  1  0  0  0
 24 51  1  0  0  0
 24 52  1  0  0  0
 25 26  1  0  0  0
 25 53  1  0  0  0
 25 54  1  0  0  0
 26 27  1  0  0  0
 26 55  1  0  0  0
 26 56  1  0  0  0
 27 28  1  0  0  0
 27 29  1  0  0  0
 27 57  1  0  0  0
 28 30  1  0  0  0
 28 58  1  0  0  0
 28 59  1  0  0  0
 29 31  1  0  0  0
 29 60  1  0  0  0
 29 61  1  0  0  0
 30 32  1  0  0  0
 30 62  1  0  0  0
 30 63  1  0  0  0
 31 32  1  0  0  0
 31 64  1  0  0  0
 31 65  1  0  0  0
 32 33  1  0  0  0
 33 34  1  0  0  0
 33 35  2  0  0  0
 34 66  1  0  0  0
 34 67  1  0  0  0
 34 68  1  0  0  0
M  CHG  2   7   1  27   1
M  END
> <s_m_source_file>
../2q2y_ligand.sdf

> <i_m_source_file_index>
1

> <s_epik_input>
W2NIXTFjKEYpW2NIXVtjSF1jKGMxMilPW0NIMl1bQ0BASF0zW04rXTI9TltDSF0oQyg9TylbQ0gzXSlbQ0BAXTMoYzRbY0hdW2NIXVtjSF1bY0hdW2NIXTQpW0NIMl1bQ0gyXVtDSDJdW05IK101W0NIMl1bQ0gyXU4oW0NIMl1bQ0gyXTUpQyg9TylbQ0gzXQ==

> <s_epik_cmdline>
J2VwaWtfYXBwJywgJy1pbWFlJywgJ2xpZ2FuZF9wcm8ubWFlJywgJy1vbWFlJywgJ2xpZ2FuZF9wcmVwLm1hZScsICctbXMnLCAnMScsICctcGgnLCAnNycsICctcGh0JywgJzAuNScsICctbnQn

> <r_lp_tautomer_probability>
0.99995

> <r_epik_Ionization_Penalty>
  0.1501

> <r_epik_Ionization_Penalty_Charging>
  0.1501

> <r_epik_Ionization_Penalty_Neutral>
  0.0000

> <r_epik_State_Penalty>
  0.1394

> <r_epik_Charging_Adjusted_Penalty>
0.289452153807631

> <i_epik_Tot_Q>
2

> <i_epik_Tot_abs_Q>
2

$$$$
