2q2z_ligand
                    3D
 Schrodinger Suite 2020-3.
 69 72  0  0  1  0            999 V2000
   21.9390   16.3780  106.8010 C   0  0  0  0  0  0
   20.8940   16.2580  107.7810 C   0  0  0  0  0  0
   20.8550   15.0040  108.6450 C   0  0  0  0  0  0
   21.7960   14.0510  108.4120 C   0  0  0  0  0  0
   22.8530   14.0980  107.5250 C   0  0  0  0  0  0
   22.8710   15.2870  106.7010 C   0  0  0  0  0  0
   19.8030   14.9600  109.5910 N   0  3  0  0  0  0
   19.2370   15.9940  110.1130 N   0  0  0  0  0  0
   18.1900   15.9200  110.9110 C   0  0  3  0  0  0
   17.9360   14.4530  110.9630 C   0  0  1  0  0  0
   19.2200   13.8630  110.3100 C   0  0  0  0  0  0
   18.0440   13.9180  112.3780 C   0  0  0  0  0  0
   17.0780   12.9400  112.8250 C   0  0  0  0  0  0
   17.2430   12.4510  114.1900 C   0  0  0  0  0  0
   18.3700   13.0050  115.0340 C   0  0  0  0  0  0
   19.3710   13.9870  114.6170 C   0  0  0  0  0  0
   19.1400   14.4120  113.2510 C   0  0  0  0  0  0
   17.5020   17.1510  111.5140 C   0  0  0  0  0  0
   18.2350   18.4940  111.1570 C   0  0  0  0  0  0
   16.4600   17.1550  112.2320 O   0  0  0  0  0  0
   21.7890   12.9590  109.0780 F   0  0  0  0  0  0
   22.1930   17.4780  105.9020 C   0  0  0  0  0  0
   16.6190   14.2230  110.1310 C   0  0  0  0  0  0
   16.5880   15.0110  108.8600 C   0  0  0  0  0  0
   15.2640   14.9690  108.0520 C   0  0  0  0  0  0
   15.6040   14.5620  106.6140 N   0  3  0  0  0  0
   14.6410   13.4540  106.1960 C   0  0  0  0  0  0
   15.7160   15.7320  105.6520 C   0  0  0  0  0  0
   14.2990   16.3190  105.3890 C   0  0  0  0  0  0
   13.2460   14.2040  106.3050 C   0  0  0  0  0  0
   13.2750   15.1750  105.1600 N   0  0  0  0  0  0
   12.3950   14.8750  104.0090 C   0  0  0  0  0  0
   11.4650   13.6430  104.1160 C   0  0  0  0  0  0
   12.2950   15.5300  102.9640 O   0  0  0  0  0  0
   20.1488   17.0441  107.9027 H   0  0  0  0  0  0
   23.6045   13.3119  107.4523 H   0  0  0  0  0  0
   23.6524   15.3620  105.9448 H   0  0  0  0  0  0
   17.7092   16.6617  111.5657 H   0  0  0  0  0  0
   18.9836   13.0492  109.6087 H   0  0  0  0  0  0
   19.9320   13.5003  111.0660 H   0  0  0  0  0  0
   16.2729   12.5881  112.1799 H   0  0  0  0  0  0
   16.5656   11.6991  114.5948 H   0  0  0  0  0  0
   18.4435   12.6348  116.0566 H   0  0  0  0  0  0
   20.1816   14.3501  115.2488 H   0  0  0  0  0  0
   19.8229   15.1509  112.8317 H   0  0  0  0  0  0
   19.1120   18.2774  110.5293 H   0  0  0  0  0  0
   18.5604   18.9913  112.0826 H   0  0  0  0  0  0
   17.5458   19.1535  110.6092 H   0  0  0  0  0  0
   21.4321   18.2579  106.0528 H   0  0  0  0  0  0
   22.1500   17.1197  104.8629 H   0  0  0  0  0  0
   23.1905   17.8947  106.1052 H   0  0  0  0  0  0
   16.5331   13.1585  109.8672 H   0  0  0  0  0  0
   15.7482   14.5231  110.7324 H   0  0  0  0  0  0
   16.7710   16.0726  109.0823 H   0  0  0  0  0  0
   17.3677   14.6393  108.1790 H   0  0  0  0  0  0
   14.5813   14.2348  108.5047 H   0  0  0  0  0  0
   14.7943   15.9636  108.0658 H   0  0  0  0  0  0
   16.6265   14.1594  106.5642 H   0  0  0  0  0  0
   14.8826   13.1242  105.1748 H   0  0  0  0  0  0
   14.7370   12.6044  106.8880 H   0  0  0  0  0  0
   16.3602   16.5077  106.0916 H   0  0  0  0  0  0
   16.1533   15.3864  104.7037 H   0  0  0  0  0  0
   13.9823   16.9155  106.2573 H   0  0  0  0  0  0
   14.3275   16.9593  104.4950 H   0  0  0  0  0  0
   12.4288   13.4736  106.2121 H   0  0  0  0  0  0
   13.1767   14.7097  107.2794 H   0  0  0  0  0  0
   11.6355   13.1373  105.0779 H   0  0  0  0  0  0
   11.6822   12.9470  103.2923 H   0  0  0  0  0  0
   10.4162   13.9688  104.0539 H   0  0  0  0  0  0
  1  2  2  0  0  0
  1  6  1  0  0  0
  1 22  1  0  0  0
  2  3  1  0  0  0
  2 35  1  0  0  0
  3  4  2  0  0  0
  3  7  1  0  0  0
  4  5  1  0  0  0
  4 21  1  0  0  0
  5  6  2  0  0  0
  5 36  1  0  0  0
  6 37  1  0  0  0
  7  8  2  0  0  0
  7 11  1  0  0  0
  8  9  1  0  0  0
  9 10  1  0  0  0
  9 18  1  0  0  0
  9 38  1  0  0  0
 10 11  1  0  0  0
 10 12  1  0  0  0
 10 23  1  0  0  0
 11 39  1  0  0  0
 11 40  1  0  0  0
 12 13  2  0  0  0
 12 17  1  0  0  0
 13 14  1  0  0  0
 13 41  1  0  0  0
 14 15  2  0  0  0
 14 42  1  0  0  0
 15 16  1  0  0  0
 15 43  1  0  0  0
 16 17  2  0  0  0
 16 44  1  0  0  0
 17 45  1  0  0  0
 18 19  1  0  0  0
 18 20  2  0  0  0
 19 46  1  0  0  0
 19 47  1  0  0  0
 19 48  1  0  0  0
 22 49  1  0  0  0
 22 50  1  0  0  0
 22 51  1  0  0  0
 23 24  1  0  0  0
 23 52  1  0  0  0
 23 53  1  0  0  0
 24 25  1  0  0  0
 24 54  1  0  0  0
 24 55  1  0  0  0
 25 26  1  0  0  0
 25 56  1  0  0  0
 25 57  1  0  0  0
 26 27  1  0  0  0
 26 28  1  0  0  0
 26 58  1  0  0  0
 27 30  1  0  0  0
 27 59  1  0  0  0
 27 60  1  0  0  0
 28 29  1  0  0  0
 28 61  1  0  0  0
 28 62  1  0  0  0
 29 31  1  0  0  0
 29 63  1  0  0  0
 29 64  1  0  0  0
 30 31  1  0  0  0
 30 65  1  0  0  0
 30 66  1  0  0  0
 31 32  1  0  0  0
 32 33  1  0  0  0
 32 34  2  0  0  0
 33 67  1  0  0  0
 33 68  1  0  0  0
 33 69  1  0  0  0
M  CHG  2   7   1  26   1
M  END
> <s_m_source_file>
../2q2z_ligand.sdf

> <i_m_source_file_index>
1

> <s_epik_input>
W2NIXTFbY0hdYyhGKWMoW2NIXWMxW0NIM10pW04rXShbQ0gyXTIpPU5bQ0hdKEMoPU8pW0NIM10pW0NAQF0yKGMzW2NIXVtjSF1bY0hdW2NIXVtjSF0zKVtDSDJdW0NIMl1bQ0gyXVtOSCtdNFtDSDJdW0NIMl1OKFtDSDJdW0NIMl00KUMoPU8pW0NIM10=

> <s_epik_cmdline>
J2VwaWtfYXBwJywgJy1pbWFlJywgJ2xpZ2FuZF9wcm8ubWFlJywgJy1vbWFlJywgJ2xpZ2FuZF9wcmVwLm1hZScsICctbXMnLCAnMScsICctcGgnLCAnNycsICctcGh0JywgJzAuNScsICctbnQn

> <r_lp_tautomer_probability>
0.99995

> <r_epik_Ionization_Penalty>
  0.1394

> <r_epik_Ionization_Penalty_Charging>
  0.1394

> <r_epik_Ionization_Penalty_Neutral>
  0.0000

> <r_epik_State_Penalty>
  0.1287

> <r_epik_Charging_Adjusted_Penalty>
0.268039281712663

> <i_epik_Tot_Q>
2

> <i_epik_Tot_abs_Q>
2

$$$$
