2q38_ligand
                    3D
 Schrodinger Suite 2020-3.
 16 17  0  0  1  0            999 V2000
   15.1690    6.8120   15.6170 C   0  0  0  0  0  0
   14.6890    5.7980   16.4530 C   0  0  0  0  0  0
   15.0310    4.4810   16.1470 C   0  0  0  0  0  0
   16.1030    2.6940   15.0540 C   0  0  0  0  0  0
   15.9540    6.5040   14.4950 C   0  0  0  0  0  0
   14.5830    3.0010   17.0080 S   0  0  0  0  0  0
   15.3560    2.0560   15.8870 N   0  0  0  0  0  0
   16.6240    2.0920   14.1220 O   0  5  0  0  0  0
   15.7940    4.1740   15.0290 C   0  0  0  0  0  0
   16.3230    5.1830   14.2250 C   0  0  0  0  0  0
   15.2640    2.9480   18.2880 O   0  0  0  0  0  0
   13.1510    2.8080   16.9460 O   0  0  0  0  0  0
   14.9308    7.8521   15.8394 H   0  0  0  0  0  0
   14.0667    6.0303   17.3172 H   0  0  0  0  0  0
   16.2790    7.3024   13.8279 H   0  0  0  0  0  0
   17.0056    4.9481   13.4083 H   0  0  0  0  0  0
  1  2  2  0  0  0
  1  5  1  0  0  0
  1 13  1  0  0  0
  2  3  1  0  0  0
  2 14  1  0  0  0
  3  6  1  0  0  0
  3  9  2  0  0  0
  4  7  2  0  0  0
  4  8  1  0  0  0
  4  9  1  0  0  0
  5 10  2  0  0  0
  5 15  1  0  0  0
  6  7  1  0  0  0
  6 11  2  0  0  0
  6 12  2  0  0  0
  9 10  1  0  0  0
 10 16  1  0  0  0
M  CHG  1   8  -1
M  END
> <s_m_source_file>
../2q38_ligand.sdf

> <i_m_source_file_index>
1

> <s_epik_input>
W2NIXTFbY0hdW2NIXVtjSF1jKGMxMilDKD1PKVtOSF1TMig9Tyk9Tw==

> <s_epik_cmdline>
J2VwaWtfYXBwJywgJy1pbWFlJywgJ2xpZ2FuZF9wcm8ubWFlJywgJy1vbWFlJywgJ2xpZ2FuZF9wcmVwLm1hZScsICctbXMnLCAnMScsICctcGgnLCAnNycsICctcGh0JywgJzAuNScsICctbnQn

> <r_lp_tautomer_probability>
1

> <r_epik_Ionization_Penalty>
  0.0000

> <r_epik_Ionization_Penalty_Charging>
  0.0000

> <r_epik_Ionization_Penalty_Neutral>
  0.0000

> <r_epik_State_Penalty>
 -0.0000

> <r_epik_Charging_Adjusted_Penalty>
1.87360154269046e-06

> <i_epik_Tot_Q>
-1

> <i_epik_Tot_abs_Q>
1

$$$$
