2q3z_ligand
                    3D
 Schrodinger Suite 2020-3.
 88 90  0  0  1  0            999 V2000
   -6.8360   -2.1530   22.7090 N   0  3  0  0  0  0
   -5.8020   -3.1700   22.9670 C   0  0  2  0  0  0
   -4.5210   -2.8320   22.2120 C   0  0  0  0  0  0
   -4.4110   -1.7950   21.5730 O   0  0  0  0  0  0
   -6.3700   -4.4890   22.4070 C   0  0  0  0  0  0
   -7.5780   -4.1160   21.5370 C   0  0  0  0  0  0
   -7.6990   -2.5830   21.5960 C   0  0  0  0  0  0
   -3.5660   -3.7430   22.3140 N   0  0  0  0  0  0
   -2.2760   -3.6270   21.6510 C   0  0  2  0  0  0
   -2.3730   -4.4540   20.3480 C   0  0  0  0  0  0
   -2.7690   -5.6200   20.3330 O   0  0  0  0  0  0
   -1.1650   -4.2170   22.5200 C   0  0  0  0  0  0
   -0.5280   -3.1790   23.4260 C   0  0  0  0  0  0
    0.5010   -3.8320   24.3310 C   0  0  0  0  0  0
    0.3350   -4.9660   24.7740 O   0  0  0  0  0  0
    1.7470   -3.0460   24.6900 C   0  0  0  0  0  0
   -1.9820   -3.8010   19.2670 N   0  0  0  0  0  0
   -1.9960   -4.3600   17.9250 C   0  0  2  0  0  0
   -0.6270   -4.1680   17.2900 C   0  0  0  0  0  0
    0.0930   -3.2540   17.6730 O   0  0  0  0  0  0
   -2.9780   -3.5050   17.0930 C   0  0  0  0  0  0
   -4.2790   -3.1110   17.8190 C   0  0  0  0  0  0
   -4.8790   -1.8360   17.2060 C   0  0  0  0  0  0
   -5.3160   -4.2300   17.7960 C   0  0  0  0  0  0
   -0.1980   -4.9400   16.2810 N   0  0  0  0  0  0
    1.0980   -4.7510   15.5910 C   0  0  2  0  0  0
    1.0900   -3.3160   15.0200 C   0  0  0  0  0  0
    0.0210   -2.7850   14.7050 O   0  0  0  0  0  0
    1.0620   -5.7520   14.4430 C   0  0  0  0  0  0
   -0.4250   -6.0640   14.2650 C   0  0  0  0  0  0
   -0.9630   -6.0470   15.6900 C   0  0  0  0  0  0
    2.2580   -2.6820   14.9120 N   0  0  0  0  0  0
    2.3080   -1.2990   14.3870 C   0  0  2  0  0  0
    1.7280   -1.3050   12.9590 C   0  0  0  0  0  0
    1.8670   -2.2860   12.2280 O   0  0  0  0  0  0
    3.7280   -0.7270   14.4140 C   0  0  0  0  0  0
    4.5890   -1.3700   13.3270 C   0  0  0  0  0  0
    5.3880   -2.4570   13.6320 C   0  0  0  0  0  0
    4.5610   -0.8780   12.0260 C   0  0  0  0  0  0
    6.1680   -3.0540   12.6430 C   0  0  0  0  0  0
    5.3320   -1.4700   11.0250 C   0  0  0  0  0  0
    6.1380   -2.5630   11.3370 C   0  0  0  0  0  0
    1.0703   -0.2391   12.5116 O   0  5  0  0  0  0
   -7.4501   -2.0174   23.6115 H   0  0  0  0  0  0
   -6.3549   -1.1994   22.4462 H   0  0  0  0  0  0
   -5.5821   -3.1947   24.0445 H   0  0  0  0  0  0
   -5.5986   -4.9955   21.8084 H   0  0  0  0  0  0
   -6.6741   -5.1401   23.2398 H   0  0  0  0  0  0
   -7.4068   -4.4583   20.5057 H   0  0  0  0  0  0
   -8.4816   -4.5982   21.9381 H   0  0  0  0  0  0
   -8.7354   -2.2726   21.7946 H   0  0  0  0  0  0
   -7.3502   -2.1196   20.6613 H   0  0  0  0  0  0
   -3.7866   -4.6216   22.9381 H   0  0  0  0  0  0
   -2.0832   -2.5559   21.4910 H   0  0  0  0  0  0
   -1.5801   -5.0137   23.1548 H   0  0  0  0  0  0
   -0.3778   -4.6347   21.8751 H   0  0  0  0  0  0
   -0.0324   -2.4119   22.8129 H   0  0  0  0  0  0
   -1.3046   -2.7075   24.0461 H   0  0  0  0  0  0
    1.7131   -2.0615   24.2006 H   0  0  0  0  0  0
    2.6374   -3.5945   24.3491 H   0  0  0  0  0  0
    1.7943   -2.9118   25.7808 H   0  0  0  0  0  0
   -1.6299   -2.7718   19.4305 H   0  0  0  0  0  0
   -2.2617   -5.4242   18.0078 H   0  0  0  0  0  0
   -2.4869   -2.5662   16.7971 H   0  0  0  0  0  0
   -3.2771   -4.0619   16.1928 H   0  0  0  0  0  0
   -4.0192   -2.9270   18.8719 H   0  0  0  0  0  0
   -4.1285   -1.0320   17.2245 H   0  0  0  0  0  0
   -5.7600   -1.5286   17.7885 H   0  0  0  0  0  0
   -5.1780   -2.0347   16.1662 H   0  0  0  0  0  0
   -4.8827   -5.1405   18.2355 H   0  0  0  0  0  0
   -5.6154   -4.4311   16.7568 H   0  0  0  0  0  0
   -6.1975   -3.9250   18.3791 H   0  0  0  0  0  0
    1.9614   -4.9089   16.2540 H   0  0  0  0  0  0
    1.4986   -5.2939   13.5433 H   0  0  0  0  0  0
    1.6416   -6.6457   14.7174 H   0  0  0  0  0  0
   -0.8884   -5.2924   13.6327 H   0  0  0  0  0  0
   -0.5385   -7.0476   13.7857 H   0  0  0  0  0  0
   -0.7542   -6.9739   16.2442 H   0  0  0  0  0  0
   -2.0380   -5.8207   15.7458 H   0  0  0  0  0  0
    3.1860   -3.1894   15.2143 H   0  0  0  0  0  0
    1.7024   -0.6727   15.0585 H   0  0  0  0  0  0
    3.6893    0.3587   14.2415 H   0  0  0  0  0  0
    4.1851   -0.9264   15.3945 H   0  0  0  0  0  0
    5.4078   -2.8481   14.6492 H   0  0  0  0  0  0
    3.9306   -0.0217   11.7863 H   0  0  0  0  0  0
    6.8022   -3.9054   12.8900 H   0  0  0  0  0  0
    5.3040   -1.0807   10.0073 H   0  0  0  0  0  0
    6.7438   -3.0335   10.5626 H   0  0  0  0  0  0
  1  2  1  0  0  0
  1  7  1  0  0  0
  1 44  1  0  0  0
  1 45  1  0  0  0
  2  3  1  0  0  0
  2  5  1  0  0  0
  2 46  1  0  0  0
  3  4  2  0  0  0
  3  8  1  0  0  0
  5  6  1  0  0  0
  5 47  1  0  0  0
  5 48  1  0  0  0
  6  7  1  0  0  0
  6 49  1  0  0  0
  6 50  1  0  0  0
  7 51  1  0  0  0
  7 52  1  0  0  0
  8  9  1  0  0  0
  8 53  1  0  0  0
  9 10  1  0  0  0
  9 12  1  0  0  0
  9 54  1  0  0  0
 10 11  2  0  0  0
 10 17  1  0  0  0
 12 13  1  0  0  0
 12 55  1  0  0  0
 12 56  1  0  0  0
 13 14  1  0  0  0
 13 57  1  0  0  0
 13 58  1  0  0  0
 14 15  2  0  0  0
 14 16  1  0  0  0
 16 59  1  0  0  0
 16 60  1  0  0  0
 16 61  1  0  0  0
 17 18  1  0  0  0
 17 62  1  0  0  0
 18 19  1  0  0  0
 18 21  1  0  0  0
 18 63  1  0  0  0
 19 20  2  0  0  0
 19 25  1  0  0  0
 21 22  1  0  0  0
 21 64  1  0  0  0
 21 65  1  0  0  0
 22 23  1  0  0  0
 22 24  1  0  0  0
 22 66  1  0  0  0
 23 67  1  0  0  0
 23 68  1  0  0  0
 23 69  1  0  0  0
 24 70  1  0  0  0
 24 71  1  0  0  0
 24 72  1  0  0  0
 25 26  1  0  0  0
 25 31  1  0  0  0
 26 27  1  0  0  0
 26 29  1  0  0  0
 26 73  1  0  0  0
 27 28  2  0  0  0
 27 32  1  0  0  0
 29 30  1  0  0  0
 29 74  1  0  0  0
 29 75  1  0  0  0
 30 31  1  0  0  0
 30 76  1  0  0  0
 30 77  1  0  0  0
 31 78  1  0  0  0
 31 79  1  0  0  0
 32 33  1  0  0  0
 32 80  1  0  0  0
 33 34  1  0  0  0
 33 36  1  0  0  0
 33 81  1  0  0  0
 34 35  2  0  0  0
 34 43  1  0  0  0
 36 37  1  0  0  0
 36 82  1  0  0  0
 36 83  1  0  0  0
 37 38  2  0  0  0
 37 39  1  0  0  0
 38 40  1  0  0  0
 38 84  1  0  0  0
 39 41  2  0  0  0
 39 85  1  0  0  0
 40 42  2  0  0  0
 40 86  1  0  0  0
 41 42  1  0  0  0
 41 87  1  0  0  0
 42 88  1  0  0  0
M  CHG  2   1   1  43  -1
M  END
> <s_m_source_file>
../2q3z_ligand.sdf

> <i_m_source_file_index>
1

> <s_epik_input>
W0NIMl0xW0NIMl1bQ0gyXVtOSDIrXVtDQEBIXTFDKD1PKVtOSF1bQ0BASF0oW0NIMl1bQ0gyXUMoPU8pW0NIM10pQyg9TylbTkhdW0NAQEhdKFtDSDJdW0NIXShbQ0gzXSlbQ0gzXSlDKD1PKU4yW0NAQEhdKFtDSDJdW0NIMl1bQ0gyXTIpQyg9TylbTkhdW0NASF0oQyg9TylbT0hdKVtDSDJdYzNbY0hdW2NIXVtjSF1bY0hdW2NIXTM=

> <s_epik_cmdline>
J2VwaWtfYXBwJywgJy1pbWFlJywgJ2xpZ2FuZF9wcm8ubWFlJywgJy1vbWFlJywgJ2xpZ2FuZF9wcmVwLm1hZScsICctbXMnLCAnMScsICctcGgnLCAnNycsICctcGh0JywgJzAuNScsICctbnQn

> <r_lp_tautomer_probability>
0.99999997

> <r_epik_Ionization_Penalty>
  0.0414

> <r_epik_Ionization_Penalty_Charging>
  0.0414

> <r_epik_Ionization_Penalty_Neutral>
  0.0000

> <r_epik_State_Penalty>
  0.0348

> <r_epik_Charging_Adjusted_Penalty>
0.0761916663028311

> <i_epik_Tot_Q>
0

> <i_epik_Tot_abs_Q>
2

$$$$
