2q54_ligand
                    3D
 Schrodinger Suite 2020-3.
 92 95  0  0  1  0            999 V2000
   21.9950    4.1030   19.0340 O   0  0  0  0  0  0
   21.9140    3.3640   19.9990 C   0  0  0  0  0  0
   21.6800    3.8920   21.3880 C   0  0  0  0  0  0
   22.0460    2.0390   19.8830 N   0  0  0  0  0  0
   22.3640    1.3790   18.6270 C   0  0  1  0  0  0
   23.7410    0.7170   18.6880 C   0  0  0  0  0  0
   24.0060   -0.0890   17.4180 C   0  0  0  0  0  0
   24.8440    1.7510   18.9380 C   0  0  0  0  0  0
   21.2890    0.3830   18.2760 C   0  0  0  0  0  0
   21.2460   -0.7000   18.8380 O   0  0  0  0  0  0
   20.4190    0.8130   17.3670 N   0  0  0  0  0  0
   19.1950    0.1150   16.9830 C   0  0  1  0  0  0
   17.9180    0.8490   17.4210 C   0  0  0  0  0  0
   18.0050    1.3720   18.8350 C   0  0  0  0  0  0
   17.7930    0.5270   19.9120 C   0  0  0  0  0  0
   17.8820    1.0220   21.2130 C   0  0  0  0  0  0
   18.1760    2.3660   21.4320 C   0  0  0  0  0  0
   18.3760    3.2100   20.3510 C   0  0  0  0  0  0
   18.2880    2.7120   19.0560 C   0  0  0  0  0  0
   19.0840    0.0230   15.4800 C   0  0  0  0  0  0
   20.3240   -0.4710   14.7690 C   0  0  2  0  0  0
   20.1560   -0.1430   13.3740 O   0  0  0  0  0  0
   20.5530   -1.9740   14.9720 C   0  0  2  0  0  0
   21.8940   -2.3610   14.3460 C   0  0  0  0  0  0
   22.1140   -3.8540   14.4610 C   0  0  0  0  0  0
   21.9940   -4.6770   13.3350 C   0  0  0  0  0  0
   22.1850   -6.0530   13.4490 C   0  0  0  0  0  0
   22.4970   -6.6080   14.6880 C   0  0  0  0  0  0
   22.6100   -5.7840   15.8060 C   0  0  0  0  0  0
   22.4180   -4.4100   15.6990 C   0  0  0  0  0  0
   19.4970   -2.8280   14.4180 N   0  0  0  0  0  0
   18.8020   -3.7360   15.1240 C   0  0  0  0  0  0
   18.8420   -3.8510   16.3450 O   0  0  0  0  0  0
   17.9480   -4.7220   14.3540 C   0  0  2  0  0  0
   18.4220   -6.1510   14.6110 C   0  0  0  0  0  0
   18.0250   -4.5340   12.9350 O   0  0  0  0  0  0
   18.3380   -5.8110   12.3450 C   0  0  0  0  0  0
   18.3490   -5.9640   11.1580 O   0  0  0  0  0  0
   18.5660   -6.7030   13.2790 N   0  0  0  0  0  0
   18.9390   -8.0430   13.0270 C   0  0  0  0  0  0
   18.4250   -8.7490   11.9420 C   0  0  0  0  0  0
   18.8120  -10.0690   11.7190 C   0  0  0  0  0  0
   19.7060  -10.7120   12.5770 C   0  0  0  0  0  0
   19.8410   -8.6960   13.8800 C   0  0  0  0  0  0
   20.2320  -10.0250   13.6680 C   0  0  0  0  0  0
   21.2010  -10.6950   14.6150 C   0  0  0  0  0  0
   21.5190  -10.1410   15.6630 O   0  0  0  0  0  0
   21.7700  -12.0480   14.2840 C   0  0  0  0  0  0
   21.5885    4.9876   21.3532 H   0  0  0  0  0  0
   22.5269    3.6151   22.0330 H   0  0  0  0  0  0
   20.7535    3.4594   21.7934 H   0  0  0  0  0  0
   21.9021    1.4432   20.7964 H   0  0  0  0  0  0
   22.3767    2.1693   17.8620 H   0  0  0  0  0  0
   23.7481    0.0178   19.5372 H   0  0  0  0  0  0
   23.1962   -0.8189   17.2713 H   0  0  0  0  0  0
   24.9649   -0.6194   17.5138 H   0  0  0  0  0  0
   24.0477    0.5909   16.5543 H   0  0  0  0  0  0
   24.6201    2.3107   19.8581 H   0  0  0  0  0  0
   24.8932    2.4474   18.0879 H   0  0  0  0  0  0
   25.8104    1.2371   19.0474 H   0  0  0  0  0  0
   20.6781    1.7707   16.8920 H   0  0  0  0  0  0
   19.3143   -0.8598   17.4784 H   0  0  0  0  0  0
   17.7406    1.7058   16.7543 H   0  0  0  0  0  0
   17.0624    0.1598   17.3679 H   0  0  0  0  0  0
   17.5569   -0.5236   19.7430 H   0  0  0  0  0  0
   17.7211    0.3556   22.0604 H   0  0  0  0  0  0
   18.2484    2.7520   22.4488 H   0  0  0  0  0  0
   18.6021    4.2634   20.5160 H   0  0  0  0  0  0
   18.4425    3.3793   18.2081 H   0  0  0  0  0  0
   18.2741   -0.6722   15.2140 H   0  0  0  0  0  0
   18.8632    1.0183   15.0670 H   0  0  0  0  0  0
   21.2221    0.0478   15.1354 H   0  0  0  0  0  0
   19.9829    0.9003   13.0713 H   0  0  0  0  0  0
   20.5093   -2.1786   16.0519 H   0  0  0  0  0  0
   21.8978   -2.0776   13.2831 H   0  0  0  0  0  0
   22.7075   -1.8362   14.8683 H   0  0  0  0  0  0
   21.7505   -4.2406   12.3663 H   0  0  0  0  0  0
   22.0905   -6.6927   12.5715 H   0  0  0  0  0  0
   22.6521   -7.6827   14.7826 H   0  0  0  0  0  0
   22.8515   -6.2206   16.7751 H   0  0  0  0  0  0
   22.5053   -3.7736   16.5796 H   0  0  0  0  0  0
   19.2268   -2.7487   13.3547 H   0  0  0  0  0  0
   16.9043   -4.5326   14.6452 H   0  0  0  0  0  0
   19.3747   -6.1281   15.1604 H   0  0  0  0  0  0
   17.6679   -6.6859   15.2070 H   0  0  0  0  0  0
   17.7184   -8.2679   11.2657 H   0  0  0  0  0  0
   18.4103  -10.6080   10.8610 H   0  0  0  0  0  0
   19.9912  -11.7479   12.3936 H   0  0  0  0  0  0
   20.2498   -8.1539   14.7327 H   0  0  0  0  0  0
   21.3754  -12.3844   13.3139 H   0  0  0  0  0  0
   21.4839  -12.7673   15.0656 H   0  0  0  0  0  0
   22.8667  -11.9815   14.2306 H   0  0  0  0  0  0
  1  2  2  0  0  0
  2  3  1  0  0  0
  2  4  1  0  0  0
  3 49  1  0  0  0
  3 50  1  0  0  0
  3 51  1  0  0  0
  4  5  1  0  0  0
  4 52  1  0  0  0
  5  6  1  0  0  0
  5  9  1  0  0  0
  5 53  1  0  0  0
  6  7  1  0  0  0
  6  8  1  0  0  0
  6 54  1  0  0  0
  7 55  1  0  0  0
  7 56  1  0  0  0
  7 57  1  0  0  0
  8 58  1  0  0  0
  8 59  1  0  0  0
  8 60  1  0  0  0
  9 10  2  0  0  0
  9 11  1  0  0  0
 11 12  1  0  0  0
 11 61  1  0  0  0
 12 13  1  0  0  0
 12 20  1  0  0  0
 12 62  1  0  0  0
 13 14  1  0  0  0
 13 63  1  0  0  0
 13 64  1  0  0  0
 14 15  2  0  0  0
 14 19  1  0  0  0
 15 16  1  0  0  0
 15 65  1  0  0  0
 16 17  2  0  0  0
 16 66  1  0  0  0
 17 18  1  0  0  0
 17 67  1  0  0  0
 18 19  2  0  0  0
 18 68  1  0  0  0
 19 69  1  0  0  0
 20 21  1  0  0  0
 20 70  1  0  0  0
 20 71  1  0  0  0
 21 22  1  0  0  0
 21 23  1  0  0  0
 21 72  1  0  0  0
 22 73  1  0  0  0
 23 24  1  0  0  0
 23 31  1  0  0  0
 23 74  1  0  0  0
 24 25  1  0  0  0
 24 75  1  0  0  0
 24 76  1  0  0  0
 25 26  2  0  0  0
 25 30  1  0  0  0
 26 27  1  0  0  0
 26 77  1  0  0  0
 27 28  2  0  0  0
 27 78  1  0  0  0
 28 29  1  0  0  0
 28 79  1  0  0  0
 29 30  2  0  0  0
 29 80  1  0  0  0
 30 81  1  0  0  0
 31 32  1  0  0  0
 31 82  1  0  0  0
 32 33  2  0  0  0
 32 34  1  0  0  0
 34 35  1  0  0  0
 34 36  1  0  0  0
 34 83  1  0  0  0
 35 39  1  0  0  0
 35 84  1  0  0  0
 35 85  1  0  0  0
 36 37  1  0  0  0
 37 38  2  0  0  0
 37 39  1  0  0  0
 39 40  1  0  0  0
 40 41  2  0  0  0
 40 44  1  0  0  0
 41 42  1  0  0  0
 41 86  1  0  0  0
 42 43  2  0  0  0
 42 87  1  0  0  0
 43 45  1  0  0  0
 43 88  1  0  0  0
 44 45  2  0  0  0
 44 89  1  0  0  0
 45 46  1  0  0  0
 46 47  2  0  0  0
 46 48  1  0  0  0
 48 90  1  0  0  0
 48 91  1  0  0  0
 48 92  1  0  0  0
M  END
> <s_m_source_file>
../2q54_ligand.sdf

> <i_m_source_file_index>
1

> <s_epik_input>
W2NIXTFbY0hdW2NIXVtjSF1bY0hdYzFbQ0gyXVtDQEhdKFtOSF1DKD1PKVtDQEhdKFtDSF0oW0NIM10pW0NIM10pW05IXUMoPU8pW0NIM10pW0NIMl1bQ0BIXShbT0hdKVtDQEhdKFtDSDJdYzJbY0hdW2NIXVtjSF1bY0hdW2NIXTIpW05IXUMoPU8pW0NAQEhdM1tDSDJdTihDKE8zKT1PKWM0W2NIXVtjSF1bY0hdYyhbY0hdNClDKD1PKVtDSDNd

> <s_epik_cmdline>
J2VwaWtfYXBwJywgJy1pbWFlJywgJ2xpZ2FuZF9wcm8ubWFlJywgJy1vbWFlJywgJ2xpZ2FuZF9wcmVwLm1hZScsICctbXMnLCAnMScsICctcGgnLCAnNycsICctcGh0JywgJzAuNScsICctbnQn

> <r_lp_tautomer_probability>
1

> <r_epik_Ionization_Penalty>
  0.0000

> <r_epik_Ionization_Penalty_Charging>
  0.0000

> <r_epik_Ionization_Penalty_Neutral>
  0.0000

> <r_epik_State_Penalty>
 -0.0000

> <r_epik_Charging_Adjusted_Penalty>
0

> <i_epik_Tot_Q>
0

> <i_epik_Tot_abs_Q>
0

> <s_epik_Chemistry_Notes>
This compound has an ester and may undergo hydrolysis at high or low pH.

$$$$
