2q55_ligand
                    3D
 Schrodinger Suite 2020-3.
 93 97  0  0  1  0            999 V2000
   18.6510   32.5180   13.8040 O   0  0  0  0  0  0
   18.3230   32.3600   14.9860 C   0  0  0  0  0  0
   17.0020   32.9580   15.4550 C   0  0  1  0  0  0
   16.5830   32.5760   16.7840 O   0  0  0  0  0  0
   15.9920   33.7530   17.3750 C   0  0  0  0  0  0
   15.3650   33.7590   18.4220 O   0  0  0  0  0  0
   16.2380   34.8040   16.6120 N   0  0  0  0  0  0
   17.0210   34.4920   15.4250 C   0  0  0  0  0  0
   15.9240   36.1130   17.0290 C   0  0  0  0  0  0
   14.6340   36.4350   17.4360 C   0  0  0  0  0  0
   14.3410   37.7280   17.8560 C   0  0  0  0  0  0
   15.3310   38.6990   17.8820 C   0  0  0  0  0  0
   16.6190   38.3750   17.4850 C   0  0  0  0  0  0
   16.9130   37.0860   17.0580 C   0  0  0  0  0  0
   19.0720   31.6510   15.8420 N   0  0  0  0  0  0
   20.2740   30.9420   15.4000 C   0  0  1  0  0  0
   21.5180   31.4370   16.1380 C   0  0  0  0  0  0
   21.7520   32.8990   15.8760 C   0  0  0  0  0  0
   22.1980   33.3110   14.6260 C   0  0  0  0  0  0
   22.4140   34.6550   14.3870 C   0  0  0  0  0  0
   21.5200   33.8440   16.8840 C   0  0  0  0  0  0
   21.7370   35.2000   16.6380 C   0  0  0  0  0  0
   22.1830   35.6040   15.3860 C   0  0  0  0  0  0
   20.1340   29.4300   15.6030 C   0  0  1  0  0  0
   19.9170   29.1300   16.9890 O   0  0  0  0  0  0
   18.9610   28.8070   14.8480 C   0  0  0  0  0  0
   19.1670   28.6470   13.3470 C   0  0  1  0  0  0
   20.4560   28.0440   13.0440 N   0  0  0  0  0  0
   21.3020   28.5020   12.1140 C   0  0  0  0  0  0
   21.1400   29.5080   11.4360 O   0  0  0  0  0  0
   22.5040   27.6150   11.8970 C   0  0  2  0  0  0
   23.7960   28.4390   11.9200 C   0  0  0  0  0  0
   23.8640   29.2340   13.2210 C   0  0  0  0  0  0
   24.9990   27.5290   11.7340 C   0  0  0  0  0  0
   22.3800   26.8110   10.6580 N   0  0  0  0  0  0
   22.3410   27.5590    9.3990 C   0  0  0  0  0  0
   23.0260   26.6630    8.3790 C   0  0  0  0  0  0
   22.2320   25.4820   10.7600 C   0  0  0  0  0  0
   22.1330   24.9370   11.8530 O   0  0  0  0  0  0
   22.1630   24.7630    9.6380 N   0  0  0  0  0  0
   22.2630   25.3450    8.3120 C   0  0  0  0  0  0
   18.0310   27.7420   12.8820 C   0  0  0  0  0  0
   18.0500   27.5000   11.3980 C   0  0  0  0  0  0
   18.6210   26.3450   10.8760 C   0  0  0  0  0  0
   18.6170   26.1360    9.5030 C   0  0  0  0  0  0
   18.0340   27.0700    8.6600 C   0  0  0  0  0  0
   17.4520   28.2100    9.1920 C   0  0  0  0  0  0
   17.4660   28.4270   10.5620 C   0  0  0  0  0  0
   16.2560   32.5092   14.7827 H   0  0  0  0  0  0
   18.0607   34.8469   15.4796 H   0  0  0  0  0  0
   16.5612   34.8462   14.4906 H   0  0  0  0  0  0
   13.8531   35.6746   17.4259 H   0  0  0  0  0  0
   13.3270   37.9799   18.1667 H   0  0  0  0  0  0
   15.0976   39.7111   18.2127 H   0  0  0  0  0  0
   17.4023   39.1326   17.5079 H   0  0  0  0  0  0
   17.9267   36.8375   16.7438 H   0  0  0  0  0  0
   18.7656   31.6090   16.8976 H   0  0  0  0  0  0
   20.3499   31.1805   14.3289 H   0  0  0  0  0  0
   21.3858   31.2887   17.2199 H   0  0  0  0  0  0
   22.3970   30.8715   15.7952 H   0  0  0  0  0  0
   22.3764   32.5786   13.8387 H   0  0  0  0  0  0
   22.7685   34.9782   13.4082 H   0  0  0  0  0  0
   21.1689   33.5188   17.8633 H   0  0  0  0  0  0
   21.5581   35.9362   17.4216 H   0  0  0  0  0  0
   22.3527   36.6614   15.1830 H   0  0  0  0  0  0
   21.0845   28.9821   15.2775 H   0  0  0  0  0  0
   20.6362   29.4764   17.7459 H   0  0  0  0  0  0
   18.7619   27.8009   15.2456 H   0  0  0  0  0  0
   18.0673   29.4353   14.9761 H   0  0  0  0  0  0
   19.2050   29.6128   12.8218 H   0  0  0  0  0  0
   20.7894   27.1525   13.5955 H   0  0  0  0  0  0
   22.5317   26.8758   12.7112 H   0  0  0  0  0  0
   23.8120   29.1561   11.0860 H   0  0  0  0  0  0
   22.9735   29.8740   13.3066 H   0  0  0  0  0  0
   24.7677   29.8612   13.2206 H   0  0  0  0  0  0
   23.8999   28.5397   14.0735 H   0  0  0  0  0  0
   24.9010   26.9810   10.7852 H   0  0  0  0  0  0
   25.0494   26.8130   12.5675 H   0  0  0  0  0  0
   25.9172   28.1344   11.7146 H   0  0  0  0  0  0
   21.2950   27.7582    9.1231 H   0  0  0  0  0  0
   22.8756   28.5124    9.5222 H   0  0  0  0  0  0
   23.0176   27.1545    7.3950 H   0  0  0  0  0  0
   24.0656   26.4820    8.6895 H   0  0  0  0  0  0
   22.0231   23.6780    9.7533 H   0  0  0  0  0  0
   21.2519   25.5263    7.9185 H   0  0  0  0  0  0
   22.7947   24.6468    7.6489 H   0  0  0  0  0  0
   18.1113   26.7660   13.3829 H   0  0  0  0  0  0
   17.0660   28.2055   13.1348 H   0  0  0  0  0  0
   19.0696   25.6070   11.5410 H   0  0  0  0  0  0
   19.0725   25.2370    9.0877 H   0  0  0  0  0  0
   18.0334   26.9082    7.5821 H   0  0  0  0  0  0
   16.9817   28.9385    8.5315 H   0  0  0  0  0  0
   17.0159   29.3290   10.9766 H   0  0  0  0  0  0
  1  2  2  0  0  0
  2  3  1  0  0  0
  2 15  1  0  0  0
  3  4  1  0  0  0
  3  8  1  0  0  0
  3 49  1  0  0  0
  4  5  1  0  0  0
  5  6  2  0  0  0
  5  7  1  0  0  0
  7  8  1  0  0  0
  7  9  1  0  0  0
  8 50  1  0  0  0
  8 51  1  0  0  0
  9 10  2  0  0  0
  9 14  1  0  0  0
 10 11  1  0  0  0
 10 52  1  0  0  0
 11 12  2  0  0  0
 11 53  1  0  0  0
 12 13  1  0  0  0
 12 54  1  0  0  0
 13 14  2  0  0  0
 13 55  1  0  0  0
 14 56  1  0  0  0
 15 16  1  0  0  0
 15 57  1  0  0  0
 16 17  1  0  0  0
 16 24  1  0  0  0
 16 58  1  0  0  0
 17 18  1  0  0  0
 17 59  1  0  0  0
 17 60  1  0  0  0
 18 19  2  0  0  0
 18 21  1  0  0  0
 19 20  1  0  0  0
 19 61  1  0  0  0
 20 23  2  0  0  0
 20 62  1  0  0  0
 21 22  2  0  0  0
 21 63  1  0  0  0
 22 23  1  0  0  0
 22 64  1  0  0  0
 23 65  1  0  0  0
 24 25  1  0  0  0
 24 26  1  0  0  0
 24 66  1  0  0  0
 25 67  1  0  0  0
 26 27  1  0  0  0
 26 68  1  0  0  0
 26 69  1  0  0  0
 27 28  1  0  0  0
 27 42  1  0  0  0
 27 70  1  0  0  0
 28 29  1  0  0  0
 28 71  1  0  0  0
 29 30  2  0  0  0
 29 31  1  0  0  0
 31 32  1  0  0  0
 31 35  1  0  0  0
 31 72  1  0  0  0
 32 33  1  0  0  0
 32 34  1  0  0  0
 32 73  1  0  0  0
 33 74  1  0  0  0
 33 75  1  0  0  0
 33 76  1  0  0  0
 34 77  1  0  0  0
 34 78  1  0  0  0
 34 79  1  0  0  0
 35 36  1  0  0  0
 35 38  1  0  0  0
 36 37  1  0  0  0
 36 80  1  0  0  0
 36 81  1  0  0  0
 37 41  1  0  0  0
 37 82  1  0  0  0
 37 83  1  0  0  0
 38 39  2  0  0  0
 38 40  1  0  0  0
 40 41  1  0  0  0
 40 84  1  0  0  0
 41 85  1  0  0  0
 41 86  1  0  0  0
 42 43  1  0  0  0
 42 87  1  0  0  0
 42 88  1  0  0  0
 43 44  2  0  0  0
 43 48  1  0  0  0
 44 45  1  0  0  0
 44 89  1  0  0  0
 45 46  2  0  0  0
 45 90  1  0  0  0
 46 47  1  0  0  0
 46 91  1  0  0  0
 47 48  2  0  0  0
 47 92  1  0  0  0
 48 93  1  0  0  0
M  END
> <s_m_source_file>
../2q55_ligand.sdf

> <i_m_source_file_index>
1

> <s_epik_input>
W2NIXTFbY0hdW2NIXVtjSF1bY0hdYzFOKFtDSDJdMilDKD1PKU9bQ0BASF0yQyg9TylbTkhdW0NAQEhdKFtDSDJdYzNbY0hdW2NIXVtjSF1bY0hdW2NIXTMpW0NAQEhdKFtPSF0pW0NIMl1bQ0BIXShbQ0gyXWM0W2NIXVtjSF1bY0hdW2NIXVtjSF00KVtOSF1DKD1PKVtDQEhdKFtDSF0oW0NIM10pW0NIM10pTjVbQ0gyXVtDSDJdW0NIMl1bTkhdQzU9Tw==

> <s_epik_cmdline>
J2VwaWtfYXBwJywgJy1pbWFlJywgJ2xpZ2FuZF9wcm8ubWFlJywgJy1vbWFlJywgJ2xpZ2FuZF9wcmVwLm1hZScsICctbXMnLCAnMScsICctcGgnLCAnNycsICctcGh0JywgJzAuNScsICctbnQn

> <r_lp_tautomer_probability>
1

> <r_epik_Ionization_Penalty>
  0.0001

> <r_epik_Ionization_Penalty_Charging>
  0.0000

> <r_epik_Ionization_Penalty_Neutral>
  0.0001

> <r_epik_State_Penalty>
 -0.0000

> <r_epik_Charging_Adjusted_Penalty>
0

> <i_epik_Tot_Q>
0

> <i_epik_Tot_abs_Q>
0

> <s_epik_Chemistry_Notes>
This compound has an ester and may undergo hydrolysis at high or low pH.

$$$$
