2q63_ligand
                    3D
 Schrodinger Suite 2020-3.
 86 89  0  0  1  0            999 V2000
  -12.8660   58.3170    4.2060 C   0  0  2  0  0  0
  -13.3990   58.6880    5.5930 C   0  0  1  0  0  0
  -14.4810   59.7720    5.5230 C   0  0  0  0  0  0
  -15.5600   59.4760    4.4800 C   0  0  0  0  0  0
  -14.9460   59.1400    3.1200 C   0  0  0  0  0  0
  -13.9890   57.9580    3.2260 C   0  0  0  0  0  0
  -12.3270   56.0250    5.0420 N   0  3  1  0  0  0
  -12.7860   56.3980    6.4060 C   0  0  1  0  0  0
  -13.9010   57.4470    6.3280 C   0  0  0  0  0  0
  -11.8300   57.2000    4.2950 C   0  0  0  0  0  0
  -13.3230   55.2150    7.1530 C   0  0  0  0  0  0
  -13.0440   55.1770    8.4670 N   0  0  0  0  0  0
  -13.4630   54.1340    9.3960 C   0  0  0  0  0  0
  -13.0260   52.7460    8.9140 C   0  0  0  0  0  0
  -14.9790   54.1650    9.5730 C   0  0  0  0  0  0
  -12.7880   54.4300   10.7260 C   0  0  0  0  0  0
  -13.9770   54.3800    6.5530 O   0  0  0  0  0  0
  -11.2530   55.0150    5.0970 C   0  0  0  0  0  0
  -11.1990   54.2300    3.7870 C   0  0  2  0  0  0
  -12.3030   53.1870    3.6650 C   0  0  1  0  0  0
   -9.9090   53.6160    3.6190 O   0  0  0  0  0  0
  -12.2390   52.6530    2.3170 N   0  0  0  0  0  0
  -12.2340   52.0740    4.7110 C   0  0  0  0  0  0
  -13.2350   52.8230    1.4580 C   0  0  0  0  0  0
  -14.2830   53.3570    1.7680 O   0  0  0  0  0  0
  -13.0530   52.3440    0.0530 C   0  0  0  0  0  0
  -12.9560   50.9850   -0.2320 C   0  0  0  0  0  0
  -12.7760   50.5380   -1.5400 C   0  0  0  0  0  0
  -12.6940   51.4290   -2.6120 C   0  0  0  0  0  0
  -12.7780   52.8050   -2.4100 C   0  0  0  0  0  0
  -12.9650   53.3310   -1.0450 C   0  0  0  0  0  0
  -12.6950   53.6650   -3.4600 O   0  0  0  0  0  0
  -13.0670   54.8180   -0.7720 C   0  0  0  0  0  0
  -13.5890   50.9510    4.5790 S   0  0  0  0  0  0
  -13.5240   49.7510    3.3790 C   0  0  0  0  0  0
  -14.7030   49.3020    2.7780 C   0  0  0  0  0  0
  -14.6670   48.3170    1.7880 C   0  0  0  0  0  0
  -13.4410   47.7750    1.3980 C   0  0  0  0  0  0
  -12.2640   48.2260    1.9940 C   0  0  0  0  0  0
  -12.3010   49.2110    2.9850 C   0  0  0  0  0  0
  -12.3648   59.2103    3.8050 H   0  0  0  0  0  0
  -12.5613   59.1088    6.1685 H   0  0  0  0  0  0
  -14.9774   59.8582    6.5008 H   0  0  0  0  0  0
  -14.0188   60.7350    5.2603 H   0  0  0  0  0  0
  -16.1645   58.6186    4.8110 H   0  0  0  0  0  0
  -16.2075   60.3574    4.3620 H   0  0  0  0  0  0
  -15.7458   58.8821    2.4102 H   0  0  0  0  0  0
  -14.3888   60.0108    2.7440 H   0  0  0  0  0  0
  -13.5574   57.7384    2.2383 H   0  0  0  0  0  0
  -14.5289   57.0735    3.5951 H   0  0  0  0  0  0
  -13.1968   55.6042    4.5164 H   0  0  0  0  0  0
  -11.8938   56.7772    6.9258 H   0  0  0  0  0  0
  -14.2095   57.7240    7.3468 H   0  0  0  0  0  0
  -14.7600   57.0230    5.7873 H   0  0  0  0  0  0
  -11.5610   56.8679    3.2814 H   0  0  0  0  0  0
  -10.9319   57.5730    4.8091 H   0  0  0  0  0  0
  -12.4458   56.0268    8.8275 H   0  0  0  0  0  0
  -13.5097   52.5230    7.9516 H   0  0  0  0  0  0
  -13.3213   51.9902    9.6567 H   0  0  0  0  0  0
  -11.9334   52.7289    8.7879 H   0  0  0  0  0  0
  -15.4651   53.9506    8.6098 H   0  0  0  0  0  0
  -15.2867   55.1605    9.9255 H   0  0  0  0  0  0
  -15.2775   53.4062   10.3113 H   0  0  0  0  0  0
  -11.6959   54.4071   10.5960 H   0  0  0  0  0  0
  -13.0853   53.6713   11.4649 H   0  0  0  0  0  0
  -13.0945   55.4257   11.0791 H   0  0  0  0  0  0
  -10.2867   55.5157    5.2567 H   0  0  0  0  0  0
  -11.4466   54.3186    5.9262 H   0  0  0  0  0  0
  -11.3067   54.9414    2.9549 H   0  0  0  0  0  0
  -13.2831   53.6656    3.8076 H   0  0  0  0  0  0
   -8.9968   54.2279    3.6775 H   0  0  0  0  0  0
  -11.3507   52.0934    1.9887 H   0  0  0  0  0  0
  -11.3030   51.5034    4.5784 H   0  0  0  0  0  0
  -12.2530   52.5157    5.7182 H   0  0  0  0  0  0
  -13.0217   50.2600    0.5792 H   0  0  0  0  0  0
  -12.6974   49.4677   -1.7305 H   0  0  0  0  0  0
  -12.5622   51.0421   -3.6225 H   0  0  0  0  0  0
  -12.5555   53.2764   -4.4796 H   0  0  0  0  0  0
  -13.2031   54.9842    0.3068 H   0  0  0  0  0  0
  -13.9269   55.2329   -1.3183 H   0  0  0  0  0  0
  -12.1451   55.3162   -1.1063 H   0  0  0  0  0  0
  -15.6599   49.7244    3.0846 H   0  0  0  0  0  0
  -15.5909   47.9736    1.3227 H   0  0  0  0  0  0
  -13.4041   47.0021    0.6304 H   0  0  0  0  0  0
  -11.3066   47.8068    1.6844 H   0  0  0  0  0  0
  -11.3765   49.5557    3.4482 H   0  0  0  0  0  0
  1  2  1  0  0  0
  1  6  1  0  0  0
  1 10  1  0  0  0
  1 41  1  0  0  0
  2  3  1  0  0  0
  2  9  1  0  0  0
  2 42  1  0  0  0
  3  4  1  0  0  0
  3 43  1  0  0  0
  3 44  1  0  0  0
  4  5  1  0  0  0
  4 45  1  0  0  0
  4 46  1  0  0  0
  5  6  1  0  0  0
  5 47  1  0  0  0
  5 48  1  0  0  0
  6 49  1  0  0  0
  6 50  1  0  0  0
  7  8  1  0  0  0
  7 10  1  0  0  0
  7 18  1  0  0  0
  7 51  1  0  0  0
  8  9  1  0  0  0
  8 11  1  0  0  0
  8 52  1  0  0  0
  9 53  1  0  0  0
  9 54  1  0  0  0
 10 55  1  0  0  0
 10 56  1  0  0  0
 11 12  1  0  0  0
 11 17  2  0  0  0
 12 13  1  0  0  0
 12 57  1  0  0  0
 13 14  1  0  0  0
 13 15  1  0  0  0
 13 16  1  0  0  0
 14 58  1  0  0  0
 14 59  1  0  0  0
 14 60  1  0  0  0
 15 61  1  0  0  0
 15 62  1  0  0  0
 15 63  1  0  0  0
 16 64  1  0  0  0
 16 65  1  0  0  0
 16 66  1  0  0  0
 18 19  1  0  0  0
 18 67  1  0  0  0
 18 68  1  0  0  0
 19 20  1  0  0  0
 19 21  1  0  0  0
 19 69  1  0  0  0
 20 22  1  0  0  0
 20 23  1  0  0  0
 20 70  1  0  0  0
 21 71  1  0  0  0
 22 24  1  0  0  0
 22 72  1  0  0  0
 23 34  1  0  0  0
 23 73  1  0  0  0
 23 74  1  0  0  0
 24 25  2  0  0  0
 24 26  1  0  0  0
 26 27  2  0  0  0
 26 31  1  0  0  0
 27 28  1  0  0  0
 27 75  1  0  0  0
 28 29  2  0  0  0
 28 76  1  0  0  0
 29 30  1  0  0  0
 29 77  1  0  0  0
 30 31  2  0  0  0
 30 32  1  0  0  0
 31 33  1  0  0  0
 32 78  1  0  0  0
 33 79  1  0  0  0
 33 80  1  0  0  0
 33 81  1  0  0  0
 34 35  1  0  0  0
 35 36  2  0  0  0
 35 40  1  0  0  0
 36 37  1  0  0  0
 36 82  1  0  0  0
 37 38  2  0  0  0
 37 83  1  0  0  0
 38 39  1  0  0  0
 38 84  1  0  0  0
 39 40  2  0  0  0
 39 85  1  0  0  0
 40 86  1  0  0  0
M  CHG  1   7   1
M  END
> <s_m_source_file>
../2q63_ligand.sdf

> <i_m_source_file_index>
1

> <s_epik_input>
W0NIMl0xW0NIMl1bQ0gyXVtDSDJdW0NASF0oW0NASF0xMilbQ0gyXVtDQEBIXShDKD1PKVtOSF1DKFtDSDNdKShbQ0gzXSlbQ0gzXSlbTkBASCtdKFtDSDJdMilbQ0gyXVtDQEBIXShbT0hdKVtDQEhdKFtDSDJdU2MzW2NIXVtjSF1bY0hdW2NIXVtjSF0zKVtOSF1DKD1PKWM0W2NIXVtjSF1bY0hdYyhbT0hdKWM0W0NIM10=

> <s_epik_cmdline>
J2VwaWtfYXBwJywgJy1pbWFlJywgJ2xpZ2FuZF9wcm8ubWFlJywgJy1vbWFlJywgJ2xpZ2FuZF9wcmVwLm1hZScsICctbXMnLCAnMScsICctcGgnLCAnNycsICctcGh0JywgJzAuNScsICctbnQn

> <r_lp_tautomer_probability>
0.999999999997365

> <r_epik_Ionization_Penalty>
  0.0194

> <r_epik_Ionization_Penalty_Charging>
  0.0175

> <r_epik_Ionization_Penalty_Neutral>
  0.0019

> <r_epik_State_Penalty>
  0.0138

> <r_epik_Charging_Adjusted_Penalty>
0.0313186340146469

> <i_epik_Tot_Q>
1

> <i_epik_Tot_abs_Q>
1

$$$$
