2q6b_ligand
                    3D
 Schrodinger Suite 2020-3.
 72 75  0  0  1  0            999 V2000
   32.5800   -7.5890   -2.8380 N   0  0  0  0  0  0
   34.2530   -8.9710   -3.4720 C   0  0  0  0  0  0
   34.7390   -7.8300   -2.8750 C   0  0  0  0  0  0
   34.9740  -10.1610   -4.0570 C   0  0  0  0  0  0
   38.8840   -6.9570   -2.2590 C   0  0  0  0  0  0
   37.0010   -7.2270   -3.7460 C   0  0  0  0  0  0
   31.2110   -7.0300   -2.6180 C   0  0  0  0  0  0
   31.9970   -9.8290   -3.9990 C   0  0  0  0  0  0
   38.3490   -6.9410   -3.5420 C   0  0  0  0  0  0
   31.7070  -11.5610   -5.5210 C   0  0  0  0  0  0
   33.4080   -5.7760   -0.3590 C   0  0  0  0  0  0
   33.5340   -4.4570    0.3940 C   0  0  2  0  0  0
   33.5860   -4.7220    1.8950 C   0  0  0  0  0  0
   34.9420   -5.5240    3.8210 C   0  0  0  0  0  0
   30.3850  -11.5130   -5.9670 C   0  0  0  0  0  0
   40.1880   -6.6770   -2.0840 F   0  0  0  0  0  0
   36.1840   -7.5320   -2.6630 C   0  0  0  0  0  0
   36.7160   -7.5440   -1.3730 C   0  0  0  0  0  0
   38.0680   -7.2590   -1.1700 C   0  0  0  0  0  0
   33.7280   -6.9740   -2.4850 C   0  0  0  0  0  0
   33.8780   -5.6350   -1.7980 C   0  0  0  0  0  0
   32.4080   -3.6450    0.1130 O   0  0  0  0  0  0
   34.9240   -5.3130    2.3140 C   0  0  2  0  0  0
   35.9690   -4.4380    1.9380 O   0  0  0  0  0  0
   36.1180   -6.4010    4.1710 C   0  0  0  0  0  0
   36.1270   -7.6820    3.8050 O   0  5  0  0  0  0
   37.0650   -5.9340    4.7780 O   0  0  0  0  0  0
   30.4680   -6.9740   -3.9470 C   0  0  0  0  0  0
   30.4610   -7.8300   -1.5540 C   0  0  0  0  0  0
   34.7620  -10.2030   -5.5750 C   0  0  0  0  0  0
   33.3480   -9.8740   -6.0740 C   0  0  0  0  0  0
   32.3570  -10.4190   -5.1470 N   0  0  0  0  0  0
   31.1440  -10.3010   -3.2640 O   0  0  0  0  0  0
   32.8810   -8.7700   -3.4280 C   0  0  0  0  0  0
   29.7200  -12.6790   -6.3440 C   0  0  0  0  0  0
   30.3790  -13.9030   -6.2840 C   0  0  0  0  0  0
   31.7010  -13.9550   -5.8460 C   0  0  0  0  0  0
   32.3680  -12.7890   -5.4680 C   0  0  0  0  0  0
   36.0498  -10.0797   -3.8424 H   0  0  0  0  0  0
   34.5796  -11.0851   -3.6093 H   0  0  0  0  0  0
   36.5869   -7.2117   -4.7541 H   0  0  0  0  0  0
   31.3087   -6.0032   -2.2358 H   0  0  0  0  0  0
   38.9876   -6.7034   -4.3928 H   0  0  0  0  0  0
   34.0224   -6.5416    0.1373 H   0  0  0  0  0  0
   32.3558   -6.0966   -0.3635 H   0  0  0  0  0  0
   34.4132   -3.8914    0.0518 H   0  0  0  0  0  0
   33.4381   -3.7777    2.4394 H   0  0  0  0  0  0
   32.7919   -5.4318    2.1698 H   0  0  0  0  0  0
   35.0370   -4.5515    4.3263 H   0  0  0  0  0  0
   34.0064   -6.0102    4.1344 H   0  0  0  0  0  0
   29.8679  -10.5550   -6.0210 H   0  0  0  0  0  0
   36.0752   -7.7762   -0.5224 H   0  0  0  0  0  0
   38.4841   -7.2727   -0.1626 H   0  0  0  0  0  0
   33.2657   -4.8789   -2.3113 H   0  0  0  0  0  0
   34.9327   -5.3227   -1.8104 H   0  0  0  0  0  0
   32.1940   -3.3406   -0.9222 H   0  0  0  0  0  0
   35.1299   -6.2528    1.7808 H   0  0  0  0  0  0
   36.1086   -4.1706    0.8802 H   0  0  0  0  0  0
   31.0538   -6.3876   -4.6701 H   0  0  0  0  0  0
   29.4869   -6.4991   -3.7988 H   0  0  0  0  0  0
   30.3269   -7.9949   -4.3315 H   0  0  0  0  0  0
   31.0434   -7.8352   -0.6209 H   0  0  0  0  0  0
   30.3198   -8.8633   -1.9039 H   0  0  0  0  0  0
   29.4799   -7.3674   -1.3713 H   0  0  0  0  0  0
   35.4302   -9.4754   -6.0588 H   0  0  0  0  0  0
   34.9872  -11.2127   -5.9489 H   0  0  0  0  0  0
   33.2261   -8.7826   -6.1368 H   0  0  0  0  0  0
   33.1979  -10.3176   -7.0693 H   0  0  0  0  0  0
   28.6858  -12.6318   -6.6851 H   0  0  0  0  0  0
   29.8635  -14.8172   -6.5783 H   0  0  0  0  0  0
   32.2178  -14.9135   -5.7983 H   0  0  0  0  0  0
   33.4037  -12.8373   -5.1318 H   0  0  0  0  0  0
  1  7  1  0  0  0
  1 20  1  0  0  0
  1 34  1  0  0  0
  2  3  1  0  0  0
  2  4  1  0  0  0
  2 34  2  0  0  0
  3 17  1  0  0  0
  3 20  2  0  0  0
  4 30  1  0  0  0
  4 39  1  0  0  0
  4 40  1  0  0  0
  5  9  2  0  0  0
  5 16  1  0  0  0
  5 19  1  0  0  0
  6  9  1  0  0  0
  6 17  2  0  0  0
  6 41  1  0  0  0
  7 28  1  0  0  0
  7 29  1  0  0  0
  7 42  1  0  0  0
  8 32  1  0  0  0
  8 33  2  0  0  0
  8 34  1  0  0  0
  9 43  1  0  0  0
 10 15  2  0  0  0
 10 32  1  0  0  0
 10 38  1  0  0  0
 11 12  1  0  0  0
 11 21  1  0  0  0
 11 44  1  0  0  0
 11 45  1  0  0  0
 12 13  1  0  0  0
 12 22  1  0  0  0
 12 46  1  0  0  0
 13 23  1  0  0  0
 13 47  1  0  0  0
 13 48  1  0  0  0
 14 23  1  0  0  0
 14 25  1  0  0  0
 14 49  1  0  0  0
 14 50  1  0  0  0
 15 35  1  0  0  0
 15 51  1  0  0  0
 17 18  1  0  0  0
 18 19  2  0  0  0
 18 52  1  0  0  0
 19 53  1  0  0  0
 20 21  1  0  0  0
 21 54  1  0  0  0
 21 55  1  0  0  0
 22 56  1  0  0  0
 23 24  1  0  0  0
 23 57  1  0  0  0
 24 58  1  0  0  0
 25 26  1  0  0  0
 25 27  2  0  0  0
 28 59  1  0  0  0
 28 60  1  0  0  0
 28 61  1  0  0  0
 29 62  1  0  0  0
 29 63  1  0  0  0
 29 64  1  0  0  0
 30 31  1  0  0  0
 30 65  1  0  0  0
 30 66  1  0  0  0
 31 32  1  0  0  0
 31 67  1  0  0  0
 31 68  1  0  0  0
 35 36  2  0  0  0
 35 69  1  0  0  0
 36 37  1  0  0  0
 36 70  1  0  0  0
 37 38  2  0  0  0
 37 71  1  0  0  0
 38 72  1  0  0  0
M  CHG  1  26  -1
M  END
> <s_m_source_file>
../2q6b_ligand.sdf

> <i_m_source_file_index>
1

> <s_epik_input>
W2NIXTFbY0hdW2NIXVtjSF1bY0hdYzFOKFtDSDJdW0NIMl1bQ0gyXTIpQyg9TyljKGMyMyluKFtDSF0oW0NIM10pW0NIM10pYyhjMy1jKFtjSF1bY0hdNClbY0hdW2NIXWM0RilbQ0gyXVtDSDJdW0NAQEhdKFtPSF0pW0NIMl1bQ0BASF0oW09IXSlbQ0gyXUMoPU8pW09IXQ==

> <s_epik_cmdline>
J2VwaWtfYXBwJywgJy1pbWFlJywgJ2xpZ2FuZF9wcm8ubWFlJywgJy1vbWFlJywgJ2xpZ2FuZF9wcmVwLm1hZScsICctbXMnLCAnMScsICctcGgnLCAnNycsICctcGh0JywgJzAuNScsICctbnQn

> <r_lp_tautomer_probability>
1

> <r_epik_Ionization_Penalty>
  0.0032

> <r_epik_Ionization_Penalty_Charging>
  0.0032

> <r_epik_Ionization_Penalty_Neutral>
  0.0000

> <r_epik_State_Penalty>
 -0.0000

> <r_epik_Charging_Adjusted_Penalty>
0.00316919018605213

> <i_epik_Tot_Q>
-1

> <i_epik_Tot_abs_Q>
1

$$$$
