2q6c_ligand
                    3D
 Schrodinger Suite 2020-3.
 73 77  0  0  1  0            999 V2000
   98.9790   -9.0980   16.7000 N   0  0  0  0  0  0
  103.8140  -14.1070   17.6240 C   0  0  0  0  0  0
   98.7830   -8.3170   18.8750 C   0  0  0  0  0  0
   98.8750   -9.2600   15.2140 C   0  0  0  0  0  0
   97.6160   -6.9040   16.9910 C   0  0  0  0  0  0
   96.1280   -7.1460   16.9120 C   0  0  0  0  0  0
   93.9800   -5.9010   16.9520 C   0  0  0  0  0  0
   99.3400   -8.0220   14.4520 C   0  0  0  0  0  0
   98.7570   -5.8870   21.8020 C   0  0  0  0  0  0
  101.0240  -14.1650   17.6110 C   0  0  0  0  0  0
  101.6920  -12.9990   17.9770 C   0  0  0  0  0  0
   97.0520   -7.6440   20.4980 C   0  0  0  0  0  0
  100.7310  -10.6310   22.3260 C   0  0  0  0  0  0
   96.5880   -6.9200   21.5890 C   0  0  0  0  0  0
  103.0890  -12.9710   17.9760 C   0  0  0  0  0  0
  101.4310  -11.7770   21.9820 C   0  0  0  0  0  0
  100.5150  -11.5860   16.1550 O   0  0  0  0  0  0
  100.3900  -11.1480   17.3180 C   0  0  0  0  0  0
   99.6540   -9.9730   17.5010 C   0  0  0  0  0  0
   97.4550   -9.6910   14.8390 C   0  0  0  0  0  0
   99.5600   -9.5470   18.8970 C   0  0  0  0  0  0
  100.2030  -10.2970   20.0010 C   0  0  0  0  0  0
  100.1140   -9.8880   21.3310 C   0  0  0  0  0  0
  100.9010  -11.4470   19.6390 C   0  0  0  0  0  0
  101.5200  -12.1860   20.6570 C   0  0  0  0  0  0
  100.9710  -11.8320   18.3350 N   0  0  0  0  0  0
  103.1440  -15.2730   17.2600 C   0  0  0  0  0  0
  101.7510  -15.2990   17.2540 C   0  0  0  0  0  0
   98.3630   -7.4920   20.0460 C   0  0  0  0  0  0
   97.4420   -6.0420   22.2450 C   0  0  0  0  0  0
   99.2220   -6.6130   20.7010 C   0  0  0  0  0  0
   96.9800   -5.3450   23.3010 F   0  0  0  0  0  0
   98.4120   -8.0940   17.4550 C   0  0  0  0  0  0
   95.4680   -5.7900   16.6850 C   0  0  2  0  0  0
   95.7000   -5.3790   15.3460 O   0  0  0  0  0  0
   93.6880   -5.9130   18.4490 C   0  0  1  0  0  0
   94.0020   -4.6550   19.0290 O   0  0  0  0  0  0
   92.2160   -6.2330   18.6440 C   0  0  0  0  0  0
   91.9660   -6.5690   20.0890 C   0  0  0  0  0  0
   91.3720   -5.7200   20.7850 O   0  0  0  0  0  0
   92.3630   -7.6760   20.5210 O   0  5  0  0  0  0
  104.9037  -14.0838   17.6333 H   0  0  0  0  0  0
   99.5757  -10.0578   14.9267 H   0  0  0  0  0  0
   97.9963   -6.6302   15.9958 H   0  0  0  0  0  0
   97.8174   -6.0860   17.6983 H   0  0  0  0  0  0
   95.9114   -7.8287   16.0771 H   0  0  0  0  0  0
   95.7791   -7.5957   17.8533 H   0  0  0  0  0  0
   93.4614   -5.0426   16.5001 H   0  0  0  0  0  0
   93.5971   -6.8337   16.5122 H   0  0  0  0  0  0
  100.3627   -7.7626   14.7632 H   0  0  0  0  0  0
   98.6655   -7.1814   14.6718 H   0  0  0  0  0  0
   99.3270   -8.2299   13.3719 H   0  0  0  0  0  0
   99.4247   -5.1964   22.3171 H   0  0  0  0  0  0
   99.9343  -14.1905   17.6038 H   0  0  0  0  0  0
   96.3840   -8.3389   19.9892 H   0  0  0  0  0  0
  100.6663  -10.3172   23.3678 H   0  0  0  0  0  0
   95.5593   -7.0401   21.9287 H   0  0  0  0  0  0
  103.6137  -12.0563   18.2519 H   0  0  0  0  0  0
  101.9176  -12.3645   22.7605 H   0  0  0  0  0  0
   97.1779  -10.5841   15.4184 H   0  0  0  0  0  0
   97.4141   -9.9236   13.7647 H   0  0  0  0  0  0
   96.7526   -8.8751   15.0645 H   0  0  0  0  0  0
   99.5600   -8.9852   21.5883 H   0  0  0  0  0  0
  102.0761  -13.0895   20.4068 H   0  0  0  0  0  0
  103.7082  -16.1628   16.9806 H   0  0  0  0  0  0
  101.2271  -16.2112   16.9685 H   0  0  0  0  0  0
  100.2495   -6.4918   20.3579 H   0  0  0  0  0  0
   95.9116   -5.0041   17.3139 H   0  0  0  0  0  0
   96.7295   -5.2477   14.9815 H   0  0  0  0  0  0
   94.3341   -6.6218   18.9877 H   0  0  0  0  0  0
   95.0302   -4.2674   18.9785 H   0  0  0  0  0  0
   91.6102   -5.3601   18.3593 H   0  0  0  0  0  0
   91.9408   -7.0916   18.0139 H   0  0  0  0  0  0
  1  4  1  0  0  0
  1 19  1  0  0  0
  1 33  1  0  0  0
  2 15  2  0  0  0
  2 27  1  0  0  0
  2 42  1  0  0  0
  3 21  1  0  0  0
  3 29  1  0  0  0
  3 33  2  0  0  0
  4  8  1  0  0  0
  4 20  1  0  0  0
  4 43  1  0  0  0
  5  6  1  0  0  0
  5 33  1  0  0  0
  5 44  1  0  0  0
  5 45  1  0  0  0
  6 34  1  0  0  0
  6 46  1  0  0  0
  6 47  1  0  0  0
  7 34  1  0  0  0
  7 36  1  0  0  0
  7 48  1  0  0  0
  7 49  1  0  0  0
  8 50  1  0  0  0
  8 51  1  0  0  0
  8 52  1  0  0  0
  9 30  2  0  0  0
  9 31  1  0  0  0
  9 53  1  0  0  0
 10 11  2  0  0  0
 10 28  1  0  0  0
 10 54  1  0  0  0
 11 15  1  0  0  0
 11 26  1  0  0  0
 12 14  2  0  0  0
 12 29  1  0  0  0
 12 55  1  0  0  0
 13 16  2  0  0  0
 13 23  1  0  0  0
 13 56  1  0  0  0
 14 30  1  0  0  0
 14 57  1  0  0  0
 15 58  1  0  0  0
 16 25  1  0  0  0
 16 59  1  0  0  0
 17 18  2  0  0  0
 18 19  1  0  0  0
 18 26  1  0  0  0
 19 21  2  0  0  0
 20 60  1  0  0  0
 20 61  1  0  0  0
 20 62  1  0  0  0
 21 22  1  0  0  0
 22 23  2  0  0  0
 22 24  1  0  0  0
 23 63  1  0  0  0
 24 25  2  0  0  0
 24 26  1  0  0  0
 25 64  1  0  0  0
 27 28  2  0  0  0
 27 65  1  0  0  0
 28 66  1  0  0  0
 29 31  2  0  0  0
 30 32  1  0  0  0
 31 67  1  0  0  0
 34 35  1  0  0  0
 34 68  1  0  0  0
 35 69  1  0  0  0
 36 37  1  0  0  0
 36 38  1  0  0  0
 36 70  1  0  0  0
 37 71  1  0  0  0
 38 39  1  0  0  0
 38 72  1  0  0  0
 38 73  1  0  0  0
 39 40  2  0  0  0
 39 41  1  0  0  0
M  CHG  1  41  -1
M  END
> <s_m_source_file>
../2q6c_ligand.sdf

> <i_m_source_file_index>
1

> <s_epik_input>
Tz1DKFtPSF0pW0NIMl1bQ0BIXShbT0hdKVtDSDJdW0NASF0oW09IXSlbQ0gyXVtDSDJdYyhuMVtDSF0oW0NIM10pW0NIM10pYygtYzJbY0hdW2NIXWMoRilbY0hdW2NIXTIpYyhjMTMpYzRjKFtjSF1bY0hdW2NIXVtjSF00KW4oYzM9TyktYzVbY0hdW2NIXVtjSF1bY0hdW2NIXTU=

> <s_epik_cmdline>
J2VwaWtfYXBwJywgJy1pbWFlJywgJ2xpZ2FuZF9wcm8ubWFlJywgJy1vbWFlJywgJ2xpZ2FuZF9wcmVwLm1hZScsICctbXMnLCAnMScsICctcGgnLCAnNycsICctcGh0JywgJzAuNScsICctbnQn

> <r_lp_tautomer_probability>
1

> <r_epik_Ionization_Penalty>
  0.0032

> <r_epik_Ionization_Penalty_Charging>
  0.0032

> <r_epik_Ionization_Penalty_Neutral>
  0.0000

> <r_epik_State_Penalty>
 -0.0000

> <r_epik_Charging_Adjusted_Penalty>
0.00317525480949923

> <i_epik_Tot_Q>
-1

> <i_epik_Tot_abs_Q>
1

$$$$
