2q6h_ligand
                    3D
 Schrodinger Suite 2020-3.
 46 48  0  0  1  0            999 V2000
   25.2970   21.0300   23.3410 C   0  0  0  0  0  0
   24.1120   20.3550   23.0060 C   0  0  0  0  0  0
   24.0040   19.6070   21.8180 C   0  0  0  0  0  0
   25.1290   19.5640   20.9850 C   0  0  0  0  0  0
   27.4750   20.1140   20.3100 C   0  0  0  0  0  0
   27.8980   21.4090   19.6050 C   0  0  0  0  0  0
   29.1030   24.9910   20.4600 C   0  0  0  0  0  0
   28.9940   25.0610   21.8380 C   0  0  0  0  0  0
   28.5290   23.9690   22.5690 C   0  0  0  0  0  0
   28.1500   22.7460   21.9340 C   0  0  0  0  0  0
   26.3440   20.2270   21.2810 C   0  0  0  0  0  0
   26.4340   20.9720   22.4790 C   0  0  0  0  0  0
   28.6160   18.6680   24.1680 C   0  0  0  0  0  0
   29.6310   16.5730   24.8290 C   0  0  0  0  0  0
   28.7430   23.8080   19.7900 C   0  0  0  0  0  0
   28.2590   22.6420   20.4530 C   0  0  0  0  0  0
   28.6660   21.1440   23.8040 C   0  0  0  0  0  0
   28.2410   20.0300   24.7420 C   0  0  0  0  0  0
   27.2990   16.9560   25.3420 C   0  0  0  0  0  0
   27.6720   21.6540   22.7910 N   0  0  0  0  0  0
   28.6310   17.6000   25.1900 N   0  3  0  0  0  0
   22.7570   20.4610   24.0940 Cl  0  0  0  0  0  0
   25.3493   21.6030   24.2668 H   0  0  0  0  0  0
   23.0840   19.0837   21.5577 H   0  0  0  0  0  0
   25.0656   18.9900   20.0605 H   0  0  0  0  0  0
   27.1566   19.3753   19.5597 H   0  0  0  0  0  0
   28.3251   19.7131   20.8815 H   0  0  0  0  0  0
   28.7969   21.2202   18.9997 H   0  0  0  0  0  0
   27.0826   21.7545   18.9526 H   0  0  0  0  0  0
   29.4666   25.8499   19.8959 H   0  0  0  0  0  0
   29.2742   25.9781   22.3562 H   0  0  0  0  0  0
   28.4524   24.0500   23.6533 H   0  0  0  0  0  0
   27.8875   18.3828   23.3948 H   0  0  0  0  0  0
   29.6207   18.7215   23.7233 H   0  0  0  0  0  0
   30.6177   17.0459   24.7157 H   0  0  0  0  0  0
   29.3415   16.0968   23.8806 H   0  0  0  0  0  0
   29.6779   15.8122   25.6220 H   0  0  0  0  0  0
   28.8392   23.7810   18.7046 H   0  0  0  0  0  0
   28.9466   22.0308   24.3913 H   0  0  0  0  0  0
   29.5281   20.8118   23.2070 H   0  0  0  0  0  0
   27.1513   20.0810   24.8830 H   0  0  0  0  0  0
   28.7430   20.1706   25.7106 H   0  0  0  0  0  0
   26.5521   17.7175   25.6107 H   0  0  0  0  0  0
   27.3481   16.1948   26.1346 H   0  0  0  0  0  0
   27.0117   16.4794   24.3931 H   0  0  0  0  0  0
   28.9009   18.0691   26.1476 H   0  0  0  0  0  0
  1  2  2  0  0  0
  1 12  1  0  0  0
  1 23  1  0  0  0
  2  3  1  0  0  0
  2 22  1  0  0  0
  3  4  2  0  0  0
  3 24  1  0  0  0
  4 11  1  0  0  0
  4 25  1  0  0  0
  5  6  1  0  0  0
  5 11  1  0  0  0
  5 26  1  0  0  0
  5 27  1  0  0  0
  6 16  1  0  0  0
  6 28  1  0  0  0
  6 29  1  0  0  0
  7  8  2  0  0  0
  7 15  1  0  0  0
  7 30  1  0  0  0
  8  9  1  0  0  0
  8 31  1  0  0  0
  9 10  2  0  0  0
  9 32  1  0  0  0
 10 16  1  0  0  0
 10 20  1  0  0  0
 11 12  2  0  0  0
 12 20  1  0  0  0
 13 18  1  0  0  0
 13 21  1  0  0  0
 13 33  1  0  0  0
 13 34  1  0  0  0
 14 21  1  0  0  0
 14 35  1  0  0  0
 14 36  1  0  0  0
 14 37  1  0  0  0
 15 16  2  0  0  0
 15 38  1  0  0  0
 17 18  1  0  0  0
 17 20  1  0  0  0
 17 39  1  0  0  0
 17 40  1  0  0  0
 18 41  1  0  0  0
 18 42  1  0  0  0
 19 21  1  0  0  0
 19 43  1  0  0  0
 19 44  1  0  0  0
 19 45  1  0  0  0
 21 46  1  0  0  0
M  CHG  1  21   1
M  END
> <s_m_source_file>
../2q6h_ligand.sdf

> <i_m_source_file_index>
1

> <s_epik_input>
W0NIM11bTkgrXShbQ0gzXSlbQ0gyXVtDSDJdW0NIMl1OMWMoW2NIXWMoQ2wpW2NIXVtjSF0yKWMyW0NIMl1bQ0gyXWMoYzEzKVtjSF1bY0hdW2NIXVtjSF0z

> <s_epik_cmdline>
J2VwaWtfYXBwJywgJy1pbWFlJywgJ2xpZ2FuZF9wcm8ubWFlJywgJy1vbWFlJywgJ2xpZ2FuZF9wcmVwLm1hZScsICctbXMnLCAnMScsICctcGgnLCAnNycsICctcGh0JywgJzAuNScsICctbnQn

> <r_lp_tautomer_probability>
1

> <r_epik_Ionization_Penalty>
  0.0018

> <r_epik_Ionization_Penalty_Charging>
  0.0015

> <r_epik_Ionization_Penalty_Neutral>
  0.0003

> <r_epik_State_Penalty>
 -0.0000

> <r_epik_Charging_Adjusted_Penalty>
0.00150792337963876

> <i_epik_Tot_Q>
1

> <i_epik_Tot_abs_Q>
1

$$$$
