2q70_ligand
                    3D
 Schrodinger Suite 2020-3.
 39 42  0  0  1  0            999 V2000
   12.2810   50.2890   59.1620 C   0  0  0  0  0  0
   10.5620   51.6960   59.9340 C   0  0  1  0  0  0
   11.4110   52.1380   61.1760 C   0  0  1  0  0  0
   11.2730   51.1800   62.3790 C   0  0  0  0  0  0
   12.9320   52.1570   60.8180 C   0  0  2  0  0  0
   13.2840   51.0830   59.7740 C   0  0  0  0  0  0
    8.3050   50.5220   60.0900 C   0  0  0  0  0  0
    6.9350   50.5270   60.3570 C   0  0  0  0  0  0
    6.3100   51.7130   60.7780 C   0  0  0  0  0  0
    7.0620   52.9010   60.9240 C   0  0  0  0  0  0
   14.9850   49.9060   58.4410 C   0  0  0  0  0  0
   13.9750   49.1260   57.8400 C   0  0  0  0  0  0
   12.6390   49.3120   58.1980 C   0  0  0  0  0  0
   10.9470   50.3950   59.4550 O   0  0  0  0  0  0
   12.5430   51.4310   63.1950 C   0  0  0  0  0  0
   12.3120   52.4470   64.1220 F   0  0  0  0  0  0
   12.9280   50.2730   63.8650 F   0  0  0  0  0  0
   13.6470   51.8440   62.1880 C   0  0  0  0  0  0
   14.6420   50.8900   59.4060 C   0  0  0  0  0  0
    9.0630   51.7050   60.2350 C   0  0  0  0  0  0
    4.9970   51.7140   61.0400 O   0  0  0  0  0  0
    8.4330   52.8970   60.6540 C   0  0  0  0  0  0
   16.2800   49.7080   58.0850 O   0  0  0  0  0  0
   10.7721   52.3699   59.0904 H   0  0  0  0  0  0
   11.0278   53.1290   61.4609 H   0  0  0  0  0  0
   10.3613   51.4278   62.9423 H   0  0  0  0  0  0
   11.2098   50.1433   62.0168 H   0  0  0  0  0  0
   13.2387   53.1069   60.3559 H   0  0  0  0  0  0
    8.7919   49.6014   59.7683 H   0  0  0  0  0  0
    6.3518   49.6137   60.2393 H   0  0  0  0  0  0
    6.5726   53.8198   61.2471 H   0  0  0  0  0  0
   14.2386   48.3761   57.0941 H   0  0  0  0  0  0
   11.8646   48.7018   57.7332 H   0  0  0  0  0  0
   14.3684   51.0258   62.0465 H   0  0  0  0  0  0
   14.1758   52.7423   62.5393 H   0  0  0  0  0  0
   15.4220   51.4978   59.8647 H   0  0  0  0  0  0
    4.4127   50.7890   60.9261 H   0  0  0  0  0  0
    9.0147   53.8119   60.7666 H   0  0  0  0  0  0
   16.5338   48.9430   57.3365 H   0  0  0  0  0  0
  1  6  2  0  0  0
  1 13  1  0  0  0
  1 14  1  0  0  0
  2  3  1  0  0  0
  2 14  1  0  0  0
  2 20  1  0  0  0
  2 24  1  0  0  0
  3  4  1  0  0  0
  3  5  1  0  0  0
  3 25  1  0  0  0
  4 15  1  0  0  0
  4 26  1  0  0  0
  4 27  1  0  0  0
  5  6  1  0  0  0
  5 18  1  0  0  0
  5 28  1  0  0  0
  6 19  1  0  0  0
  7  8  2  0  0  0
  7 20  1  0  0  0
  7 29  1  0  0  0
  8  9  1  0  0  0
  8 30  1  0  0  0
  9 10  2  0  0  0
  9 21  1  0  0  0
 10 22  1  0  0  0
 10 31  1  0  0  0
 11 12  1  0  0  0
 11 19  2  0  0  0
 11 23  1  0  0  0
 12 13  2  0  0  0
 12 32  1  0  0  0
 13 33  1  0  0  0
 15 16  1  0  0  0
 15 17  1  0  0  0
 15 18  1  0  0  0
 18 34  1  0  0  0
 18 35  1  0  0  0
 19 36  1  0  0  0
 20 22  2  0  0  0
 21 37  1  0  0  0
 22 38  1  0  0  0
 23 39  1  0  0  0
M  END
> <s_m_source_file>
../2q70_ligand.sdf

> <i_m_source_file_index>
1

> <s_epik_input>
W2NIXTFbY0hdYyhbT0hdKVtjSF1jKGMxMilbQ0BIXTNbQ0BIXShbQ0gyXUMoRikoRilbQ0gyXTMpW0NAQEhdKE8yKWMoW2NIXVtjSF00KVtjSF1bY0hdYzRbT0hd

> <s_epik_cmdline>
J2VwaWtfYXBwJywgJy1pbWFlJywgJ2xpZ2FuZF9wcm8ubWFlJywgJy1vbWFlJywgJ2xpZ2FuZF9wcmVwLm1hZScsICctbXMnLCAnMScsICctcGgnLCAnNycsICctcGh0JywgJzAuNScsICctbnQn

> <r_lp_tautomer_probability>
1

> <r_epik_Ionization_Penalty>
  0.0014

> <r_epik_Ionization_Penalty_Charging>
  0.0000

> <r_epik_Ionization_Penalty_Neutral>
  0.0014

> <r_epik_State_Penalty>
 -0.0000

> <r_epik_Charging_Adjusted_Penalty>
0

> <i_epik_Tot_Q>
0

> <i_epik_Tot_abs_Q>
0

$$$$
