2q72_ligand
                    3D
 Schrodinger Suite 2020-3.
 46 48  0  0  1  0            999 V2000
   28.0570   22.6820   22.0300 C   0  0  0  0  0  0
   28.4390   23.8920   22.6870 C   0  0  0  0  0  0
   28.9100   25.0100   21.9700 C   0  0  0  0  0  0
   29.0100   24.9490   20.5780 C   0  0  0  0  0  0
   28.6500   23.7870   19.8950 C   0  0  0  0  0  0
   23.9350   20.3950   22.9450 C   0  0  0  0  0  0
   27.8050   21.3990   19.6590 C   0  0  0  0  0  0
   27.3790   20.1170   20.3540 C   0  0  0  0  0  0
   27.5730   21.5670   22.8480 N   0  0  0  0  0  0
   23.8880   19.7000   21.7310 C   0  0  0  0  0  0
   28.6990   17.6650   25.1850 N   0  3  0  0  0  0
   25.0120   19.6310   20.9280 C   0  0  0  0  0  0
   25.1470   21.0270   23.3410 C   0  0  0  0  0  0
   28.1710   22.6260   20.5470 C   0  0  0  0  0  0
   26.2310   20.2430   21.2890 C   0  0  0  0  0  0
   26.3100   20.9490   22.5070 C   0  0  0  0  0  0
   28.2000   21.3890   24.2140 C   0  0  0  0  0  0
   27.9200   20.0600   24.9640 C   0  0  0  0  0  0
   28.6080   18.8840   24.3110 C   0  0  0  0  0  0
   29.6650   16.6810   24.6660 C   0  0  0  0  0  0
   27.3550   17.0210   25.3210 C   0  0  0  0  0  0
   28.3640   23.9519   23.7728 H   0  0  0  0  0  0
   29.1952   25.9190   22.4996 H   0  0  0  0  0  0
   29.3714   25.8143   20.0223 H   0  0  0  0  0  0
   28.7419   23.7728   18.8090 H   0  0  0  0  0  0
   23.0517   20.4516   23.5811 H   0  0  0  0  0  0
   28.7029   21.2068   19.0533 H   0  0  0  0  0  0
   26.9915   21.7506   19.0073 H   0  0  0  0  0  0
   27.0831   19.3723   19.6004 H   0  0  0  0  0  0
   28.2185   19.7250   20.9470 H   0  0  0  0  0  0
   22.9646   19.2126   21.4181 H   0  0  0  0  0  0
   29.0668   17.9858   26.1708 H   0  0  0  0  0  0
   24.9542   19.0862   19.9857 H   0  0  0  0  0  0
   25.1911   21.5731   24.2833 H   0  0  0  0  0  0
   29.2949   21.4472   24.1253 H   0  0  0  0  0  0
   27.8440   22.1828   24.8871 H   0  0  0  0  0  0
   28.2845   20.1392   25.9988 H   0  0  0  0  0  0
   26.8377   19.8636   24.9706 H   0  0  0  0  0  0
   29.6205   19.2134   24.0347 H   0  0  0  0  0  0
   28.0403   18.6410   23.4007 H   0  0  0  0  0  0
   30.6528   17.1545   24.5661 H   0  0  0  0  0  0
   29.3294   16.3216   23.6820 H   0  0  0  0  0  0
   29.7339   15.8323   25.3624 H   0  0  0  0  0  0
   26.6339   17.7557   25.7085 H   0  0  0  0  0  0
   27.4239   16.1723   26.0174 H   0  0  0  0  0  0
   27.0194   16.6616   24.3370 H   0  0  0  0  0  0
  1  2  2  0  0  0
  1  9  1  0  0  0
  1 14  1  0  0  0
  2  3  1  0  0  0
  2 22  1  0  0  0
  3  4  2  0  0  0
  3 23  1  0  0  0
  4  5  1  0  0  0
  4 24  1  0  0  0
  5 14  2  0  0  0
  5 25  1  0  0  0
  6 10  2  0  0  0
  6 13  1  0  0  0
  6 26  1  0  0  0
  7  8  1  0  0  0
  7 14  1  0  0  0
  7 27  1  0  0  0
  7 28  1  0  0  0
  8 15  1  0  0  0
  8 29  1  0  0  0
  8 30  1  0  0  0
  9 16  1  0  0  0
  9 17  1  0  0  0
 10 12  1  0  0  0
 10 31  1  0  0  0
 11 19  1  0  0  0
 11 20  1  0  0  0
 11 21  1  0  0  0
 11 32  1  0  0  0
 12 15  2  0  0  0
 12 33  1  0  0  0
 13 16  2  0  0  0
 13 34  1  0  0  0
 15 16  1  0  0  0
 17 18  1  0  0  0
 17 35  1  0  0  0
 17 36  1  0  0  0
 18 19  1  0  0  0
 18 37  1  0  0  0
 18 38  1  0  0  0
 19 39  1  0  0  0
 19 40  1  0  0  0
 20 41  1  0  0  0
 20 42  1  0  0  0
 20 43  1  0  0  0
 21 44  1  0  0  0
 21 45  1  0  0  0
 21 46  1  0  0  0
M  CHG  1  11   1
M  END
> <s_m_source_file>
../2q72_ligand.sdf

> <i_m_source_file_index>
1

> <s_epik_input>
W2NIXTFbY0hdW2NIXVtjSF1jKGMxMilbQ0gyXVtDSDJdYzNjKFtjSF1bY0hdW2NIXVtjSF0zKU4yW0NIMl1bQ0gyXVtDSDJdW05IK10oW0NIM10pW0NIM10=

> <s_epik_cmdline>
J2VwaWtfYXBwJywgJy1pbWFlJywgJ2xpZ2FuZF9wcm8ubWFlJywgJy1vbWFlJywgJ2xpZ2FuZF9wcmVwLm1hZScsICctbXMnLCAnMScsICctcGgnLCAnNycsICctcGh0JywgJzAuNScsICctbnQn

> <r_lp_tautomer_probability>
1

> <r_epik_Ionization_Penalty>
  0.0028

> <r_epik_Ionization_Penalty_Charging>
  0.0015

> <r_epik_Ionization_Penalty_Neutral>
  0.0013

> <r_epik_State_Penalty>
 -0.0000

> <r_epik_Charging_Adjusted_Penalty>
0.00150792337963876

> <i_epik_Tot_Q>
1

> <i_epik_Tot_abs_Q>
1

$$$$
