2q7o_ligand
                    3D
 Schrodinger Suite 2020-3.
 33 35  0  0  1  0            999 V2000
   15.6070   10.1350   59.1990 O   0  0  0  0  0  0
   16.0170   11.3330   59.8650 C   0  0  0  0  0  0
   14.7600   12.1410   59.8960 C   0  0  2  0  0  0
   13.7720   11.8250   58.8620 N   0  0  1  0  0  0
   15.2390   13.4920   59.5480 C   0  0  2  0  0  0
   14.9920   14.2230   60.7600 O   0  0  0  0  0  0
   14.4270   13.9530   58.3060 C   0  0  2  0  0  0
   13.6090   15.1090   58.6080 O   0  0  0  0  0  0
   13.5700   12.8090   57.8030 C   0  0  1  0  0  0
   14.1190   12.2240   56.5740 C   0  0  0  0  0  0
   15.0960   12.7470   55.7730 C   0  0  0  0  0  0
   15.3390   11.8460   54.7690 N   0  3  0  0  0  0
   14.5790   10.7690   54.8850 C   0  0  0  0  0  0
   14.4100    9.5290   54.1450 C   0  0  0  0  0  0
   15.1740    9.3100   53.0380 O   0  0  0  0  0  0
   13.4930    8.6490   54.6020 N   0  0  0  0  0  0
   12.7650    8.8830   55.7080 C   0  0  0  0  0  0
   12.8570    9.9910   56.4660 N   0  0  0  0  0  0
   13.7420   10.9120   56.0590 C   0  0  0  0  0  0
   16.3329    9.3274   59.0234 H   0  0  0  0  0  0
   16.3872   11.0851   60.8707 H   0  0  0  0  0  0
   16.8188   11.8172   59.2882 H   0  0  0  0  0  0
   14.2505   11.9864   60.8585 H   0  0  0  0  0  0
   14.0640   10.8979   58.3469 H   0  0  0  0  0  0
   16.3107   13.6028   59.3264 H   0  0  0  0  0  0
   15.5286   13.9561   61.6824 H   0  0  0  0  0  0
   15.0933   14.2996   57.5023 H   0  0  0  0  0  0
   14.0767   16.0302   58.9858 H   0  0  0  0  0  0
   12.5272   13.0846   57.5870 H   0  0  0  0  0  0
   15.5292   13.7311   56.0050 H   0  0  0  0  0  0
   13.3220    7.7043   54.0651 H   0  0  0  0  0  0
   12.0486    8.1201   56.0126 H   0  0  0  0  0  0
   16.0922   12.0701   53.9993 H   0  0  0  0  0  0
  1  2  1  0  0  0
  1 20  1  0  0  0
  2  3  1  0  0  0
  2 21  1  0  0  0
  2 22  1  0  0  0
  3  4  1  0  0  0
  3  5  1  0  0  0
  3 23  1  0  0  0
  4  9  1  0  0  0
  4 24  1  0  0  0
  5  6  1  0  0  0
  5  7  1  0  0  0
  5 25  1  0  0  0
  6 26  1  0  0  0
  7  8  1  0  0  0
  7  9  1  0  0  0
  7 27  1  0  0  0
  8 28  1  0  0  0
  9 10  1  0  0  0
  9 29  1  0  0  0
 10 11  2  0  0  0
 10 19  1  0  0  0
 11 12  1  0  0  0
 11 30  1  0  0  0
 12 13  1  0  0  0
 12 33  1  0  0  0
 13 14  1  0  0  0
 13 19  2  0  0  0
 14 15  2  0  0  0
 14 16  1  0  0  0
 16 17  1  0  0  0
 16 31  1  0  0  0
 17 18  2  0  0  0
 17 32  1  0  0  0
 18 19  1  0  0  0
M  CHG  1  12   1
M  END
> <s_m_source_file>
../2q7o_ligand.sdf

> <i_m_source_file_index>
1

> <s_epik_input>
W09IXVtDSDJdW0NAQEhdMVtOSDIrXVtDQEBIXShbQ0BASF0oW09IXSlbQ0BIXTFbT0hdKWMoW2NIXVtuSF0yKWMoYzIzKW5bY0hdW25IXWMzPU8=

> <s_epik_cmdline>
J2VwaWtfYXBwJywgJy1pbWFlJywgJ2xpZ2FuZF9wcm8ubWFlJywgJy1vbWFlJywgJ2xpZ2FuZF9wcmVwLm1hZScsICctbXMnLCAnMScsICctcGgnLCAnNycsICctcGh0JywgJzAuNScsICctbnQn

> <r_epik_Ionization_Penalty>
  0.0679

> <r_epik_Ionization_Penalty_Charging>
  0.0000

> <r_epik_Ionization_Penalty_Neutral>
  0.0679

> <r_epik_State_Penalty>
  0.0590

> <r_epik_Charging_Adjusted_Penalty>
0.0590486943449857

> <i_epik_Tot_Q>
1

> <i_epik_Tot_abs_Q>
1

$$$$
