2q7q_ligand
                    3D
 Schrodinger Suite 2020-3.
 18 18  0  0  1  0            999 V2000
   54.2170   22.2750   28.3760 N   0  3  0  0  0  0
   52.8810   21.6540   28.5660 C   0  0  0  0  0  0
   51.9640   22.2060   29.5990 C   0  0  0  0  0  0
   50.7820   22.8920   29.2660 C   0  0  0  0  0  0
   49.9380   23.4600   30.2370 C   0  0  0  0  0  0
   50.2600   23.3640   31.6110 C   0  0  0  0  0  0
   51.4060   22.7260   32.0040 C   0  0  0  0  0  0
   52.3320   22.1080   30.9250 C   0  0  0  0  0  0
   49.2570   24.0970   32.7780 Cl  0  0  0  0  0  0
   54.7576   21.7448   27.5781 H   0  0  0  0  0  0
   54.7889   22.2084   29.3133 H   0  0  0  0  0  0
   54.0937   23.3316   28.0959 H   0  0  0  0  0  0
   52.3091   21.7206   27.6287 H   0  0  0  0  0  0
   53.0042   20.5974   28.8460 H   0  0  0  0  0  0
   50.5097   22.9870   28.2148 H   0  0  0  0  0  0
   49.0297   23.9777   29.9287 H   0  0  0  0  0  0
   51.6636   22.6536   33.0606 H   0  0  0  0  0  0
   53.2566   21.6054   31.2088 H   0  0  0  0  0  0
  1  2  1  0  0  0
  1 10  1  0  0  0
  1 11  1  0  0  0
  1 12  1  0  0  0
  2  3  1  0  0  0
  2 13  1  0  0  0
  2 14  1  0  0  0
  3  4  2  0  0  0
  3  8  1  0  0  0
  4  5  1  0  0  0
  4 15  1  0  0  0
  5  6  2  0  0  0
  5 16  1  0  0  0
  6  7  1  0  0  0
  6  9  1  0  0  0
  7  8  2  0  0  0
  7 17  1  0  0  0
  8 18  1  0  0  0
M  CHG  1   1   1
M  END
> <s_m_source_file>
../2q7q_ligand.sdf

> <i_m_source_file_index>
1

> <s_epik_input>
W05IMytdW0NIMl1jMVtjSF1bY0hdYyhDbClbY0hdW2NIXTE=

> <s_epik_cmdline>
J2VwaWtfYXBwJywgJy1pbWFlJywgJ2xpZ2FuZF9wcm8ubWFlJywgJy1vbWFlJywgJ2xpZ2FuZF9wcmVwLm1hZScsICctbXMnLCAnMScsICctcGgnLCAnNycsICctcGh0JywgJzAuNScsICctbnQn

> <r_epik_Ionization_Penalty>
  0.0308

> <r_epik_Ionization_Penalty_Charging>
  0.0308

> <r_epik_Ionization_Penalty_Neutral>
  0.0000

> <r_epik_State_Penalty>
  0.0254

> <r_epik_Charging_Adjusted_Penalty>
0.0562074953972822

> <i_epik_Tot_Q>
1

> <i_epik_Tot_abs_Q>
1

$$$$
