2q7y_ligand
                    3D
 Schrodinger Suite 2020-3.
104104  0  0  1  0            999 V2000
   -7.5690    1.4740   -5.5570 C   0  0  0  0  0  0
   -8.7090    2.3070   -4.9650 C   0  0  0  0  0  0
   -8.1840    3.5990   -4.3180 C   0  0  0  0  0  0
   -8.7110    4.8520   -5.0310 C   0  0  0  0  0  0
   -8.7560    6.0810   -4.1200 C   0  0  0  0  0  0
  -10.1820    6.2870   -3.5660 C   0  0  0  0  0  0
  -10.2560    5.9690   -2.0820 C   0  0  0  0  0  0
  -10.7690    7.1730   -1.3000 C   0  0  0  0  0  0
  -10.7930    6.8650    0.1920 C   0  0  0  0  0  0
  -12.1870    7.0910    0.7820 C   0  0  0  0  0  0
  -12.3210    6.4290    2.1390 C   0  0  0  0  0  0
  -13.6550    5.7070    2.2500 C   0  0  0  0  0  0
  -14.0810    5.6750    3.7020 C   0  0  0  0  0  0
  -15.2390    4.9350    3.8540 C   0  0  0  0  0  0
  -15.4020    4.0160    4.8850 C   0  0  0  0  0  0
  -16.7530    3.3090    4.8660 C   0  0  1  0  0  0
  -16.6230    1.9280    4.4450 O   0  0  0  0  0  0
  -17.4660    3.4000    6.2130 C   0  0  2  0  0  0
  -18.8170    2.6910    6.0510 C   0  0  0  0  0  0
  -19.5370    2.3390    7.2250 O   0  0  0  0  0  0
  -20.7510    1.5420    6.9640 C   0  0  2  0  0  0
  -20.3800    0.1300    6.8150 O   0  0  0  0  0  0
  -21.5440   -0.7360    7.1260 C   0  0  2  0  0  0
  -21.0910   -2.1960    7.3700 C   0  0  0  0  0  0
  -19.9210   -2.2070    8.2080 O   0  0  0  0  0  0
  -22.6090   -0.5470    6.0210 C   0  0  1  0  0  0
  -23.7960   -1.3120    6.2840 O   0  0  0  0  0  0
  -22.9880    0.9470    5.8930 C   0  0  2  0  0  0
  -23.8520    1.1220    4.7580 O   0  0  0  0  0  0
  -21.7430    1.8770    5.8030 C   0  0  1  0  0  0
  -22.1440    3.2560    5.8410 O   0  0  0  0  0  0
  -17.6720    4.8220    6.5400 N   0  0  0  0  0  0
  -17.1740    5.4280    7.6180 C   0  0  0  0  0  0
  -16.4810    4.8630    8.4720 O   0  0  0  0  0  0
  -17.5450    6.9270    7.7250 C   0  0  0  0  0  0
  -16.4080    7.8220    8.2410 C   0  0  0  0  0  0
  -15.5340    8.2960    7.0830 C   0  0  0  0  0  0
  -14.3930    9.2080    7.5600 C   0  0  0  0  0  0
  -13.4310    9.5740    6.3970 C   0  0  0  0  0  0
  -12.4520   10.6670    6.8240 C   0  0  0  0  0  0
  -11.0810   10.5620    6.1240 C   0  0  0  0  0  0
   -7.9799    0.5598   -6.0101 H   0  0  0  0  0  0
   -6.8614    1.2020   -4.7599 H   0  0  0  0  0  0
   -7.0466    2.0617   -6.3263 H   0  0  0  0  0  0
   -9.4166    2.5790   -5.7621 H   0  0  0  0  0  0
   -9.2314    1.7193   -4.1958 H   0  0  0  0  0  0
   -8.5062    3.6399   -3.2670 H   0  0  0  0  0  0
   -7.0851    3.6125   -4.3654 H   0  0  0  0  0  0
   -8.0581    5.0906   -5.8835 H   0  0  0  0  0  0
   -9.7329    4.6655   -5.3928 H   0  0  0  0  0  0
   -8.0615    5.9395   -3.2788 H   0  0  0  0  0  0
   -8.4615    6.9729   -4.6926 H   0  0  0  0  0  0
  -10.4845    7.3344   -3.7124 H   0  0  0  0  0  0
  -10.8813    5.6256   -4.0984 H   0  0  0  0  0  0
  -10.9401    5.1225   -1.9221 H   0  0  0  0  0  0
   -9.2538    5.7053   -1.7131 H   0  0  0  0  0  0
  -10.1082    8.0343   -1.4778 H   0  0  0  0  0  0
  -11.7886    7.4185   -1.6319 H   0  0  0  0  0  0
  -10.5097    5.8145    0.3541 H   0  0  0  0  0  0
  -10.0809    7.5215    0.7134 H   0  0  0  0  0  0
  -12.3652    8.1702    0.8986 H   0  0  0  0  0  0
  -12.9442    6.6652    0.1073 H   0  0  0  0  0  0
  -11.5080    5.7003    2.2733 H   0  0  0  0  0  0
  -12.2619    7.1937    2.9275 H   0  0  0  0  0  0
  -14.4108    6.2396    1.6541 H   0  0  0  0  0  0
  -13.5482    4.6792    1.8728 H   0  0  0  0  0  0
  -13.2845    5.2182    4.3078 H   0  0  0  0  0  0
  -14.2656    6.7011    4.0527 H   0  0  0  0  0  0
  -16.0922    5.6144    3.9968 H   0  0  0  0  0  0
  -15.4040    4.3233    2.9548 H   0  0  0  0  0  0
  -14.6250    3.2408    4.8114 H   0  0  0  0  0  0
  -15.3151    4.5315    5.8528 H   0  0  0  0  0  0
  -17.3787    3.7840    4.0960 H   0  0  0  0  0  0
  -16.1303    1.6878    3.4913 H   0  0  0  0  0  0
  -16.8784    2.9670    7.0359 H   0  0  0  0  0  0
  -19.5027    3.3346    5.4804 H   0  0  0  0  0  0
  -18.6713    1.7427    5.5130 H   0  0  0  0  0  0
  -21.2783    1.7910    7.8967 H   0  0  0  0  0  0
  -21.9914   -0.4078    8.0758 H   0  0  0  0  0  0
  -21.8999   -2.7529    7.8656 H   0  0  0  0  0  0
  -20.8544   -2.6723    6.4071 H   0  0  0  0  0  0
  -19.4549   -3.1628    8.4893 H   0  0  0  0  0  0
  -22.2269   -0.9588    5.0753 H   0  0  0  0  0  0
  -23.7310   -2.4031    6.4078 H   0  0  0  0  0  0
  -23.5894    1.2548    6.7611 H   0  0  0  0  0  0
  -24.7775    0.5332    4.6753 H   0  0  0  0  0  0
  -21.2468    1.7905    4.8251 H   0  0  0  0  0  0
  -21.3856    4.0510    5.7874 H   0  0  0  0  0  0
  -18.2719    5.4585    5.8729 H   0  0  0  0  0  0
  -17.8289    7.3062    6.7322 H   0  0  0  0  0  0
  -18.3902    7.0470    8.4187 H   0  0  0  0  0  0
  -16.8341    8.6993    8.7497 H   0  0  0  0  0  0
  -15.7865    7.2538    8.9487 H   0  0  0  0  0  0
  -15.0900    7.4252    6.5784 H   0  0  0  0  0  0
  -16.1489    8.8607    6.3667 H   0  0  0  0  0  0
  -14.8139   10.1384    7.9689 H   0  0  0  0  0  0
  -13.8142    8.6932    8.3410 H   0  0  0  0  0  0
  -12.8589    8.6826    6.1001 H   0  0  0  0  0  0
  -14.0150    9.9375    5.5386 H   0  0  0  0  0  0
  -12.8745   11.6531    6.5809 H   0  0  0  0  0  0
  -12.2776   10.6000    7.9080 H   0  0  0  0  0  0
  -10.4272   11.3742    6.4745 H   0  0  0  0  0  0
  -11.2177   10.6450    5.0357 H   0  0  0  0  0  0
  -10.6207    9.5919    6.3628 H   0  0  0  0  0  0
  1  2  1  0  0  0
  1 42  1  0  0  0
  1 43  1  0  0  0
  1 44  1  0  0  0
  2  3  1  0  0  0
  2 45  1  0  0  0
  2 46  1  0  0  0
  3  4  1  0  0  0
  3 47  1  0  0  0
  3 48  1  0  0  0
  4  5  1  0  0  0
  4 49  1  0  0  0
  4 50  1  0  0  0
  5  6  1  0  0  0
  5 51  1  0  0  0
  5 52  1  0  0  0
  6  7  1  0  0  0
  6 53  1  0  0  0
  6 54  1  0  0  0
  7  8  1  0  0  0
  7 55  1  0  0  0
  7 56  1  0  0  0
  8  9  1  0  0  0
  8 57  1  0  0  0
  8 58  1  0  0  0
  9 10  1  0  0  0
  9 59  1  0  0  0
  9 60  1  0  0  0
 10 11  1  0  0  0
 10 61  1  0  0  0
 10 62  1  0  0  0
 11 12  1  0  0  0
 11 63  1  0  0  0
 11 64  1  0  0  0
 12 13  1  0  0  0
 12 65  1  0  0  0
 12 66  1  0  0  0
 13 14  1  0  0  0
 13 67  1  0  0  0
 13 68  1  0  0  0
 14 15  1  0  0  0
 14 69  1  0  0  0
 14 70  1  0  0  0
 15 16  1  0  0  0
 15 71  1  0  0  0
 15 72  1  0  0  0
 16 17  1  0  0  0
 16 18  1  0  0  0
 16 73  1  0  0  0
 17 74  1  0  0  0
 18 19  1  0  0  0
 18 32  1  0  0  0
 18 75  1  0  0  0
 19 20  1  0  0  0
 19 76  1  0  0  0
 19 77  1  0  0  0
 20 21  1  0  0  0
 21 22  1  0  0  0
 21 30  1  0  0  0
 21 78  1  0  0  0
 22 23  1  0  0  0
 23 24  1  0  0  0
 23 26  1  0  0  0
 23 79  1  0  0  0
 24 25  1  0  0  0
 24 80  1  0  0  0
 24 81  1  0  0  0
 25 82  1  0  0  0
 26 27  1  0  0  0
 26 28  1  0  0  0
 26 83  1  0  0  0
 27 84  1  0  0  0
 28 29  1  0  0  0
 28 30  1  0  0  0
 28 85  1  0  0  0
 29 86  1  0  0  0
 30 31  1  0  0  0
 30 87  1  0  0  0
 31 88  1  0  0  0
 32 33  1  0  0  0
 32 89  1  0  0  0
 33 34  2  0  0  0
 33 35  1  0  0  0
 35 36  1  0  0  0
 35 90  1  0  0  0
 35 91  1  0  0  0
 36 37  1  0  0  0
 36 92  1  0  0  0
 36 93  1  0  0  0
 37 38  1  0  0  0
 37 94  1  0  0  0
 37 95  1  0  0  0
 38 39  1  0  0  0
 38 96  1  0  0  0
 38 97  1  0  0  0
 39 40  1  0  0  0
 39 98  1  0  0  0
 39 99  1  0  0  0
 40 41  1  0  0  0
 40100  1  0  0  0
 40101  1  0  0  0
 41102  1  0  0  0
 41103  1  0  0  0
 41104  1  0  0  0
M  END
> <s_m_source_file>
../2q7y_ligand.sdf

> <i_m_source_file_index>
1

> <s_epik_input>
W0NIM11bQ0gyXVtDSDJdW0NIMl1bQ0gyXVtDSDJdW0NIMl1bQ0gyXVtDSDJdW0NIMl1bQ0gyXVtDSDJdW0NIMl1bQ0gyXVtDSDJdW0NAQEhdKFtPSF0pW0NASF0oW0NIMl1PW0NAQEhdMU9bQ0BIXShbQ0gyXVtPSF0pW0NAQEhdKFtPSF0pW0NASF0oW09IXSlbQ0BIXTFbT0hdKVtOSF1DKD1PKVtDSDJdW0NIMl1bQ0gyXVtDSDJdW0NIMl1bQ0gyXVtDSDNd

> <s_epik_cmdline>
J2VwaWtfYXBwJywgJy1pbWFlJywgJ2xpZ2FuZF9wcm8ubWFlJywgJy1vbWFlJywgJ2xpZ2FuZF9wcmVwLm1hZScsICctbXMnLCAnMScsICctcGgnLCAnNycsICctcGh0JywgJzAuNScsICctbnQn

> <r_lp_tautomer_probability>
1

> <r_epik_Ionization_Penalty>
  0.0000

> <r_epik_Ionization_Penalty_Charging>
  0.0000

> <r_epik_Ionization_Penalty_Neutral>
  0.0000

> <r_epik_State_Penalty>
 -0.0000

> <r_epik_Charging_Adjusted_Penalty>
0

> <i_epik_Tot_Q>
0

> <i_epik_Tot_abs_Q>
0

> <s_epik_Chemistry_Notes>
This compound contains an acetal/aminal-like group ( X-CH(R)-Y where X, Y are N, S, or O) that may be acid/base labile, releasing an aldehyde.

$$$$
