2q80_ligand
                    3D
 Schrodinger Suite 2020-3.
 62 61  0  0  1  0            999 V2000
   -3.1900  -57.9630  -28.1850 C   0  0  0  0  0  0
   -4.5230  -60.1520  -27.6030 C   0  0  0  0  0  0
   -4.5000  -58.7400  -28.1900 C   0  0  0  0  0  0
   -5.6120  -58.1270  -28.7580 C   0  0  0  0  0  0
   -6.8950  -58.6330  -28.9030 C   0  0  0  0  0  0
   -9.2570  -58.2620  -30.8630 C   0  0  0  0  0  0
   -9.2390  -57.9470  -29.3810 C   0  0  0  0  0  0
   -7.9290  -57.5260  -28.7730 C   0  0  0  0  0  0
  -10.3850  -58.0230  -28.5960 C   0  0  0  0  0  0
  -11.6800  -58.3840  -28.9770 C   0  0  0  0  0  0
  -12.3930  -59.0790  -27.8210 C   0  0  0  0  0  0
  -13.8890  -58.8340  -27.8890 C   0  0  0  0  0  0
  -14.6410  -58.0240  -26.8130 C   0  0  0  0  0  0
  -14.5500  -59.3770  -28.9770 C   0  0  0  0  0  0
  -15.9040  -59.2710  -29.2310 C   0  0  0  0  0  0
  -16.1740  -59.0590  -30.7140 C   0  0  0  0  0  0
  -17.6650  -59.1500  -30.9750 C   0  0  0  0  0  0
  -18.1690  -60.2110  -31.9290 C   0  0  0  0  0  0
  -18.5190  -58.2680  -30.3290 C   0  0  0  0  0  0
  -19.9000  -58.1660  -30.3850 C   0  0  0  0  0  0
  -20.4420  -58.3290  -29.0600 O   0  0  0  0  0  0
  -21.8260  -57.6720  -28.5850 P   0  0  2  0  0  0
  -22.8780  -57.6340  -29.8280 O   0  5  0  0  0  0
  -21.6070  -56.2340  -28.0640 O   0  0  0  0  0  0
  -22.3010  -58.4750  -27.4630 O   0  0  0  0  0  0
  -21.3120  -54.9850  -28.9870 P   0  0  0  0  0  0
  -19.9990  -54.9620  -29.6230 O   0  0  0  0  0  0
  -22.4910  -54.9070  -30.1040 O   0  5  0  0  0  0
  -21.5260  -53.8410  -27.9040 O   0  5  0  0  0  0
   -2.4060  -58.5691  -27.7075 H   0  0  0  0  0  0
   -3.3217  -57.0259  -27.6241 H   0  0  0  0  0  0
   -2.8963  -57.7328  -29.2198 H   0  0  0  0  0  0
   -3.5243  -60.4052  -27.2178 H   0  0  0  0  0  0
   -4.8068  -60.8702  -28.3864 H   0  0  0  0  0  0
   -5.2545  -60.1961  -26.7826 H   0  0  0  0  0  0
   -5.5308  -57.1079  -29.1640 H   0  0  0  0  0  0
   -6.9958  -59.0980  -29.8948 H   0  0  0  0  0  0
   -7.0822  -59.3867  -28.1239 H   0  0  0  0  0  0
   -8.2456  -58.1363  -31.2769 H   0  0  0  0  0  0
   -9.9502  -57.5782  -31.3748 H   0  0  0  0  0  0
   -9.5883  -59.3001  -31.0132 H   0  0  0  0  0  0
   -8.0886  -57.2965  -27.7091 H   0  0  0  0  0  0
   -7.5694  -56.6255  -29.2924 H   0  0  0  0  0  0
  -10.3348  -57.7797  -27.5244 H   0  0  0  0  0  0
  -12.2439  -57.4826  -29.2589 H   0  0  0  0  0  0
  -11.6318  -59.0699  -29.8357 H   0  0  0  0  0  0
  -12.2072  -60.1619  -27.8736 H   0  0  0  0  0  0
  -12.0116  -58.6875  -26.8664 H   0  0  0  0  0  0
  -13.9302  -57.6875  -26.0439 H   0  0  0  0  0  0
  -15.4110  -58.6576  -26.3486 H   0  0  0  0  0  0
  -15.1181  -57.1493  -27.2792 H   0  0  0  0  0  0
  -13.9902  -59.9505  -29.7305 H   0  0  0  0  0  0
  -16.4103  -60.1939  -28.9118 H   0  0  0  0  0  0
  -16.3156  -58.4158  -28.6748 H   0  0  0  0  0  0
  -15.8093  -58.0658  -31.0148 H   0  0  0  0  0  0
  -15.6522  -59.8329  -31.2960 H   0  0  0  0  0  0
  -17.3175  -60.7885  -32.3182 H   0  0  0  0  0  0
  -18.6990  -59.7307  -32.7647 H   0  0  0  0  0  0
  -18.8569  -60.8850  -31.3975 H   0  0  0  0  0  0
  -18.1105  -57.5034  -29.6519 H   0  0  0  0  0  0
  -20.1790  -57.1774  -30.7786 H   0  0  0  0  0  0
  -20.2991  -58.9497  -31.0458 H   0  0  0  0  0  0
  1  3  1  0  0  0
  1 30  1  0  0  0
  1 31  1  0  0  0
  1 32  1  0  0  0
  2  3  1  0  0  0
  2 33  1  0  0  0
  2 34  1  0  0  0
  2 35  1  0  0  0
  3  4  2  0  0  0
  4  5  1  0  0  0
  4 36  1  0  0  0
  5  8  1  0  0  0
  5 37  1  0  0  0
  5 38  1  0  0  0
  6  7  1  0  0  0
  6 39  1  0  0  0
  6 40  1  0  0  0
  6 41  1  0  0  0
  7  8  1  0  0  0
  7  9  2  0  0  0
  8 42  1  0  0  0
  8 43  1  0  0  0
  9 10  1  0  0  0
  9 44  1  0  0  0
 10 11  1  0  0  0
 10 45  1  0  0  0
 10 46  1  0  0  0
 11 12  1  0  0  0
 11 47  1  0  0  0
 11 48  1  0  0  0
 12 13  1  0  0  0
 12 14  2  0  0  0
 13 49  1  0  0  0
 13 50  1  0  0  0
 13 51  1  0  0  0
 14 15  1  0  0  0
 14 52  1  0  0  0
 15 16  1  0  0  0
 15 53  1  0  0  0
 15 54  1  0  0  0
 16 17  1  0  0  0
 16 55  1  0  0  0
 16 56  1  0  0  0
 17 18  1  0  0  0
 17 19  2  0  0  0
 18 57  1  0  0  0
 18 58  1  0  0  0
 18 59  1  0  0  0
 19 20  1  0  0  0
 19 60  1  0  0  0
 20 21  1  0  0  0
 20 61  1  0  0  0
 20 62  1  0  0  0
 21 22  1  0  0  0
 22 23  1  0  0  0
 22 24  1  0  0  0
 22 25  2  0  0  0
 24 26  1  0  0  0
 26 27  2  0  0  0
 26 28  1  0  0  0
 26 29  1  0  0  0
M  CHG  3  23  -1  28  -1  29  -1
M  END
> <s_m_source_file>
../2q80_ligand.sdf

> <i_m_source_file_index>
1

> <s_epik_input>
W0NIM11DKFtDSDNdKT1bQ0hdW0NIMl1bQ0gyXUMoXFtDSDNdKT1bQ0hdXFtDSDJdW0NIMl0vQyhbQ0gzXSk9W0NIXS9bQ0gyXVtDSDJdL0MoW0NIM10pPVtDSF0vW0NIMl1PW1BAXSg9TykoW09IXSlPUCg9TykoW09IXSlbT0hd

> <s_epik_cmdline>
J2VwaWtfYXBwJywgJy1pbWFlJywgJ2xpZ2FuZF9wcm8ubWFlJywgJy1vbWFlJywgJ2xpZ2FuZF9wcmVwLm1hZScsICctbXMnLCAnMScsICctcGgnLCAnNycsICctcGh0JywgJzAuNScsICctbnQn

> <r_epik_Ionization_Penalty>
  0.0891

> <r_epik_Ionization_Penalty_Charging>
  0.0891

> <r_epik_Ionization_Penalty_Neutral>
  0.0000

> <r_epik_State_Penalty>
  0.0782

> <r_epik_Charging_Adjusted_Penalty>
0.167359848631231

> <i_epik_Tot_Q>
-3

> <i_epik_Tot_abs_Q>
3

$$$$
