2q8h_ligand
                    3D
 Schrodinger Suite 2020-3.
  7  6  0  0  1  0            999 V2000
    0.5640   38.7870   -9.6890 C   0  0  0  0  0  0
    1.9860   38.4800   -9.2930 C   0  0  0  0  0  0
    2.8260   39.3890   -9.2660 O   0  0  0  0  0  0
    0.0510   37.5060  -10.8710 Cl  0  0  0  0  0  0
    0.4830   40.5390  -10.1650 Cl  0  0  0  0  0  0
    2.2950   37.3190   -8.9940 O   0  5  0  0  0  0
   -0.0359   38.6682   -8.7747 H   0  0  0  0  0  0
  1  2  1  0  0  0
  1  4  1  0  0  0
  1  5  1  0  0  0
  1  7  1  0  0  0
  2  3  2  0  0  0
  2  6  1  0  0  0
M  CHG  1   6  -1
M  END
> <s_m_source_file>
../2q8h_ligand.sdf

> <i_m_source_file_index>
1

> <s_epik_input>
Q2xbQ0hdKENsKUMoPU8pW09IXQ==

> <s_epik_cmdline>
J2VwaWtfYXBwJywgJy1pbWFlJywgJ2xpZ2FuZF9wcm8ubWFlJywgJy1vbWFlJywgJ2xpZ2FuZF9wcmVwLm1hZScsICctbXMnLCAnMScsICctcGgnLCAnNycsICctcGh0JywgJzAuNScsICctbnQn

> <r_lp_tautomer_probability>
1

> <r_epik_Ionization_Penalty>
  0.0000

> <r_epik_Ionization_Penalty_Charging>
  0.0000

> <r_epik_Ionization_Penalty_Neutral>
  0.0000

> <r_epik_State_Penalty>
 -0.0000

> <r_epik_Charging_Adjusted_Penalty>
7.242319107262e-07

> <i_epik_Tot_Q>
-1

> <i_epik_Tot_abs_Q>
1

$$$$
