2q8i_ligand
                    3D
 Schrodinger Suite 2020-3.
 41 43  0  0  1  0            999 V2000
  -48.8340   21.5200   66.0020 C   0  0  0  0  0  0
  -49.9830   21.3490   66.9130 C   0  0  0  0  0  0
  -50.7330   22.5800   67.2160 C   0  0  0  0  0  0
  -51.8400   22.5770   68.0540 C   0  0  0  0  0  0
  -52.2250   21.3570   68.5790 C   0  0  0  0  0  0
  -51.5200   20.0860   68.2780 C   0  0  0  0  0  0
  -50.3600   20.0250   67.4620 C   0  0  0  0  0  0
  -49.7260   18.6810   67.1680 C   0  0  0  0  0  0
  -49.2710   17.8950   68.3810 C   0  0  0  0  0  0
  -48.5860   18.5240   69.5770 C   0  0  0  0  0  0
  -47.6430   19.4450   69.3540 C   0  0  0  0  0  0
  -46.9190   20.1300   70.4400 C   0  0  0  0  0  0
  -46.2860   21.3070   70.2840 C   0  0  0  0  0  0
  -46.2740   22.0750   68.9770 C   0  0  2  0  0  0
  -45.1850   21.6570   67.9610 C   0  0  1  0  0  0
  -45.4880   22.2520   66.5600 C   0  0  0  0  0  0
  -46.4270   21.3820   65.7310 C   0  0  1  0  0  0
  -45.7410   20.0360   65.4190 C   0  0  0  0  0  0
  -47.5910   21.0780   66.5160 O   0  0  0  0  0  0
  -48.9640   22.0170   64.9020 O   0  0  0  0  0  0
  -50.2380   23.6910   66.6010 O   0  0  0  0  0  0
  -53.2750   21.2510   69.4170 O   0  5  0  0  0  0
  -52.0140   18.5270   68.9210 Cl  0  0  0  0  0  0
  -49.4560   16.7000   68.3340 O   0  0  0  0  0  0
  -45.0380   22.7570   68.8420 O   0  0  0  0  0  0
  -52.3808   23.4942   68.2874 H   0  0  0  0  0  0
  -50.4484   18.0429   66.6380 H   0  0  0  0  0  0
  -48.8346   18.8256   66.5398 H   0  0  0  0  0  0
  -48.8460   18.2415   70.6078 H   0  0  0  0  0  0
  -47.3772   19.7216   68.3231 H   0  0  0  0  0  0
  -46.9134   19.6280   71.4187 H   0  0  0  0  0  0
  -45.7435   21.7560   71.1291 H   0  0  0  0  0  0
  -47.3465   22.3087   68.9047 H   0  0  0  0  0  0
  -44.6377   20.7281   67.7429 H   0  0  0  0  0  0
  -45.9619   23.2380   66.6751 H   0  0  0  0  0  0
  -44.5494   22.3599   65.9966 H   0  0  0  0  0  0
  -46.7467   21.9229   64.8281 H   0  0  0  0  0  0
  -44.8387   20.2155   64.8160 H   0  0  0  0  0  0
  -46.4347   19.3922   64.8583 H   0  0  0  0  0  0
  -45.4605   19.5406   66.3602 H   0  0  0  0  0  0
  -49.3548   23.6119   65.9501 H   0  0  0  0  0  0
  1  2  1  0  0  0
  1 19  1  0  0  0
  1 20  2  0  0  0
  2  3  2  0  0  0
  2  7  1  0  0  0
  3  4  1  0  0  0
  3 21  1  0  0  0
  4  5  2  0  0  0
  4 26  1  0  0  0
  5  6  1  0  0  0
  5 22  1  0  0  0
  6  7  2  0  0  0
  6 23  1  0  0  0
  7  8  1  0  0  0
  8  9  1  0  0  0
  8 27  1  0  0  0
  8 28  1  0  0  0
  9 10  1  0  0  0
  9 24  2  0  0  0
 10 11  2  0  0  0
 10 29  1  0  0  0
 11 12  1  0  0  0
 11 30  1  0  0  0
 12 13  2  0  0  0
 12 31  1  0  0  0
 13 14  1  0  0  0
 13 32  1  0  0  0
 14 15  1  0  0  0
 14 25  1  0  0  0
 14 33  1  0  0  0
 15 16  1  0  0  0
 15 25  1  0  0  0
 15 34  1  0  0  0
 16 17  1  0  0  0
 16 35  1  0  0  0
 16 36  1  0  0  0
 17 18  1  0  0  0
 17 19  1  0  0  0
 17 37  1  0  0  0
 18 38  1  0  0  0
 18 39  1  0  0  0
 18 40  1  0  0  0
 21 41  1  0  0  0
M  CHG  1  22  -1
M  END
> <s_m_source_file>
../2q8i_ligand.sdf

> <i_m_source_file_index>
1

> <s_epik_input>
Tz1DMU9bQ0BIXShbQ0gzXSlbQ0gyXVtDQEBIXShPMilbQ0BIXTIvW0NIXT1bQ0hdXFtDSF09W0NIXVxDKD1PKVtDSDJdYyhjMTMpYyhDbCljKFtPSF0pW2NIXWMzW09IXQ==

> <s_epik_cmdline>
J2VwaWtfYXBwJywgJy1pbWFlJywgJ2xpZ2FuZF9wcm8ubWFlJywgJy1vbWFlJywgJ2xpZ2FuZF9wcmVwLm1hZScsICctbXMnLCAnMScsICctcGgnLCAnNycsICctcGh0JywgJzAuNScsICctbnQn

> <r_lp_tautomer_probability>
1

> <r_epik_Ionization_Penalty>
  0.1546

> <r_epik_Ionization_Penalty_Charging>
  0.1543

> <r_epik_Ionization_Penalty_Neutral>
  0.0003

> <r_epik_State_Penalty>
 -0.0000

> <r_epik_Charging_Adjusted_Penalty>
0.154313068608034

> <i_epik_Tot_Q>
-1

> <i_epik_Tot_abs_Q>
1

> <s_epik_Chemistry_Notes>
This compound has an ester and may undergo hydrolysis at high or low pH.

$$$$
