2q8m_ligand
                    3D
 Schrodinger Suite 2020-3.
 35 37  0  0  1  0            999 V2000
  114.2750   58.8120   21.5190 P   0  0  0  0  0  0
  113.7420   59.8080   20.5090 O   0  0  0  0  0  0
  113.2740   57.7190   21.8450 O   0  5  0  0  0  0
  114.8280   59.4900   22.7630 O   0  5  0  0  0  0
  115.5370   58.0680   20.7980 O   0  0  0  0  0  0
  116.6740   58.8230   20.3280 C   0  0  0  0  0  0
  117.3150   58.1320   19.1420 C   0  0  1  0  0  0
  117.9040   56.8670   19.5580 O   0  0  0  0  0  0
  116.3680   57.7450   18.0180 C   0  0  1  0  0  0
  116.1330   58.8340   17.1370 O   0  0  0  0  0  0
  117.1570   56.6390   17.3340 C   0  0  1  0  0  0
  118.2330   57.1650   16.5820 O   0  0  0  0  0  0
  117.7000   55.8880   18.5490 C   0  0  2  0  0  0
  116.7240   54.9200   19.0510 N   0  0  0  0  0  0
  115.9210   55.0400   20.1590 C   0  0  0  0  0  0
  115.1170   54.0190   20.3430 N   0  0  0  0  0  0
  115.4150   53.1660   19.2910 C   0  0  0  0  0  0
  114.9050   51.9130   18.9190 C   0  0  0  0  0  0
  113.9380   51.2760   19.5890 N   0  0  0  0  0  0
  115.4230   51.3290   17.8170 N   0  0  0  0  0  0
  116.3820   51.9700   17.1420 C   0  0  0  0  0  0
  116.9410   53.1500   17.3900 N   0  0  0  0  0  0
  116.4080   53.7040   18.4910 C   0  0  0  0  0  0
  116.3461   59.8275   20.0223 H   0  0  0  0  0  0
  117.4160   58.9094   21.1355 H   0  0  0  0  0  0
  118.0644   58.8529   18.7834 H   0  0  0  0  0  0
  115.3409   57.4918   18.3198 H   0  0  0  0  0  0
  115.5730   59.7137   17.4871 H   0  0  0  0  0  0
  116.6095   56.0578   16.5774 H   0  0  0  0  0  0
  118.0343   57.7404   15.6658 H   0  0  0  0  0  0
  118.6342   55.3467   18.3387 H   0  0  0  0  0  0
  115.9489   55.9033   20.8239 H   0  0  0  0  0  0
  113.5007   51.7319   20.4895 H   0  0  0  0  0  0
  113.5802   50.2963   19.2394 H   0  0  0  0  0  0
  116.7600   51.4503   16.2616 H   0  0  0  0  0  0
  1  2  2  0  0  0
  1  3  1  0  0  0
  1  4  1  0  0  0
  1  5  1  0  0  0
  5  6  1  0  0  0
  6  7  1  0  0  0
  6 24  1  0  0  0
  6 25  1  0  0  0
  7  8  1  0  0  0
  7  9  1  0  0  0
  7 26  1  0  0  0
  8 13  1  0  0  0
  9 10  1  0  0  0
  9 11  1  0  0  0
  9 27  1  0  0  0
 10 28  1  0  0  0
 11 12  1  0  0  0
 11 13  1  0  0  0
 11 29  1  0  0  0
 12 30  1  0  0  0
 13 14  1  0  0  0
 13 31  1  0  0  0
 14 15  1  0  0  0
 14 23  1  0  0  0
 15 16  2  0  0  0
 15 32  1  0  0  0
 16 17  1  0  0  0
 17 18  2  0  0  0
 17 23  1  0  0  0
 18 19  1  0  0  0
 18 20  1  0  0  0
 19 33  1  0  0  0
 19 34  1  0  0  0
 20 21  2  0  0  0
 21 22  1  0  0  0
 21 35  1  0  0  0
 22 23  2  0  0  0
M  CHG  2   3  -1   4  -1
M  END
> <s_m_source_file>
../2q8m_ligand.sdf

> <i_m_source_file_index>
1

> <s_epik_input>
Tz1QKFtPSF0pKFtPSF0pT1tDSDJdW0NASF0xT1tDQEhdKFtDQEhdKFtPSF0pW0NAQEhdMVtPSF0pbihbY0hdbjIpYyhjMjMpbltjSF1uYzNbTkgyXQ==

> <s_epik_cmdline>
J2VwaWtfYXBwJywgJy1pbWFlJywgJ2xpZ2FuZF9wcm8ubWFlJywgJy1vbWFlJywgJ2xpZ2FuZF9wcmVwLm1hZScsICctbXMnLCAnMScsICctcGgnLCAnNycsICctcGh0JywgJzAuNScsICctbnQn

> <r_lp_tautomer_probability>
0.999997216410988

> <r_epik_Ionization_Penalty>
  0.1025

> <r_epik_Ionization_Penalty_Charging>
  0.1020

> <r_epik_Ionization_Penalty_Neutral>
  0.0004

> <r_epik_State_Penalty>
  0.0920

> <r_epik_Charging_Adjusted_Penalty>
0.194024004396068

> <i_epik_Tot_Q>
-2

> <i_epik_Tot_abs_Q>
2

> <s_epik_Chemistry_Notes>
This compound contains an acetal/aminal-like group ( X-CH(R)-Y where X, Y are N, S, or O) that may be acid/base labile, releasing an aldehyde.

$$$$
