2q8s_ligand
                    3D
 Schrodinger Suite 2020-3.
 56 59  0  0  1  0            999 V2000
   18.3630   63.1370   20.2510 O   0  5  0  0  0  0
   19.1270   62.5230   19.4730 C   0  0  0  0  0  0
   20.0590   61.7950   19.8760 O   0  0  0  0  0  0
   18.9180   62.7010   17.9940 C   0  0  1  0  0  0
   19.9660   63.6310   17.4860 N   0  0  0  0  0  0
   20.9530   63.3840   16.6100 C   0  0  0  0  0  0
   21.6800   64.5350   16.4230 C   0  0  0  0  0  0
   21.1060   65.5040   17.2110 C   0  0  0  0  0  0
   20.0420   64.9150   17.8590 C   0  0  0  0  0  0
   18.8670   61.3650   17.2230 C   0  0  0  0  0  0
   18.2230   61.6380   15.8770 C   0  0  0  0  0  0
   18.9360   61.6460   14.6720 C   0  0  0  0  0  0
   18.2850   61.9270   13.4600 C   0  0  0  0  0  0
   16.9170   62.1930   13.4490 C   0  0  0  0  0  0
   16.2230   62.1920   14.6590 C   0  0  0  0  0  0
   16.8640   61.9110   15.8560 C   0  0  0  0  0  0
   16.1170   62.5290   12.1990 C   0  0  0  0  0  0
   16.3360   61.6510   10.9780 C   0  0  0  0  0  0
   17.5580   62.0520   10.2080 C   0  0  0  0  0  0
   17.7700   63.3980    9.6150 C   0  0  0  0  0  0
   18.8820   63.7720    8.9250 C   0  0  0  0  0  0
   20.0820   62.9770    8.5960 C   0  0  0  0  0  0
   18.7590   65.0600    8.5280 O   0  0  0  0  0  0
   17.5340   65.4760    8.9990 C   0  0  0  0  0  0
   16.9150   64.4470    9.6740 N   0  0  0  0  0  0
   17.0660   66.7670    8.7760 C   0  0  0  0  0  0
   15.8290   67.1810    9.2570 C   0  0  0  0  0  0
   15.3850   68.4820    9.0180 C   0  0  0  0  0  0
   16.1800   69.3710    8.3000 C   0  0  0  0  0  0
   17.4170   68.9590    7.8160 C   0  0  0  0  0  0
   17.8580   67.6630    8.0560 C   0  0  0  0  0  0
   17.9388   63.1752   17.8316 H   0  0  0  0  0  0
   21.1461   62.4266   16.1261 H   0  0  0  0  0  0
   22.5468   64.6565   15.7734 H   0  0  0  0  0  0
   21.4305   66.5403   17.3053 H   0  0  0  0  0  0
   19.3721   65.4126   18.5602 H   0  0  0  0  0  0
   19.8886   60.9800   17.0887 H   0  0  0  0  0  0
   18.2721   60.6356   17.7923 H   0  0  0  0  0  0
   20.0049   61.4324   14.6748 H   0  0  0  0  0  0
   18.8496   61.9371   12.5277 H   0  0  0  0  0  0
   15.1564   62.4164   14.6636 H   0  0  0  0  0  0
   16.2958   61.9047   16.7862 H   0  0  0  0  0  0
   15.0421   62.4595   12.4220 H   0  0  0  0  0  0
   16.3585   63.5514   11.8729 H   0  0  0  0  0  0
   16.4589   60.6051   11.2958 H   0  0  0  0  0  0
   15.4671   61.7310   10.3082 H   0  0  0  0  0  0
   18.4456   61.9502   10.8498 H   0  0  0  0  0  0
   17.6660   61.4021    9.3271 H   0  0  0  0  0  0
   19.9761   61.9641    9.0117 H   0  0  0  0  0  0
   20.9712   63.4595    9.0279 H   0  0  0  0  0  0
   20.1926   62.9152    7.5033 H   0  0  0  0  0  0
   15.2051   66.4882    9.8217 H   0  0  0  0  0  0
   14.4136   68.8029    9.3943 H   0  0  0  0  0  0
   15.8336   70.3882    8.1175 H   0  0  0  0  0  0
   18.0396   69.6514    7.2494 H   0  0  0  0  0  0
   18.8297   67.3438    7.6791 H   0  0  0  0  0  0
  1  2  1  0  0  0
  2  3  2  0  0  0
  2  4  1  0  0  0
  4  5  1  0  0  0
  4 10  1  0  0  0
  4 32  1  0  0  0
  5  6  1  0  0  0
  5  9  1  0  0  0
  6  7  2  0  0  0
  6 33  1  0  0  0
  7  8  1  0  0  0
  7 34  1  0  0  0
  8  9  2  0  0  0
  8 35  1  0  0  0
  9 36  1  0  0  0
 10 11  1  0  0  0
 10 37  1  0  0  0
 10 38  1  0  0  0
 11 12  2  0  0  0
 11 16  1  0  0  0
 12 13  1  0  0  0
 12 39  1  0  0  0
 13 14  2  0  0  0
 13 40  1  0  0  0
 14 15  1  0  0  0
 14 17  1  0  0  0
 15 16  2  0  0  0
 15 41  1  0  0  0
 16 42  1  0  0  0
 17 18  1  0  0  0
 17 43  1  0  0  0
 17 44  1  0  0  0
 18 19  1  0  0  0
 18 45  1  0  0  0
 18 46  1  0  0  0
 19 20  1  0  0  0
 19 47  1  0  0  0
 19 48  1  0  0  0
 20 21  2  0  0  0
 20 25  1  0  0  0
 21 22  1  0  0  0
 21 23  1  0  0  0
 22 49  1  0  0  0
 22 50  1  0  0  0
 22 51  1  0  0  0
 23 24  1  0  0  0
 24 25  2  0  0  0
 24 26  1  0  0  0
 26 27  2  0  0  0
 26 31  1  0  0  0
 27 28  1  0  0  0
 27 52  1  0  0  0
 28 29  2  0  0  0
 28 53  1  0  0  0
 29 30  1  0  0  0
 29 54  1  0  0  0
 30 31  2  0  0  0
 30 55  1  0  0  0
 31 56  1  0  0  0
M  CHG  1   1  -1
M  END
> <s_m_source_file>
../2q8s_ligand.sdf

> <i_m_source_file_index>
1

> <s_epik_input>
W2NIXTFbY0hdW2NIXVtjSF1uMVtDQEhdKEMoPU8pW09IXSlbQ0gyXWMyW2NIXVtjSF1jKFtjSF1bY0hdMilbQ0gyXVtDSDJdW0NIMl1jM2MoW0NIM10pb2MobjMpLWM0W2NIXVtjSF1bY0hdW2NIXVtjSF00

> <s_epik_cmdline>
J2VwaWtfYXBwJywgJy1pbWFlJywgJ2xpZ2FuZF9wcm8ubWFlJywgJy1vbWFlJywgJ2xpZ2FuZF9wcmVwLm1hZScsICctbXMnLCAnMScsICctcGgnLCAnNycsICctcGh0JywgJzAuNScsICctbnQn

> <r_lp_tautomer_probability>
1

> <r_epik_Ionization_Penalty>
  0.0001

> <r_epik_Ionization_Penalty_Charging>
  0.0001

> <r_epik_Ionization_Penalty_Neutral>
  0.0000

> <r_epik_State_Penalty>
 -0.0000

> <r_epik_Charging_Adjusted_Penalty>
8.36443737622307e-05

> <i_epik_Tot_Q>
-1

> <i_epik_Tot_abs_Q>
1

$$$$
