2q8y_ligand
                    3D
 Schrodinger Suite 2020-3.
156158  0  0  1  0            999 V2000
   -1.5220   -3.6150   -0.2810 N   0  3  0  0  0  0
   -0.5670   -4.3340    0.6070 C   0  0  2  0  0  0
    0.0040   -5.5800   -0.0800 C   0  0  0  0  0  0
    1.2170   -5.7910   -0.0670 O   0  0  0  0  0  0
   -1.2590   -4.7050    1.9240 C   0  0  0  0  0  0
   -0.3430   -5.2690    3.0140 C   0  0  0  0  0  0
   -1.1240   -5.9110    4.1540 C   0  0  0  0  0  0
   -0.5720   -6.6720    4.9560 O   0  0  0  0  0  0
   -2.4160   -5.6160    4.2250 N   0  0  0  0  0  0
   -0.8690   -6.3920   -0.6770 N   0  0  0  0  0  0
   -0.4760   -7.6840   -1.2620 C   0  0  2  0  0  0
   -0.1180   -7.6460   -2.7560 C   0  0  0  0  0  0
    0.4740   -8.5960   -3.2800 O   0  0  0  0  0  0
   -1.5870   -8.7250   -1.0490 C   0  0  0  0  0  0
   -1.8650   -9.0990    0.3970 C   0  0  0  0  0  0
   -0.8470   -9.5680    1.2300 C   0  0  0  0  0  0
   -3.1560   -9.0170    0.9220 C   0  0  0  0  0  0
   -1.1030   -9.9220    2.5530 C   0  0  0  0  0  0
   -3.4220   -9.3730    2.2490 C   0  0  0  0  0  0
   -2.3930   -9.8230    3.0550 C   0  0  0  0  0  0
   -2.6420  -10.1790    4.3640 O   0  0  0  0  0  0
   -0.4670   -6.5570   -3.4390 N   0  0  0  0  0  0
   -0.4580   -6.5460   -4.9070 C   0  0  2  0  0  0
    0.5400   -5.5790   -5.5450 C   0  0  0  0  0  0
    0.5200   -5.3700   -6.7620 O   0  0  0  0  0  0
   -1.8750   -6.2840   -5.4360 C   0  0  0  0  0  0
   -2.9340   -7.0890   -4.7400 C   0  0  0  0  0  0
   -3.6460   -6.5460   -3.6700 C   0  0  0  0  0  0
   -3.2090   -8.3910   -5.1420 C   0  0  0  0  0  0
   -4.6190   -7.2880   -3.0130 C   0  0  0  0  0  0
   -4.1820   -9.1400   -4.4960 C   0  0  0  0  0  0
   -4.8930   -8.5900   -3.4290 C   0  0  0  0  0  0
    1.4070   -5.0020   -4.7180 N   0  0  0  0  0  0
    2.3790   -4.0140   -5.1670 C   0  0  2  0  0  0
    3.5990   -4.6860   -5.7880 C   0  0  0  0  0  0
    4.1930   -5.5840   -5.1920 O   0  0  0  0  0  0
    2.8020   -3.1090   -4.0030 C   0  0  0  0  0  0
    1.6430   -2.3310   -3.3580 C   0  0  0  0  0  0
    2.1590   -1.2230   -2.0270 S   0  0  0  0  0  0
    2.6220   -2.3900   -0.7420 C   0  0  0  0  0  0
    3.9680   -4.2400   -6.9870 N   0  0  0  0  0  0
    5.2020   -4.7060   -7.6380 C   0  0  1  0  0  0
    5.0690   -4.8080   -9.1720 C   0  0  1  0  0  0
    3.8540   -5.6310   -9.6160 C   0  0  0  0  0  0
    5.1350   -3.5470   -9.8670 O   0  0  0  0  0  0
    4.2920   -2.1880   -9.5910 P   0  0  0  0  0  0
    5.1340   -1.3990   -8.6220 O   0  0  0  0  0  0
    4.1760   -1.5620  -10.9530 O   0  0  0  0  0  0
    2.9530   -2.5940   -9.0080 O   0  0  0  0  0  0
    6.4020   -3.8860   -7.2220 C   0  0  0  0  0  0
    7.4420   -3.9110   -7.8790 O   0  0  0  0  0  0
    6.2630   -3.1580   -6.1150 N   0  0  0  0  0  0
    7.3340   -2.3110   -5.5880 C   0  0  2  0  0  0
    8.5730   -3.1340   -5.2190 C   0  0  0  0  0  0
    8.4610   -4.2640   -4.7330 O   0  0  0  0  0  0
    6.8340   -1.5230   -4.3670 C   0  0  0  0  0  0
    7.6500   -0.2720   -4.0270 C   0  0  0  0  0  0
    7.1230    1.0150   -4.6730 C   0  0  0  0  0  0
    7.4760    2.1060   -4.1720 O   0  0  0  0  0  0
    6.3630    0.9520   -5.6660 O   0  0  0  0  0  0
    9.7540   -2.6000   -5.4800 N   0  0  0  0  0  0
   11.0310   -3.2050   -5.0740 C   0  0  2  0  0  0
   11.0970   -3.2410   -3.5570 C   0  0  0  0  0  0
   11.0620   -2.2530   -2.9370 O   0  0  0  0  0  0
   12.1680   -2.3100   -5.5340 C   0  0  0  0  0  0
   13.5590   -2.8030   -5.2970 C   0  0  0  0  0  0
   14.2090   -3.5180   -6.2560 C   0  0  0  0  0  0
   14.2510   -2.5220   -4.1340 C   0  0  0  0  0  0
   15.4780   -3.9860   -6.0630 C   0  0  0  0  0  0
   15.5460   -2.9560   -3.9500 C   0  0  0  0  0  0
   16.1630   -3.7130   -4.9190 C   0  0  0  0  0  0
   17.3170   -4.1320   -4.8580 O   0  0  0  0  0  0
   18.1250   -4.7110   -3.6260 P   0  0  0  0  0  0
   18.2270   -3.7250   -2.6960 O   0  0  0  0  0  0
   17.3840   -5.7710   -2.9990 O   0  0  0  0  0  0
   19.4200   -5.2130   -4.0480 O   0  0  0  0  0  0
   11.1770   -4.3920   -2.9690 N   0  0  0  0  0  0
   11.4110   -4.4680   -1.5480 C   0  0  0  0  0  0
   12.8040   -4.9990   -1.2540 C   0  0  0  0  0  0
   13.2080   -5.9850   -1.8190 O   0  0  0  0  0  0
   13.5140   -4.3530   -0.3470 N   0  0  0  0  0  0
   14.8800   -4.7320   -0.0120 C   0  0  2  0  0  0
   15.1020   -6.0380    0.6850 C   0  0  0  0  0  0
   14.2140   -6.6480    1.1950 O   0  0  0  0  0  0
   15.5830   -3.6630    0.6720 C   0  0  0  0  0  0
   -1.0194   -3.3520   -1.2234 H   0  0  0  0  0  0
   -1.8678   -2.6980    0.2185 H   0  0  0  0  0  0
   -2.3843   -4.2640   -0.4940 H   0  0  0  0  0  0
    0.2636   -3.6408    0.8062 H   0  0  0  0  0  0
   -1.7363   -3.8111    2.3519 H   0  0  0  0  0  0
   -2.0232   -5.4728    1.7331 H   0  0  0  0  0  0
    0.3153   -6.0356    2.5793 H   0  0  0  0  0  0
    0.2680   -4.4573    3.4357 H   0  0  0  0  0  0
   -2.8655   -4.9331    3.4891 H   0  0  0  0  0  0
   -3.0374   -6.0544    5.0198 H   0  0  0  0  0  0
   -1.9179   -6.0638   -0.7228 H   0  0  0  0  0  0
    0.4431   -7.9158   -0.7038 H   0  0  0  0  0  0
   -2.5332   -8.3401   -1.4571 H   0  0  0  0  0  0
   -1.3183   -9.6588   -1.5646 H   0  0  0  0  0  0
    0.1661   -9.6588    0.8381 H   0  0  0  0  0  0
   -3.9711   -8.6696    0.2872 H   0  0  0  0  0  0
   -0.2932  -10.2754    3.1913 H   0  0  0  0  0  0
   -4.4347   -9.2959    2.6448 H   0  0  0  0  0  0
   -1.8207  -10.5367    5.0024 H   0  0  0  0  0  0
   -0.7655   -5.6554   -2.8840 H   0  0  0  0  0  0
   -0.1028   -7.5567   -5.1568 H   0  0  0  0  0  0
   -2.1267   -5.2219   -5.2996 H   0  0  0  0  0  0
   -1.9197   -6.5370   -6.5056 H   0  0  0  0  0  0
   -3.4360   -5.5268   -3.3457 H   0  0  0  0  0  0
   -2.6548   -8.8277   -5.9728 H   0  0  0  0  0  0
   -5.1659   -6.8542   -2.1759 H   0  0  0  0  0  0
   -4.3911  -10.1588   -4.8223 H   0  0  0  0  0  0
   -5.6598   -9.1761   -2.9226 H   0  0  0  0  0  0
    1.3714   -5.2967   -3.6588 H   0  0  0  0  0  0
    1.8576   -3.4274   -5.9378 H   0  0  0  0  0  0
    3.2612   -3.7198   -3.2118 H   0  0  0  0  0  0
    3.5298   -2.3663   -4.3617 H   0  0  0  0  0  0
    1.1456   -1.7146   -4.1213 H   0  0  0  0  0  0
    0.9188   -3.0398   -2.9301 H   0  0  0  0  0  0
    2.9637   -1.8398    0.1471 H   0  0  0  0  0  0
    3.4339   -3.0356   -1.1082 H   0  0  0  0  0  0
    1.7519   -3.0091   -0.4782 H   0  0  0  0  0  0
    3.3239   -3.5047   -7.4915 H   0  0  0  0  0  0
    5.3451   -5.7206   -7.2378 H   0  0  0  0  0  0
    5.9877   -5.2963   -9.5292 H   0  0  0  0  0  0
    3.8359   -6.5838   -9.0665 H   0  0  0  0  0  0
    3.9216   -5.8315  -10.6955 H   0  0  0  0  0  0
    2.9328   -5.0682   -9.4045 H   0  0  0  0  0  0
    6.1307   -1.0434   -8.9223 H   0  0  0  0  0  0
    2.9054   -3.0638   -8.0145 H   0  0  0  0  0  0
    5.2963   -3.2111   -5.5927 H   0  0  0  0  0  0
    7.5911   -1.6281   -6.4111 H   0  0  0  0  0  0
    5.8016   -1.1876   -4.5448 H   0  0  0  0  0  0
    6.8615   -2.1691   -3.4772 H   0  0  0  0  0  0
    7.6424   -0.1140   -2.9384 H   0  0  0  0  0  0
    8.6863   -0.4055   -4.3709 H   0  0  0  0  0  0
    5.9853    1.8756   -6.1290 H   0  0  0  0  0  0
    9.7471   -1.6495   -6.0336 H   0  0  0  0  0  0
   11.0818   -4.2090   -5.5205 H   0  0  0  0  0  0
   12.0924   -2.1499   -6.6197 H   0  0  0  0  0  0
   12.1054   -1.3419   -5.0154 H   0  0  0  0  0  0
   13.7048   -3.7220   -7.2006 H   0  0  0  0  0  0
   13.7632   -1.9462   -3.3475 H   0  0  0  0  0  0
   15.9502   -4.5886   -6.8389 H   0  0  0  0  0  0
   16.0818   -2.6993   -3.0361 H   0  0  0  0  0  0
   16.3723   -5.5804   -2.6116 H   0  0  0  0  0  0
   20.1324   -4.5426   -4.5510 H   0  0  0  0  0  0
   11.0656   -5.3142   -3.5582 H   0  0  0  0  0  0
   11.3150   -3.4651   -1.1065 H   0  0  0  0  0  0
   10.6723   -5.1423   -1.0903 H   0  0  0  0  0  0
   13.0389   -3.5015    0.1621 H   0  0  0  0  0  0
   15.3040   -4.8685   -1.0178 H   0  0  0  0  0  0
   16.1287   -6.4316    0.7165 H   0  0  0  0  0  0
   15.4077   -2.7132    0.1455 H   0  0  0  0  0  0
   16.6609   -3.8820    0.6841 H   0  0  0  0  0  0
   15.2134   -3.5833    1.7050 H   0  0  0  0  0  0
  1  2  1  0  0  0
  1 86  1  0  0  0
  1 87  1  0  0  0
  1 88  1  0  0  0
  2  3  1  0  0  0
  2  5  1  0  0  0
  2 89  1  0  0  0
  3  4  2  0  0  0
  3 10  1  0  0  0
  5  6  1  0  0  0
  5 90  1  0  0  0
  5 91  1  0  0  0
  6  7  1  0  0  0
  6 92  1  0  0  0
  6 93  1  0  0  0
  7  8  2  0  0  0
  7  9  1  0  0  0
  9 94  1  0  0  0
  9 95  1  0  0  0
 10 11  1  0  0  0
 10 96  1  0  0  0
 11 12  1  0  0  0
 11 14  1  0  0  0
 11 97  1  0  0  0
 12 13  2  0  0  0
 12 22  1  0  0  0
 14 15  1  0  0  0
 14 98  1  0  0  0
 14 99  1  0  0  0
 15 16  2  0  0  0
 15 17  1  0  0  0
 16 18  1  0  0  0
 16100  1  0  0  0
 17 19  2  0  0  0
 17101  1  0  0  0
 18 20  2  0  0  0
 18102  1  0  0  0
 19 20  1  0  0  0
 19103  1  0  0  0
 20 21  1  0  0  0
 21104  1  0  0  0
 22 23  1  0  0  0
 22105  1  0  0  0
 23 24  1  0  0  0
 23 26  1  0  0  0
 23106  1  0  0  0
 24 25  2  0  0  0
 24 33  1  0  0  0
 26 27  1  0  0  0
 26107  1  0  0  0
 26108  1  0  0  0
 27 28  2  0  0  0
 27 29  1  0  0  0
 28 30  1  0  0  0
 28109  1  0  0  0
 29 31  2  0  0  0
 29110  1  0  0  0
 30 32  2  0  0  0
 30111  1  0  0  0
 31 32  1  0  0  0
 31112  1  0  0  0
 32113  1  0  0  0
 33 34  1  0  0  0
 33114  1  0  0  0
 34 35  1  0  0  0
 34 37  1  0  0  0
 34115  1  0  0  0
 35 36  2  0  0  0
 35 41  1  0  0  0
 37 38  1  0  0  0
 37116  1  0  0  0
 37117  1  0  0  0
 38 39  1  0  0  0
 38118  1  0  0  0
 38119  1  0  0  0
 39 40  1  0  0  0
 40120  1  0  0  0
 40121  1  0  0  0
 40122  1  0  0  0
 41 42  1  0  0  0
 41123  1  0  0  0
 42 43  1  0  0  0
 42 50  1  0  0  0
 42124  1  0  0  0
 43 44  1  0  0  0
 43 45  1  0  0  0
 43125  1  0  0  0
 44126  1  0  0  0
 44127  1  0  0  0
 44128  1  0  0  0
 45 46  1  0  0  0
 46 47  1  0  0  0
 46 48  2  0  0  0
 46 49  1  0  0  0
 47129  1  0  0  0
 49130  1  0  0  0
 50 51  2  0  0  0
 50 52  1  0  0  0
 52 53  1  0  0  0
 52131  1  0  0  0
 53 54  1  0  0  0
 53 56  1  0  0  0
 53132  1  0  0  0
 54 55  2  0  0  0
 54 61  1  0  0  0
 56 57  1  0  0  0
 56133  1  0  0  0
 56134  1  0  0  0
 57 58  1  0  0  0
 57135  1  0  0  0
 57136  1  0  0  0
 58 59  2  0  0  0
 58 60  1  0  0  0
 60137  1  0  0  0
 61 62  1  0  0  0
 61138  1  0  0  0
 62 63  1  0  0  0
 62 65  1  0  0  0
 62139  1  0  0  0
 63 64  2  0  0  0
 63 77  1  0  0  0
 65 66  1  0  0  0
 65140  1  0  0  0
 65141  1  0  0  0
 66 67  2  0  0  0
 66 68  1  0  0  0
 67 69  1  0  0  0
 67142  1  0  0  0
 68 70  2  0  0  0
 68143  1  0  0  0
 69 71  2  0  0  0
 69144  1  0  0  0
 70 71  1  0  0  0
 70145  1  0  0  0
 71 72  1  0  0  0
 72 73  1  0  0  0
 73 74  2  0  0  0
 73 75  1  0  0  0
 73 76  1  0  0  0
 75146  1  0  0  0
 76147  1  0  0  0
 77 78  1  0  0  0
 77148  1  0  0  0
 78 79  1  0  0  0
 78149  1  0  0  0
 78150  1  0  0  0
 79 80  2  0  0  0
 79 81  1  0  0  0
 81 82  1  0  0  0
 81151  1  0  0  0
 82 83  1  0  0  0
 82 85  1  0  0  0
 82152  1  0  0  0
 83 84  2  0  0  0
 83153  1  0  0  0
 85154  1  0  0  0
 85155  1  0  0  0
 85156  1  0  0  0
M  CHG  1   1   1
M  END
> <s_m_source_file>
../2q8y_ligand.sdf

> <i_m_source_file_index>
1

> <s_epik_input>
Tz1DKFtOSDJdKVtDSDJdW0NIMl1bQ0BIXShbTkgzK10pQyg9TylbTkhdW0NAQEhdKFtDSDJdYzFbY0hdW2NIXWMoW09IXSlbY0hdW2NIXTEpQyg9TylbTkhdW0NAQEhdKFtDSDJdYzJbY0hdW2NIXVtjSF1bY0hdW2NIXTIpQyg9TylbTkhdW0NAQEhdKFtDSDJdW0NIMl1TW0NIM10pQyg9TylbTkhdW0NAQEhdKFtDQEBIXShbQ0gzXSlPUCg9TykoW09IXSlbT0hdKUMoPU8pW05IXVtDQEBIXShbQ0gyXVtDSDJdQyg9TylbT0hdKUMoPU8pW05IXVtDQEhdKEMoPU8pW05IXVtDSDJdQyg9TylbTkhdW0NASF0oW0NIXT1PKVtDSDNdKVtDSDJdYzNbY0hdW2NIXWMoW2NIXVtjSF0zKU9QKD1PKShbT0hdKVtPSF0=

> <s_epik_cmdline>
J2VwaWtfYXBwJywgJy1pbWFlJywgJ2xpZ2FuZF9wcm8ubWFlJywgJy1vbWFlJywgJ2xpZ2FuZF9wcmVwLm1hZScsICctbXMnLCAnMScsICctcGgnLCAnNycsICctcGh0JywgJzAuNScsICctbnQn

> <s_epik_pKa_notes>
Molecule size exceeds maximum supported for generating protonation states

$$$$
