2q94_ligand
                    3D
 Schrodinger Suite 2020-3.
 25 26  0  0  1  0            999 V2000
    1.6790    0.0990    9.3780 O   0  0  0  0  0  0
    0.7460   -0.1430    8.5840 C   0  0  0  0  0  0
    0.8790   -0.2210    7.3420 O   0  5  0  0  0  0
   -0.6650   -0.3630    9.1300 C   0  0  0  0  0  0
   -1.7290   -0.6280    8.3190 O   0  0  0  0  0  0
   -1.0610   -0.3050   10.3970 C   0  0  0  0  0  0
   -2.3760   -0.5280   10.4130 C   0  0  0  0  0  0
   -2.7930   -0.7220    9.1630 C   0  0  0  0  0  0
   -4.0590   -0.9830    8.6510 C   0  0  0  0  0  0
   -4.1510   -1.6380    7.4330 C   0  0  0  0  0  0
   -5.3960   -1.9270    6.8790 C   0  0  0  0  0  0
   -6.5510   -1.5570    7.5540 C   0  0  0  0  0  0
   -6.4580   -0.9000    8.7770 C   0  0  0  0  0  0
   -5.2190   -0.6080    9.3310 C   0  0  0  0  0  0
   -5.1450    0.0370   10.5270 O   0  0  0  0  0  0
   -5.2320    1.4670   10.4730 C   0  0  0  0  0  0
   -4.2720    1.9960    9.7220 F   0  0  0  0  0  0
   -6.4050    1.8650    9.9900 F   0  0  0  0  0  0
   -5.1030    1.9270   11.7130 F   0  0  0  0  0  0
   -0.4283   -0.1111   11.2631 H   0  0  0  0  0  0
   -3.0056   -0.5481   11.3025 H   0  0  0  0  0  0
   -3.2429   -1.9290    6.9050 H   0  0  0  0  0  0
   -5.4628   -2.4411    5.9202 H   0  0  0  0  0  0
   -7.5286   -1.7806    7.1270 H   0  0  0  0  0  0
   -7.3668   -0.6118    9.3053 H   0  0  0  0  0  0
  1  2  2  0  0  0
  2  3  1  0  0  0
  2  4  1  0  0  0
  4  5  1  0  0  0
  4  6  2  0  0  0
  5  8  1  0  0  0
  6  7  1  0  0  0
  6 20  1  0  0  0
  7  8  2  0  0  0
  7 21  1  0  0  0
  8  9  1  0  0  0
  9 10  2  0  0  0
  9 14  1  0  0  0
 10 11  1  0  0  0
 10 22  1  0  0  0
 11 12  2  0  0  0
 11 23  1  0  0  0
 12 13  1  0  0  0
 12 24  1  0  0  0
 13 14  2  0  0  0
 13 25  1  0  0  0
 14 15  1  0  0  0
 15 16  1  0  0  0
 16 17  1  0  0  0
 16 18  1  0  0  0
 16 19  1  0  0  0
M  CHG  1   3  -1
M  END
> <s_m_source_file>
../2q94_ligand.sdf

> <i_m_source_file_index>
1

> <s_epik_input>
Tz1DKFtPSF0pYzFvYyhbY0hdW2NIXTEpLWMyW2NIXVtjSF1bY0hdW2NIXWMyT0MoRikoRilG

> <s_epik_cmdline>
J2VwaWtfYXBwJywgJy1pbWFlJywgJ2xpZ2FuZF9wcm8ubWFlJywgJy1vbWFlJywgJ2xpZ2FuZF9wcmVwLm1hZScsICctbXMnLCAnMScsICctcGgnLCAnNycsICctcGh0JywgJzAuNScsICctbnQn

> <r_lp_tautomer_probability>
1

> <r_epik_Ionization_Penalty>
  0.0001

> <r_epik_Ionization_Penalty_Charging>
  0.0001

> <r_epik_Ionization_Penalty_Neutral>
  0.0000

> <r_epik_State_Penalty>
 -0.0000

> <r_epik_Charging_Adjusted_Penalty>
6.20376280826829e-05

> <i_epik_Tot_Q>
-1

> <i_epik_Tot_abs_Q>
1

$$$$
