2q95_ligand
                    3D
 Schrodinger Suite 2020-3.
 23 24  0  0  1  0            999 V2000
    1.1550    0.2660    9.3500 O   0  5  0  0  0  0
    0.2470   -0.0820    8.5610 C   0  0  0  0  0  0
    0.4180   -0.2750    7.3400 O   0  0  0  0  0  0
   -1.1670   -0.2800    9.1060 C   0  0  0  0  0  0
   -2.2070   -0.7050    8.3290 O   0  0  0  0  0  0
   -1.6190   -0.0020   10.5410 C   0  0  0  0  0  0
   -3.0620   -0.5110   10.5420 C   0  0  0  0  0  0
   -3.3500   -0.8030    9.0690 C   0  0  0  0  0  0
   -4.5210   -1.2330    8.4460 C   0  0  0  0  0  0
   -4.3760   -1.9640    7.2750 C   0  0  0  0  0  0
   -5.3660   -2.5070    6.4620 C   0  0  0  0  0  0
   -6.7730   -2.3570    7.0460 C   0  0  0  0  0  0
   -7.7940   -2.8960    6.3880 N   0  3  0  0  0  0
   -7.5650   -3.5850    5.1670 O   0  0  0  0  0  0
   -9.1120   -2.7740    6.9040 O   0  5  0  0  0  0
   -7.0600   -1.6090    8.3500 C   0  0  0  0  0  0
   -5.7950   -0.9850    8.9430 C   0  0  0  0  0  0
   -6.0210    0.0690   10.2960 Cl  0  0  0  0  0  0
   -1.0543    0.4465   11.3583 H   0  0  0  0  0  0
   -3.7295   -0.6363   11.3946 H   0  0  0  0  0  0
   -3.3501   -2.1355    6.9490 H   0  0  0  0  0  0
   -5.1606   -2.9900    5.5067 H   0  0  0  0  0  0
   -8.0484   -1.5301    8.8027 H   0  0  0  0  0  0
  1  2  1  0  0  0
  2  3  2  0  0  0
  2  4  1  0  0  0
  4  5  1  0  0  0
  4  6  2  0  0  0
  5  8  1  0  0  0
  6  7  1  0  0  0
  6 19  1  0  0  0
  7  8  2  0  0  0
  7 20  1  0  0  0
  8  9  1  0  0  0
  9 10  2  0  0  0
  9 17  1  0  0  0
 10 11  1  0  0  0
 10 21  1  0  0  0
 11 12  2  0  0  0
 11 22  1  0  0  0
 12 13  1  0  0  0
 12 16  1  0  0  0
 13 14  2  0  0  0
 13 15  1  0  0  0
 16 17  2  0  0  0
 16 23  1  0  0  0
 17 18  1  0  0  0
M  CHG  3   1  -1  13   1  15  -1
M  END
> <s_m_source_file>
../2q95_ligand.sdf

> <i_m_source_file_index>
1

> <s_epik_input>
W09IXUMoPU8pYzFvYyhbY0hdW2NIXTEpLWMyW2NIXVtjSF1jKFtOK10oPU8pW08tXSlbY0hdYzJDbA==

> <s_epik_cmdline>
J2VwaWtfYXBwJywgJy1pbWFlJywgJ2xpZ2FuZF9wcm8ubWFlJywgJy1vbWFlJywgJ2xpZ2FuZF9wcmVwLm1hZScsICctbXMnLCAnMScsICctcGgnLCAnNycsICctcGh0JywgJzAuNScsICctbnQn

> <r_lp_tautomer_probability>
1

> <r_epik_Ionization_Penalty>
  0.0000

> <r_epik_Ionization_Penalty_Charging>
  0.0000

> <r_epik_Ionization_Penalty_Neutral>
  0.0000

> <r_epik_State_Penalty>
 -0.0000

> <r_epik_Charging_Adjusted_Penalty>
2.49269295504462e-05

> <i_epik_Tot_Q>
-1

> <i_epik_Tot_abs_Q>
3

$$$$
