2q96_ligand
                    3D
 Schrodinger Suite 2020-3.
 24 25  0  0  1  0            999 V2000
    0.7820   -0.0990    7.3330 O   0  0  0  0  0  0
    0.5880   -0.0710    8.5670 C   0  0  0  0  0  0
    1.4880    0.1020    9.4200 O   0  5  0  0  0  0
   -0.8540   -0.2460    9.0420 C   0  0  0  0  0  0
   -1.9210   -0.2760    8.1910 O   0  0  0  0  0  0
   -1.2690   -0.3900   10.2970 C   0  0  0  0  0  0
   -2.5950   -0.5140   10.2670 C   0  0  0  0  0  0
   -3.0030   -0.4470    9.0000 C   0  0  0  0  0  0
   -4.4130   -0.5340    8.4160 C   0  0  0  0  0  0
   -5.4450   -0.7820    9.5170 C   0  0  0  0  0  0
   -5.9590   -2.0670    9.6360 C   0  0  0  0  0  0
   -6.9120   -2.3630   10.6030 C   0  0  0  0  0  0
   -7.3580   -1.3680   11.4640 C   0  0  0  0  0  0
   -6.8460   -0.0810   11.3510 C   0  0  0  0  0  0
   -5.8960    0.2060   10.3800 C   0  0  0  0  0  0
   -5.2750    1.8150   10.2370 Cl  0  0  0  0  0  0
   -0.6398   -0.4040   11.1869 H   0  0  0  0  0  0
   -3.2399   -0.6481   11.1354 H   0  0  0  0  0  0
   -4.6582    0.4101    7.9076 H   0  0  0  0  0  0
   -4.4603   -1.3624    7.6938 H   0  0  0  0  0  0
   -5.6111   -2.8514    8.9638 H   0  0  0  0  0  0
   -7.3092   -3.3747   10.6859 H   0  0  0  0  0  0
   -8.1054   -1.5956   12.2240 H   0  0  0  0  0  0
   -7.1904    0.7034   12.0249 H   0  0  0  0  0  0
  1  2  2  0  0  0
  2  3  1  0  0  0
  2  4  1  0  0  0
  4  5  1  0  0  0
  4  6  2  0  0  0
  5  8  1  0  0  0
  6  7  1  0  0  0
  6 17  1  0  0  0
  7  8  2  0  0  0
  7 18  1  0  0  0
  8  9  1  0  0  0
  9 10  1  0  0  0
  9 19  1  0  0  0
  9 20  1  0  0  0
 10 11  2  0  0  0
 10 15  1  0  0  0
 11 12  1  0  0  0
 11 21  1  0  0  0
 12 13  2  0  0  0
 12 22  1  0  0  0
 13 14  1  0  0  0
 13 23  1  0  0  0
 14 15  2  0  0  0
 14 24  1  0  0  0
 15 16  1  0  0  0
M  CHG  1   3  -1
M  END
> <s_m_source_file>
../2q96_ligand.sdf

> <i_m_source_file_index>
1

> <s_epik_input>
Tz1DKFtPSF0pYzFvYyhbY0hdW2NIXTEpW0NIMl1jMltjSF1bY0hdW2NIXVtjSF1jMkNs

> <s_epik_cmdline>
J2VwaWtfYXBwJywgJy1pbWFlJywgJ2xpZ2FuZF9wcm8ubWFlJywgJy1vbWFlJywgJ2xpZ2FuZF9wcmVwLm1hZScsICctbXMnLCAnMScsICctcGgnLCAnNycsICctcGh0JywgJzAuNScsICctbnQn

> <r_lp_tautomer_probability>
1

> <r_epik_Ionization_Penalty>
  0.0001

> <r_epik_Ionization_Penalty_Charging>
  0.0001

> <r_epik_Ionization_Penalty_Neutral>
  0.0000

> <r_epik_State_Penalty>
 -0.0000

> <r_epik_Charging_Adjusted_Penalty>
0.000126075794634258

> <i_epik_Tot_Q>
-1

> <i_epik_Tot_abs_Q>
1

$$$$
