2q9m_ligand
                    3D
 Schrodinger Suite 2020-3.
 39 40  0  0  1  0            999 V2000
   17.9720   20.3850   26.5930 C   0  0  0  0  0  0
   18.7970   19.9090   25.3900 C   0  0  0  0  0  0
   18.3950   20.0660   24.0840 C   0  0  2  0  0  0
   18.3260   18.8940   23.2360 C   0  0  0  0  0  0
   18.5170   19.0910   22.0420 O   0  0  0  0  0  0
   18.1610   21.4930   23.5120 C   0  0  2  0  0  0
   18.1160   22.3270   24.7610 N   0  0  0  0  0  0
   17.6110   23.4400   24.3310 C   0  0  0  0  0  0
   17.9630   24.7810   24.9150 C   0  0  0  0  0  0
   18.2050   25.7790   24.2370 O   0  0  0  0  0  0
   18.0460   24.8750   26.1570 O   0  5  0  0  0  0
   16.7010   23.1810   23.4990 C   0  0  0  0  0  0
   16.5970   21.8100   23.3560 C   0  0  2  0  0  0
   15.5480   21.1780   24.2550 C   0  0  0  0  0  0
   14.1920   21.8680   24.0120 C   0  0  0  0  0  0
   14.3670   23.4220   24.0350 C   0  0  0  0  0  0
   15.5180   23.9520   23.1500 C   0  0  2  0  0  0
   15.1420   24.1130   21.7860 O   0  0  0  0  0  0
   14.8120   25.3970   22.0810 C   0  0  0  0  0  0
   18.5074   20.1439   27.5232 H   0  0  0  0  0  0
   16.9950   19.8796   26.5906 H   0  0  0  0  0  0
   17.8222   21.4728   26.5275 H   0  0  0  0  0  0
   19.7740   20.4144   25.3924 H   0  0  0  0  0  0
   18.9468   18.8212   25.4554 H   0  0  0  0  0  0
   17.7900   19.4671   24.7807 H   0  0  0  0  0  0
   18.1185   17.8767   23.5993 H   0  0  0  0  0  0
   18.8558   21.6325   22.6707 H   0  0  0  0  0  0
   18.4733   21.9099   25.7141 H   0  0  0  0  0  0
   16.1151   21.4815   22.4233 H   0  0  0  0  0  0
   15.4640   20.1060   24.0230 H   0  0  0  0  0  0
   15.8432   21.3034   25.3072 H   0  0  0  0  0  0
   13.7964   21.5641   23.0316 H   0  0  0  0  0  0
   13.4840   21.5731   24.8005 H   0  0  0  0  0  0
   13.4432   23.9003   23.6775 H   0  0  0  0  0  0
   14.5767   23.7522   25.0631 H   0  0  0  0  0  0
   15.8339   24.9989   23.2694 H   0  0  0  0  0  0
   14.4396   25.8973   21.1749 H   0  0  0  0  0  0
   15.7006   25.9275   22.4538 H   0  0  0  0  0  0
   14.0286   25.4061   22.8532 H   0  0  0  0  0  0
  1  2  1  0  0  0
  1 20  1  0  0  0
  1 21  1  0  0  0
  1 22  1  0  0  0
  2  3  1  0  0  0
  2 23  1  0  0  0
  2 24  1  0  0  0
  3  4  1  0  0  0
  3  6  1  0  0  0
  3 25  1  0  0  0
  4  5  2  0  0  0
  4 26  1  0  0  0
  6  7  1  0  0  0
  6 13  1  0  0  0
  6 27  1  0  0  0
  7  8  1  0  0  0
  7 28  1  0  0  0
  8  9  1  0  0  0
  8 12  2  0  0  0
  9 10  2  0  0  0
  9 11  1  0  0  0
 12 13  1  0  0  0
 12 17  1  0  0  0
 13 14  1  0  0  0
 13 29  1  0  0  0
 14 15  1  0  0  0
 14 30  1  0  0  0
 14 31  1  0  0  0
 15 16  1  0  0  0
 15 32  1  0  0  0
 15 33  1  0  0  0
 16 17  1  0  0  0
 16 34  1  0  0  0
 16 35  1  0  0  0
 17 18  1  0  0  0
 17 36  1  0  0  0
 18 19  1  0  0  0
 19 37  1  0  0  0
 19 38  1  0  0  0
 19 39  1  0  0  0
M  CHG  1  11  -1
M  END
> <s_m_source_file>
../2q9m_ligand.sdf

> <i_m_source_file_index>
1

> <s_epik_input>
Tz1DKFtPSF0pQz0xW05IXVtDQEBIXShbQ0BASF0oW0NIXT1PKVtDSDJdW0NIM10pW0NASF0oQzEyKVtDSDJdW0NIMl1bQ0gyXVtDQEBIXTJPW0NIM10=

> <s_epik_cmdline>
J2VwaWtfYXBwJywgJy1pbWFlJywgJ2xpZ2FuZF9wcm8ubWFlJywgJy1vbWFlJywgJ2xpZ2FuZF9wcmVwLm1hZScsICctbXMnLCAnMScsICctcGgnLCAnNycsICctcGh0JywgJzAuNScsICctbnQn

> <r_lp_tautomer_probability>
1

> <r_epik_Ionization_Penalty>
  0.0075

> <r_epik_Ionization_Penalty_Charging>
  0.0000

> <r_epik_Ionization_Penalty_Neutral>
  0.0075

> <r_epik_State_Penalty>
 -0.0000

> <r_epik_Charging_Adjusted_Penalty>
1.96807194444173e-05

> <i_epik_Tot_Q>
-1

> <i_epik_Tot_abs_Q>
1

> <s_epik_Chemistry_Notes>
This compound has an imine and may undergo hydrolysis.

$$$$
