2q9n_ligand
                    3D
 Schrodinger Suite 2020-3.
 48 49  0  0  1  0            999 V2000
   23.0400   26.7730   22.1710 C   0  0  0  0  0  0
   23.4100   26.8730   23.5330 C   0  0  0  0  0  0
   22.1440   27.0040   24.3280 C   0  0  0  0  0  0
   21.8040   25.7580   25.1140 C   0  0  0  0  0  0
   20.8580   24.9690   24.3830 O   0  0  0  0  0  0
   21.2150   23.5570   24.2660 C   0  0  2  0  0  0
   21.8080   23.3350   22.8880 C   0  0  0  0  0  0
   20.7310   23.1830   21.8550 C   0  0  0  0  0  0
   19.9620   21.8930   22.0840 C   0  0  0  0  0  0
   19.1650   21.9470   23.3790 C   0  0  2  0  0  0
   19.9570   22.7280   24.4090 C   0  0  0  0  0  0
   19.2630   22.3590   25.6220 C   0  0  0  0  0  0
   19.5880   22.8470   26.9670 C   0  0  0  0  0  0
   19.8380   24.1190   27.1160 O   0  5  0  0  0  0
   19.6240   22.0050   27.9000 O   0  0  0  0  0  0
   18.7460   21.1110   25.5230 N   0  0  0  0  0  0
   18.7930   20.6500   24.1370 C   0  0  2  0  0  0
   19.7060   19.4530   23.9720 C   0  0  1  0  0  0
   20.5530   19.0390   25.0430 C   0  0  0  0  0  0
   21.9610   19.6090   25.4440 C   0  0  0  0  0  0
   19.4250   18.4390   22.9220 C   0  0  0  0  0  0
   19.2840   18.7480   21.7540 O   0  0  0  0  0  0
   23.9439   26.6750   21.5518 H   0  0  0  0  0  0
   22.4881   27.6769   21.8737 H   0  0  0  0  0  0
   22.4005   25.8894   22.0287 H   0  0  0  0  0  0
   23.9619   25.9691   23.8303 H   0  0  0  0  0  0
   24.0496   27.7566   23.6753 H   0  0  0  0  0  0
   22.2452   27.8322   25.0448 H   0  0  0  0  0  0
   21.3036   27.2081   23.6482 H   0  0  0  0  0  0
   22.7180   25.1692   25.2812 H   0  0  0  0  0  0
   21.3692   26.0432   26.0833 H   0  0  0  0  0  0
   21.9370   23.3020   25.0558 H   0  0  0  0  0  0
   22.4370   24.1956   22.6165 H   0  0  0  0  0  0
   22.4202   22.4211   22.8951 H   0  0  0  0  0  0
   20.0360   24.0330   21.9221 H   0  0  0  0  0  0
   21.1846   23.1585   20.8532 H   0  0  0  0  0  0
   19.2637   21.7294   21.2499 H   0  0  0  0  0  0
   20.6674   21.0510   22.1421 H   0  0  0  0  0  0
   18.2298   22.3850   23.0002 H   0  0  0  0  0  0
   17.8446   20.2202   23.7823 H   0  0  0  0  0  0
   20.5422   20.0097   23.5238 H   0  0  0  0  0  0
   20.0256   19.1705   25.9993 H   0  0  0  0  0  0
   20.8174   17.9792   24.9128 H   0  0  0  0  0  0
   22.3417   19.0631   26.3198 H   0  0  0  0  0  0
   21.8677   20.6771   25.6898 H   0  0  0  0  0  0
   22.6594   19.4859   24.6031 H   0  0  0  0  0  0
   19.3453   17.3847   23.2255 H   0  0  0  0  0  0
   18.3291   20.4598   26.3054 H   0  0  0  0  0  0
  1  2  1  0  0  0
  1 23  1  0  0  0
  1 24  1  0  0  0
  1 25  1  0  0  0
  2  3  1  0  0  0
  2 26  1  0  0  0
  2 27  1  0  0  0
  3  4  1  0  0  0
  3 28  1  0  0  0
  3 29  1  0  0  0
  4  5  1  0  0  0
  4 30  1  0  0  0
  4 31  1  0  0  0
  5  6  1  0  0  0
  6  7  1  0  0  0
  6 11  1  0  0  0
  6 32  1  0  0  0
  7  8  1  0  0  0
  7 33  1  0  0  0
  7 34  1  0  0  0
  8  9  1  0  0  0
  8 35  1  0  0  0
  8 36  1  0  0  0
  9 10  1  0  0  0
  9 37  1  0  0  0
  9 38  1  0  0  0
 10 11  1  0  0  0
 10 17  1  0  0  0
 10 39  1  0  0  0
 11 12  2  0  0  0
 12 13  1  0  0  0
 12 16  1  0  0  0
 13 14  1  0  0  0
 13 15  2  0  0  0
 16 17  1  0  0  0
 16 48  1  0  0  0
 17 18  1  0  0  0
 17 40  1  0  0  0
 18 19  1  0  0  0
 18 21  1  0  0  0
 18 41  1  0  0  0
 19 20  1  0  0  0
 19 42  1  0  0  0
 19 43  1  0  0  0
 20 44  1  0  0  0
 20 45  1  0  0  0
 20 46  1  0  0  0
 21 22  2  0  0  0
 21 47  1  0  0  0
M  CHG  1  14  -1
M  END
> <s_m_source_file>
../2q9n_ligand.sdf

> <i_m_source_file_index>
1

> <s_epik_input>
W0NIM11bQ0gyXVtDSDJdW0NIMl1PW0NASF0oW0NIMl1bQ0gyXVtDSDJdMSlbQ0hdKFtDQEBIXTEyKUMoQyg9TylbT0hdKT1OW0NAQEhdMltDQEhdKFtDSF09TylbQ0gyXVtDSDNd

> <s_epik_cmdline>
J2VwaWtfYXBwJywgJy1pbWFlJywgJ2xpZ2FuZF9wcm8ubWFlJywgJy1vbWFlJywgJ2xpZ2FuZF9wcmVwLm1hZScsICctbXMnLCAnMScsICctcGgnLCAnNycsICctcGh0JywgJzAuNScsICctbnQn

> <r_lp_tautomer_probability>
0.99990000499975

> <r_epik_Ionization_Penalty>
  0.0123

> <r_epik_Ionization_Penalty_Charging>
  0.0000

> <r_epik_Ionization_Penalty_Neutral>
  0.0123

> <r_epik_State_Penalty>
  0.0003

> <r_epik_Charging_Adjusted_Penalty>
0.000372548490041771

> <i_epik_Tot_Q>
-1

> <i_epik_Tot_abs_Q>
1

> <s_epik_Chemistry_Notes>
This compound has an imine and may undergo hydrolysis.

$$$$
