2q9y_ligand
                    3D
 Schrodinger Suite 2020-3.
 36 36  0  0  1  0            999 V2000
  -39.6830   -3.0680   15.8930 N   0  3  0  0  0  0
  -40.5330   -2.4500   14.7200 C   0  0  0  0  0  0
  -40.5870   -3.5210   17.0960 C   0  0  0  0  0  0
  -41.2090   -4.9480   17.0920 C   0  0  0  0  0  0
  -38.7370   -1.9680   16.4410 C   0  0  0  0  0  0
  -39.3560   -0.6670   17.0100 C   0  0  0  0  0  0
  -38.7970   -4.2710   15.4800 C   0  0  0  0  0  0
  -37.8150   -4.0700   14.3130 C   0  0  0  0  0  0
  -41.6120   -3.2600   13.9910 C   0  0  0  0  0  0
  -42.9290   -2.7120   13.8810 C   0  0  0  0  0  0
  -43.9710   -3.4160   13.2280 C   0  0  0  0  0  0
  -43.7150   -4.6900   12.6700 C   0  0  0  0  0  0
  -42.4150   -5.2590   12.7620 C   0  0  0  0  0  0
  -41.3790   -4.5510   13.4140 C   0  0  0  0  0  0
  -41.0877   -1.5754   15.0905 H   0  0  0  0  0  0
  -39.8624   -2.1405   13.9048 H   0  0  0  0  0  0
  -40.0038   -3.4822   18.0278 H   0  0  0  0  0  0
  -41.4533   -2.8480   17.1774 H   0  0  0  0  0  0
  -41.8066   -5.0901   18.0046 H   0  0  0  0  0  0
  -40.4052   -5.6982   17.0595 H   0  0  0  0  0  0
  -41.8548   -5.0640   16.2091 H   0  0  0  0  0  0
  -38.1401   -2.3771   17.2695 H   0  0  0  0  0  0
  -38.0658   -1.6284   15.6384 H   0  0  0  0  0  0
  -38.5528    0.0015   17.3534 H   0  0  0  0  0  0
  -40.0145   -0.9137   17.8559 H   0  0  0  0  0  0
  -39.9402   -0.1650   16.2247 H   0  0  0  0  0  0
  -38.1727   -4.5764   16.3327 H   0  0  0  0  0  0
  -39.4383   -5.1113   15.1756 H   0  0  0  0  0  0
  -37.2594   -5.0028   14.1365 H   0  0  0  0  0  0
  -37.1089   -3.2643   14.5626 H   0  0  0  0  0  0
  -38.3745   -3.7992   13.4055 H   0  0  0  0  0  0
  -43.1354   -1.7311   14.3091 H   0  0  0  0  0  0
  -44.9662   -2.9772   13.1560 H   0  0  0  0  0  0
  -44.5145   -5.2360   12.1692 H   0  0  0  0  0  0
  -42.2173   -6.2401   12.3303 H   0  0  0  0  0  0
  -40.3857   -4.9950   13.4789 H   0  0  0  0  0  0
  1  2  1  0  0  0
  1  3  1  0  0  0
  1  5  1  0  0  0
  1  7  1  0  0  0
  2  9  1  0  0  0
  2 15  1  0  0  0
  2 16  1  0  0  0
  3  4  1  0  0  0
  3 17  1  0  0  0
  3 18  1  0  0  0
  4 19  1  0  0  0
  4 20  1  0  0  0
  4 21  1  0  0  0
  5  6  1  0  0  0
  5 22  1  0  0  0
  5 23  1  0  0  0
  6 24  1  0  0  0
  6 25  1  0  0  0
  6 26  1  0  0  0
  7  8  1  0  0  0
  7 27  1  0  0  0
  7 28  1  0  0  0
  8 29  1  0  0  0
  8 30  1  0  0  0
  8 31  1  0  0  0
  9 10  2  0  0  0
  9 14  1  0  0  0
 10 11  1  0  0  0
 10 32  1  0  0  0
 11 12  2  0  0  0
 11 33  1  0  0  0
 12 13  1  0  0  0
 12 34  1  0  0  0
 13 14  2  0  0  0
 13 35  1  0  0  0
 14 36  1  0  0  0
M  CHG  1   1   1
M  END
> <s_m_source_file>
../2q9y_ligand.sdf

> <i_m_source_file_index>
1

> <s_epik_input>
W0NIM11bQ0gyXVtOK10oW0NIMl1bQ0gzXSkoW0NIMl1bQ0gzXSlbQ0gyXWMxW2NIXVtjSF1bY0hdW2NIXVtjSF0x

> <s_epik_cmdline>
J2VwaWtfYXBwJywgJy1pbWFlJywgJ2xpZ2FuZF9wcm8ubWFlJywgJy1vbWFlJywgJ2xpZ2FuZF9wcmVwLm1hZScsICctbXMnLCAnMScsICctcGgnLCAnNycsICctcGh0JywgJzAuNScsICctbnQn

> <r_lp_tautomer_probability>
1

> <r_epik_Ionization_Penalty>
  0.0000

> <r_epik_Ionization_Penalty_Charging>
  0.0000

> <r_epik_Ionization_Penalty_Neutral>
  0.0000

> <r_epik_State_Penalty>
 -0.0000

> <r_epik_Charging_Adjusted_Penalty>
0

> <i_epik_Tot_Q>
1

> <i_epik_Tot_abs_Q>
1

$$$$
