2qaf_ligand
                    3D
 Schrodinger Suite 2020-3.
 32 33  0  0  1  0            999 V2000
   23.8020  -31.9150  -31.3760 N   0  0  0  0  0  0
   23.7300  -33.1870  -31.7920 C   0  0  0  0  0  0
   22.6930  -33.6280  -32.5120 N   0  0  0  0  0  0
   21.7190  -32.7760  -32.8460 C   0  0  0  0  0  0
   21.7050  -31.4650  -32.4190 C   0  0  0  0  0  0
   22.7990  -31.0610  -31.6700 C   0  0  0  0  0  0
   24.5970  -34.0320  -31.5010 O   0  0  0  0  0  0
   20.7890  -33.1930  -33.5190 O   0  0  0  0  0  0
   24.9990  -31.4630  -30.6650 C   0  0  1  0  0  0
   25.5080  -32.0950  -29.3890 C   0  0  2  0  0  0
   24.9780  -31.1900  -28.4020 O   0  0  0  0  0  0
   27.0030  -31.8810  -29.5780 C   0  0  1  0  0  0
   27.2580  -32.0670  -31.0660 C   0  0  2  0  0  0
   27.3500  -30.5020  -29.3350 O   0  0  0  0  0  0
   26.0310  -31.6040  -31.6510 O   0  0  0  0  0  0
   27.5930  -33.5280  -31.3950 C   0  0  0  0  0  0
   28.9420  -33.7680  -30.9910 O   0  0  0  0  0  0
   29.6440  -35.2220  -30.9500 P   0  0  0  0  0  0
   30.5380  -35.1180  -29.7520 O   0  5  0  0  0  0
   28.6010  -36.2660  -30.7780 O   0  0  0  0  0  0
   30.4060  -35.3400  -32.2500 O   0  5  0  0  0  0
   22.6480  -34.6822  -32.8230 H   0  0  0  0  0  0
   20.8842  -30.7881  -32.6559 H   0  0  0  0  0  0
   22.8504  -30.0330  -31.3112 H   0  0  0  0  0  0
   24.7167  -30.4576  -30.3195 H   0  0  0  0  0  0
   25.2400  -33.1242  -29.1080 H   0  0  0  0  0  0
   23.9079  -31.2175  -28.1489 H   0  0  0  0  0  0
   27.5827  -32.5166  -28.8925 H   0  0  0  0  0  0
   28.0891  -31.4786  -31.4819 H   0  0  0  0  0  0
   27.2607  -30.0827  -28.3220 H   0  0  0  0  0  0
   26.9071  -34.1931  -30.8499 H   0  0  0  0  0  0
   27.4830  -33.6948  -32.4767 H   0  0  0  0  0  0
  1  2  1  0  0  0
  1  6  1  0  0  0
  1  9  1  0  0  0
  2  3  1  0  0  0
  2  7  2  0  0  0
  3  4  1  0  0  0
  3 22  1  0  0  0
  4  5  1  0  0  0
  4  8  2  0  0  0
  5  6  2  0  0  0
  5 23  1  0  0  0
  6 24  1  0  0  0
  9 10  1  0  0  0
  9 15  1  0  0  0
  9 25  1  0  0  0
 10 11  1  0  0  0
 10 12  1  0  0  0
 10 26  1  0  0  0
 11 27  1  0  0  0
 12 13  1  0  0  0
 12 14  1  0  0  0
 12 28  1  0  0  0
 13 15  1  0  0  0
 13 16  1  0  0  0
 13 29  1  0  0  0
 14 30  1  0  0  0
 16 17  1  0  0  0
 16 31  1  0  0  0
 16 32  1  0  0  0
 17 18  1  0  0  0
 18 19  1  0  0  0
 18 20  2  0  0  0
 18 21  1  0  0  0
M  CHG  2  19  -1  21  -1
M  END
> <s_m_source_file>
../2qaf_ligand.sdf

> <i_m_source_file_index>
1

> <s_epik_input>
W2NIXTFbY0hdYyg9TylbbkhdYyg9TyluMVtDQEhdMltDQEhdKFtPSF0pW0NASF0oW09IXSlbQ0BIXShPMilbQ0gyXU9QKD1PKShbT0hdKVtPSF0=

> <s_epik_cmdline>
J2VwaWtfYXBwJywgJy1pbWFlJywgJ2xpZ2FuZF9wcm8ubWFlJywgJy1vbWFlJywgJ2xpZ2FuZF9wcmVwLm1hZScsICctbXMnLCAnMScsICctcGgnLCAnNycsICctcGh0JywgJzAuNScsICctbnQn

> <r_lp_tautomer_probability>
0.999537046341301

> <r_epik_Ionization_Penalty>
  0.1082

> <r_epik_Ionization_Penalty_Charging>
  0.1082

> <r_epik_Ionization_Penalty_Neutral>
  0.0000

> <r_epik_State_Penalty>
  0.0955

> <r_epik_Charging_Adjusted_Penalty>
0.203721441546161

> <i_epik_Tot_Q>
-2

> <i_epik_Tot_abs_Q>
2

> <s_epik_Chemistry_Notes>
This compound contains an acetal/aminal-like group ( X-CH(R)-Y where X, Y are N, S, or O) that may be acid/base labile, releasing an aldehyde.

$$$$
