2qbx_ligand
                    3D
 Schrodinger Suite 2020-3.
190193  0  0  1  0            999 V2000
   -8.0910   15.9390  -16.0130 N   0  3  0  0  0  0
   -6.6430   15.6090  -16.1810 C   0  0  2  0  0  0
   -6.2790   14.3460  -15.4010 C   0  0  0  0  0  0
   -7.0830   13.8160  -14.6410 O   0  0  0  0  0  0
   -5.7390   16.8010  -15.7870 C   0  0  0  0  0  0
   -5.9960   17.2450  -14.4640 O   0  0  0  0  0  0
   -5.0890   13.8280  -15.6460 N   0  0  0  0  0  0
   -4.6450   12.6210  -14.9860 C   0  0  2  0  0  0
   -5.5390   11.3700  -15.2090 C   0  0  0  0  0  0
   -5.7980   10.6180  -14.2540 O   0  0  0  0  0  0
   -4.4280   12.9320  -13.5030 C   0  0  0  0  0  0
   -3.2450   13.8200  -13.2970 C   0  0  0  0  0  0
   -2.2130   13.5770  -13.8830 O   0  0  0  0  0  0
   -3.3740   14.8410  -12.4520 N   0  0  0  0  0  0
   -5.9480   11.1260  -16.4650 N   0  0  0  0  0  0
   -6.8220   10.0070  -16.8160 C   0  0  2  0  0  0
   -6.0560    8.6950  -16.9180 C   0  0  0  0  0  0
   -6.6150    7.6540  -17.2380 O   0  0  0  0  0  0
   -7.5570   10.2580  -18.1500 C   0  0  0  0  0  0
   -8.5020   11.4480  -18.1410 C   0  0  0  0  0  0
   -7.7830   12.8200  -18.1640 C   0  0  0  0  0  0
   -6.5610   12.9010  -18.4570 O   0  0  0  0  0  0
   -8.4580   13.8340  -17.9040 O   0  0  0  0  0  0
   -4.7670    8.7530  -16.6900 N   0  0  0  0  0  0
   -3.9210    7.5630  -16.6080 C   0  0  2  0  0  0
   -3.9910    6.8280  -15.2430 C   0  0  0  0  0  0
   -3.4020    5.7500  -15.1120 O   0  0  0  0  0  0
   -2.4640    7.9470  -16.8970 C   0  0  0  0  0  0
   -1.9290    8.9540  -15.8900 C   0  0  0  0  0  0
   -1.9960   10.3030  -15.9970 C   0  0  0  0  0  0
   -1.3010    8.6890  -14.6260 C   0  0  0  0  0  0
   -1.4220   10.8980  -14.9000 N   0  0  0  0  0  0
   -0.9920    9.9380  -14.0420 C   0  0  0  0  0  0
   -0.9470    7.5280  -13.9390 C   0  0  0  0  0  0
   -0.3750   10.0550  -12.7870 C   0  0  0  0  0  0
   -0.3060    7.6420  -12.7280 C   0  0  0  0  0  0
   -0.0270    8.9000  -12.1580 C   0  0  0  0  0  0
   -4.6560    7.4220  -14.2460 N   0  0  0  0  0  0
   -4.8270    6.7920  -12.9380 C   0  0  2  0  0  0
   -6.1170    5.9810  -12.9720 C   0  0  0  0  0  0
   -7.2140    6.5360  -13.0440 O   0  0  0  0  0  0
   -4.9600    7.8090  -11.7520 C   0  0  2  0  0  0
   -3.7990    8.7950  -11.6990 C   0  0  0  0  0  0
   -5.0410    7.0410  -10.4050 C   0  0  0  0  0  0
   -3.9600    9.8460  -10.6740 C   0  0  0  0  0  0
   -6.0010    4.6700  -12.8750 N   0  0  0  0  0  0
   -7.1660    3.8180  -13.1160 C   0  0  2  0  0  0
   -7.9840    3.6200  -11.8660 C   0  0  0  0  0  0
   -7.4200    3.3590  -10.8050 O   0  0  0  0  0  0
   -6.7080    2.4540  -13.6330 C   0  0  0  0  0  0
   -5.7520    2.6070  -14.7900 C   0  0  0  0  0  0
   -4.3360    2.2940  -14.4020 C   0  0  0  0  0  0
   -3.7610    2.8040  -13.3690 O   0  0  0  0  0  0
   -3.7250    1.4500  -15.2380 N   0  0  0  0  0  0
   -9.3110    3.7160  -11.9830 N   0  0  0  0  0  0
  -10.1190    3.3440  -10.8380 C   0  0  2  0  0  0
   -9.8400    1.9060  -10.4200 C   0  0  0  0  0  0
   -9.7110    1.0580  -11.2750 O   0  0  0  0  0  0
  -11.5370    3.4850  -11.3600 C   0  0  0  0  0  0
  -11.4060    4.4820  -12.4760 C   0  0  0  0  0  0
  -10.1430    4.1270  -13.1230 C   0  0  0  0  0  0
   -9.6800    1.6690   -9.1250 N   0  0  0  0  0  0
   -9.7720    0.3130   -8.5920 C   0  0  2  0  0  0
  -11.2130   -0.0430   -8.4770 C   0  0  0  0  0  0
  -12.0730    0.7780   -8.1010 O   0  0  0  0  0  0
   -9.1900    0.1370   -7.2010 C   0  0  0  0  0  0
   -7.7360    0.0060   -7.1650 C   0  0  0  0  0  0
   -7.1060    1.4010   -7.0600 C   0  0  0  0  0  0
   -5.7360    1.4220   -7.5730 N   0  0  0  0  0  0
   -4.6390    1.5090   -6.8300 C   0  0  0  0  0  0
   -4.7250    1.5870   -5.5040 N   0  0  0  0  0  0
   -3.4410    1.5290   -7.4450 N   0  0  0  0  0  0
  -11.4680   -1.3130   -8.6800 N   0  0  0  0  0  0
  -12.7940   -1.8470   -8.8060 C   0  0  2  0  0  0
  -13.1330   -2.6480   -7.5700 C   0  0  0  0  0  0
  -12.2670   -3.3290   -7.0610 O   0  0  0  0  0  0
  -12.7320   -2.7840   -9.9570 C   0  0  0  0  0  0
  -13.8100   -2.8390  -10.9730 C   0  0  0  0  0  0
  -13.3160   -1.9930  -12.0450 C   0  0  0  0  0  0
  -13.8520   -4.2890  -11.3920 C   0  0  0  0  0  0
  -14.3940   -2.5940   -7.1180 N   0  0  0  0  0  0
  -14.7850   -3.1440   -5.8010 C   0  0  2  0  0  0
  -14.4660   -4.6320   -5.6190 C   0  0  0  0  0  0
  -14.6800   -5.4580   -6.5450 O   0  0  0  0  0  0
  -16.2940   -2.8640   -5.7160 C   0  0  0  0  0  0
  -16.5180   -1.7330   -6.6580 C   0  0  0  0  0  0
  -15.5580   -1.9850   -7.7920 C   0  0  0  0  0  0
  -14.0230   -4.9410   -4.3900 N   0  0  0  0  0  0
  -12.9100   -5.8680   -4.1410 C   0  0  2  0  0  0
  -13.2170   -7.0700   -3.1930 C   0  0  0  0  0  0
  -13.8250   -6.9300   -2.1080 O   0  0  0  0  0  0
  -11.7440   -5.0120   -3.5940 C   0  0  0  0  0  0
  -11.0380   -4.1750   -4.6630 C   0  0  0  0  0  0
  -10.7970   -2.6960   -4.3000 C   0  0  0  0  0  0
  -11.7500   -1.9040   -4.2340 O   0  0  0  0  0  0
   -9.5410   -2.3340   -4.0210 N   0  0  0  0  0  0
   -8.7009   15.0703  -16.3018 H   0  0  0  0  0  0
   -8.3482   16.7965  -16.6522 H   0  0  0  0  0  0
   -8.2895   16.1931  -14.9613 H   0  0  0  0  0  0
   -6.4994   15.4023  -17.2518 H   0  0  0  0  0  0
   -4.6836   16.4972  -15.8496 H   0  0  0  0  0  0
   -5.9200   17.6411  -16.4736 H   0  0  0  0  0  0
   -5.4264   18.0884  -14.0465 H   0  0  0  0  0  0
   -4.4313   14.3336  -16.3684 H   0  0  0  0  0  0
   -3.6959   12.3949  -15.4940 H   0  0  0  0  0  0
   -5.3176   13.4386  -13.1006 H   0  0  0  0  0  0
   -4.2595   11.9946  -12.9526 H   0  0  0  0  0  0
   -4.3342   15.0176  -11.9453 H   0  0  0  0  0  0
   -2.5203   15.5078  -12.2607 H   0  0  0  0  0  0
   -5.5951   11.8145  -17.2469 H   0  0  0  0  0  0
   -7.5260    9.9619  -15.9720 H   0  0  0  0  0  0
   -6.8201   10.4436  -18.9453 H   0  0  0  0  0  0
   -8.1604    9.3752  -18.4080 H   0  0  0  0  0  0
   -9.1526   11.4063  -19.0270 H   0  0  0  0  0  0
   -9.1194   11.4190  -17.2311 H   0  0  0  0  0  0
   -6.0623   13.8814  -18.4697 H   0  0  0  0  0  0
   -4.3255    9.7518  -16.5580 H   0  0  0  0  0  0
   -4.3434    6.9079  -17.3841 H   0  0  0  0  0  0
   -1.8320    7.0478  -16.8521 H   0  0  0  0  0  0
   -2.3946    8.3942  -17.8996 H   0  0  0  0  0  0
   -2.4419   10.8397  -16.8344 H   0  0  0  0  0  0
   -1.1747    6.5467  -14.3552 H   0  0  0  0  0  0
   -0.1830   11.0286  -12.3360 H   0  0  0  0  0  0
   -0.0068    6.7385  -12.1967 H   0  0  0  0  0  0
    0.4780    8.9488  -11.1933 H   0  0  0  0  0  0
   -5.0814    8.4184  -14.4364 H   0  0  0  0  0  0
   -3.9171    6.1844  -12.8246 H   0  0  0  0  0  0
   -5.8688    8.4076  -11.9123 H   0  0  0  0  0  0
   -2.8688    8.2542  -11.4705 H   0  0  0  0  0  0
   -3.7008    9.2985  -12.6721 H   0  0  0  0  0  0
   -5.8780    6.3281  -10.4392 H   0  0  0  0  0  0
   -5.2015    7.7558   -9.5845 H   0  0  0  0  0  0
   -4.1009    6.4950  -10.2371 H   0  0  0  0  0  0
   -3.0878   10.5160  -10.6957 H   0  0  0  0  0  0
   -4.0400    9.3802   -9.6807 H   0  0  0  0  0  0
   -4.8721   10.4246  -10.8822 H   0  0  0  0  0  0
   -5.0330    4.2173  -12.6141 H   0  0  0  0  0  0
   -7.7769    4.3568  -13.8552 H   0  0  0  0  0  0
   -6.1992    1.9077  -12.8251 H   0  0  0  0  0  0
   -7.5818    1.8779  -13.9715 H   0  0  0  0  0  0
   -6.0435    1.9217  -15.5995 H   0  0  0  0  0  0
   -5.7840    3.6433  -15.1576 H   0  0  0  0  0  0
   -4.2676    1.0458  -16.1053 H   0  0  0  0  0  0
   -2.6793    1.1593  -15.0591 H   0  0  0  0  0  0
   -9.8899    3.9843   -9.9734 H   0  0  0  0  0  0
  -11.8964    2.5074  -11.7136 H   0  0  0  0  0  0
  -12.1909    3.8458  -10.5524 H   0  0  0  0  0  0
  -12.2630    4.3830  -13.1585 H   0  0  0  0  0  0
  -11.3856    5.4994  -12.0583 H   0  0  0  0  0  0
   -9.6697    4.9782  -13.6344 H   0  0  0  0  0  0
  -10.2431    3.2867  -13.8257 H   0  0  0  0  0  0
   -9.4752    2.5127   -8.4496 H   0  0  0  0  0  0
   -9.2050   -0.2962   -9.3113 H   0  0  0  0  0  0
   -9.4479    1.0094   -6.5826 H   0  0  0  0  0  0
   -9.6045   -0.7729   -6.7425 H   0  0  0  0  0  0
   -7.4437   -0.5975   -6.2930 H   0  0  0  0  0  0
   -7.3894   -0.4872   -8.0851 H   0  0  0  0  0  0
   -7.7028    2.1177   -7.6433 H   0  0  0  0  0  0
   -7.0835    1.7148   -6.0060 H   0  0  0  0  0  0
   -5.5533    1.3631   -8.6561 H   0  0  0  0  0  0
   -5.7101    1.5695   -5.0148 H   0  0  0  0  0  0
   -3.3846    1.4638   -8.5416 H   0  0  0  0  0  0
   -2.5190    1.6106   -6.8507 H   0  0  0  0  0  0
  -10.5969   -1.9807   -8.7532 H   0  0  0  0  0  0
  -13.5104   -1.0248   -8.9501 H   0  0  0  0  0  0
  -11.8350   -2.5696  -10.5564 H   0  0  0  0  0  0
  -12.6862   -3.8184   -9.5857 H   0  0  0  0  0  0
  -14.8038   -2.4824  -10.6645 H   0  0  0  0  0  0
  -13.2982   -0.9462  -11.7074 H   0  0  0  0  0  0
  -13.9773   -2.0852  -12.9192 H   0  0  0  0  0  0
  -12.2983   -2.3068  -12.3204 H   0  0  0  0  0  0
  -14.2297   -4.9005  -10.5593 H   0  0  0  0  0  0
  -12.8389   -4.6222  -11.6616 H   0  0  0  0  0  0
  -14.5179   -4.4006  -12.2604 H   0  0  0  0  0  0
  -14.1889   -2.6531   -5.0176 H   0  0  0  0  0  0
  -16.8513   -3.7637   -6.0159 H   0  0  0  0  0  0
  -16.5595   -2.5956   -4.6828 H   0  0  0  0  0  0
  -17.5640   -1.7410   -6.9984 H   0  0  0  0  0  0
  -16.3062   -0.7824   -6.1466 H   0  0  0  0  0  0
  -15.2467   -1.0574   -8.2947 H   0  0  0  0  0  0
  -15.9601   -2.6882   -8.5362 H   0  0  0  0  0  0
  -14.5384   -4.4608   -3.5451 H   0  0  0  0  0  0
  -12.7102   -6.3251   -5.1214 H   0  0  0  0  0  0
  -12.8780   -8.0677   -3.5088 H   0  0  0  0  0  0
  -12.1261   -4.3152   -2.8334 H   0  0  0  0  0  0
  -10.9871   -5.6696   -3.1416 H   0  0  0  0  0  0
  -10.0483   -4.6071   -4.8725 H   0  0  0  0  0  0
  -11.6397   -4.1732   -5.5838 H   0  0  0  0  0  0
   -8.7274   -3.0707   -4.0931 H   0  0  0  0  0  0
   -9.3210   -1.2993   -3.7193 H   0  0  0  0  0  0
  1  2  1  0  0  0
  1 97  1  0  0  0
  1 98  1  0  0  0
  1 99  1  0  0  0
  2  3  1  0  0  0
  2  5  1  0  0  0
  2100  1  0  0  0
  3  4  2  0  0  0
  3  7  1  0  0  0
  5  6  1  0  0  0
  5101  1  0  0  0
  5102  1  0  0  0
  6103  1  0  0  0
  7  8  1  0  0  0
  7104  1  0  0  0
  8  9  1  0  0  0
  8 11  1  0  0  0
  8105  1  0  0  0
  9 10  2  0  0  0
  9 15  1  0  0  0
 11 12  1  0  0  0
 11106  1  0  0  0
 11107  1  0  0  0
 12 13  2  0  0  0
 12 14  1  0  0  0
 14108  1  0  0  0
 14109  1  0  0  0
 15 16  1  0  0  0
 15110  1  0  0  0
 16 17  1  0  0  0
 16 19  1  0  0  0
 16111  1  0  0  0
 17 18  2  0  0  0
 17 24  1  0  0  0
 19 20  1  0  0  0
 19112  1  0  0  0
 19113  1  0  0  0
 20 21  1  0  0  0
 20114  1  0  0  0
 20115  1  0  0  0
 21 22  1  0  0  0
 21 23  2  0  0  0
 22116  1  0  0  0
 24 25  1  0  0  0
 24117  1  0  0  0
 25 26  1  0  0  0
 25 28  1  0  0  0
 25118  1  0  0  0
 26 27  2  0  0  0
 26 38  1  0  0  0
 28 29  1  0  0  0
 28119  1  0  0  0
 28120  1  0  0  0
 29 30  2  0  0  0
 29 31  1  0  0  0
 30 32  1  0  0  0
 30121  1  0  0  0
 31 33  2  0  0  0
 31 34  1  0  0  0
 32 33  1  0  0  0
 33 35  1  0  0  0
 34 36  2  0  0  0
 34122  1  0  0  0
 35 37  2  0  0  0
 35123  1  0  0  0
 36 37  1  0  0  0
 36124  1  0  0  0
 37125  1  0  0  0
 38 39  1  0  0  0
 38126  1  0  0  0
 39 40  1  0  0  0
 39 42  1  0  0  0
 39127  1  0  0  0
 40 41  2  0  0  0
 40 46  1  0  0  0
 42 43  1  0  0  0
 42 44  1  0  0  0
 42128  1  0  0  0
 43 45  1  0  0  0
 43129  1  0  0  0
 43130  1  0  0  0
 44131  1  0  0  0
 44132  1  0  0  0
 44133  1  0  0  0
 45134  1  0  0  0
 45135  1  0  0  0
 45136  1  0  0  0
 46 47  1  0  0  0
 46137  1  0  0  0
 47 48  1  0  0  0
 47 50  1  0  0  0
 47138  1  0  0  0
 48 49  2  0  0  0
 48 55  1  0  0  0
 50 51  1  0  0  0
 50139  1  0  0  0
 50140  1  0  0  0
 51 52  1  0  0  0
 51141  1  0  0  0
 51142  1  0  0  0
 52 53  2  0  0  0
 52 54  1  0  0  0
 54143  1  0  0  0
 54144  1  0  0  0
 55 56  1  0  0  0
 55 61  1  0  0  0
 56 57  1  0  0  0
 56 59  1  0  0  0
 56145  1  0  0  0
 57 58  2  0  0  0
 57 62  1  0  0  0
 59 60  1  0  0  0
 59146  1  0  0  0
 59147  1  0  0  0
 60 61  1  0  0  0
 60148  1  0  0  0
 60149  1  0  0  0
 61150  1  0  0  0
 61151  1  0  0  0
 62 63  1  0  0  0
 62152  1  0  0  0
 63 64  1  0  0  0
 63 66  1  0  0  0
 63153  1  0  0  0
 64 65  2  0  0  0
 64 73  1  0  0  0
 66 67  1  0  0  0
 66154  1  0  0  0
 66155  1  0  0  0
 67 68  1  0  0  0
 67156  1  0  0  0
 67157  1  0  0  0
 68 69  1  0  0  0
 68158  1  0  0  0
 68159  1  0  0  0
 69 70  1  0  0  0
 69160  1  0  0  0
 70 71  2  0  0  0
 70 72  1  0  0  0
 71161  1  0  0  0
 72162  1  0  0  0
 72163  1  0  0  0
 73 74  1  0  0  0
 73164  1  0  0  0
 74 75  1  0  0  0
 74 77  1  0  0  0
 74165  1  0  0  0
 75 76  2  0  0  0
 75 81  1  0  0  0
 77 78  1  0  0  0
 77166  1  0  0  0
 77167  1  0  0  0
 78 79  1  0  0  0
 78 80  1  0  0  0
 78168  1  0  0  0
 79169  1  0  0  0
 79170  1  0  0  0
 79171  1  0  0  0
 80172  1  0  0  0
 80173  1  0  0  0
 80174  1  0  0  0
 81 82  1  0  0  0
 81 87  1  0  0  0
 82 83  1  0  0  0
 82 85  1  0  0  0
 82175  1  0  0  0
 83 84  2  0  0  0
 83 88  1  0  0  0
 85 86  1  0  0  0
 85176  1  0  0  0
 85177  1  0  0  0
 86 87  1  0  0  0
 86178  1  0  0  0
 86179  1  0  0  0
 87180  1  0  0  0
 87181  1  0  0  0
 88 89  1  0  0  0
 88182  1  0  0  0
 89 90  1  0  0  0
 89 92  1  0  0  0
 89183  1  0  0  0
 90 91  2  0  0  0
 90184  1  0  0  0
 92 93  1  0  0  0
 92185  1  0  0  0
 92186  1  0  0  0
 93 94  1  0  0  0
 93187  1  0  0  0
 93188  1  0  0  0
 94 95  2  0  0  0
 94 96  1  0  0  0
 96189  1  0  0  0
 96190  1  0  0  0
M  CHG  1   1   1
M  END
> <s_m_source_file>
../2qbx_ligand.sdf

> <i_m_source_file_index>
1

> <s_epik_input>
W09IXVtDSDJdW0NASF0oW05IMytdKUMoPU8pW05IXVtDQEBIXShbQ0gyXUMoPU8pW05IMl0pQyg9TylbTkhdW0NAQEhdKFtDSDJdW0NIMl1DKD1PKVtPSF0pQyg9TylbTkhdW0NAQEhdKFtDSDJdYzFbY0hdW25IXWMoYzEyKVtjSF1bY0hdW2NIXVtjSF0yKUMoPU8pW05IXVtDQEBIXShbQ0BASF0oW0NIM10pW0NIMl1bQ0gzXSlDKD1PKVtOSF1bQ0BASF0oW0NIMl1bQ0gyXUMoPU8pW05IMl0pQyg9TylOM1tDQEBIXShbQ0gyXVtDSDJdW0NIMl0zKUMoPU8pW05IXVtDQEBIXShbQ0gyXVtDSDJdW0NIMl1bTkhdL0MoPU5cW0hdKVtOSDJdKUMoPU8pW05IXVtDQEBIXShbQ0gyXVtDSF0oW0NIM10pW0NIM10pQyg9TylONFtDQEBIXShbQ0gyXVtDSDJdW0NIMl00KUMoPU8pW05IXVtDQEhdKFtDSF09TylbQ0gyXVtDSDJdQyg9TylbTkgyXQ==

> <s_epik_cmdline>
J2VwaWtfYXBwJywgJy1pbWFlJywgJ2xpZ2FuZF9wcm8ubWFlJywgJy1vbWFlJywgJ2xpZ2FuZF9wcmVwLm1hZScsICctbXMnLCAnMScsICctcGgnLCAnNycsICctcGh0JywgJzAuNScsICctbnQn

> <s_epik_pKa_notes>
Molecule size exceeds maximum supported for generating protonation states

> <s_epik_Chemistry_Notes>
This compound has an imine and may undergo hydrolysis.

$$$$
