2qcd_ligand
                    3D
 Schrodinger Suite 2020-3.
 32 33  0  0  1  0            999 V2000
    5.2910    5.8290   26.1390 N   0  0  0  0  0  0
    4.5940    6.8840   25.5330 C   0  0  0  0  0  0
    4.0870    6.7260   24.3030 N   0  0  0  0  0  0
    4.2050    5.5850   23.6380 C   0  0  0  0  0  0
    4.8690    4.5360   24.2320 C   0  0  0  0  0  0
    5.4020    4.6740   25.4810 C   0  0  0  0  0  0
    4.4270    7.9780   26.1130 O   0  0  0  0  0  0
    3.7050    5.4560   22.5060 O   0  0  0  0  0  0
    5.8390    5.9170   27.5120 C   0  0  1  0  0  0
    6.9060    6.9900   27.7280 C   0  0  2  0  0  0
    8.2000    6.4570   27.4890 O   0  0  0  0  0  0
    6.7090    7.4060   29.1630 C   0  0  1  0  0  0
    5.2010    7.2440   29.3650 C   0  0  2  0  0  0
    7.4400    6.5520   30.0790 O   0  0  0  0  0  0
    4.7870    6.2190   28.4460 O   0  0  0  0  0  0
    4.4060    8.5190   29.0840 C   0  0  0  0  0  0
    4.6310    9.4360   30.1720 O   0  0  0  0  0  0
    3.8850   10.8540   30.3520 P   0  0  0  0  0  0
    4.7500   11.4630   31.4290 O   0  5  0  0  0  0
    3.8570   11.5040   29.0000 O   0  0  0  0  0  0
    2.5210   10.3990   30.8430 O   0  5  0  0  0  0
    3.5547    7.5567   23.8166 H   0  0  0  0  0  0
    4.9699    3.5890   23.7017 H   0  0  0  0  0  0
    5.9217    3.8350   25.9437 H   0  0  0  0  0  0
    6.2546    4.9135   27.6859 H   0  0  0  0  0  0
    6.8846    7.8390   27.0289 H   0  0  0  0  0  0
    8.4760    6.1142   26.4809 H   0  0  0  0  0  0
    7.1135    8.4047   29.3841 H   0  0  0  0  0  0
    4.9805    6.9402   30.3990 H   0  0  0  0  0  0
    8.5399    6.5462   30.0665 H   0  0  0  0  0  0
    4.7478    8.9630   28.1374 H   0  0  0  0  0  0
    3.3360    8.2750   29.0093 H   0  0  0  0  0  0
  1  2  1  0  0  0
  1  6  1  0  0  0
  1  9  1  0  0  0
  2  3  1  0  0  0
  2  7  2  0  0  0
  3  4  1  0  0  0
  3 22  1  0  0  0
  4  5  1  0  0  0
  4  8  2  0  0  0
  5  6  2  0  0  0
  5 23  1  0  0  0
  6 24  1  0  0  0
  9 10  1  0  0  0
  9 15  1  0  0  0
  9 25  1  0  0  0
 10 11  1  0  0  0
 10 12  1  0  0  0
 10 26  1  0  0  0
 11 27  1  0  0  0
 12 13  1  0  0  0
 12 14  1  0  0  0
 12 28  1  0  0  0
 13 15  1  0  0  0
 13 16  1  0  0  0
 13 29  1  0  0  0
 14 30  1  0  0  0
 16 17  1  0  0  0
 16 31  1  0  0  0
 16 32  1  0  0  0
 17 18  1  0  0  0
 18 19  1  0  0  0
 18 20  2  0  0  0
 18 21  1  0  0  0
M  CHG  2  19  -1  21  -1
M  END
> <s_m_source_file>
../2qcd_ligand.sdf

> <i_m_source_file_index>
1

> <s_epik_input>
W2NIXTFbY0hdYyg9TylbbkhdYyg9TyluMVtDQEhdMltDQEhdKFtPSF0pW0NASF0oW09IXSlbQ0BIXShPMilbQ0gyXU9QKD1PKShbT0hdKVtPSF0=

> <s_epik_cmdline>
J2VwaWtfYXBwJywgJy1pbWFlJywgJ2xpZ2FuZF9wcm8ubWFlJywgJy1vbWFlJywgJ2xpZ2FuZF9wcmVwLm1hZScsICctbXMnLCAnMScsICctcGgnLCAnNycsICctcGh0JywgJzAuNScsICctbnQn

> <r_lp_tautomer_probability>
0.999537046341301

> <r_epik_Ionization_Penalty>
  0.1082

> <r_epik_Ionization_Penalty_Charging>
  0.1082

> <r_epik_Ionization_Penalty_Neutral>
  0.0000

> <r_epik_State_Penalty>
  0.0955

> <r_epik_Charging_Adjusted_Penalty>
0.203721441546161

> <i_epik_Tot_Q>
-2

> <i_epik_Tot_abs_Q>
2

> <s_epik_Chemistry_Notes>
This compound contains an acetal/aminal-like group ( X-CH(R)-Y where X, Y are N, S, or O) that may be acid/base labile, releasing an aldehyde.

$$$$
