2qci_ligand
                    3D
 Schrodinger Suite 2020-3.
 76 80  0  0  1  0            999 V2000
   20.8400   27.7190   14.8590 C   0  0  0  0  0  0
   21.6910   28.7780   14.7140 O   0  0  0  0  0  0
   22.8830   28.3380   15.2960 C   0  0  0  0  0  0
   22.7950   27.0160   15.6590 O   0  0  0  0  0  0
   21.4950   26.6740   15.5020 C   0  0  0  0  0  0
   20.8310   25.4920   15.8160 C   0  0  0  0  0  0
   19.4920   25.4100   15.5140 C   0  0  0  0  0  0
   18.8300   26.4640   14.9140 C   0  0  0  0  0  0
   19.4910   27.6260   14.5510 C   0  0  0  0  0  0
   18.5740   23.9820   15.9900 S   0  0  0  0  0  0
   17.4610   23.8250   15.0450 O   0  0  0  0  0  0
   19.5680   22.8740   16.1660 O   0  0  0  0  0  0
   17.9300   24.2880   17.4810 N   0  0  1  0  0  0
   18.8760   24.6140   18.5330 C   0  0  0  0  0  0
   18.5550   23.9310   19.8740 C   0  0  0  0  0  0
   18.6020   22.4090   19.7060 C   0  0  0  0  0  0
   19.5810   24.3970   20.9050 C   0  0  0  0  0  0
   16.6630   24.9780   17.5220 C   0  0  0  0  0  0
   15.5430   24.0880   18.0700 C   0  0  1  0  0  0
   14.3940   24.9240   18.3420 O   0  0  0  0  0  0
   15.1500   22.9820   17.0800 C   0  0  1  0  0  0
   14.2320   22.0960   17.8230 N   0  0  0  0  0  0
   14.5290   20.8540   18.1790 C   0  0  0  0  0  0
   15.6110   20.2990   17.9270 O   0  0  0  0  0  0
   13.5420   20.2390   18.8530 O   0  0  0  0  0  0
   13.7100   18.8430   19.0980 C   0  0  1  0  0  0
   13.0490   18.5810   20.4530 C   0  0  0  0  0  0
   11.6250   18.6180   20.2230 O   0  0  0  0  0  0
   11.4250   18.0190   18.9200 C   0  0  1  0  0  0
   10.4990   18.8570   18.2260 O   0  0  0  0  0  0
   11.1900   19.5520   17.1940 C   0  0  0  0  0  0
   12.4200   18.7000   16.8530 C   0  0  0  0  0  0
   12.7440   18.0470   18.1970 C   0  0  1  0  0  0
   14.4090   23.5000   15.8530 C   0  0  0  0  0  0
   12.6770   21.9440   14.7860 C   0  0  0  0  0  0
   12.3100   20.8880   13.9760 C   0  0  0  0  0  0
   13.2880   20.1540   13.3220 C   0  0  0  0  0  0
   14.6070   20.5540   13.4630 C   0  0  0  0  0  0
   14.9840   21.6270   14.2710 C   0  0  0  0  0  0
   14.0140   22.3400   14.9510 C   0  0  0  0  0  0
   23.7066   28.4519   14.5758 H   0  0  0  0  0  0
   23.0956   28.9369   16.1938 H   0  0  0  0  0  0
   21.3547   24.6593   16.2855 H   0  0  0  0  0  0
   17.7605   26.3790   14.7214 H   0  0  0  0  0  0
   18.9702   28.4371   14.0422 H   0  0  0  0  0  0
   19.8843   24.2939   18.2315 H   0  0  0  0  0  0
   18.8725   25.7004   18.7056 H   0  0  0  0  0  0
   17.5463   24.2009   20.2199 H   0  0  0  0  0  0
   17.8554   22.0993   18.9599 H   0  0  0  0  0  0
   18.3796   21.9268   20.6693 H   0  0  0  0  0  0
   19.6047   22.1082   19.3682 H   0  0  0  0  0  0
   19.5274   25.4909   21.0071 H   0  0  0  0  0  0
   20.5898   24.1086   20.5746 H   0  0  0  0  0  0
   19.3647   23.9271   21.8758 H   0  0  0  0  0  0
   16.7479   25.8622   18.1708 H   0  0  0  0  0  0
   16.3846   25.2942   16.5059 H   0  0  0  0  0  0
   15.8585   23.6245   19.0164 H   0  0  0  0  0  0
   14.4841   25.7747   19.0336 H   0  0  0  0  0  0
   16.0483   22.4584   16.7210 H   0  0  0  0  0  0
   13.2345   22.4570   18.1139 H   0  0  0  0  0  0
   14.7840   18.6408   18.9730 H   0  0  0  0  0  0
   13.3626   17.5962   20.8296 H   0  0  0  0  0  0
   13.3540   19.3606   21.1666 H   0  0  0  0  0  0
   11.0133   17.0020   18.9991 H   0  0  0  0  0  0
   10.5303   19.6618   16.3206 H   0  0  0  0  0  0
   11.4864   20.5472   17.5570 H   0  0  0  0  0  0
   12.1557   17.9700   16.0737 H   0  0  0  0  0  0
   13.2271   19.3514   16.4866 H   0  0  0  0  0  0
   13.2098   17.0693   18.0043 H   0  0  0  0  0  0
   13.5018   24.0345   16.1711 H   0  0  0  0  0  0
   15.0615   24.1861   15.2931 H   0  0  0  0  0  0
   11.8989   22.4914   15.3179 H   0  0  0  0  0  0
   11.2577   20.6327   13.8513 H   0  0  0  0  0  0
   13.0266   19.2875   12.7146 H   0  0  0  0  0  0
   15.3803   20.0091   12.9215 H   0  0  0  0  0  0
   16.0348   21.9010   14.3654 H   0  0  0  0  0  0
  1  2  1  0  0  0
  1  5  2  0  0  0
  1  9  1  0  0  0
  2  3  1  0  0  0
  3  4  1  0  0  0
  3 41  1  0  0  0
  3 42  1  0  0  0
  4  5  1  0  0  0
  5  6  1  0  0  0
  6  7  2  0  0  0
  6 43  1  0  0  0
  7  8  1  0  0  0
  7 10  1  0  0  0
  8  9  2  0  0  0
  8 44  1  0  0  0
  9 45  1  0  0  0
 10 11  2  0  0  0
 10 12  2  0  0  0
 10 13  1  0  0  0
 13 14  1  0  0  0
 13 18  1  0  0  0
 14 15  1  0  0  0
 14 46  1  0  0  0
 14 47  1  0  0  0
 15 16  1  0  0  0
 15 17  1  0  0  0
 15 48  1  0  0  0
 16 49  1  0  0  0
 16 50  1  0  0  0
 16 51  1  0  0  0
 17 52  1  0  0  0
 17 53  1  0  0  0
 17 54  1  0  0  0
 18 19  1  0  0  0
 18 55  1  0  0  0
 18 56  1  0  0  0
 19 20  1  0  0  0
 19 21  1  0  0  0
 19 57  1  0  0  0
 20 58  1  0  0  0
 21 22  1  0  0  0
 21 34  1  0  0  0
 21 59  1  0  0  0
 22 23  1  0  0  0
 22 60  1  0  0  0
 23 24  2  0  0  0
 23 25  1  0  0  0
 25 26  1  0  0  0
 26 27  1  0  0  0
 26 33  1  0  0  0
 26 61  1  0  0  0
 27 28  1  0  0  0
 27 62  1  0  0  0
 27 63  1  0  0  0
 28 29  1  0  0  0
 29 30  1  0  0  0
 29 33  1  0  0  0
 29 64  1  0  0  0
 30 31  1  0  0  0
 31 32  1  0  0  0
 31 65  1  0  0  0
 31 66  1  0  0  0
 32 33  1  0  0  0
 32 67  1  0  0  0
 32 68  1  0  0  0
 33 69  1  0  0  0
 34 40  1  0  0  0
 34 70  1  0  0  0
 34 71  1  0  0  0
 35 36  2  0  0  0
 35 40  1  0  0  0
 35 72  1  0  0  0
 36 37  1  0  0  0
 36 73  1  0  0  0
 37 38  2  0  0  0
 37 74  1  0  0  0
 38 39  1  0  0  0
 38 75  1  0  0  0
 39 40  2  0  0  0
 39 76  1  0  0  0
M  END
> <s_m_source_file>
../2qci_ligand.sdf

> <i_m_source_file_index>
1

> <s_epik_input>
TzFbQ0gyXU9jKGMxMilbY0hdYyhbY0hdW2NIXTIpUyg9TykoPU8pTihbQ0gyXVtDSF0oW0NIM10pW0NIM10pW0NIMl1bQ0BASF0oW09IXSlbQ0BASF0oW05IXUMoPU8pT1tDQEBIXShbQ0gyXU8zKVtDQEBIXShbQ0BASF0zNClbQ0gyXVtDSDJdTzQpW0NIMl1jNVtjSF1bY0hdW2NIXVtjSF1bY0hdNQ==

> <s_epik_cmdline>
J2VwaWtfYXBwJywgJy1pbWFlJywgJ2xpZ2FuZF9wcm8ubWFlJywgJy1vbWFlJywgJ2xpZ2FuZF9wcmVwLm1hZScsICctbXMnLCAnMScsICctcGgnLCAnNycsICctcGh0JywgJzAuNScsICctbnQn

> <r_lp_tautomer_probability>
1

> <r_epik_Ionization_Penalty>
  0.0000

> <r_epik_Ionization_Penalty_Charging>
  0.0000

> <r_epik_Ionization_Penalty_Neutral>
  0.0000

> <r_epik_State_Penalty>
 -0.0000

> <r_epik_Charging_Adjusted_Penalty>
0

> <i_epik_Tot_Q>
0

> <i_epik_Tot_abs_Q>
0

> <s_epik_Chemistry_Notes>
This compound has an ester and may undergo hydrolysis at high or low pH. This compound contains an acetal/aminal-like group ( X-CH(R)-Y where X, Y are N, S, or O) that may be acid/base labile, releasing an aldehyde.

$$$$
