2qcm_ligand
                    3D
 Schrodinger Suite 2020-3.
 36 37  0  0  1  0            999 V2000
   15.2590   10.7090   38.9130 O   0  0  0  0  0  0
   15.5750   10.2460   37.7900 C   0  0  0  0  0  0
   16.8910    9.9770   37.5880 N   0  0  0  0  0  0
   17.3280    9.4630   36.4090 C   0  0  0  0  0  0
   18.5790    9.2320   36.2390 O   0  0  0  0  0  0
   16.4040    9.2210   35.4240 C   0  0  0  0  0  0
   15.0430    9.5150   35.6400 C   0  0  0  0  0  0
   14.1920    9.5190   34.3960 C   0  0  0  0  0  0
   13.7420   10.8970   34.1670 O   0  0  0  0  0  0
   14.6580   10.0320   36.8330 N   0  0  0  0  0  0
   13.2350   10.3560   37.0710 C   0  0  2  0  0  0
   13.0990   11.7820   37.3680 O   0  0  0  0  0  0
   12.5510    9.6100   38.2170 C   0  0  2  0  0  0
   11.9540    8.3790   37.7670 O   0  0  0  0  0  0
   11.4990   10.5890   38.6820 C   0  0  2  0  0  0
   10.2720   10.4520   37.9310 O   0  0  0  0  0  0
   12.1590   11.9410   38.4380 C   0  0  1  0  0  0
   12.8750   12.4720   39.6790 C   0  0  0  0  0  0
   11.9090   12.7420   40.6690 O   0  0  0  0  0  0
   12.2380   13.4220   42.0980 P   0  0  0  0  0  0
   10.9660   13.2580   42.8590 O   0  0  0  0  0  0
   12.5760   14.8690   41.7820 O   0  5  0  0  0  0
   13.4140   12.6790   42.6710 O   0  5  0  0  0  0
   17.6217   10.1753   38.3860 H   0  0  0  0  0  0
   16.7239    8.7998   34.4709 H   0  0  0  0  0  0
   14.7887    9.1648   33.5425 H   0  0  0  0  0  0
   13.3280    8.8537   34.5406 H   0  0  0  0  0  0
   13.1020   11.1302   33.3033 H   0  0  0  0  0  0
   12.7591   10.0750   36.1199 H   0  0  0  0  0  0
   13.2286    9.2631   39.0111 H   0  0  0  0  0  0
   12.5907    7.5623   37.3960 H   0  0  0  0  0  0
   11.1562   10.4222   39.7138 H   0  0  0  0  0  0
    9.6820    9.5266   38.0055 H   0  0  0  0  0  0
   11.4074   12.6806   38.1248 H   0  0  0  0  0  0
   13.5861   11.7161   40.0436 H   0  0  0  0  0  0
   13.4186   13.3933   39.4227 H   0  0  0  0  0  0
  1  2  2  0  0  0
  2  3  1  0  0  0
  2 10  1  0  0  0
  3  4  1  0  0  0
  3 24  1  0  0  0
  4  5  2  0  0  0
  4  6  1  0  0  0
  6  7  2  0  0  0
  6 25  1  0  0  0
  7  8  1  0  0  0
  7 10  1  0  0  0
  8  9  1  0  0  0
  8 26  1  0  0  0
  8 27  1  0  0  0
  9 28  1  0  0  0
 10 11  1  0  0  0
 11 12  1  0  0  0
 11 13  1  0  0  0
 11 29  1  0  0  0
 12 17  1  0  0  0
 13 14  1  0  0  0
 13 15  1  0  0  0
 13 30  1  0  0  0
 14 31  1  0  0  0
 15 16  1  0  0  0
 15 17  1  0  0  0
 15 32  1  0  0  0
 16 33  1  0  0  0
 17 18  1  0  0  0
 17 34  1  0  0  0
 18 19  1  0  0  0
 18 35  1  0  0  0
 18 36  1  0  0  0
 19 20  1  0  0  0
 20 21  2  0  0  0
 20 22  1  0  0  0
 20 23  1  0  0  0
M  CHG  2  22  -1  23  -1
M  END
> <s_m_source_file>
../2qcm_ligand.sdf

> <i_m_source_file_index>
1

> <s_epik_input>
Tz1jMVtuSF1jKD1PKVtjSF1jKFtDSDJdW09IXSluMVtDQEBIXTJPW0NAQEhdKFtDQEBIXShbT0hdKVtDQEhdMltPSF0pW0NIMl1PUCg9TykoW09IXSlbT0hd

> <s_epik_cmdline>
J2VwaWtfYXBwJywgJy1pbWFlJywgJ2xpZ2FuZF9wcm8ubWFlJywgJy1vbWFlJywgJ2xpZ2FuZF9wcmVwLm1hZScsICctbXMnLCAnMScsICctcGgnLCAnNycsICctcGh0JywgJzAuNScsICctbnQn

> <r_lp_tautomer_probability>
0.999537046341301

> <r_epik_Ionization_Penalty>
  0.1125

> <r_epik_Ionization_Penalty_Charging>
  0.1085

> <r_epik_Ionization_Penalty_Neutral>
  0.0041

> <r_epik_State_Penalty>
  0.0955

> <r_epik_Charging_Adjusted_Penalty>
0.2039518162523

> <i_epik_Tot_Q>
-2

> <i_epik_Tot_abs_Q>
2

> <s_epik_Chemistry_Notes>
This compound contains an acetal/aminal-like group ( X-CH(R)-Y where X, Y are N, S, or O) that may be acid/base labile, releasing an aldehyde.

$$$$
