2qcn_ligand
                    3D
 Schrodinger Suite 2020-3.
 32 33  0  0  1  0            999 V2000
   20.8460   -2.6770   14.1220 N   0  0  0  0  0  0
   20.6240   -3.5730   13.0610 C   0  0  0  0  0  0
   19.7790   -3.2400   12.0770 N   0  0  0  0  0  0
   19.1780   -2.0480   12.0540 C   0  0  0  0  0  0
   19.3610   -1.1440   13.0930 C   0  0  0  0  0  0
   20.2430   -1.4770   14.1230 C   0  0  0  0  0  0
   21.1920   -4.6780   13.0440 O   0  0  0  0  0  0
   18.4440   -1.7910   11.0980 O   0  0  0  0  0  0
   21.8570   -2.9920   15.1440 C   0  0  1  0  0  0
   21.6970   -4.2560   15.9460 C   0  0  2  0  0  0
   21.1550   -3.8280   17.1850 O   0  0  0  0  0  0
   23.1330   -4.7380   16.1050 C   0  0  1  0  0  0
   23.8090   -4.2950   14.8160 C   0  0  2  0  0  0
   23.7730   -4.1530   17.2540 O   0  0  0  0  0  0
   23.0530   -3.1480   14.3440 O   0  0  0  0  0  0
   23.8530   -5.5010   13.8410 C   0  0  0  0  0  0
   24.8250   -6.4010   14.3950 O   0  0  0  0  0  0
   25.1390   -7.7850   13.6000 P   0  0  0  0  0  0
   26.1310   -7.5440   12.4980 O   0  5  0  0  0  0
   23.8540   -8.3360   13.0260 O   0  5  0  0  0  0
   25.6850   -8.6740   14.6760 O   0  0  0  0  0  0
   19.5688   -3.9543   11.2673 H   0  0  0  0  0  0
   18.8268   -0.1939   13.1039 H   0  0  0  0  0  0
   20.4413   -0.7657   14.9248 H   0  0  0  0  0  0
   21.8387   -2.1838   15.8900 H   0  0  0  0  0  0
   21.0197   -5.0335   15.5630 H   0  0  0  0  0  0
   20.1228   -3.4508   17.2328 H   0  0  0  0  0  0
   23.2185   -5.8138   16.3180 H   0  0  0  0  0  0
   24.8375   -3.9230   14.9331 H   0  0  0  0  0  0
   23.4001   -4.3764   18.2645 H   0  0  0  0  0  0
   22.8574   -5.9657   13.7874 H   0  0  0  0  0  0
   24.1495   -5.1530   12.8405 H   0  0  0  0  0  0
  1  2  1  0  0  0
  1  6  1  0  0  0
  1  9  1  0  0  0
  2  3  1  0  0  0
  2  7  2  0  0  0
  3  4  1  0  0  0
  3 22  1  0  0  0
  4  5  1  0  0  0
  4  8  2  0  0  0
  5  6  2  0  0  0
  5 23  1  0  0  0
  6 24  1  0  0  0
  9 10  1  0  0  0
  9 15  1  0  0  0
  9 25  1  0  0  0
 10 11  1  0  0  0
 10 12  1  0  0  0
 10 26  1  0  0  0
 11 27  1  0  0  0
 12 13  1  0  0  0
 12 14  1  0  0  0
 12 28  1  0  0  0
 13 15  1  0  0  0
 13 16  1  0  0  0
 13 29  1  0  0  0
 14 30  1  0  0  0
 16 17  1  0  0  0
 16 31  1  0  0  0
 16 32  1  0  0  0
 17 18  1  0  0  0
 18 19  1  0  0  0
 18 20  1  0  0  0
 18 21  2  0  0  0
M  CHG  2  19  -1  20  -1
M  END
> <s_m_source_file>
../2qcn_ligand.sdf

> <i_m_source_file_index>
1

> <s_epik_input>
W2NIXTFbY0hdYyg9TylbbkhdYyg9TyluMVtDQEhdMltDQEhdKFtPSF0pW0NASF0oW09IXSlbQ0BIXShPMilbQ0gyXU9QKD1PKShbT0hdKVtPSF0=

> <s_epik_cmdline>
J2VwaWtfYXBwJywgJy1pbWFlJywgJ2xpZ2FuZF9wcm8ubWFlJywgJy1vbWFlJywgJ2xpZ2FuZF9wcmVwLm1hZScsICctbXMnLCAnMScsICctcGgnLCAnNycsICctcGh0JywgJzAuNScsICctbnQn

> <r_lp_tautomer_probability>
0.999537046341301

> <r_epik_Ionization_Penalty>
  0.1082

> <r_epik_Ionization_Penalty_Charging>
  0.1082

> <r_epik_Ionization_Penalty_Neutral>
  0.0000

> <r_epik_State_Penalty>
  0.0955

> <r_epik_Charging_Adjusted_Penalty>
0.203721441546161

> <i_epik_Tot_Q>
-2

> <i_epik_Tot_abs_Q>
2

> <s_epik_Chemistry_Notes>
This compound contains an acetal/aminal-like group ( X-CH(R)-Y where X, Y are N, S, or O) that may be acid/base labile, releasing an aldehyde.

$$$$
