2qd6_ligand
                    3D
 Schrodinger Suite 2020-3.
 76 80  0  0  1  0            999 V2000
   20.7040   27.8150   14.8190 C   0  0  0  0  0  0
   21.5710   28.8840   14.8050 O   0  0  0  0  0  0
   22.7630   28.3600   15.2250 C   0  0  0  0  0  0
   22.6470   27.0410   15.6020 O   0  0  0  0  0  0
   21.3410   26.7170   15.3790 C   0  0  0  0  0  0
   20.6470   25.5580   15.6510 C   0  0  0  0  0  0
   19.2910   25.5100   15.3500 C   0  0  0  0  0  0
   18.6640   26.5800   14.7410 C   0  0  0  0  0  0
   19.3640   27.7480   14.4680 C   0  0  0  0  0  0
   18.3430   24.1200   15.8120 S   0  0  0  0  0  0
   17.2290   23.9410   14.8760 O   0  0  0  0  0  0
   19.2850   22.9470   15.8840 O   0  0  0  0  0  0
   17.7370   24.3310   17.3220 N   0  0  1  0  0  0
   18.6720   24.6690   18.3860 C   0  0  0  0  0  0
   18.3590   24.0140   19.7370 C   0  0  0  0  0  0
   18.3610   22.4870   19.6520 C   0  0  0  0  0  0
   19.4110   24.4580   20.7680 C   0  0  0  0  0  0
   16.4790   25.0530   17.3940 C   0  0  0  0  0  0
   15.3580   24.1980   17.9770 C   0  0  1  0  0  0
   14.1930   24.9630   18.2960 O   0  0  0  0  0  0
   14.9060   23.0750   17.0330 C   0  0  1  0  0  0
   14.0350   22.1560   17.7600 N   0  0  0  0  0  0
   14.3470   20.9060   18.1100 C   0  0  0  0  0  0
   15.3850   20.3300   17.7660 O   0  0  0  0  0  0
   13.3650   20.3480   18.8650 O   0  0  0  0  0  0
   13.4940   18.9400   19.1000 C   0  0  1  0  0  0
   12.8650   18.6970   20.4760 C   0  0  0  0  0  0
   11.4570   18.6830   20.2470 O   0  0  0  0  0  0
   11.2130   18.1780   18.9500 C   0  0  1  0  0  0
   10.3050   19.0360   18.2460 O   0  0  0  0  0  0
   11.0060   19.6830   17.1850 C   0  0  0  0  0  0
   12.1800   18.7660   16.8490 C   0  0  0  0  0  0
   12.5370   18.1600   18.2020 C   0  0  1  0  0  0
   14.1450   23.5660   15.7960 C   0  0  0  0  0  0
   12.4210   21.9600   14.7350 C   0  0  0  0  0  0
   12.0880   20.8690   13.9240 C   0  0  0  0  0  0
   13.0880   20.1660   13.2600 C   0  0  0  0  0  0
   14.3970   20.5960   13.4140 C   0  0  0  0  0  0
   14.7190   21.7070   14.1880 C   0  0  0  0  0  0
   13.7420   22.3960   14.8850 C   0  0  0  0  0  0
   23.4974   28.4186   14.4082 H   0  0  0  0  0  0
   23.1304   28.9316   16.0900 H   0  0  0  0  0  0
   21.1504   24.6979   16.0925 H   0  0  0  0  0  0
   17.6102   26.5068   14.4723 H   0  0  0  0  0  0
   18.8710   28.5936   13.9883 H   0  0  0  0  0  0
   19.6843   24.3470   18.1005 H   0  0  0  0  0  0
   18.6654   25.7570   18.5481 H   0  0  0  0  0  0
   17.3488   24.3303   20.0363 H   0  0  0  0  0  0
   17.6113   22.1597   18.9166 H   0  0  0  0  0  0
   18.1165   22.0646   20.6378 H   0  0  0  0  0  0
   19.3567   22.1384   19.3405 H   0  0  0  0  0  0
   19.4170   25.5559   20.8362 H   0  0  0  0  0  0
   20.4042   24.1047   20.4538 H   0  0  0  0  0  0
   19.1640   24.0309   21.7511 H   0  0  0  0  0  0
   16.6012   25.9395   18.0336 H   0  0  0  0  0  0
   16.1788   25.3683   16.3838 H   0  0  0  0  0  0
   15.7485   23.8067   18.9280 H   0  0  0  0  0  0
   14.2719   25.8315   18.9665 H   0  0  0  0  0  0
   15.8095   22.5428   16.7007 H   0  0  0  0  0  0
   13.0284   22.4777   18.0653 H   0  0  0  0  0  0
   14.5572   18.7013   18.9494 H   0  0  0  0  0  0
   13.2189   17.7355   20.8763 H   0  0  0  0  0  0
   13.1551   19.5080   21.1602 H   0  0  0  0  0  0
   10.7310   17.1957   19.0632 H   0  0  0  0  0  0
   10.3339   19.8059   16.3229 H   0  0  0  0  0  0
   11.3528   20.6706   17.5233 H   0  0  0  0  0  0
   11.8572   18.0099   16.1182 H   0  0  0  0  0  0
   13.0002   19.3618   16.4221 H   0  0  0  0  0  0
   13.0327   17.1987   18.0014 H   0  0  0  0  0  0
   13.2325   24.0928   16.1120 H   0  0  0  0  0  0
   14.7839   24.2523   15.2209 H   0  0  0  0  0  0
   11.6273   22.4858   15.2657 H   0  0  0  0  0  0
   11.0456   20.5703   13.8127 H   0  0  0  0  0  0
   12.8497   19.3034   12.6377 H   0  0  0  0  0  0
   15.1965   20.0485   12.9148 H   0  0  0  0  0  0
   15.7555   22.0392   14.2460 H   0  0  0  0  0  0
  1  2  1  0  0  0
  1  5  2  0  0  0
  1  9  1  0  0  0
  2  3  1  0  0  0
  3  4  1  0  0  0
  3 41  1  0  0  0
  3 42  1  0  0  0
  4  5  1  0  0  0
  5  6  1  0  0  0
  6  7  2  0  0  0
  6 43  1  0  0  0
  7  8  1  0  0  0
  7 10  1  0  0  0
  8  9  2  0  0  0
  8 44  1  0  0  0
  9 45  1  0  0  0
 10 11  2  0  0  0
 10 12  2  0  0  0
 10 13  1  0  0  0
 13 14  1  0  0  0
 13 18  1  0  0  0
 14 15  1  0  0  0
 14 46  1  0  0  0
 14 47  1  0  0  0
 15 16  1  0  0  0
 15 17  1  0  0  0
 15 48  1  0  0  0
 16 49  1  0  0  0
 16 50  1  0  0  0
 16 51  1  0  0  0
 17 52  1  0  0  0
 17 53  1  0  0  0
 17 54  1  0  0  0
 18 19  1  0  0  0
 18 55  1  0  0  0
 18 56  1  0  0  0
 19 20  1  0  0  0
 19 21  1  0  0  0
 19 57  1  0  0  0
 20 58  1  0  0  0
 21 22  1  0  0  0
 21 34  1  0  0  0
 21 59  1  0  0  0
 22 23  1  0  0  0
 22 60  1  0  0  0
 23 24  2  0  0  0
 23 25  1  0  0  0
 25 26  1  0  0  0
 26 27  1  0  0  0
 26 33  1  0  0  0
 26 61  1  0  0  0
 27 28  1  0  0  0
 27 62  1  0  0  0
 27 63  1  0  0  0
 28 29  1  0  0  0
 29 30  1  0  0  0
 29 33  1  0  0  0
 29 64  1  0  0  0
 30 31  1  0  0  0
 31 32  1  0  0  0
 31 65  1  0  0  0
 31 66  1  0  0  0
 32 33  1  0  0  0
 32 67  1  0  0  0
 32 68  1  0  0  0
 33 69  1  0  0  0
 34 40  1  0  0  0
 34 70  1  0  0  0
 34 71  1  0  0  0
 35 36  2  0  0  0
 35 40  1  0  0  0
 35 72  1  0  0  0
 36 37  1  0  0  0
 36 73  1  0  0  0
 37 38  2  0  0  0
 37 74  1  0  0  0
 38 39  1  0  0  0
 38 75  1  0  0  0
 39 40  2  0  0  0
 39 76  1  0  0  0
M  END
> <s_m_source_file>
../2qd6_ligand.sdf

> <i_m_source_file_index>
1

> <s_epik_input>
TzFbQ0gyXU9jKGMxMilbY0hdYyhbY0hdW2NIXTIpUyg9TykoPU8pTihbQ0gyXVtDSF0oW0NIM10pW0NIM10pW0NIMl1bQ0BASF0oW09IXSlbQ0BASF0oW05IXUMoPU8pT1tDQEBIXShbQ0gyXU8zKVtDQEBIXShbQ0BASF0zNClbQ0gyXVtDSDJdTzQpW0NIMl1jNVtjSF1bY0hdW2NIXVtjSF1bY0hdNQ==

> <s_epik_cmdline>
J2VwaWtfYXBwJywgJy1pbWFlJywgJ2xpZ2FuZF9wcm8ubWFlJywgJy1vbWFlJywgJ2xpZ2FuZF9wcmVwLm1hZScsICctbXMnLCAnMScsICctcGgnLCAnNycsICctcGh0JywgJzAuNScsICctbnQn

> <r_lp_tautomer_probability>
1

> <r_epik_Ionization_Penalty>
  0.0000

> <r_epik_Ionization_Penalty_Charging>
  0.0000

> <r_epik_Ionization_Penalty_Neutral>
  0.0000

> <r_epik_State_Penalty>
 -0.0000

> <r_epik_Charging_Adjusted_Penalty>
0

> <i_epik_Tot_Q>
0

> <i_epik_Tot_abs_Q>
0

> <s_epik_Chemistry_Notes>
This compound has an ester and may undergo hydrolysis at high or low pH. This compound contains an acetal/aminal-like group ( X-CH(R)-Y where X, Y are N, S, or O) that may be acid/base labile, releasing an aldehyde.

$$$$
