2qd9_ligand
                    3D
 Schrodinger Suite 2020-3.
 63 68  0  0  1  0            999 V2000
   -5.1970    0.8110   16.0660 C   0  0  0  0  0  0
   -1.1390   -1.6720   24.8540 C   0  0  0  0  0  0
   -1.6310   -2.2060   23.4880 C   0  0  0  0  0  0
   -3.1990    1.7070   17.1910 C   0  0  0  0  0  0
   -1.9510   -1.8190   25.9190 C   0  0  0  0  0  0
    0.1860   -0.9190   24.9690 C   0  0  0  0  0  0
   -0.2310   -0.6320   27.1240 C   0  0  0  0  0  0
   -1.3700   -1.2650   27.1320 C   0  0  0  0  0  0
   -1.9240   -1.2560   28.5060 C   0  0  3  0  0  0
   -5.1530    0.8710   18.3680 C   0  0  0  0  0  0
   -5.8630    0.5360   17.1740 C   0  0  0  0  0  0
   -3.1870   -1.8730   29.0110 C   0  0  0  0  0  0
   -5.7360    0.3790   14.9510 F   0  0  0  0  0  0
   -3.9000    1.3950   16.0670 C   0  0  0  0  0  0
   -5.7910    0.5110   19.5240 F   0  0  0  0  0  0
   -3.8760    1.3600   18.4250 C   0  0  0  0  0  0
   -3.2220    1.5840   19.7610 C   0  0  0  0  0  0
   -2.7010    2.6700   20.2160 N   0  0  0  0  0  0
   -2.8910    0.5150   20.6160 N   0  0  0  0  0  0
   -2.2000    1.0350   21.6110 C   0  0  0  0  0  0
   -2.0610    2.3530   21.4570 C   0  0  0  0  0  0
   -1.6440    0.2260   22.6970 C   0  0  0  0  0  0
   -1.9080   -1.1750   22.4590 N   0  0  0  0  0  0
   -2.0920   -1.7360   21.0890 C   0  0  0  0  0  0
   -3.2270   -0.9140   20.4330 C   0  0  0  0  0  0
   -1.7520   -3.3570   23.1670 O   0  0  0  0  0  0
    0.0150   -0.2090   28.3880 N   0  0  0  0  0  0
   -1.0250   -0.5800   29.2420 C   0  0  0  0  0  0
    0.5780   -0.4660   26.0620 N   0  0  0  0  0  0
    0.9070   -0.7750   23.8330 O   0  0  0  0  0  0
    2.1800   -0.0500   23.9140 C   0  0  0  0  0  0
   -3.8580   -2.6410   28.3010 O   0  0  0  0  0  0
   -3.6340   -1.6020   30.4450 C   0  0  0  0  0  0
   -3.4460   -0.4910   30.9570 O   0  0  0  0  0  0
   -4.2140   -2.5750   31.2580 N   0  0  0  0  0  0
   -3.6840   -3.8920   31.4860 C   0  0  0  0  0  0
   -5.0400   -4.5980   31.4630 C   0  0  2  0  0  0
   -5.5640   -4.6960   30.1400 O   0  0  0  0  0  0
   -5.8970   -3.7630   32.4010 C   0  0  0  0  0  0
   -5.4650   -2.3350   31.9840 C   0  0  0  0  0  0
   -2.2155    2.1763   17.1656 H   0  0  0  0  0  0
   -2.9295   -2.2974   25.8766 H   0  0  0  0  0  0
   -6.8599    0.0952   17.1767 H   0  0  0  0  0  0
   -3.4367    1.6067   15.1033 H   0  0  0  0  0  0
   -1.5631    3.0454   22.1357 H   0  0  0  0  0  0
   -0.5568    0.3839   22.7522 H   0  0  0  0  0  0
   -2.1065    0.5234   23.6497 H   0  0  0  0  0  0
   -1.1541   -1.6364   20.5230 H   0  0  0  0  0  0
   -2.3652   -2.7990   21.1617 H   0  0  0  0  0  0
   -4.1911   -1.1289   20.9171 H   0  0  0  0  0  0
   -3.2979   -1.1393   19.3587 H   0  0  0  0  0  0
   -0.9883   -0.3032   30.3060 H   0  0  0  0  0  0
    2.6464   -0.0157   22.9184 H   0  0  0  0  0  0
    2.8517   -0.5658   24.6160 H   0  0  0  0  0  0
    1.9963    0.9750   24.2684 H   0  0  0  0  0  0
   -2.9905   -4.1539   30.6733 H   0  0  0  0  0  0
   -3.1474   -3.9102   32.4461 H   0  0  0  0  0  0
   -5.0215   -5.6648   31.7306 H   0  0  0  0  0  0
   -5.0253   -5.2766   29.3767 H   0  0  0  0  0  0
   -6.9598   -3.9763   32.2141 H   0  0  0  0  0  0
   -5.6506   -4.0134   33.4434 H   0  0  0  0  0  0
   -5.2687   -1.6814   32.8467 H   0  0  0  0  0  0
   -6.1904   -1.8501   31.3142 H   0  0  0  0  0  0
  1 11  2  0  0  0
  1 13  1  0  0  0
  1 14  1  0  0  0
  2  3  1  0  0  0
  2  5  2  0  0  0
  2  6  1  0  0  0
  3 23  1  0  0  0
  3 26  2  0  0  0
  4 14  2  0  0  0
  4 16  1  0  0  0
  4 41  1  0  0  0
  5  8  1  0  0  0
  5 42  1  0  0  0
  6 29  2  0  0  0
  6 30  1  0  0  0
  7  8  2  0  0  0
  7 27  1  0  0  0
  7 29  1  0  0  0
  8  9  1  0  0  0
  9 12  1  0  0  0
  9 28  1  0  0  0
 10 11  1  0  0  0
 10 15  1  0  0  0
 10 16  2  0  0  0
 11 43  1  0  0  0
 12 32  2  0  0  0
 12 33  1  0  0  0
 14 44  1  0  0  0
 16 17  1  0  0  0
 17 18  2  0  0  0
 17 19  1  0  0  0
 18 21  1  0  0  0
 19 20  1  0  0  0
 19 25  1  0  0  0
 20 21  2  0  0  0
 20 22  1  0  0  0
 21 45  1  0  0  0
 22 23  1  0  0  0
 22 46  1  0  0  0
 22 47  1  0  0  0
 23 24  1  0  0  0
 24 25  1  0  0  0
 24 48  1  0  0  0
 24 49  1  0  0  0
 25 50  1  0  0  0
 25 51  1  0  0  0
 27 28  2  0  0  0
 28 52  1  0  0  0
 30 31  1  0  0  0
 31 53  1  0  0  0
 31 54  1  0  0  0
 31 55  1  0  0  0
 33 34  2  0  0  0
 33 35  1  0  0  0
 35 36  1  0  0  0
 35 40  1  0  0  0
 36 37  1  0  0  0
 36 56  1  0  0  0
 36 57  1  0  0  0
 37 38  1  0  0  0
 37 39  1  0  0  0
 37 58  1  0  0  0
 38 59  1  0  0  0
 39 40  1  0  0  0
 39 60  1  0  0  0
 39 61  1  0  0  0
 40 62  1  0  0  0
 40 63  1  0  0  0
M  END
> <s_m_source_file>
../2qd9_ligand.sdf

> <i_m_source_file_index>
1

> <s_epik_input>
RmMxW2NIXWMoRiljKFtjSF1bY0hdMSktYzJuW2NIXWMobjIzKVtDSDJdTihbQ0gyXVtDSDJdMylDKD1PKWMoYyhuNClPW0NIM10pW2NIXWMoYzQ1KVtDSF0oW0NIXT1ONSlDKD1PKUMoPU8pTjZbQ0gyXVtDQEhdKFtPSF0pW0NIMl1bQ0gyXTY=

> <s_epik_cmdline>
J2VwaWtfYXBwJywgJy1pbWFlJywgJ2xpZ2FuZF9wcm8ubWFlJywgJy1vbWFlJywgJ2xpZ2FuZF9wcmVwLm1hZScsICctbXMnLCAnMScsICctcGgnLCAnNycsICctcGh0JywgJzAuNScsICctbnQn

> <r_epik_Ionization_Penalty>
  0.1858

> <r_epik_Ionization_Penalty_Charging>
  0.1858

> <r_epik_Ionization_Penalty_Neutral>
  0.0000

> <r_epik_State_Penalty>
  0.1754

> <r_epik_Charging_Adjusted_Penalty>
0.361190868954538

> <i_epik_Tot_Q>
0

> <i_epik_Tot_abs_Q>
0

> <s_epik_Chemistry_Notes>
This compound has an imine and may undergo hydrolysis.

$$$$
