2qdt_ligand
                    3D
 Schrodinger Suite 2020-3.
 21 20  0  0  1  0            999 V2000
   12.9820   31.5080   31.6640 S   0  0  0  0  0  0
   13.5230   30.4940   30.4480 C   0  0  0  0  0  0
   12.5450   29.3450   30.2370 C   0  0  0  0  0  0
   12.4230   28.4640   31.4650 C   0  0  0  0  0  0
   12.9710   27.4010   31.4110 O   0  0  0  0  0  0
   11.7410   28.8910   32.5400 N   0  0  0  0  0  0
   11.4840   28.1320   33.7660 C   0  0  2  0  0  0
    9.9690   28.0440   33.9450 C   0  0  0  0  0  0
   12.1340   28.7300   35.0060 C   0  0  0  0  0  0
   12.5230   29.9380   34.9390 O   0  0  0  0  0  0
   12.2670   28.0220   36.0600 O   0  5  0  0  0  0
   13.5721   32.3925   31.9458 H   0  0  0  0  0  0
   13.6145   31.0621   29.5105 H   0  0  0  0  0  0
   14.5047   30.0816   30.7241 H   0  0  0  0  0  0
   11.5484   29.7495   30.0063 H   0  0  0  0  0  0
   12.8894   28.7193   29.4004 H   0  0  0  0  0  0
   11.3594   29.9177   32.4385 H   0  0  0  0  0  0
   11.9549   27.1492   33.6165 H   0  0  0  0  0  0
    9.5175   27.6103   33.0405 H   0  0  0  0  0  0
    9.5604   29.0516   34.1118 H   0  0  0  0  0  0
    9.7386   27.4068   34.8115 H   0  0  0  0  0  0
  1  2  1  0  0  0
  1 12  1  0  0  0
  2  3  1  0  0  0
  2 13  1  0  0  0
  2 14  1  0  0  0
  3  4  1  0  0  0
  3 15  1  0  0  0
  3 16  1  0  0  0
  4  5  2  0  0  0
  4  6  1  0  0  0
  6  7  1  0  0  0
  6 17  1  0  0  0
  7  8  1  0  0  0
  7  9  1  0  0  0
  7 18  1  0  0  0
  8 19  1  0  0  0
  8 20  1  0  0  0
  8 21  1  0  0  0
  9 10  2  0  0  0
  9 11  1  0  0  0
M  CHG  1  11  -1
M  END
> <s_m_source_file>
../2qdt_ligand.sdf

> <i_m_source_file_index>
1

> <s_epik_input>
W1NIXVtDSDJdW0NIMl1DKD1PKVtOSF1bQ0BIXShbQ0gzXSlDKD1PKVtPSF0=

> <s_epik_cmdline>
J2VwaWtfYXBwJywgJy1pbWFlJywgJ2xpZ2FuZF9wcm8ubWFlJywgJy1vbWFlJywgJ2xpZ2FuZF9wcmVwLm1hZScsICctbXMnLCAnMScsICctcGgnLCAnNycsICctcGh0JywgJzAuNScsICctbnQn

> <r_lp_tautomer_probability>
1

> <r_epik_Ionization_Penalty>
  0.0022

> <r_epik_Ionization_Penalty_Charging>
  0.0002

> <r_epik_Ionization_Penalty_Neutral>
  0.0021

> <r_epik_State_Penalty>
 -0.0000

> <r_epik_Charging_Adjusted_Penalty>
0.000179201941047699

> <i_epik_Tot_Q>
-1

> <i_epik_Tot_abs_Q>
1

$$$$
