2qf6_ligand
                    3D
 Schrodinger Suite 2020-3.
 29 31  0  0  1  0            999 V2000
   18.6200   36.8770    9.1510 C   0  0  0  0  0  0
   18.3500   38.1660    8.6320 C   0  0  0  0  0  0
   18.2110   38.3420    7.2170 C   0  0  0  0  0  0
   18.3410   37.2110    6.3240 C   0  0  0  0  0  0
   18.6130   35.9200    6.8580 C   0  0  0  0  0  0
   18.7510   35.7610    8.2650 C   0  0  0  0  0  0
   17.9420   39.6250    6.6630 C   0  0  0  0  0  0
   17.8060   39.7810    5.2610 C   0  0  0  0  0  0
   17.9300   38.6800    4.3750 C   0  0  0  0  0  0
   18.1980   37.3930    4.9100 C   0  0  0  0  0  0
   17.4550   41.5280    4.6950 Br  0  0  0  0  0  0
   17.7950   38.7780    2.8950 C   0  0  0  0  0  0
   18.4670   39.6890    2.1290 N   0  0  0  0  0  0
   18.2720   39.6990    0.8140 C   0  0  0  0  0  0
   17.4610   38.8880    0.1250 N   0  0  0  0  0  0
   16.8320   38.0220    0.9210 C   0  0  0  0  0  0
   16.9480   37.9250    2.2400 N   0  0  0  0  0  0
   15.9900   37.1520    0.3550 N   0  0  0  0  0  0
   18.9590   40.6160    0.1300 N   0  0  0  0  0  0
   18.7282   36.7345   10.2262 H   0  0  0  0  0  0
   18.2486   39.0183    9.3039 H   0  0  0  0  0  0
   18.7147   35.0609    6.1949 H   0  0  0  0  0  0
   18.9600   34.7728    8.6748 H   0  0  0  0  0  0
   17.8403   40.4898    7.3186 H   0  0  0  0  0  0
   18.2956   36.5379    4.2411 H   0  0  0  0  0  0
   15.8358   37.1649   -0.7341 H   0  0  0  0  0  0
   15.4512   36.4231    0.9782 H   0  0  0  0  0  0
   19.6369   41.3026    0.6583 H   0  0  0  0  0  0
   18.8474   40.6853   -0.9621 H   0  0  0  0  0  0
  1  2  2  0  0  0
  1  6  1  0  0  0
  1 20  1  0  0  0
  2  3  1  0  0  0
  2 21  1  0  0  0
  3  4  2  0  0  0
  3  7  1  0  0  0
  4  5  1  0  0  0
  4 10  1  0  0  0
  5  6  2  0  0  0
  5 22  1  0  0  0
  6 23  1  0  0  0
  7  8  2  0  0  0
  7 24  1  0  0  0
  8  9  1  0  0  0
  8 11  1  0  0  0
  9 10  2  0  0  0
  9 12  1  0  0  0
 10 25  1  0  0  0
 12 13  2  0  0  0
 12 17  1  0  0  0
 13 14  1  0  0  0
 14 15  2  0  0  0
 14 19  1  0  0  0
 15 16  1  0  0  0
 16 17  2  0  0  0
 16 18  1  0  0  0
 18 26  1  0  0  0
 18 27  1  0  0  0
 19 28  1  0  0  0
 19 29  1  0  0  0
M  END
> <s_m_source_file>
../2qf6_ligand.sdf

> <i_m_source_file_index>
1

> <s_epik_input>
W2NIXTFbY0hdW2NIXVtjSF1jKGMxMilbY0hdYyhjKEJyKVtjSF0yKS1jM25jKFtOSDJdKW5jKG4zKVtOSDJd

> <s_epik_cmdline>
J2VwaWtfYXBwJywgJy1pbWFlJywgJ2xpZ2FuZF9wcm8ubWFlJywgJy1vbWFlJywgJ2xpZ2FuZF9wcmVwLm1hZScsICctbXMnLCAnMScsICctcGgnLCAnNycsICctcGh0JywgJzAuNScsICctbnQn

> <r_lp_tautomer_probability>
1

> <r_epik_Ionization_Penalty>
  0.0002

> <r_epik_Ionization_Penalty_Charging>
  0.0000

> <r_epik_Ionization_Penalty_Neutral>
  0.0002

> <r_epik_State_Penalty>
 -0.0000

> <r_epik_Charging_Adjusted_Penalty>
0

> <i_epik_Tot_Q>
0

> <i_epik_Tot_abs_Q>
0

$$$$
