2qg0_ligand
                    3D
 Schrodinger Suite 2020-3.
 46 48  0  0  1  0            999 V2000
   18.8160   26.6520   15.4480 C   0  0  0  0  0  0
   17.5640   26.9740   15.8660 N   0  0  0  0  0  0
   17.2520   26.6100   17.1260 C   0  0  0  0  0  0
   18.0640   25.9690   17.9700 N   0  0  0  0  0  0
   19.3150   25.6510   17.5380 C   0  0  0  0  0  0
   19.7440   25.9880   16.2410 C   0  0  0  0  0  0
   19.1590   27.0040   14.1830 C   0  0  0  0  0  0
   16.0300   26.9110   17.5770 N   0  0  0  0  0  0
   20.2210   24.9170   18.5060 C   0  0  0  0  0  0
   21.1560   23.9730   17.8570 N   0  0  3  0  0  0
   20.6880   22.3130   17.5740 S   0  0  0  0  0  0
   19.9920   21.8740   18.7510 O   0  0  0  0  0  0
   21.9350   21.7020   17.2350 O   0  0  0  0  0  0
   20.5300   25.7330    8.7650 C   0  0  0  0  0  0
   20.7050   24.8060    9.9410 C   0  0  0  0  0  0
   19.3820   24.4720   10.4760 C   0  0  0  0  0  0
   18.4280   25.0010    9.4880 C   0  0  0  0  0  0
   19.0930   25.7050    8.5470 O   0  0  0  0  0  0
   17.2440   24.8260    9.5160 O   0  0  0  0  0  0
   18.9670   23.8430   11.5660 C   0  0  0  0  0  0
   19.8210   23.2670   12.6190 N   0  0  0  0  0  0
   19.3000   22.8470   13.8220 C   0  0  0  0  0  0
   17.8930   22.4780   13.9610 C   0  0  0  0  0  0
   17.3740   22.0490   15.2340 C   0  0  0  0  0  0
   18.2550   21.9910   16.3720 C   0  0  0  0  0  0
   19.6390   22.3560   16.2270 C   0  0  0  0  0  0
   20.1510   22.7780   14.9650 C   0  0  0  0  0  0
   20.7431   25.7432   15.8804 H   0  0  0  0  0  0
   18.3124   27.5165   13.7027 H   0  0  0  0  0  0
   19.4154   26.1019   13.6082 H   0  0  0  0  0  0
   20.0271   27.6789   14.2128 H   0  0  0  0  0  0
   15.3179   27.4389   16.9256 H   0  0  0  0  0  0
   15.7366   26.6308   18.5994 H   0  0  0  0  0  0
   20.8293   25.6450   19.0627 H   0  0  0  0  0  0
   19.6094   24.3349   19.2110 H   0  0  0  0  0  0
   22.0852   24.3453   17.4009 H   0  0  0  0  0  0
   20.9006   26.7344    9.0292 H   0  0  0  0  0  0
   21.0981   25.3467    7.9059 H   0  0  0  0  0  0
   21.2177   23.8899    9.6126 H   0  0  0  0  0  0
   21.3062   25.3052   10.7151 H   0  0  0  0  0  0
   17.8903   23.7120   11.7491 H   0  0  0  0  0  0
   20.9036   23.1638   12.4539 H   0  0  0  0  0  0
   17.2321   22.5278   13.0957 H   0  0  0  0  0  0
   16.3249   21.7710   15.3353 H   0  0  0  0  0  0
   17.8737   21.6710   17.3417 H   0  0  0  0  0  0
   21.2024   23.0504   14.8726 H   0  0  0  0  0  0
  1  2  2  0  0  0
  1  6  1  0  0  0
  1  7  1  0  0  0
  2  3  1  0  0  0
  3  4  2  0  0  0
  3  8  1  0  0  0
  4  5  1  0  0  0
  5  6  2  0  0  0
  5  9  1  0  0  0
  6 28  1  0  0  0
  7 29  1  0  0  0
  7 30  1  0  0  0
  7 31  1  0  0  0
  8 32  1  0  0  0
  8 33  1  0  0  0
  9 10  1  0  0  0
  9 34  1  0  0  0
  9 35  1  0  0  0
 10 11  1  0  0  0
 10 36  1  0  0  0
 11 12  2  0  0  0
 11 13  2  0  0  0
 11 26  1  0  0  0
 14 15  1  0  0  0
 14 18  1  0  0  0
 14 37  1  0  0  0
 14 38  1  0  0  0
 15 16  1  0  0  0
 15 39  1  0  0  0
 15 40  1  0  0  0
 16 17  1  0  0  0
 16 20  2  0  0  0
 17 18  1  0  0  0
 17 19  2  0  0  0
 20 21  1  0  0  0
 20 41  1  0  0  0
 21 22  1  0  0  0
 21 42  1  0  0  0
 22 23  2  0  0  0
 22 27  1  0  0  0
 23 24  1  0  0  0
 23 43  1  0  0  0
 24 25  2  0  0  0
 24 44  1  0  0  0
 25 26  1  0  0  0
 25 45  1  0  0  0
 26 27  2  0  0  0
 27 46  1  0  0  0
M  END
> <s_m_source_file>
../2qg0_ligand.sdf

> <i_m_source_file_index>
1

> <s_epik_input>
W0NIM11jMW5jKFtOSDJdKW5jKFtjSF0xKVtDSDJdW05IXVMoPU8pKD1PKWMoW2NIXTIpW2NIXVtjSF1bY0hdYzJbTkhdL1tDSF09QzNcW0NIMl1bQ0gyXU9DMz1P

> <s_epik_cmdline>
J2VwaWtfYXBwJywgJy1pbWFlJywgJ2xpZ2FuZF9wcm8ubWFlJywgJy1vbWFlJywgJ2xpZ2FuZF9wcmVwLm1hZScsICctbXMnLCAnMScsICctcGgnLCAnNycsICctcGh0JywgJzAuNScsICctbnQn

> <r_lp_tautomer_probability>
1

> <r_epik_Ionization_Penalty>
  0.0086

> <r_epik_Ionization_Penalty_Charging>
  0.0000

> <r_epik_Ionization_Penalty_Neutral>
  0.0086

> <r_epik_State_Penalty>
 -0.0000

> <r_epik_Charging_Adjusted_Penalty>
0

> <i_epik_Tot_Q>
0

> <i_epik_Tot_abs_Q>
0

> <s_epik_Chemistry_Notes>
This compound has an ester and may undergo hydrolysis at high or low pH.

$$$$
