2qh6_ligand
                    3D
 Schrodinger Suite 2020-3.
 55 58  0  0  1  0            999 V2000
  -16.0730    3.9730   33.6620 C   0  0  0  0  0  0
  -17.2540    3.8790   34.4220 C   0  0  0  0  0  0
  -17.1130    3.6530   35.7880 C   0  0  0  0  0  0
  -18.1940    3.4970   36.5770 O   0  0  0  0  0  0
  -15.8600    3.5390   36.3760 C   0  0  0  0  0  0
  -14.6990    3.6560   35.6230 C   0  0  0  0  0  0
  -14.8030    3.8830   34.2630 C   0  0  0  0  0  0
  -13.6380    3.9870   33.4980 C   0  0  0  0  0  0
  -13.4640    4.5750   32.0950 C   0  0  2  0  0  0
  -12.5590    3.4780   31.6400 O   0  0  0  0  0  0
  -12.5480    5.7600   31.7890 C   0  0  1  0  0  0
  -12.6430    6.6620   32.9420 C   0  0  0  0  0  0
  -12.2660    6.2250   34.0400 O   0  0  0  0  0  0
  -13.1080    7.9340   32.7610 O   0  0  0  0  0  0
  -12.7630    8.4750   31.5050 C   0  0  0  0  0  0
  -13.1080    9.8940   32.0030 C   0  0  0  0  0  0
  -11.1350    5.0980   31.7920 C   0  0  1  0  0  0
   -9.9520    6.0270   32.2700 C   0  0  0  0  0  0
  -10.1730    7.1660   32.6550 O   0  0  0  0  0  0
   -8.6030    5.7210   32.2390 O   0  0  0  0  0  0
   -8.3160    4.3640   32.6660 C   0  0  0  0  0  0
   -8.9470    3.3810   31.6630 C   0  0  0  0  0  0
  -11.4580    3.7470   32.5370 C   0  0  1  0  0  0
  -12.3680    3.4740   33.7830 C   0  0  0  0  0  0
  -11.9400    2.6520   34.8160 C   0  0  0  0  0  0
  -10.9410    2.9990   35.7150 C   0  0  0  0  0  0
  -10.4770    2.0760   36.6680 C   0  0  0  0  0  0
  -11.0180    0.7990   36.7040 C   0  0  0  0  0  0
  -10.5710   -0.0600   37.6360 O   0  0  0  0  0  0
  -12.0050    0.4200   35.7810 C   0  0  0  0  0  0
  -12.4450    1.3430   34.8350 C   0  0  0  0  0  0
  -16.1432    4.1187   32.5841 H   0  0  0  0  0  0
  -18.2365    3.9789   33.9607 H   0  0  0  0  0  0
  -19.2039    3.5799   36.1490 H   0  0  0  0  0  0
  -15.7865    3.3544   37.4477 H   0  0  0  0  0  0
  -13.7211    3.5702   36.0967 H   0  0  0  0  0  0
  -14.4502    4.8744   31.7106 H   0  0  0  0  0  0
  -12.7955    6.3418   30.8889 H   0  0  0  0  0  0
  -11.7092    8.2488   31.2853 H   0  0  0  0  0  0
  -13.4028    8.0329   30.7271 H   0  0  0  0  0  0
  -12.9338   10.6189   31.1942 H   0  0  0  0  0  0
  -12.4712   10.1453   32.8640 H   0  0  0  0  0  0
  -14.1649    9.9294   32.3058 H   0  0  0  0  0  0
  -10.6880    4.9040   30.8058 H   0  0  0  0  0  0
   -7.2270    4.2128   32.6996 H   0  0  0  0  0  0
   -8.7404    4.1971   33.6670 H   0  0  0  0  0  0
   -8.7348    2.3488   31.9783 H   0  0  0  0  0  0
   -8.5218    3.5538   30.6633 H   0  0  0  0  0  0
  -10.0352    3.5382   31.6308 H   0  0  0  0  0  0
  -10.4875    3.2819   32.7647 H   0  0  0  0  0  0
  -10.5109    4.0000   35.6815 H   0  0  0  0  0  0
   -9.6973    2.3616   37.3741 H   0  0  0  0  0  0
   -9.7968    0.2572   38.3501 H   0  0  0  0  0  0
  -12.4230   -0.5864   35.8042 H   0  0  0  0  0  0
  -13.1918    1.0443   34.0994 H   0  0  0  0  0  0
  1  2  2  0  0  0
  1  7  1  0  0  0
  1 32  1  0  0  0
  2  3  1  0  0  0
  2 33  1  0  0  0
  3  4  1  0  0  0
  3  5  2  0  0  0
  4 34  1  0  0  0
  5  6  1  0  0  0
  5 35  1  0  0  0
  6  7  2  0  0  0
  6 36  1  0  0  0
  7  8  1  0  0  0
  8  9  1  0  0  0
  8 24  2  0  0  0
  9 10  1  0  0  0
  9 11  1  0  0  0
  9 37  1  0  0  0
 10 23  1  0  0  0
 11 12  1  0  0  0
 11 17  1  0  0  0
 11 38  1  0  0  0
 12 13  2  0  0  0
 12 14  1  0  0  0
 14 15  1  0  0  0
 15 16  1  0  0  0
 15 39  1  0  0  0
 15 40  1  0  0  0
 16 41  1  0  0  0
 16 42  1  0  0  0
 16 43  1  0  0  0
 17 18  1  0  0  0
 17 23  1  0  0  0
 17 44  1  0  0  0
 18 19  2  0  0  0
 18 20  1  0  0  0
 20 21  1  0  0  0
 21 22  1  0  0  0
 21 45  1  0  0  0
 21 46  1  0  0  0
 22 47  1  0  0  0
 22 48  1  0  0  0
 22 49  1  0  0  0
 23 24  1  0  0  0
 23 50  1  0  0  0
 24 25  1  0  0  0
 25 26  2  0  0  0
 25 31  1  0  0  0
 26 27  1  0  0  0
 26 51  1  0  0  0
 27 28  2  0  0  0
 27 52  1  0  0  0
 28 29  1  0  0  0
 28 30  1  0  0  0
 29 53  1  0  0  0
 30 31  2  0  0  0
 30 54  1  0  0  0
 31 55  1  0  0  0
M  END
> <s_m_source_file>
../2qh6_ligand.sdf

> <i_m_source_file_index>
1

> <s_epik_input>
W09IXWMxW2NIXVtjSF1jKFtjSF1bY0hdMSlDKFtDQEhdMjMpPUMoYzRbY0hdW2NIXWMoW09IXSlbY0hdW2NIXTQpW0NAQEhdKE8yKVtDQEhdKEMoPU8pT1tDSDJdW0NIM10pW0NAQEhdM0MoPU8pT1tDSDJdW0NIM10=

> <s_epik_cmdline>
J2VwaWtfYXBwJywgJy1pbWFlJywgJ2xpZ2FuZF9wcm8ubWFlJywgJy1vbWFlJywgJ2xpZ2FuZF9wcmVwLm1hZScsICctbXMnLCAnMScsICctcGgnLCAnNycsICctcGh0JywgJzAuNScsICctbnQn

> <r_lp_tautomer_probability>
1

> <r_epik_Ionization_Penalty>
  0.0024

> <r_epik_Ionization_Penalty_Charging>
  0.0000

> <r_epik_Ionization_Penalty_Neutral>
  0.0024

> <r_epik_State_Penalty>
 -0.0000

> <r_epik_Charging_Adjusted_Penalty>
0

> <i_epik_Tot_Q>
0

> <i_epik_Tot_abs_Q>
0

> <s_epik_Chemistry_Notes>
This compound has an ester and may undergo hydrolysis at high or low pH.

$$$$
