2qhc_ligand
                    3D
 Schrodinger Suite 2020-3.
 94 97  0  0  1  0            999 V2000
  -14.6170   58.9170   10.9060 C   0  0  0  0  0  0
  -14.9180   56.6930    9.6780 C   0  0  0  0  0  0
  -13.4650   56.7080    9.4710 N   0  0  0  0  0  0
  -12.6670   57.6800    9.8870 C   0  0  0  0  0  0
  -13.2170   58.6980   10.5600 N   0  0  0  0  0  0
  -12.9540   51.0240    3.7080 C   0  0  0  0  0  0
  -12.5850   50.0330    2.7930 C   0  0  0  0  0  0
  -13.5170   49.0920    2.3400 C   0  0  0  0  0  0
  -14.8260   49.1410    2.8020 C   0  0  0  0  0  0
  -15.1930   50.1230    3.7250 C   0  0  0  0  0  0
  -14.2710   51.0660    4.1780 C   0  0  0  0  0  0
  -11.4670   57.6290    9.6740 O   0  0  0  0  0  0
  -12.9170   55.5820    8.6970 C   0  0  2  0  0  0
  -13.3970   55.7490    7.2770 C   0  0  0  0  0  0
  -12.5230   56.3260    6.4370 N   0  0  0  0  0  0
  -12.8350   56.5810    5.0280 C   0  0  1  0  0  0
  -13.3000   54.2100    9.2810 C   0  0  0  0  0  0
  -12.8490   53.0460    8.4060 C   0  0  0  0  0  0
  -12.7500   53.9950   10.6880 C   0  0  0  0  0  0
  -14.5330   55.3970    6.9640 O   0  0  0  0  0  0
  -16.0270   59.5560    6.2880 C   0  0  0  0  0  0
  -15.5640   60.3360    7.3470 C   0  0  0  0  0  0
  -14.1970   60.3960    7.6000 C   0  0  0  0  0  0
  -13.3150   59.6720    6.7890 C   0  0  0  0  0  0
  -13.7810   58.8810    5.7300 C   0  0  0  0  0  0
  -15.1520   58.8360    5.4780 C   0  0  0  0  0  0
  -12.7890   58.1080    4.8660 C   0  0  0  0  0  0
  -11.7220   55.9580    4.1660 C   0  0  0  0  0  0
  -11.3400   54.4980    4.4610 C   0  0  1  0  0  0
  -12.3670   53.4660    3.9830 C   0  0  1  0  0  0
  -12.5260   53.5790    2.5330 N   0  0  0  0  0  0
  -13.6880   54.0170    2.0320 C   0  0  0  0  0  0
  -13.8340   54.1130    0.5290 C   0  0  0  0  0  0
  -12.6990   53.5740   -0.1450 O   0  0  0  0  0  0
  -12.8110   53.1830   -1.4520 C   0  0  0  0  0  0
  -10.0960   54.2220    3.8470 O   0  0  0  0  0  0
  -11.9130   52.0240    4.1880 C   0  0  0  0  0  0
  -14.6300   54.3510    2.7390 O   0  0  0  0  0  0
  -12.9250   54.1510   -2.4480 C   0  0  0  0  0  0
  -13.0420   53.7690   -3.7890 C   0  0  0  0  0  0
  -13.0500   52.4230   -4.1400 C   0  0  0  0  0  0
  -12.9320   51.4590   -3.1360 C   0  0  0  0  0  0
  -12.8120   51.8340   -1.7970 C   0  0  0  0  0  0
  -12.6960   50.7570   -0.7500 C   0  0  0  0  0  0
  -12.9210   55.6170   -2.0870 C   0  0  0  0  0  0
  -15.2250   57.5110   10.9490 C   0  0  0  0  0  0
  -14.6790   59.4211   11.8817 H   0  0  0  0  0  0
  -15.0906   59.5458   10.1377 H   0  0  0  0  0  0
  -15.4171   57.1421    8.8067 H   0  0  0  0  0  0
  -15.2601   55.6549    9.8018 H   0  0  0  0  0  0
  -12.4545   59.4308   10.8626 H   0  0  0  0  0  0
  -11.5587   49.9928    2.4280 H   0  0  0  0  0  0
  -13.2167   48.3238    1.6275 H   0  0  0  0  0  0
  -15.5611   48.4187    2.4470 H   0  0  0  0  0  0
  -16.2170   50.1527    4.0973 H   0  0  0  0  0  0
  -14.5743   51.8305    4.8933 H   0  0  0  0  0  0
  -11.8198   55.6434    8.7452 H   0  0  0  0  0  0
  -11.5410   56.6102    6.8430 H   0  0  0  0  0  0
  -13.8137   56.1492    4.7718 H   0  0  0  0  0  0
  -14.3992   54.2156    9.3223 H   0  0  0  0  0  0
  -13.2362   53.1829    7.3856 H   0  0  0  0  0  0
  -13.2355   52.1037    8.8216 H   0  0  0  0  0  0
  -11.7499   53.0116    8.3795 H   0  0  0  0  0  0
  -13.0652   54.8262   11.3359 H   0  0  0  0  0  0
  -11.6513   53.9558   10.6502 H   0  0  0  0  0  0
  -13.1370   53.0480   11.0922 H   0  0  0  0  0  0
  -17.0977   59.5086    6.0896 H   0  0  0  0  0  0
  -16.2648   60.8923    7.9695 H   0  0  0  0  0  0
  -13.8162   61.0015    8.4225 H   0  0  0  0  0  0
  -12.2441   59.7245    6.9851 H   0  0  0  0  0  0
  -15.5371   58.2399    4.6507 H   0  0  0  0  0  0
  -11.7871   58.4751    5.1335 H   0  0  0  0  0  0
  -13.0097   58.3727    3.8214 H   0  0  0  0  0  0
  -12.0244   55.9749    3.1085 H   0  0  0  0  0  0
  -10.7944   56.5357    4.2913 H   0  0  0  0  0  0
  -11.2108   54.3790    5.5469 H   0  0  0  0  0  0
  -13.3010   53.6758    4.5249 H   0  0  0  0  0  0
  -11.6955   53.3053    1.8656 H   0  0  0  0  0  0
  -14.7251   53.5521    0.2106 H   0  0  0  0  0  0
  -13.9415   55.1683    0.2377 H   0  0  0  0  0  0
   -9.2233   54.8558    4.0631 H   0  0  0  0  0  0
  -11.7265   51.8724    5.2614 H   0  0  0  0  0  0
  -10.9773   51.8762    3.6288 H   0  0  0  0  0  0
  -13.1274   54.5311   -4.5636 H   0  0  0  0  0  0
  -13.1470   52.1247   -5.1839 H   0  0  0  0  0  0
  -12.9337   50.4018   -3.4013 H   0  0  0  0  0  0
  -12.6099   51.2199    0.2442 H   0  0  0  0  0  0
  -11.8026   50.1469   -0.9490 H   0  0  0  0  0  0
  -13.5908   50.1179   -0.7807 H   0  0  0  0  0  0
  -12.8218   55.7259   -0.9969 H   0  0  0  0  0  0
  -13.8632   56.0785   -2.4174 H   0  0  0  0  0  0
  -12.0750   56.1146   -2.5837 H   0  0  0  0  0  0
  -14.8179   56.9617   11.8107 H   0  0  0  0  0  0
  -16.3181   57.5870   11.0459 H   0  0  0  0  0  0
  1  5  1  0  0  0
  1 46  1  0  0  0
  1 47  1  0  0  0
  1 48  1  0  0  0
  2  3  1  0  0  0
  2 46  1  0  0  0
  2 49  1  0  0  0
  2 50  1  0  0  0
  3  4  1  0  0  0
  3 13  1  0  0  0
  4  5  1  0  0  0
  4 12  2  0  0  0
  5 51  1  0  0  0
  6  7  2  0  0  0
  6 11  1  0  0  0
  6 37  1  0  0  0
  7  8  1  0  0  0
  7 52  1  0  0  0
  8  9  2  0  0  0
  8 53  1  0  0  0
  9 10  1  0  0  0
  9 54  1  0  0  0
 10 11  2  0  0  0
 10 55  1  0  0  0
 11 56  1  0  0  0
 13 14  1  0  0  0
 13 17  1  0  0  0
 13 57  1  0  0  0
 14 15  1  0  0  0
 14 20  2  0  0  0
 15 16  1  0  0  0
 15 58  1  0  0  0
 16 27  1  0  0  0
 16 28  1  0  0  0
 16 59  1  0  0  0
 17 18  1  0  0  0
 17 19  1  0  0  0
 17 60  1  0  0  0
 18 61  1  0  0  0
 18 62  1  0  0  0
 18 63  1  0  0  0
 19 64  1  0  0  0
 19 65  1  0  0  0
 19 66  1  0  0  0
 21 22  2  0  0  0
 21 26  1  0  0  0
 21 67  1  0  0  0
 22 23  1  0  0  0
 22 68  1  0  0  0
 23 24  2  0  0  0
 23 69  1  0  0  0
 24 25  1  0  0  0
 24 70  1  0  0  0
 25 26  2  0  0  0
 25 27  1  0  0  0
 26 71  1  0  0  0
 27 72  1  0  0  0
 27 73  1  0  0  0
 28 29  1  0  0  0
 28 74  1  0  0  0
 28 75  1  0  0  0
 29 30  1  0  0  0
 29 36  1  0  0  0
 29 76  1  0  0  0
 30 31  1  0  0  0
 30 37  1  0  0  0
 30 77  1  0  0  0
 31 32  1  0  0  0
 31 78  1  0  0  0
 32 33  1  0  0  0
 32 38  2  0  0  0
 33 34  1  0  0  0
 33 79  1  0  0  0
 33 80  1  0  0  0
 34 35  1  0  0  0
 35 39  2  0  0  0
 35 43  1  0  0  0
 36 81  1  0  0  0
 37 82  1  0  0  0
 37 83  1  0  0  0
 39 40  1  0  0  0
 39 45  1  0  0  0
 40 41  2  0  0  0
 40 84  1  0  0  0
 41 42  1  0  0  0
 41 85  1  0  0  0
 42 43  2  0  0  0
 42 86  1  0  0  0
 43 44  1  0  0  0
 44 87  1  0  0  0
 44 88  1  0  0  0
 44 89  1  0  0  0
 45 90  1  0  0  0
 45 91  1  0  0  0
 45 92  1  0  0  0
 46 93  1  0  0  0
 46 94  1  0  0  0
M  END
> <s_m_source_file>
../2qhc_ligand.sdf

> <i_m_source_file_index>
1

> <s_epik_input>
Tz1DMVtOSF1bQ0gyXVtDSDJdW0NIMl1OMVtDQEBIXShbQ0hdKFtDSDNdKVtDSDNdKUMoPU8pW05IXVtDQEBIXShbQ0gyXWMyW2NIXVtjSF1bY0hdW2NIXVtjSF0yKVtDSDJdW0NASF0oW09IXSlbQ0BIXShbQ0gyXWMzW2NIXVtjSF1bY0hdW2NIXVtjSF0zKVtOSF1DKD1PKVtDSDJdT2M0YyhbQ0gzXSlbY0hdW2NIXVtjSF1jNFtDSDNd

> <s_epik_cmdline>
J2VwaWtfYXBwJywgJy1pbWFlJywgJ2xpZ2FuZF9wcm8ubWFlJywgJy1vbWFlJywgJ2xpZ2FuZF9wcmVwLm1hZScsICctbXMnLCAnMScsICctcGgnLCAnNycsICctcGh0JywgJzAuNScsICctbnQn

> <r_lp_tautomer_probability>
1

> <r_epik_Ionization_Penalty>
  0.0001

> <r_epik_Ionization_Penalty_Charging>
  0.0000

> <r_epik_Ionization_Penalty_Neutral>
  0.0001

> <r_epik_State_Penalty>
 -0.0000

> <r_epik_Charging_Adjusted_Penalty>
0

> <i_epik_Tot_Q>
0

> <i_epik_Tot_abs_Q>
0

$$$$
