2qhd_ligand
                    3D
 Schrodinger Suite 2020-3.
 37 36  0  0  1  0            999 V2000
  -24.8230   30.3350  -24.1430 O   0  5  0  0  0  0
  -25.2060   28.1680  -23.6500 O   0  0  0  0  0  0
  -25.5260   29.2010  -24.1740 C   0  0  0  0  0  0
  -26.8610   28.9430  -24.8610 C   0  0  0  0  0  0
  -27.8320   30.0450  -24.5610 C   0  0  0  0  0  0
  -29.1830   29.3580  -24.2360 C   0  0  0  0  0  0
  -29.6580   29.6630  -22.8560 C   0  0  0  0  0  0
  -30.0130   28.3540  -22.2240 C   0  0  0  0  0  0
  -31.0130   28.4010  -21.0010 C   0  0  0  0  0  0
  -30.2980   28.6960  -19.7310 C   0  0  0  0  0  0
  -30.0790   27.3930  -18.9510 C   0  0  0  0  0  0
  -28.5670   27.1730  -18.8950 C   0  0  0  0  0  0
  -28.4200   25.9100  -18.1480 C   0  0  0  0  0  0
  -27.6780   24.9430  -19.0300 C   0  0  0  0  0  0
  -26.7090   28.8891  -25.9491 H   0  0  0  0  0  0
  -27.2804   27.9916  -24.5018 H   0  0  0  0  0  0
  -27.4696   30.6293  -23.7024 H   0  0  0  0  0  0
  -27.9241   30.7016  -25.4387 H   0  0  0  0  0  0
  -29.9503   29.7048  -24.9438 H   0  0  0  0  0  0
  -29.0700   28.2673  -24.3231 H   0  0  0  0  0  0
  -28.8556   30.1638  -22.2944 H   0  0  0  0  0  0
  -30.5363   30.3233  -22.9080 H   0  0  0  0  0  0
  -30.4884   27.7026  -22.9721 H   0  0  0  0  0  0
  -29.1007   27.8709  -21.8440 H   0  0  0  0  0  0
  -31.7636   29.1869  -21.1711 H   0  0  0  0  0  0
  -31.5167   27.4282  -20.9016 H   0  0  0  0  0  0
  -29.3245   29.1557  -19.9566 H   0  0  0  0  0  0
  -30.8991   29.3893  -19.1243 H   0  0  0  0  0  0
  -30.5000   27.4957  -17.9400 H   0  0  0  0  0  0
  -30.5788   26.5642  -19.4738 H   0  0  0  0  0  0
  -28.1691   27.0992  -19.9179 H   0  0  0  0  0  0
  -28.0922   28.0194  -18.3771 H   0  0  0  0  0  0
  -27.8554   26.0951  -17.2223 H   0  0  0  0  0  0
  -29.4153   25.5141  -17.8975 H   0  0  0  0  0  0
  -27.5511   23.9871  -18.5007 H   0  0  0  0  0  0
  -26.6903   25.3579  -19.2794 H   0  0  0  0  0  0
  -28.2501   24.7770  -19.9547 H   0  0  0  0  0  0
  1  3  1  0  0  0
  2  3  2  0  0  0
  3  4  1  0  0  0
  4  5  1  0  0  0
  4 15  1  0  0  0
  4 16  1  0  0  0
  5  6  1  0  0  0
  5 17  1  0  0  0
  5 18  1  0  0  0
  6  7  1  0  0  0
  6 19  1  0  0  0
  6 20  1  0  0  0
  7  8  1  0  0  0
  7 21  1  0  0  0
  7 22  1  0  0  0
  8  9  1  0  0  0
  8 23  1  0  0  0
  8 24  1  0  0  0
  9 10  1  0  0  0
  9 25  1  0  0  0
  9 26  1  0  0  0
 10 11  1  0  0  0
 10 27  1  0  0  0
 10 28  1  0  0  0
 11 12  1  0  0  0
 11 29  1  0  0  0
 11 30  1  0  0  0
 12 13  1  0  0  0
 12 31  1  0  0  0
 12 32  1  0  0  0
 13 14  1  0  0  0
 13 33  1  0  0  0
 13 34  1  0  0  0
 14 35  1  0  0  0
 14 36  1  0  0  0
 14 37  1  0  0  0
M  CHG  1   1  -1
M  END
> <s_m_source_file>
../2qhd_ligand.sdf

> <i_m_source_file_index>
1

> <s_epik_input>
W09IXUMoPU8pW0NIMl1bQ0gyXVtDSDJdW0NIMl1bQ0gyXVtDSDJdW0NIMl1bQ0gyXVtDSDJdW0NIMl1bQ0gzXQ==

> <s_epik_cmdline>
J2VwaWtfYXBwJywgJy1pbWFlJywgJ2xpZ2FuZF9wcm8ubWFlJywgJy1vbWFlJywgJ2xpZ2FuZF9wcmVwLm1hZScsICctbXMnLCAnMScsICctcGgnLCAnNycsICctcGh0JywgJzAuNScsICctbnQn

> <r_lp_tautomer_probability>
1

> <r_epik_Ionization_Penalty>
  0.0049

> <r_epik_Ionization_Penalty_Charging>
  0.0049

> <r_epik_Ionization_Penalty_Neutral>
  0.0000

> <r_epik_State_Penalty>
 -0.0000

> <r_epik_Charging_Adjusted_Penalty>
0.00486649495677768

> <i_epik_Tot_Q>
-1

> <i_epik_Tot_abs_Q>
1

$$$$
