2qhm_ligand
                    3D
 Schrodinger Suite 2020-3.
 41 44  0  0  1  0            999 V2000
   13.8370   -1.3160   10.8560 C   0  0  0  0  0  0
   12.2160   -2.3190   12.1620 O   0  0  0  0  0  0
   16.4680   -5.4170   16.3680 C   0  0  0  0  0  0
   13.3400   -2.2880   11.7160 C   0  0  0  0  0  0
   13.1870   -0.2350   10.3460 C   0  0  0  0  0  0
   14.2450   -3.2380   12.0760 O   0  0  0  0  0  0
   16.1430   -2.9440   14.3900 C   0  0  0  0  0  0
   16.8130   -4.0020   13.5420 C   0  0  0  0  0  0
   15.6680   -4.9830   15.1890 N   0  3  2  0  0  0
   16.1490   -5.3540   13.7870 C   0  0  1  0  0  0
   14.9060   -5.4910   12.9380 C   0  0  0  0  0  0
   15.0470   -3.5920   15.2380 C   0  0  2  0  0  0
   13.7200   -3.6970   14.5090 C   0  0  0  0  0  0
   13.8970   -4.3220   13.0530 C   0  0  1  0  0  0
   17.6560   -0.3570    8.8730 C   0  0  0  0  0  0
   16.4400    0.4320    8.8490 N   0  0  0  0  0  0
   15.2540   -0.0220    9.5040 C   0  0  0  0  0  0
   15.1770   -1.2220   10.3020 C   0  0  0  0  0  0
   16.4230   -2.0040   10.3650 C   0  0  0  0  0  0
   17.6850   -1.6040    9.6250 C   0  0  0  0  0  0
   14.0100    0.5880    9.5780 N   0  3  0  0  0  0
   16.8526   -6.4331   16.1962 H   0  0  0  0  0  0
   15.8311   -5.4128   17.2649 H   0  0  0  0  0  0
   17.3111   -4.7256   16.5136 H   0  0  0  0  0  0
   12.1179   -0.0857   10.5577 H   0  0  0  0  0  0
   16.8889   -2.4757   15.0490 H   0  0  0  0  0  0
   15.6983   -2.1783   13.7373 H   0  0  0  0  0  0
   16.7163   -3.7355   12.4792 H   0  0  0  0  0  0
   17.8783   -4.0653   13.8087 H   0  0  0  0  0  0
   14.8610   -5.6995   15.4018 H   0  0  0  0  0  0
   16.7524   -6.2569   13.6117 H   0  0  0  0  0  0
   15.1915   -5.5551   11.8776 H   0  0  0  0  0  0
   14.3630   -6.4029   13.2273 H   0  0  0  0  0  0
   14.8182   -3.0945   16.1920 H   0  0  0  0  0  0
   13.0368   -4.3410   15.0821 H   0  0  0  0  0  0
   13.2785   -2.6949   14.4049 H   0  0  0  0  0  0
   12.9339   -4.7627   12.7559 H   0  0  0  0  0  0
   18.5408   -0.0199    8.3330 H   0  0  0  0  0  0
   16.4391   -2.9104   10.9702 H   0  0  0  0  0  0
   18.5796   -2.2260    9.6548 H   0  0  0  0  0  0
   13.6157    1.5277    9.1639 H   0  0  0  0  0  0
  1  4  1  0  0  0
  1  5  2  0  0  0
  1 18  1  0  0  0
  2  4  2  0  0  0
  3  9  1  0  0  0
  3 22  1  0  0  0
  3 23  1  0  0  0
  3 24  1  0  0  0
  4  6  1  0  0  0
  5 21  1  0  0  0
  5 25  1  0  0  0
  6 14  1  0  0  0
  7  8  1  0  0  0
  7 12  1  0  0  0
  7 26  1  0  0  0
  7 27  1  0  0  0
  8 10  1  0  0  0
  8 28  1  0  0  0
  8 29  1  0  0  0
  9 10  1  0  0  0
  9 12  1  0  0  0
  9 30  1  0  0  0
 10 11  1  0  0  0
 10 31  1  0  0  0
 11 14  1  0  0  0
 11 32  1  0  0  0
 11 33  1  0  0  0
 12 13  1  0  0  0
 12 34  1  0  0  0
 13 14  1  0  0  0
 13 35  1  0  0  0
 13 36  1  0  0  0
 14 37  1  0  0  0
 15 16  2  0  0  0
 15 20  1  0  0  0
 15 38  1  0  0  0
 16 17  1  0  0  0
 17 18  2  0  0  0
 17 21  1  0  0  0
 18 19  1  0  0  0
 19 20  2  0  0  0
 19 39  1  0  0  0
 20 40  1  0  0  0
 21 41  1  0  0  0
M  CHG  2   9   1  21   1
M  END
> <s_m_source_file>
../2qhm_ligand.sdf

> <i_m_source_file_index>
1

> <s_epik_input>
bjFbY0hdW2NIXVtjSF1jKGMxMiljKFtjSF1bbkhdMilDKD1PKU9bQ0BASF0oW0NIMl0zKVtDSDJdW0NAQEhdKFtOQEBIK100W0NIM10pW0NIMl1bQ0gyXVtDQEhdMzQ=

> <s_epik_cmdline>
J2VwaWtfYXBwJywgJy1pbWFlJywgJ2xpZ2FuZF9wcm8ubWFlJywgJy1vbWFlJywgJ2xpZ2FuZF9wcmVwLm1hZScsICctbXMnLCAnMScsICctcGgnLCAnNycsICctcGh0JywgJzAuNScsICctbnQn

> <r_lp_tautomer_probability>
1

> <r_epik_Ionization_Penalty>
  0.0093

> <r_epik_Ionization_Penalty_Charging>
  0.0082

> <r_epik_Ionization_Penalty_Neutral>
  0.0012

> <r_epik_State_Penalty>
 -0.0000

> <r_epik_Charging_Adjusted_Penalty>
0.00818497236544854

> <i_epik_Tot_Q>
2

> <i_epik_Tot_abs_Q>
2

> <s_epik_Chemistry_Notes>
This compound has an ester and may undergo hydrolysis at high or low pH.

$$$$
