2qhn_ligand
                    3D
 Schrodinger Suite 2020-3.
 30 32  0  0  1  0            999 V2000
   20.6950   -2.3020    9.5550 C   0  0  0  0  0  0
   19.6500   -2.9430   10.3190 C   0  0  0  0  0  0
   18.3000   -2.4110   10.2590 C   0  0  0  0  0  0
   18.0320   -1.2250    9.4580 C   0  0  0  0  0  0
   19.0590   -0.5850    8.7630 C   0  0  0  0  0  0
   20.3930   -1.1200    8.7920 C   0  0  0  0  0  0
   17.2220   -3.0070   10.9410 N   0  0  0  0  0  0
   15.9250   -2.5160   10.8570 C   0  0  0  0  0  0
   15.6610   -1.2770   10.1070 C   0  0  0  0  0  0
   16.6670   -0.6590    9.4540 C   0  0  0  0  0  0
   14.9620   -3.0130   11.4100 O   0  0  0  0  0  0
   17.3070   -4.2380   11.8070 C   0  0  0  0  0  0
   16.1200    0.5590    8.8780 N   0  0  0  0  0  0
   14.4610   -0.4930    9.8870 C   0  0  0  0  0  0
   13.0600   -0.7620   10.3980 C   0  0  0  0  0  0
   14.8370    0.5970    9.1460 N   0  3  0  0  0  0
   17.4600   -5.4500   10.8780 C   0  0  0  0  0  0
   21.7054   -2.7109    9.5565 H   0  0  0  0  0  0
   19.8721   -3.8156   10.9333 H   0  0  0  0  0  0
   18.8493    0.3225    8.1969 H   0  0  0  0  0  0
   21.1846   -0.6247    8.2297 H   0  0  0  0  0  0
   18.1761   -4.1561   12.4764 H   0  0  0  0  0  0
   16.3894   -4.3284   12.4069 H   0  0  0  0  0  0
   13.0502   -1.7069   10.9611 H   0  0  0  0  0  0
   12.3670   -0.8351    9.5469 H   0  0  0  0  0  0
   12.7458    0.0608   11.0570 H   0  0  0  0  0  0
   17.5251   -6.3680   11.4806 H   0  0  0  0  0  0
   18.3756   -5.3392   10.2785 H   0  0  0  0  0  0
   16.5890   -5.5115   10.2090 H   0  0  0  0  0  0
   14.2235    1.4341    8.7815 H   0  0  0  0  0  0
  1  2  2  0  0  0
  1  6  1  0  0  0
  1 18  1  0  0  0
  2  3  1  0  0  0
  2 19  1  0  0  0
  3  4  2  0  0  0
  3  7  1  0  0  0
  4  5  1  0  0  0
  4 10  1  0  0  0
  5  6  2  0  0  0
  5 20  1  0  0  0
  6 21  1  0  0  0
  7  8  1  0  0  0
  7 12  1  0  0  0
  8  9  1  0  0  0
  8 11  2  0  0  0
  9 10  2  0  0  0
  9 14  1  0  0  0
 10 13  1  0  0  0
 12 17  1  0  0  0
 12 22  1  0  0  0
 12 23  1  0  0  0
 13 16  1  0  0  0
 14 15  1  0  0  0
 14 16  2  0  0  0
 15 24  1  0  0  0
 15 25  1  0  0  0
 15 26  1  0  0  0
 16 30  1  0  0  0
 17 27  1  0  0  0
 17 28  1  0  0  0
 17 29  1  0  0  0
M  CHG  1  16   1
M  END
> <s_m_source_file>
../2qhn_ligand.sdf

> <i_m_source_file_index>
1

> <s_epik_input>
W2NIXTFbY0hdW2NIXVtjSF1jKGMxMiljM2MoYyhbQ0gzXSluW25IXTMpYyg9TyluMltDSDJdW0NIM10=

> <s_epik_cmdline>
J2VwaWtfYXBwJywgJy1pbWFlJywgJ2xpZ2FuZF9wcm8ubWFlJywgJy1vbWFlJywgJ2xpZ2FuZF9wcmVwLm1hZScsICctbXMnLCAnMScsICctcGgnLCAnNycsICctcGh0JywgJzAuNScsICctbnQn

> <r_lp_tautomer_probability>
1

> <r_epik_Ionization_Penalty>
  0.0000

> <r_epik_Ionization_Penalty_Charging>
  0.0000

> <r_epik_Ionization_Penalty_Neutral>
  0.0000

> <r_epik_State_Penalty>
 -0.0000

> <r_epik_Charging_Adjusted_Penalty>
1.32328673271352e-10

> <i_epik_Tot_Q>
1

> <i_epik_Tot_abs_Q>
1

$$$$
