2qhr_ligand
                    3D
 Schrodinger Suite 2020-3.
185186  0  0  1  0            999 V2000
   71.0930  -27.1170   48.6220 N   0  3  0  0  0  0
   71.9450  -25.9880   48.9640 C   0  0  2  0  0  0
   73.3220  -26.5110   49.4150 C   0  0  0  0  0  0
   73.4210  -27.5020   50.1530 O   0  0  0  0  0  0
   71.3000  -25.1660   50.1120 C   0  0  0  0  0  0
   72.0940  -23.9670   50.4260 C   0  0  0  0  0  0
   69.8930  -24.7580   49.7410 C   0  0  0  0  0  0
   74.3740  -25.8220   49.0030 N   0  0  0  0  0  0
   75.7260  -26.1220   49.4780 C   0  0  2  0  0  0
   76.2130  -25.1810   50.6020 C   0  0  0  0  0  0
   76.1690  -23.9440   50.4780 O   0  0  0  0  0  0
   76.7190  -26.1490   48.2920 C   0  0  0  0  0  0
   78.1790  -25.9440   48.7270 C   0  0  0  0  0  0
   79.1590  -25.8760   47.5520 C   0  0  0  0  0  0
   78.8250  -26.4500   46.4830 O   0  0  0  0  0  0
   80.2510  -25.2520   47.7020 O   0  0  0  0  0  0
   76.6710  -25.7710   51.7050 N   0  0  0  0  0  0
   77.2550  -25.0020   52.8140 C   0  0  2  0  0  0
   78.4960  -24.1710   52.4060 C   0  0  0  0  0  0
   79.3800  -24.6470   51.6790 O   0  0  0  0  0  0
   77.5840  -25.9660   53.9310 C   0  0  0  0  0  0
   78.0140  -25.3270   55.2670 C   0  0  0  0  0  0
   78.2420  -26.4110   56.2720 C   0  0  0  0  0  0
   78.6770  -27.4830   55.8940 O   0  0  0  0  0  0
   77.9130  -26.1750   57.5340 N   0  0  0  0  0  0
   78.5550  -22.9090   52.8300 N   0  0  0  0  0  0
   79.7400  -22.0540   52.5540 C   0  0  2  0  0  0
   80.6540  -22.0320   53.7760 C   0  0  0  0  0  0
   80.1630  -22.1450   54.8930 O   0  0  0  0  0  0
   79.3240  -20.5970   52.4010 C   0  0  0  0  0  0
   78.5360  -20.3100   51.1680 C   0  0  0  0  0  0
   77.1840  -20.5850   51.0620 N   0  0  0  0  0  0
   78.8990  -19.7410   49.9920 C   0  0  0  0  0  0
   76.7540  -20.2070   49.8690 C   0  0  0  0  0  0
   77.7760  -19.6960   49.1980 N   0  0  0  0  0  0
   81.9520  -21.7930   53.5720 N   0  0  0  0  0  0
   82.8870  -21.5420   54.6920 C   0  0  2  0  0  0
   82.5280  -20.2410   55.4100 C   0  0  0  0  0  0
   81.9390  -19.3700   54.7990 O   0  0  0  0  0  0
   84.3330  -21.3670   54.1800 C   0  0  0  0  0  0
   84.8600  -22.5380   53.4060 C   0  0  0  0  0  0
   85.8090  -22.3990   52.4190 N   0  0  0  0  0  0
   84.5850  -23.8640   53.4800 C   0  0  0  0  0  0
   86.0970  -23.5900   51.9170 C   0  0  0  0  0  0
   85.3580  -24.4940   52.5340 N   0  0  0  0  0  0
   82.9550  -20.0820   56.6720 N   0  0  0  0  0  0
   82.8830  -18.7810   57.3610 C   0  0  2  0  0  0
   83.9580  -17.9090   56.7040 C   0  0  0  0  0  0
   84.8810  -18.4490   56.1010 O   0  0  0  0  0  0
   83.0660  -18.9180   58.8960 C   0  0  0  0  0  0
   84.5310  -19.1570   59.4000 C   0  0  0  0  0  0
   84.5130  -19.3080   60.8940 C   0  0  0  0  0  0
   85.8620  -19.2610   61.4850 N   0  0  0  0  0  0
   86.6360  -20.3260   61.6560 C   0  0  0  0  0  0
   87.8540  -20.2120   62.2270 N   0  0  0  0  0  0
   86.1850  -21.5070   61.2230 N   0  0  0  0  0  0
   83.7960  -16.5880   56.7750 N   0  0  0  0  0  0
   84.7410  -15.6270   56.2400 C   0  0  2  0  0  0
   85.5860  -15.2110   57.4110 C   0  0  0  0  0  0
   85.0810  -15.1170   58.5260 O   0  0  0  0  0  0
   84.0130  -14.3660   55.7580 C   0  0  0  0  0  0
   82.9810  -14.5650   54.6410 C   0  0  0  0  0  0
   83.6050  -15.2960   53.4460 C   0  0  0  0  0  0
   84.9600  -14.8250   53.0830 N   0  0  0  0  0  0
   85.1630  -13.8710   52.1740 C   0  0  0  0  0  0
   86.3900  -13.4640   51.8510 N   0  0  0  0  0  0
   84.1020  -13.3150   51.5900 N   0  0  0  0  0  0
   86.8680  -14.9860   57.1640 N   0  0  0  0  0  0
   87.7660  -14.4530   58.1600 C   0  0  2  0  0  0
   88.7510  -13.5850   57.3510 C   0  0  0  0  0  0
   88.8530  -13.7310   56.1370 O   0  0  0  0  0  0
   88.4940  -15.5690   58.9330 C   0  0  2  0  0  0
   89.3290  -14.9560   59.9420 O   0  0  0  0  0  0
   89.4310  -16.3960   57.9830 C   0  0  0  0  0  0
   89.4090  -12.6490   58.0030 N   0  0  0  0  0  0
   90.4230  -11.7810   57.3920 C   0  0  2  0  0  0
   91.5340  -12.6440   56.7550 C   0  0  0  0  0  0
   91.9670  -13.6490   57.3390 O   0  0  0  0  0  0
   91.0640  -10.8910   58.4720 C   0  0  0  0  0  0
   90.0450  -10.2350   59.3750 C   0  0  0  0  0  0
   89.6740   -9.1090   59.0650 O   0  0  0  0  0  0
   89.5700  -10.8250   60.3800 O   0  0  0  0  0  0
   92.0100  -12.2360   55.5940 N   0  0  0  0  0  0
   93.0950  -12.9560   54.8310 C   0  0  2  0  0  0
   92.8530  -14.4550   54.5770 C   0  0  0  0  0  0
   93.7850  -15.2440   54.7950 O   0  0  0  0  0  0
   94.4620  -12.8450   55.5130 C   0  0  0  0  0  0
   94.8500  -11.4150   55.8170 C   0  0  0  0  0  0
   95.1550  -11.0690   56.9640 O   0  0  0  0  0  0
   94.8200  -10.5680   54.7980 N   0  0  0  0  0  0
   91.6300  -14.8400   54.1610 N   0  0  0  0  0  0
   91.2780  -16.2460   53.8650 C   0  0  2  0  0  0
   91.4450  -16.6250   52.3720 C   0  0  0  0  0  0
   92.0790  -15.8330   51.6400 O   0  0  0  0  0  0
   89.8930  -16.5970   54.3940 C   0  0  0  0  0  0
   88.7490  -15.7690   53.7360 C   0  0  0  0  0  0
   89.0570  -14.8600   52.9230 O   0  0  0  0  0  0
   87.5530  -16.0200   54.0530 O   0  0  0  0  0  0
   91.0070  -17.6740   51.8310 O   0  0  0  0  0  0
   71.5573  -27.6935   47.8083 H   0  0  0  0  0  0
   70.1095  -26.7484   48.2953 H   0  0  0  0  0  0
   70.9682  -27.7625   49.5039 H   0  0  0  0  0  0
   72.0324  -25.3838   48.0490 H   0  0  0  0  0  0
   71.2755  -25.7663   51.0334 H   0  0  0  0  0  0
   73.1178  -24.2655   50.6958 H   0  0  0  0  0  0
   71.6333  -23.4328   51.2701 H   0  0  0  0  0  0
   72.1243  -23.3067   49.5468 H   0  0  0  0  0  0
   69.3009  -25.6549   49.5066 H   0  0  0  0  0  0
   69.9225  -24.0980   48.8615 H   0  0  0  0  0  0
   69.4315  -24.2241   50.5848 H   0  0  0  0  0  0
   74.2122  -25.0051   48.2844 H   0  0  0  0  0  0
   75.6204  -27.1233   49.9209 H   0  0  0  0  0  0
   76.6554  -27.1219   47.7827 H   0  0  0  0  0  0
   76.4656  -25.3468   47.5833 H   0  0  0  0  0  0
   78.2662  -25.0002   49.2853 H   0  0  0  0  0  0
   78.4910  -26.7804   49.3698 H   0  0  0  0  0  0
   80.9685  -25.1914   46.8705 H   0  0  0  0  0  0
   76.6025  -26.8668   51.7717 H   0  0  0  0  0  0
   76.4775  -24.2907   53.1294 H   0  0  0  0  0  0
   76.7006  -26.5817   54.1561 H   0  0  0  0  0  0
   78.4150  -26.6166   53.6210 H   0  0  0  0  0  0
   78.9428  -24.7566   55.1185 H   0  0  0  0  0  0
   77.2218  -24.6516   55.6222 H   0  0  0  0  0  0
   77.5238  -25.1884   57.8256 H   0  0  0  0  0  0
   78.0292  -26.9658   58.2898 H   0  0  0  0  0  0
   77.7031  -22.5026   53.3949 H   0  0  0  0  0  0
   80.2024  -22.4740   51.6486 H   0  0  0  0  0  0
   78.7000  -20.3020   53.2575 H   0  0  0  0  0  0
   80.2211  -19.9614   52.3647 H   0  0  0  0  0  0
   79.8555  -19.3502   49.6146 H   0  0  0  0  0  0
   75.7323  -20.3002   49.5007 H   0  0  0  0  0  0
   82.3207  -21.7860   52.5357 H   0  0  0  0  0  0
   82.7781  -22.4193   55.3466 H   0  0  0  0  0  0
   84.3829  -20.4928   53.5142 H   0  0  0  0  0  0
   85.0089  -21.2161   55.0346 H   0  0  0  0  0  0
   83.9071  -24.4516   54.1165 H   0  0  0  0  0  0
   86.8216  -23.7904   51.1278 H   0  0  0  0  0  0
   83.3680  -20.9582   57.1931 H   0  0  0  0  0  0
   81.8794  -18.3539   57.2184 H   0  0  0  0  0  0
   82.7217  -17.9974   59.3899 H   0  0  0  0  0  0
   82.4766  -19.7722   59.2608 H   0  0  0  0  0  0
   84.9329  -20.0712   58.9387 H   0  0  0  0  0  0
   85.1595  -18.2986   59.1206 H   0  0  0  0  0  0
   83.9216  -18.4936   61.3377 H   0  0  0  0  0  0
   84.0618  -20.2755   61.1594 H   0  0  0  0  0  0
   86.2845  -18.3007   61.8156 H   0  0  0  0  0  0
   88.2076  -19.2310   62.5772 H   0  0  0  0  0  0
   88.4928  -21.1001   62.3420 H   0  0  0  0  0  0
   85.1897  -21.5796   60.7604 H   0  0  0  0  0  0
   82.8806  -16.2392   57.2754 H   0  0  0  0  0  0
   85.2957  -16.1066   55.4201 H   0  0  0  0  0  0
   83.4665  -13.9141   56.5989 H   0  0  0  0  0  0
   84.7469  -13.6453   55.3681 H   0  0  0  0  0  0
   82.1394  -15.1623   55.0216 H   0  0  0  0  0  0
   82.6122  -13.5851   54.3037 H   0  0  0  0  0  0
   83.6882  -16.3687   53.6751 H   0  0  0  0  0  0
   82.9687  -15.1588   52.5592 H   0  0  0  0  0  0
   85.8436  -15.2647   53.5687 H   0  0  0  0  0  0
   87.2662  -13.9225   52.3327 H   0  0  0  0  0  0
   83.0888  -13.6506   51.8562 H   0  0  0  0  0  0
   84.2394  -12.5205   50.8417 H   0  0  0  0  0  0
   87.2413  -15.2210   56.1563 H   0  0  0  0  0  0
   87.1798  -13.8913   58.9022 H   0  0  0  0  0  0
   87.7548  -16.2077   59.4386 H   0  0  0  0  0  0
   88.8768  -14.3240   60.7205 H   0  0  0  0  0  0
   88.8266  -16.8778   57.2003 H   0  0  0  0  0  0
   89.9569  -17.1662   58.5663 H   0  0  0  0  0  0
   90.1661  -15.7235   57.5167 H   0  0  0  0  0  0
   89.1593  -12.5375   59.0685 H   0  0  0  0  0  0
   89.8949  -11.1792   56.6377 H   0  0  0  0  0  0
   91.7275  -11.5005   59.1031 H   0  0  0  0  0  0
   91.6477  -10.0927   57.9903 H   0  0  0  0  0  0
   88.8296  -10.3181   61.0164 H   0  0  0  0  0  0
   91.5694  -11.3145   55.1858 H   0  0  0  0  0  0
   93.0628  -12.4181   53.8720 H   0  0  0  0  0  0
   94.4433  -13.3978   56.4638 H   0  0  0  0  0  0
   95.2350  -13.2709   54.8564 H   0  0  0  0  0  0
   94.5421  -10.9239   53.7950 H   0  0  0  0  0  0
   95.0730   -9.5091   54.9553 H   0  0  0  0  0  0
   90.8756  -14.0479   54.0445 H   0  0  0  0  0  0
   92.0189  -16.8243   54.4365 H   0  0  0  0  0  0
   89.6847  -17.6594   54.1995 H   0  0  0  0  0  0
   89.8555  -16.4083   55.4770 H   0  0  0  0  0  0
   86.7317  -15.4461   53.5991 H   0  0  0  0  0  0
   91.1780  -17.8527   50.7592 H   0  0  0  0  0  0
  1  2  1  0  0  0
  1100  1  0  0  0
  1101  1  0  0  0
  1102  1  0  0  0
  2  3  1  0  0  0
  2  5  1  0  0  0
  2103  1  0  0  0
  3  4  2  0  0  0
  3  8  1  0  0  0
  5  6  1  0  0  0
  5  7  1  0  0  0
  5104  1  0  0  0
  6105  1  0  0  0
  6106  1  0  0  0
  6107  1  0  0  0
  7108  1  0  0  0
  7109  1  0  0  0
  7110  1  0  0  0
  8  9  1  0  0  0
  8111  1  0  0  0
  9 10  1  0  0  0
  9 12  1  0  0  0
  9112  1  0  0  0
 10 11  2  0  0  0
 10 17  1  0  0  0
 12 13  1  0  0  0
 12113  1  0  0  0
 12114  1  0  0  0
 13 14  1  0  0  0
 13115  1  0  0  0
 13116  1  0  0  0
 14 15  2  0  0  0
 14 16  1  0  0  0
 16117  1  0  0  0
 17 18  1  0  0  0
 17118  1  0  0  0
 18 19  1  0  0  0
 18 21  1  0  0  0
 18119  1  0  0  0
 19 20  2  0  0  0
 19 26  1  0  0  0
 21 22  1  0  0  0
 21120  1  0  0  0
 21121  1  0  0  0
 22 23  1  0  0  0
 22122  1  0  0  0
 22123  1  0  0  0
 23 24  2  0  0  0
 23 25  1  0  0  0
 25124  1  0  0  0
 25125  1  0  0  0
 26 27  1  0  0  0
 26126  1  0  0  0
 27 28  1  0  0  0
 27 30  1  0  0  0
 27127  1  0  0  0
 28 29  2  0  0  0
 28 36  1  0  0  0
 30 31  1  0  0  0
 30128  1  0  0  0
 30129  1  0  0  0
 31 32  2  0  0  0
 31 33  1  0  0  0
 32 34  1  0  0  0
 33 35  2  0  0  0
 33130  1  0  0  0
 34 35  1  0  0  0
 34131  1  0  0  0
 36 37  1  0  0  0
 36132  1  0  0  0
 37 38  1  0  0  0
 37 40  1  0  0  0
 37133  1  0  0  0
 38 39  2  0  0  0
 38 46  1  0  0  0
 40 41  1  0  0  0
 40134  1  0  0  0
 40135  1  0  0  0
 41 42  2  0  0  0
 41 43  1  0  0  0
 42 44  1  0  0  0
 43 45  2  0  0  0
 43136  1  0  0  0
 44 45  1  0  0  0
 44137  1  0  0  0
 46 47  1  0  0  0
 46138  1  0  0  0
 47 48  1  0  0  0
 47 50  1  0  0  0
 47139  1  0  0  0
 48 49  2  0  0  0
 48 57  1  0  0  0
 50 51  1  0  0  0
 50140  1  0  0  0
 50141  1  0  0  0
 51 52  1  0  0  0
 51142  1  0  0  0
 51143  1  0  0  0
 52 53  1  0  0  0
 52144  1  0  0  0
 52145  1  0  0  0
 53 54  1  0  0  0
 53146  1  0  0  0
 54 55  1  0  0  0
 54 56  2  0  0  0
 55147  1  0  0  0
 55148  1  0  0  0
 56149  1  0  0  0
 57 58  1  0  0  0
 57150  1  0  0  0
 58 59  1  0  0  0
 58 61  1  0  0  0
 58151  1  0  0  0
 59 60  2  0  0  0
 59 68  1  0  0  0
 61 62  1  0  0  0
 61152  1  0  0  0
 61153  1  0  0  0
 62 63  1  0  0  0
 62154  1  0  0  0
 62155  1  0  0  0
 63 64  1  0  0  0
 63156  1  0  0  0
 63157  1  0  0  0
 64 65  1  0  0  0
 64158  1  0  0  0
 65 66  2  0  0  0
 65 67  1  0  0  0
 66159  1  0  0  0
 67160  1  0  0  0
 67161  1  0  0  0
 68 69  1  0  0  0
 68162  1  0  0  0
 69 70  1  0  0  0
 69 72  1  0  0  0
 69163  1  0  0  0
 70 71  2  0  0  0
 70 75  1  0  0  0
 72 73  1  0  0  0
 72 74  1  0  0  0
 72164  1  0  0  0
 73165  1  0  0  0
 74166  1  0  0  0
 74167  1  0  0  0
 74168  1  0  0  0
 75 76  1  0  0  0
 75169  1  0  0  0
 76 77  1  0  0  0
 76 79  1  0  0  0
 76170  1  0  0  0
 77 78  2  0  0  0
 77 83  1  0  0  0
 79 80  1  0  0  0
 79171  1  0  0  0
 79172  1  0  0  0
 80 81  2  0  0  0
 80 82  1  0  0  0
 82173  1  0  0  0
 83 84  1  0  0  0
 83174  1  0  0  0
 84 85  1  0  0  0
 84 87  1  0  0  0
 84175  1  0  0  0
 85 86  2  0  0  0
 85 91  1  0  0  0
 87 88  1  0  0  0
 87176  1  0  0  0
 87177  1  0  0  0
 88 89  2  0  0  0
 88 90  1  0  0  0
 90178  1  0  0  0
 90179  1  0  0  0
 91 92  1  0  0  0
 91180  1  0  0  0
 92 93  1  0  0  0
 92 95  1  0  0  0
 92181  1  0  0  0
 93 94  2  0  0  0
 93 99  1  0  0  0
 95 96  1  0  0  0
 95182  1  0  0  0
 95183  1  0  0  0
 96 97  2  0  0  0
 96 98  1  0  0  0
 98184  1  0  0  0
 99185  1  0  0  0
M  CHG  1   1   1
M  END
> <s_m_source_file>
../2qhr_ligand.sdf

> <i_m_source_file_index>
1

> <s_epik_input>
W0NIM11bQ0hdKFtDSDNdKVtDQEhdKFtOSDMrXSlDKD1PKVtOSF1bQ0BASF0oW0NIMl1bQ0gyXUMoPU8pW09IXSlDKD1PKVtOSF1bQ0BASF0oW0NIMl1bQ0gyXUMoPU8pW05IMl0pQyg9TylbTkhdW0NAQEhdKFtDSDJdQzE9TltDSDJdTj1bQ0hdMSlDKD1PKVtOSF1bQ0BASF0oW0NIMl1DMj1OW0NIMl1OPVtDSF0yKUMoPU8pW05IXVtDQEBIXShbQ0gyXVtDSDJdW0NIMl1bTkhdL0MoW05IMl0pPU5cW0hdKUMoPU8pW05IXVtDQEBIXShbQ0gyXVtDSDJdW0NIMl1bTkhdL0MoPU5cW0hdKVtOSDJdKUMoPU8pW05IXVtDQEBIXShbQ0BIXShbT0hdKVtDSDNdKUMoPU8pW05IXVtDQEBIXShbQ0gyXUMoPU8pW09IXSlDKD1PKVtOSF1bQ0BASF0oW0NIMl1DKD1PKVtOSDJdKUMoPU8pW05IXVtDQEhdKEMoPU8pW09IXSlbQ0gyXUMoPU8pW09IXQ==

> <s_epik_cmdline>
J2VwaWtfYXBwJywgJy1pbWFlJywgJ2xpZ2FuZF9wcm8ubWFlJywgJy1vbWFlJywgJ2xpZ2FuZF9wcmVwLm1hZScsICctbXMnLCAnMScsICctcGgnLCAnNycsICctcGh0JywgJzAuNScsICctbnQn

> <s_epik_pKa_notes>
Molecule size exceeds maximum supported for generating protonation states

> <s_epik_Chemistry_Notes>
This compound has an imine and may undergo hydrolysis.

$$$$
