2qhy_ligand
                    3D
 Schrodinger Suite 2020-3.
 67 69  0  0  1  0            999 V2000
   22.2540   25.1830   11.8000 O   0  0  0  0  0  0
   21.9560   25.9700   10.9070 C   0  0  0  0  0  0
   21.4550   25.4120    9.5860 C   0  0  0  0  0  0
   22.0820   27.2940   11.0520 N   0  0  0  0  0  0
   22.5580   27.9200   12.2820 C   0  0  1  0  0  0
   23.9060   28.6100   12.0710 C   0  0  0  0  0  0
   21.4960   28.9050   12.7540 C   0  0  0  0  0  0
   21.3210   29.9680   12.1470 O   0  0  0  0  0  0
   20.7850   28.5600   13.8350 N   0  0  0  0  0  0
   19.7080   29.3840   14.4030 C   0  0  1  0  0  0
   18.4320   28.5360   14.3140 C   0  0  0  0  0  0
   18.1280   28.1890   12.8530 C   0  0  0  0  0  0
   17.5640   29.1340   12.0000 C   0  0  0  0  0  0
   17.2960   28.8200   10.6690 C   0  0  0  0  0  0
   17.6010   27.5600   10.1740 C   0  0  0  0  0  0
   18.1720   26.6130   11.0130 C   0  0  0  0  0  0
   18.4340   26.9260   12.3470 C   0  0  0  0  0  0
   20.0740   29.7720   15.8450 C   0  0  2  0  0  0
   20.0760   28.6160   16.6920 O   0  0  0  0  0  0
   19.1170   30.8480   16.4200 C   0  0  0  0  0  0
   19.4300   32.1510   15.7720 N   0  0  1  0  0  0
   18.1900   32.8610   14.9870 S   0  0  0  0  0  0
   18.8410   33.6980   14.0410 O   0  0  0  0  0  0
   17.4870   31.8250   14.3000 O   0  0  0  0  0  0
   17.1670   33.7640   15.8930 C   0  0  0  0  0  0
   17.2260   35.1630   15.8810 C   0  0  0  0  0  0
   16.3550   35.9570   16.6510 C   0  0  0  0  0  0
   16.4260   37.3070   16.6510 F   0  0  0  0  0  0
   16.1810   33.1920   16.7060 C   0  0  0  0  0  0
   16.0370   31.8710   16.7730 F   0  0  0  0  0  0
   15.3020   33.9760   17.4730 C   0  0  0  0  0  0
   15.3900   35.3590   17.4490 C   0  0  0  0  0  0
   14.5580   36.1310   18.1840 F   0  0  0  0  0  0
   20.2090   33.1080   16.6120 C   0  0  0  0  0  0
   21.6480   33.1380   16.1060 C   0  0  0  0  0  0
   22.7040   33.2600   16.9470 C   0  0  0  0  0  0
   23.8980   33.2210   16.1760 C   0  0  0  0  0  0
   23.6610   33.0770   14.8640 C   0  0  0  0  0  0
   22.0490   32.9860   14.4800 S   0  0  0  0  0  0
   21.4138   24.3143    9.6437 H   0  0  0  0  0  0
   22.1393   25.7113    8.7784 H   0  0  0  0  0  0
   20.4491   25.8063    9.3793 H   0  0  0  0  0  0
   21.8072   27.9173   10.1883 H   0  0  0  0  0  0
   22.7031   27.1190   13.0219 H   0  0  0  0  0  0
   24.6469   27.8712   11.7314 H   0  0  0  0  0  0
   24.2415   29.0568   13.0185 H   0  0  0  0  0  0
   23.7994   29.3983   11.3113 H   0  0  0  0  0  0
   21.0465   27.5988   14.3016 H   0  0  0  0  0  0
   19.5867   30.3168   13.8327 H   0  0  0  0  0  0
   18.5698   27.6053   14.8839 H   0  0  0  0  0  0
   17.5863   29.1008   14.7333 H   0  0  0  0  0  0
   17.3297   30.1295   12.3771 H   0  0  0  0  0  0
   16.8454   29.5664   10.0148 H   0  0  0  0  0  0
   17.3934   27.3153    9.1323 H   0  0  0  0  0  0
   18.4162   25.6227   10.6287 H   0  0  0  0  0  0
   18.8819   26.1767   12.9997 H   0  0  0  0  0  0
   21.1107   30.1393   15.8607 H   0  0  0  0  0  0
   20.7018   27.7482   16.4367 H   0  0  0  0  0  0
   18.0758   30.5634   16.2084 H   0  0  0  0  0  0
   19.2624   30.9245   17.5077 H   0  0  0  0  0  0
   17.9711   35.6536   15.2547 H   0  0  0  0  0  0
   14.5455   33.4928   18.0913 H   0  0  0  0  0  0
   19.7633   34.1107   16.5345 H   0  0  0  0  0  0
   20.1872   32.7771   17.6608 H   0  0  0  0  0  0
   22.6475   33.3694   18.0300 H   0  0  0  0  0  0
   24.8971   33.2996   16.6047 H   0  0  0  0  0  0
   24.4542   33.0245   14.1183 H   0  0  0  0  0  0
  1  2  2  0  0  0
  2  3  1  0  0  0
  2  4  1  0  0  0
  3 40  1  0  0  0
  3 41  1  0  0  0
  3 42  1  0  0  0
  4  5  1  0  0  0
  4 43  1  0  0  0
  5  6  1  0  0  0
  5  7  1  0  0  0
  5 44  1  0  0  0
  6 45  1  0  0  0
  6 46  1  0  0  0
  6 47  1  0  0  0
  7  8  2  0  0  0
  7  9  1  0  0  0
  9 10  1  0  0  0
  9 48  1  0  0  0
 10 11  1  0  0  0
 10 18  1  0  0  0
 10 49  1  0  0  0
 11 12  1  0  0  0
 11 50  1  0  0  0
 11 51  1  0  0  0
 12 13  2  0  0  0
 12 17  1  0  0  0
 13 14  1  0  0  0
 13 52  1  0  0  0
 14 15  2  0  0  0
 14 53  1  0  0  0
 15 16  1  0  0  0
 15 54  1  0  0  0
 16 17  2  0  0  0
 16 55  1  0  0  0
 17 56  1  0  0  0
 18 19  1  0  0  0
 18 20  1  0  0  0
 18 57  1  0  0  0
 19 58  1  0  0  0
 20 21  1  0  0  0
 20 59  1  0  0  0
 20 60  1  0  0  0
 21 22  1  0  0  0
 21 34  1  0  0  0
 22 23  2  0  0  0
 22 24  2  0  0  0
 22 25  1  0  0  0
 25 26  2  0  0  0
 25 29  1  0  0  0
 26 27  1  0  0  0
 26 61  1  0  0  0
 27 28  1  0  0  0
 27 32  2  0  0  0
 29 30  1  0  0  0
 29 31  2  0  0  0
 31 32  1  0  0  0
 31 62  1  0  0  0
 32 33  1  0  0  0
 34 35  1  0  0  0
 34 63  1  0  0  0
 34 64  1  0  0  0
 35 36  2  0  0  0
 35 39  1  0  0  0
 36 37  1  0  0  0
 36 65  1  0  0  0
 37 38  2  0  0  0
 37 66  1  0  0  0
 38 39  1  0  0  0
 38 67  1  0  0  0
M  END
> <s_m_source_file>
../2qhy_ligand.sdf

> <i_m_source_file_index>
1

> <s_epik_input>
W2NIXTFbY0hdW2NIXVtjSF1bY0hdYzFbQ0gyXVtDQEhdKFtOSF1DKD1PKVtDQEhdKFtDSDNdKVtOSF1DKD1PKVtDSDNdKVtDQEhdKFtPSF0pW0NIMl1OKFtDSDJdYzJbY0hdW2NIXVtjSF1zMilTKD1PKSg9TyljM1tjSF1jKEYpYyhGKVtjSF1jM0Y=

> <s_epik_cmdline>
J2VwaWtfYXBwJywgJy1pbWFlJywgJ2xpZ2FuZF9wcm8ubWFlJywgJy1vbWFlJywgJ2xpZ2FuZF9wcmVwLm1hZScsICctbXMnLCAnMScsICctcGgnLCAnNycsICctcGh0JywgJzAuNScsICctbnQn

> <r_lp_tautomer_probability>
1

> <r_epik_Ionization_Penalty>
  0.0000

> <r_epik_Ionization_Penalty_Charging>
  0.0000

> <r_epik_Ionization_Penalty_Neutral>
  0.0000

> <r_epik_State_Penalty>
 -0.0000

> <r_epik_Charging_Adjusted_Penalty>
0

> <i_epik_Tot_Q>
0

> <i_epik_Tot_abs_Q>
0

$$$$
