2qi0_ligand
                    3D
 Schrodinger Suite 2020-3.
 71 74  0  0  1  0            999 V2000
   26.0590   27.3430   11.9470 F   0  0  0  0  0  0
   24.7440   27.1990   11.6950 C   0  0  0  0  0  0
   24.2940   26.1780   10.8680 C   0  0  0  0  0  0
   22.9390   26.0370   10.6160 C   0  0  0  0  0  0
   22.0330   26.9120   11.2060 C   0  0  0  0  0  0
   23.8430   28.0790   12.2630 C   0  0  0  0  0  0
   24.3250   29.1820   13.1520 C   0  0  0  0  0  0
   22.4880   27.9420   12.0290 C   0  0  0  0  0  0
   21.5100   28.9360   12.6350 C   0  0  0  0  0  0
   21.5280   30.0610   12.1780 O   0  0  0  0  0  0
   20.6720   28.5760   13.6090 N   0  0  0  0  0  0
   19.6790   29.4590   14.2150 C   0  0  1  0  0  0
   18.4020   28.6120   14.2450 C   0  0  0  0  0  0
   18.0200   28.1830   12.8350 C   0  0  0  0  0  0
   17.5380   29.1100   11.9310 C   0  0  0  0  0  0
   17.1840   28.7020   10.6530 C   0  0  0  0  0  0
   17.3110   27.3760   10.2650 C   0  0  0  0  0  0
   17.8000   26.4430   11.1690 C   0  0  0  0  0  0
   18.1500   26.8520   12.4520 C   0  0  0  0  0  0
   20.1000   29.8630   15.6340 C   0  0  2  0  0  0
   20.0710   28.7450   16.5360 O   0  0  0  0  0  0
   19.1760   30.9390   16.2300 C   0  0  0  0  0  0
   19.4250   32.2220   15.5460 N   0  0  2  0  0  0
   20.1690   33.2180   16.3540 C   0  0  0  0  0  0
   21.6560   33.1850   15.9960 C   0  0  0  0  0  0
   22.6030   33.1760   16.9610 C   0  0  0  0  0  0
   23.8990   33.1370   16.3600 C   0  0  0  0  0  0
   23.8050   33.1250   15.0100 C   0  0  0  0  0  0
   22.2440   33.1420   14.4230 S   0  0  0  0  0  0
   18.1010   32.7860   14.7930 S   0  0  0  0  0  0
   18.5870   33.6010   13.7100 O   0  0  0  0  0  0
   17.3690   31.6840   14.2440 O   0  0  0  0  0  0
   17.1290   33.6360   15.7700 C   0  0  0  0  0  0
   17.3850   34.9820   16.0000 C   0  0  0  0  0  0
   16.5790   35.7500   16.8370 C   0  0  0  0  0  0
   16.9200   37.0850   16.9990 O   0  0  0  0  0  0
   16.1300   38.0210   17.7200 C   0  0  0  0  0  0
   15.4840   35.1480   17.4720 C   0  0  0  0  0  0
   15.1960   33.8100   17.2350 C   0  0  0  0  0  0
   16.0200   33.0580   16.3920 C   0  0  0  0  0  0
   25.0069   25.4876   10.4172 H   0  0  0  0  0  0
   22.5844   25.2436    9.9581 H   0  0  0  0  0  0
   20.9648   26.7925   11.0247 H   0  0  0  0  0  0
   25.4218   29.1410   13.2253 H   0  0  0  0  0  0
   23.8859   29.0640   14.1536 H   0  0  0  0  0  0
   24.0216   30.1517   12.7305 H   0  0  0  0  0  0
   20.7654   27.5353   13.9529 H   0  0  0  0  0  0
   19.5835   30.3838   13.6271 H   0  0  0  0  0  0
   18.5709   27.7157   14.8599 H   0  0  0  0  0  0
   17.5802   29.2027   14.6759 H   0  0  0  0  0  0
   17.4364   30.1560   12.2202 H   0  0  0  0  0  0
   16.8002   29.4345    9.9429 H   0  0  0  0  0  0
   17.0289   27.0692    9.2578 H   0  0  0  0  0  0
   17.9089   25.3987   10.8762 H   0  0  0  0  0  0
   18.5305   26.1209   13.1654 H   0  0  0  0  0  0
   21.1447   30.2021   15.5739 H   0  0  0  0  0  0
   20.6633   27.8448   16.3153 H   0  0  0  0  0  0
   18.1267   30.6412   16.0873 H   0  0  0  0  0  0
   19.3838   31.0463   17.3049 H   0  0  0  0  0  0
   19.7725   34.2239   16.1519 H   0  0  0  0  0  0
   20.0509   32.9852   17.4226 H   0  0  0  0  0  0
   22.4078   33.1955   18.0332 H   0  0  0  0  0  0
   24.8373   33.1193   16.9145 H   0  0  0  0  0  0
   24.6789   33.1058   14.3589 H   0  0  0  0  0  0
   18.2401   35.4499   15.5121 H   0  0  0  0  0  0
   16.6189   39.0062   17.6995 H   0  0  0  0  0  0
   16.0244   37.6857   18.7623 H   0  0  0  0  0  0
   15.1354   38.0955   17.2562 H   0  0  0  0  0  0
   14.8595   35.7289   18.1507 H   0  0  0  0  0  0
   14.3287   33.3468   17.7056 H   0  0  0  0  0  0
   15.7937   32.0061   16.2178 H   0  0  0  0  0  0
  1  2  1  0  0  0
  2  3  2  0  0  0
  2  6  1  0  0  0
  3  4  1  0  0  0
  3 41  1  0  0  0
  4  5  2  0  0  0
  4 42  1  0  0  0
  5  8  1  0  0  0
  5 43  1  0  0  0
  6  7  1  0  0  0
  6  8  2  0  0  0
  7 44  1  0  0  0
  7 45  1  0  0  0
  7 46  1  0  0  0
  8  9  1  0  0  0
  9 10  2  0  0  0
  9 11  1  0  0  0
 11 12  1  0  0  0
 11 47  1  0  0  0
 12 13  1  0  0  0
 12 20  1  0  0  0
 12 48  1  0  0  0
 13 14  1  0  0  0
 13 49  1  0  0  0
 13 50  1  0  0  0
 14 15  2  0  0  0
 14 19  1  0  0  0
 15 16  1  0  0  0
 15 51  1  0  0  0
 16 17  2  0  0  0
 16 52  1  0  0  0
 17 18  1  0  0  0
 17 53  1  0  0  0
 18 19  2  0  0  0
 18 54  1  0  0  0
 19 55  1  0  0  0
 20 21  1  0  0  0
 20 22  1  0  0  0
 20 56  1  0  0  0
 21 57  1  0  0  0
 22 23  1  0  0  0
 22 58  1  0  0  0
 22 59  1  0  0  0
 23 24  1  0  0  0
 23 30  1  0  0  0
 24 25  1  0  0  0
 24 60  1  0  0  0
 24 61  1  0  0  0
 25 26  2  0  0  0
 25 29  1  0  0  0
 26 27  1  0  0  0
 26 62  1  0  0  0
 27 28  2  0  0  0
 27 63  1  0  0  0
 28 29  1  0  0  0
 28 64  1  0  0  0
 30 31  2  0  0  0
 30 32  2  0  0  0
 30 33  1  0  0  0
 33 34  2  0  0  0
 33 40  1  0  0  0
 34 35  1  0  0  0
 34 65  1  0  0  0
 35 36  1  0  0  0
 35 38  2  0  0  0
 36 37  1  0  0  0
 37 66  1  0  0  0
 37 67  1  0  0  0
 37 68  1  0  0  0
 38 39  1  0  0  0
 38 69  1  0  0  0
 39 40  2  0  0  0
 39 70  1  0  0  0
 40 71  1  0  0  0
M  END
> <s_m_source_file>
../2qi0_ligand.sdf

> <i_m_source_file_index>
1

> <s_epik_input>
RmMxW2NIXVtjSF1bY0hdYyhjMVtDSDNdKUMoPU8pW05IXVtDQEBIXShbQ0gyXWMyW2NIXVtjSF1bY0hdW2NIXVtjSF0yKVtDQEhdKFtPSF0pW0NIMl1OKFtDSDJdYzNbY0hdW2NIXVtjSF1zMylTKD1PKSg9TyljNFtjSF1jKE9bQ0gzXSlbY0hdW2NIXVtjSF00

> <s_epik_cmdline>
J2VwaWtfYXBwJywgJy1pbWFlJywgJ2xpZ2FuZF9wcm8ubWFlJywgJy1vbWFlJywgJ2xpZ2FuZF9wcmVwLm1hZScsICctbXMnLCAnMScsICctcGgnLCAnNycsICctcGh0JywgJzAuNScsICctbnQn

> <r_lp_tautomer_probability>
1

> <r_epik_Ionization_Penalty>
  0.0000

> <r_epik_Ionization_Penalty_Charging>
  0.0000

> <r_epik_Ionization_Penalty_Neutral>
  0.0000

> <r_epik_State_Penalty>
 -0.0000

> <r_epik_Charging_Adjusted_Penalty>
0

> <i_epik_Tot_Q>
0

> <i_epik_Tot_abs_Q>
0

$$$$
