2qi1_ligand
                    3D
 Schrodinger Suite 2020-3.
 70 73  0  0  1  0            999 V2000
   17.1220   31.6020   14.3590 O   0  0  0  0  0  0
   17.8400   32.7330   14.8730 S   0  0  0  0  0  0
   18.2750   33.5550   13.7780 O   0  0  0  0  0  0
   16.8800   33.6080   15.8550 C   0  0  0  0  0  0
   15.8300   33.0160   16.5670 C   0  0  0  0  0  0
   15.0200   33.7810   17.4110 C   0  0  0  0  0  0
   15.2430   35.1470   17.5690 C   0  0  0  0  0  0
   16.2880   35.7550   16.8700 C   0  0  0  0  0  0
   16.5500   37.1000   16.9910 O   0  0  0  0  0  0
   16.0760   37.8990   18.0720 C   0  0  0  0  0  0
   17.0910   34.9810   16.0220 C   0  0  0  0  0  0
   19.1920   32.2040   15.6080 N   0  0  1  0  0  0
   19.9830   33.2230   16.3500 C   0  0  0  0  0  0
   21.4570   33.0460   15.9320 C   0  0  0  0  0  0
   21.9400   32.8560   14.3260 S   0  0  0  0  0  0
   23.5230   32.7310   14.8390 C   0  0  0  0  0  0
   23.7150   32.8560   16.1740 C   0  0  0  0  0  0
   22.4660   33.0190   16.8400 C   0  0  0  0  0  0
   19.0490   30.9450   16.3700 C   0  0  0  0  0  0
   20.0810   29.9190   15.8420 C   0  0  1  0  0  0
   20.0870   28.7830   16.7170 O   0  0  0  0  0  0
   19.7790   29.5210   14.3860 C   0  0  2  0  0  0
   18.5780   28.5630   14.2320 C   0  0  0  0  0  0
   18.3100   28.2510   12.7430 C   0  0  0  0  0  0
   18.8130   27.0880   12.1450 C   0  0  0  0  0  0
   18.5810   26.8050   10.7970 C   0  0  0  0  0  0
   17.8330   27.6900   10.0270 C   0  0  0  0  0  0
   17.3310   28.8480   10.6140 C   0  0  0  0  0  0
   17.5650   29.1240   11.9580 C   0  0  0  0  0  0
   20.9330   28.8070   13.8230 N   0  0  0  0  0  0
   21.4610   29.1590   12.6240 C   0  0  0  0  0  0
   21.0620   30.0780   11.9200 O   0  0  0  0  0  0
   22.6150   28.3490   12.0700 C   0  0  0  0  0  0
   23.6150   27.8510   12.8980 C   0  0  0  0  0  0
   24.6330   27.0880   12.3510 C   0  0  0  0  0  0
   22.6330   28.0830   10.7100 C   0  0  0  0  0  0
   23.6530   27.3330   10.1590 C   0  0  0  0  0  0
   23.6870   27.0820    8.8140 O   0  0  0  0  0  0
   24.6460   26.8280   10.9860 C   0  0  0  0  0  0
   25.6560   26.0970   10.4320 O   0  0  0  0  0  0
   15.6422   31.9474   16.4621 H   0  0  0  0  0  0
   14.2037   33.3028   17.9523 H   0  0  0  0  0  0
   14.6082   35.7354   18.2316 H   0  0  0  0  0  0
   16.4188   38.9358   17.9395 H   0  0  0  0  0  0
   16.4670   37.5019   19.0204 H   0  0  0  0  0  0
   14.9764   37.8759   18.0903 H   0  0  0  0  0  0
   17.9031   35.4621   15.4769 H   0  0  0  0  0  0
   19.6236   34.2288   16.0872 H   0  0  0  0  0  0
   19.8648   33.0625   17.4318 H   0  0  0  0  0  0
   24.3471   32.5602   14.1463 H   0  0  0  0  0  0
   24.6863   32.8349   16.6682 H   0  0  0  0  0  0
   22.3393   33.1087   17.9189 H   0  0  0  0  0  0
   19.2310   31.1397   17.4372 H   0  0  0  0  0  0
   18.0309   30.5499   16.2377 H   0  0  0  0  0  0
   21.1077   30.3117   15.8830 H   0  0  0  0  0  0
   20.2891   28.9163   17.7900 H   0  0  0  0  0  0
   19.5913   30.4586   13.8422 H   0  0  0  0  0  0
   18.7908   27.6208   14.7582 H   0  0  0  0  0  0
   17.6796   29.0289   14.6631 H   0  0  0  0  0  0
   19.3974   26.3897   12.7441 H   0  0  0  0  0  0
   18.9838   25.8957   10.3508 H   0  0  0  0  0  0
   17.6420   27.4787    8.9749 H   0  0  0  0  0  0
   16.7479   29.5468   10.0142 H   0  0  0  0  0  0
   17.1599   30.0343   12.3999 H   0  0  0  0  0  0
   21.3850   27.9701   14.3755 H   0  0  0  0  0  0
   23.5978   28.0593   13.9678 H   0  0  0  0  0  0
   25.4225   26.6922   12.9899 H   0  0  0  0  0  0
   21.8376   28.4680   10.0718 H   0  0  0  0  0  0
   22.8990   27.4830    8.1596 H   0  0  0  0  0  0
   26.4529   25.6878   11.0703 H   0  0  0  0  0  0
  1  2  2  0  0  0
  2  3  2  0  0  0
  2  4  1  0  0  0
  2 12  1  0  0  0
  4  5  2  0  0  0
  4 11  1  0  0  0
  5  6  1  0  0  0
  5 41  1  0  0  0
  6  7  2  0  0  0
  6 42  1  0  0  0
  7  8  1  0  0  0
  7 43  1  0  0  0
  8  9  1  0  0  0
  8 11  2  0  0  0
  9 10  1  0  0  0
 10 44  1  0  0  0
 10 45  1  0  0  0
 10 46  1  0  0  0
 11 47  1  0  0  0
 12 13  1  0  0  0
 12 19  1  0  0  0
 13 14  1  0  0  0
 13 48  1  0  0  0
 13 49  1  0  0  0
 14 15  1  0  0  0
 14 18  2  0  0  0
 15 16  1  0  0  0
 16 17  2  0  0  0
 16 50  1  0  0  0
 17 18  1  0  0  0
 17 51  1  0  0  0
 18 52  1  0  0  0
 19 20  1  0  0  0
 19 53  1  0  0  0
 19 54  1  0  0  0
 20 21  1  0  0  0
 20 22  1  0  0  0
 20 55  1  0  0  0
 21 56  1  0  0  0
 22 23  1  0  0  0
 22 30  1  0  0  0
 22 57  1  0  0  0
 23 24  1  0  0  0
 23 58  1  0  0  0
 23 59  1  0  0  0
 24 25  2  0  0  0
 24 29  1  0  0  0
 25 26  1  0  0  0
 25 60  1  0  0  0
 26 27  2  0  0  0
 26 61  1  0  0  0
 27 28  1  0  0  0
 27 62  1  0  0  0
 28 29  2  0  0  0
 28 63  1  0  0  0
 29 64  1  0  0  0
 30 31  1  0  0  0
 30 65  1  0  0  0
 31 32  2  0  0  0
 31 33  1  0  0  0
 33 34  2  0  0  0
 33 36  1  0  0  0
 34 35  1  0  0  0
 34 66  1  0  0  0
 35 39  2  0  0  0
 35 67  1  0  0  0
 36 37  2  0  0  0
 36 68  1  0  0  0
 37 38  1  0  0  0
 37 39  1  0  0  0
 38 69  1  0  0  0
 39 40  1  0  0  0
 40 70  1  0  0  0
M  END
> <s_m_source_file>
../2qi1_ligand.sdf

> <i_m_source_file_index>
1

> <s_epik_input>
W0NIM11PYyhbY0hdMSlbY0hdW2NIXVtjSF1jMVMoPU8pKD1PKU4oW0NIMl1jMnNbY0hdW2NIXVtjSF0yKVtDSDJdW0NAQEhdKFtPSF0pW0NASF0oW0NIMl1jM1tjSF1bY0hdW2NIXVtjSF1bY0hdMylbTkhdQyg9TyljNFtjSF1bY0hdYyhbT0hdKWMoW2NIXTQpW09IXQ==

> <s_epik_cmdline>
J2VwaWtfYXBwJywgJy1pbWFlJywgJ2xpZ2FuZF9wcm8ubWFlJywgJy1vbWFlJywgJ2xpZ2FuZF9wcmVwLm1hZScsICctbXMnLCAnMScsICctcGgnLCAnNycsICctcGh0JywgJzAuNScsICctbnQn

> <r_lp_tautomer_probability>
1

> <r_epik_Ionization_Penalty>
  0.0117

> <r_epik_Ionization_Penalty_Charging>
  0.0000

> <r_epik_Ionization_Penalty_Neutral>
  0.0117

> <r_epik_State_Penalty>
 -0.0000

> <r_epik_Charging_Adjusted_Penalty>
0

> <i_epik_Tot_Q>
0

> <i_epik_Tot_abs_Q>
0

$$$$
