2qi5_ligand
                    3D
 Schrodinger Suite 2020-3.
 80 82  0  0  1  0            999 V2000
   18.6240   33.2560   13.5970 O   0  0  0  0  0  0
   18.1460   32.4480   14.6710 S   0  0  0  0  0  0
   17.4000   31.3250   14.1640 O   0  0  0  0  0  0
   17.2080   33.2970   15.6800 C   0  0  0  0  0  0
   16.2220   32.6100   16.3830 C   0  0  0  0  0  0
   15.3930   33.2710   17.2860 C   0  0  0  0  0  0
   17.3370   34.6760   15.9100 C   0  0  0  0  0  0
   16.4900   35.3510   16.8070 C   0  0  0  0  0  0
   15.5200   34.6350   17.5030 C   0  0  0  0  0  0
   14.8430   35.4600   18.3420 N   0  0  0  0  0  0
   16.5660   37.0220   17.1350 S   0  0  0  0  0  0
   15.2630   36.7470   18.2530 C   0  0  0  0  0  0
   19.4280   31.8300   15.4360 N   0  0  1  0  0  0
   20.0930   32.8040   16.3140 C   0  0  0  0  0  0
   21.5970   32.5090   16.3670 C   0  0  0  0  0  0
   22.3430   33.6490   17.0670 C   0  0  0  0  0  0
   22.2900   35.0280   16.4010 C   0  0  0  0  0  0
   22.7110   34.9970   14.9460 C   0  0  0  0  0  0
   19.1400   30.5370   16.0960 C   0  0  0  0  0  0
   20.0510   29.4540   15.5080 C   0  0  1  0  0  0
   20.0530   28.3480   16.4180 O   0  0  0  0  0  0
   19.6500   29.0060   14.0920 C   0  0  1  0  0  0
   20.7120   28.2390   13.4590 N   0  0  0  0  0  0
   21.4930   28.6330   12.4470 C   0  0  0  0  0  0
   21.4830   29.7260   11.9150 O   0  0  0  0  0  0
   22.4380   27.5660   11.9580 C   0  0  2  0  0  0
   23.8420   28.0730   11.6990 C   0  0  0  0  0  0
   24.7720   26.9320   11.2630 C   0  0  0  0  0  0
   24.3630   28.7670   12.9480 C   0  0  0  0  0  0
   21.9300   26.8710   10.7870 N   0  0  0  0  0  0
   21.6850   25.5630   10.8050 C   0  0  0  0  0  0
   21.8350   24.8590   11.8050 O   0  0  0  0  0  0
   21.2180   25.0190    9.4880 C   0  0  0  0  0  0
   18.3610   28.1810   14.0610 C   0  0  0  0  0  0
   17.9990   27.8080   12.6430 C   0  0  0  0  0  0
   18.2310   26.5150   12.1850 C   0  0  0  0  0  0
   17.9230   26.1670   10.8730 C   0  0  0  0  0  0
   17.3640   27.1070   10.0220 C   0  0  0  0  0  0
   17.1220   28.3990   10.4720 C   0  0  0  0  0  0
   17.4390   28.7450   11.7830 C   0  0  0  0  0  0
   16.0970   31.5389   16.2243 H   0  0  0  0  0  0
   14.6339   32.7086   17.8297 H   0  0  0  0  0  0
   18.1097   35.2351   15.3823 H   0  0  0  0  0  0
   14.8163   37.5499   18.8395 H   0  0  0  0  0  0
   19.9340   33.8194   15.9220 H   0  0  0  0  0  0
   19.6712   32.7320   17.3274 H   0  0  0  0  0  0
   21.7682   31.5755   16.9231 H   0  0  0  0  0  0
   21.9861   32.4027   15.3436 H   0  0  0  0  0  0
   21.9297   33.7923   18.0763 H   0  0  0  0  0  0
   23.4113   33.3974   17.1406 H   0  0  0  0  0  0
   21.2618   35.4166   16.4439 H   0  0  0  0  0  0
   22.9647   35.7170   16.9302 H   0  0  0  0  0  0
   22.6521   36.0118   14.5256 H   0  0  0  0  0  0
   22.0418   34.3282   14.3849 H   0  0  0  0  0  0
   23.7447   34.6285   14.8712 H   0  0  0  0  0  0
   19.3256   30.6275   17.1764 H   0  0  0  0  0  0
   18.0878   30.2650   15.9263 H   0  0  0  0  0  0
   21.0843   29.8255   15.4433 H   0  0  0  0  0  0
   20.3195   28.5048   17.4737 H   0  0  0  0  0  0
   19.5113   29.9179   13.4926 H   0  0  0  0  0  0
   20.9398   27.2216   13.8097 H   0  0  0  0  0  0
   22.4798   26.8157   12.7613 H   0  0  0  0  0  0
   23.8060   28.8039   10.8777 H   0  0  0  0  0  0
   24.3663   26.4533   10.3595 H   0  0  0  0  0  0
   24.8442   26.1889   12.0708 H   0  0  0  0  0  0
   25.7718   27.3364   11.0463 H   0  0  0  0  0  0
   23.6746   29.5767   13.2317 H   0  0  0  0  0  0
   25.3594   29.1868   12.7456 H   0  0  0  0  0  0
   24.4318   28.0393   13.7701 H   0  0  0  0  0  0
   21.7390   27.4270    9.8572 H   0  0  0  0  0  0
   21.1625   25.8355    8.7530 H   0  0  0  0  0  0
   20.2225   24.5673    9.6101 H   0  0  0  0  0  0
   21.9264   24.2552    9.1348 H   0  0  0  0  0  0
   18.5010   27.2599   14.6458 H   0  0  0  0  0  0
   17.5387   28.7691   14.4945 H   0  0  0  0  0  0
   18.6564   25.7701   12.8575 H   0  0  0  0  0  0
   18.1212   25.1566   10.5155 H   0  0  0  0  0  0
   17.1136   26.8322    8.9974 H   0  0  0  0  0  0
   16.6856   29.1391    9.8012 H   0  0  0  0  0  0
   17.2466   29.7578   12.1371 H   0  0  0  0  0  0
  1  2  2  0  0  0
  2  3  2  0  0  0
  2  4  1  0  0  0
  2 13  1  0  0  0
  4  5  2  0  0  0
  4  7  1  0  0  0
  5  6  1  0  0  0
  5 41  1  0  0  0
  6  9  2  0  0  0
  6 42  1  0  0  0
  7  8  2  0  0  0
  7 43  1  0  0  0
  8  9  1  0  0  0
  8 11  1  0  0  0
  9 10  1  0  0  0
 10 12  2  0  0  0
 11 12  1  0  0  0
 12 44  1  0  0  0
 13 14  1  0  0  0
 13 19  1  0  0  0
 14 15  1  0  0  0
 14 45  1  0  0  0
 14 46  1  0  0  0
 15 16  1  0  0  0
 15 47  1  0  0  0
 15 48  1  0  0  0
 16 17  1  0  0  0
 16 49  1  0  0  0
 16 50  1  0  0  0
 17 18  1  0  0  0
 17 51  1  0  0  0
 17 52  1  0  0  0
 18 53  1  0  0  0
 18 54  1  0  0  0
 18 55  1  0  0  0
 19 20  1  0  0  0
 19 56  1  0  0  0
 19 57  1  0  0  0
 20 21  1  0  0  0
 20 22  1  0  0  0
 20 58  1  0  0  0
 21 59  1  0  0  0
 22 23  1  0  0  0
 22 34  1  0  0  0
 22 60  1  0  0  0
 23 24  1  0  0  0
 23 61  1  0  0  0
 24 25  2  0  0  0
 24 26  1  0  0  0
 26 27  1  0  0  0
 26 30  1  0  0  0
 26 62  1  0  0  0
 27 28  1  0  0  0
 27 29  1  0  0  0
 27 63  1  0  0  0
 28 64  1  0  0  0
 28 65  1  0  0  0
 28 66  1  0  0  0
 29 67  1  0  0  0
 29 68  1  0  0  0
 29 69  1  0  0  0
 30 31  1  0  0  0
 30 70  1  0  0  0
 31 32  2  0  0  0
 31 33  1  0  0  0
 33 71  1  0  0  0
 33 72  1  0  0  0
 33 73  1  0  0  0
 34 35  1  0  0  0
 34 74  1  0  0  0
 34 75  1  0  0  0
 35 36  2  0  0  0
 35 40  1  0  0  0
 36 37  1  0  0  0
 36 76  1  0  0  0
 37 38  2  0  0  0
 37 77  1  0  0  0
 38 39  1  0  0  0
 38 78  1  0  0  0
 39 40  2  0  0  0
 39 79  1  0  0  0
 40 80  1  0  0  0
M  END
> <s_m_source_file>
../2qi5_ligand.sdf

> <i_m_source_file_index>
1

> <s_epik_input>
czFbY0hdbmMoYzEyKVtjSF1bY0hdYyhbY0hdMilTKD1PKSg9TylOKFtDSDJdW0NIMl1bQ0gyXVtDSDJdW0NIM10pW0NIMl1bQ0BASF0oW09IXSlbQ0BASF0oW05IXUMoPU8pW0NASF0oW0NIXShbQ0gzXSlbQ0gzXSlbTkhdQyg9TylbQ0gzXSlbQ0gyXWMzW2NIXVtjSF1bY0hdW2NIXVtjSF0z

> <s_epik_cmdline>
J2VwaWtfYXBwJywgJy1pbWFlJywgJ2xpZ2FuZF9wcm8ubWFlJywgJy1vbWFlJywgJ2xpZ2FuZF9wcmVwLm1hZScsICctbXMnLCAnMScsICctcGgnLCAnNycsICctcGh0JywgJzAuNScsICctbnQn

> <r_lp_tautomer_probability>
1

> <r_epik_Ionization_Penalty>
  0.0000

> <r_epik_Ionization_Penalty_Charging>
  0.0000

> <r_epik_Ionization_Penalty_Neutral>
  0.0000

> <r_epik_State_Penalty>
 -0.0000

> <r_epik_Charging_Adjusted_Penalty>
0

> <i_epik_Tot_Q>
0

> <i_epik_Tot_abs_Q>
0

$$$$
