2qi7_ligand
                    3D
 Schrodinger Suite 2020-3.
 77 78  0  0  1  0            999 V2000
   21.2560   29.8260   12.1740 O   0  0  0  0  0  0
   21.2510   28.7280   12.7060 C   0  0  0  0  0  0
   22.2000   27.6750   12.1930 C   0  0  0  0  0  0
   21.7890   27.2340   10.7920 C   0  0  0  0  0  0
   21.5100   25.7500   10.6490 C   0  0  0  0  0  0
   21.8010   24.9340   11.5240 O   0  0  0  0  0  0
   20.8560   25.3410    9.3460 C   0  0  0  0  0  0
   20.6960   23.8480    9.2000 C   0  0  0  0  0  0
   20.4650   28.3490   13.7160 N   0  0  0  0  0  0
   19.4480   29.1810   14.3330 C   0  0  1  0  0  0
   18.1330   28.4020   14.3040 C   0  0  0  0  0  0
   17.8240   28.0230   12.8680 C   0  0  0  0  0  0
   17.4760   29.0010   11.9400 C   0  0  0  0  0  0
   17.2020   28.6500   10.6180 C   0  0  0  0  0  0
   17.2770   27.3170   10.2210 C   0  0  0  0  0  0
   17.6280   26.3430   11.1410 C   0  0  0  0  0  0
   17.9030   26.6880   12.4640 C   0  0  0  0  0  0
   19.8990   29.5950   15.7320 C   0  0  2  0  0  0
   19.8750   28.4780   16.6370 O   0  0  0  0  0  0
   19.0660   30.7400   16.3150 C   0  0  0  0  0  0
   19.3420   31.9750   15.5460 N   0  0  2  0  0  0
   20.0580   32.9990   16.3450 C   0  0  0  0  0  0
   21.5480   32.6740   16.4230 C   0  0  1  0  0  0
   22.2140   32.6040   15.0450 C   0  0  0  0  0  0
   22.2520   33.6640   17.3550 C   0  0  0  0  0  0
   22.1780   35.1020   16.8960 C   0  0  0  0  0  0
   18.0080   32.5870   14.8490 S   0  0  0  0  0  0
   17.2180   31.5270   14.2910 O   0  0  0  0  0  0
   18.4760   33.4340   13.7860 O   0  0  0  0  0  0
   17.1370   33.4420   15.9060 C   0  0  0  0  0  0
   17.3750   34.8050   16.0790 C   0  0  0  0  0  0
   16.6490   35.5590   16.9960 C   0  0  0  0  0  0
   16.1490   32.8390   16.6790 C   0  0  0  0  0  0
   15.4140   33.5900   17.6040 C   0  0  0  0  0  0
   15.6530   34.9500   17.7710 C   0  0  0  0  0  0
   14.9060   35.6310   18.7060 O   0  0  0  0  0  0
   14.9480   37.0510   18.9050 C   0  0  0  0  0  0
   23.2194   28.0866   12.1566 H   0  0  0  0  0  0
   22.1799   26.8045   12.8651 H   0  0  0  0  0  0
   20.8687   27.7596   10.4974 H   0  0  0  0  0  0
   22.5928   27.4756   10.0810 H   0  0  0  0  0  0
   19.8533   25.7888    9.2826 H   0  0  0  0  0  0
   21.4683   25.6921    8.5023 H   0  0  0  0  0  0
   20.2167   23.6232    8.2358 H   0  0  0  0  0  0
   20.0698   23.4645   10.0190 H   0  0  0  0  0  0
   21.6849   23.3678    9.2388 H   0  0  0  0  0  0
   20.6315   27.3239   14.0787 H   0  0  0  0  0  0
   19.3297   30.1067   13.7507 H   0  0  0  0  0  0
   18.2311   27.4941   14.9173 H   0  0  0  0  0  0
   17.3253   29.0309   14.7066 H   0  0  0  0  0  0
   17.4174   30.0450   12.2477 H   0  0  0  0  0  0
   16.9291   29.4191    9.8955 H   0  0  0  0  0  0
   17.0600   27.0411    9.1890 H   0  0  0  0  0  0
   17.6897   25.3004   10.8291 H   0  0  0  0  0  0
   18.1795   25.9164   13.1825 H   0  0  0  0  0  0
   20.9518   29.9057   15.6604 H   0  0  0  0  0  0
   20.4208   27.5562   16.3875 H   0  0  0  0  0  0
   17.9974   30.4891   16.2439 H   0  0  0  0  0  0
   19.3378   30.8908   17.3702 H   0  0  0  0  0  0
   19.9324   33.9852   15.8742 H   0  0  0  0  0  0
   19.6447   33.0239   17.3641 H   0  0  0  0  0  0
   21.6453   31.6641   16.8480 H   0  0  0  0  0  0
   21.6749   31.8825   14.4135 H   0  0  0  0  0  0
   23.2596   32.2820   15.1591 H   0  0  0  0  0  0
   22.1856   33.5973   14.5732 H   0  0  0  0  0  0
   21.7920   33.6185   18.3532 H   0  0  0  0  0  0
   23.3178   33.4024   17.4302 H   0  0  0  0  0  0
   22.7050   35.7445   17.6167 H   0  0  0  0  0  0
   21.1247   35.4121   16.8301 H   0  0  0  0  0  0
   22.6505   35.1960   15.9071 H   0  0  0  0  0  0
   18.1472   35.2908   15.4825 H   0  0  0  0  0  0
   16.8551   36.6231   17.1114 H   0  0  0  0  0  0
   15.9461   31.7743   16.5633 H   0  0  0  0  0  0
   14.6438   33.1022   18.2015 H   0  0  0  0  0  0
   14.2542   37.3288   19.7122 H   0  0  0  0  0  0
   14.6524   37.5603   17.9759 H   0  0  0  0  0  0
   15.9696   37.3527   19.1795 H   0  0  0  0  0  0
  1  2  2  0  0  0
  2  3  1  0  0  0
  2  9  1  0  0  0
  3  4  1  0  0  0
  3 38  1  0  0  0
  3 39  1  0  0  0
  4  5  1  0  0  0
  4 40  1  0  0  0
  4 41  1  0  0  0
  5  6  2  0  0  0
  5  7  1  0  0  0
  7  8  1  0  0  0
  7 42  1  0  0  0
  7 43  1  0  0  0
  8 44  1  0  0  0
  8 45  1  0  0  0
  8 46  1  0  0  0
  9 10  1  0  0  0
  9 47  1  0  0  0
 10 11  1  0  0  0
 10 18  1  0  0  0
 10 48  1  0  0  0
 11 12  1  0  0  0
 11 49  1  0  0  0
 11 50  1  0  0  0
 12 13  2  0  0  0
 12 17  1  0  0  0
 13 14  1  0  0  0
 13 51  1  0  0  0
 14 15  2  0  0  0
 14 52  1  0  0  0
 15 16  1  0  0  0
 15 53  1  0  0  0
 16 17  2  0  0  0
 16 54  1  0  0  0
 17 55  1  0  0  0
 18 19  1  0  0  0
 18 20  1  0  0  0
 18 56  1  0  0  0
 19 57  1  0  0  0
 20 21  1  0  0  0
 20 58  1  0  0  0
 20 59  1  0  0  0
 21 22  1  0  0  0
 21 27  1  0  0  0
 22 23  1  0  0  0
 22 60  1  0  0  0
 22 61  1  0  0  0
 23 24  1  0  0  0
 23 25  1  0  0  0
 23 62  1  0  0  0
 24 63  1  0  0  0
 24 64  1  0  0  0
 24 65  1  0  0  0
 25 26  1  0  0  0
 25 66  1  0  0  0
 25 67  1  0  0  0
 26 68  1  0  0  0
 26 69  1  0  0  0
 26 70  1  0  0  0
 27 28  2  0  0  0
 27 29  2  0  0  0
 27 30  1  0  0  0
 30 31  2  0  0  0
 30 33  1  0  0  0
 31 32  1  0  0  0
 31 71  1  0  0  0
 32 35  2  0  0  0
 32 72  1  0  0  0
 33 34  2  0  0  0
 33 73  1  0  0  0
 34 35  1  0  0  0
 34 74  1  0  0  0
 35 36  1  0  0  0
 36 37  1  0  0  0
 37 75  1  0  0  0
 37 76  1  0  0  0
 37 77  1  0  0  0
M  END
> <s_m_source_file>
../2qi7_ligand.sdf

> <i_m_source_file_index>
1

> <s_epik_input>
W0NIM11bQ0gyXUMoPU8pW0NIMl1bQ0gyXUMoPU8pW05IXVtDQEBIXShbQ0gyXWMxW2NIXVtjSF1bY0hdW2NIXVtjSF0xKVtDQEhdKFtPSF0pW0NIMl1OKFtDSDJdW0NAQEhdKFtDSDNdKVtDSDJdW0NIM10pUyg9TykoPU8pYzJbY0hdW2NIXWMoW2NIXVtjSF0yKU9bQ0gzXQ==

> <s_epik_cmdline>
J2VwaWtfYXBwJywgJy1pbWFlJywgJ2xpZ2FuZF9wcm8ubWFlJywgJy1vbWFlJywgJ2xpZ2FuZF9wcmVwLm1hZScsICctbXMnLCAnMScsICctcGgnLCAnNycsICctcGh0JywgJzAuNScsICctbnQn

> <r_lp_tautomer_probability>
1

> <r_epik_Ionization_Penalty>
  0.0000

> <r_epik_Ionization_Penalty_Charging>
  0.0000

> <r_epik_Ionization_Penalty_Neutral>
  0.0000

> <r_epik_State_Penalty>
 -0.0000

> <r_epik_Charging_Adjusted_Penalty>
0

> <i_epik_Tot_Q>
0

> <i_epik_Tot_abs_Q>
0

$$$$
