2qic_ligand
                    3D
 Schrodinger Suite 2020-3.
147146  0  0  1  0            999 V2000
   -8.4160   35.9910   13.6410 N   0  3  0  0  0  0
   -7.1250   36.7280   13.7180 C   0  0  2  0  0  0
   -6.2870   36.4530   12.4720 C   0  0  0  0  0  0
   -6.6540   35.6270   11.6390 O   0  0  0  0  0  0
   -6.3580   36.3040   14.9710 C   0  0  0  0  0  0
   -5.1700   37.1620   12.3440 N   0  0  0  0  0  0
   -4.2750   36.9770   11.2010 C   0  0  2  0  0  0
   -3.0780   36.1570   11.6840 C   0  0  0  0  0  0
   -2.4060   36.5360   12.6360 O   0  0  0  0  0  0
   -3.7840   38.3280   10.6670 C   0  0  0  0  0  0
   -4.8880   39.2630   10.1640 C   0  0  0  0  0  0
   -4.3000   40.5640    9.5980 C   0  0  0  0  0  0
   -3.4580   41.2630   10.5690 N   0  0  0  0  0  0
   -2.1390   41.4070   10.4630 C   0  0  0  0  0  0
   -1.4900   40.9030    9.4240 N   0  3  0  0  0  0
   -1.4620   42.0520   11.4030 N   0  0  0  0  0  0
   -2.8300   35.0260   11.0320 N   0  0  0  0  0  0
   -1.7030   34.1730   11.3970 C   0  0  2  0  0  0
   -1.0810   33.6390   10.1200 C   0  0  0  0  0  0
   -1.7250   33.5920    9.0760 O   0  0  0  0  0  0
   -2.1420   32.9560   12.2400 C   0  0  2  0  0  0
   -3.0100   32.1250   11.4610 O   0  0  0  0  0  0
   -2.8680   33.4100   13.4970 C   0  0  0  0  0  0
    0.1800   33.2330   10.2180 N   0  0  0  0  0  0
    0.8860   32.6630    9.0850 C   0  0  1  0  0  0
    1.5900   33.7240    8.2180 C   0  0  0  0  0  0
    2.7970   34.4080    8.8800 C   0  0  0  0  0  0
    3.4640   35.4450    7.9670 C   0  0  0  0  0  0
    4.5410   36.2720    8.6890 C   0  0  0  0  0  0
    5.3640   37.1610    7.7630 N   0  3  0  0  0  0
    1.8850   31.6420    9.6140 C   0  0  0  0  0  0
    2.3830   31.7700   10.7360 O   0  0  0  0  0  0
    4.5250   38.2500    7.1840 C   0  0  0  0  0  0
    5.9880   36.5220    6.5570 C   0  0  0  0  0  0
    6.4580   37.8120    8.5430 C   0  0  0  0  0  0
    2.1490   30.6220    8.8060 N   0  0  0  0  0  0
    3.0940   29.5660    9.1660 C   0  0  2  0  0  0
    4.4590   29.9790    8.6450 C   0  0  0  0  0  0
    4.5720   30.5320    7.5580 O   0  0  0  0  0  0
    2.6830   28.2410    8.5200 C   0  0  0  0  0  0
    1.4760   27.5750    9.1520 C   0  0  0  0  0  0
    1.7850   26.9820   10.5150 C   0  0  0  0  0  0
    2.1760   27.6900   11.4410 O   0  0  0  0  0  0
    1.6110   25.6710   10.6410 N   0  0  0  0  0  0
    5.5000   29.7190    9.4220 N   0  0  0  0  0  0
    6.8470   30.0690    8.9900 C   0  0  2  0  0  0
    7.1660   29.2430    7.7330 C   0  0  0  0  0  0
    6.8450   28.0560    7.6670 O   0  0  0  0  0  0
    7.8720   29.7660   10.1000 C   0  0  2  0  0  0
    7.6150   30.6180   11.2230 O   0  0  0  0  0  0
    9.2880   30.0020    9.6070 C   0  0  0  0  0  0
    7.7800   29.8810    6.7400 N   0  0  0  0  0  0
    8.1470   29.2050    5.4840 C   0  0  2  0  0  0
    9.6230   29.4940    5.2070 C   0  0  0  0  0  0
   10.1020   30.6000    5.4610 O   0  0  0  0  0  0
    7.2820   29.7220    4.3360 C   0  0  0  0  0  0
   10.3400   28.5040    4.6850 N   0  0  0  0  0  0
   11.7680   28.6690    4.3950 C   0  0  2  0  0  0
   11.9400   29.7620    3.3390 C   0  0  0  0  0  0
   10.9150   30.2170    2.7880 O   0  0  0  0  0  0
   12.3650   27.3530    3.8830 C   0  0  0  0  0  0
   12.1540   27.0850    2.3970 C   0  0  0  0  0  0
   10.6850   27.0870    2.0070 C   0  0  0  0  0  0
   10.5050   26.8700    0.5730 N   0  0  0  0  0  0
   10.9790   27.6750   -0.3750 C   0  0  0  0  0  0
   11.6680   28.7610   -0.0490 N   0  0  0  0  0  0
   10.7650   27.3920   -1.6530 N   0  3  0  0  0  0
   13.1477   30.2158    3.0160 O   0  5  0  0  0  0
   -8.9619   36.3010   12.7377 H   0  0  0  0  0  0
   -9.0213   36.2177   14.5311 H   0  0  0  0  0  0
   -8.2189   34.9097   13.5973 H   0  0  0  0  0  0
   -7.3597   37.8014   13.7703 H   0  0  0  0  0  0
   -6.9706   36.5065   15.8619 H   0  0  0  0  0  0
   -5.4182   36.8720   15.0354 H   0  0  0  0  0  0
   -6.1335   35.2285   14.9171 H   0  0  0  0  0  0
   -4.9243   37.9008   13.1210 H   0  0  0  0  0  0
   -4.8460   36.4615   10.4147 H   0  0  0  0  0  0
   -3.2533   38.8670   11.4657 H   0  0  0  0  0  0
   -3.1013   38.1616    9.8207 H   0  0  0  0  0  0
   -5.4592   38.7614    9.3689 H   0  0  0  0  0  0
   -5.5618   39.5157   10.9960 H   0  0  0  0  0  0
   -3.6836   40.3346    8.7163 H   0  0  0  0  0  0
   -5.1177   41.2402    9.3079 H   0  0  0  0  0  0
   -3.9100   41.7155   11.4639 H   0  0  0  0  0  0
   -2.0419   40.3661    8.6385 H   0  0  0  0  0  0
   -1.9911   42.4744   12.2700 H   0  0  0  0  0  0
   -0.3713   42.1647   11.3159 H   0  0  0  0  0  0
   -3.4929   34.7368   10.2032 H   0  0  0  0  0  0
   -1.0236   34.8193   11.9721 H   0  0  0  0  0  0
   -1.2801   32.3292   12.5124 H   0  0  0  0  0  0
   -2.6568   31.6997   10.5100 H   0  0  0  0  0  0
   -2.2011   34.0483   14.0952 H   0  0  0  0  0  0
   -3.1618   32.5304   14.0887 H   0  0  0  0  0  0
   -3.7661   33.9796   13.2162 H   0  0  0  0  0  0
    0.6892   33.3373   11.1875 H   0  0  0  0  0  0
    0.1102   32.1883    8.4663 H   0  0  0  0  0  0
    1.9611   33.2555    7.2945 H   0  0  0  0  0  0
    0.8766   34.5217    7.9634 H   0  0  0  0  0  0
    2.4696   34.9249    9.7941 H   0  0  0  0  0  0
    3.5520   33.6506    9.1375 H   0  0  0  0  0  0
    3.9456   34.9328    7.1210 H   0  0  0  0  0  0
    2.7032   36.1432    7.5880 H   0  0  0  0  0  0
    4.0629   36.9294    9.4301 H   0  0  0  0  0  0
    5.2430   35.5952    9.1980 H   0  0  0  0  0  0
    3.7042   37.8090    6.5994 H   0  0  0  0  0  0
    5.1439   38.8809    6.5291 H   0  0  0  0  0  0
    4.1082   38.8631    7.9966 H   0  0  0  0  0  0
    5.2076   36.0310    5.9571 H   0  0  0  0  0  0
    6.7274   35.7742    6.8796 H   0  0  0  0  0  0
    6.4864   37.2925    5.9504 H   0  0  0  0  0  0
    6.0348   38.2923    9.4376 H   0  0  0  0  0  0
    6.9521   38.5708    7.9185 H   0  0  0  0  0  0
    7.1931   37.0525    8.8476 H   0  0  0  0  0  0
    1.6291   30.5880    7.8372 H   0  0  0  0  0  0
    3.0875   29.4627   10.2611 H   0  0  0  0  0  0
    2.4347   28.4104    7.4619 H   0  0  0  0  0  0
    3.5148   27.5247    8.5913 H   0  0  0  0  0  0
    0.6733   28.3162    9.2797 H   0  0  0  0  0  0
    1.1235   26.7612    8.5012 H   0  0  0  0  0  0
    1.2592   25.0780    9.7839 H   0  0  0  0  0  0
    1.8188   25.1785   11.6024 H   0  0  0  0  0  0
    5.3434   29.2362   10.3979 H   0  0  0  0  0  0
    6.8492   31.1491    8.7819 H   0  0  0  0  0  0
    7.7722   28.7305   10.4573 H   0  0  0  0  0  0
    6.6347   30.5905   11.7213 H   0  0  0  0  0  0
    9.4895   29.3496    8.7446 H   0  0  0  0  0  0
   10.0000   29.7736   10.4138 H   0  0  0  0  0  0
    9.4007   31.0538    9.3054 H   0  0  0  0  0  0
    8.0130   30.9470    6.8793 H   0  0  0  0  0  0
    7.9694   28.1264    5.6070 H   0  0  0  0  0  0
    6.2243   29.5075    4.5485 H   0  0  0  0  0  0
    7.5767   29.2227    3.4012 H   0  0  0  0  0  0
    7.4222   30.8080    4.2316 H   0  0  0  0  0  0
    9.8422   27.5468    4.4705 H   0  0  0  0  0  0
   12.2547   28.9556    5.3389 H   0  0  0  0  0  0
   13.4520   27.3533    4.0519 H   0  0  0  0  0  0
   11.9102   26.5094    4.4230 H   0  0  0  0  0  0
   12.6613   27.8636    1.8084 H   0  0  0  0  0  0
   12.5711   26.1003    2.1391 H   0  0  0  0  0  0
   10.1613   26.2841    2.5466 H   0  0  0  0  0  0
   10.2374   28.0572    2.2687 H   0  0  0  0  0  0
    9.9456   25.9930    0.2154 H   0  0  0  0  0  0
   11.8486   29.0007    1.0093 H   0  0  0  0  0  0
   12.0587   29.4216   -0.8370 H   0  0  0  0  0  0
   10.1945   26.4930   -1.9292 H   0  0  0  0  0  0
   -0.3991   41.0214    9.3467 H   0  0  0  0  0  0
   11.1581   28.0563   -2.4367 H   0  0  0  0  0  0
  1  2  1  0  0  0
  1 69  1  0  0  0
  1 70  1  0  0  0
  1 71  1  0  0  0
  2  3  1  0  0  0
  2  5  1  0  0  0
  2 72  1  0  0  0
  3  4  2  0  0  0
  3  6  1  0  0  0
  5 73  1  0  0  0
  5 74  1  0  0  0
  5 75  1  0  0  0
  6  7  1  0  0  0
  6 76  1  0  0  0
  7  8  1  0  0  0
  7 10  1  0  0  0
  7 77  1  0  0  0
  8  9  2  0  0  0
  8 17  1  0  0  0
 10 11  1  0  0  0
 10 78  1  0  0  0
 10 79  1  0  0  0
 11 12  1  0  0  0
 11 80  1  0  0  0
 11 81  1  0  0  0
 12 13  1  0  0  0
 12 82  1  0  0  0
 12 83  1  0  0  0
 13 14  1  0  0  0
 13 84  1  0  0  0
 14 15  2  0  0  0
 14 16  1  0  0  0
 15 85  1  0  0  0
 15146  1  0  0  0
 16 86  1  0  0  0
 16 87  1  0  0  0
 17 18  1  0  0  0
 17 88  1  0  0  0
 18 19  1  0  0  0
 18 21  1  0  0  0
 18 89  1  0  0  0
 19 20  2  0  0  0
 19 24  1  0  0  0
 21 22  1  0  0  0
 21 23  1  0  0  0
 21 90  1  0  0  0
 22 91  1  0  0  0
 23 92  1  0  0  0
 23 93  1  0  0  0
 23 94  1  0  0  0
 24 25  1  0  0  0
 24 95  1  0  0  0
 25 26  1  0  0  0
 25 31  1  0  0  0
 25 96  1  0  0  0
 26 27  1  0  0  0
 26 97  1  0  0  0
 26 98  1  0  0  0
 27 28  1  0  0  0
 27 99  1  0  0  0
 27100  1  0  0  0
 28 29  1  0  0  0
 28101  1  0  0  0
 28102  1  0  0  0
 29 30  1  0  0  0
 29103  1  0  0  0
 29104  1  0  0  0
 30 33  1  0  0  0
 30 34  1  0  0  0
 30 35  1  0  0  0
 31 32  2  0  0  0
 31 36  1  0  0  0
 33105  1  0  0  0
 33106  1  0  0  0
 33107  1  0  0  0
 34108  1  0  0  0
 34109  1  0  0  0
 34110  1  0  0  0
 35111  1  0  0  0
 35112  1  0  0  0
 35113  1  0  0  0
 36 37  1  0  0  0
 36114  1  0  0  0
 37 38  1  0  0  0
 37 40  1  0  0  0
 37115  1  0  0  0
 38 39  2  0  0  0
 38 45  1  0  0  0
 40 41  1  0  0  0
 40116  1  0  0  0
 40117  1  0  0  0
 41 42  1  0  0  0
 41118  1  0  0  0
 41119  1  0  0  0
 42 43  2  0  0  0
 42 44  1  0  0  0
 44120  1  0  0  0
 44121  1  0  0  0
 45 46  1  0  0  0
 45122  1  0  0  0
 46 47  1  0  0  0
 46 49  1  0  0  0
 46123  1  0  0  0
 47 48  2  0  0  0
 47 52  1  0  0  0
 49 50  1  0  0  0
 49 51  1  0  0  0
 49124  1  0  0  0
 50125  1  0  0  0
 51126  1  0  0  0
 51127  1  0  0  0
 51128  1  0  0  0
 52 53  1  0  0  0
 52129  1  0  0  0
 53 54  1  0  0  0
 53 56  1  0  0  0
 53130  1  0  0  0
 54 55  2  0  0  0
 54 57  1  0  0  0
 56131  1  0  0  0
 56132  1  0  0  0
 56133  1  0  0  0
 57 58  1  0  0  0
 57134  1  0  0  0
 58 59  1  0  0  0
 58 61  1  0  0  0
 58135  1  0  0  0
 59 60  2  0  0  0
 59 68  1  0  0  0
 61 62  1  0  0  0
 61136  1  0  0  0
 61137  1  0  0  0
 62 63  1  0  0  0
 62138  1  0  0  0
 62139  1  0  0  0
 63 64  1  0  0  0
 63140  1  0  0  0
 63141  1  0  0  0
 64 65  1  0  0  0
 64142  1  0  0  0
 65 66  1  0  0  0
 65 67  2  0  0  0
 66143  1  0  0  0
 66144  1  0  0  0
 67145  1  0  0  0
 67147  1  0  0  0
M  CHG  5   1   1  15   1  30   1  67   1  68  -1
M  END
> <s_m_source_file>
../2qic_ligand.sdf

> <i_m_source_file_index>
1

> <s_epik_input>
W0hdL049QyhbTkgyXSlcW05IXVtDSDJdW0NIMl1bQ0gyXVtDQEhdKFtOSF1DKD1PKVtDQEBIXShbTkgzK10pW0NIM10pQyg9TylbTkhdW0NAQEhdKFtDQEhdKFtPSF0pW0NIM10pQyg9TylbTkhdW0NAQEhdKFtDSDJdW0NIMl1bQ0gyXVtDSDJdW04rXShbQ0gzXSkoW0NIM10pW0NIM10pQyg9TylbTkhdW0NAQEhdKFtDSDJdW0NIMl1DKD1PKVtOSDJdKUMoPU8pW05IXVtDQEBIXShbQ0BIXShbT0hdKVtDSDNdKUMoPU8pW05IXVtDQEBIXShbQ0gzXSlDKD1PKVtOSF1bQ0BIXShDKD1PKVtPSF0pW0NIMl1bQ0gyXVtDSDJdW05IXS9DKFtOSDJdKT1OXFtIXQ==

> <s_epik_cmdline>
J2VwaWtfYXBwJywgJy1pbWFlJywgJ2xpZ2FuZF9wcm8ubWFlJywgJy1vbWFlJywgJ2xpZ2FuZF9wcmVwLm1hZScsICctbXMnLCAnMScsICctcGgnLCAnNycsICctcGh0JywgJzAuNScsICctbnQn

> <r_epik_Ionization_Penalty>
  0.1252

> <r_epik_Ionization_Penalty_Charging>
  0.1252

> <r_epik_Ionization_Penalty_Neutral>
  0.0000

> <r_epik_State_Penalty>
  0.1145

> <r_epik_Charging_Adjusted_Penalty>
0.239751587332022

> <i_epik_Tot_Q>
3

> <i_epik_Tot_abs_Q>
5

> <s_epik_Chemistry_Notes>
This compound has an imine and may undergo hydrolysis.

$$$$
