2qiq_ligand
                    3D
 Schrodinger Suite 2020-3.
 99 99  0  0  1  0            999 V2000
   18.5550  -32.9900   21.6270 O   0  0  0  0  0  0
   19.2210  -32.9880   20.5980 C   0  0  0  0  0  0
   20.2040  -31.9160   20.3990 O   0  0  0  0  0  0
   21.5380  -31.9020   20.9580 C   0  0  0  0  0  0
   22.2930  -30.7170   20.3570 C   0  0  0  0  0  0
   21.4720  -31.7160   22.4770 C   0  0  0  0  0  0
   22.2980  -33.1850   20.6050 C   0  0  0  0  0  0
   19.0770  -33.9100   19.6380 N   0  0  0  0  0  0
   18.1370  -35.0250   19.7280 C   0  0  1  0  0  0
   17.8800  -35.4860   18.2910 C   0  0  0  0  0  0
   19.0710  -36.0030   17.6730 O   0  0  0  0  0  0
   18.6780  -36.1640   20.5560 C   0  0  0  0  0  0
   19.8470  -36.5310   20.4560 O   0  0  0  0  0  0
   17.7910  -36.7150   21.3880 N   0  0  0  0  0  0
   18.0960  -37.8280   22.2820 C   0  0  1  0  0  0
   17.7140  -37.3400   23.6930 C   0  0  0  0  0  0
   17.6110  -38.4600   24.7250 C   0  0  0  0  0  0
   18.6990  -36.2860   24.2000 C   0  0  0  0  0  0
   17.3540  -39.0570   21.8210 C   0  0  0  0  0  0
   16.1320  -39.0630   21.8200 O   0  0  0  0  0  0
   18.1480  -40.2640   21.3450 C   0  0  0  0  0  0
   17.3370  -41.5680   21.3190 C   0  0  1  0  0  0
   18.2420  -42.7650   21.0270 C   0  0  0  0  0  0
   19.0970  -42.5740   19.7880 C   0  0  0  0  0  0
   20.2090  -43.3070   19.5460 C   0  0  0  0  0  0
   21.0060  -43.0590   18.3010 C   0  0  0  0  0  0
   20.6990  -44.3810   20.4850 C   0  0  0  0  0  0
   16.6400  -41.7690   22.6430 C   0  0  0  0  0  0
   17.2210  -41.5070   23.6910 O   0  0  0  0  0  0
   15.3830  -42.2300   22.6310 N   0  0  0  0  0  0
   14.6700  -42.4200   23.9000 C   0  0  2  0  0  0
   14.4150  -43.9070   24.1280 C   0  0  0  0  0  0
   15.6640  -44.7910   24.1350 C   0  0  0  0  0  0
   15.3520  -46.1180   24.7990 C   0  0  0  0  0  0
   16.4340  -47.0280   25.1740 O   0  0  0  0  0  0
   17.1900  -46.8370   26.3780 C   0  0  0  0  0  0
   16.3140  -46.9610   27.6120 C   0  0  0  0  0  0
   14.1970  -46.4520   25.0390 O   0  0  0  0  0  0
   13.4090  -41.5740   23.7740 C   0  0  0  0  0  0
   13.2750  -40.2770   24.7040 C   0  0  2  0  0  0
   13.2600  -40.3100   26.2340 C   0  0  0  0  0  0
   12.7780  -38.8660   26.6040 C   0  0  0  0  0  0
   11.8830  -38.5380   25.5150 N   0  0  0  0  0  0
   12.0490  -39.3830   24.5700 C   0  0  0  0  0  0
   11.3090  -39.4520   23.6110 O   0  0  0  0  0  0
   21.7633  -29.7839   20.5991 H   0  0  0  0  0  0
   22.3492  -30.8340   19.2647 H   0  0  0  0  0  0
   23.3100  -30.6803   20.7747 H   0  0  0  0  0  0
   20.9236  -30.7913   22.7097 H   0  0  0  0  0  0
   22.4922  -31.6493   22.8829 H   0  0  0  0  0  0
   20.9528  -32.5739   22.9292 H   0  0  0  0  0  0
   22.3345  -33.3005   19.5117 H   0  0  0  0  0  0
   21.7828  -34.0500   21.0481 H   0  0  0  0  0  0
   23.3222  -33.1254   21.0018 H   0  0  0  0  0  0
   19.7123  -33.7967   18.7472 H   0  0  0  0  0  0
   17.2338  -34.6671   20.2438 H   0  0  0  0  0  0
   17.1193  -36.2805   18.2914 H   0  0  0  0  0  0
   17.5220  -34.6359   17.6917 H   0  0  0  0  0  0
   19.0374  -36.3723   16.6374 H   0  0  0  0  0  0
   16.7801  -36.2815   21.3745 H   0  0  0  0  0  0
   19.1598  -38.1049   22.2403 H   0  0  0  0  0  0
   16.7108  -36.9003   23.5914 H   0  0  0  0  0  0
   16.9039  -39.2234   24.3683 H   0  0  0  0  0  0
   17.2538  -38.0470   25.6799 H   0  0  0  0  0  0
   18.6011  -38.9167   24.8705 H   0  0  0  0  0  0
   18.7796  -35.4743   23.4619 H   0  0  0  0  0  0
   19.6866  -36.7476   24.3467 H   0  0  0  0  0  0
   18.3394  -35.8779   25.1561 H   0  0  0  0  0  0
   18.5103  -40.0843   20.3221 H   0  0  0  0  0  0
   19.0056  -40.4260   22.0146 H   0  0  0  0  0  0
   16.5755  -41.4978   20.5283 H   0  0  0  0  0  0
   18.9193  -42.9288   21.8781 H   0  0  0  0  0  0
   17.6247  -43.6621   20.8717 H   0  0  0  0  0  0
   18.7803  -41.8021   19.0712 H   0  0  0  0  0  0
   20.5337  -42.2551   17.7174 H   0  0  0  0  0  0
   21.0399  -43.9785   17.6982 H   0  0  0  0  0  0
   22.0292  -42.7615   18.5739 H   0  0  0  0  0  0
   20.0207  -44.4507   21.3482 H   0  0  0  0  0  0
   21.7114  -44.1292   20.8336 H   0  0  0  0  0  0
   20.7222  -45.3462   19.9579 H   0  0  0  0  0  0
   14.8844  -42.4659   21.6793 H   0  0  0  0  0  0
   15.2642  -42.0863   24.7635 H   0  0  0  0  0  0
   13.9260  -44.0499   25.1029 H   0  0  0  0  0  0
   13.7633  -44.2938   23.3307 H   0  0  0  0  0  0
   15.9918  -44.9707   23.1005 H   0  0  0  0  0  0
   16.4673  -44.2863   24.6917 H   0  0  0  0  0  0
   17.9834  -47.5966   26.4371 H   0  0  0  0  0  0
   17.6421  -45.8342   26.3719 H   0  0  0  0  0  0
   16.9263  -46.8090   28.5131 H   0  0  0  0  0  0
   15.8612  -47.9631   27.6410 H   0  0  0  0  0  0
   15.5199  -46.2007   27.5758 H   0  0  0  0  0  0
   13.3221  -41.1965   22.7445 H   0  0  0  0  0  0
   12.5293  -42.1890   24.0145 H   0  0  0  0  0  0
   14.2280  -39.9017   24.3028 H   0  0  0  0  0  0
   12.5658  -41.0913   26.5771 H   0  0  0  0  0  0
   14.2717  -40.5293   26.6060 H   0  0  0  0  0  0
   12.2697  -38.8878   27.5793 H   0  0  0  0  0  0
   13.6459  -38.1923   26.6578 H   0  0  0  0  0  0
   11.2088  -37.6729   25.5987 H   0  0  0  0  0  0
  1  2  2  0  0  0
  2  3  1  0  0  0
  2  8  1  0  0  0
  3  4  1  0  0  0
  4  5  1  0  0  0
  4  6  1  0  0  0
  4  7  1  0  0  0
  5 46  1  0  0  0
  5 47  1  0  0  0
  5 48  1  0  0  0
  6 49  1  0  0  0
  6 50  1  0  0  0
  6 51  1  0  0  0
  7 52  1  0  0  0
  7 53  1  0  0  0
  7 54  1  0  0  0
  8  9  1  0  0  0
  8 55  1  0  0  0
  9 10  1  0  0  0
  9 12  1  0  0  0
  9 56  1  0  0  0
 10 11  1  0  0  0
 10 57  1  0  0  0
 10 58  1  0  0  0
 11 59  1  0  0  0
 12 13  2  0  0  0
 12 14  1  0  0  0
 14 15  1  0  0  0
 14 60  1  0  0  0
 15 16  1  0  0  0
 15 19  1  0  0  0
 15 61  1  0  0  0
 16 17  1  0  0  0
 16 18  1  0  0  0
 16 62  1  0  0  0
 17 63  1  0  0  0
 17 64  1  0  0  0
 17 65  1  0  0  0
 18 66  1  0  0  0
 18 67  1  0  0  0
 18 68  1  0  0  0
 19 20  2  0  0  0
 19 21  1  0  0  0
 21 22  1  0  0  0
 21 69  1  0  0  0
 21 70  1  0  0  0
 22 23  1  0  0  0
 22 28  1  0  0  0
 22 71  1  0  0  0
 23 24  1  0  0  0
 23 72  1  0  0  0
 23 73  1  0  0  0
 24 25  2  0  0  0
 24 74  1  0  0  0
 25 26  1  0  0  0
 25 27  1  0  0  0
 26 75  1  0  0  0
 26 76  1  0  0  0
 26 77  1  0  0  0
 27 78  1  0  0  0
 27 79  1  0  0  0
 27 80  1  0  0  0
 28 29  2  0  0  0
 28 30  1  0  0  0
 30 31  1  0  0  0
 30 81  1  0  0  0
 31 32  1  0  0  0
 31 39  1  0  0  0
 31 82  1  0  0  0
 32 33  1  0  0  0
 32 83  1  0  0  0
 32 84  1  0  0  0
 33 34  1  0  0  0
 33 85  1  0  0  0
 33 86  1  0  0  0
 34 35  1  0  0  0
 34 38  2  0  0  0
 35 36  1  0  0  0
 36 37  1  0  0  0
 36 87  1  0  0  0
 36 88  1  0  0  0
 37 89  1  0  0  0
 37 90  1  0  0  0
 37 91  1  0  0  0
 39 40  1  0  0  0
 39 92  1  0  0  0
 39 93  1  0  0  0
 40 41  1  0  0  0
 40 44  1  0  0  0
 40 94  1  0  0  0
 41 42  1  0  0  0
 41 95  1  0  0  0
 41 96  1  0  0  0
 42 43  1  0  0  0
 42 97  1  0  0  0
 42 98  1  0  0  0
 43 44  1  0  0  0
 43 99  1  0  0  0
 44 45  2  0  0  0
M  END
> <s_m_source_file>
../2qiq_ligand.sdf

> <i_m_source_file_index>
1

> <s_epik_input>
W0NIM11DKFtDSDNdKShbQ0gzXSlPQyg9TylbTkhdW0NAQEhdKFtDSDJdW09IXSlDKD1PKVtOSF1bQ0BASF0oW0NIXShbQ0gzXSlbQ0gzXSlDKD1PKVtDSDJdW0NAQEhdKFtDSDJdW0NIXT1DKFtDSDNdKVtDSDNdKUMoPU8pW05IXVtDQEhdKFtDSDJdW0NIMl1DKD1PKU9bQ0gyXVtDSDNdKVtDSDJdW0NAQEhdMVtDSDJdW0NIMl1bTkhdQzE9Tw==

> <s_epik_cmdline>
J2VwaWtfYXBwJywgJy1pbWFlJywgJ2xpZ2FuZF9wcm8ubWFlJywgJy1vbWFlJywgJ2xpZ2FuZF9wcmVwLm1hZScsICctbXMnLCAnMScsICctcGgnLCAnNycsICctcGh0JywgJzAuNScsICctbnQn

> <r_lp_tautomer_probability>
1

> <r_epik_Ionization_Penalty>
  0.0000

> <r_epik_Ionization_Penalty_Charging>
  0.0000

> <r_epik_Ionization_Penalty_Neutral>
  0.0000

> <r_epik_State_Penalty>
 -0.0000

> <r_epik_Charging_Adjusted_Penalty>
0

> <i_epik_Tot_Q>
0

> <i_epik_Tot_abs_Q>
0

> <s_epik_Chemistry_Notes>
This compound has an ester and may undergo hydrolysis at high or low pH.

$$$$
