2qju_ligand
                    3D
 Schrodinger Suite 2020-3.
 43 45  0  0  1  0            999 V2000
   17.7390  -15.3290  -26.0670 C   0  0  0  0  0  0
   16.4430  -14.5350  -25.9120 N   0  3  0  0  0  0
   15.7990  -13.7810  -24.7460 C   0  0  0  0  0  0
   15.9540  -12.2340  -25.0660 C   0  0  0  0  0  0
   15.4550  -11.0860  -24.1950 C   0  0  0  0  0  0
   16.2700  -10.6330  -23.0100 N   0  0  0  0  0  0
   15.8780   -9.5300  -22.1190 C   0  0  0  0  0  0
   15.5080   -8.2760  -22.7010 C   0  0  0  0  0  0
   15.1210   -7.1410  -21.9360 C   0  0  0  0  0  0
   15.1100   -7.1420  -20.5390 C   0  0  0  0  0  0
   15.5030   -8.4530  -19.9130 C   0  0  0  0  0  0
   15.8850   -9.5540  -20.6610 C   0  0  0  0  0  0
   16.2050  -10.7030  -19.7490 C   0  0  0  0  0  0
   16.5990  -12.0140  -20.4100 C   0  0  0  0  0  0
   17.7620  -11.8620  -21.3850 C   0  0  0  0  0  0
   17.5260  -11.1940  -22.6040 C   0  0  0  0  0  0
   19.0150  -12.3730  -21.0740 C   0  0  0  0  0  0
   20.2000  -12.2440  -22.0350 C   0  0  0  0  0  0
   19.9460  -11.5770  -23.2430 C   0  0  0  0  0  0
   18.6370  -11.0950  -23.4600 C   0  0  0  0  0  0
   17.8139  -15.7115  -27.0957 H   0  0  0  0  0  0
   17.7387  -16.1727  -25.3612 H   0  0  0  0  0  0
   18.5975  -14.6745  -25.8557 H   0  0  0  0  0  0
   16.4433  -13.6913  -26.6178 H   0  0  0  0  0  0
   15.5845  -15.1895  -26.1233 H   0  0  0  0  0  0
   14.7381  -14.0614  -24.6693 H   0  0  0  0  0  0
   16.3157  -14.0418  -23.8106 H   0  0  0  0  0  0
   17.0216  -11.9813  -25.1461 H   0  0  0  0  0  0
   15.4504  -12.0039  -26.0165 H   0  0  0  0  0  0
   15.3494  -10.1792  -24.8087 H   0  0  0  0  0  0
   14.4792  -11.3515  -23.7621 H   0  0  0  0  0  0
   15.5236   -8.1860  -23.7872 H   0  0  0  0  0  0
   14.8210   -6.2340  -22.4608 H   0  0  0  0  0  0
   14.8390   -6.2653  -19.9507 H   0  0  0  0  0  0
   15.4863   -8.5394  -18.8266 H   0  0  0  0  0  0
   17.0505  -10.4314  -19.0998 H   0  0  0  0  0  0
   15.3264  -10.9348  -19.1290 H   0  0  0  0  0  0
   16.9015  -12.7373  -19.6384 H   0  0  0  0  0  0
   15.7417  -12.4138  -20.9714 H   0  0  0  0  0  0
   19.1590  -12.8798  -20.1198 H   0  0  0  0  0  0
   21.1838  -12.6470  -21.7946 H   0  0  0  0  0  0
   20.7305  -11.4362  -23.9865 H   0  0  0  0  0  0
   18.4667  -10.5834  -24.4073 H   0  0  0  0  0  0
  1  2  1  0  0  0
  1 21  1  0  0  0
  1 22  1  0  0  0
  1 23  1  0  0  0
  2  3  1  0  0  0
  2 24  1  0  0  0
  2 25  1  0  0  0
  3  4  1  0  0  0
  3 26  1  0  0  0
  3 27  1  0  0  0
  4  5  1  0  0  0
  4 28  1  0  0  0
  4 29  1  0  0  0
  5  6  1  0  0  0
  5 30  1  0  0  0
  5 31  1  0  0  0
  6  7  1  0  0  0
  6 16  1  0  0  0
  7  8  2  0  0  0
  7 12  1  0  0  0
  8  9  1  0  0  0
  8 32  1  0  0  0
  9 10  2  0  0  0
  9 33  1  0  0  0
 10 11  1  0  0  0
 10 34  1  0  0  0
 11 12  2  0  0  0
 11 35  1  0  0  0
 12 13  1  0  0  0
 13 14  1  0  0  0
 13 36  1  0  0  0
 13 37  1  0  0  0
 14 15  1  0  0  0
 14 38  1  0  0  0
 14 39  1  0  0  0
 15 16  2  0  0  0
 15 17  1  0  0  0
 16 20  1  0  0  0
 17 18  2  0  0  0
 17 40  1  0  0  0
 18 19  1  0  0  0
 18 41  1  0  0  0
 19 20  2  0  0  0
 19 42  1  0  0  0
 20 43  1  0  0  0
M  CHG  1   2   1
M  END
> <s_m_source_file>
../2qju_ligand.sdf

> <i_m_source_file_index>
1

> <s_epik_input>
W0NIM11bTkgyK11bQ0gyXVtDSDJdW0NIMl1OMWMoW2NIXVtjSF1bY0hdW2NIXTIpYzJbQ0gyXVtDSDJdYyhjMTMpW2NIXVtjSF1bY0hdW2NIXTM=

> <s_epik_cmdline>
J2VwaWtfYXBwJywgJy1pbWFlJywgJ2xpZ2FuZF9wcm8ubWFlJywgJy1vbWFlJywgJ2xpZ2FuZF9wcmVwLm1hZScsICctbXMnLCAnMScsICctcGgnLCAnNycsICctcGh0JywgJzAuNScsICctbnQn

> <r_lp_tautomer_probability>
1

> <r_epik_Ionization_Penalty>
  0.0020

> <r_epik_Ionization_Penalty_Charging>
  0.0002

> <r_epik_Ionization_Penalty_Neutral>
  0.0018

> <r_epik_State_Penalty>
 -0.0000

> <r_epik_Charging_Adjusted_Penalty>
0.000224817362342141

> <i_epik_Tot_Q>
1

> <i_epik_Tot_abs_Q>
1

$$$$
