2qk5_ligand
                    3D
 Schrodinger Suite 2020-3.
 84 86  0  0  1  0            999 V2000
   26.9150   15.4620   24.4970 C   0  0  0  0  0  0
   25.6110   15.8600   24.9200 C   0  0  0  0  0  0
   24.4840   15.0350   24.6320 C   0  0  0  0  0  0
   24.6710   13.8020   23.9250 C   0  0  0  0  0  0
   25.9790   13.4070   23.5030 C   0  0  0  0  0  0
   27.1110   14.2370   23.7870 C   0  0  0  0  0  0
   28.4740   13.8300   23.3630 C   0  0  0  0  0  0
   28.7080   13.6750   22.0170 N   0  0  0  0  0  0
   29.3720   13.6250   24.1820 O   0  0  0  0  0  0
   27.7180   13.9020   20.9730 C   0  0  0  0  0  0
   28.3010   14.8590   19.9510 C   0  0  0  0  0  0
   28.7320   16.1720   20.6070 C   0  0  0  0  0  0
   30.0500   13.2700   21.6190 C   0  0  0  0  0  0
   30.1130   11.7900   21.2340 C   0  0  0  0  0  0
   29.1400   10.9140   22.0110 C   0  0  0  0  0  0
   23.5220   12.9470   23.6180 C   0  0  0  0  0  0
   23.8100   11.6300   23.4600 N   0  0  0  0  0  0
   22.3790   13.3760   23.5090 O   0  0  0  0  0  0
   22.6700   10.7540   23.1400 C   0  0  2  0  0  0
   22.1840    9.9440   24.3660 C   0  0  2  0  0  0
   23.0250    9.8320   21.9700 C   0  0  0  0  0  0
   21.2070    9.0010   23.9100 O   0  0  0  0  0  0
   21.5440   10.8710   25.4290 C   0  0  0  0  0  0
   20.8420   10.0490   26.4420 N   0  3  0  0  0  0
   19.8880   10.8390   27.2550 C   0  0  0  0  0  0
   18.7540   11.4310   26.4350 C   0  0  0  0  0  0
   23.6970   10.6320   20.8840 C   0  0  0  0  0  0
   25.0430   10.3520   20.5260 C   0  0  0  0  0  0
   25.6750   11.1110   19.4980 C   0  0  0  0  0  0
   24.9640   12.1450   18.8310 C   0  0  0  0  0  0
   23.6180   12.4240   19.1910 C   0  0  0  0  0  0
   22.9830   11.6680   20.2170 C   0  0  0  0  0  0
   18.4900   12.8340   26.4940 C   0  0  0  0  0  0
   17.4270   13.3950   25.7250 C   0  0  0  0  0  0
   16.6240   12.5550   24.8970 C   0  0  0  0  0  0
   16.8830   11.1530   24.8360 C   0  0  0  0  0  0
   17.9510   10.5920   25.6080 C   0  0  0  0  0  0
   16.0900   10.3560   24.0230 O   0  0  0  0  0  0
   16.2830    8.9680   24.2750 C   0  0  0  0  0  0
   25.4320   17.1280   25.6490 C   0  0  0  0  0  0
   26.9410   10.8510   19.1590 F   0  0  0  0  0  0
   22.9570   13.3980   18.5600 F   0  0  0  0  0  0
   27.7710   16.0995   24.7180 H   0  0  0  0  0  0
   23.4863   15.3401   24.9476 H   0  0  0  0  0  0
   26.1150   12.4701   22.9628 H   0  0  0  0  0  0
   27.4685   12.9457   20.4901 H   0  0  0  0  0  0
   26.8101   14.3364   21.4168 H   0  0  0  0  0  0
   29.1800   14.3981   19.4768 H   0  0  0  0  0  0
   27.5448   15.0813   19.1837 H   0  0  0  0  0  0
   29.1497   16.8439   19.8427 H   0  0  0  0  0  0
   29.4957   15.9665   21.3715 H   0  0  0  0  0  0
   27.8605   16.6497   21.0784 H   0  0  0  0  0  0
   30.3699   13.8643   20.7504 H   0  0  0  0  0  0
   30.7463   13.4371   22.4540 H   0  0  0  0  0  0
   29.8734   11.6784   20.1662 H   0  0  0  0  0  0
   31.1253   11.4042   21.4249 H   0  0  0  0  0  0
   29.2430    9.8697   21.6811 H   0  0  0  0  0  0
   28.1110   11.2568   21.8273 H   0  0  0  0  0  0
   29.3630   10.9826   23.0860 H   0  0  0  0  0  0
   24.8199   11.2050   23.5570 H   0  0  0  0  0  0
   21.8631   11.4385   22.8393 H   0  0  0  0  0  0
   23.0056    9.3672   24.8157 H   0  0  0  0  0  0
   23.7073    9.0429   22.3190 H   0  0  0  0  0  0
   22.1073    9.3738   21.5727 H   0  0  0  0  0  0
   21.4766    8.2545   23.1484 H   0  0  0  0  0  0
   22.3300   11.4646   25.9188 H   0  0  0  0  0  0
   20.8249   11.5459   24.9418 H   0  0  0  0  0  0
   20.2766    9.2508   25.9387 H   0  0  0  0  0  0
   21.5785    9.6016   27.1256 H   0  0  0  0  0  0
   19.4406   10.1936   28.0253 H   0  0  0  0  0  0
   20.4199   11.6718   27.7381 H   0  0  0  0  0  0
   25.5907    9.5594   21.0357 H   0  0  0  0  0  0
   25.4501   12.7228   18.0449 H   0  0  0  0  0  0
   21.9502   11.8823   20.4919 H   0  0  0  0  0  0
   19.1015   13.4767   27.1274 H   0  0  0  0  0  0
   17.2283   14.4658   25.7701 H   0  0  0  0  0  0
   15.8119   12.9847   24.3105 H   0  0  0  0  0  0
   18.1503    9.5213   25.5632 H   0  0  0  0  0  0
   15.6347    8.3807   23.6081 H   0  0  0  0  0  0
   16.0287    8.7466   25.3221 H   0  0  0  0  0  0
   17.3347    8.7045   24.0895 H   0  0  0  0  0  0
   26.4080   17.6195   25.7749 H   0  0  0  0  0  0
   24.9939   16.9241   26.6372 H   0  0  0  0  0  0
   24.7605   17.7869   25.0791 H   0  0  0  0  0  0
  1  2  2  0  0  0
  1  6  1  0  0  0
  1 43  1  0  0  0
  2  3  1  0  0  0
  2 40  1  0  0  0
  3  4  2  0  0  0
  3 44  1  0  0  0
  4  5  1  0  0  0
  4 16  1  0  0  0
  5  6  2  0  0  0
  5 45  1  0  0  0
  6  7  1  0  0  0
  7  8  1  0  0  0
  7  9  2  0  0  0
  8 10  1  0  0  0
  8 13  1  0  0  0
 10 11  1  0  0  0
 10 46  1  0  0  0
 10 47  1  0  0  0
 11 12  1  0  0  0
 11 48  1  0  0  0
 11 49  1  0  0  0
 12 50  1  0  0  0
 12 51  1  0  0  0
 12 52  1  0  0  0
 13 14  1  0  0  0
 13 53  1  0  0  0
 13 54  1  0  0  0
 14 15  1  0  0  0
 14 55  1  0  0  0
 14 56  1  0  0  0
 15 57  1  0  0  0
 15 58  1  0  0  0
 15 59  1  0  0  0
 16 17  1  0  0  0
 16 18  2  0  0  0
 17 19  1  0  0  0
 17 60  1  0  0  0
 19 20  1  0  0  0
 19 21  1  0  0  0
 19 61  1  0  0  0
 20 22  1  0  0  0
 20 23  1  0  0  0
 20 62  1  0  0  0
 21 27  1  0  0  0
 21 63  1  0  0  0
 21 64  1  0  0  0
 22 65  1  0  0  0
 23 24  1  0  0  0
 23 66  1  0  0  0
 23 67  1  0  0  0
 24 25  1  0  0  0
 24 68  1  0  0  0
 24 69  1  0  0  0
 25 26  1  0  0  0
 25 70  1  0  0  0
 25 71  1  0  0  0
 26 33  2  0  0  0
 26 37  1  0  0  0
 27 28  2  0  0  0
 27 32  1  0  0  0
 28 29  1  0  0  0
 28 72  1  0  0  0
 29 30  2  0  0  0
 29 41  1  0  0  0
 30 31  1  0  0  0
 30 73  1  0  0  0
 31 32  2  0  0  0
 31 42  1  0  0  0
 32 74  1  0  0  0
 33 34  1  0  0  0
 33 75  1  0  0  0
 34 35  2  0  0  0
 34 76  1  0  0  0
 35 36  1  0  0  0
 35 77  1  0  0  0
 36 37  2  0  0  0
 36 38  1  0  0  0
 37 78  1  0  0  0
 38 39  1  0  0  0
 39 79  1  0  0  0
 39 80  1  0  0  0
 39 81  1  0  0  0
 40 82  1  0  0  0
 40 83  1  0  0  0
 40 84  1  0  0  0
M  CHG  1  24   1
M  END
> <s_m_source_file>
../2qk5_ligand.sdf

> <i_m_source_file_index>
1

> <s_epik_input>
W0NIM11bQ0gyXVtDSDJdTihbQ0gyXVtDSDJdW0NIM10pQyg9TyljKFtjSF1jMVtDSDNdKVtjSF1jKFtjSF0xKUMoPU8pW05IXVtDQEBIXShbQ0gyXWMyW2NIXWMoRilbY0hdYyhGKVtjSF0yKVtDQEhdKFtPSF0pW0NIMl1bTkgyK11bQ0gyXWMzW2NIXVtjSF1bY0hdYyhbY0hdMylPW0NIM10=

> <s_epik_cmdline>
J2VwaWtfYXBwJywgJy1pbWFlJywgJ2xpZ2FuZF9wcm8ubWFlJywgJy1vbWFlJywgJ2xpZ2FuZF9wcmVwLm1hZScsICctbXMnLCAnMScsICctcGgnLCAnNycsICctcGh0JywgJzAuNScsICctbnQn

> <r_lp_tautomer_probability>
1

> <r_epik_Ionization_Penalty>
  0.0203

> <r_epik_Ionization_Penalty_Charging>
  0.0203

> <r_epik_Ionization_Penalty_Neutral>
  0.0000

> <r_epik_State_Penalty>
  0.0163

> <r_epik_Charging_Adjusted_Penalty>
0.0366092764671401

> <i_epik_Tot_Q>
1

> <i_epik_Tot_abs_Q>
1

$$$$
