2qk8_ligand
                    3D
 Schrodinger Suite 2020-3.
 53 55  0  0  1  0            999 V2000
   -3.4950   -6.0660   17.3120 N   0  0  0  0  0  0
   -3.9620   -7.3240   17.2380 C   0  0  0  0  0  0
   -3.3580   -8.2450   17.9380 N   0  0  0  0  0  0
   -5.0490   -7.6650   16.4730 N   0  0  0  0  0  0
   -5.6860   -6.7350   15.6940 C   0  0  0  0  0  0
   -6.8490   -7.1010   15.1010 N   0  0  0  0  0  0
   -5.2220   -5.4150   15.7580 C   0  0  0  0  0  0
   -5.8280   -4.3980   15.0450 N   0  0  0  0  0  0
   -5.3590   -3.0800   15.1250 C   0  0  0  0  0  0
   -4.2700   -2.7840   15.9430 C   0  0  0  0  0  0
   -3.6560   -3.7940   16.6750 N   0  0  0  0  0  0
   -4.1270   -5.1020   16.5750 C   0  0  0  0  0  0
   -6.0040   -1.9700   14.3580 C   0  0  0  0  0  0
   -5.1340   -0.7800   14.2830 N   0  0  0  0  0  0
   -5.7960    0.5140   14.4610 C   0  0  0  0  0  0
   -1.5200   -0.7860   12.0370 C   0  0  0  0  0  0
   -2.1210    0.4330   12.3890 C   0  0  0  0  0  0
   -3.2910    0.4300   13.1380 C   0  0  0  0  0  0
   -3.8980   -0.7880   13.5240 C   0  0  0  0  0  0
   -3.2750   -1.9910   13.1500 C   0  0  0  0  0  0
   -2.1010   -1.9440   12.3790 C   0  0  0  0  0  0
   -0.2260   -0.8310   11.2560 C   0  0  0  0  0  0
    0.2670    0.3340   10.6240 O   0  0  0  0  0  0
    0.4100   -2.0050   11.2380 N   0  0  0  0  0  0
    1.6370   -2.3060   10.5340 C   0  0  2  0  0  0
    1.4110   -3.5310    9.6540 C   0  0  0  0  0  0
    0.7450   -4.5220   10.0970 O   0  0  0  0  0  0
    1.8640   -3.5820    8.4630 O   0  5  0  0  0  0
    2.6880   -2.6170   11.6120 C   0  0  0  0  0  0
    3.9900   -1.7870   11.6650 C   0  0  0  0  0  0
    3.7200   -0.3130   11.4530 C   0  0  0  0  0  0
    4.0660    0.2550   10.3760 O   0  5  0  0  0  0
    3.1430    0.3670   12.3370 O   0  0  0  0  0  0
   -2.4857   -7.9834   18.5549 H   0  0  0  0  0  0
   -3.7212   -9.2830   17.9111 H   0  0  0  0  0  0
   -7.1510   -8.1587   15.0885 H   0  0  0  0  0  0
   -7.4906   -6.3403   14.6323 H   0  0  0  0  0  0
   -3.8998   -1.7609   16.0088 H   0  0  0  0  0  0
   -6.2170   -2.3080   13.3331 H   0  0  0  0  0  0
   -6.9437   -1.6810   14.8515 H   0  0  0  0  0  0
   -6.7148    0.3778   15.0504 H   0  0  0  0  0  0
   -6.0506    0.9340   13.4768 H   0  0  0  0  0  0
   -5.1199    1.2021   14.9896 H   0  0  0  0  0  0
   -1.6724    1.3760   12.0765 H   0  0  0  0  0  0
   -3.7460    1.3761   13.4313 H   0  0  0  0  0  0
   -3.6972   -2.9487   13.4542 H   0  0  0  0  0  0
   -1.6487   -2.8791   12.0487 H   0  0  0  0  0  0
   -0.0889   -2.7850   11.8318 H   0  0  0  0  0  0
    1.9166   -1.4469    9.9065 H   0  0  0  0  0  0
    2.2413   -2.4850   12.6085 H   0  0  0  0  0  0
    3.0326   -3.6555   11.4993 H   0  0  0  0  0  0
    4.4665   -1.9148   12.6482 H   0  0  0  0  0  0
    4.6765   -2.1310   10.8774 H   0  0  0  0  0  0
  1  2  2  0  0  0
  1 12  1  0  0  0
  2  3  1  0  0  0
  2  4  1  0  0  0
  3 34  1  0  0  0
  3 35  1  0  0  0
  4  5  2  0  0  0
  5  6  1  0  0  0
  5  7  1  0  0  0
  6 36  1  0  0  0
  6 37  1  0  0  0
  7  8  1  0  0  0
  7 12  2  0  0  0
  8  9  2  0  0  0
  9 10  1  0  0  0
  9 13  1  0  0  0
 10 11  2  0  0  0
 10 38  1  0  0  0
 11 12  1  0  0  0
 13 14  1  0  0  0
 13 39  1  0  0  0
 13 40  1  0  0  0
 14 15  1  0  0  0
 14 19  1  0  0  0
 15 41  1  0  0  0
 15 42  1  0  0  0
 15 43  1  0  0  0
 16 17  2  0  0  0
 16 21  1  0  0  0
 16 22  1  0  0  0
 17 18  1  0  0  0
 17 44  1  0  0  0
 18 19  2  0  0  0
 18 45  1  0  0  0
 19 20  1  0  0  0
 20 21  2  0  0  0
 20 46  1  0  0  0
 21 47  1  0  0  0
 22 23  2  0  0  0
 22 24  1  0  0  0
 24 25  1  0  0  0
 24 48  1  0  0  0
 25 26  1  0  0  0
 25 29  1  0  0  0
 25 49  1  0  0  0
 26 27  2  0  0  0
 26 28  1  0  0  0
 29 30  1  0  0  0
 29 50  1  0  0  0
 29 51  1  0  0  0
 30 31  1  0  0  0
 30 52  1  0  0  0
 30 53  1  0  0  0
 31 32  1  0  0  0
 31 33  2  0  0  0
M  CHG  2  28  -1  32  -1
M  END
> <s_m_source_file>
../2qk8_ligand.sdf

> <i_m_source_file_index>
1

> <s_epik_input>
W05IMl1jMW5jKFtOSDJdKW5jKGMxMiluW2NIXWMobjIpW0NIMl1OKFtDSDNdKWMoW2NIXVtjSF0zKVtjSF1bY0hdYzNDKD1PKVtOSF1bQ0BIXShDKD1PKVtPSF0pW0NIMl1bQ0gyXUMoPU8pW09IXQ==

> <s_epik_cmdline>
J2VwaWtfYXBwJywgJy1pbWFlJywgJ2xpZ2FuZF9wcm8ubWFlJywgJy1vbWFlJywgJ2xpZ2FuZF9wcmVwLm1hZScsICctbXMnLCAnMScsICctcGgnLCAnNycsICctcGh0JywgJzAuNScsICctbnQn

> <r_epik_Ionization_Penalty>
  0.0825

> <r_epik_Ionization_Penalty_Charging>
  0.0043

> <r_epik_Ionization_Penalty_Neutral>
  0.0782

> <r_epik_State_Penalty>
  0.0653

> <r_epik_Charging_Adjusted_Penalty>
0.0696263758716874

> <i_epik_Tot_Q>
-2

> <i_epik_Tot_abs_Q>
2

$$$$
