2qki_ligand
                    3D
 Schrodinger Suite 2020-3.
207211  0  0  1  0            999 V2000
   34.1220   18.1090  -29.1550 N   0  3  0  0  0  0
   33.0420   18.0390  -30.1400 C   0  0  2  0  0  0
   33.5150   18.1650  -31.5950 C   0  0  0  0  0  0
   32.7240   17.9390  -32.5220 O   0  0  0  0  0  0
   31.9540   19.1300  -29.8790 C   0  0  2  0  0  0
   32.5980   20.5080  -29.6600 C   0  0  0  0  0  0
   31.0580   18.7340  -28.6990 C   0  0  0  0  0  0
   31.7570   21.6820  -30.1370 C   0  0  0  0  0  0
   34.7880   18.5270  -31.7960 N   0  0  0  0  0  0
   35.2830   18.8720  -33.1370 C   0  0  2  0  0  0
   36.7780   18.6240  -33.3850 C   0  0  0  0  0  0
   37.5750   18.5520  -32.4520 O   0  0  0  0  0  0
   34.9380   20.3300  -33.4660 C   0  0  0  0  0  0
   35.9820   21.5680  -32.6300 S   0  0  0  0  0  0
   37.1300   18.5240  -34.6680 N   0  0  0  0  0  0
   38.5080   18.3530  -35.1290 C   0  0  2  0  0  0
   38.8830   19.5020  -36.0690 C   0  0  0  0  0  0
   38.1840   19.7650  -37.0530 O   0  0  0  0  0  0
   38.6920   17.0000  -35.8710 C   0  0  0  0  0  0
   40.0530   16.9220  -36.5540 C   0  0  0  0  0  0
   38.5200   15.8310  -34.9170 C   0  0  0  0  0  0
   39.9860   20.1830  -35.7560 N   0  0  0  0  0  0
   40.4810   21.2920  -36.5680 C   0  0  2  0  0  0
   40.9620   20.8090  -37.9310 C   0  0  0  0  0  0
   42.0680   20.2830  -38.0680 O   0  0  0  0  0  0
   41.5830   22.0560  -35.8310 C   0  0  0  0  0  0
   41.0650   22.9060  -34.7120 C   0  0  0  0  0  0
   41.1170   22.6270  -33.3780 C   0  0  0  0  0  0
   40.4010   24.1720  -34.8310 C   0  0  0  0  0  0
   40.5320   23.6410  -32.6530 N   0  0  0  0  0  0
   40.0830   24.6030  -33.5210 C   0  0  0  0  0  0
   40.0440   24.9860  -35.9170 C   0  0  0  0  0  0
   39.4210   25.8120  -33.2680 C   0  0  0  0  0  0
   39.3870   26.1890  -35.6620 C   0  0  0  0  0  0
   39.0840   26.5890  -34.3490 C   0  0  0  0  0  0
   40.0950   20.9740  -38.9270 N   0  0  0  0  0  0
   40.3690   20.6010  -40.3170 C   0  0  2  0  0  0
   39.2990   21.1970  -41.2400 C   0  0  0  0  0  0
   38.3140   21.7750  -40.7710 O   0  0  0  0  0  0
   40.4610   19.0730  -40.4810 C   0  0  0  0  0  0
   39.2660   18.2970  -39.9440 C   0  0  0  0  0  0
   39.4280   16.7880  -40.0580 C   0  0  0  0  0  0
   40.5360   16.2700  -40.2180 O   0  0  0  0  0  0
   38.3130   16.0750  -39.9680 N   0  0  0  0  0  0
   39.4980   21.0640  -42.5480 N   0  0  0  0  0  0
   38.5910   21.6690  -43.5200 C   0  0  2  0  0  0
   37.8220   20.6420  -44.3640 C   0  0  0  0  0  0
   37.5400   20.8700  -45.5410 O   0  0  0  0  0  0
   39.3440   22.6840  -44.3910 C   0  0  0  0  0  0
   39.8330   23.8970  -43.5960 C   0  0  0  0  0  0
   39.2830   24.1700  -42.5040 O   0  0  0  0  0  0
   40.7670   24.5830  -44.0700 O   0  0  0  0  0  0
   37.4860   19.5170  -43.7370 N   0  0  0  0  0  0
   36.6270   18.4880  -44.3240 C   0  0  2  0  0  0
   35.9660   17.7070  -43.1890 C   0  0  0  0  0  0
   36.3810   17.8230  -42.0330 O   0  0  0  0  0  0
   37.4320   17.5450  -45.2310 C   0  0  0  0  0  0
   38.4410   16.7040  -44.4970 C   0  0  0  0  0  0
   39.7150   17.0630  -44.1560 C   0  0  0  0  0  0
   38.2580   15.3660  -44.0150 C   0  0  0  0  0  0
   40.3360   16.0330  -43.4890 N   0  0  0  0  0  0
   39.4650   14.9810  -43.3860 C   0  0  0  0  0  0
   37.1920   14.4560  -44.0480 C   0  0  0  0  0  0
   39.6360   13.7250  -42.8000 C   0  0  0  0  0  0
   37.3600   13.2130  -43.4640 C   0  0  0  0  0  0
   38.5760   12.8570  -42.8460 C   0  0  0  0  0  0
   34.9350   16.9290  -43.5140 N   0  0  0  0  0  0
   34.2910   16.0490  -42.5360 C   0  0  0  0  0  0
   33.1790   16.6820  -41.7200 C   0  0  0  0  0  0
   33.1520   17.8950  -41.5230 O   0  0  0  0  0  0
   32.2740   15.8400  -41.2240 N   0  0  0  0  0  0
   31.0730   16.2840  -40.5040 C   0  0  2  0  0  0
   31.3710   17.0320  -39.2010 C   0  0  0  0  0  0
   30.5940   17.8980  -38.7890 O   0  0  0  0  0  0
   30.1450   15.0980  -40.2390 C   0  0  0  0  0  0
   32.4970   16.6960  -38.5690 N   0  0  0  0  0  0
   32.9030   17.3100  -37.3070 C   0  0  2  0  0  0
   34.1050   18.2530  -37.4830 C   0  0  0  0  0  0
   35.1800   18.0310  -36.9270 O   0  0  0  0  0  0
   33.1870   16.2330  -36.2470 C   0  0  0  0  0  0
   32.1010   15.2050  -36.1120 C   0  0  0  0  0  0
   31.0190   15.3660  -35.2710 N   0  0  0  0  0  0
   31.9320   14.0030  -36.7130 C   0  0  0  0  0  0
   30.2310   14.3100  -35.3610 C   0  0  0  0  0  0
   30.7620   13.4670  -36.2290 N   0  0  0  0  0  0
   33.9080   19.3020  -38.2770 N   0  0  0  0  0  0
   34.8520   20.4130  -38.3630 C   0  0  2  0  0  0
   34.6360   21.3050  -37.1500 C   0  0  0  0  0  0
   33.5350   21.3390  -36.5930 O   0  0  0  0  0  0
   34.5960   21.2510  -39.6230 C   0  0  0  0  0  0
   34.8370   20.5450  -40.9510 C   0  0  0  0  0  0
   34.1470   21.2660  -42.1040 C   0  0  0  0  0  0
   32.7120   21.4250  -41.8650 N   0  0  0  0  0  0
   31.7600   20.6220  -42.3430 C   0  0  0  0  0  0
   32.0680   19.5830  -43.1130 N   0  0  0  0  0  0
   30.4880   20.8650  -42.0510 N   0  0  0  0  0  0
   35.6740   22.0370  -36.7510 N   0  0  0  0  0  0
   35.5390   23.0300  -35.6850 C   0  0  2  0  0  0
   34.9060   24.3240  -36.2010 C   0  0  0  0  0  0
   35.2350   24.7910  -37.2950 O   0  0  0  0  0  0
   36.8810   23.3020  -35.0020 C   0  0  0  0  0  0
   37.4900   21.9280  -33.9610 S   0  0  0  0  0  0
   34.0000   24.8790  -35.3900 N   0  0  0  0  0  0
   33.1740   26.0680  -35.7120 C   0  0  2  0  0  0
   32.3250   25.9310  -36.9900 C   0  0  0  0  0  0
   32.3620   24.8680  -37.6490 O   0  0  0  0  0  0
   33.9760   27.4230  -35.7200 C   0  0  2  0  0  0
   34.5780   27.6500  -37.0070 O   0  0  0  0  0  0
   35.0340   27.4830  -34.6020 C   0  0  0  0  0  0
   31.5555   26.9388  -37.3914 O   0  0  0  0  0  0
   33.7021   18.0113  -28.1430 H   0  0  0  0  0  0
   34.6389   19.0757  -29.2458 H   0  0  0  0  0  0
   34.8367   17.2926  -29.3359 H   0  0  0  0  0  0
   32.6725   17.0163  -29.9739 H   0  0  0  0  0  0
   31.3047   19.2147  -30.7629 H   0  0  0  0  0  0
   32.7799   20.6612  -28.5860 H   0  0  0  0  0  0
   33.5527   20.5573  -30.2042 H   0  0  0  0  0  0
   30.6155   17.7453  -28.8903 H   0  0  0  0  0  0
   30.2564   19.4780  -28.5815 H   0  0  0  0  0  0
   31.6596   18.6947  -27.7789 H   0  0  0  0  0  0
   32.2943   22.6216  -29.9408 H   0  0  0  0  0  0
   30.7979   21.6887  -29.5985 H   0  0  0  0  0  0
   31.5706   21.5848  -31.2167 H   0  0  0  0  0  0
   35.4683   18.5634  -30.9324 H   0  0  0  0  0  0
   34.7400   18.1550  -33.7703 H   0  0  0  0  0  0
   35.0500   20.4983  -34.5473 H   0  0  0  0  0  0
   33.8995   20.5372  -33.1683 H   0  0  0  0  0  0
   35.8098   22.6404  -32.8040 H   0  0  0  0  0  0
   36.3086   18.5774  -35.3976 H   0  0  0  0  0  0
   39.1206   18.3777  -34.2157 H   0  0  0  0  0  0
   37.9194   16.9185  -36.6497 H   0  0  0  0  0  0
   40.1672   17.7725  -37.2421 H   0  0  0  0  0  0
   40.1264   15.9809  -37.1188 H   0  0  0  0  0  0
   40.8473   16.9562  -35.7937 H   0  0  0  0  0  0
   37.5358   15.8969  -34.4301 H   0  0  0  0  0  0
   39.3102   15.8624  -34.1524 H   0  0  0  0  0  0
   38.5894   14.8871  -35.4775 H   0  0  0  0  0  0
   40.5283   19.8815  -34.8477 H   0  0  0  0  0  0
   39.6136   21.9521  -36.7163 H   0  0  0  0  0  0
   42.2998   21.3412  -35.4006 H   0  0  0  0  0  0
   42.1050   22.7186  -36.5371 H   0  0  0  0  0  0
   41.5590   21.7287  -32.9469 H   0  0  0  0  0  0
   40.2755   24.6841  -36.9384 H   0  0  0  0  0  0
   39.1825   26.1240  -32.2512 H   0  0  0  0  0  0
   39.1032   26.8310  -36.4959 H   0  0  0  0  0  0
   38.5704   27.5364  -34.1853 H   0  0  0  0  0  0
   39.1256   21.4188  -38.6577 H   0  0  0  0  0  0
   41.3498   21.0389  -40.5544 H   0  0  0  0  0  0
   40.5456   18.8233  -41.5489 H   0  0  0  0  0  0
   41.3465   18.6994  -39.9458 H   0  0  0  0  0  0
   39.1222   18.5354  -38.8798 H   0  0  0  0  0  0
   38.3637   18.5769  -40.5076 H   0  0  0  0  0  0
   37.3467   16.5809  -39.8253 H   0  0  0  0  0  0
   38.3547   14.9779  -40.0360 H   0  0  0  0  0  0
   40.3668   20.4843  -42.8931 H   0  0  0  0  0  0
   37.8451   22.1855  -42.8980 H   0  0  0  0  0  0
   40.2231   22.1998  -44.8414 H   0  0  0  0  0  0
   38.6785   23.0491  -45.1871 H   0  0  0  0  0  0
   39.6217   25.0381  -41.9195 H   0  0  0  0  0  0
   37.8918   19.3822  -42.7235 H   0  0  0  0  0  0
   35.8751   19.0090  -44.9349 H   0  0  0  0  0  0
   36.7457   16.8551  -45.7438 H   0  0  0  0  0  0
   37.9832   18.1360  -45.9773 H   0  0  0  0  0  0
   40.1727   18.0265  -44.3803 H   0  0  0  0  0  0
   36.2487   14.7227  -44.5247 H   0  0  0  0  0  0
   40.5761   13.4456  -42.3244 H   0  0  0  0  0  0
   36.5383   12.4970  -43.4821 H   0  0  0  0  0  0
   38.6756   11.8698  -42.3948 H   0  0  0  0  0  0
   34.5689   16.9601  -44.5508 H   0  0  0  0  0  0
   33.8434   15.1889  -43.0555 H   0  0  0  0  0  0
   35.0406   15.6920  -41.8144 H   0  0  0  0  0  0
   32.4593   14.7663  -41.3749 H   0  0  0  0  0  0
   30.6078   17.0026  -41.1949 H   0  0  0  0  0  0
   29.9419   14.5731  -41.1841 H   0  0  0  0  0  0
   29.1992   15.4611  -39.8106 H   0  0  0  0  0  0
   30.6264   14.4067  -39.5317 H   0  0  0  0  0  0
   33.1289   15.9249  -39.0338 H   0  0  0  0  0  0
   32.0340   17.9119  -37.0028 H   0  0  0  0  0  0
   34.1107   15.6959  -36.5084 H   0  0  0  0  0  0
   33.3060   16.7096  -35.2628 H   0  0  0  0  0  0
   32.5267   13.4474  -37.4530 H   0  0  0  0  0  0
   29.3011   14.1595  -34.8127 H   0  0  0  0  0  0
   32.9906   19.3115  -38.8839 H   0  0  0  0  0  0
   35.8596   19.9725  -38.3908 H   0  0  0  0  0  0
   33.5467   21.5808  -39.6371 H   0  0  0  0  0  0
   35.2567   22.1305  -39.6190 H   0  0  0  0  0  0
   35.9168   20.5128  -41.1585 H   0  0  0  0  0  0
   34.4431   19.5193  -40.8978 H   0  0  0  0  0  0
   34.5891   22.2656  -42.2284 H   0  0  0  0  0  0
   34.2807   20.6881  -43.0304 H   0  0  0  0  0  0
   32.3463   22.2591  -41.2481 H   0  0  0  0  0  0
   33.1193   19.3741  -43.3601 H   0  0  0  0  0  0
   31.2715   18.9322  -43.5030 H   0  0  0  0  0  0
   30.2239   21.7225  -41.4146 H   0  0  0  0  0  0
   36.6475   21.8836  -37.2397 H   0  0  0  0  0  0
   34.8562   22.5665  -34.9577 H   0  0  0  0  0  0
   37.6496   23.4910  -35.7659 H   0  0  0  0  0  0
   36.7885   24.1826  -34.3493 H   0  0  0  0  0  0
   38.4467   22.0249  -33.4268 H   0  0  0  0  0  0
   33.8910   24.3812  -34.4151 H   0  0  0  0  0  0
   32.4828   26.0423  -34.8567 H   0  0  0  0  0  0
   33.2918   28.2747  -35.5916 H   0  0  0  0  0  0
   33.9564   27.6399  -37.9145 H   0  0  0  0  0  0
   34.5505   27.3068  -33.6298 H   0  0  0  0  0  0
   35.5100   28.4747  -34.6005 H   0  0  0  0  0  0
   35.7970   26.7103  -34.7774 H   0  0  0  0  0  0
   30.9501   26.8388  -38.3043 H   0  0  0  0  0  0
  1  2  1  0  0  0
  1111  1  0  0  0
  1112  1  0  0  0
  1113  1  0  0  0
  2  5  1  0  0  0
  2  3  1  0  0  0
  2114  1  0  0  0
  3  4  2  0  0  0
  3  9  1  0  0  0
  5  7  1  0  0  0
  5  6  1  0  0  0
  5115  1  0  0  0
  6  8  1  0  0  0
  6116  1  0  0  0
  6117  1  0  0  0
  7118  1  0  0  0
  7119  1  0  0  0
  7120  1  0  0  0
  8121  1  0  0  0
  8122  1  0  0  0
  8123  1  0  0  0
  9 10  1  0  0  0
  9124  1  0  0  0
 10 13  1  0  0  0
 10 11  1  0  0  0
 10125  1  0  0  0
 11 12  2  0  0  0
 11 15  1  0  0  0
 13 14  1  0  0  0
 13126  1  0  0  0
 13127  1  0  0  0
 14128  1  0  0  0
 15 16  1  0  0  0
 15129  1  0  0  0
 16 19  1  0  0  0
 16 17  1  0  0  0
 16130  1  0  0  0
 17 18  2  0  0  0
 17 22  1  0  0  0
 19 21  1  0  0  0
 19 20  1  0  0  0
 19131  1  0  0  0
 20132  1  0  0  0
 20133  1  0  0  0
 20134  1  0  0  0
 21135  1  0  0  0
 21136  1  0  0  0
 21137  1  0  0  0
 22 23  1  0  0  0
 22138  1  0  0  0
 23 26  1  0  0  0
 23 24  1  0  0  0
 23139  1  0  0  0
 24 25  2  0  0  0
 24 36  1  0  0  0
 26 27  1  0  0  0
 26140  1  0  0  0
 26141  1  0  0  0
 27 28  2  0  0  0
 27 29  1  0  0  0
 28 30  1  0  0  0
 28142  1  0  0  0
 29 32  2  0  0  0
 29 31  1  0  0  0
 30 31  1  0  0  0
 31 33  2  0  0  0
 32 34  1  0  0  0
 32143  1  0  0  0
 33 35  1  0  0  0
 33144  1  0  0  0
 34 35  2  0  0  0
 34145  1  0  0  0
 35146  1  0  0  0
 36 37  1  0  0  0
 36147  1  0  0  0
 37 40  1  0  0  0
 37 38  1  0  0  0
 37148  1  0  0  0
 38 39  2  0  0  0
 38 45  1  0  0  0
 40 41  1  0  0  0
 40149  1  0  0  0
 40150  1  0  0  0
 41 42  1  0  0  0
 41151  1  0  0  0
 41152  1  0  0  0
 42 44  1  0  0  0
 42 43  2  0  0  0
 44153  1  0  0  0
 44154  1  0  0  0
 45 46  1  0  0  0
 45155  1  0  0  0
 46 49  1  0  0  0
 46 47  1  0  0  0
 46156  1  0  0  0
 47 48  2  0  0  0
 47 53  1  0  0  0
 49 50  1  0  0  0
 49157  1  0  0  0
 49158  1  0  0  0
 50 51  1  0  0  0
 50 52  2  0  0  0
 51159  1  0  0  0
 53 54  1  0  0  0
 53160  1  0  0  0
 54 57  1  0  0  0
 54 55  1  0  0  0
 54161  1  0  0  0
 55 56  2  0  0  0
 55 67  1  0  0  0
 57 58  1  0  0  0
 57162  1  0  0  0
 57163  1  0  0  0
 58 59  2  0  0  0
 58 60  1  0  0  0
 59 61  1  0  0  0
 59164  1  0  0  0
 60 63  2  0  0  0
 60 62  1  0  0  0
 61 62  1  0  0  0
 62 64  2  0  0  0
 63 65  1  0  0  0
 63165  1  0  0  0
 64 66  1  0  0  0
 64166  1  0  0  0
 65 66  2  0  0  0
 65167  1  0  0  0
 66168  1  0  0  0
 67 68  1  0  0  0
 67169  1  0  0  0
 68 69  1  0  0  0
 68170  1  0  0  0
 68171  1  0  0  0
 69 70  2  0  0  0
 69 71  1  0  0  0
 71 72  1  0  0  0
 71172  1  0  0  0
 72 75  1  0  0  0
 72 73  1  0  0  0
 72173  1  0  0  0
 73 74  2  0  0  0
 73 76  1  0  0  0
 75174  1  0  0  0
 75175  1  0  0  0
 75176  1  0  0  0
 76 77  1  0  0  0
 76177  1  0  0  0
 77 80  1  0  0  0
 77 78  1  0  0  0
 77178  1  0  0  0
 78 79  2  0  0  0
 78 86  1  0  0  0
 80 81  1  0  0  0
 80179  1  0  0  0
 80180  1  0  0  0
 81 82  2  0  0  0
 81 83  1  0  0  0
 82 84  1  0  0  0
 83 85  2  0  0  0
 83181  1  0  0  0
 84 85  1  0  0  0
 84182  1  0  0  0
 86 87  1  0  0  0
 86183  1  0  0  0
 87 90  1  0  0  0
 87 88  1  0  0  0
 87184  1  0  0  0
 88 89  2  0  0  0
 88 97  1  0  0  0
 90 91  1  0  0  0
 90185  1  0  0  0
 90186  1  0  0  0
 91 92  1  0  0  0
 91187  1  0  0  0
 91188  1  0  0  0
 92 93  1  0  0  0
 92189  1  0  0  0
 92190  1  0  0  0
 93 94  1  0  0  0
 93191  1  0  0  0
 94 96  2  0  0  0
 94 95  1  0  0  0
 95192  1  0  0  0
 95193  1  0  0  0
 96194  1  0  0  0
 97 98  1  0  0  0
 97195  1  0  0  0
 98101  1  0  0  0
 98 99  1  0  0  0
 98196  1  0  0  0
 99100  2  0  0  0
 99103  1  0  0  0
101102  1  0  0  0
101197  1  0  0  0
101198  1  0  0  0
102199  1  0  0  0
103104  1  0  0  0
103200  1  0  0  0
104107  1  0  0  0
104105  1  0  0  0
104201  1  0  0  0
105106  2  0  0  0
105110  1  0  0  0
107109  1  0  0  0
107108  1  0  0  0
107202  1  0  0  0
108203  1  0  0  0
109204  1  0  0  0
109205  1  0  0  0
109206  1  0  0  0
110207  1  0  0  0
M  CHG  1   1   1
M  END
> <s_m_source_file>
../2qki_ligand.sdf

> <i_m_source_file_index>
1

> <s_epik_input>
W0NIM11bQ0gyXVtDQEhdKFtDSDNdKVtDQEhdKFtOSDMrXSlDKD1PKVtOSF1bQ0BASF0oW0NIMl1bU0hdKUMoPU8pW05IXVtDQEBIXShbQ0hdKFtDSDNdKVtDSDNdKUMoPU8pW05IXVtDQEBIXShbQ0gyXWMxW2NIXVtuSF1jKGMxMilbY0hdW2NIXVtjSF1bY0hdMilDKD1PKVtOSF1bQ0BASF0oW0NIMl1bQ0gyXUMoPU8pW05IMl0pQyg9TylbTkhdW0NAQEhdKFtDSDJdQyg9TylbT0hdKUMoPU8pW05IXVtDQEBIXShbQ0gyXWMzW2NIXVtuSF1jKGMzNClbY0hdW2NIXVtjSF1bY0hdNClDKD1PKVtOSF1bQ0gyXUMoPU8pW05IXVtDQEBIXShbQ0gzXSlDKD1PKVtOSF1bQ0BASF0oW0NIMl1DNT1OW0NIMl1OPVtDSF01KUMoPU8pW05IXVtDQEBIXShbQ0gyXVtDSDJdW0NIMl1bTkhdL0MoW05IMl0pPU5cW0hdKUMoPU8pW05IXVtDQEBIXShbQ0gyXVtTSF0pQyg9TylbTkhdW0NASF0oQyg9TylbT0hdKVtDQEhdKFtPSF0pW0NIM10=

> <s_epik_cmdline>
J2VwaWtfYXBwJywgJy1pbWFlJywgJ2xpZ2FuZF9wcm8ubWFlJywgJy1vbWFlJywgJ2xpZ2FuZF9wcmVwLm1hZScsICctbXMnLCAnMScsICctcGgnLCAnNycsICctcGh0JywgJzAuNScsICctbnQn

> <s_epik_pKa_notes>
Molecule size exceeds maximum supported for generating protonation states

> <s_epik_Chemistry_Notes>
This compound has an imine and may undergo hydrolysis.

$$$$
