2qky_ligand
                    3D
 Schrodinger Suite 2020-3.
 56 57  0  0  1  0            999 V2000
   12.3960  -12.9530    7.0110 C   0  0  1  0  0  0
   12.8370  -11.6890    7.7730 C   0  0  0  0  0  0
   13.5750  -12.2040    8.9670 C   0  0  1  0  0  0
   12.9850  -13.5560    9.2720 C   0  0  0  0  0  0
   11.4750  -15.1570    7.9750 C   0  0  0  0  0  0
   11.3960  -16.0890    9.1800 C   0  0  0  0  0  0
   13.4140  -13.3240    5.8540 C   0  0  2  0  0  0
   12.2470  -13.9770    8.0790 N   0  0  0  0  0  0
   11.9760  -15.0840    4.6740 N   0  0  0  0  0  0
   12.2770  -16.1780    3.8770 N   0  0  0  0  0  0
   12.6780  -16.8180    9.3920 N   0  3  0  0  0  0
   13.1080  -14.5330    5.0090 C   0  0  0  0  0  0
   14.5040  -17.1990    3.0220 C   0  0  0  0  0  0
   14.8710  -12.2940    8.6340 F   0  0  0  0  0  0
   10.8510  -15.4600    6.9750 O   0  0  0  0  0  0
   14.6990  -13.5980    6.4210 O   0  0  0  0  0  0
   13.5990  -16.2210    3.7740 C   0  0  0  0  0  0
   14.1940  -15.2010    4.4730 O   0  0  0  0  0  0
   15.1630  -18.1860    4.0010 C   0  0  0  0  0  0
   15.5990  -16.4290    2.2710 C   0  0  0  0  0  0
   13.7000  -17.9990    1.9770 C   0  0  0  0  0  0
   12.7850  -18.3220    9.3060 C   0  0  0  0  0  0
   14.0450  -18.7420   10.0700 C   0  0  0  0  0  0
   11.5360  -18.9900    9.9260 C   0  0  0  0  0  0
   12.9280  -18.6890    7.8040 C   0  0  0  0  0  0
   10.4730  -19.0480    8.9930 O   0  0  0  0  0  0
   11.4214  -12.8555    6.5103 H   0  0  0  0  0  0
   13.4830  -11.0775    7.1259 H   0  0  0  0  0  0
   11.9497  -11.1063    8.0612 H   0  0  0  0  0  0
   13.5979  -11.5393    9.8432 H   0  0  0  0  0  0
   13.7936  -14.2658    9.5007 H   0  0  0  0  0  0
   12.3120  -13.4754   10.1383 H   0  0  0  0  0  0
   11.1760  -15.5019   10.0838 H   0  0  0  0  0  0
   10.5976  -16.8285    9.0199 H   0  0  0  0  0  0
   13.4443  -12.4614    5.1721 H   0  0  0  0  0  0
   13.4171  -16.4836    8.6491 H   0  0  0  0  0  0
   13.0553  -16.6097   10.4041 H   0  0  0  0  0  0
   15.1710  -12.8662    7.0931 H   0  0  0  0  0  0
   15.7401  -17.6270    4.7523 H   0  0  0  0  0  0
   15.8355  -18.8577    3.4473 H   0  0  0  0  0  0
   14.3845  -18.7790    4.5034 H   0  0  0  0  0  0
   16.1943  -15.8450    2.9884 H   0  0  0  0  0  0
   15.1346  -15.7497    1.5410 H   0  0  0  0  0  0
   16.2528  -17.1405    1.7454 H   0  0  0  0  0  0
   12.9035  -18.5651    2.4821 H   0  0  0  0  0  0
   14.3706  -18.6966    1.4540 H   0  0  0  0  0  0
   13.2524  -17.3058    1.2496 H   0  0  0  0  0  0
   13.9347  -18.4783   11.1322 H   0  0  0  0  0  0
   14.9184  -18.2205    9.6515 H   0  0  0  0  0  0
   14.1864  -19.8287    9.9747 H   0  0  0  0  0  0
   11.7855  -20.0145   10.2391 H   0  0  0  0  0  0
   11.2056  -18.4097   10.8001 H   0  0  0  0  0  0
   13.8229  -18.2007    7.3909 H   0  0  0  0  0  0
   12.0376  -18.3464    7.2565 H   0  0  0  0  0  0
   13.0248  -19.7799    7.7007 H   0  0  0  0  0  0
    9.5112  -19.4966    9.2822 H   0  0  0  0  0  0
  1  2  1  0  0  0
  1  7  1  0  0  0
  1  8  1  0  0  0
  1 27  1  0  0  0
  2  3  1  0  0  0
  2 28  1  0  0  0
  2 29  1  0  0  0
  3  4  1  0  0  0
  3 14  1  0  0  0
  3 30  1  0  0  0
  4  8  1  0  0  0
  4 31  1  0  0  0
  4 32  1  0  0  0
  5  6  1  0  0  0
  5  8  1  0  0  0
  5 15  2  0  0  0
  6 11  1  0  0  0
  6 33  1  0  0  0
  6 34  1  0  0  0
  7 12  1  0  0  0
  7 16  1  0  0  0
  7 35  1  0  0  0
  9 10  1  0  0  0
  9 12  2  0  0  0
 10 17  2  0  0  0
 11 22  1  0  0  0
 11 36  1  0  0  0
 11 37  1  0  0  0
 12 18  1  0  0  0
 13 17  1  0  0  0
 13 19  1  0  0  0
 13 20  1  0  0  0
 13 21  1  0  0  0
 16 38  1  0  0  0
 17 18  1  0  0  0
 19 39  1  0  0  0
 19 40  1  0  0  0
 19 41  1  0  0  0
 20 42  1  0  0  0
 20 43  1  0  0  0
 20 44  1  0  0  0
 21 45  1  0  0  0
 21 46  1  0  0  0
 21 47  1  0  0  0
 22 23  1  0  0  0
 22 24  1  0  0  0
 22 25  1  0  0  0
 23 48  1  0  0  0
 23 49  1  0  0  0
 23 50  1  0  0  0
 24 26  1  0  0  0
 24 51  1  0  0  0
 24 52  1  0  0  0
 25 53  1  0  0  0
 25 54  1  0  0  0
 25 55  1  0  0  0
 26 56  1  0  0  0
M  CHG  1  11   1
M  END
> <s_m_source_file>
../2qky_ligand.sdf

> <i_m_source_file_index>
1

> <s_epik_input>
W0NIM11DKFtDSDNdKShbQ0gzXSljKG8xKW5uYzFbQ0BIXShbT0hdKVtDQEBIXTJbQ0gyXVtDQEhdKEYpW0NIMl1OMkMoPU8pW0NIMl1bTkgyK11DKFtDSDNdKShbQ0gzXSlbQ0gyXVtPSF0=

> <s_epik_cmdline>
J2VwaWtfYXBwJywgJy1pbWFlJywgJ2xpZ2FuZF9wcm8ubWFlJywgJy1vbWFlJywgJ2xpZ2FuZF9wcmVwLm1hZScsICctbXMnLCAnMScsICctcGgnLCAnNycsICctcGh0JywgJzAuNScsICctbnQn

> <r_lp_tautomer_probability>
1

> <r_epik_Ionization_Penalty>
  0.0125

> <r_epik_Ionization_Penalty_Charging>
  0.0125

> <r_epik_Ionization_Penalty_Neutral>
  0.0000

> <r_epik_State_Penalty>
  0.0097

> <r_epik_Charging_Adjusted_Penalty>
0.0222535607285291

> <i_epik_Tot_Q>
1

> <i_epik_Tot_abs_Q>
1

$$$$
