2QL5_LIGAND
                    3D
 Schrodinger Suite 2020-3.
 61 60  0  0  1  0            999 V2000
   47.5250  -11.6620   30.7800 N   0  3  0  0  0  0
   47.1790  -13.0850   30.8760 C   0  0  2  0  0  0
   48.1380  -13.8090   31.8110 C   0  0  0  0  0  0
   49.3010  -13.4170   31.9380 O   0  0  0  0  0  0
   47.2860  -13.5950   29.4330 C   0  0  0  0  0  0
   46.2160  -13.0110   28.5090 C   0  0  0  0  0  0
   45.0140  -13.0630   28.8560 O   0  5  0  0  0  0
   46.5800  -12.5110   27.4240 O   0  0  0  0  0  0
   47.6350  -14.8550   32.4660 N   0  0  0  0  0  0
   48.4090  -15.6540   33.4150 C   0  0  2  0  0  0
   48.5540  -17.0910   32.9120 C   0  0  0  0  0  0
   47.8960  -17.4840   31.9480 O   0  0  0  0  0  0
   47.7030  -15.6630   34.7700 C   0  0  0  0  0  0
   47.5420  -14.2930   35.4070 C   0  0  0  0  0  0
   49.0700  -13.7100   36.1710 S   0  0  0  0  0  0
   49.8820  -12.8740   34.7690 C   0  0  0  0  0  0
   49.4100  -17.8710   33.5710 N   0  0  0  0  0  0
   49.6200  -19.2640   33.1790 C   0  0  2  0  0  0
   49.1440  -20.2490   34.2560 C   0  0  0  0  0  0
   49.1350  -19.9270   35.4450 O   0  0  0  0  0  0
   51.1000  -19.5240   32.8660 C   0  0  0  0  0  0
   51.6970  -18.6560   31.7550 C   0  0  0  0  0  0
   52.3150  -17.3650   32.2810 C   0  0  0  0  0  0
   53.1510  -17.3940   33.1870 O   0  0  0  0  0  0
   51.9140  -16.2300   31.7120 N   0  0  0  0  0  0
   48.7540  -21.4480   33.8270 N   0  0  0  0  0  0
   48.2760  -22.4940   34.7270 C   0  0  2  0  0  0
   49.1180  -23.7350   34.6330 C   0  0  0  0  0  0
   49.8000  -23.9860   35.8610 O   0  0  0  0  0  0
   46.8420  -22.8960   34.3820 C   0  0  0  0  0  0
   45.8170  -21.9440   34.9490 C   0  0  0  0  0  0
   44.7730  -21.7370   34.2970 O   0  5  0  0  0  0
   46.0520  -21.4010   36.0450 O   0  0  0  0  0  0
   47.4752  -11.2044   31.7790 H   0  0  0  0  0  0
   46.8147  -11.1564   30.1093 H   0  0  0  0  0  0
   48.5444  -11.5587   30.3797 H   0  0  0  0  0  0
   46.1752  -13.2194   31.3054 H   0  0  0  0  0  0
   48.2681  -13.3221   29.0195 H   0  0  0  0  0  0
   47.1747  -14.6893   29.4216 H   0  0  0  0  0  0
   46.5836  -15.1073   32.2637 H   0  0  0  0  0  0
   49.3968  -15.1753   33.4868 H   0  0  0  0  0  0
   46.6926  -16.0821   34.6542 H   0  0  0  0  0  0
   48.2765  -16.2791   35.4782 H   0  0  0  0  0  0
   47.2453  -13.5640   34.6386 H   0  0  0  0  0  0
   46.7673  -14.3398   36.1866 H   0  0  0  0  0  0
   50.8471  -12.4609   35.0975 H   0  0  0  0  0  0
   49.2388  -12.0589   34.4058 H   0  0  0  0  0  0
   50.0499  -13.5978   33.9579 H   0  0  0  0  0  0
   49.9634  -17.4501   34.4234 H   0  0  0  0  0  0
   49.0007  -19.3794   32.2773 H   0  0  0  0  0  0
   51.7036  -19.3367   33.7663 H   0  0  0  0  0  0
   51.2296  -20.5692   32.5487 H   0  0  0  0  0  0
   52.4862  -19.2184   31.2344 H   0  0  0  0  0  0
   50.9079  -18.3832   31.0388 H   0  0  0  0  0  0
   51.1653  -16.2532   30.9065 H   0  0  0  0  0  0
   52.3314  -15.2692   32.0474 H   0  0  0  0  0  0
   48.8032  -21.6344   32.7440 H   0  0  0  0  0  0
   48.3613  -22.0474   35.7286 H   0  0  0  0  0  0
   49.2518  -24.4168   33.7802 H   0  0  0  0  0  0
   46.7185  -22.9118   33.2891 H   0  0  0  0  0  0
   46.6336  -23.8965   34.7890 H   0  0  0  0  0  0
  1  2  1  0  0  0
  1 34  1  0  0  0
  1 35  1  0  0  0
  1 36  1  0  0  0
  2  3  1  0  0  0
  2  5  1  0  0  0
  2 37  1  0  0  0
  3  4  2  0  0  0
  3  9  1  0  0  0
  5  6  1  0  0  0
  5 38  1  0  0  0
  5 39  1  0  0  0
  6  7  1  0  0  0
  6  8  2  0  0  0
  9 10  1  0  0  0
  9 40  1  0  0  0
 10 11  1  0  0  0
 10 13  1  0  0  0
 10 41  1  0  0  0
 11 12  2  0  0  0
 11 17  1  0  0  0
 13 14  1  0  0  0
 13 42  1  0  0  0
 13 43  1  0  0  0
 14 15  1  0  0  0
 14 44  1  0  0  0
 14 45  1  0  0  0
 15 16  1  0  0  0
 16 46  1  0  0  0
 16 47  1  0  0  0
 16 48  1  0  0  0
 17 18  1  0  0  0
 17 49  1  0  0  0
 18 19  1  0  0  0
 18 21  1  0  0  0
 18 50  1  0  0  0
 19 20  2  0  0  0
 19 26  1  0  0  0
 21 22  1  0  0  0
 21 51  1  0  0  0
 21 52  1  0  0  0
 22 23  1  0  0  0
 22 53  1  0  0  0
 22 54  1  0  0  0
 23 24  2  0  0  0
 23 25  1  0  0  0
 25 55  1  0  0  0
 25 56  1  0  0  0
 26 27  1  0  0  0
 26 57  1  0  0  0
 27 28  1  0  0  0
 27 30  1  0  0  0
 27 58  1  0  0  0
 28 29  2  0  0  0
 28 59  1  0  0  0
 30 31  1  0  0  0
 30 60  1  0  0  0
 30 61  1  0  0  0
 31 32  1  0  0  0
 31 33  2  0  0  0
M  CHG  3   1   1   7  -1  32  -1
M  END
> <s_m_source_file>
../2ql5_ligand.sdf

> <i_m_source_file_index>
1

> <s_epik_input>
W09IXUMoPU8pW0NIMl1bQ0BIXShbTkgzK10pQyg9TylbTkhdW0NAQEhdKFtDSDJdW0NIMl1TW0NIM10pQyg9TylbTkhdW0NAQEhdKFtDSDJdW0NIMl1DKD1PKVtOSDJdKUMoPU8pW05IXVtDQEhdKFtDSF09TylbQ0gyXUMoPU8pW09IXQ==

> <s_epik_cmdline>
J2VwaWtfYXBwJywgJy1pbWFlJywgJ2xpZ2FuZF9wcm8ubWFlJywgJy1vbWFlJywgJ2xpZ2FuZF9wcmVwLm1hZScsICctbXMnLCAnMScsICctcGgnLCAnNycsICctcGh0JywgJzAuNScsICctbnQn

> <r_lp_tautomer_probability>
0.99990000499975

> <r_epik_Ionization_Penalty>
  0.0214

> <r_epik_Ionization_Penalty_Charging>
  0.0212

> <r_epik_Ionization_Penalty_Neutral>
  0.0002

> <r_epik_State_Penalty>
  0.0165

> <r_epik_Charging_Adjusted_Penalty>
0.0376853648184855

> <i_epik_Tot_Q>
-1

> <i_epik_Tot_abs_Q>
3

$$$$
