2ql7_ligand
                    3D
 Schrodinger Suite 2020-3.
 63 63  0  0  1  0            999 V2000
  -57.8350   28.6660    0.0450 N   0  3  0  0  0  0
  -56.4110   28.3170   -0.0010 C   0  0  2  0  0  0
  -56.1200   27.1230   -0.9110 C   0  0  0  0  0  0
  -56.8550   26.1340   -0.9120 O   0  0  0  0  0  0
  -55.9180   28.0170    1.4260 C   0  0  2  0  0  0
  -54.3960   28.1060    1.4690 C   0  0  0  0  0  0
  -56.3680   26.6240    1.8630 C   0  0  0  0  0  0
  -53.8510   28.1300    2.8530 C   0  0  0  0  0  0
  -55.0400   27.2290   -1.6810 N   0  0  0  0  0  0
  -54.6340   26.1820   -2.6130 C   0  0  2  0  0  0
  -53.3820   25.4500   -2.1390 C   0  0  0  0  0  0
  -52.5230   26.0350   -1.4820 O   0  0  0  0  0  0
  -54.3740   26.7910   -3.9930 C   0  0  0  0  0  0
  -55.6220   27.2720   -4.7130 C   0  0  0  0  0  0
  -55.3100   28.2350   -5.8470 C   0  0  0  0  0  0
  -54.3950   27.9460   -6.6540 O   0  5  0  0  0  0
  -55.9890   29.2830   -5.9350 O   0  0  0  0  0  0
  -53.2720   24.1490   -2.4590 N   0  0  0  0  0  0
  -52.1230   23.3170   -2.0750 C   0  0  2  0  0  0
  -50.9780   23.3180   -3.1010 C   0  0  0  0  0  0
  -51.1690   23.6910   -4.2590 O   0  0  0  0  0  0
  -52.7470   21.9380   -1.9030 C   0  0  0  0  0  0
  -53.7850   21.9260   -2.9810 C   0  0  0  0  0  0
  -54.4060   23.3080   -2.8940 C   0  0  0  0  0  0
  -49.7960   22.8870   -2.6620 N   0  0  0  0  0  0
  -48.6040   22.8350   -3.5090 C   0  0  2  0  0  0
  -47.9080   21.4870   -3.4680 C   0  0  0  0  0  0
  -48.0270   20.8300   -4.7270 O   0  0  0  0  0  0
  -47.5930   23.8910   -3.0690 C   0  0  0  0  0  0
  -47.7310   25.1820   -3.8390 C   0  0  0  0  0  0
  -47.2380   26.2200   -3.3480 O   0  5  0  0  0  0
  -48.3330   25.1580   -4.9330 O   0  0  0  0  0  0
  -58.1927   28.8815   -0.9726 H   0  0  0  0  0  0
  -57.9745   29.5544    0.6785 H   0  0  0  0  0  0
  -58.4056   27.8238    0.4636 H   0  0  0  0  0  0
  -55.9178   29.1993   -0.4349 H   0  0  0  0  0  0
  -56.3435   28.7549    2.1220 H   0  0  0  0  0  0
  -53.9631   27.2346    0.9558 H   0  0  0  0  0  0
  -54.0682   29.0278    0.9661 H   0  0  0  0  0  0
  -57.4660   26.5662    1.8299 H   0  0  0  0  0  0
  -56.0215   26.4319    2.8892 H   0  0  0  0  0  0
  -55.9405   25.8710    1.1846 H   0  0  0  0  0  0
  -52.7536   28.1946    2.8138 H   0  0  0  0  0  0
  -54.1456   27.2100    3.3791 H   0  0  0  0  0  0
  -54.2508   29.0032    3.3894 H   0  0  0  0  0  0
  -54.4448   28.1501   -1.5953 H   0  0  0  0  0  0
  -55.4780   25.4769   -2.6328 H   0  0  0  0  0  0
  -53.7081   27.6605   -3.8905 H   0  0  0  0  0  0
  -53.8993   26.0401   -4.6417 H   0  0  0  0  0  0
  -56.1543   26.4093   -5.1402 H   0  0  0  0  0  0
  -56.2790   27.7920   -4.0003 H   0  0  0  0  0  0
  -51.6599   23.7196   -1.1621 H   0  0  0  0  0  0
  -51.9751   21.1665   -2.0408 H   0  0  0  0  0  0
  -53.1748   21.8525   -0.8932 H   0  0  0  0  0  0
  -53.3023   21.7453   -3.9528 H   0  0  0  0  0  0
  -54.5138   21.1271   -2.7794 H   0  0  0  0  0  0
  -55.2122   23.3650   -2.1478 H   0  0  0  0  0  0
  -54.7784   23.6680   -3.8644 H   0  0  0  0  0  0
  -49.7398   22.5614   -1.6128 H   0  0  0  0  0  0
  -48.9962   23.0178   -4.5203 H   0  0  0  0  0  0
  -47.3667   21.0009   -2.6429 H   0  0  0  0  0  0
  -47.7390   24.1164   -2.0023 H   0  0  0  0  0  0
  -46.5731   23.5105   -3.2271 H   0  0  0  0  0  0
  1  2  1  0  0  0
  1 33  1  0  0  0
  1 34  1  0  0  0
  1 35  1  0  0  0
  2  3  1  0  0  0
  2  5  1  0  0  0
  2 36  1  0  0  0
  3  4  2  0  0  0
  3  9  1  0  0  0
  5  6  1  0  0  0
  5  7  1  0  0  0
  5 37  1  0  0  0
  6  8  1  0  0  0
  6 38  1  0  0  0
  6 39  1  0  0  0
  7 40  1  0  0  0
  7 41  1  0  0  0
  7 42  1  0  0  0
  8 43  1  0  0  0
  8 44  1  0  0  0
  8 45  1  0  0  0
  9 10  1  0  0  0
  9 46  1  0  0  0
 10 11  1  0  0  0
 10 13  1  0  0  0
 10 47  1  0  0  0
 11 12  2  0  0  0
 11 18  1  0  0  0
 13 14  1  0  0  0
 13 48  1  0  0  0
 13 49  1  0  0  0
 14 15  1  0  0  0
 14 50  1  0  0  0
 14 51  1  0  0  0
 15 16  1  0  0  0
 15 17  2  0  0  0
 18 19  1  0  0  0
 18 24  1  0  0  0
 19 20  1  0  0  0
 19 22  1  0  0  0
 19 52  1  0  0  0
 20 21  2  0  0  0
 20 25  1  0  0  0
 22 23  1  0  0  0
 22 53  1  0  0  0
 22 54  1  0  0  0
 23 24  1  0  0  0
 23 55  1  0  0  0
 23 56  1  0  0  0
 24 57  1  0  0  0
 24 58  1  0  0  0
 25 26  1  0  0  0
 25 59  1  0  0  0
 26 27  1  0  0  0
 26 29  1  0  0  0
 26 60  1  0  0  0
 27 28  2  0  0  0
 27 61  1  0  0  0
 29 30  1  0  0  0
 29 62  1  0  0  0
 29 63  1  0  0  0
 30 31  1  0  0  0
 30 32  2  0  0  0
M  CHG  3   1   1  16  -1  31  -1
M  END
> <s_m_source_file>
../2ql7_ligand.sdf

> <i_m_source_file_index>
1

> <s_epik_input>
W0NIM11bQ0gyXVtDQEhdKFtDSDNdKVtDQEhdKFtOSDMrXSlDKD1PKVtOSF1bQ0BASF0oW0NIMl1bQ0gyXUMoPU8pW09IXSlDKD1PKU4xW0NAQEhdKFtDSDJdW0NIMl1bQ0gyXTEpQyg9TylbTkhdW0NASF0oW0NIXT1PKVtDSDJdQyg9TylbT0hd

> <s_epik_cmdline>
J2VwaWtfYXBwJywgJy1pbWFlJywgJ2xpZ2FuZF9wcm8ubWFlJywgJy1vbWFlJywgJ2xpZ2FuZF9wcmVwLm1hZScsICctbXMnLCAnMScsICctcGgnLCAnNycsICctcGh0JywgJzAuNScsICctbnQn

> <r_lp_tautomer_probability>
0.99990000499975

> <r_epik_Ionization_Penalty>
  0.0865

> <r_epik_Ionization_Penalty_Charging>
  0.0864

> <r_epik_Ionization_Penalty_Neutral>
  0.0001

> <r_epik_State_Penalty>
  0.0751

> <r_epik_Charging_Adjusted_Penalty>
0.161420801804848

> <i_epik_Tot_Q>
-1

> <i_epik_Tot_abs_Q>
3

$$$$
