2ql9_ligand
                    3D
 Schrodinger Suite 2020-3.
 61 60  0  0  1  0            999 V2000
  -57.0810   28.7610    0.5160 N   0  3  0  0  0  0
  -55.6930   28.2940    0.3850 C   0  0  2  0  0  0
  -55.5730   27.0860   -0.5360 C   0  0  0  0  0  0
  -56.5030   26.2870   -0.6440 O   0  0  0  0  0  0
  -55.2870   27.9510    1.8190 C   0  0  0  0  0  0
  -55.2470   29.1660    2.7220 C   0  0  0  0  0  0
  -54.5940   30.1610    2.3450 O   0  0  0  0  0  0
  -55.8560   29.1240    3.8130 O   0  5  0  0  0  0
  -54.4300   26.9660   -1.2030 N   0  0  0  0  0  0
  -54.1830   25.8580   -2.1140 C   0  0  2  0  0  0
  -52.9520   25.0810   -1.6610 C   0  0  0  0  0  0
  -52.1140   25.6080   -0.9250 O   0  0  0  0  0  0
  -53.9570   26.3810   -3.5340 C   0  0  0  0  0  0
  -55.0800   27.2470   -4.0670 C   0  0  0  0  0  0
  -54.8770   27.6230   -5.5220 C   0  0  0  0  0  0
  -53.8800   28.2570   -5.8850 O   0  0  0  0  0  0
  -55.8240   27.2280   -6.3690 N   0  0  0  0  0  0
  -52.8430   23.8310   -2.1060 N   0  0  0  0  0  0
  -51.7080   22.9930   -1.7420 C   0  0  2  0  0  0
  -50.6510   22.9490   -2.8410 C   0  0  0  0  0  0
  -50.9650   23.0830   -4.0260 O   0  0  0  0  0  0
  -52.1710   21.5680   -1.4330 C   0  0  0  0  0  0
  -53.0690   21.4510   -0.2160 C   0  0  0  0  0  0
  -54.6770   20.7520   -0.6270 S   0  0  0  0  0  0
  -55.6220   22.2370   -0.9090 C   0  0  0  0  0  0
  -49.3990   22.7590   -2.4270 N   0  0  0  0  0  0
  -48.2560   22.6740   -3.3300 C   0  0  2  0  0  0
  -47.6120   21.3080   -3.2650 C   0  0  0  0  0  0
  -47.7660   20.6080   -4.4900 O   0  0  0  0  0  0
  -47.1810   23.6890   -2.9420 C   0  0  0  0  0  0
  -47.3610   25.0230   -3.6220 C   0  0  0  0  0  0
  -46.9420   26.0390   -3.0280 O   0  0  0  0  0  0
  -47.9140   25.0590   -4.7430 O   0  5  0  0  0  0
  -57.4704   29.0361   -0.4753 H   0  0  0  0  0  0
  -57.1116   29.6386    1.1785 H   0  0  0  0  0  0
  -57.6994   27.9576    0.9428 H   0  0  0  0  0  0
  -55.0722   29.0747   -0.0788 H   0  0  0  0  0  0
  -56.0096   27.2390    2.2443 H   0  0  0  0  0  0
  -54.2841   27.4990    1.8180 H   0  0  0  0  0  0
  -53.6586   27.7352   -1.0506 H   0  0  0  0  0  0
  -55.0811   25.2242   -2.0724 H   0  0  0  0  0  0
  -53.0418   26.9907   -3.5588 H   0  0  0  0  0  0
  -53.8507   25.5317   -4.2250 H   0  0  0  0  0  0
  -56.0326   26.7030   -3.9858 H   0  0  0  0  0  0
  -55.1370   28.1757   -3.4803 H   0  0  0  0  0  0
  -56.6937   26.6656   -5.9983 H   0  0  0  0  0  0
  -55.7373   27.4638   -7.4399 H   0  0  0  0  0  0
  -53.6322   23.4338   -2.7613 H   0  0  0  0  0  0
  -51.2896   23.4811   -0.8494 H   0  0  0  0  0  0
  -52.7377   21.1729   -2.2890 H   0  0  0  0  0  0
  -51.2945   20.9298   -1.2475 H   0  0  0  0  0  0
  -52.5920   20.7986    0.5302 H   0  0  0  0  0  0
  -53.2296   22.4487    0.2185 H   0  0  0  0  0  0
  -56.6547   21.9691   -1.1768 H   0  0  0  0  0  0
  -55.1673   22.8106   -1.7301 H   0  0  0  0  0  0
  -55.6271   22.8476    0.0059 H   0  0  0  0  0  0
  -49.2503   22.6648   -1.3412 H   0  0  0  0  0  0
  -48.6792   22.8694   -4.3263 H   0  0  0  0  0  0
  -47.0767   20.8383   -2.4267 H   0  0  0  0  0  0
  -47.2128   23.8596   -1.8558 H   0  0  0  0  0  0
  -46.1911   23.3004   -3.2233 H   0  0  0  0  0  0
  1  2  1  0  0  0
  1 34  1  0  0  0
  1 35  1  0  0  0
  1 36  1  0  0  0
  2  3  1  0  0  0
  2  5  1  0  0  0
  2 37  1  0  0  0
  3  4  2  0  0  0
  3  9  1  0  0  0
  5  6  1  0  0  0
  5 38  1  0  0  0
  5 39  1  0  0  0
  6  7  2  0  0  0
  6  8  1  0  0  0
  9 10  1  0  0  0
  9 40  1  0  0  0
 10 11  1  0  0  0
 10 13  1  0  0  0
 10 41  1  0  0  0
 11 12  2  0  0  0
 11 18  1  0  0  0
 13 14  1  0  0  0
 13 42  1  0  0  0
 13 43  1  0  0  0
 14 15  1  0  0  0
 14 44  1  0  0  0
 14 45  1  0  0  0
 15 16  2  0  0  0
 15 17  1  0  0  0
 17 46  1  0  0  0
 17 47  1  0  0  0
 18 19  1  0  0  0
 18 48  1  0  0  0
 19 20  1  0  0  0
 19 22  1  0  0  0
 19 49  1  0  0  0
 20 21  2  0  0  0
 20 26  1  0  0  0
 22 23  1  0  0  0
 22 50  1  0  0  0
 22 51  1  0  0  0
 23 24  1  0  0  0
 23 52  1  0  0  0
 23 53  1  0  0  0
 24 25  1  0  0  0
 25 54  1  0  0  0
 25 55  1  0  0  0
 25 56  1  0  0  0
 26 27  1  0  0  0
 26 57  1  0  0  0
 27 28  1  0  0  0
 27 30  1  0  0  0
 27 58  1  0  0  0
 28 29  2  0  0  0
 28 59  1  0  0  0
 30 31  1  0  0  0
 30 60  1  0  0  0
 30 61  1  0  0  0
 31 32  2  0  0  0
 31 33  1  0  0  0
M  CHG  3   1   1   8  -1  33  -1
M  END
> <s_m_source_file>
../2ql9_ligand.sdf

> <i_m_source_file_index>
1

> <s_epik_input>
Tz1DKFtPSF0pW0NIMl1bQ0BIXShbTkgzK10pQyg9TylbTkhdW0NAQEhdKFtDSDJdW0NIMl1DKD1PKVtOSDJdKUMoPU8pW05IXVtDQEBIXShbQ0gyXVtDSDJdU1tDSDNdKUMoPU8pW05IXVtDQEhdKFtDSF09TylbQ0gyXUMoPU8pW09IXQ==

> <s_epik_cmdline>
J2VwaWtfYXBwJywgJy1pbWFlJywgJ2xpZ2FuZF9wcm8ubWFlJywgJy1vbWFlJywgJ2xpZ2FuZF9wcmVwLm1hZScsICctbXMnLCAnMScsICctcGgnLCAnNycsICctcGh0JywgJzAuNScsICctbnQn

> <r_lp_tautomer_probability>
0.99990000499975

> <r_epik_Ionization_Penalty>
  0.0215

> <r_epik_Ionization_Penalty_Charging>
  0.0213

> <r_epik_Ionization_Penalty_Neutral>
  0.0002

> <r_epik_State_Penalty>
  0.0166

> <r_epik_Charging_Adjusted_Penalty>
0.0378761231599813

> <i_epik_Tot_Q>
-1

> <i_epik_Tot_abs_Q>
3

$$$$
