2qlb_ligand
                    3D
 Schrodinger Suite 2020-3.
 58 57  0  0  1  0            999 V2000
  -34.2870   35.6270  -31.2990 N   0  3  0  0  0  0
  -35.3520   34.6600  -31.5980 C   0  0  2  0  0  0
  -36.4830   35.1930  -32.4680 C   0  0  0  0  0  0
  -36.7700   36.3910  -32.4660 O   0  0  0  0  0  0
  -35.8590   34.2430  -30.2190 C   0  0  0  0  0  0
  -35.0850   33.1000  -29.5910 C   0  0  0  0  0  0
  -34.5790   33.4370  -28.2070 C   0  0  0  0  0  0
  -34.0180   32.5370  -27.5440 O   0  0  0  0  0  0
  -34.7380   34.6040  -27.7860 O   0  5  0  0  0  0
  -37.1130   34.2870  -33.2140 N   0  0  0  0  0  0
  -38.2370   34.6280  -34.0810 C   0  0  2  0  0  0
  -39.4920   33.9120  -33.5780 C   0  0  0  0  0  0
  -39.4170   33.0770  -32.6760 O   0  0  0  0  0  0
  -37.9390   34.2430  -35.5350 C   0  0  0  0  0  0
  -37.5270   32.8950  -35.6390 O   0  0  0  0  0  0
  -40.6400   34.2340  -34.1650 N   0  0  0  0  0  0
  -41.9050   33.6470  -33.7370 C   0  0  2  0  0  0
  -42.5900   32.7550  -34.7700 C   0  0  0  0  0  0
  -42.4040   32.9250  -35.9780 O   0  0  0  0  0  0
  -42.8480   34.7710  -33.3090 C   0  0  0  0  0  0
  -42.2890   35.6050  -32.1670 C   0  0  0  0  0  0
  -42.8500   37.3140  -32.1990 S   0  0  0  0  0  0
  -41.5660   38.0640  -33.2050 C   0  0  0  0  0  0
  -43.3900   31.8080  -34.2740 N   0  0  0  0  0  0
  -44.1230   30.8560  -35.1110 C   0  0  2  0  0  0
  -45.6270   31.0220  -35.0070 C   0  0  0  0  0  0
  -46.1940   31.4220  -36.2600 O   0  0  0  0  0  0
  -43.8030   29.4200  -34.6990 C   0  0  0  0  0  0
  -42.5320   28.9050  -35.3190 C   0  0  0  0  0  0
  -41.9080   28.0050  -34.7170 O   0  0  0  0  0  0
  -42.1600   29.4010  -36.4050 O   0  5  0  0  0  0
  -33.8499   35.9935  -32.2395 H   0  0  0  0  0  0
  -33.5062   35.1382  -30.6978 H   0  0  0  0  0  0
  -34.7076   36.4731  -30.7358 H   0  0  0  0  0  0
  -34.9225   33.8483  -32.2036 H   0  0  0  0  0  0
  -35.7895   35.0970  -29.5291 H   0  0  0  0  0  0
  -36.9072   33.9185  -30.2964 H   0  0  0  0  0  0
  -35.7366   32.2177  -29.5084 H   0  0  0  0  0  0
  -34.2160   32.8564  -30.2199 H   0  0  0  0  0  0
  -36.7561   33.2480  -33.1593 H   0  0  0  0  0  0
  -38.3633   35.7189  -34.0175 H   0  0  0  0  0  0
  -38.8455   34.3782  -36.1432 H   0  0  0  0  0  0
  -37.1356   34.8841  -35.9268 H   0  0  0  0  0  0
  -37.2769   32.4706  -36.6226 H   0  0  0  0  0  0
  -40.6223   34.9605  -34.9907 H   0  0  0  0  0  0
  -41.6130   32.9881  -32.9060 H   0  0  0  0  0  0
  -43.0268   35.4438  -34.1607 H   0  0  0  0  0  0
  -43.8036   34.3406  -32.9748 H   0  0  0  0  0  0
  -42.6033   35.1696  -31.2070 H   0  0  0  0  0  0
  -41.1905   35.6143  -32.2233 H   0  0  0  0  0  0
  -41.7715   39.1384  -33.3206 H   0  0  0  0  0  0
  -41.5495   37.5852  -34.1952 H   0  0  0  0  0  0
  -40.5903   37.9278  -32.7156 H   0  0  0  0  0  0
  -43.4844   31.7639  -33.1789 H   0  0  0  0  0  0
  -43.7835   31.0954  -36.1295 H   0  0  0  0  0  0
  -46.2762   30.8766  -34.1310 H   0  0  0  0  0  0
  -43.6885   29.3690  -33.6062 H   0  0  0  0  0  0
  -44.6227   28.7571  -35.0131 H   0  0  0  0  0  0
  1  2  1  0  0  0
  1 32  1  0  0  0
  1 33  1  0  0  0
  1 34  1  0  0  0
  2  3  1  0  0  0
  2  5  1  0  0  0
  2 35  1  0  0  0
  3  4  2  0  0  0
  3 10  1  0  0  0
  5  6  1  0  0  0
  5 36  1  0  0  0
  5 37  1  0  0  0
  6  7  1  0  0  0
  6 38  1  0  0  0
  6 39  1  0  0  0
  7  8  2  0  0  0
  7  9  1  0  0  0
 10 11  1  0  0  0
 10 40  1  0  0  0
 11 12  1  0  0  0
 11 14  1  0  0  0
 11 41  1  0  0  0
 12 13  2  0  0  0
 12 16  1  0  0  0
 14 15  1  0  0  0
 14 42  1  0  0  0
 14 43  1  0  0  0
 15 44  1  0  0  0
 16 17  1  0  0  0
 16 45  1  0  0  0
 17 18  1  0  0  0
 17 20  1  0  0  0
 17 46  1  0  0  0
 18 19  2  0  0  0
 18 24  1  0  0  0
 20 21  1  0  0  0
 20 47  1  0  0  0
 20 48  1  0  0  0
 21 22  1  0  0  0
 21 49  1  0  0  0
 21 50  1  0  0  0
 22 23  1  0  0  0
 23 51  1  0  0  0
 23 52  1  0  0  0
 23 53  1  0  0  0
 24 25  1  0  0  0
 24 54  1  0  0  0
 25 26  1  0  0  0
 25 28  1  0  0  0
 25 55  1  0  0  0
 26 27  2  0  0  0
 26 56  1  0  0  0
 28 29  1  0  0  0
 28 57  1  0  0  0
 28 58  1  0  0  0
 29 30  2  0  0  0
 29 31  1  0  0  0
M  CHG  3   1   1   9  -1  31  -1
M  END
> <s_m_source_file>
../2qlb_ligand.sdf

> <i_m_source_file_index>
1

> <s_epik_input>
Tz1DKFtPSF0pW0NIMl1bQ0gyXVtDQEhdKFtOSDMrXSlDKD1PKVtOSF1bQ0BASF0oW0NIMl1bT0hdKUMoPU8pW05IXVtDQEBIXShbQ0gyXVtDSDJdU1tDSDNdKUMoPU8pW05IXVtDQEhdKFtDSF09TylbQ0gyXUMoPU8pW09IXQ==

> <s_epik_cmdline>
J2VwaWtfYXBwJywgJy1pbWFlJywgJ2xpZ2FuZF9wcm8ubWFlJywgJy1vbWFlJywgJ2xpZ2FuZF9wcmVwLm1hZScsICctbXMnLCAnMScsICctcGgnLCAnNycsICctcGh0JywgJzAuNScsICctbnQn

> <r_lp_tautomer_probability>
0.99990000499975

> <r_epik_Ionization_Penalty>
  0.0850

> <r_epik_Ionization_Penalty_Charging>
  0.0849

> <r_epik_Ionization_Penalty_Neutral>
  0.0002

> <r_epik_State_Penalty>
  0.0739

> <r_epik_Charging_Adjusted_Penalty>
0.158799010503713

> <i_epik_Tot_Q>
-1

> <i_epik_Tot_abs_Q>
3

$$$$
