2qlf_ligand
                    3D
 Schrodinger Suite 2020-3.
 60 59  0  0  1  0            999 V2000
  -47.6810   11.7670   30.8280 N   0  3  0  0  0  0
  -47.2950   13.1760   30.9770 C   0  0  2  0  0  0
  -48.2020   13.9010   31.9720 C   0  0  0  0  0  0
  -49.3380   13.4740   32.2130 O   0  0  0  0  0  0
  -47.4220   13.7420   29.5570 C   0  0  0  0  0  0
  -46.3980   13.1540   28.5880 C   0  0  0  0  0  0
  -45.1820   13.2570   28.8640 O   0  5  0  0  0  0
  -46.8040   12.5980   27.5440 O   0  0  0  0  0  0
  -47.6870   14.9870   32.5490 N   0  0  0  0  0  0
  -48.4290   15.7870   33.5230 C   0  0  2  0  0  0
  -48.7350   17.1640   32.9560 C   0  0  0  0  0  0
  -48.2260   17.5320   31.9000 O   0  0  0  0  0  0
  -47.6130   15.9490   34.8030 C   0  0  0  0  0  0
  -47.3310   14.6290   35.4880 C   0  0  0  0  0  0
  -46.6180   14.5840   36.4900 O   0  0  0  0  0  0
  -47.8900   13.5460   34.9570 N   0  0  0  0  0  0
  -49.5650   17.9230   33.6650 N   0  0  0  0  0  0
  -49.9300   19.2670   33.2310 C   0  0  2  0  0  0
  -49.4230   20.3220   34.2200 C   0  0  0  0  0  0
  -49.4770   20.1190   35.4370 O   0  0  0  0  0  0
  -51.4480   19.3780   33.0820 C   0  0  0  0  0  0
  -52.1330   18.4090   32.1130 C   0  0  0  0  0  0
  -53.6310   18.6620   32.1410 C   0  0  0  0  0  0
  -51.5950   18.5930   30.7060 C   0  0  0  0  0  0
  -48.9420   21.4470   33.6860 N   0  0  0  0  0  0
  -48.3990   22.5440   34.4910 C   0  0  2  0  0  0
  -49.2630   23.7960   34.4730 C   0  0  0  0  0  0
  -49.8620   24.0430   35.7460 O   0  0  0  0  0  0
  -47.0130   22.9360   33.9800 C   0  0  0  0  0  0
  -45.8990   22.2330   34.7190 C   0  0  0  0  0  0
  -44.8230   22.0230   34.1170 O   0  0  0  0  0  0
  -46.1030   21.8910   35.9050 O   0  5  0  0  0  0
  -47.6221   11.2654   31.8052 H   0  0  0  0  0  0
  -46.9990   11.2729   30.1204 H   0  0  0  0  0  0
  -48.7111   11.7074   30.4468 H   0  0  0  0  0  0
  -46.2782   13.2605   31.3880 H   0  0  0  0  0  0
  -48.4238   13.5185   29.1615 H   0  0  0  0  0  0
  -47.2722   14.8315   29.5818 H   0  0  0  0  0  0
  -46.6633   15.2742   32.2671 H   0  0  0  0  0  0
  -49.3614   15.2367   33.7174 H   0  0  0  0  0  0
  -46.6468   16.4178   34.5650 H   0  0  0  0  0  0
  -48.1644   16.5847   35.5114 H   0  0  0  0  0  0
  -48.5202   13.6360   34.0599 H   0  0  0  0  0  0
  -47.7223   12.5599   35.4147 H   0  0  0  0  0  0
  -49.9789   17.5152   34.5990 H   0  0  0  0  0  0
  -49.4363   19.4030   32.2574 H   0  0  0  0  0  0
  -51.9259   19.2025   34.0571 H   0  0  0  0  0  0
  -51.7085   20.3842   32.7218 H   0  0  0  0  0  0
  -51.9300   17.3711   32.4157 H   0  0  0  0  0  0
  -54.0068   18.5252   33.1657 H   0  0  0  0  0  0
  -54.1352   17.9531   31.4678 H   0  0  0  0  0  0
  -53.8353   19.6908   31.8097 H   0  0  0  0  0  0
  -50.5109   18.4069   30.7008 H   0  0  0  0  0  0
  -51.7922   19.6216   30.3697 H   0  0  0  0  0  0
  -52.0920   17.8838   30.0278 H   0  0  0  0  0  0
  -48.9659   21.5291   32.5893 H   0  0  0  0  0  0
  -48.3830   22.1267   35.5087 H   0  0  0  0  0  0
  -49.4556   24.4792   33.6327 H   0  0  0  0  0  0
  -46.9277   22.6752   32.9148 H   0  0  0  0  0  0
  -46.8690   24.0194   34.1049 H   0  0  0  0  0  0
  1  2  1  0  0  0
  1 33  1  0  0  0
  1 34  1  0  0  0
  1 35  1  0  0  0
  2  3  1  0  0  0
  2  5  1  0  0  0
  2 36  1  0  0  0
  3  4  2  0  0  0
  3  9  1  0  0  0
  5  6  1  0  0  0
  5 37  1  0  0  0
  5 38  1  0  0  0
  6  7  1  0  0  0
  6  8  2  0  0  0
  9 10  1  0  0  0
  9 39  1  0  0  0
 10 11  1  0  0  0
 10 13  1  0  0  0
 10 40  1  0  0  0
 11 12  2  0  0  0
 11 17  1  0  0  0
 13 14  1  0  0  0
 13 41  1  0  0  0
 13 42  1  0  0  0
 14 15  2  0  0  0
 14 16  1  0  0  0
 16 43  1  0  0  0
 16 44  1  0  0  0
 17 18  1  0  0  0
 17 45  1  0  0  0
 18 19  1  0  0  0
 18 21  1  0  0  0
 18 46  1  0  0  0
 19 20  2  0  0  0
 19 25  1  0  0  0
 21 22  1  0  0  0
 21 47  1  0  0  0
 21 48  1  0  0  0
 22 23  1  0  0  0
 22 24  1  0  0  0
 22 49  1  0  0  0
 23 50  1  0  0  0
 23 51  1  0  0  0
 23 52  1  0  0  0
 24 53  1  0  0  0
 24 54  1  0  0  0
 24 55  1  0  0  0
 25 26  1  0  0  0
 25 56  1  0  0  0
 26 27  1  0  0  0
 26 29  1  0  0  0
 26 57  1  0  0  0
 27 28  2  0  0  0
 27 58  1  0  0  0
 29 30  1  0  0  0
 29 59  1  0  0  0
 29 60  1  0  0  0
 30 31  2  0  0  0
 30 32  1  0  0  0
M  CHG  3   1   1   7  -1  32  -1
M  END
> <s_m_source_file>
../2qlf_ligand.sdf

> <i_m_source_file_index>
1

> <s_epik_input>
W09IXUMoPU8pW0NIMl1bQ0BIXShbTkgzK10pQyg9TylbTkhdW0NAQEhdKFtDSDJdQyg9TylbTkgyXSlDKD1PKVtOSF1bQ0BASF0oW0NIMl1bQ0hdKFtDSDNdKVtDSDNdKUMoPU8pW05IXVtDQEhdKFtDSF09TylbQ0gyXUMoPU8pW09IXQ==

> <s_epik_cmdline>
J2VwaWtfYXBwJywgJy1pbWFlJywgJ2xpZ2FuZF9wcm8ubWFlJywgJy1vbWFlJywgJ2xpZ2FuZF9wcmVwLm1hZScsICctbXMnLCAnMScsICctcGgnLCAnNycsICctcGh0JywgJzAuNScsICctbnQn

> <r_lp_tautomer_probability>
0.99990000499975

> <r_epik_Ionization_Penalty>
  0.0217

> <r_epik_Ionization_Penalty_Charging>
  0.0216

> <r_epik_Ionization_Penalty_Neutral>
  0.0001

> <r_epik_State_Penalty>
  0.0168

> <r_epik_Charging_Adjusted_Penalty>
0.0384640060056558

> <i_epik_Tot_Q>
-1

> <i_epik_Tot_abs_Q>
3

$$$$
