2qlj_ligand
                    3D
 Schrodinger Suite 2020-3.
 70 72  0  0  1  0            999 V2000
  -34.0400   35.0190  -31.9180 N   0  3  0  0  0  0
  -35.2830   34.5350  -31.3940 C   0  0  2  0  0  0
  -36.4330   35.1350  -32.2950 C   0  0  0  0  0  0
  -36.6870   36.3260  -32.2650 O   0  0  0  0  0  0
  -35.5670   34.9220  -29.9180 C   0  0  0  0  0  0
  -34.8090   33.9980  -29.0010 C   0  0  0  0  0  0
  -35.1770   32.7220  -28.7100 C   0  0  0  0  0  0
  -33.6150   34.2700  -28.2320 C   0  0  0  0  0  0
  -34.3030   32.1870  -27.7890 N   0  3  0  0  0  0
  -33.3520   33.1060  -27.4800 C   0  0  0  0  0  0
  -32.7340   35.3540  -28.0420 C   0  0  0  0  0  0
  -32.2850   32.9990  -26.5820 C   0  0  0  0  0  0
  -31.6810   35.2420  -27.1620 C   0  0  0  0  0  0
  -31.4650   34.0850  -26.4320 C   0  0  0  0  0  0
  -37.1470   34.2960  -33.0930 N   0  0  0  0  0  0
  -38.2640   34.7480  -33.9650 C   0  0  2  0  0  0
  -39.5300   34.0790  -33.4500 C   0  0  0  0  0  0
  -39.5350   33.5940  -32.3270 O   0  0  0  0  0  0
  -38.0230   34.3030  -35.4120 C   0  0  0  0  0  0
  -36.5600   34.3200  -35.8300 C   0  0  0  0  0  0
  -36.3530   33.8190  -37.2480 C   0  0  0  0  0  0
  -35.1810   33.6540  -37.6590 O   0  5  0  0  0  0
  -37.3640   33.5930  -37.9500 O   0  0  0  0  0  0
  -40.5920   34.0320  -34.2500 N   0  0  0  0  0  0
  -41.8140   33.3760  -33.7950 C   0  0  2  0  0  0
  -42.5860   32.6540  -34.8990 C   0  0  0  0  0  0
  -42.4080   32.9350  -36.0860 O   0  0  0  0  0  0
  -42.7350   34.3780  -33.0780 C   0  0  0  0  0  0
  -43.1600   35.5360  -33.9280 C   0  0  0  0  0  0
  -42.3160   36.5790  -34.2440 N   0  0  0  0  0  0
  -44.3420   35.8130  -34.5280 C   0  0  0  0  0  0
  -42.9600   37.4500  -35.0010 C   0  0  0  0  0  0
  -44.1910   37.0090  -35.1890 N   0  0  0  0  0  0
  -43.4360   31.7130  -34.4880 N   0  0  0  0  0  0
  -44.2540   30.9250  -35.4090 C   0  0  2  0  0  0
  -45.7440   31.1880  -35.2250 C   0  0  0  0  0  0
  -46.2980   31.7960  -36.4070 O   0  0  0  0  0  0
  -44.0180   29.4240  -35.2040 C   0  0  0  0  0  0
  -42.5820   29.0090  -35.4630 C   0  0  0  0  0  0
  -42.0580   28.1770  -34.6960 O   0  0  0  0  0  0
  -41.9780   29.5070  -36.4340 O   0  5  0  0  0  0
  -33.9316   34.6944  -32.9634 H   0  0  0  0  0  0
  -33.2087   34.6161  -31.3209 H   0  0  0  0  0  0
  -34.0257   36.1179  -31.8719 H   0  0  0  0  0  0
  -35.1414   33.4448  -31.4318 H   0  0  0  0  0  0
  -35.2441   35.9587  -29.7421 H   0  0  0  0  0  0
  -36.6449   34.8346  -29.7169 H   0  0  0  0  0  0
  -36.0594   32.2797  -29.1956 H   0  0  0  0  0  0
  -32.8867   36.2822  -28.5926 H   0  0  0  0  0  0
  -32.1120   32.0812  -26.0201 H   0  0  0  0  0  0
  -31.0008   36.0845  -27.0368 H   0  0  0  0  0  0
  -30.6325   34.0385  -25.7299 H   0  0  0  0  0  0
  -36.8610   33.2340  -33.0716 H   0  0  0  0  0  0
  -38.3285   35.8453  -33.9230 H   0  0  0  0  0  0
  -38.3861   33.2731  -35.5442 H   0  0  0  0  0  0
  -38.5637   34.9731  -36.0966 H   0  0  0  0  0  0
  -36.1750   35.3490  -35.7755 H   0  0  0  0  0  0
  -35.9783   33.6747  -35.1553 H   0  0  0  0  0  0
  -40.5513   34.4854  -35.2514 H   0  0  0  0  0  0
  -41.4286   32.6100  -33.1060 H   0  0  0  0  0  0
  -43.0829   34.3028  -32.0372 H   0  0  0  0  0  0
  -45.3050   35.2825  -34.5639 H   0  0  0  0  0  0
  -42.5459   38.3751  -35.4021 H   0  0  0  0  0  0
  -43.5072   31.5405  -33.4039 H   0  0  0  0  0  0
  -43.9237   31.2659  -36.4013 H   0  0  0  0  0  0
  -46.3896   30.9810  -34.3588 H   0  0  0  0  0  0
  -44.2621   29.1528  -34.1663 H   0  0  0  0  0  0
  -44.6597   28.8545  -35.8924 H   0  0  0  0  0  0
  -34.4479   31.1588  -27.4260 H   0  0  0  0  0  0
  -41.2821   36.5830  -33.8684 H   0  0  0  0  0  0
  1  2  1  0  0  0
  1 42  1  0  0  0
  1 43  1  0  0  0
  1 44  1  0  0  0
  2  3  1  0  0  0
  2  5  1  0  0  0
  2 45  1  0  0  0
  3  4  2  0  0  0
  3 15  1  0  0  0
  5  6  1  0  0  0
  5 46  1  0  0  0
  5 47  1  0  0  0
  6  7  2  0  0  0
  6  8  1  0  0  0
  7  9  1  0  0  0
  7 48  1  0  0  0
  8 10  2  0  0  0
  8 11  1  0  0  0
  9 10  1  0  0  0
  9 69  1  0  0  0
 10 12  1  0  0  0
 11 13  2  0  0  0
 11 49  1  0  0  0
 12 14  2  0  0  0
 12 50  1  0  0  0
 13 14  1  0  0  0
 13 51  1  0  0  0
 14 52  1  0  0  0
 15 16  1  0  0  0
 15 53  1  0  0  0
 16 17  1  0  0  0
 16 19  1  0  0  0
 16 54  1  0  0  0
 17 18  2  0  0  0
 17 24  1  0  0  0
 19 20  1  0  0  0
 19 55  1  0  0  0
 19 56  1  0  0  0
 20 21  1  0  0  0
 20 57  1  0  0  0
 20 58  1  0  0  0
 21 22  1  0  0  0
 21 23  2  0  0  0
 24 25  1  0  0  0
 24 59  1  0  0  0
 25 26  1  0  0  0
 25 28  1  0  0  0
 25 60  1  0  0  0
 26 27  2  0  0  0
 26 34  1  0  0  0
 28 29  2  0  0  0
 28 61  1  0  0  0
 29 30  1  0  0  0
 29 31  1  0  0  0
 30 32  1  0  0  0
 30 70  1  0  0  0
 31 33  2  0  0  0
 31 62  1  0  0  0
 32 33  1  0  0  0
 32 63  1  0  0  0
 34 35  1  0  0  0
 34 64  1  0  0  0
 35 36  1  0  0  0
 35 38  1  0  0  0
 35 65  1  0  0  0
 36 37  2  0  0  0
 36 66  1  0  0  0
 38 39  1  0  0  0
 38 67  1  0  0  0
 38 68  1  0  0  0
 39 40  2  0  0  0
 39 41  1  0  0  0
M  CHG  4   1   1   9   1  22  -1  41  -1
M  END
> <s_m_source_file>
../2qlj_ligand.sdf

> <i_m_source_file_index>
1

> <s_epik_input>
W2NIXTFbY0hdW2NIXVtjSF1jKGMxMilbbkhdW2NIXWMyW0NIMl1bQ0BIXShbTkgzK10pQyg9TylbTkhdW0NAQEhdKFtDSDJdW0NIMl1DKD1PKVtPSF0pQyg9TylbTkhdW0NASF0oQyg9TylbTkhdW0NASF0oW0NIXT1PKVtDSDJdQyg9TylbT0hdKVtDSDJdQzM9TltDSDJdTj1bQ0hdMw==

> <s_epik_cmdline>
J2VwaWtfYXBwJywgJy1pbWFlJywgJ2xpZ2FuZF9wcm8ubWFlJywgJy1vbWFlJywgJ2xpZ2FuZF9wcmVwLm1hZScsICctbXMnLCAnMScsICctcGgnLCAnNycsICctcGh0JywgJzAuNScsICctbnQn

> <r_epik_Ionization_Penalty>
  0.1878

> <r_epik_Ionization_Penalty_Charging>
  0.1874

> <r_epik_Ionization_Penalty_Neutral>
  0.0004

> <r_epik_State_Penalty>
  0.1749

> <r_epik_Charging_Adjusted_Penalty>
0.362306940604975

> <i_epik_Tot_Q>
0

> <i_epik_Tot_abs_Q>
4

> <s_epik_Chemistry_Notes>
This compound has an imine and may undergo hydrolysis.

$$$$
