2qlm_ligand
                    3D
 Schrodinger Suite 2020-3.
 44 45  0  0  1  0            999 V2000
   36.7110   26.3810   31.9780 C   0  0  0  0  0  0
   37.8460   26.9110   32.5900 C   0  0  0  0  0  0
   37.9400   26.9330   33.9840 C   0  0  0  0  0  0
   39.1890   27.5220   34.6450 C   0  0  0  0  0  0
   36.8980   26.4310   34.7680 C   0  0  0  0  0  0
   35.7640   25.8990   34.1500 C   0  0  0  0  0  0
   35.6720   25.8650   32.7550 C   0  0  0  0  0  0
   34.4150   25.2890   32.0730 C   0  0  0  0  0  0
   33.3110   25.4100   32.6110 O   0  0  0  0  0  0
   34.6390   24.6880   30.8890 N   0  0  0  0  0  0
   33.7040   24.1170   30.1060 C   0  0  0  0  0  0
   32.5060   24.0960   30.4020 O   0  0  0  0  0  0
   34.1460   23.5700   28.9700 N   0  0  0  0  0  0
   33.2130   22.9080   28.0170 C   0  0  2  0  0  0
   33.1530   21.4650   28.2550 O   0  0  0  0  0  0
   32.1170   20.8330   27.4860 C   0  0  2  0  0  0
   32.0460   19.3570   27.9170 C   0  0  0  0  0  0
   33.1600   18.6250   27.3900 O   0  0  0  0  0  0
   32.3390   21.0300   25.9640 C   0  0  1  0  0  0
   31.1890   20.5620   25.2540 O   0  0  0  0  0  0
   32.5810   22.5140   25.6210 C   0  0  2  0  0  0
   32.9820   22.6380   24.2530 O   0  0  0  0  0  0
   33.6330   23.1360   26.5570 C   0  0  1  0  0  0
   33.8100   24.5400   26.2990 O   0  0  0  0  0  0
   36.6346   26.3694   30.8907 H   0  0  0  0  0  0
   38.6590   27.3077   31.9819 H   0  0  0  0  0  0
   39.8896   27.8615   33.8679 H   0  0  0  0  0  0
   39.6733   26.7528   35.2646 H   0  0  0  0  0  0
   38.9015   28.3748   35.2775 H   0  0  0  0  0  0
   36.9697   26.4544   35.8554 H   0  0  0  0  0  0
   34.9474   25.5088   34.7575 H   0  0  0  0  0  0
   35.6604   24.6339   30.4842 H   0  0  0  0  0  0
   35.2217   23.6154   28.7446 H   0  0  0  0  0  0
   32.2196   23.3329   28.2237 H   0  0  0  0  0  0
   31.1774   21.3451   27.7409 H   0  0  0  0  0  0
   32.0650   19.2944   29.0150 H   0  0  0  0  0  0
   31.1145   18.9094   27.5403 H   0  0  0  0  0  0
   33.2631   17.5509   27.6039 H   0  0  0  0  0  0
   33.1833   20.4181   25.6136 H   0  0  0  0  0  0
   30.8567   19.5200   25.3711 H   0  0  0  0  0  0
   31.6435   23.0853   25.6899 H   0  0  0  0  0  0
   32.3385   22.2426   23.4532 H   0  0  0  0  0  0
   34.6268   22.7109   26.3529 H   0  0  0  0  0  0
   34.5317   25.1214   26.8916 H   0  0  0  0  0  0
  1  2  2  0  0  0
  1  7  1  0  0  0
  1 25  1  0  0  0
  2  3  1  0  0  0
  2 26  1  0  0  0
  3  4  1  0  0  0
  3  5  2  0  0  0
  4 27  1  0  0  0
  4 28  1  0  0  0
  4 29  1  0  0  0
  5  6  1  0  0  0
  5 30  1  0  0  0
  6  7  2  0  0  0
  6 31  1  0  0  0
  7  8  1  0  0  0
  8  9  2  0  0  0
  8 10  1  0  0  0
 10 11  1  0  0  0
 10 32  1  0  0  0
 11 12  2  0  0  0
 11 13  1  0  0  0
 13 14  1  0  0  0
 13 33  1  0  0  0
 14 15  1  0  0  0
 14 23  1  0  0  0
 14 34  1  0  0  0
 15 16  1  0  0  0
 16 17  1  0  0  0
 16 19  1  0  0  0
 16 35  1  0  0  0
 17 18  1  0  0  0
 17 36  1  0  0  0
 17 37  1  0  0  0
 18 38  1  0  0  0
 19 20  1  0  0  0
 19 21  1  0  0  0
 19 39  1  0  0  0
 20 40  1  0  0  0
 21 22  1  0  0  0
 21 23  1  0  0  0
 21 41  1  0  0  0
 22 42  1  0  0  0
 23 24  1  0  0  0
 23 43  1  0  0  0
 24 44  1  0  0  0
M  END
> <s_m_source_file>
../2qlm_ligand.sdf

> <i_m_source_file_index>
1

> <s_epik_input>
W0NIM11jMVtjSF1bY0hdYyhbY0hdW2NIXTEpQyg9TylbTkhdQyg9TylbTkhdW0NAQEhdMk9bQ0BIXShbQ0gyXVtPSF0pW0NAQEhdKFtPSF0pW0NASF0oW09IXSlbQ0BIXTJbT0hd

> <s_epik_cmdline>
J2VwaWtfYXBwJywgJy1pbWFlJywgJ2xpZ2FuZF9wcm8ubWFlJywgJy1vbWFlJywgJ2xpZ2FuZF9wcmVwLm1hZScsICctbXMnLCAnMScsICctcGgnLCAnNycsICctcGh0JywgJzAuNScsICctbnQn

> <r_lp_tautomer_probability>
1

> <r_epik_Ionization_Penalty>
  0.0000

> <r_epik_Ionization_Penalty_Charging>
  0.0000

> <r_epik_Ionization_Penalty_Neutral>
  0.0000

> <r_epik_State_Penalty>
 -0.0000

> <r_epik_Charging_Adjusted_Penalty>
0

> <i_epik_Tot_Q>
0

> <i_epik_Tot_abs_Q>
0

> <s_epik_Chemistry_Notes>
This compound contains an acetal/aminal-like group ( X-CH(R)-Y where X, Y are N, S, or O) that may be acid/base labile, releasing an aldehyde.

$$$$
