2qlq_ligand
                    3D
 Schrodinger Suite 2020-3.
 50 52  0  0  1  0            999 V2000
    5.1570    3.6610    7.7270 C   0  0  0  0  0  0
    4.2650    3.1910    8.7070 C   0  0  0  0  0  0
    2.7640    2.0450    8.3310 Br  0  0  0  0  0  0
    4.5160    3.5800   10.0250 C   0  0  0  0  0  0
    5.5840    4.3870   10.3870 C   0  0  0  0  0  0
    6.4200    4.8290    9.3640 C   0  0  0  0  0  0
    6.2520    4.4850    8.0260 C   0  0  0  0  0  0
    7.0950    4.9560    7.0540 N   0  0  0  0  0  0
    8.4310    4.7790    6.9660 C   0  0  0  0  0  0
    9.3260    5.5030    6.1230 C   0  0  0  0  0  0
    8.9790    6.5240    5.2400 C   0  0  0  0  0  0
    8.9610    3.8160    7.7320 N   0  0  0  0  0  0
   10.2370    3.5350    7.7200 C   0  0  0  0  0  0
   11.0890    4.1800    6.9700 N   0  0  0  0  0  0
   10.6790    5.1570    6.1710 C   0  0  0  0  0  0
   11.6140    5.8020    5.3960 C   0  0  0  0  0  0
   11.2410    6.7970    4.5400 C   0  0  0  0  0  0
    9.9300    7.2020    4.4690 C   0  0  0  0  0  0
    9.6430    8.1400    3.5650 N   0  0  0  0  0  0
    8.4240    8.0640    3.0720 C   0  0  0  0  0  0
    7.5780    7.4080    3.6460 O   0  0  0  0  0  0
    7.9250    8.9270    1.9140 C   0  0  0  0  0  0
    8.6160    9.0850    0.5590 C   0  0  0  0  0  0
    7.9630   10.3780    0.0800 C   0  0  0  0  0  0
    7.0140   10.1600   -1.0110 N   0  3  0  0  0  0
    6.0390    9.1070   -0.8290 C   0  0  0  0  0  0
    6.3000   11.3580   -1.3970 C   0  0  0  0  0  0
    4.9902    3.3723    6.6892 H   0  0  0  0  0  0
    3.8400    3.2326   10.8063 H   0  0  0  0  0  0
    5.7616    4.6634   11.4263 H   0  0  0  0  0  0
    7.2529    5.4813    9.6264 H   0  0  0  0  0  0
    6.6953    5.5546    6.2221 H   0  0  0  0  0  0
    7.9298    6.8043    5.1466 H   0  0  0  0  0  0
   10.6037    2.7324    8.3599 H   0  0  0  0  0  0
   12.6634    5.5156    5.4662 H   0  0  0  0  0  0
   11.9892    7.2745    3.9073 H   0  0  0  0  0  0
   10.3996    8.8901    3.2916 H   0  0  0  0  0  0
    6.9294    8.5799    1.6006 H   0  0  0  0  0  0
    7.8621    9.9760    2.2390 H   0  0  0  0  0  0
    9.7031    9.1613    0.7085 H   0  0  0  0  0  0
    8.3929    8.2110   -0.0705 H   0  0  0  0  0  0
    7.4170   10.8437    0.9137 H   0  0  0  0  0  0
    8.7391   11.0688   -0.2813 H   0  0  0  0  0  0
    7.6863    9.8302   -1.8168 H   0  0  0  0  0  0
    6.5517    8.1796   -0.5341 H   0  0  0  0  0  0
    5.4968    8.9424   -1.7718 H   0  0  0  0  0  0
    5.3271    9.3984   -0.0427 H   0  0  0  0  0  0
    7.0158   12.1803   -1.5436 H   0  0  0  0  0  0
    5.5859   11.6302   -0.6058 H   0  0  0  0  0  0
    5.7556   11.1742   -2.3350 H   0  0  0  0  0  0
  1  2  2  0  0  0
  1  7  1  0  0  0
  1 28  1  0  0  0
  2  3  1  0  0  0
  2  4  1  0  0  0
  4  5  2  0  0  0
  4 29  1  0  0  0
  5  6  1  0  0  0
  5 30  1  0  0  0
  6  7  2  0  0  0
  6 31  1  0  0  0
  7  8  1  0  0  0
  8  9  1  0  0  0
  8 32  1  0  0  0
  9 10  2  0  0  0
  9 12  1  0  0  0
 10 11  1  0  0  0
 10 15  1  0  0  0
 11 18  2  0  0  0
 11 33  1  0  0  0
 12 13  2  0  0  0
 13 14  1  0  0  0
 13 34  1  0  0  0
 14 15  2  0  0  0
 15 16  1  0  0  0
 16 17  2  0  0  0
 16 35  1  0  0  0
 17 18  1  0  0  0
 17 36  1  0  0  0
 18 19  1  0  0  0
 19 20  1  0  0  0
 19 37  1  0  0  0
 20 21  2  0  0  0
 20 22  1  0  0  0
 22 23  1  0  0  0
 22 38  1  0  0  0
 22 39  1  0  0  0
 23 24  1  0  0  0
 23 40  1  0  0  0
 23 41  1  0  0  0
 24 25  1  0  0  0
 24 42  1  0  0  0
 24 43  1  0  0  0
 25 26  1  0  0  0
 25 27  1  0  0  0
 25 44  1  0  0  0
 26 45  1  0  0  0
 26 46  1  0  0  0
 26 47  1  0  0  0
 27 48  1  0  0  0
 27 49  1  0  0  0
 27 50  1  0  0  0
M  CHG  1  25   1
M  END
> <s_m_source_file>
../2qlq_ligand.sdf

> <i_m_source_file_index>
1

> <s_epik_input>
QnJjMVtjSF1jKFtjSF1bY0hdW2NIXTEpW05IXWMybltjSF1uYyhjMjMpW2NIXVtjSF1jKFtjSF0zKVtOSF1DKD1PKVtDSDJdW0NIMl1bQ0gyXVtOSCtdKFtDSDNdKVtDSDNd

> <s_epik_cmdline>
J2VwaWtfYXBwJywgJy1pbWFlJywgJ2xpZ2FuZF9wcm8ubWFlJywgJy1vbWFlJywgJ2xpZ2FuZF9wcmVwLm1hZScsICctbXMnLCAnMScsICctcGgnLCAnNycsICctcGh0JywgJzAuNScsICctbnQn

> <r_lp_tautomer_probability>
1

> <r_epik_Ionization_Penalty>
  0.0035

> <r_epik_Ionization_Penalty_Charging>
  0.0030

> <r_epik_Ionization_Penalty_Neutral>
  0.0004

> <r_epik_State_Penalty>
 -0.0000

> <r_epik_Charging_Adjusted_Penalty>
0.00303718406299064

> <i_epik_Tot_Q>
1

> <i_epik_Tot_abs_Q>
1

$$$$
