2qm7_ligand
                    3D
 Schrodinger Suite 2020-3.
 40 42  0  0  1  0            999 V2000
    5.6170  -18.5780   40.6160 P   0  0  0  0  0  0
    6.9360  -18.5810   39.9100 O   0  5  0  0  0  0
    4.9990  -17.2430   40.6770 O   0  0  0  0  0  0
    5.7700  -19.1080   42.0300 O   0  5  0  0  0  0
    4.5550  -19.5310   39.8650 O   0  0  0  0  0  0
    4.7400  -20.7670   38.9050 P   0  0  1  0  0  0
    5.1380  -20.4150   37.5050 O   0  0  0  0  0  0
    5.6320  -21.8390   39.4980 O   0  5  0  0  0  0
    3.2330  -21.2850   38.8640 O   0  0  0  0  0  0
    2.5040  -21.5590   40.0660 C   0  0  0  0  0  0
    1.3730  -22.4960   39.6820 C   0  0  1  0  0  0
    0.3820  -21.7720   38.9210 O   0  0  0  0  0  0
    1.8280  -23.6720   38.8310 C   0  0  1  0  0  0
    1.0340  -24.8220   39.1280 O   0  0  0  0  0  0
    1.5000  -23.2380   37.4190 C   0  0  1  0  0  0
    1.1880  -24.2510   36.4770 O   0  0  0  0  0  0
    0.2490  -22.3950   37.6330 C   0  0  2  0  0  0
    0.1530  -21.4110   36.5290 N   0  0  0  0  0  0
    1.0900  -20.5610   36.0180 C   0  0  0  0  0  0
    0.5470  -19.8250   35.0040 N   0  0  0  0  0  0
   -0.7330  -20.2040   34.8780 C   0  0  0  0  0  0
   -1.8880  -19.8590   34.0230 C   0  0  0  0  0  0
   -1.7290  -18.9930   33.1400 O   0  0  0  0  0  0
   -3.0580  -20.5240   34.1990 N   0  3  0  0  0  0
   -3.2350  -21.4500   35.1520 C   0  0  0  0  0  0
   -4.4340  -22.0730   35.3010 N   0  0  0  0  0  0
   -2.2330  -21.8140   35.9850 N   0  0  0  0  0  0
   -0.9950  -21.2220   35.8850 C   0  0  0  0  0  0
    3.1727  -22.0312   40.8008 H   0  0  0  0  0  0
    2.1112  -20.6182   40.4792 H   0  0  0  0  0  0
    0.9211  -22.8644   40.6148 H   0  0  0  0  0  0
    2.8706  -23.9761   39.0055 H   0  0  0  0  0  0
    1.1143  -25.3065   40.1123 H   0  0  0  0  0  0
    2.3847  -22.8053   36.9290 H   0  0  0  0  0  0
    1.9569  -24.9777   36.1758 H   0  0  0  0  0  0
   -0.6969  -22.9561   37.6550 H   0  0  0  0  0  0
    2.1194  -20.4813   36.3674 H   0  0  0  0  0  0
   -5.2766  -21.8083   34.6453 H   0  0  0  0  0  0
   -4.5616  -22.8418   36.0773 H   0  0  0  0  0  0
   -3.9152  -20.3119   33.5431 H   0  0  0  0  0  0
  1  2  1  0  0  0
  1  3  2  0  0  0
  1  4  1  0  0  0
  1  5  1  0  0  0
  5  6  1  0  0  0
  6  7  2  0  0  0
  6  8  1  0  0  0
  6  9  1  0  0  0
  9 10  1  0  0  0
 10 11  1  0  0  0
 10 29  1  0  0  0
 10 30  1  0  0  0
 11 12  1  0  0  0
 11 13  1  0  0  0
 11 31  1  0  0  0
 12 17  1  0  0  0
 13 14  1  0  0  0
 13 15  1  0  0  0
 13 32  1  0  0  0
 14 33  1  0  0  0
 15 16  1  0  0  0
 15 17  1  0  0  0
 15 34  1  0  0  0
 16 35  1  0  0  0
 17 18  1  0  0  0
 17 36  1  0  0  0
 18 19  1  0  0  0
 18 28  1  0  0  0
 19 20  2  0  0  0
 19 37  1  0  0  0
 20 21  1  0  0  0
 21 22  1  0  0  0
 21 28  2  0  0  0
 22 23  2  0  0  0
 22 24  1  0  0  0
 24 25  1  0  0  0
 24 40  1  0  0  0
 25 26  1  0  0  0
 25 27  2  0  0  0
 26 38  1  0  0  0
 26 39  1  0  0  0
 27 28  1  0  0  0
M  CHG  4   2  -1   4  -1   8  -1  24   1
M  END
> <s_m_source_file>
../2qm7_ligand.sdf

> <i_m_source_file_index>
1

> <s_epik_input>
W09IXVAoPU8pKFtPSF0pT1tQQEBdKD1PKShbT0hdKU9bQ0gyXVtDQEhdMU9bQ0BIXShbQ0BIXShbT0hdKVtDQEBIXTFbT0hdKW4oW2NIXW4yKWMoYzIzKVtuSF1jKD1OXFtIXSlcW25IXWMzPU8=

> <s_epik_cmdline>
J2VwaWtfYXBwJywgJy1pbWFlJywgJ2xpZ2FuZF9wcm8ubWFlJywgJy1vbWFlJywgJ2xpZ2FuZF9wcmVwLm1hZScsICctbXMnLCAnMScsICctcGgnLCAnNycsICctcGh0JywgJzAuNScsICctbnQn

> <r_epik_Ionization_Penalty>
  2.4918

> <r_epik_Ionization_Penalty_Charging>
  2.4918

> <r_epik_Ionization_Penalty_Neutral>
  0.0000

> <r_epik_State_Penalty>
  0.1302

> <r_epik_Charging_Adjusted_Penalty>
2.62193179535438

> <i_epik_Tot_Q>
-2

> <i_epik_Tot_abs_Q>
4

> <s_epik_Chemistry_Notes>
This compound has an imine and may undergo hydrolysis. This compound contains an acetal/aminal-like group ( X-CH(R)-Y where X, Y are N, S, or O) that may be acid/base labile, releasing an aldehyde.

$$$$
