2qm9_ligand
                    3D
 Schrodinger Suite 2020-3.
 58 61  0  0  1  0            999 V2000
   -5.4800   -9.6110   17.1610 C   0  0  0  0  0  0
   -6.5370   -8.5080   17.0080 C   0  0  0  0  0  0
   -7.5730   -8.4670   18.1460 C   0  0  0  0  0  0
   -8.5920   -7.5150   18.1640 C   0  0  0  0  0  0
   -8.6660   -6.5020   17.0340 C   0  0  0  0  0  0
   -9.5400   -7.4610   19.1830 C   0  0  0  0  0  0
  -10.5190   -6.5250   19.1760 O   0  0  0  0  0  0
   -9.4950   -8.3640   20.2230 C   0  0  0  0  0  0
  -10.5390   -8.2870   21.3460 C   0  0  0  0  0  0
   -8.4900   -9.3170   20.2270 C   0  0  0  0  0  0
   -8.4560  -10.2830   21.3810 C   0  0  0  0  0  0
   -7.5300   -9.3750   19.2030 C   0  0  0  0  0  0
   -6.5310  -10.3190   19.2270 O   0  0  0  0  0  0
   -5.2250   -9.9290   18.6330 C   0  0  2  0  0  0
   -4.5540   -8.7160   19.2900 C   0  0  0  0  0  0
   -4.2330  -11.1250   18.7420 C   0  0  0  0  0  0
   -3.7030  -11.4820   20.0690 O   0  0  0  0  0  0
   -4.7130  -11.7980   20.9390 C   0  0  0  0  0  0
   -5.5630  -12.8880   20.7260 C   0  0  0  0  0  0
   -6.5850  -13.1650   21.6360 C   0  0  0  0  0  0
   -4.9180  -10.9990   22.0530 C   0  0  0  0  0  0
   -5.9430  -11.2650   22.9540 C   0  0  0  0  0  0
   -6.7930  -12.3510   22.7580 C   0  0  0  0  0  0
   -7.8990  -12.5990   23.8240 C   0  0  0  0  0  0
   -9.2120  -13.2820   23.3720 C   0  0  1  0  0  0
   -9.6580  -12.8760   21.6690 S   0  0  0  0  0  0
   -9.5970  -14.4930   21.0980 C   0  0  0  0  0  0
   -9.8180  -14.8010   19.9280 O   0  0  0  0  0  0
   -9.2740  -15.3660   22.0660 N   0  0  0  0  0  0
   -9.0580  -14.8170   23.2760 C   0  0  0  0  0  0
   -8.7610  -15.5220   24.2370 O   0  0  0  0  0  0
   -5.8291  -10.5255   16.6592 H   0  0  0  0  0  0
   -4.5357   -9.2798   16.7042 H   0  0  0  0  0  0
   -6.0417   -7.5261   16.9860 H   0  0  0  0  0  0
   -7.0922   -8.6596   16.0706 H   0  0  0  0  0  0
   -7.8486   -6.6871   16.3215 H   0  0  0  0  0  0
   -8.5709   -5.4863   17.4454 H   0  0  0  0  0  0
   -9.6321   -6.5993   16.5171 H   0  0  0  0  0  0
  -10.5749   -5.7937   18.3562 H   0  0  0  0  0  0
  -11.2371   -7.4618   21.1417 H   0  0  0  0  0  0
  -10.0323   -8.1095   22.3061 H   0  0  0  0  0  0
  -11.0956   -9.2346   21.3948 H   0  0  0  0  0  0
   -9.2897  -10.0664   22.0651 H   0  0  0  0  0  0
   -7.5028  -10.1773   21.9197 H   0  0  0  0  0  0
   -8.5507  -11.3111   21.0015 H   0  0  0  0  0  0
   -5.2276   -7.8483   19.2320 H   0  0  0  0  0  0
   -3.6151   -8.4871   18.7646 H   0  0  0  0  0  0
   -4.3382   -8.9429   20.3445 H   0  0  0  0  0  0
   -4.7223  -12.0413   18.3801 H   0  0  0  0  0  0
   -3.3420  -10.9192   18.1307 H   0  0  0  0  0  0
   -5.4276  -13.5214   19.8493 H   0  0  0  0  0  0
   -7.2310  -14.0274   21.4714 H   0  0  0  0  0  0
   -4.2627  -10.1453   22.2261 H   0  0  0  0  0  0
   -6.0825  -10.6186   23.8205 H   0  0  0  0  0  0
   -7.5024  -13.2464   24.6200 H   0  0  0  0  0  0
   -8.2140  -11.6377   24.2561 H   0  0  0  0  0  0
   -9.8545  -13.0013   24.2196 H   0  0  0  0  0  0
   -9.2038  -16.4397   21.8373 H   0  0  0  0  0  0
  1  2  1  0  0  0
  1 14  1  0  0  0
  1 32  1  0  0  0
  1 33  1  0  0  0
  2  3  1  0  0  0
  2 34  1  0  0  0
  2 35  1  0  0  0
  3  4  2  0  0  0
  3 12  1  0  0  0
  4  5  1  0  0  0
  4  6  1  0  0  0
  5 36  1  0  0  0
  5 37  1  0  0  0
  5 38  1  0  0  0
  6  7  1  0  0  0
  6  8  2  0  0  0
  7 39  1  0  0  0
  8  9  1  0  0  0
  8 10  1  0  0  0
  9 40  1  0  0  0
  9 41  1  0  0  0
  9 42  1  0  0  0
 10 11  1  0  0  0
 10 12  2  0  0  0
 11 43  1  0  0  0
 11 44  1  0  0  0
 11 45  1  0  0  0
 12 13  1  0  0  0
 13 14  1  0  0  0
 14 15  1  0  0  0
 14 16  1  0  0  0
 15 46  1  0  0  0
 15 47  1  0  0  0
 15 48  1  0  0  0
 16 17  1  0  0  0
 16 49  1  0  0  0
 16 50  1  0  0  0
 17 18  1  0  0  0
 18 19  2  0  0  0
 18 21  1  0  0  0
 19 20  1  0  0  0
 19 51  1  0  0  0
 20 23  2  0  0  0
 20 52  1  0  0  0
 21 22  2  0  0  0
 21 53  1  0  0  0
 22 23  1  0  0  0
 22 54  1  0  0  0
 23 24  1  0  0  0
 24 25  1  0  0  0
 24 55  1  0  0  0
 24 56  1  0  0  0
 25 26  1  0  0  0
 25 30  1  0  0  0
 25 57  1  0  0  0
 26 27  1  0  0  0
 27 28  2  0  0  0
 27 29  1  0  0  0
 29 30  1  0  0  0
 29 58  1  0  0  0
 30 31  2  0  0  0
M  END
> <s_m_source_file>
../2qm9_ligand.sdf

> <i_m_source_file_index>
1

> <s_epik_input>
W0NIM11jMWMoW09IXSljKFtDSDNdKWMoW0NIM10pYyhjMTIpT1tDQF0oW0NIM10pKFtDSDJdW0NIMl0yKVtDSDJdT2MzW2NIXVtjSF1jKFtjSF1bY0hdMylbQ0gyXVtDQEhdNFNDKD1PKVtOSF1DND1P

> <s_epik_cmdline>
J2VwaWtfYXBwJywgJy1pbWFlJywgJ2xpZ2FuZF9wcm8ubWFlJywgJy1vbWFlJywgJ2xpZ2FuZF9wcmVwLm1hZScsICctbXMnLCAnMScsICctcGgnLCAnNycsICctcGh0JywgJzAuNScsICctbnQn

> <r_lp_tautomer_probability>
0.999986600176988

> <r_epik_Ionization_Penalty>
  0.3910

> <r_epik_Ionization_Penalty_Charging>
  0.0000

> <r_epik_Ionization_Penalty_Neutral>
  0.3910

> <r_epik_State_Penalty>
  0.3897

> <r_epik_Charging_Adjusted_Penalty>
0.38973666452663

> <i_epik_Tot_Q>
0

> <i_epik_Tot_abs_Q>
0

$$$$
