2qmd_ligand
                    3D
 Schrodinger Suite 2020-3.
 88 91  0  0  1  0            999 V2000
   26.8370   10.8260   19.1030 F   0  0  0  0  0  0
   22.8410   13.3440   18.5700 F   0  0  0  0  0  0
   23.6310   11.7300   23.5000 N   0  0  0  0  0  0
   22.5260   10.8030   23.1680 C   0  0  2  0  0  0
   22.0430    9.9720   24.3810 C   0  0  1  0  0  0
   21.5420   10.8500   25.5400 C   0  0  2  0  0  0
   20.9880    9.0870   23.9610 O   0  0  0  0  0  0
   21.2330    9.9770   26.6900 N   0  3  0  0  0  0
   20.4000   10.8270   27.5640 C   0  0  0  0  0  0
   19.5920   11.7390   26.6310 C   0  0  1  0  0  0
   20.2510   11.6260   25.2500 C   0  0  0  0  0  0
   22.9750    9.8510   22.0420 C   0  0  0  0  0  0
   23.6320   10.6270   20.9220 C   0  0  0  0  0  0
   24.9750   10.3410   20.5360 C   0  0  0  0  0  0
   25.5830   11.0830   19.4760 C   0  0  0  0  0  0
   24.8560   12.1020   18.8110 C   0  0  0  0  0  0
   23.5200   12.3850   19.1980 C   0  0  0  0  0  0
   22.9040   11.6520   20.2500 C   0  0  0  0  0  0
   27.0340   14.2570   23.7480 C   0  0  0  0  0  0
   26.8840   15.4720   24.4820 C   0  0  0  0  0  0
   25.5950   15.8880   24.9100 C   0  0  0  0  0  0
   24.4470   15.0910   24.6170 C   0  0  0  0  0  0
   24.5920   13.8720   23.8940 C   0  0  0  0  0  0
   25.8800   13.4560   23.4610 C   0  0  0  0  0  0
   28.3670   13.8080   23.3300 C   0  0  0  0  0  0
   23.4080   13.0680   23.5860 C   0  0  0  0  0  0
   22.3020   13.5650   23.4160 O   0  0  0  0  0  0
   25.4400   17.1470   25.6630 C   0  0  0  0  0  0
   28.6150   13.5940   22.0110 N   0  0  0  0  0  0
   29.2390   13.6170   24.1600 O   0  0  0  0  0  0
   18.2680   11.2360   26.5940 O   0  0  0  0  0  0
   17.4600   12.0880   25.7990 C   0  0  0  0  0  0
   16.5840   11.2590   24.8710 C   0  0  0  0  0  0
   16.5430    9.8340   24.9680 C   0  0  0  0  0  0
   15.7150    9.0810   24.0880 C   0  0  0  0  0  0
   14.9260    9.7490   23.1100 C   0  0  0  0  0  0
   14.9640   11.1690   23.0110 C   0  0  0  0  0  0
   15.7930   11.9230   23.8930 C   0  0  0  0  0  0
   29.9580   13.1320   21.6760 C   0  0  0  0  0  0
   29.9230   11.6540   21.2180 C   0  0  0  0  0  0
   29.1360   10.7260   22.1670 C   0  0  0  0  0  0
   27.6490   13.8060   20.9370 C   0  0  0  0  0  0
   28.2020   14.8470   19.9650 C   0  0  0  0  0  0
   28.8240   16.0540   20.6820 C   0  0  0  0  0  0
   24.6429   11.3377   23.6795 H   0  0  0  0  0  0
   21.7042   11.4598   22.8465 H   0  0  0  0  0  0
   22.8664    9.3397   24.7447 H   0  0  0  0  0  0
   22.3483   11.5653   25.7594 H   0  0  0  0  0  0
   21.1597    8.3785   23.1373 H   0  0  0  0  0  0
   20.6925    9.0856   26.3389 H   0  0  0  0  0  0
   22.1692    9.6692   27.1787 H   0  0  0  0  0  0
   19.7360   10.1916   28.1685 H   0  0  0  0  0  0
   21.0488   11.4163   28.2287 H   0  0  0  0  0  0
   19.4943   12.7833   26.9625 H   0  0  0  0  0  0
   20.5016   12.6076   24.8215 H   0  0  0  0  0  0
   19.6358   11.0601   24.5350 H   0  0  0  0  0  0
   23.6958    9.1232   22.4429 H   0  0  0  0  0  0
   22.0999    9.3180   21.6417 H   0  0  0  0  0  0
   25.5361    9.5590   21.0477 H   0  0  0  0  0  0
   25.3220   12.6673   18.0039 H   0  0  0  0  0  0
   21.8774   11.8736   20.5417 H   0  0  0  0  0  0
   27.7582   16.0803   24.7140 H   0  0  0  0  0  0
   23.4599   15.4152   24.9465 H   0  0  0  0  0  0
   25.9912   12.5233   22.9079 H   0  0  0  0  0  0
   26.4245   17.6204   25.7924 H   0  0  0  0  0  0
   25.0036   16.9327   26.6497 H   0  0  0  0  0  0
   24.7764   17.8267   25.1083 H   0  0  0  0  0  0
   16.8188   12.6989   26.4514 H   0  0  0  0  0  0
   18.1033   12.7463   25.1966 H   0  0  0  0  0  0
   17.1470    9.3223   25.7174 H   0  0  0  0  0  0
   15.6854    7.9940   24.1633 H   0  0  0  0  0  0
   14.2919    9.1730   22.4360 H   0  0  0  0  0  0
   14.3596   11.6795   22.2612 H   0  0  0  0  0  0
   15.8205   13.0100   23.8175 H   0  0  0  0  0  0
   30.3656   13.7492   20.8618 H   0  0  0  0  0  0
   30.6064   13.2172   22.5605 H   0  0  0  0  0  0
   29.4473   11.5880   20.2284 H   0  0  0  0  0  0
   30.9499   11.2643   21.1579 H   0  0  0  0  0  0
   29.1569    9.6983   21.7755 H   0  0  0  0  0  0
   28.0938   11.0710   22.2362 H   0  0  0  0  0  0
   29.5964   10.7473   23.1658 H   0  0  0  0  0  0
   27.4775   12.8582   20.4058 H   0  0  0  0  0  0
   26.7002   14.1646   21.3627 H   0  0  0  0  0  0
   28.9818   14.3873   19.3400 H   0  0  0  0  0  0
   27.3891   15.2179   19.3234 H   0  0  0  0  0  0
   29.2040   16.7677   19.9362 H   0  0  0  0  0  0
   29.6531   15.7142   21.3200 H   0  0  0  0  0  0
   28.0605   16.5447   21.3034 H   0  0  0  0  0  0
  1 15  1  0  0  0
  2 17  1  0  0  0
  3  4  1  0  0  0
  3 26  1  0  0  0
  3 45  1  0  0  0
  4  5  1  0  0  0
  4 12  1  0  0  0
  4 46  1  0  0  0
  5  6  1  0  0  0
  5  7  1  0  0  0
  5 47  1  0  0  0
  6  8  1  0  0  0
  6 11  1  0  0  0
  6 48  1  0  0  0
  7 49  1  0  0  0
  8  9  1  0  0  0
  8 50  1  0  0  0
  8 51  1  0  0  0
  9 10  1  0  0  0
  9 52  1  0  0  0
  9 53  1  0  0  0
 10 11  1  0  0  0
 10 31  1  0  0  0
 10 54  1  0  0  0
 11 55  1  0  0  0
 11 56  1  0  0  0
 12 13  1  0  0  0
 12 57  1  0  0  0
 12 58  1  0  0  0
 13 14  2  0  0  0
 13 18  1  0  0  0
 14 15  1  0  0  0
 14 59  1  0  0  0
 15 16  2  0  0  0
 16 17  1  0  0  0
 16 60  1  0  0  0
 17 18  2  0  0  0
 18 61  1  0  0  0
 19 20  2  0  0  0
 19 24  1  0  0  0
 19 25  1  0  0  0
 20 21  1  0  0  0
 20 62  1  0  0  0
 21 22  2  0  0  0
 21 28  1  0  0  0
 22 23  1  0  0  0
 22 63  1  0  0  0
 23 24  2  0  0  0
 23 26  1  0  0  0
 24 64  1  0  0  0
 25 29  1  0  0  0
 25 30  2  0  0  0
 26 27  2  0  0  0
 28 65  1  0  0  0
 28 66  1  0  0  0
 28 67  1  0  0  0
 29 39  1  0  0  0
 29 42  1  0  0  0
 31 32  1  0  0  0
 32 33  1  0  0  0
 32 68  1  0  0  0
 32 69  1  0  0  0
 33 34  2  0  0  0
 33 38  1  0  0  0
 34 35  1  0  0  0
 34 70  1  0  0  0
 35 36  2  0  0  0
 35 71  1  0  0  0
 36 37  1  0  0  0
 36 72  1  0  0  0
 37 38  2  0  0  0
 37 73  1  0  0  0
 38 74  1  0  0  0
 39 40  1  0  0  0
 39 75  1  0  0  0
 39 76  1  0  0  0
 40 41  1  0  0  0
 40 77  1  0  0  0
 40 78  1  0  0  0
 41 79  1  0  0  0
 41 80  1  0  0  0
 41 81  1  0  0  0
 42 43  1  0  0  0
 42 82  1  0  0  0
 42 83  1  0  0  0
 43 44  1  0  0  0
 43 84  1  0  0  0
 43 85  1  0  0  0
 44 86  1  0  0  0
 44 87  1  0  0  0
 44 88  1  0  0  0
M  CHG  1   8   1
M  END
> <s_m_source_file>
../2qmd_ligand.sdf

> <i_m_source_file_index>
1

> <s_epik_input>
W0NIM11bQ0gyXVtDSDJdTihbQ0gyXVtDSDJdW0NIM10pQyg9TyljMVtjSF1jKFtDSDNdKVtjSF1jKFtjSF0xKUMoPU8pW05IXVtDQEBIXShbQ0gyXWMyW2NIXWMoRilbY0hdYyhGKVtjSF0yKVtDQEhdKFtPSF0pW0NAQEhdM1tOSDIrXVtDSDJdW0NAQEhdKFtDSDJdMylPW0NIMl1jNFtjSF1bY0hdW2NIXVtjSF1bY0hdNA==

> <s_epik_cmdline>
J2VwaWtfYXBwJywgJy1pbWFlJywgJ2xpZ2FuZF9wcm8ubWFlJywgJy1vbWFlJywgJ2xpZ2FuZF9wcmVwLm1hZScsICctbXMnLCAnMScsICctcGgnLCAnNycsICctcGh0JywgJzAuNScsICctbnQn

> <r_lp_tautomer_probability>
1

> <r_epik_Ionization_Penalty>
  0.0030

> <r_epik_Ionization_Penalty_Charging>
  0.0030

> <r_epik_Ionization_Penalty_Neutral>
  0.0000

> <r_epik_State_Penalty>
 -0.0000

> <r_epik_Charging_Adjusted_Penalty>
0.003024994860931

> <i_epik_Tot_Q>
1

> <i_epik_Tot_abs_Q>
1

$$$$
