2qmf_ligand
                    3D
 Schrodinger Suite 2020-3.
 85 88  0  0  1  0            999 V2000
   26.9660   15.4650   24.4540 C   0  0  0  0  0  0
   25.6910   15.8920   24.8960 C   0  0  0  0  0  0
   24.5420   15.0930   24.5950 C   0  0  0  0  0  0
   24.6700   13.8780   23.8590 C   0  0  0  0  0  0
   25.9520   13.4760   23.4300 C   0  0  0  0  0  0
   27.1080   14.2640   23.7190 C   0  0  0  0  0  0
   28.4460   13.8110   23.2680 C   0  0  0  0  0  0
   28.7600   13.6120   21.9020 N   0  0  0  0  0  0
   29.2900   13.5930   24.1280 O   0  0  0  0  0  0
   27.8460   13.8410   20.7410 C   0  0  0  0  0  0
   28.3380   14.9910   19.8340 C   0  0  0  0  0  0
   28.6820   16.2760   20.6100 C   0  0  0  0  0  0
   30.1370   13.1380   21.5920 C   0  0  0  0  0  0
   30.1420   11.6760   21.0550 C   0  0  0  0  0  0
   29.3500   10.6670   21.9170 C   0  0  0  0  0  0
   25.5610   17.1790   25.6760 C   0  0  0  0  0  0
   23.4650   13.0710   23.5510 C   0  0  0  0  0  0
   23.6660   11.7170   23.4310 N   0  0  0  0  0  0
   22.3450   13.5710   23.4020 O   0  0  0  0  0  0
   22.5760   10.7620   23.1090 C   0  0  2  0  0  0
   22.1620    9.9200   24.3330 C   0  0  2  0  0  0
   23.0630    9.8610   21.9360 C   0  0  0  0  0  0
   21.1060    9.0640   23.9540 O   0  0  0  0  0  0
   23.6920   10.6500   20.8050 C   0  0  0  0  0  0
   25.0300   10.3790   20.4130 C   0  0  0  0  0  0
   25.6110   11.1200   19.3560 C   0  0  0  0  0  0
   24.9100   12.1310   18.6680 C   0  0  0  0  0  0
   23.5810   12.3880   19.0730 C   0  0  0  0  0  0
   22.9650   11.6700   20.1210 C   0  0  0  0  0  0
   26.8620   10.8520   19.0050 F   0  0  0  0  0  0
   22.8880   13.3380   18.4440 F   0  0  0  0  0  0
   19.5270   11.4560   26.5140 C   0  0  1  0  0  0
   20.4640   10.7800   27.5110 C   0  0  0  0  0  0
   21.2560    9.8830   26.6650 N   0  3  0  0  0  0
   20.4410   11.6420   25.2790 C   0  0  0  0  0  0
   21.6690   10.7450   25.5520 C   0  0  2  0  0  0
   18.4550   10.5210   26.3000 O   0  0  0  0  0  0
   17.4720   10.8120   25.3380 C   0  0  0  0  0  0
   17.0020   12.1230   24.9740 C   0  0  0  0  0  0
   16.0070   12.2680   23.9850 C   0  0  0  0  0  0
   15.4670   11.1270   23.3460 C   0  0  0  0  0  0
   15.9230    9.8300   23.6980 C   0  0  0  0  0  0
   16.9200    9.6780   24.6880 C   0  0  0  0  0  0
   27.8461   16.0664   24.6817 H   0  0  0  0  0  0
   23.5575   15.4170   24.9323 H   0  0  0  0  0  0
   26.0626   12.5484   22.8684 H   0  0  0  0  0  0
   27.7883   12.9257   20.1337 H   0  0  0  0  0  0
   26.8426   14.1001   21.1098 H   0  0  0  0  0  0
   29.2460   14.6740   19.3000 H   0  0  0  0  0  0
   27.5538   15.2445   19.1054 H   0  0  0  0  0  0
   29.0236   17.0491   19.9060 H   0  0  0  0  0  0
   29.4801   16.0631   21.3364 H   0  0  0  0  0  0
   27.7880   16.6336   21.1418 H   0  0  0  0  0  0
   30.5845   13.7876   20.8254 H   0  0  0  0  0  0
   30.7504   13.1715   22.5045 H   0  0  0  0  0  0
   29.6961   11.6531   20.0497 H   0  0  0  0  0  0
   31.1771   11.3071   21.0054 H   0  0  0  0  0  0
   29.4110    9.6679   21.4609 H   0  0  0  0  0  0
   28.2972   10.9805   21.9739 H   0  0  0  0  0  0
   29.7782   10.6345   22.9297 H   0  0  0  0  0  0
   26.5542   17.6357   25.7979 H   0  0  0  0  0  0
   25.1313   16.9660   26.6659 H   0  0  0  0  0  0
   24.9028   17.8725   25.1321 H   0  0  0  0  0  0
   24.6913   11.3497   23.5855 H   0  0  0  0  0  0
   21.6958   11.3584   22.8267 H   0  0  0  0  0  0
   23.0249    9.3034   24.6249 H   0  0  0  0  0  0
   23.8166    9.1510   22.3075 H   0  0  0  0  0  0
   22.2089    9.3056   21.5213 H   0  0  0  0  0  0
   21.2317    8.3792   23.1024 H   0  0  0  0  0  0
   25.6053    9.6060   20.9224 H   0  0  0  0  0  0
   25.3742   12.6916   17.8567 H   0  0  0  0  0  0
   21.9373   11.8940   20.4068 H   0  0  0  0  0  0
   19.0187   12.3858   26.8089 H   0  0  0  0  0  0
   21.0797   11.5425   28.0106 H   0  0  0  0  0  0
   19.8708   10.2379   28.2622 H   0  0  0  0  0  0
   22.1122    9.4987   27.2388 H   0  0  0  0  0  0
   20.6289    9.0418   26.3346 H   0  0  0  0  0  0
   19.9018   11.3277   24.3732 H   0  0  0  0  0  0
   20.7239   12.7011   25.1883 H   0  0  0  0  0  0
   22.5434   11.3467   25.8407 H   0  0  0  0  0  0
   17.4156   13.0048   25.4633 H   0  0  0  0  0  0
   15.6530   13.2621   23.7121 H   0  0  0  0  0  0
   14.6989   11.2444   22.5815 H   0  0  0  0  0  0
   15.5048    8.9522   23.2054 H   0  0  0  0  0  0
   17.2682    8.6802   24.9548 H   0  0  0  0  0  0
  1  2  2  0  0  0
  1  6  1  0  0  0
  1 44  1  0  0  0
  2  3  1  0  0  0
  2 16  1  0  0  0
  3  4  2  0  0  0
  3 45  1  0  0  0
  4  5  1  0  0  0
  4 17  1  0  0  0
  5  6  2  0  0  0
  5 46  1  0  0  0
  6  7  1  0  0  0
  7  8  1  0  0  0
  7  9  2  0  0  0
  8 10  1  0  0  0
  8 13  1  0  0  0
 10 11  1  0  0  0
 10 47  1  0  0  0
 10 48  1  0  0  0
 11 12  1  0  0  0
 11 49  1  0  0  0
 11 50  1  0  0  0
 12 51  1  0  0  0
 12 52  1  0  0  0
 12 53  1  0  0  0
 13 14  1  0  0  0
 13 54  1  0  0  0
 13 55  1  0  0  0
 14 15  1  0  0  0
 14 56  1  0  0  0
 14 57  1  0  0  0
 15 58  1  0  0  0
 15 59  1  0  0  0
 15 60  1  0  0  0
 16 61  1  0  0  0
 16 62  1  0  0  0
 16 63  1  0  0  0
 17 18  1  0  0  0
 17 19  2  0  0  0
 18 20  1  0  0  0
 18 64  1  0  0  0
 20 21  1  0  0  0
 20 22  1  0  0  0
 20 65  1  0  0  0
 21 23  1  0  0  0
 21 36  1  0  0  0
 21 66  1  0  0  0
 22 24  1  0  0  0
 22 67  1  0  0  0
 22 68  1  0  0  0
 23 69  1  0  0  0
 24 25  2  0  0  0
 24 29  1  0  0  0
 25 26  1  0  0  0
 25 70  1  0  0  0
 26 27  2  0  0  0
 26 30  1  0  0  0
 27 28  1  0  0  0
 27 71  1  0  0  0
 28 29  2  0  0  0
 28 31  1  0  0  0
 29 72  1  0  0  0
 32 33  1  0  0  0
 32 35  1  0  0  0
 32 37  1  0  0  0
 32 73  1  0  0  0
 33 34  1  0  0  0
 33 74  1  0  0  0
 33 75  1  0  0  0
 34 36  1  0  0  0
 34 76  1  0  0  0
 34 77  1  0  0  0
 35 36  1  0  0  0
 35 78  1  0  0  0
 35 79  1  0  0  0
 36 80  1  0  0  0
 37 38  1  0  0  0
 38 39  2  0  0  0
 38 43  1  0  0  0
 39 40  1  0  0  0
 39 81  1  0  0  0
 40 41  2  0  0  0
 40 82  1  0  0  0
 41 42  1  0  0  0
 41 83  1  0  0  0
 42 43  2  0  0  0
 42 84  1  0  0  0
 43 85  1  0  0  0
M  CHG  1  34   1
M  END
> <s_m_source_file>
../2qmf_ligand.sdf

> <i_m_source_file_index>
1

> <s_epik_input>
W0NIM11bQ0gyXVtDSDJdTihbQ0gyXVtDSDJdW0NIM10pQyg9TyljKFtjSF1jMVtDSDNdKVtjSF1jKFtjSF0xKUMoPU8pW05IXVtDQEBIXShbQ0gyXWMyW2NIXWMoRilbY0hdYyhGKVtjSF0yKVtDQEhdKFtPSF0pW0NAQEhdKFtDSDJdMylbTkgyK11bQ0gyXVtDQEBIXTNPYzRbY0hdW2NIXVtjSF1bY0hdW2NIXTQ=

> <s_epik_cmdline>
J2VwaWtfYXBwJywgJy1pbWFlJywgJ2xpZ2FuZF9wcm8ubWFlJywgJy1vbWFlJywgJ2xpZ2FuZF9wcmVwLm1hZScsICctbXMnLCAnMScsICctcGgnLCAnNycsICctcGh0JywgJzAuNScsICctbnQn

> <r_lp_tautomer_probability>
1

> <r_epik_Ionization_Penalty>
  0.0030

> <r_epik_Ionization_Penalty_Charging>
  0.0030

> <r_epik_Ionization_Penalty_Neutral>
  0.0000

> <r_epik_State_Penalty>
 -0.0000

> <r_epik_Charging_Adjusted_Penalty>
0.003024994860931

> <i_epik_Tot_Q>
1

> <i_epik_Tot_abs_Q>
1

$$$$
