2qmg_ligand
                    3D
 Schrodinger Suite 2020-3.
 84 88  0  0  1  0            999 V2000
   26.8950   15.4300   24.6060 C   0  0  0  0  0  0
   25.6140   15.8480   25.0530 C   0  0  0  0  0  0
   24.4680   15.0650   24.7210 C   0  0  0  0  0  0
   24.6020   13.8730   23.9460 C   0  0  0  0  0  0
   25.8780   13.4800   23.5200 C   0  0  0  0  0  0
   27.0340   14.2440   23.8330 C   0  0  0  0  0  0
   28.3630   13.7810   23.3640 C   0  0  0  0  0  0
   28.5850   13.5240   21.9940 N   0  0  0  0  0  0
   29.2740   13.6040   24.1700 O   0  0  0  0  0  0
   27.6480   13.6690   20.8640 C   0  0  0  0  0  0
   28.5730   14.2600   19.7950 C   0  0  0  0  0  0
   29.9380   13.5950   20.0480 C   0  0  0  0  0  0
   29.8790   13.0510   21.4890 C   0  0  2  0  0  0
   29.9180   11.4990   21.4840 C   0  0  0  0  0  0
   25.4770   17.1080   25.8680 C   0  0  0  0  0  0
   23.4140   13.0730   23.6040 C   0  0  0  0  0  0
   23.6280   11.7170   23.4740 N   0  0  0  0  0  0
   22.3000   13.5750   23.4400 O   0  0  0  0  0  0
   22.5560   10.7510   23.1270 C   0  0  2  0  0  0
   22.1050    9.9200   24.3510 C   0  0  2  0  0  0
   23.0700    9.8210   22.0060 C   0  0  0  0  0  0
   21.0380    9.0950   23.9460 O   0  0  0  0  0  0
   23.7320   10.5240   20.8460 C   0  0  0  0  0  0
   25.0800   10.2200   20.5160 C   0  0  0  0  0  0
   25.6970   10.8750   19.4300 C   0  0  0  0  0  0
   25.0260   11.8350   18.6460 C   0  0  0  0  0  0
   23.6860   12.1280   18.9880 C   0  0  0  0  0  0
   23.0280   11.4950   20.0680 C   0  0  0  0  0  0
   26.9600   10.5720   19.1390 F   0  0  0  0  0  0
   23.0270   13.0290   18.2670 F   0  0  0  0  0  0
   19.4600   11.4820   26.4880 C   0  0  1  0  0  0
   20.3570   10.7930   27.5050 C   0  0  0  0  0  0
   21.1720    9.8980   26.6800 N   0  3  0  0  0  0
   20.3960   11.6660   25.2810 C   0  0  0  0  0  0
   21.6090   10.7520   25.5660 C   0  0  2  0  0  0
   18.3940   10.5660   26.2380 O   0  0  0  0  0  0
   17.4160   10.8750   25.2760 C   0  0  0  0  0  0
   16.9480   12.1890   24.9230 C   0  0  0  0  0  0
   15.9540   12.3440   23.9290 C   0  0  0  0  0  0
   15.4200   11.2040   23.2780 C   0  0  0  0  0  0
   15.8810    9.9120   23.6250 C   0  0  0  0  0  0
   16.8730    9.7540   24.6170 C   0  0  0  0  0  0
   29.4570    9.5810   22.8470 C   0  0  0  0  0  0
   29.6270   10.9820   22.7780 O   0  0  0  0  0  0
   27.7762   16.0207   24.8563 H   0  0  0  0  0  0
   23.4817   15.3796   25.0620 H   0  0  0  0  0  0
   25.9859   12.5668   22.9348 H   0  0  0  0  0  0
   27.2405   12.6828   20.5968 H   0  0  0  0  0  0
   26.8254   14.3395   21.1535 H   0  0  0  0  0  0
   28.1801   14.0189   18.7962 H   0  0  0  0  0  0
   28.6222   15.3522   19.9158 H   0  0  0  0  0  0
   30.0910   12.7838   19.3210 H   0  0  0  0  0  0
   30.7367   14.3431   19.9361 H   0  0  0  0  0  0
   30.6946   13.4158   22.1307 H   0  0  0  0  0  0
   29.1714   11.1158   20.7729 H   0  0  0  0  0  0
   30.9197   11.1583   21.1831 H   0  0  0  0  0  0
   26.4691   17.5605   26.0131 H   0  0  0  0  0  0
   25.0378   16.8655   26.8469 H   0  0  0  0  0  0
   24.8241   17.8177   25.3389 H   0  0  0  0  0  0
   24.6554   11.3616   23.6417 H   0  0  0  0  0  0
   21.6991   11.3512   22.7873 H   0  0  0  0  0  0
   22.9470    9.2854   24.6645 H   0  0  0  0  0  0
   23.8155    9.1257   22.4194 H   0  0  0  0  0  0
   22.2278    9.2498   21.5885 H   0  0  0  0  0  0
   21.1640    8.4121   23.0929 H   0  0  0  0  0  0
   25.6344    9.4845   21.0990 H   0  0  0  0  0  0
   25.5199   12.3310   17.8105 H   0  0  0  0  0  0
   21.9939   11.7451   20.3050 H   0  0  0  0  0  0
   18.9559   12.4159   26.7772 H   0  0  0  0  0  0
   20.9608   11.5468   28.0315 H   0  0  0  0  0  0
   19.7364   10.2477   28.2313 H   0  0  0  0  0  0
   22.0183    9.5215   27.2734 H   0  0  0  0  0  0
   20.5573    9.0515   26.3400 H   0  0  0  0  0  0
   19.8716   11.3669   24.3614 H   0  0  0  0  0  0
   20.6943   12.7221   25.2060 H   0  0  0  0  0  0
   22.4899   11.3413   25.8606 H   0  0  0  0  0  0
   17.3600   13.0660   25.4223 H   0  0  0  0  0  0
   15.5988   13.3398   23.6637 H   0  0  0  0  0  0
   14.6549   11.3224   22.5107 H   0  0  0  0  0  0
   15.4688    9.0357   23.1247 H   0  0  0  0  0  0
   17.2225    8.7545   24.8759 H   0  0  0  0  0  0
   29.2374    9.2890   23.8846 H   0  0  0  0  0  0
   30.3792    9.0829   22.5132 H   0  0  0  0  0  0
   28.6220    9.2805   22.1970 H   0  0  0  0  0  0
  1  2  2  0  0  0
  1  6  1  0  0  0
  1 45  1  0  0  0
  2  3  1  0  0  0
  2 15  1  0  0  0
  3  4  2  0  0  0
  3 46  1  0  0  0
  4  5  1  0  0  0
  4 16  1  0  0  0
  5  6  2  0  0  0
  5 47  1  0  0  0
  6  7  1  0  0  0
  7  8  1  0  0  0
  7  9  2  0  0  0
  8 10  1  0  0  0
  8 13  1  0  0  0
 10 11  1  0  0  0
 10 48  1  0  0  0
 10 49  1  0  0  0
 11 12  1  0  0  0
 11 50  1  0  0  0
 11 51  1  0  0  0
 12 13  1  0  0  0
 12 52  1  0  0  0
 12 53  1  0  0  0
 13 14  1  0  0  0
 13 54  1  0  0  0
 14 44  1  0  0  0
 14 55  1  0  0  0
 14 56  1  0  0  0
 15 57  1  0  0  0
 15 58  1  0  0  0
 15 59  1  0  0  0
 16 17  1  0  0  0
 16 18  2  0  0  0
 17 19  1  0  0  0
 17 60  1  0  0  0
 19 20  1  0  0  0
 19 21  1  0  0  0
 19 61  1  0  0  0
 20 22  1  0  0  0
 20 35  1  0  0  0
 20 62  1  0  0  0
 21 23  1  0  0  0
 21 63  1  0  0  0
 21 64  1  0  0  0
 22 65  1  0  0  0
 23 24  2  0  0  0
 23 28  1  0  0  0
 24 25  1  0  0  0
 24 66  1  0  0  0
 25 26  2  0  0  0
 25 29  1  0  0  0
 26 27  1  0  0  0
 26 67  1  0  0  0
 27 28  2  0  0  0
 27 30  1  0  0  0
 28 68  1  0  0  0
 31 32  1  0  0  0
 31 34  1  0  0  0
 31 36  1  0  0  0
 31 69  1  0  0  0
 32 33  1  0  0  0
 32 70  1  0  0  0
 32 71  1  0  0  0
 33 35  1  0  0  0
 33 72  1  0  0  0
 33 73  1  0  0  0
 34 35  1  0  0  0
 34 74  1  0  0  0
 34 75  1  0  0  0
 35 76  1  0  0  0
 36 37  1  0  0  0
 37 38  2  0  0  0
 37 42  1  0  0  0
 38 39  1  0  0  0
 38 77  1  0  0  0
 39 40  2  0  0  0
 39 78  1  0  0  0
 40 41  1  0  0  0
 40 79  1  0  0  0
 41 42  2  0  0  0
 41 80  1  0  0  0
 42 81  1  0  0  0
 43 44  1  0  0  0
 43 82  1  0  0  0
 43 83  1  0  0  0
 43 84  1  0  0  0
M  CHG  1  33   1
M  END
> <s_m_source_file>
../2qmg_ligand.sdf

> <i_m_source_file_index>
1

> <s_epik_input>
W0NIM11PW0NIMl1bQ0BIXTFbQ0gyXVtDSDJdW0NIMl1OMUMoPU8pYyhbY0hdYzJbQ0gzXSlbY0hdYyhbY0hdMilDKD1PKVtOSF1bQ0BASF0oW0NIMl1jM1tjSF1jKEYpW2NIXWMoRilbY0hdMylbQ0BIXShbT0hdKVtDQEBIXShbQ0gyXTQpW05IMitdW0NIMl1bQ0BASF00T2M1W2NIXVtjSF1bY0hdW2NIXVtjSF01

> <s_epik_cmdline>
J2VwaWtfYXBwJywgJy1pbWFlJywgJ2xpZ2FuZF9wcm8ubWFlJywgJy1vbWFlJywgJ2xpZ2FuZF9wcmVwLm1hZScsICctbXMnLCAnMScsICctcGgnLCAnNycsICctcGh0JywgJzAuNScsICctbnQn

> <r_lp_tautomer_probability>
1

> <r_epik_Ionization_Penalty>
  0.0030

> <r_epik_Ionization_Penalty_Charging>
  0.0030

> <r_epik_Ionization_Penalty_Neutral>
  0.0000

> <r_epik_State_Penalty>
 -0.0000

> <r_epik_Charging_Adjusted_Penalty>
0.003024994860931

> <i_epik_Tot_Q>
1

> <i_epik_Tot_abs_Q>
1

$$$$
