2qn1_ligand
                    3D
 Schrodinger Suite 2020-3.
 82 86  0  0  1  0            999 V2000
   24.0630   -4.0930   54.4410 O   0  0  0  0  0  0
   25.2010   -3.2240   54.4770 C   0  0  1  0  0  0
   26.4510   -3.9890   54.0000 C   0  0  2  0  0  0
   26.6610   -5.1290   54.8330 O   0  0  0  0  0  0
   27.7130   -3.1050   54.0280 C   0  0  0  0  0  0
   27.5730   -1.8210   53.1800 C   0  0  2  0  0  0
   27.5740   -2.2000   51.6830 C   0  0  0  0  0  0
   28.7670   -0.8740   53.5280 C   0  0  1  0  0  0
   30.1520   -1.5300   53.2460 C   0  0  0  0  0  0
   31.2010   -0.6130   53.3080 C   0  0  0  0  0  0
   31.1340    0.7640   53.5550 C   0  0  1  0  0  0
   32.4780    1.5490   53.5500 C   0  0  2  0  0  0
   33.1830    1.4460   54.9430 C   0  0  1  0  0  0
   33.9140    0.0980   55.0530 C   0  0  0  0  0  0
   34.1700    2.5850   55.3180 C   0  0  2  0  0  0
   34.2930    2.7110   56.8430 C   0  0  0  0  0  0
   33.8380    3.9620   54.7100 C   0  0  0  0  0  0
   33.4940    3.8750   53.2140 C   0  0  0  0  0  0
   32.2690    2.9810   52.9600 C   0  0  1  0  0  0
   32.0460    2.8920   51.4300 C   0  0  0  0  0  0
   31.5370    3.8900   50.8700 O   0  0  0  0  0  0
   32.3830    1.8360   50.8440 O   0  5  0  0  0  0
   31.0340    3.6720   53.5870 C   0  0  0  0  0  0
   29.7290    2.9110   53.3090 C   0  0  0  0  0  0
   29.7490    1.4490   53.8050 C   0  0  2  0  0  0
   29.4620    1.4410   55.3240 C   0  0  0  0  0  0
   28.6720    0.6210   53.0330 C   0  0  1  0  0  0
   28.8850    0.7740   51.5080 C   0  0  0  0  0  0
   27.2630    1.2120   53.3430 C   0  0  0  0  0  0
   26.1010    0.2970   52.9260 C   0  0  0  0  0  0
   26.2570   -1.0760   53.6200 C   0  0  1  0  0  0
   24.9440   -1.9360   53.6580 C   0  0  1  0  0  0
   24.4220   -2.2820   52.2530 C   0  0  0  0  0  0
   23.8220   -1.1300   54.3430 C   0  0  0  0  0  0
   24.2150   -0.6630   55.6320 O   0  0  0  0  0  0
   24.0873   -5.0535   54.9766 H   0  0  0  0  0  0
   25.3163   -2.9490   55.5358 H   0  0  0  0  0  0
   26.2824   -4.3755   52.9840 H   0  0  0  0  0  0
   25.8679   -5.8832   54.9433 H   0  0  0  0  0  0
   27.9234   -2.7990   55.0634 H   0  0  0  0  0  0
   28.5678   -3.6735   53.6328 H   0  0  0  0  0  0
   28.5140   -2.7152   51.4358 H   0  0  0  0  0  0
   27.4843   -1.2884   51.0739 H   0  0  0  0  0  0
   26.7244   -2.8664   51.4729 H   0  0  0  0  0  0
   28.6739   -0.7693   54.6190 H   0  0  0  0  0  0
   30.3575   -2.5861   53.0173 H   0  0  0  0  0  0
   32.2363   -0.9503   53.1520 H   0  0  0  0  0  0
   31.2477    0.5762   54.6329 H   0  0  0  0  0  0
   33.2003    1.0857   52.8618 H   0  0  0  0  0  0
   32.3664    1.5315   55.6750 H   0  0  0  0  0  0
   33.2231   -0.7163   54.7892 H   0  0  0  0  0  0
   34.2702   -0.0429   56.0842 H   0  0  0  0  0  0
   34.7717    0.0888   54.3643 H   0  0  0  0  0  0
   35.1355    2.2912   54.8805 H   0  0  0  0  0  0
   34.5299    1.7272   57.2743 H   0  0  0  0  0  0
   33.3416    3.0742   57.2588 H   0  0  0  0  0  0
   35.0957    3.4219   57.0886 H   0  0  0  0  0  0
   32.9722    4.3945   55.2328 H   0  0  0  0  0  0
   34.7046    4.6303   54.8208 H   0  0  0  0  0  0
   33.2722    4.8815   52.8296 H   0  0  0  0  0  0
   34.3488    3.4531   52.6651 H   0  0  0  0  0  0
   31.1633    3.7348   54.6776 H   0  0  0  0  0  0
   30.9301    4.6850   53.1711 H   0  0  0  0  0  0
   28.8940    3.4181   53.8146 H   0  0  0  0  0  0
   29.5418    2.8878   52.2253 H   0  0  0  0  0  0
   30.2316    2.0289   55.8456 H   0  0  0  0  0  0
   29.4778    0.4055   55.6947 H   0  0  0  0  0  0
   28.4725    1.8829   55.5125 H   0  0  0  0  0  0
   29.8706    0.3701   51.2331 H   0  0  0  0  0  0
   28.8362    1.8387   51.2360 H   0  0  0  0  0  0
   28.0997    0.2219   50.9709 H   0  0  0  0  0  0
   27.1687    1.3869   54.4249 H   0  0  0  0  0  0
   27.1382    2.1636   52.8055 H   0  0  0  0  0  0
   25.1473    0.7553   53.2268 H   0  0  0  0  0  0
   26.1145    0.1614   51.8345 H   0  0  0  0  0  0
   26.4058   -0.8503   54.6863 H   0  0  0  0  0  0
   25.1840   -2.8614   51.7112 H   0  0  0  0  0  0
   24.2072   -1.3540   51.7029 H   0  0  0  0  0  0
   23.5016   -2.8780   52.3403 H   0  0  0  0  0  0
   23.5664   -0.2578   53.7234 H   0  0  0  0  0  0
   22.9336   -1.7674   54.4632 H   0  0  0  0  0  0
   23.5145   -0.0715   56.2398 H   0  0  0  0  0  0
  1  2  1  0  0  0
  1 36  1  0  0  0
  2  3  1  0  0  0
  2 32  1  0  0  0
  2 37  1  0  0  0
  3  4  1  0  0  0
  3  5  1  0  0  0
  3 38  1  0  0  0
  4 39  1  0  0  0
  5  6  1  0  0  0
  5 40  1  0  0  0
  5 41  1  0  0  0
  6  7  1  0  0  0
  6  8  1  0  0  0
  6 31  1  0  0  0
  7 42  1  0  0  0
  7 43  1  0  0  0
  7 44  1  0  0  0
  8  9  1  0  0  0
  8 27  1  0  0  0
  8 45  1  0  0  0
  9 10  2  0  0  0
  9 46  1  0  0  0
 10 11  1  0  0  0
 10 47  1  0  0  0
 11 12  1  0  0  0
 11 25  1  0  0  0
 11 48  1  0  0  0
 12 13  1  0  0  0
 12 19  1  0  0  0
 12 49  1  0  0  0
 13 14  1  0  0  0
 13 15  1  0  0  0
 13 50  1  0  0  0
 14 51  1  0  0  0
 14 52  1  0  0  0
 14 53  1  0  0  0
 15 16  1  0  0  0
 15 17  1  0  0  0
 15 54  1  0  0  0
 16 55  1  0  0  0
 16 56  1  0  0  0
 16 57  1  0  0  0
 17 18  1  0  0  0
 17 58  1  0  0  0
 17 59  1  0  0  0
 18 19  1  0  0  0
 18 60  1  0  0  0
 18 61  1  0  0  0
 19 20  1  0  0  0
 19 23  1  0  0  0
 20 21  2  0  0  0
 20 22  1  0  0  0
 23 24  1  0  0  0
 23 62  1  0  0  0
 23 63  1  0  0  0
 24 25  1  0  0  0
 24 64  1  0  0  0
 24 65  1  0  0  0
 25 26  1  0  0  0
 25 27  1  0  0  0
 26 66  1  0  0  0
 26 67  1  0  0  0
 26 68  1  0  0  0
 27 28  1  0  0  0
 27 29  1  0  0  0
 28 69  1  0  0  0
 28 70  1  0  0  0
 28 71  1  0  0  0
 29 30  1  0  0  0
 29 72  1  0  0  0
 29 73  1  0  0  0
 30 31  1  0  0  0
 30 74  1  0  0  0
 30 75  1  0  0  0
 31 32  1  0  0  0
 31 76  1  0  0  0
 32 33  1  0  0  0
 32 34  1  0  0  0
 33 77  1  0  0  0
 33 78  1  0  0  0
 33 79  1  0  0  0
 34 35  1  0  0  0
 34 80  1  0  0  0
 34 81  1  0  0  0
 35 82  1  0  0  0
M  CHG  1  22  -1
M  END
> <s_m_source_file>
../2qn1_ligand.sdf

> <i_m_source_file_index>
1

> <s_epik_input>
W09IXVtDQEhdKFtDSDJdMSlbQ0BIXShbT0hdKVtDQEBdKFtDSDNdKShbQ0gyXVtPSF0pW0NAQEhdMltDSDJdW0NIMl1bQ0BdKFtDSDNdKShbQ0BIXTNbQ0BAXTEyW0NIM10pW0NAQF00KFtDSDNdKVtDSF0oW0NIXT1bQ0hdMylbQ0BIXTVbQ0BAXShDKD1PKVtPSF0pKFtDSDJdW0NIMl00KVtDSDJdW0NIMl1bQ0BASF0oW0NIM10pW0NAQEhdNVtDSDNd

> <s_epik_cmdline>
J2VwaWtfYXBwJywgJy1pbWFlJywgJ2xpZ2FuZF9wcm8ubWFlJywgJy1vbWFlJywgJ2xpZ2FuZF9wcmVwLm1hZScsICctbXMnLCAnMScsICctcGgnLCAnNycsICctcGh0JywgJzAuNScsICctbnQn

> <r_epik_Ionization_Penalty>
  0.0096

> <r_epik_Ionization_Penalty_Charging>
  0.0096

> <r_epik_Ionization_Penalty_Neutral>
  0.0000

> <r_epik_State_Penalty>
  0.0073

> <r_epik_Charging_Adjusted_Penalty>
0.0169803968263919

> <i_epik_Tot_Q>
-1

> <i_epik_Tot_abs_Q>
1

$$$$
