2qn2_ligand
                    3D
 Schrodinger Suite 2020-3.
 81 85  0  0  1  0            999 V2000
   24.2160   -3.8110   54.4740 O   0  0  0  0  0  0
   25.3170   -2.8950   54.5200 C   0  0  2  0  0  0
   24.9610   -1.5680   53.8050 C   0  0  0  0  0  0
   23.9000   -0.8540   54.6470 C   0  0  0  0  0  0
   24.3780   -1.8350   52.4060 C   0  0  0  0  0  0
   26.2450   -0.6570   53.7420 C   0  0  2  0  0  0
   26.0210    0.7560   53.1370 C   0  0  0  0  0  0
   27.1840    1.6800   53.5460 C   0  0  0  0  0  0
   28.6020    1.1560   53.1670 C   0  0  1  0  0  0
   28.8110    1.4150   51.6600 C   0  0  0  0  0  0
   29.6970    1.8990   53.9970 C   0  0  2  0  0  0
   29.4670    1.7310   55.5170 C   0  0  0  0  0  0
   29.7220    3.4170   53.6760 C   0  0  0  0  0  0
   31.0640    4.1130   53.9970 C   0  0  0  0  0  0
   32.2340    3.4640   53.2370 C   0  0  1  0  0  0
   31.8920    3.5130   51.7230 C   0  0  0  0  0  0
   32.1520    2.5120   51.0140 O   0  5  0  0  0  0
   31.3710    4.5680   51.2990 O   0  0  0  0  0  0
   33.5450    4.2610   53.4570 C   0  0  0  0  0  0
   34.3210    3.9610   54.7730 C   0  0  0  0  0  0
   34.4210    2.4770   55.2100 C   0  0  0  0  0  0
   35.4130    1.6780   54.3510 C   0  0  0  0  0  0
   34.8850    2.4060   56.6650 C   0  0  0  0  0  0
   33.0210    1.8440   55.1270 C   0  0  0  0  0  0
   32.4110    1.9910   53.7120 C   0  0  1  0  0  0
   31.0790    1.2320   53.6480 C   0  0  0  0  0  0
   31.1720   -0.1020   53.2490 C   0  0  0  0  0  0
   30.1250   -1.0030   53.0930 C   0  0  0  0  0  0
   28.7570   -0.3920   53.5200 C   0  0  2  0  0  0
   27.5520   -1.3300   53.1860 C   0  0  2  0  0  0
   27.5140   -1.6560   51.6720 C   0  0  0  0  0  0
   27.7950   -2.6600   53.9470 C   0  0  0  0  0  0
   26.5700   -3.5910   53.9510 C   0  0  1  0  0  0
   26.8700   -4.7420   54.7400 O   0  0  0  0  0  0
   23.2259   -3.4996   54.8383 H   0  0  0  0  0  0
   25.4802   -2.6671   55.5837 H   0  0  0  0  0  0
   22.9951   -1.4770   54.7017 H   0  0  0  0  0  0
   23.6526    0.1121   54.1828 H   0  0  0  0  0  0
   24.2901   -0.6842   55.6614 H   0  0  0  0  0  0
   23.4861   -2.4725   52.4960 H   0  0  0  0  0  0
   25.1310   -2.3433   51.7859 H   0  0  0  0  0  0
   24.1002   -0.8800   51.9362 H   0  0  0  0  0  0
   26.4408   -0.4904   54.8115 H   0  0  0  0  0  0
   25.9791    0.6828   52.0402 H   0  0  0  0  0  0
   25.0739    1.1701   53.5133 H   0  0  0  0  0  0
   27.0662    2.6571   53.0547 H   0  0  0  0  0  0
   27.1783    1.8154   54.6376 H   0  0  0  0  0  0
   28.6972    2.4894   51.4534 H   0  0  0  0  0  0
   28.0638    0.8496   51.0837 H   0  0  0  0  0  0
   29.8209    1.0906   51.3688 H   0  0  0  0  0  0
   28.5059    2.1881   55.7951 H   0  0  0  0  0  0
   30.2810    2.2250   56.0678 H   0  0  0  0  0  0
   29.4505    0.6604   55.7692 H   0  0  0  0  0  0
   29.5297    3.5682   52.6036 H   0  0  0  0  0  0
   28.9456    3.9289   54.2635 H   0  0  0  0  0  0
   31.0062    5.1724   53.7067 H   0  0  0  0  0  0
   31.2667    4.0389   55.0756 H   0  0  0  0  0  0
   34.2460    4.0473   52.6367 H   0  0  0  0  0  0
   33.3207    5.3377   53.4765 H   0  0  0  0  0  0
   35.3595    4.3100   54.6740 H   0  0  0  0  0  0
   33.8370    4.4834   55.6113 H   0  0  0  0  0  0
   36.4096    2.1388   54.4176 H   0  0  0  0  0  0
   35.0767    1.6814   53.3037 H   0  0  0  0  0  0
   35.4629    0.6418   54.7167 H   0  0  0  0  0  0
   35.8862    2.8531   56.7528 H   0  0  0  0  0  0
   34.9233    1.3548   56.9867 H   0  0  0  0  0  0
   34.1793    2.9590   57.3023 H   0  0  0  0  0  0
   33.0884    0.7724   55.3660 H   0  0  0  0  0  0
   32.3517    2.3387   55.8463 H   0  0  0  0  0  0
   33.1290    1.5382   53.0124 H   0  0  0  0  0  0
   32.1546   -0.5405   53.0205 H   0  0  0  0  0  0
   30.0521   -1.3011   52.0367 H   0  0  0  0  0  0
   30.3112   -1.8924   53.7129 H   0  0  0  0  0  0
   28.7491   -0.3910   54.6200 H   0  0  0  0  0  0
   27.3427   -0.7310   51.1020 H   0  0  0  0  0  0
   26.6994   -2.3672   51.4704 H   0  0  0  0  0  0
   28.4730   -2.1013   51.3687 H   0  0  0  0  0  0
   28.6248   -3.2063   53.4748 H   0  0  0  0  0  0
   28.0488   -2.4418   54.9948 H   0  0  0  0  0  0
   26.3652   -3.9494   52.9314 H   0  0  0  0  0  0
   26.1164   -5.5331   54.8675 H   0  0  0  0  0  0
  1  2  1  0  0  0
  1 35  1  0  0  0
  2  3  1  0  0  0
  2 33  1  0  0  0
  2 36  1  0  0  0
  3  4  1  0  0  0
  3  5  1  0  0  0
  3  6  1  0  0  0
  4 37  1  0  0  0
  4 38  1  0  0  0
  4 39  1  0  0  0
  5 40  1  0  0  0
  5 41  1  0  0  0
  5 42  1  0  0  0
  6  7  1  0  0  0
  6 30  1  0  0  0
  6 43  1  0  0  0
  7  8  1  0  0  0
  7 44  1  0  0  0
  7 45  1  0  0  0
  8  9  1  0  0  0
  8 46  1  0  0  0
  8 47  1  0  0  0
  9 10  1  0  0  0
  9 11  1  0  0  0
  9 29  1  0  0  0
 10 48  1  0  0  0
 10 49  1  0  0  0
 10 50  1  0  0  0
 11 12  1  0  0  0
 11 13  1  0  0  0
 11 26  1  0  0  0
 12 51  1  0  0  0
 12 52  1  0  0  0
 12 53  1  0  0  0
 13 14  1  0  0  0
 13 54  1  0  0  0
 13 55  1  0  0  0
 14 15  1  0  0  0
 14 56  1  0  0  0
 14 57  1  0  0  0
 15 16  1  0  0  0
 15 19  1  0  0  0
 15 25  1  0  0  0
 16 17  1  0  0  0
 16 18  2  0  0  0
 19 20  1  0  0  0
 19 58  1  0  0  0
 19 59  1  0  0  0
 20 21  1  0  0  0
 20 60  1  0  0  0
 20 61  1  0  0  0
 21 22  1  0  0  0
 21 23  1  0  0  0
 21 24  1  0  0  0
 22 62  1  0  0  0
 22 63  1  0  0  0
 22 64  1  0  0  0
 23 65  1  0  0  0
 23 66  1  0  0  0
 23 67  1  0  0  0
 24 25  1  0  0  0
 24 68  1  0  0  0
 24 69  1  0  0  0
 25 26  1  0  0  0
 25 70  1  0  0  0
 26 27  2  0  0  0
 27 28  1  0  0  0
 27 71  1  0  0  0
 28 29  1  0  0  0
 28 72  1  0  0  0
 28 73  1  0  0  0
 29 30  1  0  0  0
 29 74  1  0  0  0
 30 31  1  0  0  0
 30 32  1  0  0  0
 31 75  1  0  0  0
 31 76  1  0  0  0
 31 77  1  0  0  0
 32 33  1  0  0  0
 32 78  1  0  0  0
 32 79  1  0  0  0
 33 34  1  0  0  0
 33 80  1  0  0  0
 34 81  1  0  0  0
M  CHG  1  17  -1
M  END
> <s_m_source_file>
../2qn2_ligand.sdf

> <i_m_source_file_index>
1

> <s_epik_input>
W0NIMl0xW0NAQEhdKFtPSF0pW0NASF0oW09IXSlDKFtDSDNdKShbQ0gzXSlbQ0BIXShbQ0gyXVtDSDJdMilbQ0BAXTEoW0NIM10pW0NASF0zW0NIMl1bQ0hdPUMoW0NAXTQoW0NIM10pW0NAXTIzW0NIM10pW0NASF01W0NAXShbQ0gyXVtDSDJdNCkoQyg9TylbT0hdKVtDSDJdW0NIMl1DKFtDSDNdKShbQ0gzXSlbQ0gyXTU=

> <s_epik_cmdline>
J2VwaWtfYXBwJywgJy1pbWFlJywgJ2xpZ2FuZF9wcm8ubWFlJywgJy1vbWFlJywgJ2xpZ2FuZF9wcmVwLm1hZScsICctbXMnLCAnMScsICctcGgnLCAnNycsICctcGh0JywgJzAuNScsICctbnQn

> <r_lp_tautomer_probability>
1

> <r_epik_Ionization_Penalty>
  0.0081

> <r_epik_Ionization_Penalty_Charging>
  0.0081

> <r_epik_Ionization_Penalty_Neutral>
  0.0000

> <r_epik_State_Penalty>
 -0.0000

> <r_epik_Charging_Adjusted_Penalty>
0.00805673778252204

> <i_epik_Tot_Q>
-1

> <i_epik_Tot_abs_Q>
1

$$$$
