2qn3_ligand
                    3D
 Schrodinger Suite 2020-3.
 41 42  0  0  1  0            999 V2000
   35.8240   25.8530   34.2070 C   0  0  0  0  0  0
   36.9520   26.3210   34.8820 C   0  0  0  0  0  0
   38.0560   26.7640   34.1530 C   0  0  0  0  0  0
   39.4610   27.3440   34.9890 Cl  0  0  0  0  0  0
   38.0370   26.7420   32.7590 C   0  0  0  0  0  0
   36.9070   26.2750   32.0830 C   0  0  0  0  0  0
   35.8000   25.8280   32.8100 C   0  0  0  0  0  0
   34.5490   25.3040   32.0840 C   0  0  0  0  0  0
   33.4320   25.4690   32.5800 O   0  0  0  0  0  0
   34.7960   24.6790   30.9190 N   0  0  0  0  0  0
   33.8620   24.1360   30.1190 C   0  0  0  0  0  0
   32.6550   24.1650   30.3840 O   0  0  0  0  0  0
   34.3180   23.5620   29.0000 N   0  0  0  0  0  0
   33.3870   22.9280   28.0250 C   0  0  2  0  0  0
   33.3520   21.5000   28.2530 O   0  0  0  0  0  0
   32.2800   20.8800   27.4940 C   0  0  2  0  0  0
   32.2130   19.4090   27.9320 C   0  0  0  0  0  0
   33.2950   18.6770   27.3460 O   0  0  0  0  0  0
   32.4990   21.0580   25.9720 C   0  0  1  0  0  0
   31.3390   20.6100   25.2600 O   0  0  0  0  0  0
   32.7960   22.5260   25.5980 C   0  0  2  0  0  0
   33.2980   22.5760   24.2570 O   0  0  0  0  0  0
   33.8170   23.1610   26.5650 C   0  0  1  0  0  0
   33.9640   24.5610   26.2990 O   0  0  0  0  0  0
   34.9586   25.5057   34.7713 H   0  0  0  0  0  0
   36.9705   26.3404   35.9717 H   0  0  0  0  0  0
   38.9038   27.0892   32.1966 H   0  0  0  0  0  0
   36.8887   26.2593   30.9933 H   0  0  0  0  0  0
   35.8295   24.5824   30.5550 H   0  0  0  0  0  0
   35.4007   23.5634   28.8056 H   0  0  0  0  0  0
   32.3897   23.3499   28.2183 H   0  0  0  0  0  0
   31.3412   21.3962   27.7433 H   0  0  0  0  0  0
   32.2856   19.3491   29.0280 H   0  0  0  0  0  0
   31.2587   18.9716   27.6033 H   0  0  0  0  0  0
   33.4063   17.6019   27.5506 H   0  0  0  0  0  0
   33.3263   20.4142   25.6386 H   0  0  0  0  0  0
   30.9715   19.5825   25.3984 H   0  0  0  0  0  0
   31.8689   23.1181   25.5980 H   0  0  0  0  0  0
   32.6995   22.1662   23.4300 H   0  0  0  0  0  0
   34.8225   22.7508   26.3900 H   0  0  0  0  0  0
   34.6574   25.1656   26.9021 H   0  0  0  0  0  0
  1  2  2  0  0  0
  1  7  1  0  0  0
  1 25  1  0  0  0
  2  3  1  0  0  0
  2 26  1  0  0  0
  3  4  1  0  0  0
  3  5  2  0  0  0
  5  6  1  0  0  0
  5 27  1  0  0  0
  6  7  2  0  0  0
  6 28  1  0  0  0
  7  8  1  0  0  0
  8  9  2  0  0  0
  8 10  1  0  0  0
 10 11  1  0  0  0
 10 29  1  0  0  0
 11 12  2  0  0  0
 11 13  1  0  0  0
 13 14  1  0  0  0
 13 30  1  0  0  0
 14 15  1  0  0  0
 14 23  1  0  0  0
 14 31  1  0  0  0
 15 16  1  0  0  0
 16 17  1  0  0  0
 16 19  1  0  0  0
 16 32  1  0  0  0
 17 18  1  0  0  0
 17 33  1  0  0  0
 17 34  1  0  0  0
 18 35  1  0  0  0
 19 20  1  0  0  0
 19 21  1  0  0  0
 19 36  1  0  0  0
 20 37  1  0  0  0
 21 22  1  0  0  0
 21 23  1  0  0  0
 21 38  1  0  0  0
 22 39  1  0  0  0
 23 24  1  0  0  0
 23 40  1  0  0  0
 24 41  1  0  0  0
M  END
> <s_m_source_file>
../2qn3_ligand.sdf

> <i_m_source_file_index>
1

> <s_epik_input>
Q2xjMVtjSF1bY0hdYyhbY0hdW2NIXTEpQyg9TylbTkhdQyg9TylbTkhdW0NAQEhdMk9bQ0BIXShbQ0gyXVtPSF0pW0NAQEhdKFtPSF0pW0NASF0oW09IXSlbQ0BIXTJbT0hd

> <s_epik_cmdline>
J2VwaWtfYXBwJywgJy1pbWFlJywgJ2xpZ2FuZF9wcm8ubWFlJywgJy1vbWFlJywgJ2xpZ2FuZF9wcmVwLm1hZScsICctbXMnLCAnMScsICctcGgnLCAnNycsICctcGh0JywgJzAuNScsICctbnQn

> <r_lp_tautomer_probability>
1

> <r_epik_Ionization_Penalty>
  0.0000

> <r_epik_Ionization_Penalty_Charging>
  0.0000

> <r_epik_Ionization_Penalty_Neutral>
  0.0000

> <r_epik_State_Penalty>
 -0.0000

> <r_epik_Charging_Adjusted_Penalty>
0

> <i_epik_Tot_Q>
0

> <i_epik_Tot_abs_Q>
0

> <s_epik_Chemistry_Notes>
This compound contains an acetal/aminal-like group ( X-CH(R)-Y where X, Y are N, S, or O) that may be acid/base labile, releasing an aldehyde.

$$$$
