2qnb_ligand
                    3D
 Schrodinger Suite 2020-3.
 41 42  0  0  1  0            999 V2000
   33.2690   21.6000   28.3550 O   0  0  0  0  0  0
   33.3250   23.0170   28.0760 C   0  0  2  0  0  0
   33.7860   23.1820   26.6150 C   0  0  2  0  0  0
   33.9870   24.5640   26.3150 O   0  0  0  0  0  0
   32.7460   22.5530   25.6620 C   0  0  1  0  0  0
   33.2050   22.5940   24.3020 O   0  0  0  0  0  0
   32.4610   21.0920   26.0620 C   0  0  2  0  0  0
   31.3240   20.5970   25.3410 O   0  0  0  0  0  0
   32.2230   20.9420   27.5860 C   0  0  1  0  0  0
   32.1840   19.4770   28.0500 C   0  0  0  0  0  0
   33.2640   18.7340   27.4580 O   0  0  0  0  0  0
   34.2380   23.6330   29.0770 N   0  0  0  0  0  0
   33.7460   24.1970   30.1860 C   0  0  0  0  0  0
   32.5350   24.2170   30.4150 O   0  0  0  0  0  0
   34.6460   24.7240   31.0320 N   0  0  0  0  0  0
   34.3310   25.3260   32.1920 C   0  0  0  0  0  0
   33.1870   25.4740   32.6300 O   0  0  0  0  0  0
   35.5300   25.8380   33.0020 C   0  0  0  0  0  0
   36.7060   26.2370   32.3620 C   0  0  0  0  0  0
   37.7810   26.6870   33.1360 C   0  0  0  0  0  0
   37.6780   26.7360   34.5270 C   0  0  0  0  0  0
   36.5040   26.3450   35.1700 C   0  0  0  0  0  0
   35.4330   25.8900   34.3990 C   0  0  0  0  0  0
   32.3418   23.4914   28.2110 H   0  0  0  0  0  0
   34.7778   22.7334   26.4563 H   0  0  0  0  0  0
   34.7001   25.1571   26.9063 H   0  0  0  0  0  0
   31.8244   23.1535   25.6673 H   0  0  0  0  0  0
   33.4604   23.5574   23.8365 H   0  0  0  0  0  0
   33.3054   20.4599   25.7498 H   0  0  0  0  0  0
   31.3158   20.6237   24.2414 H   0  0  0  0  0  0
   31.2703   21.4448   27.8087 H   0  0  0  0  0  0
   32.2797   19.4366   29.1451 H   0  0  0  0  0  0
   31.2290   19.0221   27.7484 H   0  0  0  0  0  0
   33.3848   17.6644   27.6845 H   0  0  0  0  0  0
   35.3248   23.6265   28.9075 H   0  0  0  0  0  0
   35.7186   24.6782   30.7925 H   0  0  0  0  0  0
   36.7848   26.1983   31.2755 H   0  0  0  0  0  0
   38.7045   27.0012   32.6498 H   0  0  0  0  0  0
   38.5253   27.0840   35.1178 H   0  0  0  0  0  0
   36.4240   26.3938   36.2560 H   0  0  0  0  0  0
   34.5123   25.5721   34.8883 H   0  0  0  0  0  0
  1  2  1  0  0  0
  1  9  1  0  0  0
  2  3  1  0  0  0
  2 12  1  0  0  0
  2 24  1  0  0  0
  3  4  1  0  0  0
  3  5  1  0  0  0
  3 25  1  0  0  0
  4 26  1  0  0  0
  5  6  1  0  0  0
  5  7  1  0  0  0
  5 27  1  0  0  0
  6 28  1  0  0  0
  7  8  1  0  0  0
  7  9  1  0  0  0
  7 29  1  0  0  0
  8 30  1  0  0  0
  9 10  1  0  0  0
  9 31  1  0  0  0
 10 11  1  0  0  0
 10 32  1  0  0  0
 10 33  1  0  0  0
 11 34  1  0  0  0
 12 13  1  0  0  0
 12 35  1  0  0  0
 13 14  2  0  0  0
 13 15  1  0  0  0
 15 16  1  0  0  0
 15 36  1  0  0  0
 16 17  2  0  0  0
 16 18  1  0  0  0
 18 19  2  0  0  0
 18 23  1  0  0  0
 19 20  1  0  0  0
 19 37  1  0  0  0
 20 21  2  0  0  0
 20 38  1  0  0  0
 21 22  1  0  0  0
 21 39  1  0  0  0
 22 23  2  0  0  0
 22 40  1  0  0  0
 23 41  1  0  0  0
M  END
> <s_m_source_file>
../2qnb_ligand.sdf

> <i_m_source_file_index>
1

> <s_epik_input>
W09IXVtDQEBIXTFbQ0BASF0oW09IXSlbQ0BIXShbT0hdKVtDQEBIXShbQ0gyXVtPSF0pT1tDQEhdMVtOSF1DKD1PKVtOSF1DKD1PKWMyW2NIXVtjSF1bY0hdW2NIXVtjSF0y

> <s_epik_cmdline>
J2VwaWtfYXBwJywgJy1pbWFlJywgJ2xpZ2FuZF9wcm8ubWFlJywgJy1vbWFlJywgJ2xpZ2FuZF9wcmVwLm1hZScsICctbXMnLCAnMScsICctcGgnLCAnNycsICctcGh0JywgJzAuNScsICctbnQn

> <r_lp_tautomer_probability>
1

> <r_epik_Ionization_Penalty>
  0.0000

> <r_epik_Ionization_Penalty_Charging>
  0.0000

> <r_epik_Ionization_Penalty_Neutral>
  0.0000

> <r_epik_State_Penalty>
 -0.0000

> <r_epik_Charging_Adjusted_Penalty>
0

> <i_epik_Tot_Q>
0

> <i_epik_Tot_abs_Q>
0

> <s_epik_Chemistry_Notes>
This compound contains an acetal/aminal-like group ( X-CH(R)-Y where X, Y are N, S, or O) that may be acid/base labile, releasing an aldehyde.

$$$$
