2qnn_ligand
                    3D
 Schrodinger Suite 2020-3.
 85 89  0  0  1  0            999 V2000
    5.4650  -14.7950  -15.7110 N   0  0  0  0  0  0
    6.6870  -14.4800  -15.2260 C   0  0  0  0  0  0
    7.7030  -15.5870  -15.1660 C   0  0  0  0  0  0
    8.9190  -15.3360  -14.5120 C   0  0  0  0  0  0
    9.8700  -16.3580  -14.4340 C   0  0  0  0  0  0
    9.5590  -17.6180  -14.9240 C   0  0  0  0  0  0
    8.3650  -17.8910  -15.6180 C   0  0  0  0  0  0
    7.4340  -16.8520  -15.7020 C   0  0  0  0  0  0
   10.7120  -18.9050  -14.7960 S   0  0  0  0  0  0
   11.0780  -18.9590  -13.3840 O   0  0  0  0  0  0
   10.0950  -20.0770  -15.4220 O   0  0  0  0  0  0
   12.1460  -18.5450  -15.6620 N   0  0  3  0  0  0
   13.3740  -18.2470  -14.9170 C   0  0  0  0  0  0
   14.1730  -19.5530  -14.6580 C   0  0  0  0  0  0
   15.5200  -19.6240  -15.0740 C   0  0  0  0  0  0
   16.2970  -20.7690  -14.8450 C   0  0  0  0  0  0
   15.7060  -21.8970  -14.2370 C   0  0  0  0  0  0
   16.5620  -23.1420  -13.9740 C   0  0  0  0  0  0
   16.0650  -24.2710  -14.5290 F   0  0  0  0  0  0
   17.8310  -22.9200  -14.4370 F   0  0  0  0  0  0
   16.6890  -23.2940  -12.6310 F   0  0  0  0  0  0
   14.3730  -21.8360  -13.8250 C   0  0  0  0  0  0
   13.6040  -20.6820  -14.0630 C   0  0  0  0  0  0
   12.0200  -18.6950  -17.1220 C   0  0  1  0  0  0
   12.7820  -17.6020  -17.8960 C   0  0  0  0  0  0
   14.1300  -18.1670  -18.2000 N   0  3  0  0  0  0
   14.0500  -19.6200  -18.2230 C   0  0  0  0  0  0
   12.7260  -20.0290  -17.5390 C   0  0  2  0  0  0
   11.9440  -20.8450  -18.4430 N   0  0  3  0  0  0
   11.4650  -20.4150  -19.7450 C   0  0  0  0  0  0
   10.1870  -19.6400  -19.8400 C   0  0  0  0  0  0
   10.1350  -18.6430  -20.8180 C   0  0  0  0  0  0
    8.9730  -17.9150  -21.0010 C   0  0  0  0  0  0
    7.8790  -18.1210  -20.1800 C   0  0  0  0  0  0
    6.6210  -17.2570  -20.4290 C   0  0  0  0  0  0
    7.0570  -16.0210  -20.8730 F   0  0  0  0  0  0
    5.9840  -17.8300  -21.4720 F   0  0  0  0  0  0
    5.9090  -17.0620  -19.3220 F   0  0  0  0  0  0
    7.9460  -19.0880  -19.1750 C   0  0  0  0  0  0
    9.1030  -19.8280  -18.9860 C   0  0  0  0  0  0
   11.7530  -22.4550  -18.0800 S   0  0  0  0  0  0
   13.2540  -23.1460  -18.7230 C   0  0  0  0  0  0
   13.3330  -23.4130  -20.0920 C   0  0  0  0  0  0
   14.5120  -23.9520  -20.6350 C   0  0  0  0  0  0
   15.5610  -24.2390  -19.7680 C   0  0  0  0  0  0
   16.8530  -24.7890  -20.3680 C   0  0  0  0  0  0
   17.1470  -24.4690  -21.5110 O   0  0  0  0  0  0
   17.6640  -25.5970  -19.6980 N   0  0  0  0  0  0
   15.4810  -23.9470  -18.4130 C   0  0  0  0  0  0
   14.3050  -23.4120  -17.8350 C   0  0  0  0  0  0
   10.6580  -22.9630  -18.8910 O   0  0  0  0  0  0
   11.7310  -22.6690  -16.6410 O   0  0  0  0  0  0
    6.9750  -13.3560  -14.8400 O   0  0  0  0  0  0
    5.2541  -15.8212  -16.0462 H   0  0  0  0  0  0
    4.6816  -14.0251  -15.7704 H   0  0  0  0  0  0
    9.1191  -14.3592  -14.0716 H   0  0  0  0  0  0
   10.8477  -16.1663  -13.9918 H   0  0  0  0  0  0
    8.1758  -18.8655  -16.0681 H   0  0  0  0  0  0
    6.4785  -17.0303  -16.1952 H   0  0  0  0  0  0
   13.9972  -17.5528  -15.4999 H   0  0  0  0  0  0
   13.1150  -17.7857  -13.9526 H   0  0  0  0  0  0
   15.9660  -18.7704  -15.5843 H   0  0  0  0  0  0
   17.3478  -20.7874  -15.1340 H   0  0  0  0  0  0
   13.9249  -22.6889  -13.3152 H   0  0  0  0  0  0
   12.5515  -20.6686  -13.7798 H   0  0  0  0  0  0
   10.9371  -18.6332  -17.3048 H   0  0  0  0  0  0
   12.2374  -17.3602  -18.8206 H   0  0  0  0  0  0
   12.8634  -16.6999  -17.2719 H   0  0  0  0  0  0
   14.4679  -17.8017  -19.1810 H   0  0  0  0  0  0
   14.8436  -17.8502  -17.4251 H   0  0  0  0  0  0
   14.0665  -19.9717  -19.2651 H   0  0  0  0  0  0
   14.9077  -20.0431  -17.6796 H   0  0  0  0  0  0
   12.8461  -20.7077  -16.6817 H   0  0  0  0  0  0
   12.2147  -19.7606  -20.2137 H   0  0  0  0  0  0
   11.2966  -21.2952  -20.3828 H   0  0  0  0  0  0
   11.0094  -18.4392  -21.4361 H   0  0  0  0  0  0
    8.9191  -17.1735  -21.7981 H   0  0  0  0  0  0
    7.0818  -19.2624  -18.5340 H   0  0  0  0  0  0
    9.1639  -20.5526  -18.1740 H   0  0  0  0  0  0
   12.4809  -23.2035  -20.7386 H   0  0  0  0  0  0
   14.6017  -24.1397  -21.7050 H   0  0  0  0  0  0
   17.4158  -25.8956  -18.6688 H   0  0  0  0  0  0
   18.5847  -25.9685  -20.1716 H   0  0  0  0  0  0
   16.3466  -24.1347  -17.7777 H   0  0  0  0  0  0
   14.2220  -23.2189  -16.7655 H   0  0  0  0  0  0
  1  2  1  0  0  0
  1 54  1  0  0  0
  1 55  1  0  0  0
  2  3  1  0  0  0
  2 53  2  0  0  0
  3  4  2  0  0  0
  3  8  1  0  0  0
  4  5  1  0  0  0
  4 56  1  0  0  0
  5  6  2  0  0  0
  5 57  1  0  0  0
  6  7  1  0  0  0
  6  9  1  0  0  0
  7  8  2  0  0  0
  7 58  1  0  0  0
  8 59  1  0  0  0
  9 10  2  0  0  0
  9 11  2  0  0  0
  9 12  1  0  0  0
 12 13  1  0  0  0
 12 24  1  0  0  0
 13 14  1  0  0  0
 13 60  1  0  0  0
 13 61  1  0  0  0
 14 15  2  0  0  0
 14 23  1  0  0  0
 15 16  1  0  0  0
 15 62  1  0  0  0
 16 17  2  0  0  0
 16 63  1  0  0  0
 17 18  1  0  0  0
 17 22  1  0  0  0
 18 19  1  0  0  0
 18 20  1  0  0  0
 18 21  1  0  0  0
 22 23  2  0  0  0
 22 64  1  0  0  0
 23 65  1  0  0  0
 24 25  1  0  0  0
 24 28  1  0  0  0
 24 66  1  0  0  0
 25 26  1  0  0  0
 25 67  1  0  0  0
 25 68  1  0  0  0
 26 27  1  0  0  0
 26 69  1  0  0  0
 26 70  1  0  0  0
 27 28  1  0  0  0
 27 71  1  0  0  0
 27 72  1  0  0  0
 28 29  1  0  0  0
 28 73  1  0  0  0
 29 30  1  0  0  0
 29 41  1  0  0  0
 30 31  1  0  0  0
 30 74  1  0  0  0
 30 75  1  0  0  0
 31 32  2  0  0  0
 31 40  1  0  0  0
 32 33  1  0  0  0
 32 76  1  0  0  0
 33 34  2  0  0  0
 33 77  1  0  0  0
 34 35  1  0  0  0
 34 39  1  0  0  0
 35 36  1  0  0  0
 35 37  1  0  0  0
 35 38  1  0  0  0
 39 40  2  0  0  0
 39 78  1  0  0  0
 40 79  1  0  0  0
 41 42  1  0  0  0
 41 51  2  0  0  0
 41 52  2  0  0  0
 42 43  2  0  0  0
 42 50  1  0  0  0
 43 44  1  0  0  0
 43 80  1  0  0  0
 44 45  2  0  0  0
 44 81  1  0  0  0
 45 46  1  0  0  0
 45 49  1  0  0  0
 46 47  2  0  0  0
 46 48  1  0  0  0
 48 82  1  0  0  0
 48 83  1  0  0  0
 49 50  2  0  0  0
 49 84  1  0  0  0
 50 85  1  0  0  0
M  CHG  1  26   1
M  END
> <s_m_source_file>
../2qnn_ligand.sdf

> <i_m_source_file_index>
1

> <s_epik_input>
W05IMl1DKD1PKWMxW2NIXVtjSF1jKFtjSF1bY0hdMSlTKD1PKSg9TylOKFtDSDJdYzJbY0hdW2NIXWMoQyhGKShGKUYpW2NIXVtjSF0yKVtDQEhdM1tDSDJdW05IMitdW0NIMl1bQ0BASF0zTihbQ0gyXWM0W2NIXVtjSF1jKEMoRikoRilGKVtjSF1bY0hdNClTKD1PKSg9TyljNVtjSF1bY0hdYyhDKD1PKVtOSDJdKVtjSF1bY0hdNQ==

> <s_epik_cmdline>
J2VwaWtfYXBwJywgJy1pbWFlJywgJ2xpZ2FuZF9wcm8ubWFlJywgJy1vbWFlJywgJ2xpZ2FuZF9wcmVwLm1hZScsICctbXMnLCAnMScsICctcGgnLCAnNycsICctcGh0JywgJzAuNScsICctbnQn

> <r_lp_tautomer_probability>
1

> <r_epik_Ionization_Penalty>
  0.0072

> <r_epik_Ionization_Penalty_Charging>
  0.0072

> <r_epik_Ionization_Penalty_Neutral>
  0.0000

> <r_epik_State_Penalty>
 -0.0000

> <r_epik_Charging_Adjusted_Penalty>
0.00720179527267058

> <i_epik_Tot_Q>
1

> <i_epik_Tot_abs_Q>
1

$$$$
