2qnx_ligand
                    3D
 Schrodinger Suite 2020-3.
 35 34  0  0  1  0            999 V2000
   40.2930   37.1090   51.8930 C   0  0  0  0  0  0
   39.1200   36.1230   51.8070 C   0  0  0  0  0  0
   38.9100   35.6480   50.3620 C   0  0  0  0  0  0
   37.5710   36.1310   49.8030 C   0  0  0  0  0  0
   36.4550   35.1080   50.0590 C   0  0  0  0  0  0
   35.1990   35.4370   49.2510 C   0  0  0  0  0  0
   35.0220   34.4540   48.0900 C   0  0  0  0  0  0
   33.7700   34.7820   47.2670 C   0  0  0  0  0  0
   34.0840   34.7180   45.7720 C   0  0  0  0  0  0
   32.8300   34.4150   44.9530 C   0  0  0  0  0  0
   32.9180   34.9810   43.6150 O   0  0  0  0  0  0
   32.1980   34.2610   42.7110 C   0  0  0  0  0  0
   32.7100   33.8620   41.6670 O   0  0  0  0  0  0
   30.5370   33.9000   43.0320 S   0  5  0  0  0  0
   40.4230   37.4340   52.9358 H   0  0  0  0  0  0
   40.0839   37.9837   51.2596 H   0  0  0  0  0  0
   41.2127   36.6159   51.5452 H   0  0  0  0  0  0
   39.3291   35.2483   52.4404 H   0  0  0  0  0  0
   38.2003   36.6161   52.1548 H   0  0  0  0  0  0
   39.7158   36.0425   49.7256 H   0  0  0  0  0  0
   38.9239   34.5485   50.3318 H   0  0  0  0  0  0
   37.2926   37.0793   50.2860 H   0  0  0  0  0  0
   37.6609   36.2850   48.7176 H   0  0  0  0  0  0
   36.8031   34.1055   49.7695 H   0  0  0  0  0  0
   36.1930   35.1108   51.1273 H   0  0  0  0  0  0
   34.3161   35.3749   49.9042 H   0  0  0  0  0  0
   35.2820   36.4550   48.8425 H   0  0  0  0  0  0
   35.8991   34.5065   47.4282 H   0  0  0  0  0  0
   34.9223   33.4327   48.4862 H   0  0  0  0  0  0
   32.9781   34.0545   47.4985 H   0  0  0  0  0  0
   33.4217   35.7950   47.5171 H   0  0  0  0  0  0
   34.4924   35.6844   45.4414 H   0  0  0  0  0  0
   34.8231   33.9248   45.5862 H   0  0  0  0  0  0
   32.7052   33.3258   44.8630 H   0  0  0  0  0  0
   31.9510   34.8445   45.4558 H   0  0  0  0  0  0
  1  2  1  0  0  0
  1 15  1  0  0  0
  1 16  1  0  0  0
  1 17  1  0  0  0
  2  3  1  0  0  0
  2 18  1  0  0  0
  2 19  1  0  0  0
  3  4  1  0  0  0
  3 20  1  0  0  0
  3 21  1  0  0  0
  4  5  1  0  0  0
  4 22  1  0  0  0
  4 23  1  0  0  0
  5  6  1  0  0  0
  5 24  1  0  0  0
  5 25  1  0  0  0
  6  7  1  0  0  0
  6 26  1  0  0  0
  6 27  1  0  0  0
  7  8  1  0  0  0
  7 28  1  0  0  0
  7 29  1  0  0  0
  8  9  1  0  0  0
  8 30  1  0  0  0
  8 31  1  0  0  0
  9 10  1  0  0  0
  9 32  1  0  0  0
  9 33  1  0  0  0
 10 11  1  0  0  0
 10 34  1  0  0  0
 10 35  1  0  0  0
 11 12  1  0  0  0
 12 13  2  0  0  0
 12 14  1  0  0  0
M  CHG  1  14  -1
M  END
> <s_m_source_file>
../2qnx_ligand.sdf

> <i_m_source_file_index>
1

> <s_epik_input>
W0NIM11bQ0gyXVtDSDJdW0NIMl1bQ0gyXVtDSDJdW0NIMl1bQ0gyXVtDSDJdW0NIMl1PQyg9TylbU0hd

> <s_epik_cmdline>
J2VwaWtfYXBwJywgJy1pbWFlJywgJ2xpZ2FuZF9wcm8ubWFlJywgJy1vbWFlJywgJ2xpZ2FuZF9wcmVwLm1hZScsICctbXMnLCAnMScsICctcGgnLCAnNycsICctcGh0JywgJzAuNScsICctbnQn

> <r_lp_tautomer_probability>
1

> <r_epik_Ionization_Penalty>
  0.0000

> <r_epik_Ionization_Penalty_Charging>
  0.0000

> <r_epik_Ionization_Penalty_Neutral>
  0.0000

> <r_epik_State_Penalty>
 -0.0000

> <r_epik_Charging_Adjusted_Penalty>
5.55864624613989e-06

> <i_epik_Tot_Q>
-1

> <i_epik_Tot_abs_Q>
1

> <s_epik_Chemistry_Notes>
This compound has an ester and may undergo hydrolysis at high or low pH.

$$$$
