2qnz_ligand
                    3D
 Schrodinger Suite 2020-3.
 35 34  0  0  1  0            999 V2000
   35.2460   44.3170   33.6920 C   0  0  0  0  0  0
   34.0010   43.4680   33.8700 C   0  0  0  0  0  0
   33.8850   42.9120   35.2880 C   0  0  0  0  0  0
   32.7410   41.9110   35.4370 C   0  0  0  0  0  0
   33.1880   40.4840   35.1430 C   0  0  0  0  0  0
   32.0870   39.4710   35.4340 C   0  0  0  0  0  0
   32.2860   38.8280   36.8020 C   0  0  0  0  0  0
   31.5050   37.5280   36.9090 C   0  0  0  0  0  0
   31.9750   36.7130   38.1040 C   0  0  0  0  0  0
   30.7860   36.1710   38.8820 C   0  0  0  0  0  0
   31.1720   34.9650   39.5380 O   0  0  0  0  0  0
   30.1810   34.0780   40.1270 C   0  0  0  0  0  0
   29.3750   34.5390   40.9120 O   0  0  0  0  0  0
   35.2877   44.6947   32.6597 H   0  0  0  0  0  0
   36.1382   43.7066   33.8955 H   0  0  0  0  0  0
   35.2146   45.1651   34.3918 H   0  0  0  0  0  0
   33.1088   44.0784   33.6665 H   0  0  0  0  0  0
   34.0324   42.6199   33.1702 H   0  0  0  0  0  0
   34.8194   42.3982   35.5580 H   0  0  0  0  0  0
   33.7040   43.7377   35.9919 H   0  0  0  0  0  0
   32.3561   41.9447   36.4669 H   0  0  0  0  0  0
   31.9341   42.1692   34.7354 H   0  0  0  0  0  0
   33.4634   40.3974   34.0816 H   0  0  0  0  0  0
   34.0579   40.2359   35.7689 H   0  0  0  0  0  0
   31.1103   39.9769   35.4201 H   0  0  0  0  0  0
   32.1024   38.6823   34.6673 H   0  0  0  0  0  0
   33.3539   38.6125   36.9540 H   0  0  0  0  0  0
   31.9358   39.5164   37.5852 H   0  0  0  0  0  0
   30.4350   37.7521   37.0312 H   0  0  0  0  0  0
   31.6533   36.9348   35.9946 H   0  0  0  0  0  0
   32.5871   35.8687   37.7541 H   0  0  0  0  0  0
   32.5758   37.3506   38.7692 H   0  0  0  0  0  0
   30.4667   36.9136   39.6281 H   0  0  0  0  0  0
   29.9563   35.9674   38.1890 H   0  0  0  0  0  0
   30.1522   33.0079   39.8739 H   0  0  0  0  0  0
  1  2  1  0  0  0
  1 14  1  0  0  0
  1 15  1  0  0  0
  1 16  1  0  0  0
  2  3  1  0  0  0
  2 17  1  0  0  0
  2 18  1  0  0  0
  3  4  1  0  0  0
  3 19  1  0  0  0
  3 20  1  0  0  0
  4  5  1  0  0  0
  4 21  1  0  0  0
  4 22  1  0  0  0
  5  6  1  0  0  0
  5 23  1  0  0  0
  5 24  1  0  0  0
  6  7  1  0  0  0
  6 25  1  0  0  0
  6 26  1  0  0  0
  7  8  1  0  0  0
  7 27  1  0  0  0
  7 28  1  0  0  0
  8  9  1  0  0  0
  8 29  1  0  0  0
  8 30  1  0  0  0
  9 10  1  0  0  0
  9 31  1  0  0  0
  9 32  1  0  0  0
 10 11  1  0  0  0
 10 33  1  0  0  0
 10 34  1  0  0  0
 11 12  1  0  0  0
 12 13  2  0  0  0
 12 35  1  0  0  0
M  END
> <s_m_source_file>
../2qnz_ligand.sdf

> <i_m_source_file_index>
1

> <s_epik_input>
W0NIM11bQ0gyXVtDSDJdW0NIMl1bQ0gyXVtDSDJdW0NIMl1bQ0gyXVtDSDJdW0NIMl1PW0NIXT1P

> <s_epik_cmdline>
J2VwaWtfYXBwJywgJy1pbWFlJywgJ2xpZ2FuZF9wcm8ubWFlJywgJy1vbWFlJywgJ2xpZ2FuZF9wcmVwLm1hZScsICctbXMnLCAnMScsICctcGgnLCAnNycsICctcGh0JywgJzAuNScsICctbnQn

> <r_lp_tautomer_probability>
1

> <r_epik_Ionization_Penalty>
  0.0000

> <r_epik_Ionization_Penalty_Charging>
  0.0000

> <r_epik_Ionization_Penalty_Neutral>
  0.0000

> <r_epik_State_Penalty>
 -0.0000

> <r_epik_Charging_Adjusted_Penalty>
0

> <i_epik_Tot_Q>
0

> <i_epik_Tot_abs_Q>
0

> <s_epik_Chemistry_Notes>
This compound has an ester and may undergo hydrolysis at high or low pH.

$$$$
