2qo1_ligand
                    3D
 Schrodinger Suite 2020-3.
 37 36  0  0  1  0            999 V2000
   40.6950   39.7100   57.2840 O   0  5  0  0  0  0
   41.1620   40.4870   56.4150 C   0  0  0  0  0  0
   41.6120   41.6370   56.6280 O   0  0  0  0  0  0
   41.1900   40.0030   54.9530 C   0  0  0  0  0  0
   40.6840   38.5660   54.7750 C   0  0  0  0  0  0
   40.1810   38.3660   53.3430 C   0  0  0  0  0  0
   40.3830   36.9240   52.8710 C   0  0  0  0  0  0
   39.0750   36.1260   52.9630 C   0  0  0  0  0  0
   38.5240   35.8100   51.5690 C   0  0  0  0  0  0
   37.5180   36.8650   51.1010 C   0  0  0  0  0  0
   36.1160   36.2750   51.0760 C   0  0  0  0  0  0
   35.5590   36.3080   49.6590 C   0  0  0  0  0  0
   34.5190   35.2030   49.4510 C   0  0  0  0  0  0
   33.5790   35.5780   48.4220 O   0  0  0  0  0  0
   33.8840   35.0560   47.1980 C   0  0  0  0  0  0
   34.7810   34.2270   47.0650 O   0  0  0  0  0  0
   32.9850   35.5590   45.7850 S   0  5  0  0  0  0
   40.5522   40.6554   54.3385 H   0  0  0  0  0  0
   42.2224   40.0380   54.5749 H   0  0  0  0  0  0
   41.5047   37.8610   54.9736 H   0  0  0  0  0  0
   39.8602   38.3774   55.4792 H   0  0  0  0  0  0
   39.1071   38.5996   53.2956 H   0  0  0  0  0  0
   40.7318   39.0338   52.6643 H   0  0  0  0  0  0
   40.7225   36.9248   51.8247 H   0  0  0  0  0  0
   41.1397   36.4344   53.5016 H   0  0  0  0  0  0
   39.2595   35.1792   53.4918 H   0  0  0  0  0  0
   38.3251   36.7132   53.5134 H   0  0  0  0  0  0
   39.3523   35.7787   50.8458 H   0  0  0  0  0  0
   38.0166   34.8342   51.5878 H   0  0  0  0  0  0
   37.5372   37.7214   51.7910 H   0  0  0  0  0  0
   37.7855   37.2034   50.0891 H   0  0  0  0  0  0
   36.1505   35.2327   51.4259 H   0  0  0  0  0  0
   35.4595   36.8616   51.7355 H   0  0  0  0  0  0
   35.0804   37.2813   49.4758 H   0  0  0  0  0  0
   36.3780   36.1609   48.9395 H   0  0  0  0  0  0
   35.0259   34.2744   49.1496 H   0  0  0  0  0  0
   33.9712   35.0336   50.3897 H   0  0  0  0  0  0
  1  2  1  0  0  0
  2  3  2  0  0  0
  2  4  1  0  0  0
  4  5  1  0  0  0
  4 18  1  0  0  0
  4 19  1  0  0  0
  5  6  1  0  0  0
  5 20  1  0  0  0
  5 21  1  0  0  0
  6  7  1  0  0  0
  6 22  1  0  0  0
  6 23  1  0  0  0
  7  8  1  0  0  0
  7 24  1  0  0  0
  7 25  1  0  0  0
  8  9  1  0  0  0
  8 26  1  0  0  0
  8 27  1  0  0  0
  9 10  1  0  0  0
  9 28  1  0  0  0
  9 29  1  0  0  0
 10 11  1  0  0  0
 10 30  1  0  0  0
 10 31  1  0  0  0
 11 12  1  0  0  0
 11 32  1  0  0  0
 11 33  1  0  0  0
 12 13  1  0  0  0
 12 34  1  0  0  0
 12 35  1  0  0  0
 13 14  1  0  0  0
 13 36  1  0  0  0
 13 37  1  0  0  0
 14 15  1  0  0  0
 15 16  2  0  0  0
 15 17  1  0  0  0
M  CHG  2   1  -1  17  -1
M  END
> <s_m_source_file>
../2qo1_ligand.sdf

> <i_m_source_file_index>
1

> <s_epik_input>
W09IXUMoPU8pW0NIMl1bQ0gyXVtDSDJdW0NIMl1bQ0gyXVtDSDJdW0NIMl1bQ0gyXVtDSDJdW0NIMl1PQyg9TylbU0hd

> <s_epik_cmdline>
J2VwaWtfYXBwJywgJy1pbWFlJywgJ2xpZ2FuZF9wcm8ubWFlJywgJy1vbWFlJywgJ2xpZ2FuZF9wcmVwLm1hZScsICctbXMnLCAnMScsICctcGgnLCAnNycsICctcGh0JywgJzAuNScsICctbnQn

> <r_lp_tautomer_probability>
1

> <r_epik_Ionization_Penalty>
  0.0049

> <r_epik_Ionization_Penalty_Charging>
  0.0049

> <r_epik_Ionization_Penalty_Neutral>
  0.0000

> <r_epik_State_Penalty>
 -0.0000

> <r_epik_Charging_Adjusted_Penalty>
0.00487205360302382

> <i_epik_Tot_Q>
-2

> <i_epik_Tot_abs_Q>
2

> <s_epik_Chemistry_Notes>
This compound has an ester and may undergo hydrolysis at high or low pH.

$$$$
