2qo8_ligand
                    3D
 Schrodinger Suite 2020-3.
 49 50  0  0  1  0            999 V2000
   -4.1360    2.5460   15.0980 C   0  0  0  0  0  0
   -5.3780    2.4270   15.7410 C   0  0  0  0  0  0
   -6.3370    3.4800   15.7110 C   0  0  0  0  0  0
   -6.0410    4.6680   15.0240 C   0  0  0  0  0  0
   -3.8470    3.7650   14.4010 C   0  0  0  0  0  0
   -4.8280    4.7930   14.3920 C   0  0  0  0  0  0
   -4.2810    5.9060   13.6180 C   0  0  0  0  0  0
   -3.2090    5.3530   12.8240 C   0  0  2  0  0  0
   -2.6640    4.2220   13.6290 C   0  0  0  0  0  0
   -5.8200    0.9510   16.6350 S   0  0  0  0  0  0
   -5.2710    1.0780   17.9540 O   0  0  0  0  0  0
   -7.2490    0.8090   16.5010 O   0  0  0  0  0  0
   -5.1460   -0.3060   15.9840 N   0  0  0  0  0  0
   -2.1590    6.3770   12.5290 N   0  0  0  0  0  0
   -2.3190    7.4950   11.7640 C   0  0  0  0  0  0
   -3.4470    7.6510   11.2820 O   0  0  0  0  0  0
   -1.2010    8.5590   11.4660 C   0  0  0  0  0  0
   -0.5330    9.0940   12.7750 C   0  0  0  0  0  0
   -1.4750    9.6020   13.8930 C   0  0  0  0  0  0
   -0.8660    9.3860   15.2820 C   0  0  0  0  0  0
   -0.1390    7.9690   10.4650 C   0  0  0  0  0  0
   -0.6710    7.3110    9.1660 C   0  0  0  0  0  0
   -0.6590    8.2810    7.9780 C   0  0  0  0  0  0
   -3.4104    1.7331   15.1278 H   0  0  0  0  0  0
   -7.2947    3.3640   16.2183 H   0  0  0  0  0  0
   -6.7655    5.4818   14.9925 H   0  0  0  0  0  0
   -5.0693    6.3307   12.9791 H   0  0  0  0  0  0
   -3.9076    6.6809   14.3036 H   0  0  0  0  0  0
   -3.5993    5.0202   11.8509 H   0  0  0  0  0  0
   -1.8728    4.5393   14.3242 H   0  0  0  0  0  0
   -2.2932    3.3967   13.0035 H   0  0  0  0  0  0
   -5.4292   -1.2071   16.5477 H   0  0  0  0  0  0
   -4.0525   -0.1883   16.0059 H   0  0  0  0  0  0
   -1.1470    6.2627   12.9448 H   0  0  0  0  0  0
   -1.6777    9.4307   10.9939 H   0  0  0  0  0  0
    0.0643    8.2933   13.2355 H   0  0  0  0  0  0
    0.1201    9.9451   12.5320 H   0  0  0  0  0  0
   -1.6585   10.6780   13.7570 H   0  0  0  0  0  0
   -2.4298    9.0581   13.8433 H   0  0  0  0  0  0
   -1.5613    9.7578   16.0490 H   0  0  0  0  0  0
    0.0859    9.9325   15.3540 H   0  0  0  0  0  0
   -0.6854    8.3125   15.4403 H   0  0  0  0  0  0
    0.5349    8.7714   10.1304 H   0  0  0  0  0  0
    0.4456    7.1860   10.9701 H   0  0  0  0  0  0
   -0.0408    6.4471    8.9079 H   0  0  0  0  0  0
   -1.7068    6.9755    9.3225 H   0  0  0  0  0  0
   -1.0438    7.7697    7.0833 H   0  0  0  0  0  0
    0.3707    8.6202    7.7920 H   0  0  0  0  0  0
   -1.2953    9.1487    8.2067 H   0  0  0  0  0  0
  1  2  2  0  0  0
  1  5  1  0  0  0
  1 24  1  0  0  0
  2  3  1  0  0  0
  2 10  1  0  0  0
  3  4  2  0  0  0
  3 25  1  0  0  0
  4  6  1  0  0  0
  4 26  1  0  0  0
  5  6  2  0  0  0
  5  9  1  0  0  0
  6  7  1  0  0  0
  7  8  1  0  0  0
  7 27  1  0  0  0
  7 28  1  0  0  0
  8  9  1  0  0  0
  8 14  1  0  0  0
  8 29  1  0  0  0
  9 30  1  0  0  0
  9 31  1  0  0  0
 10 11  2  0  0  0
 10 12  2  0  0  0
 10 13  1  0  0  0
 13 32  1  0  0  0
 13 33  1  0  0  0
 14 15  1  0  0  0
 14 34  1  0  0  0
 15 16  2  0  0  0
 15 17  1  0  0  0
 17 18  1  0  0  0
 17 21  1  0  0  0
 17 35  1  0  0  0
 18 19  1  0  0  0
 18 36  1  0  0  0
 18 37  1  0  0  0
 19 20  1  0  0  0
 19 38  1  0  0  0
 19 39  1  0  0  0
 20 40  1  0  0  0
 20 41  1  0  0  0
 20 42  1  0  0  0
 21 22  1  0  0  0
 21 43  1  0  0  0
 21 44  1  0  0  0
 22 23  1  0  0  0
 22 45  1  0  0  0
 22 46  1  0  0  0
 23 47  1  0  0  0
 23 48  1  0  0  0
 23 49  1  0  0  0
M  END
> <s_m_source_file>
../2qo8_ligand.sdf

> <i_m_source_file_index>
1

> <s_epik_input>
Tz1TKD1PKShbTkgyXSljKFtjSF0xKVtjSF1bY0hdYyhjMTIpW0NIMl1bQ0BIXShbQ0gyXTIpW05IXUMoPU8pW0NIXShbQ0gyXVtDSDJdW0NIM10pW0NIMl1bQ0gyXVtDSDNd

> <s_epik_cmdline>
J2VwaWtfYXBwJywgJy1pbWFlJywgJ2xpZ2FuZF9wcm8ubWFlJywgJy1vbWFlJywgJ2xpZ2FuZF9wcmVwLm1hZScsICctbXMnLCAnMScsICctcGgnLCAnNycsICctcGh0JywgJzAuNScsICctbnQn

> <r_lp_tautomer_probability>
1

> <r_epik_Ionization_Penalty>
  0.0004

> <r_epik_Ionization_Penalty_Charging>
  0.0000

> <r_epik_Ionization_Penalty_Neutral>
  0.0004

> <r_epik_State_Penalty>
 -0.0000

> <r_epik_Charging_Adjusted_Penalty>
0

> <i_epik_Tot_Q>
0

> <i_epik_Tot_abs_Q>
0

$$$$
