2qoh_ligand
                    3D
 Schrodinger Suite 2020-3.
 48 51  0  0  1  0            999 V2000
   -4.3300    9.2820   24.2840 N   0  0  0  0  0  0
   -3.6810    8.4920   25.1910 C   0  0  0  0  0  0
   -2.6480    7.6050   24.7920 C   0  0  0  0  0  0
   -2.3220    7.5860   23.4120 C   0  0  0  0  0  0
   -3.0230    8.4280   22.4740 C   0  0  0  0  0  0
   -4.0160    9.2540   22.9490 C   0  0  0  0  0  0
   -2.9290    8.6200   21.0500 C   0  0  0  0  0  0
   -3.9350    9.5940   20.8170 C   0  0  0  0  0  0
   -4.6030    9.9910   21.9510 N   0  3  0  0  0  0
   -2.0240    7.9930   20.0120 C   0  0  0  0  0  0
   -1.7860    6.5760   19.9090 C   0  0  0  0  0  0
   -0.9080    6.0890   18.8770 C   0  0  0  0  0  0
   -0.2940    6.9720   17.9750 C   0  0  0  0  0  0
   -0.5290    8.3520   18.0760 C   0  0  0  0  0  0
   -1.3860    8.8520   19.0840 C   0  0  0  0  0  0
   -2.4310    5.7350   20.8330 O   0  0  0  0  0  0
   -1.9340    6.7220   25.7790 C   0  0  0  0  0  0
   -1.7690    5.3190   25.5640 C   0  0  0  0  0  0
   -1.1130    4.5020   26.4570 N   0  0  0  0  0  0
   -0.5920    5.0430   27.6060 C   0  0  0  0  0  0
   -0.7230    6.4300   27.8850 C   0  0  0  0  0  0
   -1.3990    7.2480   26.9530 C   0  0  0  0  0  0
   -0.1550    7.0020   29.1110 C   0  0  0  0  0  0
    1.0560    6.9700   29.2950 O   0  0  0  0  0  0
   -1.0060    7.6070   30.0220 N   0  0  0  0  0  0
   -2.2980    7.0490   30.4830 C   0  0  0  0  0  0
   -0.5140    8.8570   30.6420 C   0  0  0  0  0  0
   -2.5830    4.3260   20.5700 C   0  0  0  0  0  0
   -3.9628    8.5445   26.2426 H   0  0  0  0  0  0
   -1.5310    6.9262   23.0554 H   0  0  0  0  0  0
   -4.1189    9.9615   19.7967 H   0  0  0  0  0  0
   -0.7173    5.0189   18.7950 H   0  0  0  0  0  0
    0.3647    6.5863   17.1969 H   0  0  0  0  0  0
   -0.0509    9.0386   17.3774 H   0  0  0  0  0  0
   -1.5599    9.9261   19.1483 H   0  0  0  0  0  0
   -2.1793    4.8776   24.6558 H   0  0  0  0  0  0
   -0.0704    4.3994   28.3144 H   0  0  0  0  0  0
   -1.5044    8.3136   27.1565 H   0  0  0  0  0  0
   -2.5181    6.1259   29.9266 H   0  0  0  0  0  0
   -3.0981    7.7830   30.3068 H   0  0  0  0  0  0
   -2.2374    6.8236   31.5580 H   0  0  0  0  0  0
    0.4503    9.1348   30.1916 H   0  0  0  0  0  0
   -0.3829    8.7031   31.7233 H   0  0  0  0  0  0
   -1.2437    9.6624   30.4721 H   0  0  0  0  0  0
   -3.1106    3.8510   21.4103 H   0  0  0  0  0  0
   -1.5908    3.8658   20.4527 H   0  0  0  0  0  0
   -3.1636    4.1860   19.6463 H   0  0  0  0  0  0
   -5.4141   10.6943   22.1910 H   0  0  0  0  0  0
  1  2  2  0  0  0
  1  6  1  0  0  0
  2  3  1  0  0  0
  2 29  1  0  0  0
  3  4  2  0  0  0
  3 17  1  0  0  0
  4  5  1  0  0  0
  4 30  1  0  0  0
  5  6  2  0  0  0
  5  7  1  0  0  0
  6  9  1  0  0  0
  7  8  2  0  0  0
  7 10  1  0  0  0
  8  9  1  0  0  0
  8 31  1  0  0  0
  9 48  1  0  0  0
 10 11  2  0  0  0
 10 15  1  0  0  0
 11 12  1  0  0  0
 11 16  1  0  0  0
 12 13  2  0  0  0
 12 32  1  0  0  0
 13 14  1  0  0  0
 13 33  1  0  0  0
 14 15  2  0  0  0
 14 34  1  0  0  0
 15 35  1  0  0  0
 16 28  1  0  0  0
 17 18  2  0  0  0
 17 22  1  0  0  0
 18 19  1  0  0  0
 18 36  1  0  0  0
 19 20  2  0  0  0
 20 21  1  0  0  0
 20 37  1  0  0  0
 21 22  2  0  0  0
 21 23  1  0  0  0
 22 38  1  0  0  0
 23 24  2  0  0  0
 23 25  1  0  0  0
 25 26  1  0  0  0
 25 27  1  0  0  0
 26 39  1  0  0  0
 26 40  1  0  0  0
 26 41  1  0  0  0
 27 42  1  0  0  0
 27 43  1  0  0  0
 27 44  1  0  0  0
 28 45  1  0  0  0
 28 46  1  0  0  0
 28 47  1  0  0  0
M  CHG  1   9   1
M  END
> <s_m_source_file>
../2qoh_ligand.sdf

> <i_m_source_file_index>
1

> <s_epik_input>
W0NIM11OKFtDSDNdKUMoPU8pYyhbY0hdMSlbY0hdbltjSF1jMS1jKFtjSF0yKVtjSF1uYyhjMjMpW25IXVtjSF1jMy1jNGMoT1tDSDNdKVtjSF1bY0hdW2NIXVtjSF00

> <s_epik_cmdline>
J2VwaWtfYXBwJywgJy1pbWFlJywgJ2xpZ2FuZF9wcm8ubWFlJywgJy1vbWFlJywgJ2xpZ2FuZF9wcmVwLm1hZScsICctbXMnLCAnMScsICctcGgnLCAnNycsICctcGh0JywgJzAuNScsICctbnQn

> <r_epik_Ionization_Penalty>
  0.0114

> <r_epik_Ionization_Penalty_Charging>
  0.0000

> <r_epik_Ionization_Penalty_Neutral>
  0.0114

> <r_epik_State_Penalty>
  0.0087

> <r_epik_Charging_Adjusted_Penalty>
0.00865614732768184

> <i_epik_Tot_Q>
1

> <i_epik_Tot_abs_Q>
1

$$$$
