2qp6_ligand
                    3D
 Schrodinger Suite 2020-3.
 19 19  0  0  1  0            999 V2000
   -5.9390    0.7660   16.7530 S   0  0  0  0  0  0
   -7.3710    0.7070   16.7030 O   0  0  0  0  0  0
   -5.3000    1.0570   18.0070 O   0  0  0  0  0  0
   -5.3660   -0.6030   16.2430 N   0  0  0  0  0  0
   -4.7460    4.0060   13.6990 C   0  0  0  0  0  0
   -4.4700    2.6270   13.4780 C   0  0  0  0  0  0
   -4.8400    1.6650   14.4260 C   0  0  0  0  0  0
   -5.4920    2.0550   15.6090 C   0  0  0  0  0  0
   -5.7820    3.4240   15.8520 C   0  0  0  0  0  0
   -5.3990    4.3950   14.8840 C   0  0  0  0  0  0
   -6.5810    3.9020   17.2770 Cl  0  0  0  0  0  0
   -3.7880    2.1750   12.2150 N   0  3  0  0  0  0
   -4.1600    2.7420   10.9650 O   0  0  0  0  0  0
   -2.8030    1.1630   12.2730 O   0  5  0  0  0  0
   -5.6409   -1.4011   16.9483 H   0  0  0  0  0  0
   -4.2702   -0.5381   16.1717 H   0  0  0  0  0  0
   -4.4551    4.7520   12.9594 H   0  0  0  0  0  0
   -4.6222    0.6122   14.2465 H   0  0  0  0  0  0
   -5.6132    5.4488   15.0619 H   0  0  0  0  0  0
  1  2  2  0  0  0
  1  3  2  0  0  0
  1  4  1  0  0  0
  1  8  1  0  0  0
  4 15  1  0  0  0
  4 16  1  0  0  0
  5  6  2  0  0  0
  5 10  1  0  0  0
  5 17  1  0  0  0
  6  7  1  0  0  0
  6 12  1  0  0  0
  7  8  2  0  0  0
  7 18  1  0  0  0
  8  9  1  0  0  0
  9 10  2  0  0  0
  9 11  1  0  0  0
 10 19  1  0  0  0
 12 13  2  0  0  0
 12 14  1  0  0  0
M  CHG  2  12   1  14  -1
M  END
> <s_m_source_file>
../2qp6_ligand.sdf

> <i_m_source_file_index>
1

> <s_epik_input>
Tz1TKD1PKShbTkgyXSljKFtjSF0xKWMoQ2wpW2NIXVtjSF1jMVtOK10oPU8pW08tXQ==

> <s_epik_cmdline>
J2VwaWtfYXBwJywgJy1pbWFlJywgJ2xpZ2FuZF9wcm8ubWFlJywgJy1vbWFlJywgJ2xpZ2FuZF9wcmVwLm1hZScsICctbXMnLCAnMScsICctcGgnLCAnNycsICctcGh0JywgJzAuNScsICctbnQn

> <r_lp_tautomer_probability>
1

> <r_epik_Ionization_Penalty>
  0.0067

> <r_epik_Ionization_Penalty_Charging>
  0.0000

> <r_epik_Ionization_Penalty_Neutral>
  0.0067

> <r_epik_State_Penalty>
 -0.0000

> <r_epik_Charging_Adjusted_Penalty>
0

> <i_epik_Tot_Q>
0

> <i_epik_Tot_abs_Q>
2

$$$$
