2qp8_ligand
                    3D
 Schrodinger Suite 2020-3.
 84 86  0  0  1  0            999 V2000
   26.7980   11.1020   18.9300 F   0  0  0  0  0  0
   22.6980   13.4690   18.4630 F   0  0  0  0  0  0
   26.8900   15.5380   24.5010 C   0  0  0  0  0  0
   27.0410   14.3580   23.7240 C   0  0  0  0  0  0
   25.8960   13.5540   23.4110 C   0  0  0  0  0  0
   24.6080   13.9450   23.8700 C   0  0  0  0  0  0
   24.4570   15.1350   24.6360 C   0  0  0  0  0  0
   25.5980   15.9260   24.9520 C   0  0  0  0  0  0
   28.3720   13.9440   23.2960 C   0  0  0  0  0  0
   28.6340   13.7350   21.9750 N   0  0  0  0  0  0
   29.2470   13.7730   24.1410 O   0  0  0  0  0  0
   29.9800   13.2970   21.6310 C   0  0  0  0  0  0
   27.6810   13.9310   20.8860 C   0  0  0  0  0  0
   28.2480   15.0030   19.9460 C   0  0  0  0  0  0
   28.8740   16.2060   20.7110 C   0  0  0  0  0  0
   29.9330   11.8140   21.1640 C   0  0  0  0  0  0
   29.0850   10.8990   22.0660 C   0  0  0  0  0  0
   25.4250   17.1550   25.7530 C   0  0  0  0  0  0
   23.4280   13.1540   23.5430 C   0  0  0  0  0  0
   22.3200   13.6550   23.4000 O   0  0  0  0  0  0
   23.6590   11.8240   23.4120 N   0  0  0  0  0  0
   22.5540   10.9140   23.0530 C   0  0  2  0  0  0
   22.0350   10.0930   24.2620 C   0  0  2  0  0  0
   21.0190    9.1660   23.8190 O   0  0  0  0  0  0
   23.0400    9.9800   21.9220 C   0  0  0  0  0  0
   23.6410   10.7890   20.7880 C   0  0  0  0  0  0
   24.9840   10.5600   20.3790 C   0  0  0  0  0  0
   25.5450   11.3190   19.3110 C   0  0  0  0  0  0
   24.7680   12.3100   18.6570 C   0  0  0  0  0  0
   23.4300   12.5370   19.0710 C   0  0  0  0  0  0
   22.8630   11.7820   20.1300 C   0  0  0  0  0  0
   21.4040   10.9750   25.3310 C   0  0  1  0  0  0
   20.1920   11.7470   24.7670 C   0  0  0  0  0  0
   19.3930   12.4410   25.8540 C   0  0  2  0  0  0
   19.0170   11.4570   26.9580 C   0  0  0  0  0  0
   20.2560   10.7860   27.5320 C   0  0  0  0  0  0
   20.9960   10.0930   26.4420 N   0  3  0  0  0  0
   18.2350   12.9880   25.2360 O   0  0  0  0  0  0
   17.4450   13.6970   26.1740 C   0  0  0  0  0  0
   16.4120   14.5050   25.3830 C   0  0  0  0  0  0
   27.7612   16.1437   24.7506 H   0  0  0  0  0  0
   26.0125   12.6443   22.8220 H   0  0  0  0  0  0
   23.4690   15.4405   24.9804 H   0  0  0  0  0  0
   30.3744   13.9267   20.8198 H   0  0  0  0  0  0
   30.6310   13.3853   22.5132 H   0  0  0  0  0  0
   27.5445   12.9840   20.3433 H   0  0  0  0  0  0
   26.7156   14.2597   21.2983 H   0  0  0  0  0  0
   29.0334   14.5600   19.3160 H   0  0  0  0  0  0
   27.4423   15.3937   19.3070 H   0  0  0  0  0  0
   29.2619   16.9385   19.9879 H   0  0  0  0  0  0
   29.6967   15.8478   21.3473 H   0  0  0  0  0  0
   28.1056   16.6815   21.3383 H   0  0  0  0  0  0
   29.5028   11.7614   20.1530 H   0  0  0  0  0  0
   30.9526   11.4013   21.1506 H   0  0  0  0  0  0
   29.1036    9.8734   21.6688 H   0  0  0  0  0  0
   28.0479   11.2650   22.0880 H   0  0  0  0  0  0
   29.4976   10.9049   23.0857 H   0  0  0  0  0  0
   26.4027   17.6371   25.9006 H   0  0  0  0  0  0
   24.9918   16.8974   26.7308 H   0  0  0  0  0  0
   24.7517   17.8456   25.2241 H   0  0  0  0  0  0
   24.6708   11.4237   23.5735 H   0  0  0  0  0  0
   21.7312   11.5625   22.7176 H   0  0  0  0  0  0
   22.8688    9.5194   24.6930 H   0  0  0  0  0  0
   21.2526    8.4246   23.0407 H   0  0  0  0  0  0
   23.8041    9.2938   22.3161 H   0  0  0  0  0  0
   22.1897    9.3989   21.5355 H   0  0  0  0  0  0
   25.5849    9.8030   20.8830 H   0  0  0  0  0  0
   25.1963   12.8931   17.8418 H   0  0  0  0  0  0
   21.8334   11.9624   20.4389 H   0  0  0  0  0  0
   22.1318   11.7050   25.7151 H   0  0  0  0  0  0
   20.5423   12.5138   24.0603 H   0  0  0  0  0  0
   19.5216   11.0474   24.2463 H   0  0  0  0  0  0
   19.9405   13.2835   26.3017 H   0  0  0  0  0  0
   18.4987   11.9935   27.7664 H   0  0  0  0  0  0
   18.3530   10.6819   26.5478 H   0  0  0  0  0  0
   20.9057   11.5463   27.9901 H   0  0  0  0  0  0
   19.9557   10.0525   28.2948 H   0  0  0  0  0  0
   20.3368    9.3006   26.0579 H   0  0  0  0  0  0
   21.8888    9.6389   26.8965 H   0  0  0  0  0  0
   16.9446   12.9837   26.8454 H   0  0  0  0  0  0
   18.0885   14.3663   26.7639 H   0  0  0  0  0  0
   15.7773   15.0713   26.0805 H   0  0  0  0  0  0
   15.7864   13.8207   24.7910 H   0  0  0  0  0  0
   16.9304   15.2033   24.7094 H   0  0  0  0  0  0
  1 28  1  0  0  0
  2 30  1  0  0  0
  3  4  2  0  0  0
  3  8  1  0  0  0
  3 41  1  0  0  0
  4  5  1  0  0  0
  4  9  1  0  0  0
  5  6  2  0  0  0
  5 42  1  0  0  0
  6  7  1  0  0  0
  6 19  1  0  0  0
  7  8  2  0  0  0
  7 43  1  0  0  0
  8 18  1  0  0  0
  9 10  1  0  0  0
  9 11  2  0  0  0
 10 12  1  0  0  0
 10 13  1  0  0  0
 12 16  1  0  0  0
 12 44  1  0  0  0
 12 45  1  0  0  0
 13 14  1  0  0  0
 13 46  1  0  0  0
 13 47  1  0  0  0
 14 15  1  0  0  0
 14 48  1  0  0  0
 14 49  1  0  0  0
 15 50  1  0  0  0
 15 51  1  0  0  0
 15 52  1  0  0  0
 16 17  1  0  0  0
 16 53  1  0  0  0
 16 54  1  0  0  0
 17 55  1  0  0  0
 17 56  1  0  0  0
 17 57  1  0  0  0
 18 58  1  0  0  0
 18 59  1  0  0  0
 18 60  1  0  0  0
 19 20  2  0  0  0
 19 21  1  0  0  0
 21 22  1  0  0  0
 21 61  1  0  0  0
 22 23  1  0  0  0
 22 25  1  0  0  0
 22 62  1  0  0  0
 23 24  1  0  0  0
 23 32  1  0  0  0
 23 63  1  0  0  0
 24 64  1  0  0  0
 25 26  1  0  0  0
 25 65  1  0  0  0
 25 66  1  0  0  0
 26 27  2  0  0  0
 26 31  1  0  0  0
 27 28  1  0  0  0
 27 67  1  0  0  0
 28 29  2  0  0  0
 29 30  1  0  0  0
 29 68  1  0  0  0
 30 31  2  0  0  0
 31 69  1  0  0  0
 32 33  1  0  0  0
 32 37  1  0  0  0
 32 70  1  0  0  0
 33 34  1  0  0  0
 33 71  1  0  0  0
 33 72  1  0  0  0
 34 35  1  0  0  0
 34 38  1  0  0  0
 34 73  1  0  0  0
 35 36  1  0  0  0
 35 74  1  0  0  0
 35 75  1  0  0  0
 36 37  1  0  0  0
 36 76  1  0  0  0
 36 77  1  0  0  0
 37 78  1  0  0  0
 37 79  1  0  0  0
 38 39  1  0  0  0
 39 40  1  0  0  0
 39 80  1  0  0  0
 39 81  1  0  0  0
 40 82  1  0  0  0
 40 83  1  0  0  0
 40 84  1  0  0  0
M  CHG  1  37   1
M  END
> <s_m_source_file>
../2qp8_ligand.sdf

> <i_m_source_file_index>
1

> <s_epik_input>
RmMoW2NIXTEpW2NIXWMoRilbY0hdYzFbQ0gyXVtDQEBIXShbQ0BIXShbT0hdKVtDQEhdMltDSDJdW0NASF0oW0NIMl1bQ0gyXVtOSDIrXTIpT1tDSDJdW0NIM10pW05IXUMoPU8pYyhbY0hdMylbY0hdYyhbQ0gzXSlbY0hdYzNDKD1PKU4oW0NIMl1bQ0gyXVtDSDNdKVtDSDJdW0NIMl1bQ0gzXQ==

> <s_epik_cmdline>
J2VwaWtfYXBwJywgJy1pbWFlJywgJ2xpZ2FuZF9wcm8ubWFlJywgJy1vbWFlJywgJ2xpZ2FuZF9wcmVwLm1hZScsICctbXMnLCAnMScsICctcGgnLCAnNycsICctcGh0JywgJzAuNScsICctbnQn

> <r_epik_Ionization_Penalty>
  0.0115

> <r_epik_Ionization_Penalty_Charging>
  0.0115

> <r_epik_Ionization_Penalty_Neutral>
  0.0000

> <r_epik_State_Penalty>
  0.0089

> <r_epik_Charging_Adjusted_Penalty>
0.0203711360559609

> <i_epik_Tot_Q>
1

> <i_epik_Tot_abs_Q>
1

$$$$
