2qpj_ligand
                    3D
 Schrodinger Suite 2020-3.
 73 74  0  0  1  0            999 V2000
   26.7960   50.8820   31.3780 C   0  0  0  0  0  0
   26.2050   50.0660   30.2300 C   0  0  2  0  0  0
   24.2910   48.4160   29.5940 O   0  0  0  0  0  0
   24.8460   48.5540   32.0420 C   0  0  0  0  0  0
   23.6360   48.2430   32.9010 C   0  0  1  0  0  0
   23.8280   46.9640   33.7170 C   0  0  0  0  0  0
   23.3770   49.3880   33.8340 C   0  0  0  0  0  0
   22.6180   46.6560   34.5830 C   0  0  0  0  0  0
   22.6740   46.8380   35.9620 C   0  0  0  0  0  0
   21.5670   46.5400   36.7580 C   0  0  0  0  0  0
   20.3930   46.0660   36.1890 C   0  0  0  0  0  0
   20.3360   45.8880   34.8130 C   0  0  0  0  0  0
   21.4450   46.1770   34.0200 C   0  0  0  0  0  0
   25.1750   51.0460   25.9240 C   0  0  0  0  0  0
   26.4870   50.1680   24.1380 N   0  3  0  0  0  0
   26.5920   50.5130   27.8970 C   0  0  0  0  0  0
   26.4240   51.4310   26.7090 C   0  0  0  0  0  0
   24.2860   50.9160   35.4740 C   0  0  2  0  0  0
   26.6190   56.1920   22.8970 N   0  0  0  0  0  0
   27.0060   55.0960   22.7310 C   0  0  0  0  0  0
   27.4810   53.8570   22.5450 C   0  0  3  0  0  0
   28.6830   53.5900   21.7400 C   0  0  0  0  0  0
   28.6850   51.9510   21.4740 C   0  0  0  0  0  0
   27.6150   51.3850   22.5400 C   0  0  0  0  0  0
   26.9210   52.5720   23.0640 N   0  0  0  0  0  0
   25.8780   52.4860   24.0200 C   0  0  0  0  0  0
   25.3870   53.4860   24.5150 O   0  0  0  0  0  0
   25.4250   51.1200   24.4210 C   0  0  2  0  0  0
   27.1920   49.4560   27.7810 O   0  0  0  0  0  0
   26.0600   50.9080   29.0510 N   0  0  0  0  0  0
   24.6650   49.4170   30.6560 P   0  0  1  0  0  0
   23.7260   50.5600   30.9520 O   0  5  0  0  0  0
   24.4470   49.9240   34.4160 N   0  0  0  0  0  0
   25.2400   52.0490   35.2530 C   0  0  0  0  0  0
   25.0200   53.1410   35.7630 O   0  0  0  0  0  0
   26.2330   51.8760   34.5530 O   0  5  0  0  0  0
   24.5360   50.2830   36.8390 C   0  0  0  0  0  0
   22.2340   49.7760   34.0280 O   0  0  0  0  0  0
   27.7756   51.2820   31.0772 H   0  0  0  0  0  0
   26.9185   50.2374   32.2609 H   0  0  0  0  0  0
   26.1195   51.7142   31.6225 H   0  0  0  0  0  0
   26.9865   49.3452   29.9478 H   0  0  0  0  0  0
   25.5711   49.1381   32.6277 H   0  0  0  0  0  0
   25.3131   47.6142   31.7125 H   0  0  0  0  0  0
   22.7745   48.1096   32.2302 H   0  0  0  0  0  0
   23.9886   46.1152   33.0360 H   0  0  0  0  0  0
   24.7023   47.0766   34.3750 H   0  0  0  0  0  0
   23.5871   47.2152   36.4225 H   0  0  0  0  0  0
   21.6249   46.6809   37.8373 H   0  0  0  0  0  0
   19.5290   45.8370   36.8128 H   0  0  0  0  0  0
   19.4197   45.5206   34.3510 H   0  0  0  0  0  0
   21.3894   46.0243   32.9422 H   0  0  0  0  0  0
   24.8828   50.0172   26.1813 H   0  0  0  0  0  0
   24.3555   51.7343   26.1782 H   0  0  0  0  0  0
   26.1620   49.1586   24.4303 H   0  0  0  0  0  0
   27.3871   50.4428   24.7075 H   0  0  0  0  0  0
   26.7153   50.1825   23.0620 H   0  0  0  0  0  0
   27.3068   51.3456   26.0584 H   0  0  0  0  0  0
   26.3290   52.4679   27.0638 H   0  0  0  0  0  0
   23.2530   51.2883   35.4089 H   0  0  0  0  0  0
   26.8557   53.7522   21.6461 H   0  0  0  0  0  0
   28.6233   54.1500   20.7951 H   0  0  0  0  0  0
   29.5761   53.9072   22.2983 H   0  0  0  0  0  0
   28.3844   51.7477   20.4356 H   0  0  0  0  0  0
   29.6954   51.5525   21.6479 H   0  0  0  0  0  0
   26.9178   50.7022   22.0324 H   0  0  0  0  0  0
   28.1438   50.8427   23.3377 H   0  0  0  0  0  0
   24.5243   50.8779   23.8378 H   0  0  0  0  0  0
   25.5147   51.8609   29.1193 H   0  0  0  0  0  0
   25.4545   49.6177   34.0979 H   0  0  0  0  0  0
   23.8313   49.4524   36.9926 H   0  0  0  0  0  0
   24.3900   51.0380   37.6256 H   0  0  0  0  0  0
   25.5670   49.9021   36.8832 H   0  0  0  0  0  0
  1  2  1  0  0  0
  1 39  1  0  0  0
  1 40  1  0  0  0
  1 41  1  0  0  0
  2 30  1  0  0  0
  2 31  1  0  0  0
  2 42  1  0  0  0
  3 31  2  0  0  0
  4  5  1  0  0  0
  4 31  1  0  0  0
  4 43  1  0  0  0
  4 44  1  0  0  0
  5  6  1  0  0  0
  5  7  1  0  0  0
  5 45  1  0  0  0
  6  8  1  0  0  0
  6 46  1  0  0  0
  6 47  1  0  0  0
  7 33  1  0  0  0
  7 38  2  0  0  0
  8  9  2  0  0  0
  8 13  1  0  0  0
  9 10  1  0  0  0
  9 48  1  0  0  0
 10 11  2  0  0  0
 10 49  1  0  0  0
 11 12  1  0  0  0
 11 50  1  0  0  0
 12 13  2  0  0  0
 12 51  1  0  0  0
 13 52  1  0  0  0
 14 17  1  0  0  0
 14 28  1  0  0  0
 14 53  1  0  0  0
 14 54  1  0  0  0
 15 28  1  0  0  0
 15 55  1  0  0  0
 15 56  1  0  0  0
 15 57  1  0  0  0
 16 17  1  0  0  0
 16 29  2  0  0  0
 16 30  1  0  0  0
 17 58  1  0  0  0
 17 59  1  0  0  0
 18 33  1  0  0  0
 18 34  1  0  0  0
 18 37  1  0  0  0
 18 60  1  0  0  0
 19 20  3  0  0  0
 20 21  1  0  0  0
 21 22  1  0  0  0
 21 25  1  0  0  0
 21 61  1  0  0  0
 22 23  1  0  0  0
 22 62  1  0  0  0
 22 63  1  0  0  0
 23 24  1  0  0  0
 23 64  1  0  0  0
 23 65  1  0  0  0
 24 25  1  0  0  0
 24 66  1  0  0  0
 24 67  1  0  0  0
 25 26  1  0  0  0
 26 27  2  0  0  0
 26 28  1  0  0  0
 28 68  1  0  0  0
 30 69  1  0  0  0
 31 32  1  0  0  0
 33 70  1  0  0  0
 34 35  2  0  0  0
 34 36  1  0  0  0
 37 71  1  0  0  0
 37 72  1  0  0  0
 37 73  1  0  0  0
M  CHG  3  15   1  32  -1  36  -1
M  END
> <s_m_source_file>
../2qpj_ligand.sdf

> <i_m_source_file_index>
1

> <s_epik_input>
W2NIXTFbY0hdW2NIXVtjSF1bY0hdYzFbQ0gyXVtDQEBIXShDKD1PKVtOSF1bQ0BASF0oW0NIM10pQyg9TylbT0hdKVtDSDJdW1BAQF0oPU8pKFtPSF0pW0NASF0oW0NIM10pW05IXUMoPU8pW0NIMl1bQ0gyXVtDQEhdKFtOSDMrXSlDKD1PKU4yW0NIMl1bQ0gyXVtDSDJdW0NIXTJDI04=

> <s_epik_cmdline>
J2VwaWtfYXBwJywgJy1pbWFlJywgJ2xpZ2FuZF9wcm8ubWFlJywgJy1vbWFlJywgJ2xpZ2FuZF9wcmVwLm1hZScsICctbXMnLCAnMScsICctcGgnLCAnNycsICctcGh0JywgJzAuNScsICctbnQn

> <r_epik_Ionization_Penalty>
  0.2278

> <r_epik_Ionization_Penalty_Charging>
  0.2278

> <r_epik_Ionization_Penalty_Neutral>
  0.0000

> <r_epik_State_Penalty>
  0.2181

> <r_epik_Charging_Adjusted_Penalty>
0.445953864209031

> <i_epik_Tot_Q>
-1

> <i_epik_Tot_abs_Q>
3

$$$$
