2qpu_ligand
                    3D
 Schrodinger Suite 2020-3.
 68 70  0  0  1  0            999 V2000
  165.2180   50.6870   14.9210 C   0  0  2  0  0  0
  163.7320   50.2960   14.7110 C   0  0  1  0  0  0
  162.8630   51.5520   14.8410 C   0  0  2  0  0  0
  162.6800   51.8270   16.3400 C   0  0  1  0  0  0
  164.0770   51.9780   16.9810 C   0  0  1  0  0  0
  164.2210   52.6830   18.3220 C   0  0  0  0  0  0
  165.3380   51.4040   16.2850 C   0  0  1  0  0  0
  163.5750   49.6760   13.4460 O   0  0  0  0  0  0
  161.5850   51.3740   14.2350 O   0  0  0  0  0  0
  161.8850   53.0020   16.4990 O   0  0  0  0  0  0
  166.0420   50.5590   17.1940 O   0  0  0  0  0  0
  168.6980   50.7780   10.8650 C   0  0  2  0  0  0
  167.2730   50.2200   10.6620 C   0  0  1  0  0  0
  166.2690   50.9990   11.5220 C   0  0  2  0  0  0
  166.6840   50.8540   12.9970 C   0  0  1  0  0  0
  168.1290   51.4330   13.1540 C   0  0  1  0  0  0
  168.6350   51.3040   14.5860 C   0  0  0  0  0  0
  165.7070   51.5780   13.8460 N   0  3  0  0  0  0
  166.9340   50.2990    9.2860 O   0  0  0  0  0  0
  164.9610   50.4730   11.3260 O   0  0  0  0  0  0
  169.0390   50.7100   12.2690 O   0  0  0  0  0  0
  170.3570   54.2040    7.0280 C   0  0  0  0  0  0
  169.0450   53.4090    6.8610 C   0  0  1  0  0  0
  168.4010   53.1750    8.2380 C   0  0  2  0  0  0
  169.3780   52.3820    9.1000 C   0  0  1  0  0  0
  170.6920   53.2160    9.2490 C   0  0  1  0  0  0
  171.7760   52.5180   10.0680 C   0  0  0  0  0  0
  168.1610   54.1360    6.0080 O   0  0  0  0  0  0
  167.2040   52.4420    8.0850 O   0  0  0  0  0  0
  168.7760   52.1310   10.4050 O   0  0  0  0  0  0
  171.2600   53.5030    7.9240 O   0  0  0  0  0  0
  172.2350   53.3370   11.1280 O   0  0  0  0  0  0
  165.8602   49.7958   14.8631 H   0  0  0  0  0  0
  163.3846   49.5205   15.4095 H   0  0  0  0  0  0
  163.2947   52.3971   14.2847 H   0  0  0  0  0  0
  162.0991   51.0492   16.8573 H   0  0  0  0  0  0
  164.2115   52.9383   16.4617 H   0  0  0  0  0  0
  163.2329   53.0232   18.6654 H   0  0  0  0  0  0
  164.8890   53.5499   18.2106 H   0  0  0  0  0  0
  164.6452   51.9855   19.0592 H   0  0  0  0  0  0
  165.9476   52.2936   16.0680 H   0  0  0  0  0  0
  164.1379   48.7614   13.2081 H   0  0  0  0  0  0
  161.5115   51.1662   13.1573 H   0  0  0  0  0  0
  160.8643   53.0350   16.0902 H   0  0  0  0  0  0
  166.9686   50.0593   16.8752 H   0  0  0  0  0  0
  169.4635   50.2248   10.3011 H   0  0  0  0  0  0
  167.2109   49.1476   10.8990 H   0  0  0  0  0  0
  166.1883   52.0529   11.2175 H   0  0  0  0  0  0
  166.6457   49.8082   13.3357 H   0  0  0  0  0  0
  168.1505   52.4941   12.8648 H   0  0  0  0  0  0
  167.9582   51.8445   15.2641 H   0  0  0  0  0  0
  169.6454   51.7328   14.6578 H   0  0  0  0  0  0
  168.6665   50.2416   14.8694 H   0  0  0  0  0  0
  164.8589   51.9043   13.2261 H   0  0  0  0  0  0
  166.1949   52.4572   14.2920 H   0  0  0  0  0  0
  167.5579   49.7911    8.5358 H   0  0  0  0  0  0
  164.5036   50.4947   10.3258 H   0  0  0  0  0  0
  170.8423   54.3207    6.0478 H   0  0  0  0  0  0
  170.1337   55.1963    7.4470 H   0  0  0  0  0  0
  169.2058   52.4501    6.3466 H   0  0  0  0  0  0
  168.0931   54.1131    8.7230 H   0  0  0  0  0  0
  169.5696   51.3870    8.6719 H   0  0  0  0  0  0
  170.4350   54.1626    9.7470 H   0  0  0  0  0  0
  171.3710   51.5893   10.4964 H   0  0  0  0  0  0
  172.6305   52.2796    9.4177 H   0  0  0  0  0  0
  168.4695   54.3879    4.9826 H   0  0  0  0  0  0
  166.3768   52.8575    7.4908 H   0  0  0  0  0  0
  173.0182   52.9696   11.8074 H   0  0  0  0  0  0
  1  2  1  0  0  0
  1  7  1  0  0  0
  1 18  1  0  0  0
  1 33  1  0  0  0
  2  3  1  0  0  0
  2  8  1  0  0  0
  2 34  1  0  0  0
  3  4  1  0  0  0
  3  9  1  0  0  0
  3 35  1  0  0  0
  4  5  1  0  0  0
  4 10  1  0  0  0
  4 36  1  0  0  0
  5  6  1  0  0  0
  5  7  1  0  0  0
  5 37  1  0  0  0
  6 38  1  0  0  0
  6 39  1  0  0  0
  6 40  1  0  0  0
  7 11  1  0  0  0
  7 41  1  0  0  0
  8 42  1  0  0  0
  9 43  1  0  0  0
 10 44  1  0  0  0
 11 45  1  0  0  0
 12 13  1  0  0  0
 12 21  1  0  0  0
 12 30  1  0  0  0
 12 46  1  0  0  0
 13 14  1  0  0  0
 13 19  1  0  0  0
 13 47  1  0  0  0
 14 15  1  0  0  0
 14 20  1  0  0  0
 14 48  1  0  0  0
 15 16  1  0  0  0
 15 18  1  0  0  0
 15 49  1  0  0  0
 16 17  1  0  0  0
 16 21  1  0  0  0
 16 50  1  0  0  0
 17 51  1  0  0  0
 17 52  1  0  0  0
 17 53  1  0  0  0
 18 54  1  0  0  0
 18 55  1  0  0  0
 19 56  1  0  0  0
 20 57  1  0  0  0
 22 23  1  0  0  0
 22 31  1  0  0  0
 22 58  1  0  0  0
 22 59  1  0  0  0
 23 24  1  0  0  0
 23 28  1  0  0  0
 23 60  1  0  0  0
 24 25  1  0  0  0
 24 29  1  0  0  0
 24 61  1  0  0  0
 25 26  1  0  0  0
 25 30  1  0  0  0
 25 62  1  0  0  0
 26 27  1  0  0  0
 26 31  1  0  0  0
 26 63  1  0  0  0
 27 32  1  0  0  0
 27 64  1  0  0  0
 27 65  1  0  0  0
 28 66  1  0  0  0
 29 67  1  0  0  0
 32 68  1  0  0  0
M  CHG  1  18   1
M  END
> <s_m_source_file>
../2qpu_ligand.sdf

> <i_m_source_file_index>
1

> <s_epik_input>
W09IXVtDQEBIXTFbQ0BIXShbQ0gzXSlbQ0BASF0oW09IXSlbQ0BIXShbT0hdKVtDQEBIXShbT0hdKVtDQEhdMVtOSDIrXVtDQEhdKFtDQEhdKE8yKVtDSDNdKVtDQEhdKFtPSF0pW0NAQEhdKFtPSF0pW0NASF0yT1tDQEBIXShbQ0BASF0zW09IXSlbQ0BASF0oW0NIMl1bT0hdKU9bQ0gyXVtDQEBIXTNbT0hd

> <s_epik_cmdline>
J2VwaWtfYXBwJywgJy1pbWFlJywgJ2xpZ2FuZF9wcm8ubWFlJywgJy1vbWFlJywgJ2xpZ2FuZF9wcmVwLm1hZScsICctbXMnLCAnMScsICctcGgnLCAnNycsICctcGh0JywgJzAuNScsICctbnQn

> <r_epik_Ionization_Penalty>
  0.0244

> <r_epik_Ionization_Penalty_Charging>
  0.0244

> <r_epik_Ionization_Penalty_Neutral>
  0.0000

> <r_epik_State_Penalty>
  0.0198

> <r_epik_Charging_Adjusted_Penalty>
0.0441601868173502

> <i_epik_Tot_Q>
1

> <i_epik_Tot_abs_Q>
1

> <s_epik_Chemistry_Notes>
This compound contains an acetal/aminal-like group ( X-CH(R)-Y where X, Y are N, S, or O) that may be acid/base labile, releasing an aldehyde.

$$$$
