2qq7_ligand
                    3D
 Schrodinger Suite 2020-3.
 50 52  0  0  1  0            999 V2000
    6.4920   -4.9110   -8.4140 C   0  0  0  0  0  0
    5.5350   -4.4390   -9.3070 C   0  0  0  0  0  0
    5.9640   -4.3990  -11.1730 Br  0  0  0  0  0  0
    4.2920   -4.0070   -8.8180 C   0  0  0  0  0  0
    4.0220   -4.0460   -7.4430 C   0  0  0  0  0  0
    4.9890   -4.5210   -6.5550 C   0  0  0  0  0  0
    6.2250   -4.9490   -7.0470 C   0  0  0  0  0  0
    7.1450   -5.4100   -6.2050 N   0  0  0  0  0  0
    8.4580   -5.1500   -6.3030 C   0  0  0  0  0  0
    9.3400   -5.8390   -5.4670 C   0  0  0  0  0  0
    8.8800   -6.7950   -4.5380 C   0  0  0  0  0  0
    8.9590   -4.2290   -7.1720 N   0  0  0  0  0  0
   10.2650   -3.9730   -7.2490 C   0  0  0  0  0  0
   11.1330   -4.6240   -6.4790 N   0  0  0  0  0  0
   10.7070   -5.5430   -5.5900 C   0  0  0  0  0  0
   11.6230   -6.1960   -4.7810 C   0  0  0  0  0  0
   11.1650   -7.1360   -3.8630 C   0  0  0  0  0  0
    9.8080   -7.4500   -3.7290 C   0  0  0  0  0  0
    9.5110   -8.3540   -2.7820 N   0  0  0  0  0  0
    8.5050   -8.2370   -1.8920 C   0  0  0  0  0  0
    7.6640   -7.3310   -1.8730 O   0  0  0  0  0  0
    8.4440   -9.3830   -0.8680 C   0  0  0  0  0  0
    7.6910   -9.1230    0.4720 C   0  0  0  0  0  0
    6.1500   -9.0200    0.2960 C   0  0  0  0  0  0
    5.4880   -9.6940    1.4510 N   0  3  0  0  0  0
    4.0320   -9.6820    1.2150 C   0  0  0  0  0  0
    5.7730   -9.0290    2.7260 C   0  0  0  0  0  0
    7.4574   -5.2535   -8.7865 H   0  0  0  0  0  0
    3.5341   -3.6399   -9.5100 H   0  0  0  0  0  0
    3.0572   -3.7055   -7.0671 H   0  0  0  0  0  0
    4.7814   -4.5577   -5.4856 H   0  0  0  0  0  0
    6.8470   -6.0494   -5.3610 H   0  0  0  0  0  0
    7.8165   -7.0183   -4.4536 H   0  0  0  0  0  0
   10.6260   -3.2214   -7.9511 H   0  0  0  0  0  0
   12.6875   -5.9764   -4.8626 H   0  0  0  0  0  0
   11.8883   -7.6454   -3.2262 H   0  0  0  0  0  0
   10.1090   -9.2728   -2.6919 H   0  0  0  0  0  0
    7.9385  -10.2502   -1.3179 H   0  0  0  0  0  0
    9.4653   -9.6662   -0.5733 H   0  0  0  0  0  0
    7.8919   -9.9479    1.1715 H   0  0  0  0  0  0
    8.0400   -8.1767    0.9111 H   0  0  0  0  0  0
    5.8547   -7.9609    0.2632 H   0  0  0  0  0  0
    5.8544   -9.5122   -0.6422 H   0  0  0  0  0  0
    5.8746  -10.7201    1.5391 H   0  0  0  0  0  0
    3.8114  -10.1798    0.2592 H   0  0  0  0  0  0
    3.6752   -8.6422    1.1778 H   0  0  0  0  0  0
    3.5237  -10.2151    2.0320 H   0  0  0  0  0  0
    6.8578   -9.0346    2.9080 H   0  0  0  0  0  0
    5.2618   -9.5632    3.5404 H   0  0  0  0  0  0
    5.4132   -7.9903    2.6862 H   0  0  0  0  0  0
  1  2  2  0  0  0
  1  7  1  0  0  0
  1 28  1  0  0  0
  2  3  1  0  0  0
  2  4  1  0  0  0
  4  5  2  0  0  0
  4 29  1  0  0  0
  5  6  1  0  0  0
  5 30  1  0  0  0
  6  7  2  0  0  0
  6 31  1  0  0  0
  7  8  1  0  0  0
  8  9  1  0  0  0
  8 32  1  0  0  0
  9 10  2  0  0  0
  9 12  1  0  0  0
 10 11  1  0  0  0
 10 15  1  0  0  0
 11 18  2  0  0  0
 11 33  1  0  0  0
 12 13  2  0  0  0
 13 14  1  0  0  0
 13 34  1  0  0  0
 14 15  2  0  0  0
 15 16  1  0  0  0
 16 17  2  0  0  0
 16 35  1  0  0  0
 17 18  1  0  0  0
 17 36  1  0  0  0
 18 19  1  0  0  0
 19 20  1  0  0  0
 19 37  1  0  0  0
 20 21  2  0  0  0
 20 22  1  0  0  0
 22 23  1  0  0  0
 22 38  1  0  0  0
 22 39  1  0  0  0
 23 24  1  0  0  0
 23 40  1  0  0  0
 23 41  1  0  0  0
 24 25  1  0  0  0
 24 42  1  0  0  0
 24 43  1  0  0  0
 25 26  1  0  0  0
 25 27  1  0  0  0
 25 44  1  0  0  0
 26 45  1  0  0  0
 26 46  1  0  0  0
 26 47  1  0  0  0
 27 48  1  0  0  0
 27 49  1  0  0  0
 27 50  1  0  0  0
M  CHG  1  25   1
M  END
> <s_m_source_file>
../2qq7_ligand.sdf

> <i_m_source_file_index>
1

> <s_epik_input>
QnJjMVtjSF1jKFtjSF1bY0hdW2NIXTEpW05IXWMybltjSF1uYyhjMjMpW2NIXVtjSF1jKFtjSF0zKVtOSF1DKD1PKVtDSDJdW0NIMl1bQ0gyXVtOSCtdKFtDSDNdKVtDSDNd

> <s_epik_cmdline>
J2VwaWtfYXBwJywgJy1pbWFlJywgJ2xpZ2FuZF9wcm8ubWFlJywgJy1vbWFlJywgJ2xpZ2FuZF9wcmVwLm1hZScsICctbXMnLCAnMScsICctcGgnLCAnNycsICctcGh0JywgJzAuNScsICctbnQn

> <r_lp_tautomer_probability>
1

> <r_epik_Ionization_Penalty>
  0.0035

> <r_epik_Ionization_Penalty_Charging>
  0.0030

> <r_epik_Ionization_Penalty_Neutral>
  0.0004

> <r_epik_State_Penalty>
 -0.0000

> <r_epik_Charging_Adjusted_Penalty>
0.00303718406299064

> <i_epik_Tot_Q>
1

> <i_epik_Tot_abs_Q>
1

$$$$
