2qqs_ligand
                    3D
 Schrodinger Suite 2020-3.
155155  0  0  1  0            999 V2000
   19.5220  -15.6920   14.6490 N   0  3  0  0  0  0
   18.0980  -15.9010   14.3670 C   0  0  2  0  0  0
   17.8800  -15.9850   12.8610 C   0  0  0  0  0  0
   18.7350  -15.5730   12.0740 O   0  0  0  0  0  0
   17.2750  -14.7620   14.9650 C   0  0  0  0  0  0
   16.8070  -14.9740   16.4020 C   0  0  0  0  0  0
   16.1210  -13.7230   16.9700 C   0  0  0  0  0  0
   14.8090  -13.9850   17.5690 N   0  0  0  0  0  0
   14.6110  -14.3550   18.8280 C   0  0  0  0  0  0
   15.6310  -14.5340   19.6610 N   0  0  0  0  0  0
   13.3810  -14.5610   19.2610 N   0  0  0  0  0  0
   16.7350  -16.5340   12.4660 N   0  0  0  0  0  0
   16.3950  -16.6350   11.0600 C   0  0  2  0  0  0
   15.5250  -15.4870   10.6400 C   0  0  0  0  0  0
   14.9660  -14.8020   11.4770 O   0  0  0  0  0  0
   15.7200  -17.9660   10.7150 C   0  0  0  0  0  0
   14.9310  -18.5740   11.8310 C   0  0  0  0  0  0
   13.5990  -18.9010   11.7040 N   0  0  0  0  0  0
   15.2970  -18.9680   13.0730 C   0  0  0  0  0  0
   13.1710  -19.4470   12.8270 C   0  0  0  0  0  0
   14.1830  -19.5020   13.6740 N   0  0  0  0  0  0
   15.4190  -15.2960    9.3330 N   0  0  0  0  0  0
   14.6930  -14.1670    8.7640 C   0  0  2  0  0  0
   13.1500  -14.1290    8.8020 C   0  0  0  0  0  0
   12.5920  -13.0250    8.7090 O   0  0  0  0  0  0
   15.1820  -13.8490    7.3360 C   0  0  0  0  0  0
   14.5690  -12.5440    6.7580 C   0  0  0  0  0  0
   15.5070  -11.8350    5.8100 C   0  0  0  0  0  0
   15.2320  -10.4020    5.7450 N   0  0  0  0  0  0
   15.8480   -9.4790    6.4780 C   0  0  0  0  0  0
   16.7860   -9.8200    7.3460 N   0  0  0  0  0  0
   15.5230   -8.2010    6.3360 N   0  0  0  0  0  0
   12.4390  -15.2550    8.9010 N   0  0  0  0  0  0
   10.9630  -15.1070    8.9610 C   0  0  2  0  0  0
   10.1570  -15.9620    9.9380 C   0  0  0  0  0  0
    8.7920  -15.2980   10.1150 C   0  0  0  0  0  0
    8.3000  -15.2700   11.5460 C   0  0  0  0  0  0
    7.1780  -16.2930   11.7520 C   0  0  0  0  0  0
    6.0900  -15.8630   12.6570 N   0  3  0  0  0  0
   10.2360  -14.9750    7.6440 C   0  0  0  0  0  0
   10.1380  -13.8630    7.1260 O   0  0  0  0  0  0
    5.6840  -14.4730   12.4500 C   0  0  0  0  0  0
    4.9480  -16.7130   12.3640 C   0  0  0  0  0  0
    6.4250  -16.0690   14.0610 C   0  0  0  0  0  0
    9.7160  -16.0840    7.0980 N   0  0  0  0  0  0
    8.6710  -16.0280    6.0320 C   0  0  2  0  0  0
    7.5000  -17.0670    6.2030 C   0  0  0  0  0  0
    6.9150  -17.5390    5.2120 O   0  0  0  0  0  0
    9.2470  -15.9890    4.5510 C   0  0  0  0  0  0
    8.3330  -15.1270    3.6550 C   0  0  0  0  0  0
   10.6930  -15.4370    4.4780 C   0  0  0  0  0  0
    7.1940  -17.4400    7.4760 N   0  0  0  0  0  0
    5.9220  -18.1600    7.7850 C   0  0  2  0  0  0
    5.0290  -17.2040    8.6290 C   0  0  0  0  0  0
    5.5390  -16.1740    9.0720 O   0  0  0  0  0  0
    6.1970  -19.4550    8.6080 C   0  0  0  0  0  0
    7.0680  -20.6770    8.2230 C   0  0  0  0  0  0
    6.6860  -21.3130    6.8410 C   0  0  0  0  0  0
    8.5820  -20.3670    8.3370 C   0  0  0  0  0  0
    3.7650  -17.5390    8.9490 N   0  0  0  0  0  0
    2.9990  -18.7560    8.5760 C   0  0  2  0  0  0
    3.8130  -20.0420    8.2650 C   0  0  0  0  0  0
    3.3430  -20.9970    7.6310 O   0  0  0  0  0  0
    1.9980  -18.4020    7.4570 C   0  0  0  0  0  0
    2.6330  -18.0690    6.1090 C   0  0  0  0  0  0
    2.1200  -16.7560    5.5600 C   0  0  0  0  0  0
    3.1790  -16.0770    4.8130 N   0  0  0  0  0  0
    3.2420  -14.7640    4.6110 C   0  0  0  0  0  0
    2.3040  -13.9520    5.0910 N   0  0  0  0  0  0
    4.2600  -14.2600    3.9300 N   0  0  0  0  0  0
    5.0681  -20.1212    8.6978 O   0  0  0  0  0  0
   20.1066  -16.5165   14.2149 H   0  0  0  0  0  0
   19.6800  -15.6637   15.7372 H   0  0  0  0  0  0
   19.8474  -14.7390   14.2064 H   0  0  0  0  0  0
   17.8098  -16.8523   14.8381 H   0  0  0  0  0  0
   17.8733  -13.8389   14.9665 H   0  0  0  0  0  0
   16.3674  -14.6097   14.3624 H   0  0  0  0  0  0
   16.0884  -15.8062   16.4346 H   0  0  0  0  0  0
   17.6723  -15.2117   17.0382 H   0  0  0  0  0  0
   16.7542  -13.2815   17.7537 H   0  0  0  0  0  0
   15.9702  -12.9897   16.1641 H   0  0  0  0  0  0
   13.8968  -13.8782   16.9636 H   0  0  0  0  0  0
   16.6610  -14.3659   19.3134 H   0  0  0  0  0  0
   15.4452  -14.8503   20.6980 H   0  0  0  0  0  0
   12.5275  -14.4166   18.5822 H   0  0  0  0  0  0
   16.0401  -16.9154   13.2287 H   0  0  0  0  0  0
   17.3644  -16.5690   10.5443 H   0  0  0  0  0  0
   15.0231  -17.8173    9.8770 H   0  0  0  0  0  0
   16.4857  -18.7021   10.4289 H   0  0  0  0  0  0
   16.2514  -18.9300   13.6186 H   0  0  0  0  0  0
   12.1560  -19.7933   13.0220 H   0  0  0  0  0  0
   15.9041  -16.0281    8.6707 H   0  0  0  0  0  0
   15.0002  -13.4430    9.5330 H   0  0  0  0  0  0
   16.2755  -13.7295    7.3410 H   0  0  0  0  0  0
   14.9063  -14.6734    6.6619 H   0  0  0  0  0  0
   13.6481  -12.7844    6.2066 H   0  0  0  0  0  0
   14.3337  -11.8534    7.5813 H   0  0  0  0  0  0
   16.5443  -11.9724    6.1494 H   0  0  0  0  0  0
   15.3933  -12.2545    4.7995 H   0  0  0  0  0  0
   14.4676  -10.0195    5.0526 H   0  0  0  0  0  0
   17.0620  -10.8775    7.4704 H   0  0  0  0  0  0
   14.7441   -7.9082    5.6165 H   0  0  0  0  0  0
   16.0323   -7.4338    6.9377 H   0  0  0  0  0  0
   12.8934  -16.2561    8.9385 H   0  0  0  0  0  0
   11.0283  -14.1091    9.4193 H   0  0  0  0  0  0
   10.0400  -16.9759    9.5277 H   0  0  0  0  0  0
   10.6856  -16.0150   10.9012 H   0  0  0  0  0  0
    8.8442  -14.2548    9.7700 H   0  0  0  0  0  0
    8.0402  -15.8422    9.5246 H   0  0  0  0  0  0
    9.1314  -15.5122   12.2244 H   0  0  0  0  0  0
    7.9148  -14.2670   11.7817 H   0  0  0  0  0  0
    6.7076  -16.5211   10.7842 H   0  0  0  0  0  0
    7.5966  -17.2147   12.1825 H   0  0  0  0  0  0
    5.4315  -14.3187   11.3906 H   0  0  0  0  0  0
    6.5105  -13.8039   12.7312 H   0  0  0  0  0  0
    4.8047  -14.2513   13.0726 H   0  0  0  0  0  0
    4.6596  -16.5890   11.3097 H   0  0  0  0  0  0
    4.1045  -16.4296   13.0107 H   0  0  0  0  0  0
    5.2157  -17.7636   12.5498 H   0  0  0  0  0  0
    7.2885  -15.4419   14.3277 H   0  0  0  0  0  0
    6.6752  -17.1273   14.2268 H   0  0  0  0  0  0
    5.5640  -15.7932   14.6876 H   0  0  0  0  0  0
   10.0823  -17.0565    7.4586 H   0  0  0  0  0  0
    8.2492  -15.0382    6.2607 H   0  0  0  0  0  0
    9.2800  -17.0194    4.1673 H   0  0  0  0  0  0
    7.3040  -15.5131    3.7017 H   0  0  0  0  0  0
    8.6933  -15.1681    2.6165 H   0  0  0  0  0  0
    8.3502  -14.0854    4.0081 H   0  0  0  0  0  0
   11.3508  -16.0468    5.1147 H   0  0  0  0  0  0
   10.7058  -14.3948    4.8296 H   0  0  0  0  0  0
   11.0489  -15.4775    3.4379 H   0  0  0  0  0  0
    7.9019  -17.2026    8.2838 H   0  0  0  0  0  0
    5.4593  -18.4296    6.8242 H   0  0  0  0  0  0
    6.6772  -19.1886    9.5611 H   0  0  0  0  0  0
    5.2464  -19.9712    8.8080 H   0  0  0  0  0  0
    6.8445  -21.4441    8.9790 H   0  0  0  0  0  0
    5.6044  -21.5115    6.8152 H   0  0  0  0  0  0
    7.2353  -22.2566    6.7073 H   0  0  0  0  0  0
    6.9504  -20.6169    6.0314 H   0  0  0  0  0  0
    8.7925  -19.9245    9.3218 H   0  0  0  0  0  0
    8.8716  -19.6584    7.5471 H   0  0  0  0  0  0
    9.1565  -21.2981    8.2230 H   0  0  0  0  0  0
    3.2956  -16.7629    9.5713 H   0  0  0  0  0  0
    2.4847  -19.0091    9.5148 H   0  0  0  0  0  0
    1.3224  -19.2532    7.2867 H   0  0  0  0  0  0
    1.4103  -17.5215    7.7558 H   0  0  0  0  0  0
    3.7241  -17.9932    6.2264 H   0  0  0  0  0  0
    2.3963  -18.8634    5.3859 H   0  0  0  0  0  0
    1.2694  -16.9464    4.8891 H   0  0  0  0  0  0
    1.7946  -16.1131    6.3912 H   0  0  0  0  0  0
    4.0006  -16.6597    4.3708 H   0  0  0  0  0  0
    1.4563  -14.3650    5.6573 H   0  0  0  0  0  0
    2.3761  -12.8675    4.9216 H   0  0  0  0  0  0
    5.0385  -14.9267    3.5308 H   0  0  0  0  0  0
    5.6656  -21.0212    8.4906 H   0  0  0  0  0  0
  1  2  1  0  0  0
  1 72  1  0  0  0
  1 73  1  0  0  0
  1 74  1  0  0  0
  2  3  1  0  0  0
  2  5  1  0  0  0
  2 75  1  0  0  0
  3  4  2  0  0  0
  3 12  1  0  0  0
  5  6  1  0  0  0
  5 76  1  0  0  0
  5 77  1  0  0  0
  6  7  1  0  0  0
  6 78  1  0  0  0
  6 79  1  0  0  0
  7  8  1  0  0  0
  7 80  1  0  0  0
  7 81  1  0  0  0
  8  9  1  0  0  0
  8 82  1  0  0  0
  9 10  1  0  0  0
  9 11  2  0  0  0
 10 83  1  0  0  0
 10 84  1  0  0  0
 11 85  1  0  0  0
 12 13  1  0  0  0
 12 86  1  0  0  0
 13 14  1  0  0  0
 13 16  1  0  0  0
 13 87  1  0  0  0
 14 15  2  0  0  0
 14 22  1  0  0  0
 16 17  1  0  0  0
 16 88  1  0  0  0
 16 89  1  0  0  0
 17 18  2  0  0  0
 17 19  1  0  0  0
 18 20  1  0  0  0
 19 21  2  0  0  0
 19 90  1  0  0  0
 20 21  1  0  0  0
 20 91  1  0  0  0
 22 23  1  0  0  0
 22 92  1  0  0  0
 23 24  1  0  0  0
 23 26  1  0  0  0
 23 93  1  0  0  0
 24 25  2  0  0  0
 24 33  1  0  0  0
 26 27  1  0  0  0
 26 94  1  0  0  0
 26 95  1  0  0  0
 27 28  1  0  0  0
 27 96  1  0  0  0
 27 97  1  0  0  0
 28 29  1  0  0  0
 28 98  1  0  0  0
 28 99  1  0  0  0
 29 30  1  0  0  0
 29100  1  0  0  0
 30 31  2  0  0  0
 30 32  1  0  0  0
 31101  1  0  0  0
 32102  1  0  0  0
 32103  1  0  0  0
 33 34  1  0  0  0
 33104  1  0  0  0
 34 35  1  0  0  0
 34 40  1  0  0  0
 34105  1  0  0  0
 35 36  1  0  0  0
 35106  1  0  0  0
 35107  1  0  0  0
 36 37  1  0  0  0
 36108  1  0  0  0
 36109  1  0  0  0
 37 38  1  0  0  0
 37110  1  0  0  0
 37111  1  0  0  0
 38 39  1  0  0  0
 38112  1  0  0  0
 38113  1  0  0  0
 39 42  1  0  0  0
 39 43  1  0  0  0
 39 44  1  0  0  0
 40 41  2  0  0  0
 40 45  1  0  0  0
 42114  1  0  0  0
 42115  1  0  0  0
 42116  1  0  0  0
 43117  1  0  0  0
 43118  1  0  0  0
 43119  1  0  0  0
 44120  1  0  0  0
 44121  1  0  0  0
 44122  1  0  0  0
 45 46  1  0  0  0
 45123  1  0  0  0
 46 47  1  0  0  0
 46 49  1  0  0  0
 46124  1  0  0  0
 47 48  2  0  0  0
 47 52  1  0  0  0
 49 50  1  0  0  0
 49 51  1  0  0  0
 49125  1  0  0  0
 50126  1  0  0  0
 50127  1  0  0  0
 50128  1  0  0  0
 51129  1  0  0  0
 51130  1  0  0  0
 51131  1  0  0  0
 52 53  1  0  0  0
 52132  1  0  0  0
 53 54  1  0  0  0
 53 56  1  0  0  0
 53133  1  0  0  0
 54 55  2  0  0  0
 54 60  1  0  0  0
 56 57  1  0  0  0
 56134  1  0  0  0
 56135  1  0  0  0
 57 58  1  0  0  0
 57 59  1  0  0  0
 57136  1  0  0  0
 58137  1  0  0  0
 58138  1  0  0  0
 58139  1  0  0  0
 59140  1  0  0  0
 59141  1  0  0  0
 59142  1  0  0  0
 60 61  1  0  0  0
 60143  1  0  0  0
 61 62  1  0  0  0
 61 64  1  0  0  0
 61144  1  0  0  0
 62 63  2  0  0  0
 62 71  1  0  0  0
 64 65  1  0  0  0
 64145  1  0  0  0
 64146  1  0  0  0
 65 66  1  0  0  0
 65147  1  0  0  0
 65148  1  0  0  0
 66 67  1  0  0  0
 66149  1  0  0  0
 66150  1  0  0  0
 67 68  1  0  0  0
 67151  1  0  0  0
 68 69  1  0  0  0
 68 70  2  0  0  0
 69152  1  0  0  0
 69153  1  0  0  0
 70154  1  0  0  0
 71155  1  0  0  0
M  CHG  2   1   1  39   1
M  END
> <s_m_source_file>
../2qqs_ligand.sdf

> <i_m_source_file_index>
1

> <s_epik_input>
W0hdL049QyhbTkgyXSlcW05IXVtDSDJdW0NIMl1bQ0gyXVtDQEhdKFtOSDMrXSlDKD1PKVtOSF1bQ0BASF0oW0NIMl1DMT1OW0NIMl1OPVtDSF0xKUMoPU8pW05IXVtDQEBIXShbQ0gyXVtDSDJdW0NIMl1bTkhdL0MoPU5cW0hdKVtOSDJdKUMoPU8pW05IXVtDQEhdKFtDSDJdW0NIMl1bQ0gyXVtDSDJdW04rXShbQ0gzXSkoW0NIM10pW0NIM10pQyg9TylbTkhdW0NAQEhdKFtDSF0oW0NIM10pW0NIM10pQyg9TylbTkhdW0NAQEhdKFtDSDJdW0NIXShbQ0gzXSlbQ0gzXSlDKD1PKVtOSF1bQ0BIXShDKD1PKVtPSF0pW0NIMl1bQ0gyXVtDSDJdW05IXS9DKFtOSDJdKT1OXFtIXQ==

> <s_epik_cmdline>
J2VwaWtfYXBwJywgJy1pbWFlJywgJ2xpZ2FuZF9wcm8ubWFlJywgJy1vbWFlJywgJ2xpZ2FuZF9wcmVwLm1hZScsICctbXMnLCAnMScsICctcGgnLCAnNycsICctcGh0JywgJzAuNScsICctbnQn

> <s_epik_pKa_notes>
Molecule size exceeds maximum supported for generating protonation states

> <s_epik_Chemistry_Notes>
This compound has an imine and may undergo hydrolysis.

$$$$
