2qrg_ligand
                    3D
 Schrodinger Suite 2020-3.
 42 44  0  0  1  0            999 V2000
   37.2640   26.6140   35.0690 C   0  0  0  0  0  0
   37.9810   26.0510   33.9560 O   0  0  0  0  0  0
   37.1670   25.5740   32.9600 C   0  0  0  0  0  0
   37.7550   25.0240   31.8220 C   0  0  0  0  0  0
   36.9620   24.5260   30.7830 C   0  0  0  0  0  0
   35.7670   25.6230   33.0530 C   0  0  0  0  0  0
   34.9750   25.1210   32.0150 C   0  0  0  0  0  0
   35.5710   24.5660   30.8780 C   0  0  0  0  0  0
   34.7850   24.0860   29.8200 C   0  0  0  0  0  0
   35.2840   23.3430   28.5820 C   0  0  0  0  0  0
   33.4700   24.2530   29.6950 N   0  0  0  0  0  0
   32.9520   23.6970   28.4860 O   0  0  0  0  0  0
   33.9930   22.9180   27.8760 C   0  0  2  0  0  0
   33.7750   21.5110   28.1170 O   0  0  0  0  0  0
   32.5500   20.9950   27.5300 C   0  0  2  0  0  0
   32.4080   19.5330   27.9740 C   0  0  0  0  0  0
   33.4000   18.7350   27.3090 O   0  0  0  0  0  0
   32.5900   21.1640   25.9950 C   0  0  1  0  0  0
   31.3630   20.6960   25.4160 O   0  0  0  0  0  0
   32.8400   22.6280   25.6070 C   0  0  2  0  0  0
   33.0610   22.7310   24.1940 O   0  0  0  0  0  0
   34.0610   23.1980   26.3570 C   0  0  1  0  0  0
   34.1640   24.6070   26.1110 O   0  0  0  0  0  0
   37.9802   26.9731   35.8227 H   0  0  0  0  0  0
   36.6170   25.8445   35.5153 H   0  0  0  0  0  0
   36.6466   27.4548   34.7199 H   0  0  0  0  0  0
   38.8412   24.9817   31.7412 H   0  0  0  0  0  0
   37.4332   24.1047   29.8950 H   0  0  0  0  0  0
   35.2958   26.0535   33.9366 H   0  0  0  0  0  0
   33.8886   25.1626   32.0926 H   0  0  0  0  0  0
   35.8932   24.0222   27.9675 H   0  0  0  0  0  0
   35.8945   22.4822   28.8922 H   0  0  0  0  0  0
   31.7014   21.5822   27.9109 H   0  0  0  0  0  0
   32.5506   19.4649   29.0626 H   0  0  0  0  0  0
   31.4047   19.1660   27.7120 H   0  0  0  0  0  0
   33.4553   17.6534   27.5015 H   0  0  0  0  0  0
   33.3731   20.5272   25.5576 H   0  0  0  0  0  0
   31.0299   19.6628   25.5938 H   0  0  0  0  0  0
   31.9399   23.2253   25.8147 H   0  0  0  0  0  0
   32.2951   22.3734   23.4900 H   0  0  0  0  0  0
   34.9852   22.7624   25.9494 H   0  0  0  0  0  0
   34.9800   25.1867   26.5671 H   0  0  0  0  0  0
  1  2  1  0  0  0
  1 24  1  0  0  0
  1 25  1  0  0  0
  1 26  1  0  0  0
  2  3  1  0  0  0
  3  4  2  0  0  0
  3  6  1  0  0  0
  4  5  1  0  0  0
  4 27  1  0  0  0
  5  8  2  0  0  0
  5 28  1  0  0  0
  6  7  2  0  0  0
  6 29  1  0  0  0
  7  8  1  0  0  0
  7 30  1  0  0  0
  8  9  1  0  0  0
  9 10  1  0  0  0
  9 11  2  0  0  0
 10 13  1  0  0  0
 10 31  1  0  0  0
 10 32  1  0  0  0
 11 12  1  0  0  0
 12 13  1  0  0  0
 13 14  1  0  0  0
 13 22  1  0  0  0
 14 15  1  0  0  0
 15 16  1  0  0  0
 15 18  1  0  0  0
 15 33  1  0  0  0
 16 17  1  0  0  0
 16 34  1  0  0  0
 16 35  1  0  0  0
 17 36  1  0  0  0
 18 19  1  0  0  0
 18 20  1  0  0  0
 18 37  1  0  0  0
 19 38  1  0  0  0
 20 21  1  0  0  0
 20 22  1  0  0  0
 20 39  1  0  0  0
 21 40  1  0  0  0
 22 23  1  0  0  0
 22 41  1  0  0  0
 23 42  1  0  0  0
M  END
> <s_m_source_file>
../2qrg_ligand.sdf

> <i_m_source_file_index>
1

> <s_epik_input>
W0NIM11PYzFbY0hdW2NIXWMoW2NIXVtjSF0xKUMoPU5PMilbQ0gyXVtDQEBdMjNPW0NASF0oW0NIMl1bT0hdKVtDQEBIXShbT0hdKVtDQEhdKFtPSF0pW0NASF0zW09IXQ==

> <s_epik_cmdline>
J2VwaWtfYXBwJywgJy1pbWFlJywgJ2xpZ2FuZF9wcm8ubWFlJywgJy1vbWFlJywgJ2xpZ2FuZF9wcmVwLm1hZScsICctbXMnLCAnMScsICctcGgnLCAnNycsICctcGh0JywgJzAuNScsICctbnQn

> <r_lp_tautomer_probability>
1

> <r_epik_Ionization_Penalty>
  0.0000

> <r_epik_Ionization_Penalty_Charging>
  0.0000

> <r_epik_Ionization_Penalty_Neutral>
  0.0000

> <r_epik_State_Penalty>
 -0.0000

> <r_epik_Charging_Adjusted_Penalty>
0

> <i_epik_Tot_Q>
0

> <i_epik_Tot_abs_Q>
0

> <s_epik_Chemistry_Notes>
This compound has an imine and may undergo hydrolysis.

$$$$
