2qrk_ligand
                    3D
 Schrodinger Suite 2020-3.
 35 37  0  0  1  0            999 V2000
   29.8420    4.0540    6.9800 P   0  0  0  0  0  0
   29.9870    5.4360    6.3680 O   0  0  0  0  0  0
   30.0090    2.9770    5.9210 O   0  5  0  0  0  0
   28.6270    3.8520    7.8920 O   0  5  0  0  0  0
   31.1640    3.9620    7.8720 O   0  0  0  0  0  0
   31.5930    2.7450    8.4380 C   0  0  0  0  0  0
   32.4570    3.1390    9.6170 C   0  0  1  0  0  0
   32.7240    1.9210   10.2950 O   0  0  0  0  0  0
   33.7850    3.7790    9.2270 C   0  0  1  0  0  0
   34.1090    4.8530   10.1280 O   0  0  0  0  0  0
   34.7560    2.6210    9.4080 C   0  0  1  0  0  0
   36.1070    3.0170    9.6900 O   0  0  0  0  0  0
   34.1100    1.8940   10.5770 C   0  0  2  0  0  0
   34.5730    0.4950   10.6840 N   0  0  0  0  0  0
   34.8010   -0.3670    9.6580 C   0  0  0  0  0  0
   35.2330   -1.5620   10.1430 N   0  0  0  0  0  0
   35.2760   -1.4480   11.4970 C   0  0  0  0  0  0
   35.6520   -2.3270   12.6220 C   0  0  0  0  0  0
   36.0800   -3.5960   12.3500 N   0  0  0  0  0  0
   35.5690   -1.8190   13.8850 N   0  0  0  0  0  0
   35.1600   -0.5480   14.1470 C   0  0  0  0  0  0
   34.8010    0.3120   13.1580 N   0  0  0  0  0  0
   34.8470   -0.0830   11.8530 C   0  0  0  0  0  0
   30.7175    2.1597    8.7558 H   0  0  0  0  0  0
   32.1641    2.1743    7.6909 H   0  0  0  0  0  0
   31.9237    3.8482   10.2671 H   0  0  0  0  0  0
   33.8071    4.2644    8.2401 H   0  0  0  0  0  0
   33.5040    5.7717   10.1288 H   0  0  0  0  0  0
   34.9462    2.0298    8.5001 H   0  0  0  0  0  0
   36.6932    3.5531    8.9291 H   0  0  0  0  0  0
   34.3110    2.3619   11.5520 H   0  0  0  0  0  0
   34.6587   -0.1348    8.6026 H   0  0  0  0  0  0
   36.1255   -3.9499   11.3095 H   0  0  0  0  0  0
   36.3790   -4.2636   13.1716 H   0  0  0  0  0  0
   35.1191   -0.2092   15.1822 H   0  0  0  0  0  0
  1  2  2  0  0  0
  1  3  1  0  0  0
  1  4  1  0  0  0
  1  5  1  0  0  0
  5  6  1  0  0  0
  6  7  1  0  0  0
  6 24  1  0  0  0
  6 25  1  0  0  0
  7  8  1  0  0  0
  7  9  1  0  0  0
  7 26  1  0  0  0
  8 13  1  0  0  0
  9 10  1  0  0  0
  9 11  1  0  0  0
  9 27  1  0  0  0
 10 28  1  0  0  0
 11 12  1  0  0  0
 11 13  1  0  0  0
 11 29  1  0  0  0
 12 30  1  0  0  0
 13 14  1  0  0  0
 13 31  1  0  0  0
 14 15  1  0  0  0
 14 23  1  0  0  0
 15 16  2  0  0  0
 15 32  1  0  0  0
 16 17  1  0  0  0
 17 18  2  0  0  0
 17 23  1  0  0  0
 18 19  1  0  0  0
 18 20  1  0  0  0
 19 33  1  0  0  0
 19 34  1  0  0  0
 20 21  2  0  0  0
 21 22  1  0  0  0
 21 35  1  0  0  0
 22 23  2  0  0  0
M  CHG  2   3  -1   4  -1
M  END
> <s_m_source_file>
../2qrk_ligand.sdf

> <i_m_source_file_index>
1

> <s_epik_input>
Tz1QKFtPSF0pKFtPSF0pT1tDSDJdW0NASF0xT1tDQEhdKFtDQEhdKFtPSF0pW0NAQEhdMVtPSF0pbihbY0hdbjIpYyhjMjMpbltjSF1uYzNbTkgyXQ==

> <s_epik_cmdline>
J2VwaWtfYXBwJywgJy1pbWFlJywgJ2xpZ2FuZF9wcm8ubWFlJywgJy1vbWFlJywgJ2xpZ2FuZF9wcmVwLm1hZScsICctbXMnLCAnMScsICctcGgnLCAnNycsICctcGh0JywgJzAuNScsICctbnQn

> <r_lp_tautomer_probability>
0.999997216410988

> <r_epik_Ionization_Penalty>
  0.1025

> <r_epik_Ionization_Penalty_Charging>
  0.1020

> <r_epik_Ionization_Penalty_Neutral>
  0.0004

> <r_epik_State_Penalty>
  0.0920

> <r_epik_Charging_Adjusted_Penalty>
0.194024004396068

> <i_epik_Tot_Q>
-2

> <i_epik_Tot_abs_Q>
2

> <s_epik_Chemistry_Notes>
This compound contains an acetal/aminal-like group ( X-CH(R)-Y where X, Y are N, S, or O) that may be acid/base labile, releasing an aldehyde.

$$$$
