2qrq_ligand
                    3D
 Schrodinger Suite 2020-3.
 41 43  0  0  1  0            999 V2000
   36.1830   24.3820   30.5880 C   0  0  0  0  0  0
   36.8720   24.8340   31.7180 C   0  0  0  0  0  0
   36.1690   25.1700   32.8760 C   0  0  0  0  0  0
   36.9190   25.6700   34.1180 C   0  0  0  0  0  0
   34.7840   25.0400   32.9140 C   0  0  0  0  0  0
   34.0970   24.5900   31.7840 C   0  0  0  0  0  0
   34.7930   24.2510   30.6210 C   0  0  0  0  0  0
   34.0920   23.8180   29.4920 C   0  0  0  0  0  0
   34.6730   23.1140   28.2650 C   0  0  0  0  0  0
   32.7880   23.9840   29.2900 N   0  0  0  0  0  0
   32.3570   23.4600   28.0260 O   0  0  0  0  0  0
   33.4330   22.6820   27.4820 C   0  0  2  0  0  0
   33.1850   21.2790   27.7170 O   0  0  0  0  0  0
   31.9990   20.7720   27.0420 C   0  0  2  0  0  0
   31.8590   19.3100   27.4690 C   0  0  0  0  0  0
   32.9300   18.5450   26.9100 O   0  0  0  0  0  0
   32.1420   20.9370   25.5180 C   0  0  1  0  0  0
   30.9640   20.4610   24.8430 O   0  0  0  0  0  0
   32.4090   22.4070   25.1530 C   0  0  2  0  0  0
   32.6890   22.5110   23.7530 O   0  0  0  0  0  0
   33.5950   22.9670   25.9670 C   0  0  1  0  0  0
   33.7220   24.3740   25.7390 O   0  0  0  0  0  0
   36.7318   24.1316   29.6801 H   0  0  0  0  0  0
   37.9580   24.9239   31.6944 H   0  0  0  0  0  0
   37.9974   25.7086   33.9043 H   0  0  0  0  0  0
   36.7359   24.9836   34.9579 H   0  0  0  0  0  0
   36.5613   26.6761   34.3820 H   0  0  0  0  0  0
   34.2366   25.2887   33.8232 H   0  0  0  0  0  0
   33.0108   24.5028   31.8098 H   0  0  0  0  0  0
   35.3003   23.8194   27.7003 H   0  0  0  0  0  0
   35.2836   22.2580   28.5882 H   0  0  0  0  0  0
   31.1204   21.3558   27.3538 H   0  0  0  0  0  0
   31.8950   19.2435   28.5664 H   0  0  0  0  0  0
   30.8983   18.9132   27.1089 H   0  0  0  0  0  0
   32.9969   17.4652   27.1089 H   0  0  0  0  0  0
   32.9553   20.2974   25.1445 H   0  0  0  0  0  0
   30.6259   19.4248   24.9914 H   0  0  0  0  0  0
   31.5066   23.0136   25.3193 H   0  0  0  0  0  0
   31.9514   22.1587   23.0169 H   0  0  0  0  0  0
   34.5376   22.5332   25.6019 H   0  0  0  0  0  0
   34.5187   24.9428   26.2408 H   0  0  0  0  0  0
  1  2  2  0  0  0
  1  7  1  0  0  0
  1 23  1  0  0  0
  2  3  1  0  0  0
  2 24  1  0  0  0
  3  4  1  0  0  0
  3  5  2  0  0  0
  4 25  1  0  0  0
  4 26  1  0  0  0
  4 27  1  0  0  0
  5  6  1  0  0  0
  5 28  1  0  0  0
  6  7  2  0  0  0
  6 29  1  0  0  0
  7  8  1  0  0  0
  8  9  1  0  0  0
  8 10  2  0  0  0
  9 12  1  0  0  0
  9 30  1  0  0  0
  9 31  1  0  0  0
 10 11  1  0  0  0
 11 12  1  0  0  0
 12 13  1  0  0  0
 12 21  1  0  0  0
 13 14  1  0  0  0
 14 15  1  0  0  0
 14 17  1  0  0  0
 14 32  1  0  0  0
 15 16  1  0  0  0
 15 33  1  0  0  0
 15 34  1  0  0  0
 16 35  1  0  0  0
 17 18  1  0  0  0
 17 19  1  0  0  0
 17 36  1  0  0  0
 18 37  1  0  0  0
 19 20  1  0  0  0
 19 21  1  0  0  0
 19 38  1  0  0  0
 20 39  1  0  0  0
 21 22  1  0  0  0
 21 40  1  0  0  0
 22 41  1  0  0  0
M  END
> <s_m_source_file>
../2qrq_ligand.sdf

> <i_m_source_file_index>
1

> <s_epik_input>
W0NIM11jMVtjSF1bY0hdYyhbY0hdW2NIXTEpQyg9Tk8yKVtDSDJdW0NAQF0yM09bQ0BIXShbQ0gyXVtPSF0pW0NAQEhdKFtPSF0pW0NASF0oW09IXSlbQ0BIXTNbT0hd

> <s_epik_cmdline>
J2VwaWtfYXBwJywgJy1pbWFlJywgJ2xpZ2FuZF9wcm8ubWFlJywgJy1vbWFlJywgJ2xpZ2FuZF9wcmVwLm1hZScsICctbXMnLCAnMScsICctcGgnLCAnNycsICctcGh0JywgJzAuNScsICctbnQn

> <r_lp_tautomer_probability>
1

> <r_epik_Ionization_Penalty>
  0.0000

> <r_epik_Ionization_Penalty_Charging>
  0.0000

> <r_epik_Ionization_Penalty_Neutral>
  0.0000

> <r_epik_State_Penalty>
 -0.0000

> <r_epik_Charging_Adjusted_Penalty>
0

> <i_epik_Tot_Q>
0

> <i_epik_Tot_abs_Q>
0

> <s_epik_Chemistry_Notes>
This compound has an imine and may undergo hydrolysis.

$$$$
