2qry_ligand
                    3D
 Schrodinger Suite 2020-3.
 38 39  0  0  1  0            999 V2000
    9.8580   44.3530  109.6850 C   0  0  0  0  0  0
    7.6780   50.3510  111.2580 N   0  3  0  0  0  0
    8.9510   50.3080  110.9180 C   0  0  0  0  0  0
    9.4980   51.9300  111.1200 S   0  0  0  0  0  0
    7.9700   52.6320  111.6710 C   0  0  0  0  0  0
    7.1330   51.5370  111.6510 C   0  0  0  0  0  0
    5.6710   51.6690  112.0630 C   0  0  0  0  0  0
    7.7930   54.0720  112.0390 C   0  0  0  0  0  0
    9.1690   54.6330  111.6800 C   0  0  0  0  0  0
    9.3320   56.0150  111.9740 O   0  0  0  0  0  0
    8.8200   45.8370  111.3500 N   0  0  0  0  0  0
    9.0710   45.5870  110.0620 C   0  0  0  0  0  0
    8.6410   46.4090  109.1070 N   0  0  0  0  0  0
    7.9370   47.5230  109.4020 C   0  0  0  0  0  0
    7.5070   48.3610  108.3890 N   0  0  0  0  0  0
    7.6490   47.8250  110.7710 C   0  0  0  0  0  0
    8.1280   46.9210  111.7340 C   0  0  0  0  0  0
    6.8550   49.0780  111.2130 C   0  0  0  0  0  0
   10.8320   56.4040  111.5150 P   0  0  0  0  0  0
   11.8480   55.4540  112.2090 O   0  5  0  0  0  0
   11.1520   57.9240  111.8200 O   0  5  0  0  0  0
   10.9410   56.1890  109.9900 O   0  0  0  0  0  0
   10.1277   43.7978  110.5955 H   0  0  0  0  0  0
   10.7733   44.6504  109.1522 H   0  0  0  0  0  0
    9.2458   43.7127  109.0329 H   0  0  0  0  0  0
    9.5262   49.4440  110.5852 H   0  0  0  0  0  0
    5.1765   50.6901  111.9786 H   0  0  0  0  0  0
    5.1681   52.3919  111.4038 H   0  0  0  0  0  0
    5.6137   52.0203  113.1038 H   0  0  0  0  0  0
    6.9734   54.5039  111.4460 H   0  0  0  0  0  0
    7.5517   54.1499  113.1094 H   0  0  0  0  0  0
    9.9439   54.0908  112.2417 H   0  0  0  0  0  0
    9.3448   54.5105  110.6011 H   0  0  0  0  0  0
    7.7345   48.1182  107.3405 H   0  0  0  0  0  0
    6.9375   49.2702  108.6319 H   0  0  0  0  0  0
    7.9377   47.0999  112.7923 H   0  0  0  0  0  0
    6.4504   48.8674  112.2140 H   0  0  0  0  0  0
    6.0257   49.2025  110.5011 H   0  0  0  0  0  0
  1 12  1  0  0  0
  1 23  1  0  0  0
  1 24  1  0  0  0
  1 25  1  0  0  0
  2  3  2  0  0  0
  2  6  1  0  0  0
  2 18  1  0  0  0
  3  4  1  0  0  0
  3 26  1  0  0  0
  4  5  1  0  0  0
  5  6  2  0  0  0
  5  8  1  0  0  0
  6  7  1  0  0  0
  7 27  1  0  0  0
  7 28  1  0  0  0
  7 29  1  0  0  0
  8  9  1  0  0  0
  8 30  1  0  0  0
  8 31  1  0  0  0
  9 10  1  0  0  0
  9 32  1  0  0  0
  9 33  1  0  0  0
 10 19  1  0  0  0
 11 12  2  0  0  0
 11 17  1  0  0  0
 12 13  1  0  0  0
 13 14  2  0  0  0
 14 15  1  0  0  0
 14 16  1  0  0  0
 15 34  1  0  0  0
 15 35  1  0  0  0
 16 17  2  0  0  0
 16 18  1  0  0  0
 17 36  1  0  0  0
 18 37  1  0  0  0
 18 38  1  0  0  0
 19 20  1  0  0  0
 19 21  1  0  0  0
 19 22  2  0  0  0
M  CHG  3   2   1  20  -1  21  -1
M  END
> <s_m_source_file>
../2qry_ligand.sdf

> <i_m_source_file_index>
1

> <s_epik_input>
W0NIM11jMW5bY0hdYyhjKG4xKVtOSDJdKVtDSDJdW24rXTJbY0hdc2MoYzJbQ0gzXSlbQ0gyXVtDSDJdT1AoPU8pKFtPSF0pW09IXQ==

> <s_epik_cmdline>
J2VwaWtfYXBwJywgJy1pbWFlJywgJ2xpZ2FuZF9wcm8ubWFlJywgJy1vbWFlJywgJ2xpZ2FuZF9wcmVwLm1hZScsICctbXMnLCAnMScsICctcGgnLCAnNycsICctcGh0JywgJzAuNScsICctbnQn

> <r_lp_tautomer_probability>
1

> <r_epik_Ionization_Penalty>
  0.1372

> <r_epik_Ionization_Penalty_Charging>
  0.1137

> <r_epik_Ionization_Penalty_Neutral>
  0.0235

> <r_epik_State_Penalty>
 -0.0000

> <r_epik_Charging_Adjusted_Penalty>
0.113723817951911

> <i_epik_Tot_Q>
-1

> <i_epik_Tot_abs_Q>
3

$$$$
