2qt5_ligand
                    3D
 Schrodinger Suite 2020-3.
 55 54  0  0  1  0            999 V2000
    7.7610   25.6870    0.2540 N   0  3  0  0  0  0
    7.6030   24.9110    1.5200 C   0  0  0  0  0  0
    8.6570   25.2400    2.5600 C   0  0  0  0  0  0
    9.6320   25.9400    2.2730 O   0  0  0  0  0  0
    8.4710   24.7190    3.7690 N   0  0  0  0  0  0
    9.3880   24.9910    4.8790 C   0  0  2  0  0  0
    9.9550   23.6930    5.4550 C   0  0  0  0  0  0
    9.2210   22.7170    5.6540 O   0  0  0  0  0  0
    8.6800   25.7940    5.9930 C   0  0  2  0  0  0
    7.8960   26.8450    5.4070 O   0  0  0  0  0  0
    9.6890   26.3720    6.9910 C   0  0  0  0  0  0
   11.2600   23.6980    5.7220 N   0  0  0  0  0  0
   11.9490   22.5410    6.2840 C   0  0  2  0  0  0
   11.8140   22.4500    7.7980 C   0  0  0  0  0  0
   11.9580   23.4490    8.5140 O   0  0  0  0  0  0
   13.4370   22.5520    5.9090 C   0  0  0  0  0  0
   14.1760   21.2640    6.2970 C   0  0  0  0  0  0
   15.5940   21.1940    5.7530 C   0  0  0  0  0  0
   16.2810   22.2430    5.6890 O   0  5  0  0  0  0
   16.0280   20.0800    5.3910 O   0  0  0  0  0  0
   11.5420   21.2370    8.2720 N   0  0  0  0  0  0
   11.5150   20.9340    9.6990 C   0  0  2  0  0  0
   12.4770   19.7840   10.0020 C   0  0  0  0  0  0
   13.1510   19.2670    9.0970 O   0  5  0  0  0  0
   10.0810   20.6060   10.2110 C   0  0  0  0  0  0
    9.1640   21.8100   10.0370 C   0  0  0  0  0  0
    9.5050   19.3660    9.5050 C   0  0  0  0  0  0
   12.6010   19.3510   11.1520 O   0  0  0  0  0  0
    6.9681   25.4009   -0.4528 H   0  0  0  0  0  0
    8.7437   25.4690   -0.1895 H   0  0  0  0  0  0
    7.6875   26.7627    0.4717 H   0  0  0  0  0  0
    6.6203   25.1290    1.9635 H   0  0  0  0  0  0
    7.6765   23.8353    1.3023 H   0  0  0  0  0  0
    7.5986   24.0670    3.9235 H   0  0  0  0  0  0
   10.2020   25.5811    4.4328 H   0  0  0  0  0  0
    7.9624   25.1587    6.5329 H   0  0  0  0  0  0
    7.1201   26.6043    4.6653 H   0  0  0  0  0  0
   10.2801   25.5546    7.4297 H   0  0  0  0  0  0
    9.1512   26.9049    7.7890 H   0  0  0  0  0  0
   10.3599   27.0714    6.4706 H   0  0  0  0  0  0
   11.8203   24.6189    5.5030 H   0  0  0  0  0  0
   11.4238   21.6891    5.8276 H   0  0  0  0  0  0
   13.5400   22.6755    4.8208 H   0  0  0  0  0  0
   13.9382   23.3862    6.4217 H   0  0  0  0  0  0
   14.2389   21.1933    7.3929 H   0  0  0  0  0  0
   13.6284   20.3946    5.9043 H   0  0  0  0  0  0
   11.3319   20.4455    7.5376 H   0  0  0  0  0  0
   11.8653   21.8588   10.1807 H   0  0  0  0  0  0
   10.1266   20.3804   11.2866 H   0  0  0  0  0  0
    9.5995   22.6798   10.5506 H   0  0  0  0  0  0
    8.1777   21.5851   10.4689 H   0  0  0  0  0  0
    9.0527   22.0344    8.9659 H   0  0  0  0  0  0
   10.1861   18.5139    9.6468 H   0  0  0  0  0  0
    9.3961   19.5735    8.4302 H   0  0  0  0  0  0
    8.5211   19.1242    9.9333 H   0  0  0  0  0  0
  1  2  1  0  0  0
  1 29  1  0  0  0
  1 30  1  0  0  0
  1 31  1  0  0  0
  2  3  1  0  0  0
  2 32  1  0  0  0
  2 33  1  0  0  0
  3  4  2  0  0  0
  3  5  1  0  0  0
  5  6  1  0  0  0
  5 34  1  0  0  0
  6  7  1  0  0  0
  6  9  1  0  0  0
  6 35  1  0  0  0
  7  8  2  0  0  0
  7 12  1  0  0  0
  9 10  1  0  0  0
  9 11  1  0  0  0
  9 36  1  0  0  0
 10 37  1  0  0  0
 11 38  1  0  0  0
 11 39  1  0  0  0
 11 40  1  0  0  0
 12 13  1  0  0  0
 12 41  1  0  0  0
 13 14  1  0  0  0
 13 16  1  0  0  0
 13 42  1  0  0  0
 14 15  2  0  0  0
 14 21  1  0  0  0
 16 17  1  0  0  0
 16 43  1  0  0  0
 16 44  1  0  0  0
 17 18  1  0  0  0
 17 45  1  0  0  0
 17 46  1  0  0  0
 18 19  1  0  0  0
 18 20  2  0  0  0
 21 22  1  0  0  0
 21 47  1  0  0  0
 22 23  1  0  0  0
 22 25  1  0  0  0
 22 48  1  0  0  0
 23 24  1  0  0  0
 23 28  2  0  0  0
 25 26  1  0  0  0
 25 27  1  0  0  0
 25 49  1  0  0  0
 26 50  1  0  0  0
 26 51  1  0  0  0
 26 52  1  0  0  0
 27 53  1  0  0  0
 27 54  1  0  0  0
 27 55  1  0  0  0
M  CHG  3   1   1  19  -1  24  -1
M  END
> <s_m_source_file>
../2qt5_ligand.sdf

> <i_m_source_file_index>
1

> <s_epik_input>
W05IMytdW0NIMl1DKD1PKVtOSF1bQ0BASF0oW0NASF0oW09IXSlbQ0gzXSlDKD1PKVtOSF1bQ0BASF0oW0NIMl1bQ0gyXUMoPU8pW09IXSlDKD1PKVtOSF1bQ0BIXShDKD1PKVtPSF0pW0NIXShbQ0gzXSlbQ0gzXQ==

> <s_epik_cmdline>
J2VwaWtfYXBwJywgJy1pbWFlJywgJ2xpZ2FuZF9wcm8ubWFlJywgJy1vbWFlJywgJ2xpZ2FuZF9wcmVwLm1hZScsICctbXMnLCAnMScsICctcGgnLCAnNycsICctcGh0JywgJzAuNScsICctbnQn

> <r_epik_Ionization_Penalty>
  0.1286

> <r_epik_Ionization_Penalty_Charging>
  0.1286

> <r_epik_Ionization_Penalty_Neutral>
  0.0000

> <r_epik_State_Penalty>
  0.1160

> <r_epik_Charging_Adjusted_Penalty>
0.244608999685935

> <i_epik_Tot_Q>
-1

> <i_epik_Tot_abs_Q>
3

$$$$
