2qt9_ligand
                    3D
 Schrodinger Suite 2020-3.
 63 66  0  0  1  0            999 V2000
   47.8790   52.6120   33.5670 C   0  0  0  0  0  0
   45.4160   52.4660   33.1680 C   0  0  0  0  0  0
   45.1830   51.9390   34.4340 C   0  0  0  0  0  0
   47.6300   52.0450   34.9130 C   0  0  0  0  0  0
   46.8000   52.8040   32.7380 C   0  0  0  0  0  0
   46.3710   51.7390   35.3100 N   0  0  0  0  0  0
   46.3820   51.2820   36.4620 N   0  0  0  0  0  0
   47.6660   51.2870   36.8440 C   0  0  0  0  0  0
   48.4960   51.7650   35.8930 N   0  0  0  0  0  0
   39.4910   51.7900   36.1070 C   0  0  1  0  0  0
   38.3680   51.3080   35.1480 C   0  0  1  0  0  0
   36.9530   51.2460   35.7540 C   0  0  0  0  0  0
   36.1580   50.1610   35.7020 N   0  0  0  0  0  0
   39.6940   50.6780   37.2370 C   0  0  0  0  0  0
   38.2000   52.2210   34.0330 N   0  3  0  0  0  0
   36.5350   52.2770   36.2890 O   0  0  0  0  0  0
   39.7550   49.4960   36.8020 O   0  0  0  0  0  0
   39.8250   50.9160   38.6240 N   0  0  0  0  0  0
   39.7900   52.1870   39.3540 C   0  0  0  0  0  0
   40.0340   49.7090   39.4580 C   0  0  0  0  0  0
   36.4860   48.8670   35.1370 C   0  0  0  0  0  0
   35.2080   48.0510   35.3840 C   0  0  2  0  0  0
   34.1150   48.9220   36.0450 C   0  0  0  0  0  0
   34.8540   50.2980   36.2400 C   0  0  0  0  0  0
   35.4950   47.2440   36.4790 F   0  0  0  0  0  0
   43.8540   51.5620   35.0070 C   0  0  1  0  0  0
   43.3240   52.7760   35.7830 C   0  0  0  0  0  0
   41.9530   52.5130   36.4380 C   0  0  0  0  0  0
   40.8750   52.0130   35.4060 C   0  0  1  0  0  0
   41.4640   50.7840   34.6140 C   0  0  0  0  0  0
   42.7960   51.1480   33.9470 C   0  0  0  0  0  0
   48.8878   52.8691   33.2440 H   0  0  0  0  0  0
   44.5808   52.6322   32.4876 H   0  0  0  0  0  0
   46.9618   53.2139   31.7411 H   0  0  0  0  0  0
   48.0050   50.9413   37.8206 H   0  0  0  0  0  0
   39.1599   52.7684   36.4852 H   0  0  0  0  0  0
   38.7098   50.3174   34.8136 H   0  0  0  0  0  0
   39.1616   52.3464   33.5137 H   0  0  0  0  0  0
   37.8550   53.1964   34.4066 H   0  0  0  0  0  0
   37.4560   51.8123   33.3334 H   0  0  0  0  0  0
   39.6311   53.0128   38.6449 H   0  0  0  0  0  0
   40.7448   52.3340   39.8801 H   0  0  0  0  0  0
   38.9679   52.1677   40.0846 H   0  0  0  0  0  0
   40.0436   48.8164   38.8152 H   0  0  0  0  0  0
   39.2183   49.6242   40.1911 H   0  0  0  0  0  0
   40.9952   49.7906   39.9866 H   0  0  0  0  0  0
   36.7154   48.9815   34.0673 H   0  0  0  0  0  0
   37.3614   48.4510   35.6572 H   0  0  0  0  0  0
   34.9211   47.5160   34.4667 H   0  0  0  0  0  0
   33.2470   48.9935   35.3731 H   0  0  0  0  0  0
   33.8059   48.4634   36.9958 H   0  0  0  0  0  0
   34.9228   50.5493   37.3087 H   0  0  0  0  0  0
   34.3204   51.0997   35.7084 H   0  0  0  0  0  0
   44.0467   50.6865   35.6445 H   0  0  0  0  0  0
   44.0334   53.0389   36.5815 H   0  0  0  0  0  0
   43.2112   53.6287   35.0973 H   0  0  0  0  0  0
   42.0598   51.7418   37.2150 H   0  0  0  0  0  0
   41.5795   53.4424   36.8927 H   0  0  0  0  0  0
   40.6475   52.7784   34.6494 H   0  0  0  0  0  0
   41.6339   49.9478   35.3082 H   0  0  0  0  0  0
   40.7520   50.4747   33.8347 H   0  0  0  0  0  0
   42.6261   51.9840   33.2526 H   0  0  0  0  0  0
   43.1606   50.2743   33.3868 H   0  0  0  0  0  0
  1  4  1  0  0  0
  1  5  2  0  0  0
  1 32  1  0  0  0
  2  3  2  0  0  0
  2  5  1  0  0  0
  2 33  1  0  0  0
  3  6  1  0  0  0
  3 26  1  0  0  0
  4  6  1  0  0  0
  4  9  2  0  0  0
  5 34  1  0  0  0
  6  7  1  0  0  0
  7  8  2  0  0  0
  8  9  1  0  0  0
  8 35  1  0  0  0
 10 11  1  0  0  0
 10 14  1  0  0  0
 10 29  1  0  0  0
 10 36  1  0  0  0
 11 12  1  0  0  0
 11 15  1  0  0  0
 11 37  1  0  0  0
 12 13  1  0  0  0
 12 16  2  0  0  0
 13 21  1  0  0  0
 13 24  1  0  0  0
 14 17  2  0  0  0
 14 18  1  0  0  0
 15 38  1  0  0  0
 15 39  1  0  0  0
 15 40  1  0  0  0
 18 19  1  0  0  0
 18 20  1  0  0  0
 19 41  1  0  0  0
 19 42  1  0  0  0
 19 43  1  0  0  0
 20 44  1  0  0  0
 20 45  1  0  0  0
 20 46  1  0  0  0
 21 22  1  0  0  0
 21 47  1  0  0  0
 21 48  1  0  0  0
 22 23  1  0  0  0
 22 25  1  0  0  0
 22 49  1  0  0  0
 23 24  1  0  0  0
 23 50  1  0  0  0
 23 51  1  0  0  0
 24 52  1  0  0  0
 24 53  1  0  0  0
 26 27  1  0  0  0
 26 31  1  0  0  0
 26 54  1  0  0  0
 27 28  1  0  0  0
 27 55  1  0  0  0
 27 56  1  0  0  0
 28 29  1  0  0  0
 28 57  1  0  0  0
 28 58  1  0  0  0
 29 30  1  0  0  0
 29 59  1  0  0  0
 30 31  1  0  0  0
 30 60  1  0  0  0
 30 61  1  0  0  0
 31 62  1  0  0  0
 31 63  1  0  0  0
M  CHG  1  15   1
M  END
> <s_m_source_file>
../2qt9_ligand.sdf

> <i_m_source_file_index>
1

> <s_epik_input>
bjFbY0hdbm4oYzEyKWMoW2NIXVtjSF1bY0hdMilbQ0BIXTNbQ0gyXVtDSDJdW0NAQEhdKFtDSDJdW0NIMl0zKVtDQEhdKEMoPU8pTihbQ0gzXSlbQ0gzXSlbQ0BIXShbTkgzK10pQyg9TylONFtDSDJdW0NAQEhdKEYpW0NIMl1bQ0gyXTQ=

> <s_epik_cmdline>
J2VwaWtfYXBwJywgJy1pbWFlJywgJ2xpZ2FuZF9wcm8ubWFlJywgJy1vbWFlJywgJ2xpZ2FuZF9wcmVwLm1hZScsICctbXMnLCAnMScsICctcGgnLCAnNycsICctcGh0JywgJzAuNScsICctbnQn

> <r_lp_tautomer_probability>
1

> <r_epik_Ionization_Penalty>
  0.2001

> <r_epik_Ionization_Penalty_Charging>
  0.1847

> <r_epik_Ionization_Penalty_Neutral>
  0.0154

> <r_epik_State_Penalty>
 -0.0000

> <r_epik_Charging_Adjusted_Penalty>
0.184683536691413

> <i_epik_Tot_Q>
1

> <i_epik_Tot_abs_Q>
1

$$$$
