2qta_ligand
                    3D
 Schrodinger Suite 2020-3.
 42 43  0  0  1  0            999 V2000
   26.9500  -36.5110    7.8880 N   0  0  0  0  0  0
   27.5920  -37.4090    8.7320 C   0  0  0  0  0  0
   27.5650  -38.8490    8.3470 C   0  0  0  0  0  0
   28.2270  -37.0270    9.8540 N   0  0  0  0  0  0
   28.2540  -35.6670   10.1940 C   0  0  0  0  0  0
   28.8890  -35.3500   11.3120 N   0  0  0  0  0  0
   27.5850  -34.6700    9.3250 C   0  0  0  0  0  0
   26.9510  -35.1460    8.1970 C   0  0  0  0  0  0
   27.6180  -33.1630    9.5770 C   0  0  0  0  0  0
   26.8960  -32.7000   10.8440 N   0  3  0  0  0  0
   27.5280  -32.1770   11.9050 C   0  0  0  0  0  0
   26.4690  -31.5970   13.0920 S   0  0  0  0  0  0
   25.0930  -32.0760   12.1330 C   0  0  0  0  0  0
   25.4850  -32.6600   10.9490 C   0  0  0  0  0  0
   24.6060  -33.2140    9.8630 C   0  0  0  0  0  0
   23.7050  -31.9150   12.6510 C   0  0  0  0  0  0
   23.4860  -32.8290   13.8080 C   0  0  0  0  0  0
   22.0960  -32.7630   14.1960 O   0  0  0  0  0  0
   21.5370  -33.6990   15.3700 P   0  0  1  0  0  0
   22.3630  -33.1580   16.6400 O   0  0  0  0  0  0
   20.1260  -33.3930   15.5270 O   0  0  0  0  0  0
   21.9290  -35.1220   15.1090 O   0  5  0  0  0  0
   22.3020  -31.8550   17.5680 P   0  0  0  0  0  0
   22.2570  -32.3960   19.0160 O   0  5  0  0  0  0
   23.5540  -31.0910   17.3600 O   0  5  0  0  0  0
   21.0550  -31.1370   17.2690 O   0  0  0  0  0  0
   27.0042  -38.9670    7.4081 H   0  0  0  0  0  0
   27.0764  -39.4319    9.1417 H   0  0  0  0  0  0
   28.5944  -39.2105    8.2072 H   0  0  0  0  0  0
   29.3666  -36.1362   11.9151 H   0  0  0  0  0  0
   28.9389  -34.3005   11.6376 H   0  0  0  0  0  0
   26.4415  -34.4467    7.5341 H   0  0  0  0  0  0
   28.6621  -32.8298    9.6714 H   0  0  0  0  0  0
   27.1409  -32.6399    8.7351 H   0  0  0  0  0  0
   28.6133  -32.1301   11.9941 H   0  0  0  0  0  0
   25.2327  -33.6096    9.0502 H   0  0  0  0  0  0
   23.9591  -32.4150    9.4716 H   0  0  0  0  0  0
   23.9829  -34.0228   10.2725 H   0  0  0  0  0  0
   23.5534  -30.8752   12.9763 H   0  0  0  0  0  0
   22.9860  -32.1587   11.8550 H   0  0  0  0  0  0
   23.7433  -33.8579   13.5163 H   0  0  0  0  0  0
   24.1231  -32.5159   14.6483 H   0  0  0  0  0  0
  1  2  2  0  0  0
  1  8  1  0  0  0
  2  3  1  0  0  0
  2  4  1  0  0  0
  3 27  1  0  0  0
  3 28  1  0  0  0
  3 29  1  0  0  0
  4  5  2  0  0  0
  5  6  1  0  0  0
  5  7  1  0  0  0
  6 30  1  0  0  0
  6 31  1  0  0  0
  7  8  2  0  0  0
  7  9  1  0  0  0
  8 32  1  0  0  0
  9 10  1  0  0  0
  9 33  1  0  0  0
  9 34  1  0  0  0
 10 11  2  0  0  0
 10 14  1  0  0  0
 11 12  1  0  0  0
 11 35  1  0  0  0
 12 13  1  0  0  0
 13 14  2  0  0  0
 13 16  1  0  0  0
 14 15  1  0  0  0
 15 36  1  0  0  0
 15 37  1  0  0  0
 15 38  1  0  0  0
 16 17  1  0  0  0
 16 39  1  0  0  0
 16 40  1  0  0  0
 17 18  1  0  0  0
 17 41  1  0  0  0
 17 42  1  0  0  0
 18 19  1  0  0  0
 19 20  1  0  0  0
 19 21  2  0  0  0
 19 22  1  0  0  0
 20 23  1  0  0  0
 23 24  1  0  0  0
 23 25  1  0  0  0
 23 26  2  0  0  0
M  CHG  4  10   1  22  -1  24  -1  25  -1
M  END
> <s_m_source_file>
../2qta_ligand.sdf

> <i_m_source_file_index>
1

> <s_epik_input>
W0NIM11jMW5bY0hdYyhjKG4xKVtOSDJdKVtDSDJdW24rXTJbY0hdc2MoYzJbQ0gzXSlbQ0gyXVtDSDJdT1tQQEBdKD1PKShbT0hdKU9QKD1PKShbT0hdKVtPSF0=

> <s_epik_cmdline>
J2VwaWtfYXBwJywgJy1pbWFlJywgJ2xpZ2FuZF9wcm8ubWFlJywgJy1vbWFlJywgJ2xpZ2FuZF9wcmVwLm1hZScsICctbXMnLCAnMScsICctcGgnLCAnNycsICctcGh0JywgJzAuNScsICctbnQn

> <r_lp_tautomer_probability>
1

> <r_epik_Ionization_Penalty>
  0.1081

> <r_epik_Ionization_Penalty_Charging>
  0.0846

> <r_epik_Ionization_Penalty_Neutral>
  0.0235

> <r_epik_State_Penalty>
 -0.0000

> <r_epik_Charging_Adjusted_Penalty>
0.0846133443195182

> <i_epik_Tot_Q>
-2

> <i_epik_Tot_abs_Q>
4

$$$$
