2qtb_ligand
                    3D
 Schrodinger Suite 2020-3.
 63 66  0  0  1  0            999 V2000
   39.4600   51.4740   36.3070 C   0  0  1  0  0  0
   38.3490   51.0840   35.2830 C   0  0  1  0  0  0
   36.9340   51.2220   35.8910 C   0  0  0  0  0  0
   36.1340   50.1150   35.8650 N   0  0  0  0  0  0
   39.6620   50.5030   37.3120 C   0  0  0  0  0  0
   38.3350   51.9220   34.0800 N   0  3  0  0  0  0
   36.5650   52.2830   36.3690 O   0  0  0  0  0  0
   39.6690   49.3410   36.8670 O   0  0  0  0  0  0
   39.8410   50.7430   38.6840 N   0  0  0  0  0  0
   39.8400   52.0530   39.3650 C   0  0  0  0  0  0
   40.0490   49.5400   39.5210 C   0  0  0  0  0  0
   36.4680   48.7750   35.3410 C   0  0  0  0  0  0
   35.2210   47.9690   35.6210 C   0  0  0  0  0  0
   34.1370   49.0000   35.6290 C   0  0  0  0  0  0
   34.7750   50.1580   36.3930 C   0  0  0  0  0  0
   35.3120   47.4430   36.8590 F   0  0  0  0  0  0
   43.9150   51.5700   35.2350 C   0  0  1  0  0  0
   43.2120   52.7430   35.9650 C   0  0  0  0  0  0
   41.9060   52.3700   36.6390 C   0  0  0  0  0  0
   40.8650   51.8300   35.6160 C   0  0  1  0  0  0
   41.5390   50.6190   34.8280 C   0  0  0  0  0  0
   42.9090   50.9930   34.1840 C   0  0  0  0  0  0
   47.9280   52.3380   33.7030 C   0  0  0  0  0  0
   46.8350   52.7230   32.7650 C   0  0  0  0  0  0
   45.5410   52.5440   33.1610 C   0  0  0  0  0  0
   45.2380   51.8890   34.4870 C   0  0  0  0  0  0
   46.2370   51.5180   35.3430 C   0  0  0  0  0  0
   47.6470   51.7120   34.8780 N   0  0  0  0  0  0
   48.7020   51.4680   35.5080 N   0  0  0  0  0  0
   49.6960   51.8710   34.6930 C   0  0  0  0  0  0
   49.2510   52.4130   33.5330 N   0  0  0  0  0  0
   35.0350   47.0020   34.7230 F   0  0  0  0  0  0
   39.0488   52.3073   36.8957 H   0  0  0  0  0  0
   38.5875   50.0595   34.9613 H   0  0  0  0  0  0
   39.3179   51.8741   33.5884 H   0  0  0  0  0  0
   38.1157   52.9627   34.3607 H   0  0  0  0  0  0
   37.5609   51.5578   33.3885 H   0  0  0  0  0  0
   39.6760   52.8506   38.6254 H   0  0  0  0  0  0
   40.8085   52.2082   39.8629 H   0  0  0  0  0  0
   39.0348   52.0762   40.1140 H   0  0  0  0  0  0
   40.0257   48.6426   38.8853 H   0  0  0  0  0  0
   39.2510   49.4758   40.2754 H   0  0  0  0  0  0
   41.0248   49.6077   40.0242 H   0  0  0  0  0  0
   36.6888   48.8464   34.2658 H   0  0  0  0  0  0
   37.3487   48.3831   35.8709 H   0  0  0  0  0  0
   33.8772   49.2669   34.5940 H   0  0  0  0  0  0
   33.2494   48.5949   36.1369 H   0  0  0  0  0  0
   34.8000   50.0076   37.4824 H   0  0  0  0  0  0
   34.3250   51.1363   36.1682 H   0  0  0  0  0  0
   44.2060   50.8802   36.0409 H   0  0  0  0  0  0
   43.8756   53.1376   36.7485 H   0  0  0  0  0  0
   42.9833   53.5402   35.2424 H   0  0  0  0  0  0
   42.0913   51.5881   37.3902 H   0  0  0  0  0  0
   41.4806   53.2573   37.1306 H   0  0  0  0  0  0
   40.6244   52.6272   34.8972 H   0  0  0  0  0  0
   41.7145   49.7830   35.5211 H   0  0  0  0  0  0
   40.8700   50.2903   34.0190 H   0  0  0  0  0  0
   42.7261   51.7436   33.4010 H   0  0  0  0  0  0
   43.3334   50.0854   33.7299 H   0  0  0  0  0  0
   47.0643   53.1386   31.7838 H   0  0  0  0  0  0
   44.7249   52.8746   32.5186 H   0  0  0  0  0  0
   46.0162   51.0980   36.3243 H   0  0  0  0  0  0
   50.7526   51.7712   34.9415 H   0  0  0  0  0  0
  1  2  1  0  0  0
  1  5  1  0  0  0
  1 20  1  0  0  0
  1 33  1  0  0  0
  2  3  1  0  0  0
  2  6  1  0  0  0
  2 34  1  0  0  0
  3  4  1  0  0  0
  3  7  2  0  0  0
  4 12  1  0  0  0
  4 15  1  0  0  0
  5  8  2  0  0  0
  5  9  1  0  0  0
  6 35  1  0  0  0
  6 36  1  0  0  0
  6 37  1  0  0  0
  9 10  1  0  0  0
  9 11  1  0  0  0
 10 38  1  0  0  0
 10 39  1  0  0  0
 10 40  1  0  0  0
 11 41  1  0  0  0
 11 42  1  0  0  0
 11 43  1  0  0  0
 12 13  1  0  0  0
 12 44  1  0  0  0
 12 45  1  0  0  0
 13 14  1  0  0  0
 13 16  1  0  0  0
 13 32  1  0  0  0
 14 15  1  0  0  0
 14 46  1  0  0  0
 14 47  1  0  0  0
 15 48  1  0  0  0
 15 49  1  0  0  0
 17 18  1  0  0  0
 17 22  1  0  0  0
 17 26  1  0  0  0
 17 50  1  0  0  0
 18 19  1  0  0  0
 18 51  1  0  0  0
 18 52  1  0  0  0
 19 20  1  0  0  0
 19 53  1  0  0  0
 19 54  1  0  0  0
 20 21  1  0  0  0
 20 55  1  0  0  0
 21 22  1  0  0  0
 21 56  1  0  0  0
 21 57  1  0  0  0
 22 58  1  0  0  0
 22 59  1  0  0  0
 23 24  1  0  0  0
 23 28  1  0  0  0
 23 31  2  0  0  0
 24 25  2  0  0  0
 24 60  1  0  0  0
 25 26  1  0  0  0
 25 61  1  0  0  0
 26 27  2  0  0  0
 27 28  1  0  0  0
 27 62  1  0  0  0
 28 29  1  0  0  0
 29 30  2  0  0  0
 30 31  1  0  0  0
 30 63  1  0  0  0
M  CHG  1   6   1
M  END
> <s_m_source_file>
../2qtb_ligand.sdf

> <i_m_source_file_index>
1

> <s_epik_input>
RkMxKEYpW0NIMl1OKFtDSDJdW0NIMl0xKUMoPU8pW0NAQEhdKFtOSDMrXSlbQ0BASF0oQyg9TylOKFtDSDNdKVtDSDNdKVtDQEhdKFtDSDJdW0NIMl0yKVtDSDJdW0NIMl1bQ0BASF0yYyhbY0hdW2NIXTMpW2NIXW4oYzM0KW5bY0hdbjQ=

> <s_epik_cmdline>
J2VwaWtfYXBwJywgJy1pbWFlJywgJ2xpZ2FuZF9wcm8ubWFlJywgJy1vbWFlJywgJ2xpZ2FuZF9wcmVwLm1hZScsICctbXMnLCAnMScsICctcGgnLCAnNycsICctcGh0JywgJzAuNScsICctbnQn

> <r_epik_Ionization_Penalty>
  0.2370

> <r_epik_Ionization_Penalty_Charging>
  0.2291

> <r_epik_Ionization_Penalty_Neutral>
  0.0079

> <r_epik_State_Penalty>
  0.2196

> <r_epik_Charging_Adjusted_Penalty>
0.448700410597545

> <i_epik_Tot_Q>
1

> <i_epik_Tot_abs_Q>
1

$$$$
