2qtg_ligand
                    3D
 Schrodinger Suite 2020-3.
 36 38  0  0  1  0            999 V2000
   14.1960   -4.3820    1.1750 C   0  0  0  0  0  0
   12.5660   -4.2730    0.4290 S   0  0  0  0  0  0
   12.5340   -2.5080    0.2870 C   0  0  0  0  0  0
   12.1040   -1.7240    1.5360 C   0  0  1  0  0  0
   12.2240   -0.3130    1.2310 O   0  0  0  0  0  0
    9.8930   -0.9370    1.1070 C   0  0  2  0  0  0
    8.7340   -0.3160    1.7140 O   0  0  0  0  0  0
   10.6520   -1.9330    1.9740 C   0  0  2  0  0  0
   10.5890   -1.6670    3.3860 O   0  0  0  0  0  0
   10.9230    0.1670    0.7700 C   0  0  2  0  0  0
   10.9960    0.3970   -0.6590 N   0  0  0  0  0  0
   11.9570    0.9910   -1.2840 C   0  0  0  0  0  0
   11.7020    1.2460   -2.4900 C   0  0  0  0  0  0
   10.7810    0.4730   -2.9710 C   0  0  0  0  0  0
   10.2600    0.2540   -4.2160 C   0  0  0  0  0  0
   10.8260    0.7840   -5.3360 N   0  0  0  0  0  0
    9.1710   -0.5720   -4.2260 N   0  0  0  0  0  0
    8.6330   -1.0980   -3.0730 C   0  0  0  0  0  0
    9.1620   -0.8640   -1.8320 N   0  0  0  0  0  0
   10.2380   -0.0430   -1.7750 C   0  0  0  0  0  0
   14.4433   -5.4372    1.3632 H   0  0  0  0  0  0
   14.2018   -3.8288    2.1258 H   0  0  0  0  0  0
   14.9412   -3.9468    0.4929 H   0  0  0  0  0  0
   13.5405   -2.1420    0.0361 H   0  0  0  0  0  0
   11.8297   -2.2166   -0.5061 H   0  0  0  0  0  0
   12.7679   -2.0316    2.3574 H   0  0  0  0  0  0
    9.4280   -1.4751    0.2678 H   0  0  0  0  0  0
    7.8807   -0.9343    2.0294 H   0  0  0  0  0  0
   10.2199   -2.9419    1.9006 H   0  0  0  0  0  0
   11.1061   -2.3310    4.0944 H   0  0  0  0  0  0
   10.6761    1.1386    1.2228 H   0  0  0  0  0  0
   12.9041    1.2485   -0.8099 H   0  0  0  0  0  0
   12.1994    2.0279   -3.0638 H   0  0  0  0  0  0
   11.7031    1.4423   -5.2502 H   0  0  0  0  0  0
   10.4060    0.5537   -6.3262 H   0  0  0  0  0  0
    7.7472   -1.7283   -3.1516 H   0  0  0  0  0  0
  1  2  1  0  0  0
  1 21  1  0  0  0
  1 22  1  0  0  0
  1 23  1  0  0  0
  2  3  1  0  0  0
  3  4  1  0  0  0
  3 24  1  0  0  0
  3 25  1  0  0  0
  4  5  1  0  0  0
  4  8  1  0  0  0
  4 26  1  0  0  0
  5 10  1  0  0  0
  6  7  1  0  0  0
  6  8  1  0  0  0
  6 10  1  0  0  0
  6 27  1  0  0  0
  7 28  1  0  0  0
  8  9  1  0  0  0
  8 29  1  0  0  0
  9 30  1  0  0  0
 10 11  1  0  0  0
 10 31  1  0  0  0
 11 12  1  0  0  0
 11 20  1  0  0  0
 12 13  2  0  0  0
 12 32  1  0  0  0
 13 14  1  0  0  0
 13 33  1  0  0  0
 14 15  2  0  0  0
 14 20  1  0  0  0
 15 16  1  0  0  0
 15 17  1  0  0  0
 16 34  1  0  0  0
 16 35  1  0  0  0
 17 18  2  0  0  0
 18 19  1  0  0  0
 18 36  1  0  0  0
 19 20  2  0  0  0
M  END
> <s_m_source_file>
../2qtg_ligand.sdf

> <i_m_source_file_index>
1

> <s_epik_input>
W0NIM11TW0NIMl1bQ0BIXTFPW0NASF0oW0NASF0oW09IXSlbQ0BASF0xW09IXSluKFtjSF1bY0hdMiljKGMyMyluW2NIXW5jM1tOSDJd

> <s_epik_cmdline>
J2VwaWtfYXBwJywgJy1pbWFlJywgJ2xpZ2FuZF9wcm8ubWFlJywgJy1vbWFlJywgJ2xpZ2FuZF9wcmVwLm1hZScsICctbXMnLCAnMScsICctcGgnLCAnNycsICctcGh0JywgJzAuNScsICctbnQn

> <r_lp_tautomer_probability>
1

> <r_epik_Ionization_Penalty>
  0.0009

> <r_epik_Ionization_Penalty_Charging>
  0.0000

> <r_epik_Ionization_Penalty_Neutral>
  0.0009

> <r_epik_State_Penalty>
 -0.0000

> <r_epik_Charging_Adjusted_Penalty>
0

> <i_epik_Tot_Q>
0

> <i_epik_Tot_abs_Q>
0

> <s_epik_Chemistry_Notes>
This compound contains an acetal/aminal-like group ( X-CH(R)-Y where X, Y are N, S, or O) that may be acid/base labile, releasing an aldehyde.

$$$$
