2qtn_ligand
                    3D
 Schrodinger Suite 2020-3.
 35 36  0  0  1  0            999 V2000
   16.9100  -29.6430   20.3250 P   0  0  0  0  0  0
   16.5250  -31.0700   20.6200 O   0  0  0  0  0  0
   15.8220  -28.6510   20.9580 O   0  5  0  0  0  0
   18.3560  -29.2880   20.9450 O   0  5  0  0  0  0
   16.9390  -29.4400   18.7320 O   0  0  0  0  0  0
   17.3420  -28.2310   18.0920 C   0  0  0  0  0  0
   16.1550  -27.2480   18.0250 C   0  0  1  0  0  0
   14.9120  -27.9240   18.1010 O   0  0  0  0  0  0
   16.0840  -26.2500   19.2120 C   0  0  1  0  0  0
   16.9020  -25.1040   18.9870 O   0  0  0  0  0  0
   14.6180  -25.8180   19.1780 C   0  0  1  0  0  0
   14.4670  -24.5920   18.4240 O   0  0  0  0  0  0
   13.8980  -26.9610   18.4140 C   0  0  2  0  0  0
   12.7920  -27.5200   19.2130 N   0  0  0  0  0  0
   12.8600  -28.8000   19.7410 C   0  0  0  0  0  0
   11.7790  -29.3170   20.4910 C   0  0  0  0  0  0
   10.6280  -28.5080   20.6890 C   0  0  0  0  0  0
   10.5760  -27.1930   20.1400 C   0  0  0  0  0  0
   11.6830  -26.7370   19.4070 C   0  0  0  0  0  0
    9.3650  -26.2980   20.3260 C   0  0  0  0  0  0
    8.3140  -26.7370   21.0100 O   0  5  0  0  0  0
    9.3610  -25.1900   19.8370 O   0  0  0  0  0  0
   18.1618  -27.7699   18.6623 H   0  0  0  0  0  0
   17.6855  -28.4535   17.0710 H   0  0  0  0  0  0
   16.2487  -26.7602   17.0435 H   0  0  0  0  0  0
   16.4660  -26.6340   20.1694 H   0  0  0  0  0  0
   17.9973  -25.2042   18.9733 H   0  0  0  0  0  0
   14.2181  -25.5834   20.1755 H   0  0  0  0  0  0
   14.9094  -23.6574   18.7993 H   0  0  0  0  0  0
   13.4214  -26.6733   17.4653 H   0  0  0  0  0  0
   13.7577  -29.4137   19.5752 H   0  0  0  0  0  0
   11.8368  -30.3318   20.9114 H   0  0  0  0  0  0
    9.7764  -28.8970   21.2665 H   0  0  0  0  0  0
   11.9713  -25.8183   19.9388 H   0  0  0  0  0  0
   11.2445  -26.4745   18.4329 H   0  0  0  0  0  0
  1  2  2  0  0  0
  1  3  1  0  0  0
  1  4  1  0  0  0
  1  5  1  0  0  0
  5  6  1  0  0  0
  6  7  1  0  0  0
  6 23  1  0  0  0
  6 24  1  0  0  0
  7  8  1  0  0  0
  7  9  1  0  0  0
  7 25  1  0  0  0
  8 13  1  0  0  0
  9 10  1  0  0  0
  9 11  1  0  0  0
  9 26  1  0  0  0
 10 27  1  0  0  0
 11 12  1  0  0  0
 11 13  1  0  0  0
 11 28  1  0  0  0
 12 29  1  0  0  0
 13 14  1  0  0  0
 13 30  1  0  0  0
 14 15  1  0  0  0
 14 19  1  0  0  0
 15 16  2  0  0  0
 15 31  1  0  0  0
 16 17  1  0  0  0
 16 32  1  0  0  0
 17 18  2  0  0  0
 17 33  1  0  0  0
 18 19  1  0  0  0
 18 20  1  0  0  0
 19 34  1  0  0  0
 19 35  1  0  0  0
 20 21  1  0  0  0
 20 22  2  0  0  0
M  CHG  3   3  -1   4  -1  21  -1
M  END
> <s_m_source_file>
../2qtn_ligand.sdf

> <i_m_source_file_index>
1

> <s_epik_input>
Tz1QKFtPSF0pKFtPSF0pT1tDSDJdW0NASF0xT1tDQEhdKFtDQEhdKFtPSF0pW0NAQEhdMVtPSF0pTjJbQ0hdPVtDSF1bQ0hdPUMoW0NIMl0yKUMoPU8pW09IXQ==

> <s_epik_cmdline>
J2VwaWtfYXBwJywgJy1pbWFlJywgJ2xpZ2FuZF9wcm8ubWFlJywgJy1vbWFlJywgJ2xpZ2FuZF9wcmVwLm1hZScsICctbXMnLCAnMScsICctcGgnLCAnNycsICctcGh0JywgJzAuNScsICctbnQn

> <r_epik_Ionization_Penalty>
  0.1044

> <r_epik_Ionization_Penalty_Charging>
  0.1043

> <r_epik_Ionization_Penalty_Neutral>
  0.0001

> <r_epik_State_Penalty>
  0.0935

> <r_epik_Charging_Adjusted_Penalty>
0.197752054198681

> <i_epik_Tot_Q>
-3

> <i_epik_Tot_abs_Q>
3

> <s_epik_Chemistry_Notes>
This compound contains an acetal/aminal-like group ( X-CH(R)-Y where X, Y are N, S, or O) that may be acid/base labile, releasing an aldehyde.

$$$$
