2qtr_ligand
                    3D
 Schrodinger Suite 2020-3.
 69 73  0  0  1  0            999 V2000
   23.4390   65.0750   15.2790 O   0  5  0  0  0  0
   22.6820   64.3390   15.9780 C   0  0  0  0  0  0
   22.1890   63.2650   15.5280 O   0  0  0  0  0  0
   22.3620   64.7600   17.3830 C   0  0  0  0  0  0
   21.5070   64.0070   18.2440 C   0  0  0  0  0  0
   21.2370   64.4450   19.5370 C   0  0  0  0  0  0
   21.8270   65.6600   19.9910 C   0  0  0  0  0  0
   22.9270   65.9610   17.8810 C   0  0  0  0  0  0
   22.6520   66.3680   19.1350 N   0  0  0  0  0  0
   23.2760   67.6320   19.5680 C   0  0  1  0  0  0
   22.3120   68.8090   19.5740 C   0  0  2  0  0  0
   22.0350   69.3700   18.2840 O   0  0  0  0  0  0
   23.0180   69.7620   20.5430 C   0  0  2  0  0  0
   24.0250   70.4920   19.8000 O   0  0  0  0  0  0
   23.7680   67.5320   20.9220 O   0  0  0  0  0  0
   23.6350   68.8210   21.5720 C   0  0  2  0  0  0
   22.7830   68.6290   22.8510 C   0  0  0  0  0  0
   21.3730   68.7940   22.5850 O   0  0  0  0  0  0
   20.2630   68.8980   23.7410 P   0  0  1  0  0  0
   18.8950   69.0880   23.1530 O   0  5  0  0  0  0
   20.5610   67.7120   24.6000 O   0  0  0  0  0  0
   20.6390   70.2970   24.4320 O   0  0  0  0  0  0
   20.1880   70.9170   25.8490 P   0  0  1  0  0  0
   19.8530   72.3660   25.6320 O   0  0  0  0  0  0
   19.1080   70.0280   26.4610 O   0  5  0  0  0  0
   21.5510   70.8070   26.7110 O   0  0  0  0  0  0
   22.7770   71.2970   26.1720 C   0  0  0  0  0  0
   23.9710   70.4590   26.6560 C   0  0  2  0  0  0
   23.8190   68.9380   26.5230 C   0  0  1  0  0  0
   25.0780   68.4080   26.0850 O   0  0  0  0  0  0
   23.4590   68.4450   27.9100 C   0  0  1  0  0  0
   23.8620   67.0790   28.1040 O   0  0  0  0  0  0
   24.1900   69.4560   28.7810 C   0  0  1  0  0  0
   24.1830   70.6960   28.0320 O   0  0  0  0  0  0
   23.5820   69.7620   30.0990 N   0  0  0  0  0  0
   22.4180   70.4130   30.3110 C   0  0  0  0  0  0
   22.2020   70.5100   31.6320 N   0  0  0  0  0  0
   23.2560   69.9090   32.2500 C   0  0  0  0  0  0
   24.1210   69.4350   31.2580 C   0  0  0  0  0  0
   23.5950   69.7000   33.5920 C   0  0  0  0  0  0
   22.7700   70.1490   34.5620 N   0  0  0  0  0  0
   24.7810   69.0280   33.8950 N   0  0  0  0  0  0
   25.6050   68.5740   32.9150 C   0  0  0  0  0  0
   25.2970   68.7640   31.5980 N   0  0  0  0  0  0
   21.0541   63.0702   17.8872 H   0  0  0  0  0  0
   20.5798   63.8693   20.2054 H   0  0  0  0  0  0
   21.6242   66.0230   21.0094 H   0  0  0  0  0  0
   24.0242   65.8855   17.8620 H   0  0  0  0  0  0
   22.6066   66.8051   17.2526 H   0  0  0  0  0  0
   24.1088   67.7741   18.8636 H   0  0  0  0  0  0
   21.2696   68.5568   19.8187 H   0  0  0  0  0  0
   21.5300   68.7638   17.5175 H   0  0  0  0  0  0
   22.3993   70.5465   21.0033 H   0  0  0  0  0  0
   23.7228   71.2089   19.0223 H   0  0  0  0  0  0
   24.6177   69.2182   21.8662 H   0  0  0  0  0  0
   22.9433   67.6164   23.2498 H   0  0  0  0  0  0
   23.0816   69.3717   23.6055 H   0  0  0  0  0  0
   22.7387   71.2517   25.0736 H   0  0  0  0  0  0
   22.9273   72.3390   26.4909 H   0  0  0  0  0  0
   24.8399   70.8007   26.0744 H   0  0  0  0  0  0
   23.0912   68.5931   25.7737 H   0  0  0  0  0  0
   25.4734   68.6773   25.0945 H   0  0  0  0  0  0
   22.3880   68.3461   28.1408 H   0  0  0  0  0  0
   23.3886   66.2774   27.5181 H   0  0  0  0  0  0
   25.1907   69.0583   29.0055 H   0  0  0  0  0  0
   21.7589   70.7983   29.5331 H   0  0  0  0  0  0
   21.8419   70.6754   34.2946 H   0  0  0  0  0  0
   23.0260   69.9884   35.6197 H   0  0  0  0  0  0
   26.5233   68.0516   33.1831 H   0  0  0  0  0  0
  1  2  1  0  0  0
  2  3  2  0  0  0
  2  4  1  0  0  0
  4  5  2  0  0  0
  4  8  1  0  0  0
  5  6  1  0  0  0
  5 45  1  0  0  0
  6  7  2  0  0  0
  6 46  1  0  0  0
  7  9  1  0  0  0
  7 47  1  0  0  0
  8  9  1  0  0  0
  8 48  1  0  0  0
  8 49  1  0  0  0
  9 10  1  0  0  0
 10 11  1  0  0  0
 10 15  1  0  0  0
 10 50  1  0  0  0
 11 12  1  0  0  0
 11 13  1  0  0  0
 11 51  1  0  0  0
 12 52  1  0  0  0
 13 14  1  0  0  0
 13 16  1  0  0  0
 13 53  1  0  0  0
 14 54  1  0  0  0
 15 16  1  0  0  0
 16 17  1  0  0  0
 16 55  1  0  0  0
 17 18  1  0  0  0
 17 56  1  0  0  0
 17 57  1  0  0  0
 18 19  1  0  0  0
 19 20  1  0  0  0
 19 21  2  0  0  0
 19 22  1  0  0  0
 22 23  1  0  0  0
 23 24  2  0  0  0
 23 25  1  0  0  0
 23 26  1  0  0  0
 26 27  1  0  0  0
 27 28  1  0  0  0
 27 58  1  0  0  0
 27 59  1  0  0  0
 28 29  1  0  0  0
 28 34  1  0  0  0
 28 60  1  0  0  0
 29 30  1  0  0  0
 29 31  1  0  0  0
 29 61  1  0  0  0
 30 62  1  0  0  0
 31 32  1  0  0  0
 31 33  1  0  0  0
 31 63  1  0  0  0
 32 64  1  0  0  0
 33 34  1  0  0  0
 33 35  1  0  0  0
 33 65  1  0  0  0
 35 36  1  0  0  0
 35 39  1  0  0  0
 36 37  2  0  0  0
 36 66  1  0  0  0
 37 38  1  0  0  0
 38 39  2  0  0  0
 38 40  1  0  0  0
 39 44  1  0  0  0
 40 41  1  0  0  0
 40 42  2  0  0  0
 41 67  1  0  0  0
 41 68  1  0  0  0
 42 43  1  0  0  0
 43 44  2  0  0  0
 43 69  1  0  0  0
M  CHG  3   1  -1  20  -1  25  -1
M  END
> <s_m_source_file>
../2qtr_ligand.sdf

> <i_m_source_file_index>
1

> <s_epik_input>
W09IXUMoPU8pQzE9W0NIXVtDSF09W0NIXU4oW0NIMl0xKVtDQEhdMltDQEhdKFtPSF0pW0NASF0oW09IXSlbQ0BIXShPMilbQ0gyXU9bUEBdKD1PKShbT0hdKU9bUEBAXSg9TykoW09IXSlPW0NIMl1bQ0BASF0zW0NAQEhdKFtPSF0pW0NAQEhdKFtPSF0pW0NAQEhdKE8zKW4oW2NIXW40KWMoYzQ1KW5bY0hdbmM1W05IMl0=

> <s_epik_cmdline>
J2VwaWtfYXBwJywgJy1pbWFlJywgJ2xpZ2FuZF9wcm8ubWFlJywgJy1vbWFlJywgJ2xpZ2FuZF9wcmVwLm1hZScsICctbXMnLCAnMScsICctcGgnLCAnNycsICctcGh0JywgJzAuNScsICctbnQn

> <r_lp_tautomer_probability>
1

> <r_epik_Ionization_Penalty>
  0.0018

> <r_epik_Ionization_Penalty_Charging>
  0.0014

> <r_epik_Ionization_Penalty_Neutral>
  0.0005

> <r_epik_State_Penalty>
 -0.0000

> <r_epik_Charging_Adjusted_Penalty>
0.00135087718850167

> <i_epik_Tot_Q>
-3

> <i_epik_Tot_abs_Q>
3

> <s_epik_Chemistry_Notes>
This compound contains an acetal/aminal-like group ( X-CH(R)-Y where X, Y are N, S, or O) that may be acid/base labile, releasing an aldehyde.

$$$$
