2qtt_ligand
                    3D
 Schrodinger Suite 2020-3.
 32 34  0  0  1  0            999 V2000
  -19.3800  -18.7120  -26.3330 N   0  0  0  0  0  0
  -19.2430  -18.0660  -25.1520 C   0  0  0  0  0  0
  -20.0690  -18.2420  -24.0900 N   0  0  0  0  0  0
  -21.0860  -19.1190  -24.2080 C   0  0  0  0  0  0
  -21.3080  -19.8700  -25.4580 C   0  0  0  0  0  0
  -20.3650  -19.6190  -26.5660 C   0  0  0  0  0  0
  -20.4780  -20.2460  -27.7680 N   0  0  0  0  0  0
  -22.3940  -20.6460  -25.2740 N   0  0  0  0  0  0
  -22.8840  -20.4680  -23.9580 N   0  3  0  0  0  0
  -22.1580  -19.5490  -23.2670 C   0  0  0  0  0  0
  -22.3150  -19.0530  -21.8470 C   0  0  1  0  0  0
  -21.3600  -17.9890  -21.2830 C   0  0  2  0  0  0
  -20.4020  -18.5340  -20.3570 O   0  0  0  0  0  0
  -22.2740  -16.9590  -20.6320 C   0  0  2  0  0  0
  -22.4730  -17.1990  -19.2310 O   0  0  0  0  0  0
  -23.6020  -17.1280  -21.3450 C   0  0  2  0  0  0
  -23.6330  -18.5020  -21.6960 O   0  0  0  0  0  0
  -23.7230  -16.2720  -22.6080 C   0  0  0  0  0  0
  -23.6660  -14.8660  -22.2770 O   0  0  0  0  0  0
  -18.4184  -17.3609  -25.0473 H   0  0  0  0  0  0
  -19.7556  -20.0327  -28.5697 H   0  0  0  0  0  0
  -21.2917  -20.9663  -27.9382 H   0  0  0  0  0  0
  -22.1457  -19.9726  -21.2676 H   0  0  0  0  0  0
  -20.6830  -17.5588  -22.0357 H   0  0  0  0  0  0
  -19.6787  -19.2904  -20.6955 H   0  0  0  0  0  0
  -21.8430  -15.9473  -20.6580 H   0  0  0  0  0  0
  -21.6248  -17.1254  -18.5345 H   0  0  0  0  0  0
  -24.4519  -16.8758  -20.6938 H   0  0  0  0  0  0
  -22.8962  -16.5106  -23.2932 H   0  0  0  0  0  0
  -24.6822  -16.4829  -23.1034 H   0  0  0  0  0  0
  -23.7389  -14.1102  -23.0729 H   0  0  0  0  0  0
  -23.7549  -21.0445  -23.6127 H   0  0  0  0  0  0
  1  2  2  0  0  0
  1  6  1  0  0  0
  2  3  1  0  0  0
  2 20  1  0  0  0
  3  4  2  0  0  0
  4  5  1  0  0  0
  4 10  1  0  0  0
  5  6  2  0  0  0
  5  8  1  0  0  0
  6  7  1  0  0  0
  7 21  1  0  0  0
  7 22  1  0  0  0
  8  9  1  0  0  0
  9 10  2  0  0  0
  9 32  1  0  0  0
 10 11  1  0  0  0
 11 12  1  0  0  0
 11 17  1  0  0  0
 11 23  1  0  0  0
 12 13  1  0  0  0
 12 14  1  0  0  0
 12 24  1  0  0  0
 13 25  1  0  0  0
 14 15  1  0  0  0
 14 16  1  0  0  0
 14 26  1  0  0  0
 15 27  1  0  0  0
 16 17  1  0  0  0
 16 18  1  0  0  0
 16 28  1  0  0  0
 18 19  1  0  0  0
 18 29  1  0  0  0
 18 30  1  0  0  0
 19 31  1  0  0  0
M  CHG  1   9   1
M  END
> <s_m_source_file>
../2qtt_ligand.sdf

> <i_m_source_file_index>
1

> <s_epik_input>
bjFbY0hdbmMoW05IMl0pYyhjMTIpW25IXW5jMltDQEhdM1tDQEhdKFtPSF0pW0NASF0oW09IXSlbQ0BIXShPMylbQ0gyXVtPSF0=

> <s_epik_cmdline>
J2VwaWtfYXBwJywgJy1pbWFlJywgJ2xpZ2FuZF9wcm8ubWFlJywgJy1vbWFlJywgJ2xpZ2FuZF9wcmVwLm1hZScsICctbXMnLCAnMScsICctcGgnLCAnNycsICctcGh0JywgJzAuNScsICctbnQn

> <r_epik_Ionization_Penalty>
  0.0001

> <r_epik_Ionization_Penalty_Charging>
  0.0000

> <r_epik_Ionization_Penalty_Neutral>
  0.0001

> <r_epik_State_Penalty>
  0.1884

> <r_epik_Charging_Adjusted_Penalty>
0.188352203185344

> <i_epik_Tot_Q>
1

> <i_epik_Tot_abs_Q>
1

$$$$
