2qu3_ligand
                    3D
 Schrodinger Suite 2020-3.
 51 53  0  0  1  0            999 V2000
    8.8600   -2.0220   13.9810 C   0  0  0  0  0  0
    8.5370   -3.2560   14.7620 C   0  0  0  0  0  0
    9.6450   -4.2670   14.7850 C   0  0  0  0  0  0
    9.1350   -5.4170   15.4240 O   0  0  0  0  0  0
    9.9380   -6.3600   15.9930 C   0  0  0  0  0  0
    9.5660   -7.7070   16.2220 C   0  0  0  0  0  0
   10.4550   -8.6200   16.8300 C   0  0  0  0  0  0
   11.7580   -8.2410   17.1800 C   0  0  0  0  0  0
   12.1190   -6.8710   16.9410 C   0  0  0  0  0  0
   11.2500   -5.9650   16.3420 C   0  0  0  0  0  0
   12.6740   -9.2070   17.8060 C   0  0  0  0  0  0
   12.3170  -10.0170   18.9300 C   0  0  0  0  0  0
   13.5460  -11.0820   19.4240 S   0  0  0  0  0  0
   14.5830  -10.5440   18.2130 C   0  0  0  0  0  0
   13.9960   -9.5600   17.3730 C   0  0  0  0  0  0
   14.7640   -8.9120   16.2320 C   0  0  0  0  0  0
   15.4510   -7.6670   16.7550 C   0  0  0  0  0  0
   15.7470   -7.6040   17.9260 O   0  0  0  0  0  0
   15.7340   -6.8080   15.7290 N   0  3  0  0  0  0
   16.2580   -5.6490   15.8760 C   0  0  0  0  0  0
   16.7670   -5.1010   16.9950 N   0  0  0  0  0  0
   16.4490   -4.8470   14.8020 N   0  0  0  0  0  0
   15.8980  -11.0980   18.0410 C   0  0  0  0  0  0
   16.9250  -10.7100   18.9880 C   0  0  0  0  0  0
   18.2290  -11.2180   18.8530 C   0  0  0  0  0  0
   18.5600  -12.0590   17.7680 C   0  0  0  0  0  0
   17.5740  -12.4410   16.8330 C   0  0  0  0  0  0
   16.2540  -11.9470   16.9430 C   0  0  0  0  0  0
   15.1300  -12.4800   15.7320 Cl  0  0  0  0  0  0
    8.0025   -1.3337   14.0117 H   0  0  0  0  0  0
    9.0743   -2.2944   12.9370 H   0  0  0  0  0  0
    9.7407   -1.5304   14.4199 H   0  0  0  0  0  0
    8.3227   -2.9836   15.8060 H   0  0  0  0  0  0
    7.6563   -3.7477   14.3232 H   0  0  0  0  0  0
    9.9527   -4.4972   13.7543 H   0  0  0  0  0  0
   10.5020   -3.8592   15.3411 H   0  0  0  0  0  0
    8.5740   -8.0456   15.9231 H   0  0  0  0  0  0
   10.1218   -9.6382   17.0308 H   0  0  0  0  0  0
   13.1099   -6.5292   17.2400 H   0  0  0  0  0  0
   11.5818   -4.9464   16.1408 H   0  0  0  0  0  0
   11.3470   -9.9567   19.4236 H   0  0  0  0  0  0
   15.5137   -9.6188   15.8467 H   0  0  0  0  0  0
   14.0654   -8.6429   15.4260 H   0  0  0  0  0  0
   16.6894   -5.6352   17.9534 H   0  0  0  0  0  0
   16.0870   -5.1590   13.8113 H   0  0  0  0  0  0
   16.9662   -3.8834   14.9202 H   0  0  0  0  0  0
   16.6867  -10.0261   19.8026 H   0  0  0  0  0  0
   18.9893  -10.9610   19.5906 H   0  0  0  0  0  0
   19.5835  -12.4155   17.6518 H   0  0  0  0  0  0
   17.8319  -13.1211   16.0212 H   0  0  0  0  0  0
   15.5102   -7.0976   14.6917 H   0  0  0  0  0  0
  1  2  1  0  0  0
  1 30  1  0  0  0
  1 31  1  0  0  0
  1 32  1  0  0  0
  2  3  1  0  0  0
  2 33  1  0  0  0
  2 34  1  0  0  0
  3  4  1  0  0  0
  3 35  1  0  0  0
  3 36  1  0  0  0
  4  5  1  0  0  0
  5  6  2  0  0  0
  5 10  1  0  0  0
  6  7  1  0  0  0
  6 37  1  0  0  0
  7  8  2  0  0  0
  7 38  1  0  0  0
  8  9  1  0  0  0
  8 11  1  0  0  0
  9 10  2  0  0  0
  9 39  1  0  0  0
 10 40  1  0  0  0
 11 12  2  0  0  0
 11 15  1  0  0  0
 12 13  1  0  0  0
 12 41  1  0  0  0
 13 14  1  0  0  0
 14 15  2  0  0  0
 14 23  1  0  0  0
 15 16  1  0  0  0
 16 17  1  0  0  0
 16 42  1  0  0  0
 16 43  1  0  0  0
 17 18  2  0  0  0
 17 19  1  0  0  0
 19 20  1  0  0  0
 19 51  1  0  0  0
 20 21  2  0  0  0
 20 22  1  0  0  0
 21 44  1  0  0  0
 22 45  1  0  0  0
 22 46  1  0  0  0
 23 24  2  0  0  0
 23 28  1  0  0  0
 24 25  1  0  0  0
 24 47  1  0  0  0
 25 26  2  0  0  0
 25 48  1  0  0  0
 26 27  1  0  0  0
 26 49  1  0  0  0
 27 28  2  0  0  0
 27 50  1  0  0  0
 28 29  1  0  0  0
M  CHG  1  19   1
M  END
> <s_m_source_file>
../2qu3_ligand.sdf

> <i_m_source_file_index>
1

> <s_epik_input>
W0NIM11bQ0gyXVtDSDJdT2MxW2NIXVtjSF1jKFtjSF1bY0hdMSktYzJbY0hdc2MoYzJbQ0gyXUMoPU8pW05IXS9DKD1OXFtIXSlbTkgyXSktYzNbY0hdW2NIXVtjSF1bY0hdYzNDbA==

> <s_epik_cmdline>
J2VwaWtfYXBwJywgJy1pbWFlJywgJ2xpZ2FuZF9wcm8ubWFlJywgJy1vbWFlJywgJ2xpZ2FuZF9wcmVwLm1hZScsICctbXMnLCAnMScsICctcGgnLCAnNycsICctcGh0JywgJzAuNScsICctbnQn

> <r_lp_tautomer_probability>
1

> <r_epik_Ionization_Penalty>
  0.0000

> <r_epik_Ionization_Penalty_Charging>
  0.0000

> <r_epik_Ionization_Penalty_Neutral>
  0.0000

> <r_epik_State_Penalty>
 -0.0000

> <r_epik_Charging_Adjusted_Penalty>
4.91886791879998e-07

> <i_epik_Tot_Q>
1

> <i_epik_Tot_abs_Q>
1

> <s_epik_Chemistry_Notes>
This compound has an imine and may undergo hydrolysis.

$$$$
