2qu6_ligand
                    3D
 Schrodinger Suite 2020-3.
 63 67  0  0  1  0            999 V2000
   39.6450   38.4890   10.4420 C   0  0  0  0  0  0
   38.7970   37.4690   10.9550 C   0  0  0  0  0  0
   37.6380   37.8100   11.7690 C   0  0  0  0  0  0
   37.2520   39.1400   12.0840 C   0  0  0  0  0  0
   38.0880   40.1830   11.5640 C   0  0  0  0  0  0
   39.2510   39.8260   10.7710 C   0  0  0  0  0  0
   40.9570   27.6530   13.2560 C   0  0  0  0  0  0
   40.9480   27.7800   11.8820 N   0  0  0  0  0  0
   40.1950   28.5270   14.0560 C   0  0  0  0  0  0
   39.4410   29.4710   13.3130 C   0  0  0  0  0  0
   39.4360   29.5680   11.8620 C   0  0  0  0  0  0
   40.2500   28.6630   11.1300 C   0  0  0  0  0  0
   38.6950   32.6260   13.5220 C   0  0  0  0  0  0
   37.8610   33.6870   13.0770 C   0  0  0  0  0  0
   36.4470   33.4940   12.8460 C   0  0  0  0  0  0
   35.7930   32.2230   13.1150 C   0  0  0  0  0  0
   36.5820   31.1190   13.6090 C   0  0  0  0  0  0
   38.0140   31.3540   13.7710 C   0  0  0  0  0  0
   36.9340   35.5190   12.5550 C   0  0  0  0  0  0
   36.7430   36.9140   12.2430 N   0  0  0  0  0  0
   38.1380   34.9840   12.9020 N   0  0  0  0  0  0
   40.2450   41.0850   10.1650 Cl  0  0  0  0  0  0
   38.7070   30.2420   14.1750 O   0  0  0  0  0  0
   35.8870   34.6340   12.5110 O   0  0  0  0  0  0
   41.6870   26.5810   13.9270 C   0  0  0  0  0  0
   41.6550   26.4290   15.1430 O   0  0  0  0  0  0
   42.4110   25.7570   13.1440 N   0  0  0  0  0  0
   43.1400   24.7140   13.8860 C   0  0  0  0  0  0
   37.7660   41.5070   11.8390 O   0  0  0  0  0  0
   36.9760   41.7190   13.0240 C   0  0  0  0  0  0
   37.5600   43.9470   13.9550 N   0  3  2  0  0  0
   38.4760   44.8730   13.2250 C   0  0  0  0  0  0
   38.0680   44.7030   11.7730 C   0  0  0  0  0  0
   36.8280   43.8450   11.7420 C   0  0  0  0  0  0
   36.5800   43.1900   13.0970 C   0  0  1  0  0  0
   37.1500   44.3340   15.3240 C   0  0  0  0  0  0
   40.5289   38.2695    9.8431 H   0  0  0  0  0  0
   39.0161   36.4237   10.7373 H   0  0  0  0  0  0
   36.3700   39.3559   12.6870 H   0  0  0  0  0  0
   40.1857   28.4820   15.1450 H   0  0  0  0  0  0
   38.8258   30.3130   11.3514 H   0  0  0  0  0  0
   40.3084   28.6784   10.0417 H   0  0  0  0  0  0
   39.7680   32.7505   13.6679 H   0  0  0  0  0  0
   34.7226   32.1055   12.9461 H   0  0  0  0  0  0
   36.1303   30.1566   13.8494 H   0  0  0  0  0  0
   35.7064   37.2241   12.4409 H   0  0  0  0  0  0
   42.4893   25.8088   12.0480 H   0  0  0  0  0  0
   43.7030   24.0868   13.1791 H   0  0  0  0  0  0
   42.4236   24.0896   14.4400 H   0  0  0  0  0  0
   43.8377   25.1867   14.5929 H   0  0  0  0  0  0
   36.0729   41.0926   12.9795 H   0  0  0  0  0  0
   37.5666   41.4484   13.9117 H   0  0  0  0  0  0
   38.2436   43.1452   14.2708 H   0  0  0  0  0  0
   38.3220   45.9008   13.5856 H   0  0  0  0  0  0
   39.5192   44.5739   13.4045 H   0  0  0  0  0  0
   37.8615   45.6895   11.3323 H   0  0  0  0  0  0
   38.8834   44.2167   11.2175 H   0  0  0  0  0  0
   35.9576   44.4676   11.4875 H   0  0  0  0  0  0
   36.9475   43.0551   10.9858 H   0  0  0  0  0  0
   35.5427   43.2277   13.4611 H   0  0  0  0  0  0
   37.9727   44.8756   15.8138 H   0  0  0  0  0  0
   36.9092   43.4307   15.9038 H   0  0  0  0  0  0
   36.2635   44.9832   15.2715 H   0  0  0  0  0  0
  1  2  2  0  0  0
  1  6  1  0  0  0
  1 37  1  0  0  0
  2  3  1  0  0  0
  2 38  1  0  0  0
  3  4  2  0  0  0
  3 20  1  0  0  0
  4  5  1  0  0  0
  4 39  1  0  0  0
  5  6  2  0  0  0
  5 29  1  0  0  0
  6 22  1  0  0  0
  7  8  2  0  0  0
  7  9  1  0  0  0
  7 25  1  0  0  0
  8 12  1  0  0  0
  9 10  2  0  0  0
  9 40  1  0  0  0
 10 11  1  0  0  0
 10 23  1  0  0  0
 11 12  2  0  0  0
 11 41  1  0  0  0
 12 42  1  0  0  0
 13 14  2  0  0  0
 13 18  1  0  0  0
 13 43  1  0  0  0
 14 15  1  0  0  0
 14 21  1  0  0  0
 15 16  2  0  0  0
 15 24  1  0  0  0
 16 17  1  0  0  0
 16 44  1  0  0  0
 17 18  2  0  0  0
 17 45  1  0  0  0
 18 23  1  0  0  0
 19 20  1  0  0  0
 19 21  2  0  0  0
 19 24  1  0  0  0
 20 46  1  0  0  0
 25 26  2  0  0  0
 25 27  1  0  0  0
 27 28  1  0  0  0
 27 47  1  0  0  0
 28 48  1  0  0  0
 28 49  1  0  0  0
 28 50  1  0  0  0
 29 30  1  0  0  0
 30 35  1  0  0  0
 30 51  1  0  0  0
 30 52  1  0  0  0
 31 32  1  0  0  0
 31 35  1  0  0  0
 31 36  1  0  0  0
 31 53  1  0  0  0
 32 33  1  0  0  0
 32 54  1  0  0  0
 32 55  1  0  0  0
 33 34  1  0  0  0
 33 56  1  0  0  0
 33 57  1  0  0  0
 34 35  1  0  0  0
 34 58  1  0  0  0
 34 59  1  0  0  0
 35 60  1  0  0  0
 36 61  1  0  0  0
 36 62  1  0  0  0
 36 63  1  0  0  0
M  CHG  1  31   1
M  END
> <s_m_source_file>
../2qu6_ligand.sdf

> <i_m_source_file_index>
1

> <s_epik_input>
W0NIM11bTkBASCtdMVtDSDJdW0NIMl1bQ0gyXVtDQEhdMVtDSDJdT2MoW2NIXTIpYyhDbClbY0hdW2NIXWMyW05IXWMobjMpb2MoYzM0KVtjSF1bY0hdYyhbY0hdNClPYyhbY0hdNSlbY0hdW2NIXW5jNUMoPU8pW05IXVtDSDNd

> <s_epik_cmdline>
J2VwaWtfYXBwJywgJy1pbWFlJywgJ2xpZ2FuZF9wcm8ubWFlJywgJy1vbWFlJywgJ2xpZ2FuZF9wcmVwLm1hZScsICctbXMnLCAnMScsICctcGgnLCAnNycsICctcGh0JywgJzAuNScsICctbnQn

> <r_lp_tautomer_probability>
1

> <r_epik_Ionization_Penalty>
  0.0275

> <r_epik_Ionization_Penalty_Charging>
  0.0122

> <r_epik_Ionization_Penalty_Neutral>
  0.0153

> <r_epik_State_Penalty>
 -0.0000

> <r_epik_Charging_Adjusted_Penalty>
0.012195526933822

> <i_epik_Tot_Q>
1

> <i_epik_Tot_abs_Q>
1

$$$$
