2qv7_ligand
                    3D
 Schrodinger Suite 2020-3.
 39 41  0  0  1  0            999 V2000
   70.4880   42.0690   27.0210 P   0  0  0  0  0  0
   70.8080   43.5390   27.1680 O   0  5  0  0  0  0
   70.6270   41.5660   25.6060 O   0  0  0  0  0  0
   71.1460   41.1530   28.0250 O   0  5  0  0  0  0
   67.9850   40.7810   27.7640 P   0  0  2  0  0  0
   68.7400   39.5050   27.5200 O   0  0  0  0  0  0
   66.6410   40.9810   27.1110 O   0  5  0  0  0  0
   68.9060   42.0640   27.3840 O   0  0  0  0  0  0
   67.7130   40.9590   29.3380 O   0  0  0  0  0  0
   68.7080   40.7000   30.3260 C   0  0  0  0  0  0
   68.0500   40.2100   31.6140 C   0  0  1  0  0  0
   67.5430   41.3110   32.3770 O   0  0  0  0  0  0
   66.8570   39.2950   31.3610 C   0  0  1  0  0  0
   67.2400   37.9170   31.4470 O   0  0  0  0  0  0
   65.8590   39.6420   32.4460 C   0  0  1  0  0  0
   65.7960   38.5660   33.3790 O   0  0  0  0  0  0
   66.4010   40.8880   33.1350 C   0  0  2  0  0  0
   65.4110   41.9940   33.2010 N   0  0  0  0  0  0
   64.1820   42.0220   32.6460 C   0  0  0  0  0  0
   63.5550   43.1980   32.8950 N   0  0  0  0  0  0
   64.3920   43.9540   33.6230 C   0  0  0  0  0  0
   64.3600   45.3070   34.2210 C   0  0  0  0  0  0
   63.2700   46.0990   34.0770 N   0  0  0  0  0  0
   65.4530   45.7240   34.9120 N   0  0  0  0  0  0
   66.5440   44.9430   35.0540 C   0  0  0  0  0  0
   66.6380   43.7030   34.5330 N   0  0  0  0  0  0
   65.6150   43.1590   33.8240 C   0  0  0  0  0  0
   69.3994   39.9283   29.9566 H   0  0  0  0  0  0
   69.2673   41.6240   30.5342 H   0  0  0  0  0  0
   68.8321   39.7026   32.1979 H   0  0  0  0  0  0
   66.4445   39.3778   30.3447 H   0  0  0  0  0  0
   67.9619   37.5009   30.7288 H   0  0  0  0  0  0
   64.8317   39.7651   32.0725 H   0  0  0  0  0  0
   65.4268   37.5807   33.0582 H   0  0  0  0  0  0
   66.6943   40.6752   34.1736 H   0  0  0  0  0  0
   63.7484   41.2039   32.0709 H   0  0  0  0  0  0
   62.3979   45.7372   33.5125 H   0  0  0  0  0  0
   63.2572   47.1038   34.5246 H   0  0  0  0  0  0
   67.3911   45.3338   35.6177 H   0  0  0  0  0  0
  1  2  1  0  0  0
  1  3  2  0  0  0
  1  4  1  0  0  0
  1  8  1  0  0  0
  5  6  2  0  0  0
  5  7  1  0  0  0
  5  8  1  0  0  0
  5  9  1  0  0  0
  9 10  1  0  0  0
 10 11  1  0  0  0
 10 28  1  0  0  0
 10 29  1  0  0  0
 11 12  1  0  0  0
 11 13  1  0  0  0
 11 30  1  0  0  0
 12 17  1  0  0  0
 13 14  1  0  0  0
 13 15  1  0  0  0
 13 31  1  0  0  0
 14 32  1  0  0  0
 15 16  1  0  0  0
 15 17  1  0  0  0
 15 33  1  0  0  0
 16 34  1  0  0  0
 17 18  1  0  0  0
 17 35  1  0  0  0
 18 19  1  0  0  0
 18 27  1  0  0  0
 19 20  2  0  0  0
 19 36  1  0  0  0
 20 21  1  0  0  0
 21 22  2  0  0  0
 21 27  1  0  0  0
 22 23  1  0  0  0
 22 24  1  0  0  0
 23 37  1  0  0  0
 23 38  1  0  0  0
 24 25  2  0  0  0
 25 26  1  0  0  0
 25 39  1  0  0  0
 26 27  2  0  0  0
M  CHG  3   2  -1   4  -1   7  -1
M  END
> <s_m_source_file>
../2qv7_ligand.sdf

> <i_m_source_file_index>
1

> <s_epik_input>
W09IXVAoPU8pKFtPSF0pT1tQQF0oPU8pKFtPSF0pT1tDSDJdW0NASF0xT1tDQEhdKFtDQEhdKFtPSF0pW0NAQEhdMVtPSF0pbihbY0hdbjIpYyhjMjMpbltjSF1uYzNbTkgyXQ==

> <s_epik_cmdline>
J2VwaWtfYXBwJywgJy1pbWFlJywgJ2xpZ2FuZF9wcm8ubWFlJywgJy1vbWFlJywgJ2xpZ2FuZF9wcmVwLm1hZScsICctbXMnLCAnMScsICctcGgnLCAnNycsICctcGh0JywgJzAuNScsICctbnQn

> <r_lp_tautomer_probability>
0.999997216410988

> <r_epik_Ionization_Penalty>
  0.1037

> <r_epik_Ionization_Penalty_Charging>
  0.1033

> <r_epik_Ionization_Penalty_Neutral>
  0.0004

> <r_epik_State_Penalty>
  0.0922

> <r_epik_Charging_Adjusted_Penalty>
0.19546844050481

> <i_epik_Tot_Q>
-3

> <i_epik_Tot_abs_Q>
3

> <s_epik_Chemistry_Notes>
This compound contains an acetal/aminal-like group ( X-CH(R)-Y where X, Y are N, S, or O) that may be acid/base labile, releasing an aldehyde.

$$$$
