2qve_ligand
                    3D
 Schrodinger Suite 2020-3.
 23 23  0  0  1  0            999 V2000
  -25.2590    9.2650   30.3930 C   0  0  0  0  0  0
  -25.4720    7.9670   30.8480 C   0  0  0  0  0  0
  -25.4800    7.7010   32.2120 C   0  0  0  0  0  0
  -25.7420    6.4440   32.6590 O   0  0  0  0  0  0
  -25.2650    8.7320   33.1190 C   0  0  0  0  0  0
  -25.0520   10.0290   32.6660 C   0  0  0  0  0  0
  -25.0550   10.2980   31.3010 C   0  0  0  0  0  0
  -24.9050   11.7420   30.8130 C   0  0  1  0  0  0
  -23.4830   12.1130   30.8180 N   0  0  0  0  0  0
  -25.4670   11.8740   29.3950 C   0  0  0  0  0  0
  -25.7040   13.3360   29.0150 C   0  0  0  0  0  0
  -25.4550   14.2020   29.8800 O   0  0  0  0  0  0
  -26.1410   13.5580   27.8640 O   0  5  0  0  0  0
  -26.4140   11.3360   29.3390 F   0  0  0  0  0  0
  -24.7620   11.4340   28.6910 F   0  0  0  0  0  0
  -25.2521    9.4721   29.3229 H   0  0  0  0  0  0
  -25.6326    7.1589   30.1343 H   0  0  0  0  0  0
  -25.9120    5.6289   31.9402 H   0  0  0  0  0  0
  -25.2634    8.5230   34.1888 H   0  0  0  0  0  0
  -24.8827   10.8349   33.3801 H   0  0  0  0  0  0
  -25.4262   12.4328   31.4921 H   0  0  0  0  0  0
  -22.9266   11.4416   30.1475 H   0  0  0  0  0  0
  -23.3737   13.1511   30.4709 H   0  0  0  0  0  0
  1  2  2  0  0  0
  1  7  1  0  0  0
  1 16  1  0  0  0
  2  3  1  0  0  0
  2 17  1  0  0  0
  3  4  1  0  0  0
  3  5  2  0  0  0
  4 18  1  0  0  0
  5  6  1  0  0  0
  5 19  1  0  0  0
  6  7  2  0  0  0
  6 20  1  0  0  0
  7  8  1  0  0  0
  8  9  1  0  0  0
  8 10  1  0  0  0
  8 21  1  0  0  0
  9 22  1  0  0  0
  9 23  1  0  0  0
 10 11  1  0  0  0
 10 14  1  0  0  0
 10 15  1  0  0  0
 11 12  2  0  0  0
 11 13  1  0  0  0
M  CHG  1  13  -1
M  END
> <s_m_source_file>
../2qve_ligand.sdf

> <i_m_source_file_index>
1

> <s_epik_input>
W09IXWMxW2NIXVtjSF1jKFtjSF1bY0hdMSlbQ0BASF0oW05IMytdKUMoRikoRilDKD1PKVtPSF0=

> <s_epik_cmdline>
J2VwaWtfYXBwJywgJy1pbWFlJywgJ2xpZ2FuZF9wcm8ubWFlJywgJy1vbWFlJywgJ2xpZ2FuZF9wcmVwLm1hZScsICctbXMnLCAnMScsICctcGgnLCAnNycsICctcGh0JywgJzAuNScsICctbnQn

> <r_lp_tautomer_probability>
0.999999999997365

> <r_epik_Ionization_Penalty>
  0.3952

> <r_epik_Ionization_Penalty_Charging>
  0.0000

> <r_epik_Ionization_Penalty_Neutral>
  0.3952

> <r_epik_State_Penalty>
  0.3930

> <r_epik_Charging_Adjusted_Penalty>
0.393000473635032

> <i_epik_Tot_Q>
-1

> <i_epik_Tot_abs_Q>
1

$$$$
