2qwb_ligand
                    3D
 Schrodinger Suite 2020-3.
 39 39  0  0  1  0            999 V2000
   23.7280   19.8370   64.9840 C   0  0  0  0  0  0
   24.5860   18.6640   64.5290 C   0  0  2  0  0  0
   23.6070   17.6050   63.9200 C   0  0  0  0  0  0
   24.2190   16.8050   62.7910 C   0  0  1  0  0  0
   25.7570   16.8310   62.8300 C   0  0  2  0  0  0
   26.2740   18.2280   62.6740 C   0  0  2  0  0  0
   27.7770   18.3750   62.9660 C   0  0  1  0  0  0
   28.2180   19.8470   62.7670 C   0  0  1  0  0  0
   29.7330   19.9880   63.0740 C   0  0  0  0  0  0
   26.9900   15.0050   61.7830 C   0  0  0  0  0  0
   27.4530   14.2730   60.5880 C   0  0  0  0  0  0
   26.2350   16.0890   61.6450 N   0  0  0  0  0  0
   22.5170   19.7150   65.2880 O   0  5  0  0  0  0
   24.3390   20.9240   64.9930 O   0  0  0  0  0  0
   25.2890   18.1400   65.6500 O   0  0  0  0  0  0
   23.7990   15.4950   62.8360 O   0  0  0  0  0  0
   25.5780   19.1040   63.5680 O   0  0  0  0  0  0
   28.0060   17.9880   64.2750 O   0  0  0  0  0  0
   27.9290   20.0430   61.4080 O   0  0  0  0  0  0
   30.4070   19.4510   62.0060 O   0  0  0  0  0  0
   27.3030   14.5510   62.8850 O   0  0  0  0  0  0
   23.3024   16.8946   64.7026 H   0  0  0  0  0  0
   22.7175   18.1146   63.5211 H   0  0  0  0  0  0
   23.8216   17.1851   61.8383 H   0  0  0  0  0  0
   26.1278   16.4015   63.7724 H   0  0  0  0  0  0
   26.0498   18.5171   61.6366 H   0  0  0  0  0  0
   28.3888   17.6860   62.3652 H   0  0  0  0  0  0
   27.6858   20.6166   63.3454 H   0  0  0  0  0  0
   29.9843   21.0516   63.1990 H   0  0  0  0  0  0
   29.9718   19.4436   63.9995 H   0  0  0  0  0  0
   27.1017   14.7896   59.6826 H   0  0  0  0  0  0
   27.0500   13.2496   60.6059 H   0  0  0  0  0  0
   28.5523   14.2342   60.5849 H   0  0  0  0  0  0
   25.9661   16.4330   60.6354 H   0  0  0  0  0  0
   26.0157   18.7681   66.1861 H   0  0  0  0  0  0
   22.7243   15.2610   62.8180 H   0  0  0  0  0  0
   27.7517   16.9682   64.5995 H   0  0  0  0  0  0
   26.8911   19.9716   61.0505 H   0  0  0  0  0  0
   31.5069   19.4391   61.9994 H   0  0  0  0  0  0
  1 14  2  0  0  0
  1 13  1  0  0  0
  1  2  1  0  0  0
  2 17  1  0  0  0
  2 15  1  0  0  0
  2  3  1  0  0  0
  3  4  1  0  0  0
  3 22  1  0  0  0
  3 23  1  0  0  0
  4 16  1  0  0  0
  4  5  1  0  0  0
  4 24  1  0  0  0
  5 12  1  0  0  0
  5  6  1  0  0  0
  5 25  1  0  0  0
  6 17  1  0  0  0
  6  7  1  0  0  0
  6 26  1  0  0  0
  7 18  1  0  0  0
  7  8  1  0  0  0
  7 27  1  0  0  0
  8 19  1  0  0  0
  8  9  1  0  0  0
  8 28  1  0  0  0
  9 20  1  0  0  0
  9 29  1  0  0  0
  9 30  1  0  0  0
 10 12  1  0  0  0
 10 21  2  0  0  0
 10 11  1  0  0  0
 11 31  1  0  0  0
 11 32  1  0  0  0
 11 33  1  0  0  0
 12 34  1  0  0  0
 15 35  1  0  0  0
 16 36  1  0  0  0
 18 37  1  0  0  0
 19 38  1  0  0  0
 20 39  1  0  0  0
M  CHG  1  13  -1
M  END
> <s_m_source_file>
../2qwb_ligand.sdf

> <i_m_source_file_index>
1

> <s_epik_input>
W09IXUMoPU8pW0NAQF0xKFtPSF0pW0NIMl1bQ0BIXShbT0hdKVtDQEBIXShbTkhdQyg9TylbQ0gzXSlbQ0BASF0oTzEpW0NASF0oW09IXSlbQ0BIXShbT0hdKVtDSDJdW09IXQ==

> <s_epik_cmdline>
J2VwaWtfYXBwJywgJy1pbWFlJywgJ2xpZ2FuZF9wcm8ubWFlJywgJy1vbWFlJywgJ2xpZ2FuZF9wcmVwLm1hZScsICctbXMnLCAnMScsICctcGgnLCAnNycsICctcGh0JywgJzAuNScsICctbnQn

> <r_lp_tautomer_probability>
1

> <r_epik_Ionization_Penalty>
  0.0000

> <r_epik_Ionization_Penalty_Charging>
  0.0000

> <r_epik_Ionization_Penalty_Neutral>
  0.0000

> <r_epik_State_Penalty>
 -0.0000

> <r_epik_Charging_Adjusted_Penalty>
2.59170082529691e-05

> <i_epik_Tot_Q>
-1

> <i_epik_Tot_abs_Q>
1

$$$$
