2qwc_ligand
                    3D
 Schrodinger Suite 2020-3.
 36 36  0  0  1  0            999 V2000
   23.5770   19.7040   64.8560 C   0  0  0  0  0  0
   24.2480   18.7040   64.1040 C   0  0  0  0  0  0
   23.5930   17.5840   63.6500 C   0  0  0  0  0  0
   24.2690   16.6160   62.6750 C   0  0  1  0  0  0
   25.8490   16.7350   62.7850 C   0  0  2  0  0  0
   26.2320   18.2040   62.7210 C   0  0  2  0  0  0
   27.7600   18.4130   62.8160 C   0  0  1  0  0  0
   28.1600   19.8920   62.7310 C   0  0  1  0  0  0
   29.6910   20.1650   62.9680 C   0  0  0  0  0  0
   27.1160   14.9180   61.6870 C   0  0  0  0  0  0
   27.5650   14.2040   60.4000 C   0  0  0  0  0  0
   26.3710   16.0140   61.5960 N   0  0  0  0  0  0
   24.2610   20.6920   65.1850 O   0  0  0  0  0  0
   22.3780   19.5990   65.2090 O   0  5  0  0  0  0
   23.8210   15.3410   63.0240 O   0  0  0  0  0  0
   25.6370   18.8680   63.8120 O   0  0  0  0  0  0
   28.1690   17.9140   64.0970 O   0  0  0  0  0  0
   27.8350   20.2490   61.4530 O   0  0  0  0  0  0
   30.3910   19.4290   61.9940 O   0  0  0  0  0  0
   27.5250   14.4910   62.7700 O   0  0  0  0  0  0
   22.5675   17.3721   63.9870 H   0  0  0  0  0  0
   23.9382   16.7524   61.6348 H   0  0  0  0  0  0
   26.3001   16.3146   63.6959 H   0  0  0  0  0  0
   25.8260   18.6440   61.7982 H   0  0  0  0  0  0
   28.2788   17.8566   62.0215 H   0  0  0  0  0  0
   27.5734   20.5099   63.4268 H   0  0  0  0  0  0
   29.8920   21.2414   62.8632 H   0  0  0  0  0  0
   29.9696   19.8368   63.9803 H   0  0  0  0  0  0
   27.1167   14.7032   59.5283 H   0  0  0  0  0  0
   27.2377   13.1542   60.4298 H   0  0  0  0  0  0
   28.6615   14.2442   60.3219 H   0  0  0  0  0  0
   26.1445   16.3840   60.5852 H   0  0  0  0  0  0
   22.7462   15.1088   62.9955 H   0  0  0  0  0  0
   27.9759   16.8650   64.3659 H   0  0  0  0  0  0
   26.8015   20.1316   61.0951 H   0  0  0  0  0  0
   31.4900   19.4645   61.9623 H   0  0  0  0  0  0
  1 14  1  0  0  0
  1 13  2  0  0  0
  1  2  1  0  0  0
  2 16  1  0  0  0
  2  3  2  0  0  0
  3  4  1  0  0  0
  3 21  1  0  0  0
  4 15  1  0  0  0
  4  5  1  0  0  0
  4 22  1  0  0  0
  5 12  1  0  0  0
  5  6  1  0  0  0
  5 23  1  0  0  0
  6 16  1  0  0  0
  6  7  1  0  0  0
  6 24  1  0  0  0
  7 17  1  0  0  0
  7  8  1  0  0  0
  7 25  1  0  0  0
  8 18  1  0  0  0
  8  9  1  0  0  0
  8 26  1  0  0  0
  9 19  1  0  0  0
  9 27  1  0  0  0
  9 28  1  0  0  0
 10 12  1  0  0  0
 10 20  2  0  0  0
 10 11  1  0  0  0
 11 29  1  0  0  0
 11 30  1  0  0  0
 11 31  1  0  0  0
 12 32  1  0  0  0
 15 33  1  0  0  0
 17 34  1  0  0  0
 18 35  1  0  0  0
 19 36  1  0  0  0
M  CHG  1  14  -1
M  END
> <s_m_source_file>
../2qwc_ligand.sdf

> <i_m_source_file_index>
1

> <s_epik_input>
Tz1DKFtPSF0pQzE9W0NIXVtDQEhdKFtPSF0pW0NAQEhdKFtOSF1DKD1PKVtDSDNdKVtDQEBIXShPMSlbQ0BIXShbT0hdKVtDQEhdKFtPSF0pW0NIMl1bT0hd

> <s_epik_cmdline>
J2VwaWtfYXBwJywgJy1pbWFlJywgJ2xpZ2FuZF9wcm8ubWFlJywgJy1vbWFlJywgJ2xpZ2FuZF9wcmVwLm1hZScsICctbXMnLCAnMScsICctcGgnLCAnNycsICctcGh0JywgJzAuNScsICctbnQn

> <r_lp_tautomer_probability>
1

> <r_epik_Ionization_Penalty>
  0.0004

> <r_epik_Ionization_Penalty_Charging>
  0.0004

> <r_epik_Ionization_Penalty_Neutral>
  0.0000

> <r_epik_State_Penalty>
 -0.0000

> <r_epik_Charging_Adjusted_Penalty>
0.000352443490958098

> <i_epik_Tot_Q>
-1

> <i_epik_Tot_abs_Q>
1

$$$$
