2qwd_ligand
                    3D
 Schrodinger Suite 2020-3.
 38 38  0  0  1  0            999 V2000
   23.5470   19.8230   64.7940 C   0  0  0  0  0  0
   24.2390   20.8000   65.1250 O   0  0  0  0  0  0
   22.3200   19.7880   65.0250 O   0  5  0  0  0  0
   24.1870   18.8070   64.0730 C   0  0  0  0  0  0
   23.4970   17.7800   63.4710 C   0  0  0  0  0  0
   24.1870   16.6940   62.6390 C   0  0  2  0  0  0
   23.6370   15.4220   63.0820 N   0  3  0  0  0  0
   25.7000   16.7500   62.8310 C   0  0  1  0  0  0
   26.3270   16.0380   61.6930 N   0  0  0  0  0  0
   26.9210   14.8610   61.8820 C   0  0  0  0  0  0
   27.0190   14.3290   62.9950 O   0  0  0  0  0  0
   27.5300   14.1630   60.6590 C   0  0  0  0  0  0
   26.1490   18.2140   62.8170 C   0  0  1  0  0  0
   25.5780   18.8420   63.9410 O   0  0  0  0  0  0
   27.6690   18.3560   62.9040 C   0  0  2  0  0  0
   28.1410   17.7310   64.0780 O   0  0  0  0  0  0
   28.0520   19.8270   62.9040 C   0  0  2  0  0  0
   27.7350   20.2000   61.6320 O   0  0  0  0  0  0
   29.5230   20.1060   63.1000 C   0  0  0  0  0  0
   30.2940   19.3680   62.2300 O   0  0  0  0  0  0
   22.4041   17.7151   63.5774 H   0  0  0  0  0  0
   23.9865   16.7895   61.5616 H   0  0  0  0  0  0
   22.5478   15.4200   62.9281 H   0  0  0  0  0  0
   23.8566   15.2798   64.1504 H   0  0  0  0  0  0
   24.0907   14.6046   62.5024 H   0  0  0  0  0  0
   26.0051   16.2640   63.7695 H   0  0  0  0  0  0
   26.3032   16.4812   60.6865 H   0  0  0  0  0  0
   27.3500   14.7728   59.7614 H   0  0  0  0  0  0
   27.0637   13.1750   60.5307 H   0  0  0  0  0  0
   28.6130   14.0407   60.8081 H   0  0  0  0  0  0
   25.7809   18.7250   61.9151 H   0  0  0  0  0  0
   28.1715   17.8241   62.0827 H   0  0  0  0  0  0
   27.9524   16.6602   64.2449 H   0  0  0  0  0  0
   27.5072   20.4058   63.6644 H   0  0  0  0  0  0
   26.7041   20.0850   61.2659 H   0  0  0  0  0  0
   29.7206   21.1734   62.9224 H   0  0  0  0  0  0
   29.8116   19.8460   64.1291 H   0  0  0  0  0  0
   31.3898   19.4620   62.2508 H   0  0  0  0  0  0
  1  4  1  0  0  0
  1  3  1  0  0  0
  1  2  2  0  0  0
  4 14  1  0  0  0
  4  5  2  0  0  0
  5  6  1  0  0  0
  5 21  1  0  0  0
  6  8  1  0  0  0
  6  7  1  0  0  0
  6 22  1  0  0  0
  7 23  1  0  0  0
  7 24  1  0  0  0
  7 25  1  0  0  0
  8 13  1  0  0  0
  8  9  1  0  0  0
  8 26  1  0  0  0
  9 10  1  0  0  0
  9 27  1  0  0  0
 10 12  1  0  0  0
 10 11  2  0  0  0
 12 28  1  0  0  0
 12 29  1  0  0  0
 12 30  1  0  0  0
 13 15  1  0  0  0
 13 14  1  0  0  0
 13 31  1  0  0  0
 15 17  1  0  0  0
 15 16  1  0  0  0
 15 32  1  0  0  0
 16 33  1  0  0  0
 17 19  1  0  0  0
 17 18  1  0  0  0
 17 34  1  0  0  0
 18 35  1  0  0  0
 19 20  1  0  0  0
 19 36  1  0  0  0
 19 37  1  0  0  0
 20 38  1  0  0  0
M  CHG  2   3  -1   7   1
M  END
> <s_m_source_file>
../2qwd_ligand.sdf

> <i_m_source_file_index>
1

> <s_epik_input>
Tz1DKFtPSF0pQzE9W0NIXVtDQEhdKFtOSDMrXSlbQ0BASF0oW05IXUMoPU8pW0NIM10pW0NAQEhdKE8xKVtDQEhdKFtPSF0pW0NASF0oW09IXSlbQ0gyXVtPSF0=

> <s_epik_cmdline>
J2VwaWtfYXBwJywgJy1pbWFlJywgJ2xpZ2FuZF9wcm8ubWFlJywgJy1vbWFlJywgJ2xpZ2FuZF9wcmVwLm1hZScsICctbXMnLCAnMScsICctcGgnLCAnNycsICctcGh0JywgJzAuNScsICctbnQn

> <r_epik_Ionization_Penalty>
  0.1131

> <r_epik_Ionization_Penalty_Charging>
  0.1131

> <r_epik_Ionization_Penalty_Neutral>
  0.0000

> <r_epik_State_Penalty>
  0.1027

> <r_epik_Charging_Adjusted_Penalty>
0.215868348923547

> <i_epik_Tot_Q>
0

> <i_epik_Tot_abs_Q>
2

$$$$
