2qwe_ligand
                    3D
 Schrodinger Suite 2020-3.
 43 43  0  0  1  0            999 V2000
   23.5900   19.7430   64.7850 C   0  0  0  0  0  0
   24.3030   18.7620   64.0840 C   0  0  0  0  0  0
   23.6740   17.6240   63.5690 C   0  0  0  0  0  0
   24.3480   16.6530   62.6020 C   0  0  1  0  0  0
   25.8650   16.7360   62.8420 C   0  0  2  0  0  0
   26.3000   18.2030   62.7870 C   0  0  2  0  0  0
   27.8160   18.3480   62.9150 C   0  0  1  0  0  0
   28.2250   19.8380   63.0090 C   0  0  1  0  0  0
   29.7320   20.1250   63.1090 C   0  0  0  0  0  0
   27.0310   14.7840   61.9000 C   0  0  0  0  0  0
   27.6800   14.2030   60.6390 C   0  0  0  0  0  0
   26.5400   16.0100   61.7400 N   0  0  0  0  0  0
   23.8240   15.2990   62.7340 N   0  0  0  0  0  0
   23.7700   14.3740   61.7680 C   0  0  0  0  0  0
   23.8750   14.7120   60.4780 N   0  0  0  0  0  0
   23.6430   13.0920   62.1020 N   0  3  0  0  0  0
   24.1940   20.7960   65.0460 O   0  0  0  0  0  0
   22.3740   19.6110   65.0730 O   0  5  0  0  0  0
   25.6830   18.9100   63.8820 O   0  0  0  0  0  0
   28.2320   17.6940   64.0550 O   0  0  0  0  0  0
   27.8180   20.3710   61.8230 O   0  0  0  0  0  0
   30.4290   19.4520   62.1410 O   0  0  0  0  0  0
   26.9920   14.1770   62.9710 O   0  0  0  0  0  0
   22.6387   17.3897   63.8576 H   0  0  0  0  0  0
   24.0989   16.8872   61.5565 H   0  0  0  0  0  0
   26.1453   16.2828   63.8043 H   0  0  0  0  0  0
   25.9580   18.6563   61.8449 H   0  0  0  0  0  0
   28.3310   17.8330   62.0907 H   0  0  0  0  0  0
   27.7258   20.3220   63.8614 H   0  0  0  0  0  0
   29.9090   21.2034   62.9835 H   0  0  0  0  0  0
   30.1016   19.8050   64.0944 H   0  0  0  0  0  0
   27.5911   14.9258   59.8146 H   0  0  0  0  0  0
   27.1717   13.2674   60.3628 H   0  0  0  0  0  0
   28.7430   13.9988   60.8346 H   0  0  0  0  0  0
   26.6470   16.4843   60.7533 H   0  0  0  0  0  0
   23.4231   14.9561   63.6992 H   0  0  0  0  0  0
   23.9803   15.7693   60.1933 H   0  0  0  0  0  0
   23.8561   13.9327   59.7019 H   0  0  0  0  0  0
   23.5561   12.8054   63.1604 H   0  0  0  0  0  0
   28.0323   16.6191   64.1763 H   0  0  0  0  0  0
   26.7639   20.2939   61.5183 H   0  0  0  0  0  0
   31.5226   19.5538   62.0795 H   0  0  0  0  0  0
   23.6250   12.3190   61.3196 H   0  0  0  0  0  0
  1 18  1  0  0  0
  1 17  2  0  0  0
  1  2  1  0  0  0
  2 19  1  0  0  0
  2  3  2  0  0  0
  3  4  1  0  0  0
  3 24  1  0  0  0
  4 13  1  0  0  0
  4  5  1  0  0  0
  4 25  1  0  0  0
  5 12  1  0  0  0
  5  6  1  0  0  0
  5 26  1  0  0  0
  6 19  1  0  0  0
  6  7  1  0  0  0
  6 27  1  0  0  0
  7 20  1  0  0  0
  7  8  1  0  0  0
  7 28  1  0  0  0
  8 21  1  0  0  0
  8  9  1  0  0  0
  8 29  1  0  0  0
  9 22  1  0  0  0
  9 30  1  0  0  0
  9 31  1  0  0  0
 10 12  1  0  0  0
 10 23  2  0  0  0
 10 11  1  0  0  0
 11 32  1  0  0  0
 11 33  1  0  0  0
 11 34  1  0  0  0
 12 35  1  0  0  0
 13 14  1  0  0  0
 13 36  1  0  0  0
 14 16  2  0  0  0
 14 15  1  0  0  0
 15 37  1  0  0  0
 15 38  1  0  0  0
 16 39  1  0  0  0
 16 43  1  0  0  0
 20 40  1  0  0  0
 21 41  1  0  0  0
 22 42  1  0  0  0
M  CHG  2  16   1  18  -1
M  END
> <s_m_source_file>
../2qwe_ligand.sdf

> <i_m_source_file_index>
1

> <s_epik_input>
Tz1DKFtPSF0pQzE9W0NIXVtDQEhdKFtOSF0vQyhbTkgyXSk9TlxbSF0pW0NAQEhdKFtOSF1DKD1PKVtDSDNdKVtDQEBIXShPMSlbQ0BIXShbT0hdKVtDQEhdKFtPSF0pW0NIMl1bT0hd

> <s_epik_cmdline>
J2VwaWtfYXBwJywgJy1pbWFlJywgJ2xpZ2FuZF9wcm8ubWFlJywgJy1vbWFlJywgJ2xpZ2FuZF9wcmVwLm1hZScsICctbXMnLCAnMScsICctcGgnLCAnNycsICctcGh0JywgJzAuNScsICctbnQn

> <r_lp_tautomer_probability>
1

> <r_epik_Ionization_Penalty>
  0.0004

> <r_epik_Ionization_Penalty_Charging>
  0.0004

> <r_epik_Ionization_Penalty_Neutral>
  0.0000

> <r_epik_State_Penalty>
 -0.0000

> <r_epik_Charging_Adjusted_Penalty>
0.000448630169560173

> <i_epik_Tot_Q>
0

> <i_epik_Tot_abs_Q>
2

> <s_epik_Chemistry_Notes>
This compound has an imine and may undergo hydrolysis.

$$$$
