2qwf_ligand
                    3D
 Schrodinger Suite 2020-3.
 47 47  0  0  1  0            999 V2000
   23.6310   19.8290   64.8900 C   0  0  0  0  0  0
   24.2200   20.8930   65.1410 O   0  0  0  0  0  0
   22.4040   19.6700   65.1150 O   0  5  0  0  0  0
   24.4300   18.8790   64.2200 C   0  0  0  0  0  0
   23.9670   17.6970   63.9260 C   0  0  0  0  0  0
   24.5920   16.7300   62.8210 C   0  0  1  0  0  0
   25.9830   16.8760   62.7860 C   0  0  1  0  0  0
   26.5920   16.1770   61.6790 N   0  0  0  0  0  0
   27.0770   14.9490   61.8370 C   0  0  0  0  0  0
   27.0570   14.3540   62.9160 O   0  0  0  0  0  0
   27.5700   14.2900   60.5590 C   0  0  0  0  0  0
   26.2770   18.3670   62.8270 C   0  0  1  0  0  0
   25.7390   18.9350   63.9840 O   0  0  0  0  0  0
   27.7810   18.4030   62.9220 C   0  0  0  0  0  0
   28.3290   18.0560   63.9760 O   0  0  0  0  0  0
   28.4790   18.7320   61.8210 N   0  0  0  0  0  0
   27.9820   19.0860   60.4800 C   0  0  0  0  0  0
   29.9520   18.6900   62.0060 C   0  0  0  0  0  0
   30.4490   17.2880   62.4430 C   0  0  0  0  0  0
   31.9450   17.1210   62.3240 C   0  0  0  0  0  0
   24.2360   15.2910   62.9360 N   0  0  0  0  0  0
   23.8620   14.3350   61.9870 C   0  0  0  0  0  0
   23.8420   14.6590   60.6990 N   0  3  0  0  0  0
   23.6180   13.0700   62.3570 N   0  0  0  0  0  0
   23.0859   17.3043   64.4547 H   0  0  0  0  0  0
   24.2439   17.0068   61.8149 H   0  0  0  0  0  0
   26.3925   16.3339   63.6511 H   0  0  0  0  0  0
   26.6582   16.6601   60.6930 H   0  0  0  0  0  0
   27.4974   15.0050   59.7262 H   0  0  0  0  0  0
   26.9514   13.4073   60.3394 H   0  0  0  0  0  0
   28.6179   13.9808   60.6866 H   0  0  0  0  0  0
   25.8275   18.9603   62.0170 H   0  0  0  0  0  0
   26.8820   19.0798   60.4832 H   0  0  0  0  0  0
   28.3507   18.3532   59.7471 H   0  0  0  0  0  0
   28.3422   20.0893   60.2085 H   0  0  0  0  0  0
   30.4480   18.9477   61.0586 H   0  0  0  0  0  0
   30.2449   19.4128   62.7817 H   0  0  0  0  0  0
   30.1789   17.1148   63.4952 H   0  0  0  0  0  0
   29.9786   16.5192   61.8124 H   0  0  0  0  0  0
   32.2279   16.1088   62.6486 H   0  0  0  0  0  0
   32.4486   17.8641   62.9598 H   0  0  0  0  0  0
   32.2483   17.2685   61.2770 H   0  0  0  0  0  0
   24.2413   14.8001   63.9204 H   0  0  0  0  0  0
   24.0415   15.6955   60.3894 H   0  0  0  0  0  0
   23.6332   12.7958   63.4222 H   0  0  0  0  0  0
   23.4025   12.3060   61.5955 H   0  0  0  0  0  0
   23.6259   13.8908   59.9419 H   0  0  0  0  0  0
  1  4  1  0  0  0
  1  3  1  0  0  0
  1  2  2  0  0  0
  4 13  1  0  0  0
  4  5  2  0  0  0
  5  6  1  0  0  0
  5 25  1  0  0  0
  6 21  1  0  0  0
  6  7  1  0  0  0
  6 26  1  0  0  0
  7 12  1  0  0  0
  7  8  1  0  0  0
  7 27  1  0  0  0
  8  9  1  0  0  0
  8 28  1  0  0  0
  9 11  1  0  0  0
  9 10  2  0  0  0
 11 29  1  0  0  0
 11 30  1  0  0  0
 11 31  1  0  0  0
 12 14  1  0  0  0
 12 13  1  0  0  0
 12 32  1  0  0  0
 14 16  1  0  0  0
 14 15  2  0  0  0
 16 18  1  0  0  0
 16 17  1  0  0  0
 17 33  1  0  0  0
 17 34  1  0  0  0
 17 35  1  0  0  0
 18 19  1  0  0  0
 18 36  1  0  0  0
 18 37  1  0  0  0
 19 20  1  0  0  0
 19 38  1  0  0  0
 19 39  1  0  0  0
 20 40  1  0  0  0
 20 41  1  0  0  0
 20 42  1  0  0  0
 21 22  1  0  0  0
 21 43  1  0  0  0
 22 24  1  0  0  0
 22 23  2  0  0  0
 23 44  1  0  0  0
 23 47  1  0  0  0
 24 45  1  0  0  0
 24 46  1  0  0  0
M  CHG  2   3  -1  23   1
M  END
> <s_m_source_file>
../2qwf_ligand.sdf

> <i_m_source_file_index>
1

> <s_epik_input>
Tz1DKFtPSF0pQzE9W0NIXVtDQEhdKFtOSF0vQyg9TlxbSF0pW05IMl0pW0NAQEhdKFtOSF1DKD1PKVtDSDNdKVtDQEBIXShPMSlDKD1PKU4oW0NIM10pW0NIMl1bQ0gyXVtDSDNd

> <s_epik_cmdline>
J2VwaWtfYXBwJywgJy1pbWFlJywgJ2xpZ2FuZF9wcm8ubWFlJywgJy1vbWFlJywgJ2xpZ2FuZF9wcmVwLm1hZScsICctbXMnLCAnMScsICctcGgnLCAnNycsICctcGh0JywgJzAuNScsICctbnQn

> <r_lp_tautomer_probability>
1

> <r_epik_Ionization_Penalty>
  0.0006

> <r_epik_Ionization_Penalty_Charging>
  0.0006

> <r_epik_Ionization_Penalty_Neutral>
  0.0000

> <r_epik_State_Penalty>
 -0.0000

> <r_epik_Charging_Adjusted_Penalty>
0.000594812807021947

> <i_epik_Tot_Q>
0

> <i_epik_Tot_abs_Q>
2

> <s_epik_Chemistry_Notes>
This compound has an imine and may undergo hydrolysis.

$$$$
