2qwg_ligand
                    3D
 Schrodinger Suite 2020-3.
 42 42  0  0  1  0            999 V2000
   23.4500   19.6580   64.7580 C   0  0  0  0  0  0
   24.1630   20.6230   65.0690 O   0  0  0  0  0  0
   22.2240   19.6710   64.9850 O   0  5  0  0  0  0
   24.0880   18.5950   64.0810 C   0  0  0  0  0  0
   23.3800   17.5400   63.5650 C   0  0  0  0  0  0
   24.0390   16.4860   62.6690 C   0  0  1  0  0  0
   25.5350   16.4960   62.8190 C   0  0  1  0  0  0
   26.1550   15.7860   61.6720 N   0  0  0  0  0  0
   26.8950   14.7050   61.8820 C   0  0  0  0  0  0
   27.0700   14.2590   63.0090 O   0  0  0  0  0  0
   27.4990   14.0410   60.6580 C   0  0  0  0  0  0
   26.0570   17.9380   62.8380 C   0  0  1  0  0  0
   25.4940   18.6490   63.8950 O   0  0  0  0  0  0
   27.5590   17.9210   63.0960 C   0  0  0  0  0  0
   27.9090   17.5890   64.2260 O   0  0  0  0  0  0
   28.4510   18.2570   62.1550 N   0  0  0  0  0  0
   29.8330   18.1900   62.6340 C   0  0  0  0  0  0
   30.3980   16.8090   62.3030 C   0  0  0  0  0  0
   28.0510   18.6840   60.8200 C   0  0  0  0  0  0
   28.1350   20.1720   60.7760 C   0  0  0  0  0  0
   23.5780   15.2040   63.0750 N   0  3  0  0  0  0
   22.3088   17.4333   63.7912 H   0  0  0  0  0  0
   23.7661   16.6442   61.6152 H   0  0  0  0  0  0
   25.7929   15.9700   63.7500 H   0  0  0  0  0  0
   26.0009   16.1562   60.6477 H   0  0  0  0  0  0
   27.2155   14.6052   59.7573 H   0  0  0  0  0  0
   27.1243   13.0099   60.5778 H   0  0  0  0  0  0
   28.5949   14.0267   60.7519 H   0  0  0  0  0  0
   25.7617   18.4677   61.9203 H   0  0  0  0  0  0
   30.4313   18.9680   62.1373 H   0  0  0  0  0  0
   29.8522   18.3513   63.7219 H   0  0  0  0  0  0
   31.4373   16.7435   62.6573 H   0  0  0  0  0  0
   30.3712   16.6532   61.2144 H   0  0  0  0  0  0
   29.7921   16.0364   62.7990 H   0  0  0  0  0  0
   28.7279   18.2404   60.0750 H   0  0  0  0  0  0
   27.0208   18.3530   60.6224 H   0  0  0  0  0  0
   27.8383   20.5266   59.7779 H   0  0  0  0  0  0
   29.1679   20.4873   60.9851 H   0  0  0  0  0  0
   27.4608   20.5998   61.5326 H   0  0  0  0  0  0
   22.4831   15.1604   62.9780 H   0  0  0  0  0  0
   23.8606   15.0278   64.1234 H   0  0  0  0  0  0
   24.0336   14.4318   62.4377 H   0  0  0  0  0  0
  1  4  1  0  0  0
  1  3  1  0  0  0
  1  2  2  0  0  0
  4 13  1  0  0  0
  4  5  2  0  0  0
  5  6  1  0  0  0
  5 22  1  0  0  0
  6 21  1  0  0  0
  6  7  1  0  0  0
  6 23  1  0  0  0
  7 12  1  0  0  0
  7  8  1  0  0  0
  7 24  1  0  0  0
  8  9  1  0  0  0
  8 25  1  0  0  0
  9 11  1  0  0  0
  9 10  2  0  0  0
 11 26  1  0  0  0
 11 27  1  0  0  0
 11 28  1  0  0  0
 12 14  1  0  0  0
 12 13  1  0  0  0
 12 29  1  0  0  0
 14 16  1  0  0  0
 14 15  2  0  0  0
 16 19  1  0  0  0
 16 17  1  0  0  0
 17 18  1  0  0  0
 17 30  1  0  0  0
 17 31  1  0  0  0
 18 32  1  0  0  0
 18 33  1  0  0  0
 18 34  1  0  0  0
 19 20  1  0  0  0
 19 35  1  0  0  0
 19 36  1  0  0  0
 20 37  1  0  0  0
 20 38  1  0  0  0
 20 39  1  0  0  0
 21 40  1  0  0  0
 21 41  1  0  0  0
 21 42  1  0  0  0
M  CHG  2   3  -1  21   1
M  END
> <s_m_source_file>
../2qwg_ligand.sdf

> <i_m_source_file_index>
1

> <s_epik_input>
Tz1DKFtPSF0pQzE9W0NIXVtDQEhdKFtOSDMrXSlbQ0BASF0oW05IXUMoPU8pW0NIM10pW0NAQEhdKE8xKUMoPU8pTihbQ0gyXVtDSDNdKVtDSDJdW0NIM10=

> <s_epik_cmdline>
J2VwaWtfYXBwJywgJy1pbWFlJywgJ2xpZ2FuZF9wcm8ubWFlJywgJy1vbWFlJywgJ2xpZ2FuZF9wcmVwLm1hZScsICctbXMnLCAnMScsICctcGgnLCAnNycsICctcGh0JywgJzAuNScsICctbnQn

> <r_epik_Ionization_Penalty>
  0.1500

> <r_epik_Ionization_Penalty_Charging>
  0.1500

> <r_epik_Ionization_Penalty_Neutral>
  0.0000

> <r_epik_State_Penalty>
  0.1393

> <r_epik_Charging_Adjusted_Penalty>
0.289325221313121

> <i_epik_Tot_Q>
0

> <i_epik_Tot_abs_Q>
2

$$$$
