2qx0_ligand
                    3D
 Schrodinger Suite 2020-3.
 23 24  0  0  1  0            999 V2000
    3.4680    5.5500    6.9560 N   0  0  0  0  0  0
    3.2800    5.6130    8.2450 C   0  0  0  0  0  0
    3.2070    6.9820    9.0010 C   0  0  0  0  0  0
    3.3630    7.9900    8.1500 N   0  0  0  0  0  0
    3.6980    9.1120    6.0760 N   0  0  0  0  0  0
    3.8840    9.1520    4.8110 C   0  0  0  0  0  0
    4.0240   10.1260    4.0380 N   0  0  0  0  0  0
    3.9420    7.8170    4.1670 N   0  0  0  0  0  0
    3.8110    6.6480    4.8390 C   0  0  0  0  0  0
    3.8840    5.5800    4.1380 O   0  0  0  0  0  0
    3.6130    6.6720    6.1860 C   0  0  0  0  0  0
    3.5570    8.0440    6.8380 C   0  0  0  0  0  0
    3.1340    4.3740    9.0710 C   0  0  0  0  0  0
    3.2230    3.1870    8.4070 O   0  0  0  0  0  0
    2.2280    7.0772    9.4933 H   0  0  0  0  0  0
    4.0039    7.0258    9.7580 H   0  0  0  0  0  0
    3.3415    9.0271    8.5160 H   0  0  0  0  0  0
    3.9939   11.1516    4.4345 H   0  0  0  0  0  0
    4.1772    9.9566    2.9620 H   0  0  0  0  0  0
    4.0995    7.7365    3.0813 H   0  0  0  0  0  0
    2.9645    4.4525   10.1550 H   0  0  0  0  0  0
    3.1241    2.2400    8.9577 H   0  0  0  0  0  0
    3.5143    4.5723    6.4541 H   0  0  0  0  0  0
  1  2  1  0  0  0
  1 11  1  0  0  0
  1 23  1  0  0  0
  2  3  1  0  0  0
  2 13  2  0  0  0
  3  4  1  0  0  0
  3 15  1  0  0  0
  3 16  1  0  0  0
  4 12  1  0  0  0
  4 17  1  0  0  0
  5  6  2  0  0  0
  5 12  1  0  0  0
  6  7  1  0  0  0
  6  8  1  0  0  0
  7 18  1  0  0  0
  7 19  1  0  0  0
  8  9  1  0  0  0
  8 20  1  0  0  0
  9 10  2  0  0  0
  9 11  1  0  0  0
 11 12  2  0  0  0
 13 14  1  0  0  0
 13 21  1  0  0  0
 14 22  1  0  0  0
M  END
> <s_m_source_file>
../2qx0_ligand.sdf

> <i_m_source_file_index>
1

> <s_epik_input>
W09IXVtDSDJdQyg9TjEpW0NIMl1bTkhdYyhjMTIpbmMoW05IMl0pW25IXWMyPU8=

> <s_epik_cmdline>
J2VwaWtfYXBwJywgJy1pbWFlJywgJ2xpZ2FuZF9wcm8ubWFlJywgJy1vbWFlJywgJ2xpZ2FuZF9wcmVwLm1hZScsICctbXMnLCAnMScsICctcGgnLCAnNycsICctcGh0JywgJzAuNScsICctbnQn

> <r_lp_tautomer_probability>
4.99975001249937e-05

> <r_epik_Ionization_Penalty>
  0.4109

> <r_epik_Ionization_Penalty_Charging>
  0.4106

> <r_epik_Ionization_Penalty_Neutral>
  0.0002

> <r_epik_State_Penalty>
  0.4099

> <r_epik_Charging_Adjusted_Penalty>
0.820551655527484

> <i_epik_Tot_Q>
0

> <i_epik_Tot_abs_Q>
0

> <s_epik_Chemistry_Notes>
This compound has an imine and may undergo hydrolysis.

$$$$
