2qyl_ligand
                    3D
 Schrodinger Suite 2020-3.
 40 43  0  0  1  0            999 V2000
   38.7750   31.0060   -5.3300 C   0  0  0  0  0  0
   39.5680   30.5550   -4.2790 C   0  0  0  0  0  0
   39.5690   31.2310   -3.0630 C   0  0  0  0  0  0
   38.7730   32.3590   -2.8940 C   0  0  0  0  0  0
   37.9830   32.1360   -5.1630 C   0  0  0  0  0  0
   38.7190   33.0430   -1.6850 C   0  0  0  0  0  0
   39.3540   35.1490    2.7220 C   0  0  0  0  0  0
   39.7040   32.8910   -0.7140 C   0  0  0  0  0  0
   39.6140   33.6360    0.4560 C   0  0  0  0  0  0
   40.5750   33.5200    1.4530 C   0  0  0  0  0  0
   38.7530   30.3360   -6.5370 C   0  0  0  0  0  0
   38.0530   30.8140   -7.4570 O   0  5  0  0  0  0
   39.4250   29.2880   -6.6440 O   0  0  0  0  0  0
   37.9840   32.8100   -3.9470 C   0  0  0  0  0  0
   37.7020   33.8940   -1.4820 N   0  0  0  0  0  0
   40.4390   34.2890    2.6030 C   0  0  0  0  0  0
   38.4540   35.2420    1.7580 N   0  0  0  0  0  0
   38.5510   34.5150    0.6360 C   0  0  0  0  0  0
   37.5920   34.6250   -0.3650 C   0  0  0  0  0  0
   36.5100   35.4900   -0.2410 C   0  0  0  0  0  0
   35.2330   35.0290   -0.5360 C   0  0  0  0  0  0
   36.7060   36.8250    0.0980 C   0  0  0  0  0  0
   35.6240   37.6960    0.1340 C   0  0  0  0  0  0
   34.3460   37.2340   -0.1670 C   0  0  0  0  0  0
   34.1490   35.9010   -0.5040 C   0  0  0  0  0  0
   32.9320   35.4590   -0.8120 N   0  3  0  0  0  0
   31.9870   36.2130   -0.7920 O   0  0  0  0  0  0
   32.7640   34.2980   -1.1070 O   0  5  0  0  0  0
   40.1902   29.6695   -4.4089 H   0  0  0  0  0  0
   40.1935   30.8767   -2.2429 H   0  0  0  0  0  0
   37.3619   32.4933   -5.9844 H   0  0  0  0  0  0
   39.2435   35.7546    3.6215 H   0  0  0  0  0  0
   40.5322   32.1994   -0.8683 H   0  0  0  0  0  0
   41.4185   32.8397    1.3357 H   0  0  0  0  0  0
   37.3632   33.6966   -3.8181 H   0  0  0  0  0  0
   41.1758   34.2181    3.4031 H   0  0  0  0  0  0
   35.0797   33.9810   -0.7933 H   0  0  0  0  0  0
   37.7065   37.1870    0.3349 H   0  0  0  0  0  0
   35.7762   38.7425    0.3983 H   0  0  0  0  0  0
   33.4987   37.9191   -0.1382 H   0  0  0  0  0  0
  1  2  2  0  0  0
  1  5  1  0  0  0
  1 11  1  0  0  0
  2  3  1  0  0  0
  2 29  1  0  0  0
  3  4  2  0  0  0
  3 30  1  0  0  0
  4  6  1  0  0  0
  4 14  1  0  0  0
  5 14  2  0  0  0
  5 31  1  0  0  0
  6  8  2  0  0  0
  6 15  1  0  0  0
  7 16  2  0  0  0
  7 17  1  0  0  0
  7 32  1  0  0  0
  8  9  1  0  0  0
  8 33  1  0  0  0
  9 10  2  0  0  0
  9 18  1  0  0  0
 10 16  1  0  0  0
 10 34  1  0  0  0
 11 12  1  0  0  0
 11 13  2  0  0  0
 14 35  1  0  0  0
 15 19  2  0  0  0
 16 36  1  0  0  0
 17 18  2  0  0  0
 18 19  1  0  0  0
 19 20  1  0  0  0
 20 21  2  0  0  0
 20 22  1  0  0  0
 21 25  1  0  0  0
 21 37  1  0  0  0
 22 23  2  0  0  0
 22 38  1  0  0  0
 23 24  1  0  0  0
 23 39  1  0  0  0
 24 25  2  0  0  0
 24 40  1  0  0  0
 25 26  1  0  0  0
 26 27  2  0  0  0
 26 28  1  0  0  0
M  CHG  3  12  -1  26   1  28  -1
M  END
> <s_m_source_file>
../2qyl_ligand.sdf

> <i_m_source_file_index>
1

> <s_epik_input>
W09IXUMoPU8pYzFbY0hdW2NIXWMoW2NIXVtjSF0xKS1jKFtjSF0yKW5jKGMoYzIzKW5bY0hdW2NIXVtjSF0zKS1jNFtjSF1jKFtOK10oPU8pW08tXSlbY0hdW2NIXVtjSF00

> <s_epik_cmdline>
J2VwaWtfYXBwJywgJy1pbWFlJywgJ2xpZ2FuZF9wcm8ubWFlJywgJy1vbWFlJywgJ2xpZ2FuZF9wcmVwLm1hZScsICctbXMnLCAnMScsICctcGgnLCAnNycsICctcGh0JywgJzAuNScsICctbnQn

> <r_lp_tautomer_probability>
1

> <r_epik_Ionization_Penalty>
  0.0008

> <r_epik_Ionization_Penalty_Charging>
  0.0008

> <r_epik_Ionization_Penalty_Neutral>
  0.0000

> <r_epik_State_Penalty>
 -0.0000

> <r_epik_Charging_Adjusted_Penalty>
0.000762778304785084

> <i_epik_Tot_Q>
-1

> <i_epik_Tot_abs_Q>
3

$$$$
