2qyn_ligand
                    3D
 Schrodinger Suite 2020-3.
 40 43  0  0  1  0            999 V2000
    4.4730   -0.5910   51.8820 C   0  0  0  0  0  0
    5.5880   -0.2750   52.6530 C   0  0  0  0  0  0
    5.7090   -0.7650   53.9500 C   0  0  0  0  0  0
    4.7140   -1.5760   54.4870 C   0  0  0  0  0  0
    3.4770   -1.3980   52.4190 C   0  0  0  0  0  0
    4.8040   -2.1070   55.7710 C   0  0  0  0  0  0
    5.4420   -3.1670   60.5440 C   0  0  0  0  0  0
    5.5990   -1.5290   56.7550 C   0  0  0  0  0  0
    5.5790   -2.0630   58.0400 C   0  0  0  0  0  0
    6.3410   -1.5070   59.0610 C   0  0  0  0  0  0
    4.3520   -0.1420   50.5810 C   0  0  0  0  0  0
    3.2980   -0.4170   49.9680 O   0  5  0  0  0  0
    5.2970    0.5030   50.0780 O   0  0  0  0  0  0
    3.5990   -1.8870   53.7150 C   0  0  0  0  0  0
    4.0430   -3.1710   56.0680 N   0  0  0  0  0  0
    6.2700   -2.0690   60.3310 C   0  0  0  0  0  0
    4.7290   -3.6760   59.5560 N   0  0  0  0  0  0
    4.7730   -3.1610   58.3180 C   0  0  0  0  0  0
    4.0060   -3.7080   57.2950 C   0  0  0  0  0  0
    3.2150   -4.8320   57.5090 C   0  0  0  0  0  0
    3.2940   -5.8980   56.6200 C   0  0  0  0  0  0
    2.3330   -4.8900   58.5820 C   0  0  0  0  0  0
    1.5340   -6.0130   58.7640 C   0  0  0  0  0  0
    1.6140   -7.0780   57.8750 C   0  0  0  0  0  0
    2.4940   -7.0210   56.8000 C   0  0  0  0  0  0
    2.5650   -8.0330   55.9380 N   0  3  0  0  0  0
    1.8700   -9.0120   56.0930 O   0  0  0  0  0  0
    3.3230   -7.9760   54.9960 O   0  5  0  0  0  0
    6.3710    0.3600   52.2385 H   0  0  0  0  0  0
    6.5856   -0.5128   54.5467 H   0  0  0  0  0  0
    2.5990   -1.6479   51.8234 H   0  0  0  0  0  0
    5.3814   -3.6117   61.5373 H   0  0  0  0  0  0
    6.2287   -0.6701   56.5231 H   0  0  0  0  0  0
    6.9822   -0.6466   58.8697 H   0  0  0  0  0  0
    2.8142   -2.5196   54.1298 H   0  0  0  0  0  0
    6.8565   -1.6540   61.1507 H   0  0  0  0  0  0
    3.9857   -5.8533   55.7787 H   0  0  0  0  0  0
    2.2680   -4.0555   59.2802 H   0  0  0  0  0  0
    0.8432   -6.0582   59.6059 H   0  0  0  0  0  0
    0.9871   -7.9578   58.0203 H   0  0  0  0  0  0
  1  2  2  0  0  0
  1  5  1  0  0  0
  1 11  1  0  0  0
  2  3  1  0  0  0
  2 29  1  0  0  0
  3  4  2  0  0  0
  3 30  1  0  0  0
  4  6  1  0  0  0
  4 14  1  0  0  0
  5 14  2  0  0  0
  5 31  1  0  0  0
  6  8  2  0  0  0
  6 15  1  0  0  0
  7 16  2  0  0  0
  7 17  1  0  0  0
  7 32  1  0  0  0
  8  9  1  0  0  0
  8 33  1  0  0  0
  9 10  2  0  0  0
  9 18  1  0  0  0
 10 16  1  0  0  0
 10 34  1  0  0  0
 11 12  1  0  0  0
 11 13  2  0  0  0
 14 35  1  0  0  0
 15 19  2  0  0  0
 16 36  1  0  0  0
 17 18  2  0  0  0
 18 19  1  0  0  0
 19 20  1  0  0  0
 20 21  2  0  0  0
 20 22  1  0  0  0
 21 25  1  0  0  0
 21 37  1  0  0  0
 22 23  2  0  0  0
 22 38  1  0  0  0
 23 24  1  0  0  0
 23 39  1  0  0  0
 24 25  2  0  0  0
 24 40  1  0  0  0
 25 26  1  0  0  0
 26 27  2  0  0  0
 26 28  1  0  0  0
M  CHG  3  12  -1  26   1  28  -1
M  END
> <s_m_source_file>
../2qyn_ligand.sdf

> <i_m_source_file_index>
1

> <s_epik_input>
W09IXUMoPU8pYzFbY0hdW2NIXWMoW2NIXVtjSF0xKS1jKFtjSF0yKW5jKGMoYzIzKW5bY0hdW2NIXVtjSF0zKS1jNFtjSF1jKFtOK10oPU8pW08tXSlbY0hdW2NIXVtjSF00

> <s_epik_cmdline>
J2VwaWtfYXBwJywgJy1pbWFlJywgJ2xpZ2FuZF9wcm8ubWFlJywgJy1vbWFlJywgJ2xpZ2FuZF9wcmVwLm1hZScsICctbXMnLCAnMScsICctcGgnLCAnNycsICctcGh0JywgJzAuNScsICctbnQn

> <r_lp_tautomer_probability>
1

> <r_epik_Ionization_Penalty>
  0.0008

> <r_epik_Ionization_Penalty_Charging>
  0.0008

> <r_epik_Ionization_Penalty_Neutral>
  0.0000

> <r_epik_State_Penalty>
 -0.0000

> <r_epik_Charging_Adjusted_Penalty>
0.000762778304785084

> <i_epik_Tot_Q>
-1

> <i_epik_Tot_abs_Q>
3

$$$$
