2qzl_ligand
                    3D
 Schrodinger Suite 2020-3.
 91 93  0  0  1  0            999 V2000
   26.6530   45.2250    2.4670 O   0  0  0  0  0  0
   26.1400   44.9570    1.1600 S   0  0  0  0  0  0
   24.7310   44.7160    1.1860 O   0  0  0  0  0  0
   26.4340   46.3350    0.2570 C   0  0  0  0  0  0
   26.8700   43.7580    0.5120 N   0  0  0  0  0  0
   26.2110   43.0260   -0.5700 C   0  0  0  0  0  0
   28.1620   43.3310    0.9110 C   0  0  0  0  0  0
   29.1470   44.2500    1.3000 C   0  0  0  0  0  0
   30.4110   43.8110    1.6960 C   0  0  0  0  0  0
   31.4740   44.7740    2.1410 C   0  0  0  0  0  0
   31.6230   45.8520    1.5700 O   0  0  0  0  0  0
   32.2110   44.3900    3.1900 N   0  0  0  0  0  0
   33.2370   45.2040    3.8300 C   0  0  2  0  0  0
   34.5580   44.4320    3.8770 C   0  0  0  0  0  0
   32.8090   45.6510    5.1850 C   0  0  0  0  0  0
   32.4640   44.7360    6.1820 C   0  0  0  0  0  0
   32.0650   45.1850    7.4430 C   0  0  0  0  0  0
   32.7520   47.0220    5.4660 C   0  0  0  0  0  0
   32.3590   47.4720    6.7280 C   0  0  0  0  0  0
   32.0130   46.5520    7.7120 C   0  0  0  0  0  0
   31.6340   46.9780    8.9320 F   0  0  0  0  0  0
   28.4620   41.9590    0.9160 C   0  0  0  0  0  0
   29.7250   41.5140    1.3090 C   0  0  0  0  0  0
   30.6940   42.4420    1.6930 C   0  0  0  0  0  0
   30.0580   40.0520    1.3360 C   0  0  0  0  0  0
   29.6430   39.2960    0.4740 O   0  0  0  0  0  0
   30.8090   39.6210    2.3450 N   0  0  0  0  0  0
   31.4980   38.3480    2.3120 C   0  0  1  0  0  0
   32.9660   38.4960    2.7200 C   0  0  0  0  0  0
   33.7130   39.5920    1.9740 C   0  0  0  0  0  0
   33.4940   39.8480    0.6160 C   0  0  0  0  0  0
   34.1970   40.8670   -0.0380 C   0  0  0  0  0  0
   35.1280   41.6340    0.6590 C   0  0  0  0  0  0
   35.3500   41.3900    2.0140 C   0  0  0  0  0  0
   34.6450   40.3650    2.6640 C   0  0  0  0  0  0
   30.8160   37.4040    3.2960 C   0  0  0  0  0  0
   29.4180   37.2110    2.9330 N   0  3  0  0  0  0
   28.9300   35.8400    2.8050 C   0  0  1  0  0  0
   27.4130   35.8410    2.6540 C   0  0  0  0  0  0
   29.5730   35.1370    1.6370 C   0  0  0  0  0  0
   29.6580   35.7180    0.5620 O   0  0  0  0  0  0
   30.0330   33.8960    1.8120 N   0  0  0  0  0  0
   30.5110   33.1110    0.6710 C   0  0  0  0  0  0
   31.2770   31.8400    1.0420 C   0  0  0  0  0  0
   30.4680   30.9060    1.9350 C   0  0  0  0  0  0
   31.7490   31.0980   -0.2040 C   0  0  0  0  0  0
   25.9162   47.1907    0.7148 H   0  0  0  0  0  0
   26.0632   46.1877   -0.7681 H   0  0  0  0  0  0
   27.5158   46.5323    0.2308 H   0  0  0  0  0  0
   25.2240   43.4705   -0.7654 H   0  0  0  0  0  0
   26.0875   41.9727   -0.2780 H   0  0  0  0  0  0
   26.8261   43.0845   -1.4800 H   0  0  0  0  0  0
   28.9234   45.3168    1.2930 H   0  0  0  0  0  0
   31.9962   43.3793    3.5672 H   0  0  0  0  0  0
   33.3433   46.1140    3.2212 H   0  0  0  0  0  0
   34.8374   44.1211    2.8595 H   0  0  0  0  0  0
   34.4402   43.5422    4.5130 H   0  0  0  0  0  0
   35.3456   45.0779    4.2923 H   0  0  0  0  0  0
   32.5063   43.6666    5.9752 H   0  0  0  0  0  0
   31.7943   44.4666    8.2168 H   0  0  0  0  0  0
   33.0166   47.7436    4.6931 H   0  0  0  0  0  0
   32.3235   48.5404    6.9412 H   0  0  0  0  0  0
   27.7040   41.2375    0.6112 H   0  0  0  0  0  0
   31.6827   42.0955    1.9940 H   0  0  0  0  0  0
   30.8967   40.2711    3.2280 H   0  0  0  0  0  0
   31.4271   37.9996    1.2711 H   0  0  0  0  0  0
   33.0262   38.7362    3.7918 H   0  0  0  0  0  0
   33.4976   37.5529    2.5252 H   0  0  0  0  0  0
   32.7703   39.2494    0.0628 H   0  0  0  0  0  0
   34.0154   41.0607   -1.0952 H   0  0  0  0  0  0
   35.6808   42.4218    0.1472 H   0  0  0  0  0  0
   36.0694   41.9939    2.5671 H   0  0  0  0  0  0
   34.8286   40.1713    3.7208 H   0  0  0  0  0  0
   31.3263   36.4296    3.2829 H   0  0  0  0  0  0
   30.8665   37.8308    4.3086 H   0  0  0  0  0  0
   28.7740   37.6756    3.6942 H   0  0  0  0  0  0
   29.2252   37.6773    1.9555 H   0  0  0  0  0  0
   29.2291   35.3216    3.7279 H   0  0  0  0  0  0
   26.9594   36.3570    3.5131 H   0  0  0  0  0  0
   27.0478   34.8041    2.6144 H   0  0  0  0  0  0
   27.1373   36.3626    1.7256 H   0  0  0  0  0  0
   30.0512   33.4637    2.8233 H   0  0  0  0  0  0
   29.6539   32.7966    0.0574 H   0  0  0  0  0  0
   31.1916   33.7250    0.0629 H   0  0  0  0  0  0
   32.1561   32.1628    1.6190 H   0  0  0  0  0  0
   30.1336   31.4522    2.8293 H   0  0  0  0  0  0
   31.0949   30.0546    2.2384 H   0  0  0  0  0  0
   29.5918   30.5373    1.3815 H   0  0  0  0  0  0
   32.3309   31.7818   -0.8395 H   0  0  0  0  0  0
   30.8767   30.7299   -0.7640 H   0  0  0  0  0  0
   32.3799   30.2472    0.0929 H   0  0  0  0  0  0
  1  2  2  0  0  0
  2  3  2  0  0  0
  2  4  1  0  0  0
  2  5  1  0  0  0
  4 47  1  0  0  0
  4 48  1  0  0  0
  4 49  1  0  0  0
  5  6  1  0  0  0
  5  7  1  0  0  0
  6 50  1  0  0  0
  6 51  1  0  0  0
  6 52  1  0  0  0
  7  8  2  0  0  0
  7 22  1  0  0  0
  8  9  1  0  0  0
  8 53  1  0  0  0
  9 10  1  0  0  0
  9 24  2  0  0  0
 10 11  2  0  0  0
 10 12  1  0  0  0
 12 13  1  0  0  0
 12 54  1  0  0  0
 13 14  1  0  0  0
 13 15  1  0  0  0
 13 55  1  0  0  0
 14 56  1  0  0  0
 14 57  1  0  0  0
 14 58  1  0  0  0
 15 16  2  0  0  0
 15 18  1  0  0  0
 16 17  1  0  0  0
 16 59  1  0  0  0
 17 20  2  0  0  0
 17 60  1  0  0  0
 18 19  2  0  0  0
 18 61  1  0  0  0
 19 20  1  0  0  0
 19 62  1  0  0  0
 20 21  1  0  0  0
 22 23  2  0  0  0
 22 63  1  0  0  0
 23 24  1  0  0  0
 23 25  1  0  0  0
 24 64  1  0  0  0
 25 26  2  0  0  0
 25 27  1  0  0  0
 27 28  1  0  0  0
 27 65  1  0  0  0
 28 29  1  0  0  0
 28 36  1  0  0  0
 28 66  1  0  0  0
 29 30  1  0  0  0
 29 67  1  0  0  0
 29 68  1  0  0  0
 30 31  2  0  0  0
 30 35  1  0  0  0
 31 32  1  0  0  0
 31 69  1  0  0  0
 32 33  2  0  0  0
 32 70  1  0  0  0
 33 34  1  0  0  0
 33 71  1  0  0  0
 34 35  2  0  0  0
 34 72  1  0  0  0
 35 73  1  0  0  0
 36 37  1  0  0  0
 36 74  1  0  0  0
 36 75  1  0  0  0
 37 38  1  0  0  0
 37 76  1  0  0  0
 37 77  1  0  0  0
 38 39  1  0  0  0
 38 40  1  0  0  0
 38 78  1  0  0  0
 39 79  1  0  0  0
 39 80  1  0  0  0
 39 81  1  0  0  0
 40 41  2  0  0  0
 40 42  1  0  0  0
 42 43  1  0  0  0
 42 82  1  0  0  0
 43 44  1  0  0  0
 43 83  1  0  0  0
 43 84  1  0  0  0
 44 45  1  0  0  0
 44 46  1  0  0  0
 44 85  1  0  0  0
 45 86  1  0  0  0
 45 87  1  0  0  0
 45 88  1  0  0  0
 46 89  1  0  0  0
 46 90  1  0  0  0
 46 91  1  0  0  0
M  CHG  1  37   1
M  END
> <s_m_source_file>
../2qzl_ligand.sdf

> <i_m_source_file_index>
1

> <s_epik_input>
W2NIXTFbY0hdYyhGKVtjSF1bY0hdYzFbQ0BASF0oW0NIM10pW05IXUMoPU8pYyhbY0hdYzJOKFtDSDNdKVMoPU8pKD1PKVtDSDNdKVtjSF1jKFtjSF0yKUMoPU8pW05IXVtDQEBIXShbQ0gyXWMzW2NIXVtjSF1bY0hdW2NIXVtjSF0zKVtDSDJdW05IMitdW0NAQEhdKFtDSDNdKUMoPU8pW05IXVtDSDJdW0NIXShbQ0gzXSlbQ0gzXQ==

> <s_epik_cmdline>
J2VwaWtfYXBwJywgJy1pbWFlJywgJ2xpZ2FuZF9wcm8ubWFlJywgJy1vbWFlJywgJ2xpZ2FuZF9wcmVwLm1hZScsICctbXMnLCAnMScsICctcGgnLCAnNycsICctcGh0JywgJzAuNScsICctbnQn

> <r_epik_Ionization_Penalty>
  0.1719

> <r_epik_Ionization_Penalty_Charging>
  0.1719

> <r_epik_Ionization_Penalty_Neutral>
  0.0000

> <r_epik_State_Penalty>
  0.1613

> <r_epik_Charging_Adjusted_Penalty>
0.333201345526637

> <i_epik_Tot_Q>
1

> <i_epik_Tot_abs_Q>
1

$$$$
