2qzr_ligand
                    3D
 Schrodinger Suite 2020-3.
 42 46  0  0  1  0            999 V2000
   14.0240   15.8320   25.0270 N   0  0  0  0  0  0
   14.9590   16.2410   24.0420 C   0  0  0  0  0  0
   14.5980   16.1580   22.7440 N   0  0  0  0  0  0
   15.4700   16.5360   21.7870 C   0  0  0  0  0  0
   15.1050   16.4690   20.3200 C   0  0  0  0  0  0
   16.1120   16.9010   19.3840 C   0  0  0  0  0  0
   15.9620   16.9320   18.0610 N   0  0  0  0  0  0
   17.0690   17.3700   17.6010 C   0  0  3  0  0  0
   17.3070   17.5300   16.2780 N   0  0  3  0  0  0
   16.1170   17.6540   15.4600 C   0  0  0  0  0  0
   16.4390   18.4280   14.1890 C   0  0  0  0  0  0
   16.9120   19.7430   14.2360 C   0  0  0  0  0  0
   17.1180   20.4040   15.4500 C   0  0  0  0  0  0
   17.6020   21.7150   15.4750 C   0  0  0  0  0  0
   17.8680   22.3860   14.2800 C   0  0  0  0  0  0
   17.6610   21.7290   13.0640 C   0  0  0  0  0  0
   17.1810   20.4160   13.0380 C   0  0  0  0  0  0
   16.9820   19.7760   11.8110 C   0  0  0  0  0  0
   16.5040   18.4610   11.7690 C   0  0  0  0  0  0
   16.2280   17.7870   12.9610 C   0  0  0  0  0  0
   18.0200   17.6830   18.4980 N   0  0  0  0  0  0
   17.1990   17.3090   19.7000 C   0  0  0  0  0  0
   17.6850   17.4150   21.0560 C   0  0  0  0  0  0
   16.7340   16.9980   22.1510 C   0  0  0  0  0  0
   17.0740   17.0630   23.5040 C   0  0  0  0  0  0
   18.3380   17.5120   23.8790 O   0  0  0  0  0  0
   16.1740   16.6840   24.4310 N   0  0  0  0  0  0
   13.0305   15.4689   24.7251 H   0  0  0  0  0  0
   14.2924   15.8779   26.0928 H   0  0  0  0  0  0
   14.1127   16.1041   20.0162 H   0  0  0  0  0  0
   18.3021   17.5694   15.8108 H   0  0  0  0  0  0
   15.7508   16.6522   15.1913 H   0  0  0  0  0  0
   15.3389   18.1899   16.0234 H   0  0  0  0  0  0
   16.8990   19.8919   16.3870 H   0  0  0  0  0  0
   17.7720   22.2142   16.4289 H   0  0  0  0  0  0
   18.2337   23.4127   14.2952 H   0  0  0  0  0  0
   17.8756   22.2445   12.1279 H   0  0  0  0  0  0
   17.2001   20.3036   10.8825 H   0  0  0  0  0  0
   16.3479   17.9654   10.8108 H   0  0  0  0  0  0
   15.8495   16.7651   12.9359 H   0  0  0  0  0  0
   18.6919   17.7775   21.3105 H   0  0  0  0  0  0
   16.4246   16.7339   25.5009 H   0  0  0  0  0  0
  1  2  1  0  0  0
  1 28  1  0  0  0
  1 29  1  0  0  0
  2  3  2  0  0  0
  2 27  1  0  0  0
  3  4  1  0  0  0
  4  5  2  0  0  0
  4 24  1  0  0  0
  5  6  1  0  0  0
  5 30  1  0  0  0
  6  7  2  0  0  0
  6 22  1  0  0  0
  7  8  1  0  0  0
  8  9  1  0  0  0
  8 21  1  0  0  0
  9 10  1  0  0  0
  9 31  1  0  0  0
 10 11  1  0  0  0
 10 32  1  0  0  0
 10 33  1  0  0  0
 11 12  1  0  0  0
 11 20  2  0  0  0
 12 13  2  0  0  0
 12 17  1  0  0  0
 13 14  1  0  0  0
 13 34  1  0  0  0
 14 15  2  0  0  0
 14 35  1  0  0  0
 15 16  1  0  0  0
 15 36  1  0  0  0
 16 17  2  0  0  0
 16 37  1  0  0  0
 17 18  1  0  0  0
 18 19  2  0  0  0
 18 38  1  0  0  0
 19 20  1  0  0  0
 19 39  1  0  0  0
 20 40  1  0  0  0
 21 22  2  0  0  0
 22 23  1  0  0  0
 23 24  2  0  0  0
 23 41  1  0  0  0
 24 25  1  0  0  0
 25 26  2  0  0  0
 25 27  1  0  0  0
 27 42  1  0  0  0
M  END
> <s_m_source_file>
../2qzr_ligand.sdf

> <i_m_source_file_index>
1

> <s_epik_input>
W05IMl1jKG4xKVtuSF1jKD1PKWMoYzEyKVtjSF1jM2MoW2NIXTIpPU5bQ0hdKE49MylbTkhdW0NIMl1jNFtjSF1bY0hdW2NIXWMoYzQ1KVtjSF1bY0hdW2NIXVtjSF01

> <s_epik_cmdline>
J2VwaWtfYXBwJywgJy1pbWFlJywgJ2xpZ2FuZF9wcm8ubWFlJywgJy1vbWFlJywgJ2xpZ2FuZF9wcmVwLm1hZScsICctbXMnLCAnMScsICctcGgnLCAnNycsICctcGh0JywgJzAuNScsICctbnQn

> <r_lp_tautomer_probability>
1

> <r_epik_Ionization_Penalty>
  0.0000

> <r_epik_Ionization_Penalty_Charging>
  0.0000

> <r_epik_Ionization_Penalty_Neutral>
  0.0000

> <r_epik_State_Penalty>
 -0.0000

> <r_epik_Charging_Adjusted_Penalty>
0

> <i_epik_Tot_Q>
0

> <i_epik_Tot_abs_Q>
0

> <s_epik_Chemistry_Notes>
This compound has an imine and may undergo hydrolysis.

$$$$
