2qzx_ligand
                    3D
 Schrodinger Suite 2020-3.
110109  0  0  1  0            999 V2000
   -0.6010   34.1550   22.5200 C   0  0  0  0  0  0
   -1.2310   34.3460   23.5830 O   0  5  0  0  0  0
   -0.4240   33.0520   21.9620 O   0  0  0  0  0  0
    0.0520   35.3770   21.8650 C   0  0  0  0  0  0
    0.5590   36.3850   22.9000 C   0  0  2  0  0  0
    1.4290   37.2990   22.2270 O   0  0  0  0  0  0
    1.3530   35.6370   23.9730 C   0  0  1  0  0  0
    2.5910   35.0840   23.4110 N   0  0  0  0  0  0
    2.7720   33.7590   23.3900 C   0  0  0  0  0  0
    1.9980   32.9740   23.9110 O   0  0  0  0  0  0
    4.0440   33.2500   22.7040 C   0  0  1  0  0  0
    4.6940   32.1640   23.4530 N   0  0  0  0  0  0
    5.5770   32.3900   24.4220 C   0  0  0  0  0  0
    5.8860   33.5150   24.8110 O   0  0  0  0  0  0
    6.1850   31.1490   25.0810 C   0  0  0  0  0  0
    7.4740   30.7190   24.3740 C   0  0  2  0  0  0
    7.9470   29.4770   24.9030 O   0  0  0  0  0  0
    8.6080   31.7430   24.4500 C   0  0  2  0  0  0
    9.7000   31.2770   23.4830 C   0  0  0  0  0  0
    9.1330   31.8200   25.8230 N   0  0  0  0  0  0
    9.2570   32.9750   26.4750 C   0  0  0  0  0  0
    8.9850   34.0730   25.9930 O   0  0  0  0  0  0
    9.8590   32.8760   27.8780 C   0  0  1  0  0  0
   11.2360   33.3550   27.6900 N   0  0  0  0  0  0
   12.3180   32.8300   28.2560 C   0  0  0  0  0  0
   12.3100   31.9200   29.0840 O   0  0  0  0  0  0
   13.6160   33.5080   27.8110 C   0  0  1  0  0  0
   14.7300   33.2460   28.7310 N   0  0  0  0  0  0
   15.3000   34.2000   29.4600 C   0  0  0  0  0  0
   14.9360   35.3760   29.4720 O   0  0  0  0  0  0
   16.4710   33.6900   30.3040 C   0  0  0  0  0  0
   16.4820   34.1190   31.7720 C   0  0  0  0  0  0
   15.1870   33.7410   32.4940 C   0  0  0  0  0  0
    1.4610   36.3240   25.3420 C   0  0  0  0  0  0
    2.4760   37.4620   25.4670 C   0  0  0  0  0  0
    3.5130   37.4730   24.3430 C   0  0  0  0  0  0
    1.8170   38.8310   25.6430 C   0  0  0  0  0  0
    3.6410   32.7060   21.3320 C   0  0  0  0  0  0
   11.0160   32.0540   23.5780 C   0  0  0  0  0  0
   10.9210   33.4640   22.9920 C   0  0  0  0  0  0
   12.1150   31.2530   22.8750 C   0  0  0  0  0  0
    9.0790   33.7590   28.8570 C   0  0  0  0  0  0
    7.6660   33.2090   29.0620 C   0  0  0  0  0  0
    9.7930   33.8830   30.2040 C   0  0  0  0  0  0
   14.0180   33.0330   26.4110 C   0  0  0  0  0  0
   15.2590   33.7830   25.9250 C   0  0  0  0  0  0
   14.2680   31.5240   26.3390 C   0  0  0  0  0  0
   17.6760   33.4530   32.4610 C   0  0  0  0  0  0
    0.9083   35.0526   21.2556 H   0  0  0  0  0  0
   -0.6827   35.8857   21.2236 H   0  0  0  0  0  0
   -0.2540   36.9766   23.3462 H   0  0  0  0  0  0
    1.0402   37.9328   21.4163 H   0  0  0  0  0  0
    0.7876   34.7336   24.2455 H   0  0  0  0  0  0
    3.3625   35.7582   23.0107 H   0  0  0  0  0  0
    4.7856   34.0611   22.6584 H   0  0  0  0  0  0
    4.4558   31.1157   23.2197 H   0  0  0  0  0  0
    6.4196   31.3701   26.1327 H   0  0  0  0  0  0
    5.4654   30.3184   25.0327 H   0  0  0  0  0  0
    7.2180   30.5483   23.3179 H   0  0  0  0  0  0
    7.2786   28.6041   24.9384 H   0  0  0  0  0  0
    8.2606   32.7593   24.2126 H   0  0  0  0  0  0
    9.9397   30.2220   23.6816 H   0  0  0  0  0  0
    9.3430   31.3834   22.4480 H   0  0  0  0  0  0
    9.4394   30.9026   26.3469 H   0  0  0  0  0  0
    9.8625   31.8614   28.3030 H   0  0  0  0  0  0
   11.4341   34.2165   27.0354 H   0  0  0  0  0  0
   13.4486   34.5948   27.8379 H   0  0  0  0  0  0
   15.1264   32.2255   28.8382 H   0  0  0  0  0  0
   16.4675   32.5900   30.3092 H   0  0  0  0  0  0
   17.4171   34.0516   29.8750 H   0  0  0  0  0  0
   16.5653   35.2150   31.8144 H   0  0  0  0  0  0
   14.3341   34.2229   31.9936 H   0  0  0  0  0  0
   15.2378   34.0795   33.5394 H   0  0  0  0  0  0
   15.0581   32.6489   32.4680 H   0  0  0  0  0  0
    0.4886   36.7631   25.6096 H   0  0  0  0  0  0
    1.7505   35.5834   26.1021 H   0  0  0  0  0  0
    3.0273   37.2526   26.3956 H   0  0  0  0  0  0
    3.9623   36.4734   24.2489 H   0  0  0  0  0  0
    4.2981   38.2075   24.5757 H   0  0  0  0  0  0
    3.0244   37.7460   23.3960 H   0  0  0  0  0  0
    1.0801   38.7811   26.4582 H   0  0  0  0  0  0
    1.3116   39.1175   24.7089 H   0  0  0  0  0  0
    2.5853   39.5789   25.8885 H   0  0  0  0  0  0
    3.1515   33.5018   20.7514 H   0  0  0  0  0  0
    2.9441   31.8648   21.4614 H   0  0  0  0  0  0
    4.5377   32.3603   20.7968 H   0  0  0  0  0  0
   11.2562   32.1834   24.6436 H   0  0  0  0  0  0
   10.1273   34.0232   23.5090 H   0  0  0  0  0  0
   10.6855   33.4002   21.9194 H   0  0  0  0  0  0
   11.8819   33.9824   23.1263 H   0  0  0  0  0  0
   12.1680   30.2438   23.3093 H   0  0  0  0  0  0
   13.0815   31.7610   23.0087 H   0  0  0  0  0  0
   11.8852   31.1788   21.8018 H   0  0  0  0  0  0
    9.0167   34.7651   28.4166 H   0  0  0  0  0  0
    7.1610   33.1235   28.0885 H   0  0  0  0  0  0
    7.0976   33.8912   29.7113 H   0  0  0  0  0  0
    7.7236   32.2169   29.5336 H   0  0  0  0  0  0
   10.8071   34.2789   30.0463 H   0  0  0  0  0  0
    9.8556   32.8925   30.6783 H   0  0  0  0  0  0
    9.2297   34.5668   30.8560 H   0  0  0  0  0  0
   13.1657   33.2553   25.7520 H   0  0  0  0  0  0
   15.0767   34.8665   25.9778 H   0  0  0  0  0  0
   15.4758   33.4979   24.8850 H   0  0  0  0  0  0
   16.1171   33.5241   26.5627 H   0  0  0  0  0  0
   13.3740   30.9871   26.6891 H   0  0  0  0  0  0
   15.1254   31.2636   26.9770 H   0  0  0  0  0  0
   14.4842   31.2374   25.2992 H   0  0  0  0  0  0
   18.6027   33.7292   31.9367 H   0  0  0  0  0  0
   17.5517   32.3604   32.4350 H   0  0  0  0  0  0
   17.7314   33.7910   33.5063 H   0  0  0  0  0  0
  1  2  1  0  0  0
  1  3  2  0  0  0
  1  4  1  0  0  0
  4  5  1  0  0  0
  4 49  1  0  0  0
  4 50  1  0  0  0
  5  6  1  0  0  0
  5  7  1  0  0  0
  5 51  1  0  0  0
  6 52  1  0  0  0
  7  8  1  0  0  0
  7 34  1  0  0  0
  7 53  1  0  0  0
  8  9  1  0  0  0
  8 54  1  0  0  0
  9 10  2  0  0  0
  9 11  1  0  0  0
 11 12  1  0  0  0
 11 38  1  0  0  0
 11 55  1  0  0  0
 12 13  1  0  0  0
 12 56  1  0  0  0
 13 14  2  0  0  0
 13 15  1  0  0  0
 15 16  1  0  0  0
 15 57  1  0  0  0
 15 58  1  0  0  0
 16 17  1  0  0  0
 16 18  1  0  0  0
 16 59  1  0  0  0
 17 60  1  0  0  0
 18 19  1  0  0  0
 18 20  1  0  0  0
 18 61  1  0  0  0
 19 39  1  0  0  0
 19 62  1  0  0  0
 19 63  1  0  0  0
 20 21  1  0  0  0
 20 64  1  0  0  0
 21 22  2  0  0  0
 21 23  1  0  0  0
 23 24  1  0  0  0
 23 42  1  0  0  0
 23 65  1  0  0  0
 24 25  1  0  0  0
 24 66  1  0  0  0
 25 26  2  0  0  0
 25 27  1  0  0  0
 27 28  1  0  0  0
 27 45  1  0  0  0
 27 67  1  0  0  0
 28 29  1  0  0  0
 28 68  1  0  0  0
 29 30  2  0  0  0
 29 31  1  0  0  0
 31 32  1  0  0  0
 31 69  1  0  0  0
 31 70  1  0  0  0
 32 33  1  0  0  0
 32 48  1  0  0  0
 32 71  1  0  0  0
 33 72  1  0  0  0
 33 73  1  0  0  0
 33 74  1  0  0  0
 34 35  1  0  0  0
 34 75  1  0  0  0
 34 76  1  0  0  0
 35 36  1  0  0  0
 35 37  1  0  0  0
 35 77  1  0  0  0
 36 78  1  0  0  0
 36 79  1  0  0  0
 36 80  1  0  0  0
 37 81  1  0  0  0
 37 82  1  0  0  0
 37 83  1  0  0  0
 38 84  1  0  0  0
 38 85  1  0  0  0
 38 86  1  0  0  0
 39 40  1  0  0  0
 39 41  1  0  0  0
 39 87  1  0  0  0
 40 88  1  0  0  0
 40 89  1  0  0  0
 40 90  1  0  0  0
 41 91  1  0  0  0
 41 92  1  0  0  0
 41 93  1  0  0  0
 42 43  1  0  0  0
 42 44  1  0  0  0
 42 94  1  0  0  0
 43 95  1  0  0  0
 43 96  1  0  0  0
 43 97  1  0  0  0
 44 98  1  0  0  0
 44 99  1  0  0  0
 44100  1  0  0  0
 45 46  1  0  0  0
 45 47  1  0  0  0
 45101  1  0  0  0
 46102  1  0  0  0
 46103  1  0  0  0
 46104  1  0  0  0
 47105  1  0  0  0
 47106  1  0  0  0
 47107  1  0  0  0
 48108  1  0  0  0
 48109  1  0  0  0
 48110  1  0  0  0
M  CHG  1   2  -1
M  END
> <s_m_source_file>
../2qzx_ligand.sdf

> <i_m_source_file_index>
1

> <s_epik_input>
W09IXUMoPU8pW0NIMl1bQ0BIXShbT0hdKVtDQEhdKFtDSDJdW0NIXShbQ0gzXSlbQ0gzXSlbTkhdQyg9TylbQ0BIXShbQ0gzXSlbTkhdQyg9TylbQ0gyXVtDQEhdKFtPSF0pW0NASF0oW0NIMl1bQ0hdKFtDSDNdKVtDSDNdKVtOSF1DKD1PKVtDQEhdKFtDSF0oW0NIM10pW0NIM10pW05IXUMoPU8pW0NASF0oW0NIXShbQ0gzXSlbQ0gzXSlbTkhdQyg9TylbQ0gyXVtDSF0oW0NIM10pW0NIM10=

> <s_epik_cmdline>
J2VwaWtfYXBwJywgJy1pbWFlJywgJ2xpZ2FuZF9wcm8ubWFlJywgJy1vbWFlJywgJ2xpZ2FuZF9wcmVwLm1hZScsICctbXMnLCAnMScsICctcGgnLCAnNycsICctcGh0JywgJzAuNScsICctbnQn

> <r_lp_tautomer_probability>
1

> <r_epik_Ionization_Penalty>
  0.0021

> <r_epik_Ionization_Penalty_Charging>
  0.0021

> <r_epik_Ionization_Penalty_Neutral>
  0.0000

> <r_epik_State_Penalty>
 -0.0000

> <r_epik_Charging_Adjusted_Penalty>
0.00208702823195129

> <i_epik_Tot_Q>
-1

> <i_epik_Tot_abs_Q>
1

$$$$
