2r02_ligand
                    3D
 Schrodinger Suite 2020-3.
190191  0  0  1  0            999 V2000
  -66.1710  -41.7740  -61.3740 N   0  3  0  0  0  0
  -66.2650  -40.4640  -60.6550 C   0  0  2  0  0  0
  -67.0980  -39.4150  -61.4210 C   0  0  0  0  0  0
  -66.7790  -39.0630  -62.5850 O   0  0  0  0  0  0
  -64.8640  -39.9320  -60.3040 C   0  0  0  0  0  0
  -64.3960  -38.7030  -61.1000 C   0  0  0  0  0  0
  -63.4640  -37.7900  -60.3020 C   0  0  0  0  0  0
  -63.3430  -37.9730  -59.0650 O   0  0  0  0  0  0
  -62.8590  -36.8740  -60.9110 O   0  0  0  0  0  0
  -68.1620  -38.9220  -60.7600 N   0  0  0  0  0  0
  -69.0310  -37.9100  -61.3750 C   0  0  2  0  0  0
  -68.4760  -36.4930  -61.1850 C   0  0  0  0  0  0
  -67.7420  -35.9930  -62.0440 O   0  0  0  0  0  0
  -70.4650  -38.0270  -60.8460 C   0  0  0  0  0  0
  -71.5540  -37.3740  -61.6990 C   0  0  0  0  0  0
  -71.6200  -37.9650  -63.1090 C   0  0  0  0  0  0
  -72.9040  -37.4720  -61.0070 C   0  0  0  0  0  0
  -68.8160  -35.8650  -60.0590 N   0  0  0  0  0  0
  -68.2300  -34.5830  -59.6480 C   0  0  2  0  0  0
  -66.8350  -34.7410  -59.0390 C   0  0  0  0  0  0
  -66.6200  -35.6390  -58.2380 O   0  0  0  0  0  0
  -69.1550  -33.8750  -58.6630 C   0  0  0  0  0  0
  -70.3550  -33.2930  -59.3440 C   0  0  0  0  0  0
  -71.5580  -33.9900  -59.3870 C   0  0  0  0  0  0
  -70.2830  -32.0540  -59.9790 C   0  0  0  0  0  0
  -72.6540  -33.4610  -60.0350 C   0  0  0  0  0  0
  -71.3760  -31.5200  -60.6280 C   0  0  0  0  0  0
  -72.5520  -32.2250  -60.6570 C   0  0  0  0  0  0
  -73.6510  -31.6980  -61.2960 O   0  0  0  0  0  0
  -65.8880  -33.8420  -59.3780 N   0  0  0  0  0  0
  -64.5150  -34.1280  -58.9730 C   0  0  2  0  0  0
  -64.2600  -33.7450  -57.5190 C   0  0  0  0  0  0
  -63.6900  -32.6900  -57.2400 O   0  0  0  0  0  0
  -63.6860  -33.2730  -59.9310 C   0  0  0  0  0  0
  -64.5410  -32.1130  -60.2390 C   0  0  0  0  0  0
  -65.9900  -32.5400  -60.0680 C   0  0  0  0  0  0
  -64.6830  -34.6140  -56.6070 N   0  0  0  0  0  0
  -64.4210  -34.4480  -55.1790 C   0  0  2  0  0  0
  -62.9630  -34.7770  -54.8030 C   0  0  0  0  0  0
  -62.4960  -34.4000  -53.7210 O   0  0  0  0  0  0
  -65.4100  -35.2820  -54.3500 C   0  0  0  0  0  0
  -66.9240  -35.0480  -54.5190 C   0  0  0  0  0  0
  -67.7490  -36.1270  -53.7970 C   0  0  0  0  0  0
  -67.3420  -33.6570  -54.0430 C   0  0  0  0  0  0
  -62.2660  -35.4850  -55.6970 N   0  0  0  0  0  0
  -60.8210  -35.7190  -55.5980 C   0  0  2  0  0  0
  -60.0540  -34.3940  -55.6590 C   0  0  0  0  0  0
  -59.4130  -33.9830  -54.6840 O   0  0  0  0  0  0
  -60.3080  -36.6210  -56.7480 C   0  0  2  0  0  0
  -60.9680  -36.2520  -57.9690 O   0  0  0  0  0  0
  -60.5500  -38.0900  -56.4510 C   0  0  0  0  0  0
  -60.1350  -33.7300  -56.8120 N   0  0  0  0  0  0
  -59.5660  -32.3950  -56.9960 C   0  0  2  0  0  0
  -60.0100  -31.4290  -55.9090 C   0  0  0  0  0  0
  -59.2360  -30.5770  -55.4910 O   0  0  0  0  0  0
  -59.9580  -31.8190  -58.3570 C   0  0  0  0  0  0
  -59.4880  -32.6270  -59.4190 O   0  0  0  0  0  0
  -61.2530  -31.5680  -55.4570 N   0  0  0  0  0  0
  -61.8380  -30.6280  -54.5120 C   0  0  2  0  0  0
  -61.2430  -30.7120  -53.1020 C   0  0  0  0  0  0
  -60.8100  -29.6950  -52.5450 O   0  0  0  0  0  0
  -63.3590  -30.7960  -54.4610 C   0  0  0  0  0  0
  -64.1130  -29.8290  -53.5430 C   0  0  0  0  0  0
  -64.3050  -28.4870  -54.2320 C   0  0  0  0  0  0
  -65.4480  -30.4200  -53.1230 C   0  0  0  0  0  0
  -61.2220  -31.9160  -52.5320 N   0  0  0  0  0  0
  -60.7950  -32.0950  -51.1410 C   0  0  2  0  0  0
  -59.2970  -31.8560  -50.8950 C   0  0  0  0  0  0
  -58.9020  -31.4870  -49.7810 O   0  0  0  0  0  0
  -61.2060  -33.4690  -50.6120 C   0  0  0  0  0  0
  -62.6980  -33.6440  -50.3990 C   0  0  0  0  0  0
  -62.9580  -34.9190  -49.6200 C   0  0  0  0  0  0
  -63.8210  -35.8260  -50.3690 N   0  0  0  0  0  0
  -63.9270  -37.1320  -50.1400 C   0  0  0  0  0  0
  -63.2260  -37.7070  -49.1690 N   0  0  0  0  0  0
  -64.7400  -37.8650  -50.8890 N   0  0  0  0  0  0
  -58.4750  -32.0540  -51.9300 N   0  0  0  0  0  0
  -57.0260  -31.8230  -51.8290 C   0  0  2  0  0  0
  -56.6610  -30.3290  -51.8030 C   0  0  0  0  0  0
  -55.5040  -29.9660  -51.5600 O   0  0  0  0  0  0
  -56.2880  -32.5290  -52.9790 C   0  0  0  0  0  0
  -56.7950  -32.1230  -54.2510 O   0  0  0  0  0  0
  -57.6550  -29.4750  -52.0470 N   0  0  0  0  0  0
  -57.4470  -28.0340  -52.1580 C   0  0  2  0  0  0
  -58.3370  -27.3140  -51.1350 C   0  0  0  0  0  0
  -57.5970  -27.5120  -49.5230 O   0  0  0  0  0  0
  -57.7780  -27.5730  -53.5830 C   0  0  0  0  0  0
  -56.7960  -27.7090  -54.7790 C   0  0  0  0  0  0
  -55.8760  -28.9520  -54.7810 C   0  0  0  0  0  0
  -57.5920  -27.6350  -56.0920 C   0  0  0  0  0  0
  -59.4623  -26.6577  -51.4031 O   0  0  0  0  0  0
  -65.5675  -42.4759  -60.7798 H   0  0  0  0  0  0
  -65.6961  -41.6209  -62.3543 H   0  0  0  0  0  0
  -67.1804  -42.1875  -61.5161 H   0  0  0  0  0  0
  -66.8081  -40.6863  -59.7246 H   0  0  0  0  0  0
  -64.8378  -39.6396  -59.2439 H   0  0  0  0  0  0
  -64.1169  -40.7186  -60.4859 H   0  0  0  0  0  0
  -63.8513  -39.0328  -61.9970 H   0  0  0  0  0  0
  -65.2698  -38.1062  -61.4004 H   0  0  0  0  0  0
  -62.6769  -37.3256  -58.4758 H   0  0  0  0  0  0
  -68.3766  -39.2878  -59.7450 H   0  0  0  0  0  0
  -69.0229  -38.1421  -62.4502 H   0  0  0  0  0  0
  -70.7398  -39.0889  -60.7634 H   0  0  0  0  0  0
  -70.5302  -37.5532  -59.8554 H   0  0  0  0  0  0
  -71.2948  -36.3103  -61.8060 H   0  0  0  0  0  0
  -70.6331  -37.8823  -63.5878 H   0  0  0  0  0  0
  -72.3632  -37.4133  -63.7034 H   0  0  0  0  0  0
  -71.9111  -39.0241  -63.0494 H   0  0  0  0  0  0
  -72.8306  -37.0415  -59.9974 H   0  0  0  0  0  0
  -73.2030  -38.5281  -60.9345 H   0  0  0  0  0  0
  -73.6552  -36.9173  -61.5884 H   0  0  0  0  0  0
  -69.5731  -36.3516  -59.4265 H   0  0  0  0  0  0
  -68.1386  -34.0062  -60.5802 H   0  0  0  0  0  0
  -69.5030  -34.5930  -57.9058 H   0  0  0  0  0  0
  -68.6087  -33.0577  -58.1695 H   0  0  0  0  0  0
  -71.6350  -34.9639  -58.9037 H   0  0  0  0  0  0
  -69.3459  -31.4975  -59.9621 H   0  0  0  0  0  0
  -73.5950  -34.0106  -60.0585 H   0  0  0  0  0  0
  -71.3061  -30.5466  -61.1135 H   0  0  0  0  0  0
  -74.5955  -32.2614  -61.3208 H   0  0  0  0  0  0
  -64.3104  -35.2069  -59.0374 H   0  0  0  0  0  0
  -62.7513  -32.9699  -59.4366 H   0  0  0  0  0  0
  -63.4510  -33.8565  -60.8334 H   0  0  0  0  0  0
  -64.3035  -31.2892  -59.5498 H   0  0  0  0  0  0
  -64.3599  -31.7886  -61.2744 H   0  0  0  0  0  0
  -66.5027  -32.6750  -61.0318 H   0  0  0  0  0  0
  -66.5620  -31.8379  -59.4436 H   0  0  0  0  0  0
  -65.2511  -35.4856  -56.9643 H   0  0  0  0  0  0
  -64.5880  -33.3757  -54.9991 H   0  0  0  0  0  0
  -65.2725  -36.3489  -54.5797 H   0  0  0  0  0  0
  -65.2263  -35.1109  -53.2790 H   0  0  0  0  0  0
  -67.1376  -35.1095  -55.5963 H   0  0  0  0  0  0
  -67.4386  -37.1221  -54.1483 H   0  0  0  0  0  0
  -68.8171  -35.9782  -54.0140 H   0  0  0  0  0  0
  -67.5812  -36.0522  -52.7124 H   0  0  0  0  0  0
  -66.7451  -32.8956  -54.5665 H   0  0  0  0  0  0
  -67.1729  -33.5742  -52.9592 H   0  0  0  0  0  0
  -68.4088  -33.5002  -54.2608 H   0  0  0  0  0  0
  -62.8341  -35.9021  -56.5415 H   0  0  0  0  0  0
  -60.6979  -36.2090  -54.6209 H   0  0  0  0  0  0
  -59.2320  -36.4704  -56.9199 H   0  0  0  0  0  0
  -60.9000  -35.2188  -58.3404 H   0  0  0  0  0  0
  -60.0412  -38.3635  -55.5149 H   0  0  0  0  0  0
  -60.1539  -38.7009  -57.2756 H   0  0  0  0  0  0
  -61.6302  -38.2700  -56.3474 H   0  0  0  0  0  0
  -60.6553  -34.2257  -57.6448 H   0  0  0  0  0  0
  -58.4799  -32.5550  -56.9264 H   0  0  0  0  0  0
  -61.0540  -31.7566  -58.4268 H   0  0  0  0  0  0
  -59.5257  -30.8136  -58.4679 H   0  0  0  0  0  0
  -59.6931  -32.3399  -60.4609 H   0  0  0  0  0  0
  -61.8425  -32.4237  -55.8179 H   0  0  0  0  0  0
  -61.5587  -29.6516  -54.9347 H   0  0  0  0  0  0
  -63.7780  -30.6496  -55.4675 H   0  0  0  0  0  0
  -63.6045  -31.8075  -54.1052 H   0  0  0  0  0  0
  -63.5196  -29.6632  -52.6318 H   0  0  0  0  0  0
  -63.3252  -28.0819  -54.5252 H   0  0  0  0  0  0
  -64.7992  -27.7877  -53.5415 H   0  0  0  0  0  0
  -64.9294  -28.6207  -55.1277 H   0  0  0  0  0  0
  -65.2810  -31.3882  -52.6283 H   0  0  0  0  0  0
  -66.0799  -30.5664  -54.0114 H   0  0  0  0  0  0
  -65.9497  -29.7334  -52.4252 H   0  0  0  0  0  0
  -61.5339  -32.7864  -53.1279 H   0  0  0  0  0  0
  -61.3471  -31.2952  -50.6257 H   0  0  0  0  0  0
  -60.8928  -34.2453  -51.3256 H   0  0  0  0  0  0
  -60.7223  -33.6475  -49.6403 H   0  0  0  0  0  0
  -63.0909  -32.7856  -49.8344 H   0  0  0  0  0  0
  -63.2031  -33.7036  -51.3743 H   0  0  0  0  0  0
  -62.0033  -35.4273  -49.4196 H   0  0  0  0  0  0
  -63.4494  -34.6728  -48.6671 H   0  0  0  0  0  0
  -64.4441  -35.4403  -51.1894 H   0  0  0  0  0  0
  -62.5508  -37.1022  -48.5459 H   0  0  0  0  0  0
  -63.3208  -38.7879  -48.9882 H   0  0  0  0  0  0
  -65.3220  -37.3923  -51.6939 H   0  0  0  0  0  0
  -58.9120  -32.4001  -52.8783 H   0  0  0  0  0  0
  -56.7521  -32.2640  -50.8592 H   0  0  0  0  0  0
  -55.2173  -32.2806  -52.9347 H   0  0  0  0  0  0
  -56.4162  -33.6173  -52.8835 H   0  0  0  0  0  0
  -56.3666  -32.5426  -55.1732 H   0  0  0  0  0  0
  -58.6644  -29.8958  -52.1659 H   0  0  0  0  0  0
  -56.3859  -27.8409  -51.9419 H   0  0  0  0  0  0
  -58.6616  -28.1169  -53.9484 H   0  0  0  0  0  0
  -57.9876  -26.4932  -53.5797 H   0  0  0  0  0  0
  -56.0959  -26.8661  -54.6819 H   0  0  0  0  0  0
  -55.3128  -28.9928  -53.8370 H   0  0  0  0  0  0
  -55.1732  -28.8866  -55.6247 H   0  0  0  0  0  0
  -56.4876  -29.8606  -54.8828 H   0  0  0  0  0  0
  -58.2416  -26.7474  -56.0774 H   0  0  0  0  0  0
  -58.2092  -28.5393  -56.1981 H   0  0  0  0  0  0
  -56.8948  -27.5653  -56.9400 H   0  0  0  0  0  0
  -60.0248  -26.1755  -50.5900 H   0  0  0  0  0  0
  1  2  1  0  0  0
  1 92  1  0  0  0
  1 93  1  0  0  0
  1 94  1  0  0  0
  2  5  1  0  0  0
  2  3  1  0  0  0
  2 95  1  0  0  0
  3  4  2  0  0  0
  3 10  1  0  0  0
  5  6  1  0  0  0
  5 96  1  0  0  0
  5 97  1  0  0  0
  6  7  1  0  0  0
  6 98  1  0  0  0
  6 99  1  0  0  0
  7  9  2  0  0  0
  7  8  1  0  0  0
  8100  1  0  0  0
 10 11  1  0  0  0
 10101  1  0  0  0
 11 14  1  0  0  0
 11 12  1  0  0  0
 11102  1  0  0  0
 12 13  2  0  0  0
 12 18  1  0  0  0
 14 15  1  0  0  0
 14103  1  0  0  0
 14104  1  0  0  0
 15 16  1  0  0  0
 15 17  1  0  0  0
 15105  1  0  0  0
 16106  1  0  0  0
 16107  1  0  0  0
 16108  1  0  0  0
 17109  1  0  0  0
 17110  1  0  0  0
 17111  1  0  0  0
 18 19  1  0  0  0
 18112  1  0  0  0
 19 22  1  0  0  0
 19 20  1  0  0  0
 19113  1  0  0  0
 20 21  2  0  0  0
 20 30  1  0  0  0
 22 23  1  0  0  0
 22114  1  0  0  0
 22115  1  0  0  0
 23 24  2  0  0  0
 23 25  1  0  0  0
 24 26  1  0  0  0
 24116  1  0  0  0
 25 27  2  0  0  0
 25117  1  0  0  0
 26 28  2  0  0  0
 26118  1  0  0  0
 27 28  1  0  0  0
 27119  1  0  0  0
 28 29  1  0  0  0
 29120  1  0  0  0
 30 31  1  0  0  0
 30 36  1  0  0  0
 31 32  1  0  0  0
 31 34  1  0  0  0
 31121  1  0  0  0
 32 33  2  0  0  0
 32 37  1  0  0  0
 34 35  1  0  0  0
 34122  1  0  0  0
 34123  1  0  0  0
 35 36  1  0  0  0
 35124  1  0  0  0
 35125  1  0  0  0
 36126  1  0  0  0
 36127  1  0  0  0
 37 38  1  0  0  0
 37128  1  0  0  0
 38 41  1  0  0  0
 38 39  1  0  0  0
 38129  1  0  0  0
 39 40  2  0  0  0
 39 45  1  0  0  0
 41 42  1  0  0  0
 41130  1  0  0  0
 41131  1  0  0  0
 42 43  1  0  0  0
 42 44  1  0  0  0
 42132  1  0  0  0
 43133  1  0  0  0
 43134  1  0  0  0
 43135  1  0  0  0
 44136  1  0  0  0
 44137  1  0  0  0
 44138  1  0  0  0
 45 46  1  0  0  0
 45139  1  0  0  0
 46 49  1  0  0  0
 46 47  1  0  0  0
 46140  1  0  0  0
 47 48  2  0  0  0
 47 52  1  0  0  0
 49 51  1  0  0  0
 49 50  1  0  0  0
 49141  1  0  0  0
 50142  1  0  0  0
 51143  1  0  0  0
 51144  1  0  0  0
 51145  1  0  0  0
 52 53  1  0  0  0
 52146  1  0  0  0
 53 56  1  0  0  0
 53 54  1  0  0  0
 53147  1  0  0  0
 54 55  2  0  0  0
 54 58  1  0  0  0
 56 57  1  0  0  0
 56148  1  0  0  0
 56149  1  0  0  0
 57150  1  0  0  0
 58 59  1  0  0  0
 58151  1  0  0  0
 59 62  1  0  0  0
 59 60  1  0  0  0
 59152  1  0  0  0
 60 61  2  0  0  0
 60 66  1  0  0  0
 62 63  1  0  0  0
 62153  1  0  0  0
 62154  1  0  0  0
 63 64  1  0  0  0
 63 65  1  0  0  0
 63155  1  0  0  0
 64156  1  0  0  0
 64157  1  0  0  0
 64158  1  0  0  0
 65159  1  0  0  0
 65160  1  0  0  0
 65161  1  0  0  0
 66 67  1  0  0  0
 66162  1  0  0  0
 67 70  1  0  0  0
 67 68  1  0  0  0
 67163  1  0  0  0
 68 69  2  0  0  0
 68 77  1  0  0  0
 70 71  1  0  0  0
 70164  1  0  0  0
 70165  1  0  0  0
 71 72  1  0  0  0
 71166  1  0  0  0
 71167  1  0  0  0
 72 73  1  0  0  0
 72168  1  0  0  0
 72169  1  0  0  0
 73 74  1  0  0  0
 73170  1  0  0  0
 74 76  2  0  0  0
 74 75  1  0  0  0
 75171  1  0  0  0
 75172  1  0  0  0
 76173  1  0  0  0
 77 78  1  0  0  0
 77174  1  0  0  0
 78 81  1  0  0  0
 78 79  1  0  0  0
 78175  1  0  0  0
 79 80  2  0  0  0
 79 83  1  0  0  0
 81 82  1  0  0  0
 81176  1  0  0  0
 81177  1  0  0  0
 82178  1  0  0  0
 83 84  1  0  0  0
 83179  1  0  0  0
 84 87  1  0  0  0
 84 85  1  0  0  0
 84180  1  0  0  0
 85 86  2  0  0  0
 85 91  1  0  0  0
 87 88  1  0  0  0
 87181  1  0  0  0
 87182  1  0  0  0
 88 89  1  0  0  0
 88 90  1  0  0  0
 88183  1  0  0  0
 89184  1  0  0  0
 89185  1  0  0  0
 89186  1  0  0  0
 90187  1  0  0  0
 90188  1  0  0  0
 90189  1  0  0  0
 91190  1  0  0  0
M  CHG  1   1   1
M  END
> <s_m_source_file>
../2r02_ligand.sdf

> <i_m_source_file_index>
1

> <s_epik_input>
W09IXUMoPU8pW0NIMl1bQ0gyXVtDQEhdKFtOSDMrXSlDKD1PKVtOSF1bQ0BASF0oW0NIMl1bQ0hdKFtDSDNdKVtDSDNdKUMoPU8pW05IXVtDQEBIXShbQ0gyXWMxW2NIXVtjSF1jKFtPSF0pW2NIXVtjSF0xKUMoPU8pTjJbQ0BASF0oW0NIMl1bQ0gyXVtDSDJdMilDKD1PKVtOSF1bQ0BASF0oW0NIMl1bQ0hdKFtDSDNdKVtDSDNdKUMoPU8pW05IXVtDQEBIXShbQ0BIXShbT0hdKVtDSDNdKUMoPU8pW05IXVtDQEBIXShbQ0gyXVtPSF0pQyg9TylbTkhdW0NAQEhdKFtDSDJdW0NIXShbQ0gzXSlbQ0gzXSlDKD1PKVtOSF1bQ0BASF0oW0NIMl1bQ0gyXVtDSDJdW05IXS9DKFtOSDJdKT1OXFtIXSlDKD1PKVtOSF1bQ0BASF0oW0NIMl1bT0hdKUMoPU8pW05IXVtDQEhdKEMoPU8pW09IXSlbQ0gyXVtDSF0oW0NIM10pW0NIM10=

> <s_epik_cmdline>
J2VwaWtfYXBwJywgJy1pbWFlJywgJ2xpZ2FuZF9wcm8ubWFlJywgJy1vbWFlJywgJ2xpZ2FuZF9wcmVwLm1hZScsICctbXMnLCAnMScsICctcGgnLCAnNycsICctcGh0JywgJzAuNScsICctbnQn

> <s_epik_pKa_notes>
Molecule size exceeds maximum supported for generating protonation states

> <s_epik_Chemistry_Notes>
This compound has an imine and may undergo hydrolysis.

$$$$
