2r03_ligand
                    3D
 Schrodinger Suite 2020-3.
128129  0  0  1  0            999 V2000
  -67.3960  -40.5610  -56.8160 N   0  3  0  0  0  0
  -68.6120  -40.7120  -57.6660 C   0  0  2  0  0  0
  -68.7020  -39.6800  -58.8120 C   0  0  0  0  0  0
  -67.7830  -39.5960  -59.6350 O   0  0  0  0  0  0
  -69.8760  -40.7090  -56.7950 C   0  0  0  0  0  0
  -71.0290  -41.4780  -57.4320 C   0  0  0  0  0  0
  -70.8710  -42.1210  -58.4840 O   0  0  0  0  0  0
  -72.1980  -41.4150  -56.7960 N   0  0  0  0  0  0
  -69.7850  -38.8970  -58.8610 N   0  0  0  0  0  0
  -70.0630  -38.0080  -60.0020 C   0  0  2  0  0  0
  -69.3210  -36.6690  -60.0250 C   0  0  0  0  0  0
  -68.7400  -36.2880  -61.0520 O   0  0  0  0  0  0
  -71.5670  -37.7660  -60.1450 C   0  0  0  0  0  0
  -72.2180  -38.3000  -61.4230 C   0  0  0  0  0  0
  -72.2020  -39.8330  -61.4900 C   0  0  0  0  0  0
  -73.6300  -37.7730  -61.5290 C   0  0  0  0  0  0
  -69.3560  -35.9590  -58.9000 N   0  0  0  0  0  0
  -68.8020  -34.6120  -58.8060 C   0  0  2  0  0  0
  -67.3440  -34.6210  -58.3550 C   0  0  0  0  0  0
  -66.9620  -35.4510  -57.5360 O   0  0  0  0  0  0
  -69.6880  -33.7330  -57.9090 C   0  0  0  0  0  0
  -70.8810  -33.2150  -58.6660 C   0  0  0  0  0  0
  -72.0240  -33.9960  -58.8200 C   0  0  0  0  0  0
  -70.8560  -31.9590  -59.2710 C   0  0  0  0  0  0
  -73.1200  -33.5340  -59.5450 C   0  0  0  0  0  0
  -71.9520  -31.4890  -59.9970 C   0  0  0  0  0  0
  -73.0770  -32.2860  -60.1250 C   0  0  0  0  0  0
  -74.1560  -31.8420  -60.8370 O   0  0  0  0  0  0
  -66.5250  -33.6880  -58.8850 N   0  0  0  0  0  0
  -65.0760  -33.8230  -58.7430 C   0  0  2  0  0  0
  -64.5700  -33.7030  -57.3180 C   0  0  0  0  0  0
  -65.2750  -33.2400  -56.4220 O   0  0  0  0  0  0
  -64.5200  -32.6920  -59.6170 C   0  0  0  0  0  0
  -65.5970  -31.6990  -59.6680 C   0  0  0  0  0  0
  -66.8840  -32.4670  -59.6270 C   0  0  0  0  0  0
  -63.3270  -34.1340  -57.1600 N   0  0  0  0  0  0
  -62.6580  -34.3160  -55.8890 C   0  0  2  0  0  0
  -62.3010  -32.9840  -55.2030 C   0  0  0  0  0  0
  -61.5900  -32.1490  -55.7740 O   0  0  0  0  0  0
  -61.3900  -35.1300  -56.1680 C   0  0  0  0  0  0
  -60.9790  -36.0000  -55.0080 C   0  0  0  0  0  0
  -61.6570  -35.9630  -53.9550 O   0  5  0  0  0  0
  -59.9670  -36.7220  -55.1590 O   0  0  0  0  0  0
  -62.8040  -32.7910  -53.9830 N   0  0  0  0  0  0
  -62.4250  -31.6400  -53.1620 C   0  0  2  0  0  0
  -61.5410  -32.0830  -51.9980 C   0  0  0  0  0  0
  -62.0090  -32.7220  -51.0440 O   0  0  0  0  0  0
  -63.6500  -30.8740  -52.6540 C   0  0  0  0  0  0
  -64.5710  -30.1720  -53.6630 C   0  0  0  0  0  0
  -65.5780  -29.2940  -52.9200 C   0  0  0  0  0  0
  -63.7970  -29.3630  -54.7100 C   0  0  0  0  0  0
  -60.2580  -31.7410  -52.0960 N   0  0  0  0  0  0
  -59.2370  -32.2110  -51.1560 C   0  0  2  0  0  0
  -58.2930  -31.0780  -50.7430 C   0  0  0  0  0  0
  -58.0160  -30.8850  -49.5500 O   0  0  0  0  0  0
  -58.4440  -33.3510  -51.7960 C   0  0  0  0  0  0
  -59.3280  -34.3050  -52.3580 O   0  0  0  0  0  0
  -57.8010  -30.3500  -51.7460 N   0  0  0  0  0  0
  -57.0100  -29.1410  -51.5520 C   0  0  2  0  0  0
  -57.4800  -28.0590  -52.5240 C   0  0  0  0  0  0
  -58.6370  -27.6430  -52.4920 O   0  0  0  0  0  0
  -55.5150  -29.4340  -51.7470 C   0  0  0  0  0  0
  -54.8480  -30.1450  -50.5540 C   0  0  0  0  0  0
  -53.4250  -30.6380  -50.8420 C   0  0  0  0  0  0
  -52.9530  -30.5200  -51.9980 O   0  5  0  0  0  0
  -52.7770  -31.1520  -49.9000 O   0  0  0  0  0  0
  -56.6274  -27.5613  -53.4152 O   0  5  0  0  0  0
  -67.4031  -41.3270  -56.0266 H   0  0  0  0  0  0
  -67.3914  -39.5614  -56.3570 H   0  0  0  0  0  0
  -66.4967  -40.6833  -57.4375 H   0  0  0  0  0  0
  -68.4975  -41.6964  -58.1433 H   0  0  0  0  0  0
  -69.6536  -41.1766  -55.8245 H   0  0  0  0  0  0
  -70.2087  -39.6728  -56.6351 H   0  0  0  0  0  0
  -72.2882  -40.8324  -55.8673 H   0  0  0  0  0  0
  -73.0730  -41.9456  -57.1996 H   0  0  0  0  0  0
  -70.4803  -38.9327  -58.0094 H   0  0  0  0  0  0
  -69.6502  -38.5981  -60.8335 H   0  0  0  0  0  0
  -72.0969  -38.2478  -59.3101 H   0  0  0  0  0  0
  -71.7673  -36.6845  -60.1311 H   0  0  0  0  0  0
  -71.6384  -37.9328  -62.2827 H   0  0  0  0  0  0
  -71.1655  -40.1927  -61.4110 H   0  0  0  0  0  0
  -72.6326  -40.1627  -62.4470 H   0  0  0  0  0  0
  -72.7965  -40.2425  -60.6600 H   0  0  0  0  0  0
  -73.6160  -36.6742  -61.4786 H   0  0  0  0  0  0
  -74.2329  -38.1705  -60.6992 H   0  0  0  0  0  0
  -74.0690  -38.0906  -62.4863 H   0  0  0  0  0  0
  -69.8246  -36.4236  -58.0199 H   0  0  0  0  0  0
  -68.8168  -34.2210  -59.8340 H   0  0  0  0  0  0
  -70.0445  -34.3248  -57.0530 H   0  0  0  0  0  0
  -69.1037  -32.8755  -57.5439 H   0  0  0  0  0  0
  -72.0615  -34.9859  -58.3653 H   0  0  0  0  0  0
  -69.9675  -31.3348  -59.1757 H   0  0  0  0  0  0
  -74.0075  -34.1575  -59.6527 H   0  0  0  0  0  0
  -71.9223  -30.5024  -60.4594 H   0  0  0  0  0  0
  -75.0483  -32.4775  -60.9369 H   0  0  0  0  0  0
  -64.7914  -34.8421  -59.0437 H   0  0  0  0  0  0
  -63.6095  -32.2843  -59.1536 H   0  0  0  0  0  0
  -64.2786  -33.0851  -60.6156 H   0  0  0  0  0  0
  -65.5140  -31.0234  -58.8039 H   0  0  0  0  0  0
  -65.5153  -31.1169  -60.5978 H   0  0  0  0  0  0
  -67.2432  -32.7399  -60.6302 H   0  0  0  0  0  0
  -67.6776  -31.9297  -59.0870 H   0  0  0  0  0  0
  -62.7977  -34.3599  -58.0975 H   0  0  0  0  0  0
  -63.3751  -34.8411  -55.2409 H   0  0  0  0  0  0
  -61.5592  -35.7871  -57.0338 H   0  0  0  0  0  0
  -60.5556  -34.4465  -56.3840 H   0  0  0  0  0  0
  -63.5237  -33.5283  -53.5977 H   0  0  0  0  0  0
  -61.8546  -30.9841  -53.8361 H   0  0  0  0  0  0
  -64.3147  -31.5631  -52.1124 H   0  0  0  0  0  0
  -63.3251  -30.0702  -51.9771 H   0  0  0  0  0  0
  -65.1143  -30.9498  -54.2197 H   0  0  0  0  0  0
  -66.1163  -29.9014  -52.1775 H   0  0  0  0  0  0
  -66.2961  -28.8715  -53.6382 H   0  0  0  0  0  0
  -65.0462  -28.4774  -52.4097 H   0  0  0  0  0  0
  -63.0822  -30.0205  -55.2264 H   0  0  0  0  0  0
  -63.2517  -28.5470  -54.2132 H   0  0  0  0  0  0
  -64.5017  -28.9410  -55.4417 H   0  0  0  0  0  0
  -59.9770  -31.0764  -52.9263 H   0  0  0  0  0  0
  -59.7819  -32.5634  -50.2678 H   0  0  0  0  0  0
  -57.7973  -32.9476  -52.5891 H   0  0  0  0  0  0
  -57.8238  -33.8409  -51.0309 H   0  0  0  0  0  0
  -58.9268  -35.1965  -52.8622 H   0  0  0  0  0  0
  -58.0206  -30.7062  -52.7633 H   0  0  0  0  0  0
  -57.1883  -28.8209  -50.5148 H   0  0  0  0  0  0
  -55.3800  -30.0828  -52.6249 H   0  0  0  0  0  0
  -54.9734  -28.4893  -51.9025 H   0  0  0  0  0  0
  -54.7865  -29.4521  -49.7019 H   0  0  0  0  0  0
  -55.4459  -31.0235  -50.2698 H   0  0  0  0  0  0
  1  2  1  0  0  0
  1 68  1  0  0  0
  1 69  1  0  0  0
  1 70  1  0  0  0
  2  5  1  0  0  0
  2  3  1  0  0  0
  2 71  1  0  0  0
  3  4  2  0  0  0
  3  9  1  0  0  0
  5  6  1  0  0  0
  5 72  1  0  0  0
  5 73  1  0  0  0
  6  8  1  0  0  0
  6  7  2  0  0  0
  8 74  1  0  0  0
  8 75  1  0  0  0
  9 10  1  0  0  0
  9 76  1  0  0  0
 10 13  1  0  0  0
 10 11  1  0  0  0
 10 77  1  0  0  0
 11 12  2  0  0  0
 11 17  1  0  0  0
 13 14  1  0  0  0
 13 78  1  0  0  0
 13 79  1  0  0  0
 14 15  1  0  0  0
 14 16  1  0  0  0
 14 80  1  0  0  0
 15 81  1  0  0  0
 15 82  1  0  0  0
 15 83  1  0  0  0
 16 84  1  0  0  0
 16 85  1  0  0  0
 16 86  1  0  0  0
 17 18  1  0  0  0
 17 87  1  0  0  0
 18 21  1  0  0  0
 18 19  1  0  0  0
 18 88  1  0  0  0
 19 20  2  0  0  0
 19 29  1  0  0  0
 21 22  1  0  0  0
 21 89  1  0  0  0
 21 90  1  0  0  0
 22 23  2  0  0  0
 22 24  1  0  0  0
 23 25  1  0  0  0
 23 91  1  0  0  0
 24 26  2  0  0  0
 24 92  1  0  0  0
 25 27  2  0  0  0
 25 93  1  0  0  0
 26 27  1  0  0  0
 26 94  1  0  0  0
 27 28  1  0  0  0
 28 95  1  0  0  0
 29 30  1  0  0  0
 29 35  1  0  0  0
 30 31  1  0  0  0
 30 33  1  0  0  0
 30 96  1  0  0  0
 31 32  2  0  0  0
 31 36  1  0  0  0
 33 34  1  0  0  0
 33 97  1  0  0  0
 33 98  1  0  0  0
 34 35  1  0  0  0
 34 99  1  0  0  0
 34100  1  0  0  0
 35101  1  0  0  0
 35102  1  0  0  0
 36 37  1  0  0  0
 36103  1  0  0  0
 37 40  1  0  0  0
 37 38  1  0  0  0
 37104  1  0  0  0
 38 39  2  0  0  0
 38 44  1  0  0  0
 40 41  1  0  0  0
 40105  1  0  0  0
 40106  1  0  0  0
 41 42  1  0  0  0
 41 43  2  0  0  0
 44 45  1  0  0  0
 44107  1  0  0  0
 45 48  1  0  0  0
 45 46  1  0  0  0
 45108  1  0  0  0
 46 47  2  0  0  0
 46 52  1  0  0  0
 48 49  1  0  0  0
 48109  1  0  0  0
 48110  1  0  0  0
 49 50  1  0  0  0
 49 51  1  0  0  0
 49111  1  0  0  0
 50112  1  0  0  0
 50113  1  0  0  0
 50114  1  0  0  0
 51115  1  0  0  0
 51116  1  0  0  0
 51117  1  0  0  0
 52 53  1  0  0  0
 52118  1  0  0  0
 53 56  1  0  0  0
 53 54  1  0  0  0
 53119  1  0  0  0
 54 55  2  0  0  0
 54 58  1  0  0  0
 56 57  1  0  0  0
 56120  1  0  0  0
 56121  1  0  0  0
 57122  1  0  0  0
 58 59  1  0  0  0
 58123  1  0  0  0
 59 62  1  0  0  0
 59 60  1  0  0  0
 59124  1  0  0  0
 60 61  2  0  0  0
 60 67  1  0  0  0
 62 63  1  0  0  0
 62125  1  0  0  0
 62126  1  0  0  0
 63 64  1  0  0  0
 63127  1  0  0  0
 63128  1  0  0  0
 64 66  2  0  0  0
 64 65  1  0  0  0
M  CHG  4   1   1  42  -1  65  -1  67  -1
M  END
> <s_m_source_file>
../2r03_ligand.sdf

> <i_m_source_file_index>
1

> <s_epik_input>
Tz1DKFtOSDJdKVtDSDJdW0NASF0oW05IMytdKUMoPU8pW05IXVtDQEBIXShbQ0gyXVtDSF0oW0NIM10pW0NIM10pQyg9TylbTkhdW0NAQEhdKFtDSDJdYzFbY0hdW2NIXWMoW09IXSlbY0hdW2NIXTEpQyg9TylOMltDQEBIXShbQ0gyXVtDSDJdW0NIMl0yKUMoPU8pW05IXVtDQEBIXShbQ0gyXUMoPU8pW09IXSlDKD1PKVtOSF1bQ0BASF0oW0NIMl1bQ0hdKFtDSDNdKVtDSDNdKUMoPU8pW05IXVtDQEBIXShbQ0gyXVtPSF0pQyg9TylbTkhdW0NASF0oQyg9TylbT0hdKVtDSDJdW0NIMl1DKD1PKVtPSF0=

> <s_epik_cmdline>
J2VwaWtfYXBwJywgJy1pbWFlJywgJ2xpZ2FuZF9wcm8ubWFlJywgJy1vbWFlJywgJ2xpZ2FuZF9wcmVwLm1hZScsICctbXMnLCAnMScsICctcGgnLCAnNycsICctcGh0JywgJzAuNScsICctbnQn

> <r_lp_tautomer_probability>
0.999999999997365

> <r_epik_Ionization_Penalty>
  0.2088

> <r_epik_Ionization_Penalty_Charging>
  0.2078

> <r_epik_Ionization_Penalty_Neutral>
  0.0010

> <r_epik_State_Penalty>
  0.1904

> <r_epik_Charging_Adjusted_Penalty>
0.398135116593767

> <i_epik_Tot_Q>
-2

> <i_epik_Tot_abs_Q>
4

$$$$
