2r05_ligand
                    3D
 Schrodinger Suite 2020-3.
187188  0  0  1  0            999 V2000
  -65.7590  -41.3860  -61.9880 N   0  3  0  0  0  0
  -66.2480  -40.2650  -61.1360 C   0  0  2  0  0  0
  -67.1220  -39.2680  -61.9110 C   0  0  0  0  0  0
  -66.7770  -38.8460  -63.0300 O   0  0  0  0  0  0
  -65.0710  -39.5360  -60.4610 C   0  0  0  0  0  0
  -64.2830  -38.5680  -61.3560 C   0  0  0  0  0  0
  -63.3840  -37.6230  -60.5650 C   0  0  0  0  0  0
  -63.3120  -37.7690  -59.3210 O   0  0  0  0  0  0
  -62.7540  -36.7310  -61.1850 O   0  0  0  0  0  0
  -68.2420  -38.8870  -61.2990 N   0  0  0  0  0  0
  -69.1220  -37.8700  -61.8650 C   0  0  2  0  0  0
  -68.5390  -36.4690  -61.6650 C   0  0  0  0  0  0
  -67.9170  -35.9190  -62.5770 O   0  0  0  0  0  0
  -70.5290  -37.9840  -61.2740 C   0  0  0  0  0  0
  -71.6470  -37.1830  -61.9450 C   0  0  0  0  0  0
  -71.7270  -37.4640  -63.4360 C   0  0  0  0  0  0
  -72.9600  -37.4900  -61.2760 C   0  0  0  0  0  0
  -68.7320  -35.9050  -60.4740 N   0  0  0  0  0  0
  -68.1550  -34.6080  -60.1270 C   0  0  2  0  0  0
  -66.7270  -34.7670  -59.6130 C   0  0  0  0  0  0
  -66.4300  -35.7550  -58.9440 O   0  0  0  0  0  0
  -69.0380  -33.8910  -59.1080 C   0  0  0  0  0  0
  -70.2920  -33.3380  -59.7390 C   0  0  0  0  0  0
  -71.4200  -34.1410  -59.9160 C   0  0  0  0  0  0
  -70.3460  -32.0180  -60.1850 C   0  0  0  0  0  0
  -72.5650  -33.6440  -60.5130 C   0  0  0  0  0  0
  -71.4950  -31.5060  -60.7780 C   0  0  0  0  0  0
  -72.5960  -32.3280  -60.9430 C   0  0  0  0  0  0
  -73.7330  -31.8310  -61.5330 O   0  0  0  0  0  0
  -65.8370  -33.7930  -59.9150 N   0  0  0  0  0  0
  -64.4390  -33.9420  -59.5380 C   0  0  2  0  0  0
  -64.2460  -33.6710  -58.0540 C   0  0  0  0  0  0
  -63.6790  -32.6460  -57.6760 O   0  0  0  0  0  0
  -63.7350  -32.8740  -60.3810 C   0  0  0  0  0  0
  -64.7460  -31.8140  -60.5560 C   0  0  0  0  0  0
  -66.0860  -32.4980  -60.5820 C   0  0  0  0  0  0
  -64.7400  -34.5900  -57.2290 N   0  0  0  0  0  0
  -64.5490  -34.5470  -55.7830 C   0  0  2  0  0  0
  -63.0840  -34.8140  -55.4120 C   0  0  0  0  0  0
  -62.6680  -34.5490  -54.2830 O   0  0  0  0  0  0
  -65.4740  -35.5540  -55.0840 C   0  0  0  0  0  0
  -66.9970  -35.3340  -55.0410 C   0  0  0  0  0  0
  -67.7270  -36.5950  -54.5650 C   0  0  0  0  0  0
  -67.3820  -34.1440  -54.1620 C   0  0  0  0  0  0
  -62.3140  -35.3330  -56.3720 N   0  0  0  0  0  0
  -60.8870  -35.5990  -56.1940 C   0  0  2  0  0  0
  -60.0810  -34.3000  -56.2610 C   0  0  0  0  0  0
  -59.2600  -34.0180  -55.3790 O   0  0  0  0  0  0
  -60.3950  -36.5990  -57.2370 C   0  0  0  0  0  0
  -60.3300  -33.5180  -57.3100 N   0  0  0  0  0  0
  -59.7470  -32.1870  -57.4640 C   0  0  2  0  0  0
  -60.1390  -31.2390  -56.3350 C   0  0  0  0  0  0
  -59.3130  -30.4570  -55.8720 O   0  0  0  0  0  0
  -60.1590  -31.5740  -58.8010 C   0  0  0  0  0  0
  -59.5770  -32.2740  -59.8820 O   0  0  0  0  0  0
  -61.3960  -31.3120  -55.9020 N   0  0  0  0  0  0
  -61.9080  -30.4180  -54.8680 C   0  0  2  0  0  0
  -61.2780  -30.6680  -53.4910 C   0  0  0  0  0  0
  -60.8880  -29.7180  -52.8050 O   0  0  0  0  0  0
  -63.4390  -30.4960  -54.7880 C   0  0  0  0  0  0
  -64.1130  -29.7070  -53.6590 C   0  0  0  0  0  0
  -64.1300  -28.2210  -53.9740 C   0  0  0  0  0  0
  -65.5180  -30.2190  -53.4100 C   0  0  0  0  0  0
  -61.1750  -31.9390  -53.1050 N   0  0  0  0  0  0
  -60.6560  -32.3280  -51.7850 C   0  0  2  0  0  0
  -59.1860  -31.9680  -51.5380 C   0  0  0  0  0  0
  -58.8170  -31.5890  -50.4200 O   0  0  0  0  0  0
  -60.8770  -33.8200  -51.5320 C   0  0  0  0  0  0
  -62.2520  -34.1650  -50.9940 C   0  0  0  0  0  0
  -62.2830  -35.6040  -50.5140 C   0  0  0  0  0  0
  -63.5290  -35.9260  -49.8180 N   0  0  0  0  0  0
  -63.7120  -37.0070  -49.0640 C   0  0  0  0  0  0
  -62.7280  -37.8870  -48.8920 N   0  0  0  0  0  0
  -64.8830  -37.2080  -48.4740 N   0  0  0  0  0  0
  -58.3530  -32.0930  -52.5710 N   0  0  0  0  0  0
  -56.9430  -31.6960  -52.4810 C   0  0  2  0  0  0
  -56.7890  -30.2120  -52.8320 C   0  0  0  0  0  0
  -56.1140  -29.8540  -53.8130 O   0  0  0  0  0  0
  -56.0730  -32.5700  -53.3940 C   0  0  0  0  0  0
  -56.5170  -32.5030  -54.7420 O   0  0  0  0  0  0
  -57.4290  -29.3590  -52.0180 N   0  0  0  0  0  0
  -57.5140  -27.9230  -52.2690 C   0  0  2  0  0  0
  -58.2800  -27.2300  -51.1270 C   0  0  0  0  0  0
  -57.7190  -27.5980  -49.6260 O   0  0  0  0  0  0
  -58.2190  -27.6780  -53.6110 C   0  0  0  0  0  0
  -57.5930  -26.7240  -54.6370 C   0  0  0  0  0  0
  -56.0450  -26.7990  -54.6580 C   0  0  0  0  0  0
  -58.1940  -27.0260  -56.0250 C   0  0  0  0  0  0
  -66.6162  -41.8901  -62.4582 H   0  0  0  0  0  0
  -65.2067  -42.1055  -61.3657 H   0  0  0  0  0  0
  -65.0932  -40.9896  -62.7688 H   0  0  0  0  0  0
  -66.8801  -40.7479  -60.3762 H   0  0  0  0  0  0
  -65.4455  -38.9384  -59.6168 H   0  0  0  0  0  0
  -64.3443  -40.2753  -60.0931 H   0  0  0  0  0  0
  -63.6429  -39.1418  -62.0423 H   0  0  0  0  0  0
  -64.9850  -37.9526  -61.9377 H   0  0  0  0  0  0
  -62.0995  -36.0377  -60.6364 H   0  0  0  0  0  0
  -68.4963  -39.3625  -60.3402 H   0  0  0  0  0  0
  -69.1665  -38.0845  -62.9430 H   0  0  0  0  0  0
  -70.8597  -39.0324  -61.3140 H   0  0  0  0  0  0
  -70.5161  -37.6433  -60.2282 H   0  0  0  0  0  0
  -71.4346  -36.1100  -61.8284 H   0  0  0  0  0  0
  -70.7590  -37.2335  -63.9050 H   0  0  0  0  0  0
  -72.5109  -36.8369  -63.8857 H   0  0  0  0  0  0
  -71.9690  -38.5250  -63.5967 H   0  0  0  0  0  0
  -72.8807  -37.2801  -60.1991 H   0  0  0  0  0  0
  -73.2084  -38.5511  -61.4255 H   0  0  0  0  0  0
  -73.7504  -36.8631  -61.7145 H   0  0  0  0  0  0
  -69.3478  -36.4469  -59.7410 H   0  0  0  0  0  0
  -68.1298  -34.0264  -61.0603 H   0  0  0  0  0  0
  -69.3331  -34.5968  -58.3176 H   0  0  0  0  0  0
  -68.4792  -33.0546  -58.6628 H   0  0  0  0  0  0
  -71.3984  -35.1771  -59.5782 H   0  0  0  0  0  0
  -69.4727  -31.3765  -60.0668 H   0  0  0  0  0  0
  -73.4373  -34.2844  -60.6440 H   0  0  0  0  0  0
  -71.5280  -30.4681  -61.1094 H   0  0  0  0  0  0
  -74.6115  -32.4793  -61.6670 H   0  0  0  0  0  0
  -64.0929  -34.9701  -59.7204 H   0  0  0  0  0  0
  -62.8474  -32.5090  -59.8436 H   0  0  0  0  0  0
  -63.4276  -33.3100  -61.3430 H   0  0  0  0  0  0
  -64.6835  -31.1056  -59.7168 H   0  0  0  0  0  0
  -64.5592  -31.2814  -61.5001 H   0  0  0  0  0  0
  -66.4413  -32.6762  -61.6077 H   0  0  0  0  0  0
  -66.8491  -31.9377  -60.0218 H   0  0  0  0  0  0
  -65.3154  -35.4099  -57.6836 H   0  0  0  0  0  0
  -64.8206  -33.5220  -55.4904 H   0  0  0  0  0  0
  -65.3714  -36.5393  -55.5621 H   0  0  0  0  0  0
  -65.1967  -35.6310  -54.0223 H   0  0  0  0  0  0
  -67.3166  -35.1061  -56.0686 H   0  0  0  0  0  0
  -67.4440  -37.4453  -55.2029 H   0  0  0  0  0  0
  -68.8135  -36.4353  -54.6276 H   0  0  0  0  0  0
  -67.4473  -36.8093  -53.5230 H   0  0  0  0  0  0
  -66.8537  -33.2444  -54.5108 H   0  0  0  0  0  0
  -67.1015  -34.3526  -53.1190 H   0  0  0  0  0  0
  -68.4678  -33.9787  -54.2237 H   0  0  0  0  0  0
  -62.8006  -35.5619  -57.3316 H   0  0  0  0  0  0
  -60.7865  -36.0390  -55.1909 H   0  0  0  0  0  0
  -60.9890  -37.5223  -57.1686 H   0  0  0  0  0  0
  -59.3355  -36.8301  -57.0523 H   0  0  0  0  0  0
  -60.5059  -36.1652  -58.2418 H   0  0  0  0  0  0
  -61.0075  -33.9142  -58.0807 H   0  0  0  0  0  0
  -58.6626  -32.3668  -57.4218 H   0  0  0  0  0  0
  -61.2535  -31.6169  -58.9023 H   0  0  0  0  0  0
  -59.8279  -30.5258  -58.8414 H   0  0  0  0  0  0
  -59.7771  -31.9548  -60.9155 H   0  0  0  0  0  0
  -62.0543  -32.0731  -56.3463 H   0  0  0  0  0  0
  -61.5911  -29.4226  -55.2126 H   0  0  0  0  0  0
  -63.8750  -30.1111  -55.7217 H   0  0  0  0  0  0
  -63.7458  -31.5425  -54.6442 H   0  0  0  0  0  0
  -63.5343  -29.8501  -52.7345 H   0  0  0  0  0  0
  -63.1020  -27.8719  -54.1508 H   0  0  0  0  0  0
  -64.5631  -27.6712  -53.1254 H   0  0  0  0  0  0
  -64.7372  -28.0439  -54.8740 H   0  0  0  0  0  0
  -65.4815  -31.2950  -53.1843 H   0  0  0  0  0  0
  -66.1330  -30.0531  -54.3068 H   0  0  0  0  0  0
  -65.9589  -29.6804  -52.5582 H   0  0  0  0  0  0
  -61.4971  -32.7115  -53.8188 H   0  0  0  0  0  0
  -61.2617  -31.7115  -51.1046 H   0  0  0  0  0  0
  -60.7519  -34.3741  -52.4740 H   0  0  0  0  0  0
  -60.1438  -34.1795  -50.7950 H   0  0  0  0  0  0
  -62.4936  -33.5000  -50.1518 H   0  0  0  0  0  0
  -63.0003  -34.0355  -51.7898 H   0  0  0  0  0  0
  -62.1880  -36.2803  -51.3763 H   0  0  0  0  0  0
  -61.4482  -35.7767  -49.8189 H   0  0  0  0  0  0
  -64.3948  -35.2524  -49.9002 H   0  0  0  0  0  0
  -61.7547  -37.7259  -49.3786 H   0  0  0  0  0  0
  -62.8882  -38.7753  -48.2633 H   0  0  0  0  0  0
  -65.6999  -36.4845  -48.6123 H   0  0  0  0  0  0
  -58.7490  -32.5070  -53.5101 H   0  0  0  0  0  0
  -56.6448  -31.8605  -51.4350 H   0  0  0  0  0  0
  -55.0304  -32.2222  -53.3496 H   0  0  0  0  0  0
  -56.1251  -33.6162  -53.0583 H   0  0  0  0  0  0
  -55.9947  -33.0762  -55.5222 H   0  0  0  0  0  0
  -57.9042  -29.7903  -51.1246 H   0  0  0  0  0  0
  -56.4794  -27.5513  -52.3071 H   0  0  0  0  0  0
  -58.2038  -26.1389  -51.2436 H   0  0  0  0  0  0
  -59.3380  -27.5293  -51.1606 H   0  0  0  0  0  0
  -58.1947  -27.1569  -48.7376 H   0  0  0  0  0  0
  -58.3153  -28.6299  -54.1537 H   0  0  0  0  0  0
  -59.2188  -27.2572  -53.4285 H   0  0  0  0  0  0
  -57.8414  -25.6942  -54.3407 H   0  0  0  0  0  0
  -55.6536  -26.5786  -53.6539 H   0  0  0  0  0  0
  -55.6519  -26.0628  -55.3746 H   0  0  0  0  0  0
  -55.7309  -27.8089  -54.9604 H   0  0  0  0  0  0
  -59.2909  -26.9636  -55.9710 H   0  0  0  0  0  0
  -57.8993  -28.0380  -56.3398 H   0  0  0  0  0  0
  -57.8204  -26.2918  -56.7540 H   0  0  0  0  0  0
  1  2  1  0  0  0
  1 89  1  0  0  0
  1 90  1  0  0  0
  1 91  1  0  0  0
  2  3  1  0  0  0
  2  5  1  0  0  0
  2 92  1  0  0  0
  3  4  2  0  0  0
  3 10  1  0  0  0
  5  6  1  0  0  0
  5 93  1  0  0  0
  5 94  1  0  0  0
  6  7  1  0  0  0
  6 95  1  0  0  0
  6 96  1  0  0  0
  7  8  2  0  0  0
  7  9  1  0  0  0
  9 97  1  0  0  0
 10 11  1  0  0  0
 10 98  1  0  0  0
 11 12  1  0  0  0
 11 14  1  0  0  0
 11 99  1  0  0  0
 12 13  2  0  0  0
 12 18  1  0  0  0
 14 15  1  0  0  0
 14100  1  0  0  0
 14101  1  0  0  0
 15 16  1  0  0  0
 15 17  1  0  0  0
 15102  1  0  0  0
 16103  1  0  0  0
 16104  1  0  0  0
 16105  1  0  0  0
 17106  1  0  0  0
 17107  1  0  0  0
 17108  1  0  0  0
 18 19  1  0  0  0
 18109  1  0  0  0
 19 20  1  0  0  0
 19 22  1  0  0  0
 19110  1  0  0  0
 20 21  2  0  0  0
 20 30  1  0  0  0
 22 23  1  0  0  0
 22111  1  0  0  0
 22112  1  0  0  0
 23 24  2  0  0  0
 23 25  1  0  0  0
 24 26  1  0  0  0
 24113  1  0  0  0
 25 27  2  0  0  0
 25114  1  0  0  0
 26 28  2  0  0  0
 26115  1  0  0  0
 27 28  1  0  0  0
 27116  1  0  0  0
 28 29  1  0  0  0
 29117  1  0  0  0
 30 31  1  0  0  0
 30 36  1  0  0  0
 31 32  1  0  0  0
 31 34  1  0  0  0
 31118  1  0  0  0
 32 33  2  0  0  0
 32 37  1  0  0  0
 34 35  1  0  0  0
 34119  1  0  0  0
 34120  1  0  0  0
 35 36  1  0  0  0
 35121  1  0  0  0
 35122  1  0  0  0
 36123  1  0  0  0
 36124  1  0  0  0
 37 38  1  0  0  0
 37125  1  0  0  0
 38 39  1  0  0  0
 38 41  1  0  0  0
 38126  1  0  0  0
 39 40  2  0  0  0
 39 45  1  0  0  0
 41 42  1  0  0  0
 41127  1  0  0  0
 41128  1  0  0  0
 42 43  1  0  0  0
 42 44  1  0  0  0
 42129  1  0  0  0
 43130  1  0  0  0
 43131  1  0  0  0
 43132  1  0  0  0
 44133  1  0  0  0
 44134  1  0  0  0
 44135  1  0  0  0
 45 46  1  0  0  0
 45136  1  0  0  0
 46 47  1  0  0  0
 46 49  1  0  0  0
 46137  1  0  0  0
 47 48  2  0  0  0
 47 50  1  0  0  0
 49138  1  0  0  0
 49139  1  0  0  0
 49140  1  0  0  0
 50 51  1  0  0  0
 50141  1  0  0  0
 51 52  1  0  0  0
 51 54  1  0  0  0
 51142  1  0  0  0
 52 53  2  0  0  0
 52 56  1  0  0  0
 54 55  1  0  0  0
 54143  1  0  0  0
 54144  1  0  0  0
 55145  1  0  0  0
 56 57  1  0  0  0
 56146  1  0  0  0
 57 58  1  0  0  0
 57 60  1  0  0  0
 57147  1  0  0  0
 58 59  2  0  0  0
 58 64  1  0  0  0
 60 61  1  0  0  0
 60148  1  0  0  0
 60149  1  0  0  0
 61 62  1  0  0  0
 61 63  1  0  0  0
 61150  1  0  0  0
 62151  1  0  0  0
 62152  1  0  0  0
 62153  1  0  0  0
 63154  1  0  0  0
 63155  1  0  0  0
 63156  1  0  0  0
 64 65  1  0  0  0
 64157  1  0  0  0
 65 66  1  0  0  0
 65 68  1  0  0  0
 65158  1  0  0  0
 66 67  2  0  0  0
 66 75  1  0  0  0
 68 69  1  0  0  0
 68159  1  0  0  0
 68160  1  0  0  0
 69 70  1  0  0  0
 69161  1  0  0  0
 69162  1  0  0  0
 70 71  1  0  0  0
 70163  1  0  0  0
 70164  1  0  0  0
 71 72  1  0  0  0
 71165  1  0  0  0
 72 73  1  0  0  0
 72 74  2  0  0  0
 73166  1  0  0  0
 73167  1  0  0  0
 74168  1  0  0  0
 75 76  1  0  0  0
 75169  1  0  0  0
 76 77  1  0  0  0
 76 79  1  0  0  0
 76170  1  0  0  0
 77 78  2  0  0  0
 77 81  1  0  0  0
 79 80  1  0  0  0
 79171  1  0  0  0
 79172  1  0  0  0
 80173  1  0  0  0
 81 82  1  0  0  0
 81174  1  0  0  0
 82 83  1  0  0  0
 82 85  1  0  0  0
 82175  1  0  0  0
 83 84  1  0  0  0
 83176  1  0  0  0
 83177  1  0  0  0
 84178  1  0  0  0
 85 86  1  0  0  0
 85179  1  0  0  0
 85180  1  0  0  0
 86 87  1  0  0  0
 86 88  1  0  0  0
 86181  1  0  0  0
 87182  1  0  0  0
 87183  1  0  0  0
 87184  1  0  0  0
 88185  1  0  0  0
 88186  1  0  0  0
 88187  1  0  0  0
M  CHG  1   1   1
M  END
> <s_m_source_file>
../2r05_ligand.sdf

> <i_m_source_file_index>
1

> <s_epik_input>
Tz1DKFtPSF0pW0NIMl1bQ0gyXVtDQEhdKFtOSDMrXSlDKD1PKVtOSF1bQ0BASF0oW0NIMl1bQ0hdKFtDSDNdKVtDSDNdKUMoPU8pW05IXVtDQEBIXShbQ0gyXWMxW2NIXVtjSF1jKFtPSF0pW2NIXVtjSF0xKUMoPU8pTjJbQ0BASF0oW0NIMl1bQ0gyXVtDSDJdMilDKD1PKVtOSF1bQ0BASF0oW0NIMl1bQ0hdKFtDSDNdKVtDSDNdKUMoPU8pW05IXVtDQEBIXShbQ0gzXSlDKD1PKVtOSF1bQ0BASF0oW0NIMl1bT0hdKUMoPU8pW05IXVtDQEBIXShbQ0gyXVtDSF0oW0NIM10pW0NIM10pQyg9TylbTkhdW0NAQEhdKFtDSDJdW0NIMl1bQ0gyXVtOSF0vQyhbTkgyXSk9TlxbSF0pQyg9TylbTkhdW0NAQEhdKFtDSDJdW09IXSlDKD1PKVtOSF1bQ0BIXShbQ0gyXVtPSF0pW0NIMl1bQ0hdKFtDSDNdKVtDSDNd

> <s_epik_cmdline>
J2VwaWtfYXBwJywgJy1pbWFlJywgJ2xpZ2FuZF9wcm8ubWFlJywgJy1vbWFlJywgJ2xpZ2FuZF9wcmVwLm1hZScsICctbXMnLCAnMScsICctcGgnLCAnNycsICctcGh0JywgJzAuNScsICctbnQn

> <s_epik_pKa_notes>
Molecule size exceeds maximum supported for generating protonation states

> <s_epik_Chemistry_Notes>
This compound has an imine and may undergo hydrolysis.

$$$$
