2r0u_ligand
                    3D
 Schrodinger Suite 2020-3.
 54 58  0  0  1  0            999 V2000
   19.8780   -2.0870    9.4050 C   0  0  0  0  0  0
   19.9870   -3.3720   10.1190 C   0  0  0  0  0  0
   18.8590   -3.9520   10.8160 C   0  0  0  0  0  0
   18.6100   -1.3970    9.3630 C   0  0  0  0  0  0
   17.4550   -1.9640    9.9920 C   0  0  0  0  0  0
   17.5860   -3.2680   10.7390 C   0  0  0  0  0  0
   16.4460   -3.8580   11.3820 C   0  0  0  0  0  0
   15.1960   -3.2330   11.3060 C   0  0  0  0  0  0
   16.1580   -1.3310    9.9400 C   0  0  0  0  0  0
   14.9890   -1.9590   10.6170 C   0  0  0  0  0  0
   13.6890   -1.3150   10.5650 C   0  0  0  0  0  0
   13.4940   -0.0980    9.9540 C   0  0  0  0  0  0
   14.6310    0.5080    9.2790 N   0  0  0  0  0  0
   15.8860   -0.0490    9.2160 C   0  0  0  0  0  0
   16.7780    0.5950    8.5610 O   0  0  0  0  0  0
   21.0740   -1.5050    8.7300 C   0  0  0  0  0  0
   22.3460   -2.1160    8.6840 C   0  0  0  0  0  0
   23.1200   -1.2290    7.9730 N   0  3  0  0  0  0
   22.3530   -0.1360    7.6230 N   0  0  0  0  0  0
   21.0880   -0.2820    8.0510 C   0  0  0  0  0  0
   16.7050   -5.1990   12.1100 C   0  0  0  0  0  0
   16.3020   -5.1920   13.5420 C   0  0  0  0  0  0
   16.9060   -4.1800   14.4100 C   0  0  0  0  0  0
   16.3320   -4.4330   15.7530 N   0  3  0  0  0  0
   12.4770   -1.9660   11.2320 C   0  0  0  0  0  0
   11.3210   -2.3750   10.3750 C   0  0  0  0  0  0
   10.0630   -3.3100   12.3420 C   0  0  0  0  0  0
   11.1930   -2.9280   13.1230 C   0  0  0  0  0  0
   10.1100   -3.0050   10.9310 C   0  0  0  0  0  0
   12.4210   -2.2980   12.6300 C   0  0  0  0  0  0
   11.1560   -3.1890   14.2910 O   0  0  0  0  0  0
   20.9413   -3.8987   10.1221 H   0  0  0  0  0  0
   18.9652   -4.8772   11.3825 H   0  0  0  0  0  0
   18.5315   -0.4388    8.8494 H   0  0  0  0  0  0
   14.3411   -3.7155   11.7798 H   0  0  0  0  0  0
   12.5219    0.3947    9.9750 H   0  0  0  0  0  0
   14.5172    1.4781    8.7731 H   0  0  0  0  0  0
   22.5052   -3.0918    9.1662 H   0  0  0  0  0  0
   20.3394    0.4927    7.8289 H   0  0  0  0  0  0
   16.1373   -6.0006   11.6149 H   0  0  0  0  0  0
   17.7789   -5.4343   12.0741 H   0  0  0  0  0  0
   15.2168   -5.0283   13.6167 H   0  0  0  0  0  0
   16.5594   -6.1584   14.0001 H   0  0  0  0  0  0
   17.9995   -4.2998   14.4071 H   0  0  0  0  0  0
   16.6460   -3.1772   14.0401 H   0  0  0  0  0  0
   16.7411   -3.7055   16.4696 H   0  0  0  0  0  0
   16.5912   -5.4519   16.0765 H   0  0  0  0  0  0
   15.2378   -4.3293   15.7095 H   0  0  0  0  0  0
   11.3976   -2.1901    9.2934 H   0  0  0  0  0  0
    9.9250   -4.3995   12.4053 H   0  0  0  0  0  0
    9.1646   -2.8038   12.7249 H   0  0  0  0  0  0
    9.2589   -3.2361   10.2735 H   0  0  0  0  0  0
   13.2788   -2.0777   13.2824 H   0  0  0  0  0  0
   24.1778   -1.2767    7.6751 H   0  0  0  0  0  0
  1  2  2  0  0  0
  1  4  1  0  0  0
  1 16  1  0  0  0
  2  3  1  0  0  0
  2 32  1  0  0  0
  3  6  2  0  0  0
  3 33  1  0  0  0
  4  5  2  0  0  0
  4 34  1  0  0  0
  5  6  1  0  0  0
  5  9  1  0  0  0
  6  7  1  0  0  0
  7  8  2  0  0  0
  7 21  1  0  0  0
  8 10  1  0  0  0
  8 35  1  0  0  0
  9 10  2  0  0  0
  9 14  1  0  0  0
 10 11  1  0  0  0
 11 12  2  0  0  0
 11 25  1  0  0  0
 12 13  1  0  0  0
 12 36  1  0  0  0
 13 14  1  0  0  0
 13 37  1  0  0  0
 14 15  2  0  0  0
 16 17  2  0  0  0
 16 20  1  0  0  0
 17 18  1  0  0  0
 17 38  1  0  0  0
 18 19  1  0  0  0
 18 54  1  0  0  0
 19 20  2  0  0  0
 20 39  1  0  0  0
 21 22  1  0  0  0
 21 40  1  0  0  0
 21 41  1  0  0  0
 22 23  1  0  0  0
 22 42  1  0  0  0
 22 43  1  0  0  0
 23 24  1  0  0  0
 23 44  1  0  0  0
 23 45  1  0  0  0
 24 46  1  0  0  0
 24 47  1  0  0  0
 24 48  1  0  0  0
 25 26  1  0  0  0
 25 30  2  0  0  0
 26 29  2  0  0  0
 26 49  1  0  0  0
 27 28  1  0  0  0
 27 29  1  0  0  0
 27 50  1  0  0  0
 27 51  1  0  0  0
 28 30  1  0  0  0
 28 31  2  0  0  0
 29 52  1  0  0  0
 30 53  1  0  0  0
M  CHG  2  18   1  24   1
M  END
> <s_m_source_file>
../2r0u_ligand.sdf

> <i_m_source_file_index>
1

> <s_epik_input>
W2NIXTFuW25IXVtjSF1jMS1jKFtjSF0yKVtjSF1bY0hdYyhjMjMpYyhbQ0gyXVtDSDJdW0NIMl1bTkgzK10pW2NIXWM0YzNjKD1PKVtuSF1bY0hdYzRDNT1bQ0hdQyg9TylbQ0gyXVtDSF09W0NIXTU=

> <s_epik_cmdline>
J2VwaWtfYXBwJywgJy1pbWFlJywgJ2xpZ2FuZF9wcm8ubWFlJywgJy1vbWFlJywgJ2xpZ2FuZF9wcmVwLm1hZScsICctbXMnLCAnMScsICctcGgnLCAnNycsICctcGh0JywgJzAuNScsICctbnQn

> <r_lp_tautomer_probability>
7.51999999998018e-14

> <r_epik_Ionization_Penalty>
  0.0008

> <r_epik_Ionization_Penalty_Charging>
  0.0008

> <r_epik_Ionization_Penalty_Neutral>
  0.0000

> <r_epik_State_Penalty>
  0.4107

> <r_epik_Charging_Adjusted_Penalty>
0.411448031821067

> <i_epik_Tot_Q>
2

> <i_epik_Tot_abs_Q>
2

> <s_epik_Chemistry_Notes>
This compound has an imine and may undergo hydrolysis.

$$$$
