2r0y_ligand
                    3D
 Schrodinger Suite 2020-3.
 29 28  0  0  1  0            999 V2000
   26.2960   11.9560    6.4600 O   0  0  0  0  0  0
   27.4360   11.6540    6.1390 C   0  0  0  0  0  0
   28.5950   11.6290    7.1160 C   0  0  0  0  0  0
   27.7610   11.3040    4.8890 N   0  0  0  0  0  0
   26.7950   11.2740    3.8070 C   0  0  0  0  0  0
   26.5070    9.8290    3.4250 C   0  0  0  0  0  0
   26.9600    9.5410    2.0000 C   0  0  0  0  0  0
   25.8630    9.9310    1.0050 C   0  0  0  0  0  0
   24.5220    9.1960    1.1880 C   0  0  2  0  0  0
   24.6320    7.7830    0.7160 N   0  3  0  0  0  0
   23.3820    9.8840    0.4750 C   0  0  0  0  0  0
   23.5538   10.5415   -0.5860 O   0  5  0  0  0  0
   22.2211    9.7976    0.9570 O   0  0  0  0  0  0
   28.2404   11.9284    8.1133 H   0  0  0  0  0  0
   29.3741   12.3284    6.7786 H   0  0  0  0  0  0
   29.0114   10.6120    7.1649 H   0  0  0  0  0  0
   28.8095   11.0319    4.6979 H   0  0  0  0  0  0
   25.8637   11.7599    4.1334 H   0  0  0  0  0  0
   27.2024   11.8094    2.9368 H   0  0  0  0  0  0
   27.0437    9.1550    4.1089 H   0  0  0  0  0  0
   25.4259    9.6393    3.4967 H   0  0  0  0  0  0
   27.8679   10.1215    1.7795 H   0  0  0  0  0  0
   27.1763    8.4677    1.8938 H   0  0  0  0  0  0
   25.6472   11.0055    1.0997 H   0  0  0  0  0  0
   26.2024    9.7141   -0.0186 H   0  0  0  0  0  0
   24.2782    9.1882    2.2606 H   0  0  0  0  0  0
   25.4631    7.2859    1.2376 H   0  0  0  0  0  0
   24.8203    7.7720   -0.3677 H   0  0  0  0  0  0
   23.6936    7.2507    0.9306 H   0  0  0  0  0  0
  1  2  2  0  0  0
  2  3  1  0  0  0
  2  4  1  0  0  0
  3 14  1  0  0  0
  3 15  1  0  0  0
  3 16  1  0  0  0
  4  5  1  0  0  0
  4 17  1  0  0  0
  5  6  1  0  0  0
  5 18  1  0  0  0
  5 19  1  0  0  0
  6  7  1  0  0  0
  6 20  1  0  0  0
  6 21  1  0  0  0
  7  8  1  0  0  0
  7 22  1  0  0  0
  7 23  1  0  0  0
  8  9  1  0  0  0
  8 24  1  0  0  0
  8 25  1  0  0  0
  9 10  1  0  0  0
  9 11  1  0  0  0
  9 26  1  0  0  0
 10 27  1  0  0  0
 10 28  1  0  0  0
 10 29  1  0  0  0
 11 12  1  0  0  0
 11 13  2  0  0  0
M  CHG  2  10   1  12  -1
M  END
> <s_m_source_file>
../2r0y_ligand.sdf

> <i_m_source_file_index>
1

> <s_epik_input>
Tz1DKFtDSDNdKVtOSF1bQ0gyXVtDSDJdW0NIMl1bQ0gyXVtDQEhdKFtOSDMrXSlDKD1PKVtPSF0=

> <s_epik_cmdline>
J2VwaWtfYXBwJywgJy1pbWFlJywgJ2xpZ2FuZF9wcm8ubWFlJywgJy1vbWFlJywgJ2xpZ2FuZF9wcmVwLm1hZScsICctbXMnLCAnMScsICctcGgnLCAnNycsICctcGh0JywgJzAuNScsICctbnQn

> <r_lp_tautomer_probability>
1

> <r_epik_Ionization_Penalty>
  0.0011

> <r_epik_Ionization_Penalty_Charging>
  0.0011

> <r_epik_Ionization_Penalty_Neutral>
  0.0000

> <r_epik_State_Penalty>
 -0.0000

> <r_epik_Charging_Adjusted_Penalty>
0.00105057901067113

> <i_epik_Tot_Q>
0

> <i_epik_Tot_abs_Q>
2

$$$$
