2r1y_ligand
                    3D
 Schrodinger Suite 2020-3.
 62 63  0  0  1  0            999 V2000
   31.9460   -0.7020    0.3070 C   0  0  0  0  0  0
   31.7980    0.5390    0.3810 O   0  0  0  0  0  0
   32.9890   -1.3070   -0.0320 O   0  5  0  0  0  0
   30.6940   -1.5530    0.5950 C   0  0  1  0  0  0
   29.7720   -1.3750   -0.6290 C   0  0  0  0  0  0
   28.5930   -2.3400   -0.5460 C   0  0  1  0  0  0
   27.8430   -2.2760   -1.7870 O   0  0  0  0  0  0
   29.0710   -3.7740   -0.2970 C   0  0  1  0  0  0
   29.9000   -4.1850   -1.3900 O   0  0  0  0  0  0
   29.9330   -3.7940    0.9700 C   0  0  2  0  0  0
   31.0760   -2.9430    0.7920 O   0  0  0  0  0  0
   30.4880   -5.1760    1.3340 C   0  0  2  0  0  0
   29.3970   -6.0600    1.4880 O   0  0  0  0  0  0
   31.2860   -5.1370    2.6460 C   0  0  0  0  0  0
   30.4120   -4.8610    3.7470 O   0  0  0  0  0  0
   34.5380   -4.1020    3.5750 C   0  0  0  0  0  0
   34.4710   -2.8800    4.2650 C   0  0  0  0  0  0
   33.5560   -2.6680    5.3170 C   0  0  0  0  0  0
   32.1390   -3.0570    5.2190 O   0  0  0  0  0  0
   31.0660   -2.0460    5.3590 C   0  0  2  0  0  0
   30.1860   -2.4990    6.5280 C   0  0  0  0  0  0
   28.9560   -2.5140    6.4380 O   0  0  0  0  0  0
   30.1770   -1.9700    4.0900 C   0  0  0  0  0  0
   31.5280   -0.6920    5.7320 O   0  0  0  0  0  0
   32.1290    0.1240    4.6860 C   0  0  2  0  0  0
   32.6780    1.4470    5.2730 C   0  0  2  0  0  0
   33.3190    2.2310    4.2490 O   0  0  0  0  0  0
   33.6790    1.1860    6.4070 C   0  0  0  0  0  0
   32.9800    0.6150    7.5220 O   0  0  0  0  0  0
   31.1110    0.2610    3.5400 C   0  0  2  0  0  0
   29.8710    0.8390    3.9650 O   0  0  0  0  0  0
   30.8330   -1.1280    2.9820 C   0  0  2  0  0  0
   29.9980   -1.0470    1.7510 O   0  0  0  0  0  0
   29.3914   -0.3432   -0.6544 H   0  0  0  0  0  0
   30.3400   -1.5790   -1.5487 H   0  0  0  0  0  0
   27.9114   -2.0356    0.2619 H   0  0  0  0  0  0
   27.4214   -1.3183   -2.1261 H   0  0  0  0  0  0
   28.2242   -4.4742   -0.2446 H   0  0  0  0  0  0
   29.4819   -4.2433   -2.4058 H   0  0  0  0  0  0
   29.3027   -3.4087    1.7850 H   0  0  0  0  0  0
   31.1138   -5.5723    0.5208 H   0  0  0  0  0  0
   28.7011   -6.2256    0.6524 H   0  0  0  0  0  0
   31.7735   -6.1097    2.8077 H   0  0  0  0  0  0
   32.0510   -4.3488    2.5866 H   0  0  0  0  0  0
   30.8168   -4.7966    4.7678 H   0  0  0  0  0  0
   33.8647   -4.9270    3.8508 H   0  0  0  0  0  0
   35.2638   -4.2338    2.7590 H   0  0  0  0  0  0
   35.1443   -2.0550    3.9892 H   0  0  0  0  0  0
   33.8945   -3.2103    6.2122 H   0  0  0  0  0  0
   33.4968   -1.5925    5.5404 H   0  0  0  0  0  0
   30.6730   -2.8153    7.4622 H   0  0  0  0  0  0
   30.0088   -2.9843    3.6989 H   0  0  0  0  0  0
   29.2108   -1.5109    4.3461 H   0  0  0  0  0  0
   33.0071   -0.4045    4.2864 H   0  0  0  0  0  0
   31.8408    2.0598    5.6384 H   0  0  0  0  0  0
   32.7593    2.5220    3.3479 H   0  0  0  0  0  0
   34.4548    0.4886    6.0580 H   0  0  0  0  0  0
   34.1474    2.1346    6.7082 H   0  0  0  0  0  0
   33.5278    0.3548    8.4397 H   0  0  0  0  0  0
   31.4839    0.9681    2.7844 H   0  0  0  0  0  0
   29.8558    1.8486    4.4015 H   0  0  0  0  0  0
   31.7638   -1.6099    2.6482 H   0  0  0  0  0  0
  1  2  2  0  0  0
  1  3  1  0  0  0
  1  4  1  0  0  0
  4  5  1  0  0  0
  4 11  1  0  0  0
  4 33  1  0  0  0
  5  6  1  0  0  0
  5 34  1  0  0  0
  5 35  1  0  0  0
  6  7  1  0  0  0
  6  8  1  0  0  0
  6 36  1  0  0  0
  7 37  1  0  0  0
  8  9  1  0  0  0
  8 10  1  0  0  0
  8 38  1  0  0  0
  9 39  1  0  0  0
 10 11  1  0  0  0
 10 12  1  0  0  0
 10 40  1  0  0  0
 12 13  1  0  0  0
 12 14  1  0  0  0
 12 41  1  0  0  0
 13 42  1  0  0  0
 14 15  1  0  0  0
 14 43  1  0  0  0
 14 44  1  0  0  0
 15 45  1  0  0  0
 16 17  2  0  0  0
 16 46  1  0  0  0
 16 47  1  0  0  0
 17 18  1  0  0  0
 17 48  1  0  0  0
 18 19  1  0  0  0
 18 49  1  0  0  0
 18 50  1  0  0  0
 19 20  1  0  0  0
 20 21  1  0  0  0
 20 23  1  0  0  0
 20 24  1  0  0  0
 21 22  2  0  0  0
 21 51  1  0  0  0
 23 32  1  0  0  0
 23 52  1  0  0  0
 23 53  1  0  0  0
 24 25  1  0  0  0
 25 26  1  0  0  0
 25 30  1  0  0  0
 25 54  1  0  0  0
 26 27  1  0  0  0
 26 28  1  0  0  0
 26 55  1  0  0  0
 27 56  1  0  0  0
 28 29  1  0  0  0
 28 57  1  0  0  0
 28 58  1  0  0  0
 29 59  1  0  0  0
 30 31  1  0  0  0
 30 32  1  0  0  0
 30 60  1  0  0  0
 31 61  1  0  0  0
 32 33  1  0  0  0
 32 62  1  0  0  0
M  CHG  1   3  -1
M  END
> <s_m_source_file>
../2r1w_ligand.sdf

> <i_m_source_file_index>
1

> <s_epik_input>
W09IXVtDSDJdW0NAQEhdKFtPSF0pW0NAQEhdKE8xKVtDQEhdKFtPSF0pW0NASF0oW09IXSlbQ0gyXVtDQEBdMShDKD1PKVtPSF0pT1tDQEBIXShbQ0BASF0oW09IXSlbQ0BIXShPMilbQ0BIXShbT0hdKVtDSDJdW09IXSlbQ0gyXVtDQEBdMihbQ0hdPU8pT1tDSDJdW0NIXT1bQ0gyXQ==

> <s_epik_cmdline>
J2VwaWtfYXBwJywgJy1pbWFlJywgJ2xpZ2FuZF9wcm8ubWFlJywgJy1vbWFlJywgJ2xpZ2FuZF9wcmVwLm1hZScsICctbXMnLCAnMScsICctcGgnLCAnNycsICctcGh0JywgJzAuNScsICctbnQn

> <r_lp_tautomer_probability>
1

> <r_epik_Ionization_Penalty>
  0.0000

> <r_epik_Ionization_Penalty_Charging>
  0.0000

> <r_epik_Ionization_Penalty_Neutral>
  0.0000

> <r_epik_State_Penalty>
 -0.0000

> <r_epik_Charging_Adjusted_Penalty>
1.11318005002308e-05

> <i_epik_Tot_Q>
-1

> <i_epik_Tot_abs_Q>
1

$$$$
