2r1x_ligand
                    3D
 Schrodinger Suite 2020-3.
 58 59  0  0  1  0            999 V2000
  -12.2250    2.0270   70.8140 O   0  5  0  0  0  0
  -11.3090    1.9490   71.6860 C   0  0  0  0  0  0
  -11.2900    1.1380   72.6410 O   0  0  0  0  0  0
  -10.0790    2.8640   71.6490 C   0  0  0  0  0  0
   -9.0430    2.4710   72.4770 O   0  0  0  0  0  0
   -7.6830    2.9420   72.2300 C   0  0  2  0  0  0
   -6.7490    2.5240   73.3790 C   0  0  1  0  0  0
   -7.2700    2.8510   74.7850 C   0  0  0  0  0  0
   -6.1750    3.0990   75.6640 O   0  0  0  0  0  0
   -6.5950    1.1160   73.2760 O   0  0  0  0  0  0
   -7.6530    4.4430   71.8530 C   0  0  0  0  0  0
   -9.9810    4.0210   70.8520 C   0  0  0  0  0  0
   -8.6660    4.4700   70.7060 C   0  0  2  0  0  0
   -9.6650    0.7790   65.8130 C   0  0  0  0  0  0
  -10.6770    1.4220   65.4060 O   0  5  0  0  0  0
   -9.5760   -0.4450   65.9350 O   0  0  0  0  0  0
   -8.4420    1.5950   66.1190 C   0  0  1  0  0  0
   -7.4220    1.4510   64.9490 C   0  0  0  0  0  0
   -6.2640    2.4530   65.1180 C   0  0  1  0  0  0
   -5.4620    2.4850   63.9080 O   0  0  0  0  0  0
   -6.7350    3.8660   65.4330 C   0  0  1  0  0  0
   -7.5330    4.3380   64.3330 O   0  0  0  0  0  0
   -7.6710    3.8730   66.6750 C   0  0  2  0  0  0
   -8.8220    3.0190   66.4130 O   0  0  0  0  0  0
   -8.1730    5.2750   67.0390 C   0  0  2  0  0  0
   -6.9990    6.0230   67.2990 O   0  0  0  0  0  0
   -9.0510    5.2120   68.3060 C   0  0  0  0  0  0
   -8.1760    4.7630   69.3590 O   0  0  0  0  0  0
   -7.8170    1.0870   67.3830 O   0  0  0  0  0  0
   -8.6230    1.1100   68.5580 C   0  0  0  0  0  0
   -8.7470    0.0280   69.3690 C   0  0  0  0  0  0
   -7.6790   -0.4010   70.1200 C   0  0  0  0  0  0
   -7.3353    2.4047   71.3353 H   0  0  0  0  0  0
   -5.7743    3.0207   73.2636 H   0  0  0  0  0  0
   -7.9087    3.7455   74.7405 H   0  0  0  0  0  0
   -7.8553    2.0011   75.1660 H   0  0  0  0  0  0
   -6.3622    3.3505   76.7184 H   0  0  0  0  0  0
   -6.2289    0.6698   72.3396 H   0  0  0  0  0  0
   -7.9551    5.0455   72.7223 H   0  0  0  0  0  0
   -6.6342    4.7242   71.5482 H   0  0  0  0  0  0
  -10.8878    4.4707   70.4214 H   0  0  0  0  0  0
   -9.4380    5.2215   70.9278 H   0  0  0  0  0  0
   -7.0133    0.4297   64.9425 H   0  0  0  0  0  0
   -7.9297    1.6489   63.9935 H   0  0  0  0  0  0
   -5.6227    2.1095   65.9431 H   0  0  0  0  0  0
   -5.0263    1.5557   63.5122 H   0  0  0  0  0  0
   -5.8559    4.5161   65.5534 H   0  0  0  0  0  0
   -7.0904    4.4245   63.3297 H   0  0  0  0  0  0
   -7.1276    3.4630   67.5390 H   0  0  0  0  0  0
   -8.7278    5.7735   66.2305 H   0  0  0  0  0  0
   -6.2540    6.1714   66.5035 H   0  0  0  0  0  0
   -9.4576    6.2114   68.5204 H   0  0  0  0  0  0
   -9.8791    4.5064   68.1436 H   0  0  0  0  0  0
   -8.2517    1.8872   69.2422 H   0  0  0  0  0  0
   -9.6651    1.3306   68.2836 H   0  0  0  0  0  0
   -9.7073   -0.5057   69.4234 H   0  0  0  0  0  0
   -6.7187    0.1327   70.0656 H   0  0  0  0  0  0
   -7.7845   -1.2781   70.7755 H   0  0  0  0  0  0
  1  2  1  0  0  0
  2  3  2  0  0  0
  2  4  1  0  0  0
  4  5  1  0  0  0
  4 12  2  0  0  0
  5  6  1  0  0  0
  6  7  1  0  0  0
  6 11  1  0  0  0
  6 33  1  0  0  0
  7  8  1  0  0  0
  7 10  1  0  0  0
  7 34  1  0  0  0
  8  9  1  0  0  0
  8 35  1  0  0  0
  8 36  1  0  0  0
  9 37  1  0  0  0
 10 38  1  0  0  0
 11 13  1  0  0  0
 11 39  1  0  0  0
 11 40  1  0  0  0
 12 13  1  0  0  0
 12 41  1  0  0  0
 13 28  1  0  0  0
 13 42  1  0  0  0
 14 15  1  0  0  0
 14 16  2  0  0  0
 14 17  1  0  0  0
 17 18  1  0  0  0
 17 24  1  0  0  0
 17 29  1  0  0  0
 18 19  1  0  0  0
 18 43  1  0  0  0
 18 44  1  0  0  0
 19 20  1  0  0  0
 19 21  1  0  0  0
 19 45  1  0  0  0
 20 46  1  0  0  0
 21 22  1  0  0  0
 21 23  1  0  0  0
 21 47  1  0  0  0
 22 48  1  0  0  0
 23 24  1  0  0  0
 23 25  1  0  0  0
 23 49  1  0  0  0
 25 26  1  0  0  0
 25 27  1  0  0  0
 25 50  1  0  0  0
 26 51  1  0  0  0
 27 28  1  0  0  0
 27 52  1  0  0  0
 27 53  1  0  0  0
 29 30  1  0  0  0
 30 31  1  0  0  0
 30 54  1  0  0  0
 30 55  1  0  0  0
 31 32  2  0  0  0
 31 56  1  0  0  0
 32 57  1  0  0  0
 32 58  1  0  0  0
M  CHG  2   1  -1  15  -1
M  END
> <s_m_source_file>
../2r1x_ligand.sdf

> <i_m_source_file_index>
1

> <s_epik_input>
W09IXVtDSDJdW0NAQEhdKFtPSF0pW0NAQEhdKE8xKVtDSDJdW0NASF0oW0NIXT1DMUMoPU8pW09IXSlPW0NIMl1bQ0BASF0oW09IXSlbQ0BASF0oTzIpW0NASF0oW09IXSlbQ0BIXShbT0hdKVtDSDJdW0NAQF0yKEMoPU8pW09IXSlPW0NIMl1bQ0hdPVtDSDJd

> <s_epik_cmdline>
J2VwaWtfYXBwJywgJy1pbWFlJywgJ2xpZ2FuZF9wcm8ubWFlJywgJy1vbWFlJywgJ2xpZ2FuZF9wcmVwLm1hZScsICctbXMnLCAnMScsICctcGgnLCAnNycsICctcGh0JywgJzAuNScsICctbnQn

> <r_lp_tautomer_probability>
1

> <r_epik_Ionization_Penalty>
  0.0004

> <r_epik_Ionization_Penalty_Charging>
  0.0004

> <r_epik_Ionization_Penalty_Neutral>
  0.0000

> <r_epik_State_Penalty>
 -0.0000

> <r_epik_Charging_Adjusted_Penalty>
0.000393990466770201

> <i_epik_Tot_Q>
-2

> <i_epik_Tot_abs_Q>
2

$$$$
