2r2l_ligand
                    3D
 Schrodinger Suite 2020-3.
 74 78  0  0  1  0            999 V2000
  186.6640  131.8000   36.2340 C   0  0  0  0  0  0
  187.7640  131.0960   35.6810 C   0  0  0  0  0  0
  187.5940  130.0470   34.7140 C   0  0  0  0  0  0
  186.2700  129.6830   34.3650 C   0  0  0  0  0  0
  185.1680  130.4420   34.8790 C   0  0  0  0  0  0
  185.3690  131.4820   35.8230 C   0  0  0  0  0  0
  188.6980  129.3870   34.1280 N   0  0  0  0  0  0
  188.5300  128.2550   33.1950 C   0  0  0  0  0  0
  187.1690  128.1630   32.5140 C   0  0  2  0  0  0
  185.9990  128.4760   33.4770 C   0  0  0  0  0  0
  184.2420  132.1770   36.3980 C   0  0  0  0  0  0
  183.3530  132.7170   36.9020 N   0  0  0  0  0  0
  187.0000  126.8920   31.6960 N   0  0  3  0  0  0
  187.2470  125.1880   32.2830 S   0  0  0  0  0  0
  188.9270  125.0580   32.8180 C   0  0  0  0  0  0
  187.1010  124.3280   31.1440 O   0  0  0  0  0  0
  186.3640  125.0400   33.4030 O   0  0  0  0  0  0
  189.1920  124.7230   34.1060 N   0  0  0  0  0  0
  190.4790  124.7730   34.5510 C   0  0  0  0  0  0
  191.5540  125.1900   33.7220 C   0  0  0  0  0  0
  191.2690  125.4490   32.3590 C   0  0  0  0  0  0
  189.9400  125.3670   31.8940 C   0  0  0  0  0  0
  186.6910  127.1240   30.2910 C   0  0  0  0  0  0
  185.3940  126.5740   29.7420 C   0  0  0  0  0  0
  184.1100  127.1950   30.3450 C   0  0  0  0  0  0
  182.8410  126.7600   29.5750 C   0  0  0  0  0  0
  183.0330  126.8530   28.1100 N   0  0  0  0  0  0
  184.2450  126.2290   27.5610 C   0  0  0  0  0  0
  185.4700  126.8030   28.2350 C   0  0  0  0  0  0
  182.1530  127.5020   27.2830 C   0  0  0  0  0  0
  182.4790  127.5380   25.9860 O   0  0  0  0  0  0
  181.1580  128.0180   27.7060 O   0  0  0  0  0  0
  181.4400  127.7420   25.0300 C   0  0  0  0  0  0
  190.1030  129.7490   34.4270 C   0  0  0  0  0  0
  190.7180  128.8380   35.5140 C   0  0  0  0  0  0
  190.0940  127.9250   36.3130 C   0  0  0  0  0  0
  191.0670  127.3020   37.2180 N   0  3  0  0  0  0
  192.2470  127.8740   36.9130 C   0  0  0  0  0  0
  192.1390  128.7980   35.9150 N   0  0  0  0  0  0
  193.1990  129.6470   35.3360 C   0  0  0  0  0  0
  186.8288  132.5831   36.9740 H   0  0  0  0  0  0
  188.7723  131.3596   36.0003 H   0  0  0  0  0  0
  184.1575  130.2161   34.5385 H   0  0  0  0  0  0
  189.2757  128.3298   32.3898 H   0  0  0  0  0  0
  188.6702  127.3086   33.7378 H   0  0  0  0  0  0
  187.1488  128.9588   31.7549 H   0  0  0  0  0  0
  185.8351  127.5880   34.1052 H   0  0  0  0  0  0
  185.1034  128.6636   32.8666 H   0  0  0  0  0  0
  190.6909  124.4826   35.5800 H   0  0  0  0  0  0
  192.5619  125.3065   34.1202 H   0  0  0  0  0  0
  192.0738  125.7107   31.6720 H   0  0  0  0  0  0
  189.7043  125.5390   30.8438 H   0  0  0  0  0  0
  186.6425  128.2062   30.1001 H   0  0  0  0  0  0
  187.4760  126.6759   29.6641 H   0  0  0  0  0  0
  185.3263  125.5098   30.0119 H   0  0  0  0  0  0
  184.0042  126.8740   31.3918 H   0  0  0  0  0  0
  184.1787  128.2921   30.3031 H   0  0  0  0  0  0
  182.5983  125.7173   29.8276 H   0  0  0  0  0  0
  182.0001  127.4108   29.8567 H   0  0  0  0  0  0
  184.2099  125.1436   27.7359 H   0  0  0  0  0  0
  184.3007  126.4246   26.4800 H   0  0  0  0  0  0
  185.5226  127.8825   28.0304 H   0  0  0  0  0  0
  186.3676  126.3097   27.8339 H   0  0  0  0  0  0
  181.8692  127.7459   24.0172 H   0  0  0  0  0  0
  180.9480  128.7066   25.2234 H   0  0  0  0  0  0
  180.7017  126.9308   25.1122 H   0  0  0  0  0  0
  190.7090  129.6512   33.5142 H   0  0  0  0  0  0
  190.1456  130.7880   34.7858 H   0  0  0  0  0  0
  189.0295  127.6925   36.2835 H   0  0  0  0  0  0
  193.1855  127.6261   37.4089 H   0  0  0  0  0  0
  192.7700  130.2819   34.5468 H   0  0  0  0  0  0
  193.9857  129.0094   34.9065 H   0  0  0  0  0  0
  193.6310  130.2822   36.1233 H   0  0  0  0  0  0
  190.7375  126.5399   37.9396 H   0  0  0  0  0  0
  1  2  2  0  0  0
  1  6  1  0  0  0
  1 41  1  0  0  0
  2  3  1  0  0  0
  2 42  1  0  0  0
  3  4  2  0  0  0
  3  7  1  0  0  0
  4  5  1  0  0  0
  4 10  1  0  0  0
  5  6  2  0  0  0
  5 43  1  0  0  0
  6 11  1  0  0  0
  7  8  1  0  0  0
  7 34  1  0  0  0
  8  9  1  0  0  0
  8 44  1  0  0  0
  8 45  1  0  0  0
  9 10  1  0  0  0
  9 13  1  0  0  0
  9 46  1  0  0  0
 10 47  1  0  0  0
 10 48  1  0  0  0
 11 12  3  0  0  0
 13 14  1  0  0  0
 13 23  1  0  0  0
 14 15  1  0  0  0
 14 16  2  0  0  0
 14 17  2  0  0  0
 15 18  2  0  0  0
 15 22  1  0  0  0
 18 19  1  0  0  0
 19 20  2  0  0  0
 19 49  1  0  0  0
 20 21  1  0  0  0
 20 50  1  0  0  0
 21 22  2  0  0  0
 21 51  1  0  0  0
 22 52  1  0  0  0
 23 24  1  0  0  0
 23 53  1  0  0  0
 23 54  1  0  0  0
 24 25  1  0  0  0
 24 29  1  0  0  0
 24 55  1  0  0  0
 25 26  1  0  0  0
 25 56  1  0  0  0
 25 57  1  0  0  0
 26 27  1  0  0  0
 26 58  1  0  0  0
 26 59  1  0  0  0
 27 28  1  0  0  0
 27 30  1  0  0  0
 28 29  1  0  0  0
 28 60  1  0  0  0
 28 61  1  0  0  0
 29 62  1  0  0  0
 29 63  1  0  0  0
 30 31  1  0  0  0
 30 32  2  0  0  0
 31 33  1  0  0  0
 33 64  1  0  0  0
 33 65  1  0  0  0
 33 66  1  0  0  0
 34 35  1  0  0  0
 34 67  1  0  0  0
 34 68  1  0  0  0
 35 36  2  0  0  0
 35 39  1  0  0  0
 36 37  1  0  0  0
 36 69  1  0  0  0
 37 38  2  0  0  0
 37 74  1  0  0  0
 38 39  1  0  0  0
 38 70  1  0  0  0
 39 40  1  0  0  0
 40 71  1  0  0  0
 40 72  1  0  0  0
 40 73  1  0  0  0
M  CHG  1  37   1
M  END
> <s_m_source_file>
../2r2l_ligand.sdf

> <i_m_source_file_index>
1

> <s_epik_input>
W0NIM11uMVtjSF1uW2NIXWMxW0NIMl1OMltDSDJdW0NASF0oW0NIMl1jKGMyMylbY0hdYyhDI04pW2NIXVtjSF0zKU4oUyg9TykoPU8pYzRuW2NIXVtjSF1bY0hdW2NIXTQpW0NIMl1bQ0hdNVtDSDJdW0NIMl1OKFtDSDJdW0NIMl01KUMoPU8pT1tDSDNd

> <s_epik_cmdline>
J2VwaWtfYXBwJywgJy1pbWFlJywgJ2xpZ2FuZF9wcm8ubWFlJywgJy1vbWFlJywgJ2xpZ2FuZF9wcmVwLm1hZScsICctbXMnLCAnMScsICctcGgnLCAnNycsICctcGh0JywgJzAuNScsICctbnQn

> <r_lp_tautomer_probability>
1

> <r_epik_Ionization_Penalty>
  0.0979

> <r_epik_Ionization_Penalty_Charging>
  0.0000

> <r_epik_Ionization_Penalty_Neutral>
  0.0979

> <r_epik_State_Penalty>
  0.0879

> <r_epik_Charging_Adjusted_Penalty>
0.0879386092385751

> <i_epik_Tot_Q>
1

> <i_epik_Tot_abs_Q>
1

> <s_epik_Chemistry_Notes>
This compound has an ester and may undergo hydrolysis at high or low pH.

$$$$
