2r2m_ligand
                    3D
 Schrodinger Suite 2020-3.
 52 53  0  0  1  0            999 V2000
   11.2820  -11.8930   24.1440 C   0  0  0  0  0  0
   12.8320  -10.8210   22.8090 O   0  0  0  0  0  0
   13.5960  -11.6280   20.7120 C   0  0  0  0  0  0
   15.9110  -12.6250   20.6430 C   0  0  0  0  0  0
   17.4290  -12.4680   20.7380 C   0  0  0  0  0  0
   18.0500  -13.6860   21.4320 C   0  0  0  0  0  0
   17.3890  -14.3750   22.4770 C   0  0  0  0  0  0
   18.0100  -15.4820   23.0830 C   0  0  0  0  0  0
   19.2980  -15.9110   22.6540 C   0  0  0  0  0  0
   19.9610  -15.2270   21.6180 C   0  0  0  0  0  0
   17.9920  -17.4000   24.6850 C   0  0  0  0  0  0
   18.5950  -17.1030   26.0710 C   0  0  0  0  0  0
   22.2290  -15.9830   25.3400 C   0  0  0  0  0  0
   19.7770  -14.8320   26.1720 C   0  0  0  0  0  0
   11.0940  -10.7580   24.6540 N   0  3  0  0  0  0
   10.3040  -12.9490   24.3330 N   0  0  0  0  0  0
   12.3530  -12.0830   23.1850 N   0  0  0  0  0  0
   12.9150  -10.4740   21.4530 C   0  0  0  0  0  0
   15.0380  -11.4860   20.8980 N   0  0  0  0  0  0
   15.4670  -13.6050   20.1460 O   0  0  0  0  0  0
   19.3340  -14.1170   21.0090 C   0  0  0  0  0  0
   20.1610  -13.2430   19.6960 Cl  0  0  0  0  0  0
   16.1630  -13.9770   22.9160 F   0  0  0  0  0  0
   17.3490  -16.1960   24.1720 N   0  0  0  0  0  0
   19.8580  -16.2290   25.9150 C   0  0  0  0  0  0
   21.0880  -16.7970   25.4930 C   0  0  0  0  0  0
   22.1470  -14.5890   25.5970 C   0  0  0  0  0  0
   20.9160  -14.0200   26.0160 C   0  0  0  0  0  0
   17.6690  -16.4360   26.8250 F   0  0  0  0  0  0
   18.8830  -18.3030   26.6480 F   0  0  0  0  0  0
   13.2493  -12.5858   21.1273 H   0  0  0  0  0  0
   13.3415  -11.5783   19.6430 H   0  0  0  0  0  0
   17.8522  -12.3775   19.7267 H   0  0  0  0  0  0
   17.6686  -11.5645   21.3179 H   0  0  0  0  0  0
   19.7713  -16.7705   23.1287 H   0  0  0  0  0  0
   20.9485  -15.5504   21.2887 H   0  0  0  0  0  0
   18.7911  -17.7127   23.9968 H   0  0  0  0  0  0
   17.2484  -18.2057   24.7736 H   0  0  0  0  0  0
   23.1745  -16.4240   25.0243 H   0  0  0  0  0  0
   18.8325  -14.3904   26.4898 H   0  0  0  0  0  0
   10.2827  -10.6096   25.3818 H   0  0  0  0  0  0
    9.4864  -12.8182   25.0571 H   0  0  0  0  0  0
   10.3805  -13.8799   23.7521 H   0  0  0  0  0  0
   12.7986  -12.9914   22.7534 H   0  0  0  0  0  0
   11.9032  -10.3100   21.0539 H   0  0  0  0  0  0
   13.5053   -9.5520   21.3459 H   0  0  0  0  0  0
   15.4579  -10.5244   21.2283 H   0  0  0  0  0  0
   16.3975  -15.8536   24.6049 H   0  0  0  0  0  0
   21.1509  -17.8654   25.2866 H   0  0  0  0  0  0
   23.0268  -13.9576   25.4729 H   0  0  0  0  0  0
   20.8525  -12.9507   26.2176 H   0  0  0  0  0  0
   11.7410   -9.9143   24.3719 H   0  0  0  0  0  0
  1 15  2  0  0  0
  1 16  1  0  0  0
  1 17  1  0  0  0
  2 17  1  0  0  0
  2 18  1  0  0  0
  3 18  1  0  0  0
  3 19  1  0  0  0
  3 31  1  0  0  0
  3 32  1  0  0  0
  4  5  1  0  0  0
  4 19  1  0  0  0
  4 20  2  0  0  0
  5  6  1  0  0  0
  5 33  1  0  0  0
  5 34  1  0  0  0
  6  7  2  0  0  0
  6 21  1  0  0  0
  7  8  1  0  0  0
  7 23  1  0  0  0
  8  9  2  0  0  0
  8 24  1  0  0  0
  9 10  1  0  0  0
  9 35  1  0  0  0
 10 21  2  0  0  0
 10 36  1  0  0  0
 11 12  1  0  0  0
 11 24  1  0  0  0
 11 37  1  0  0  0
 11 38  1  0  0  0
 12 25  1  0  0  0
 12 29  1  0  0  0
 12 30  1  0  0  0
 13 26  2  0  0  0
 13 27  1  0  0  0
 13 39  1  0  0  0
 14 25  2  0  0  0
 14 28  1  0  0  0
 14 40  1  0  0  0
 15 41  1  0  0  0
 15 52  1  0  0  0
 16 42  1  0  0  0
 16 43  1  0  0  0
 17 44  1  0  0  0
 18 45  1  0  0  0
 18 46  1  0  0  0
 19 47  1  0  0  0
 21 22  1  0  0  0
 24 48  1  0  0  0
 25 26  1  0  0  0
 26 49  1  0  0  0
 27 28  2  0  0  0
 27 50  1  0  0  0
 28 51  1  0  0  0
M  CHG  1  15   1
M  END
> <s_m_source_file>
../2r2m_ligand.sdf

> <i_m_source_file_index>
1

> <s_epik_input>
W0hdL049QyhcW05IMl0pW05IXU9bQ0gyXVtDSDJdW05IXUMoPU8pW0NIMl1jMWMoRiljKFtjSF1bY0hdYzFDbClbTkhdW0NIMl1DKEYpKEYpYzJbY0hdW2NIXVtjSF1bY0hdW2NIXTI=

> <s_epik_cmdline>
J2VwaWtfYXBwJywgJy1pbWFlJywgJ2xpZ2FuZF9wcm8ubWFlJywgJy1vbWFlJywgJ2xpZ2FuZF9wcmVwLm1hZScsICctbXMnLCAnMScsICctcGgnLCAnNycsICctcGh0JywgJzAuNScsICctbnQn

> <r_epik_Ionization_Penalty>
  0.1119

> <r_epik_Ionization_Penalty_Charging>
  0.1119

> <r_epik_Ionization_Penalty_Neutral>
  0.0000

> <r_epik_State_Penalty>
  0.1449

> <r_epik_Charging_Adjusted_Penalty>
0.256797374829812

> <i_epik_Tot_Q>
1

> <i_epik_Tot_abs_Q>
1

> <s_epik_Chemistry_Notes>
This compound has an imine and may undergo hydrolysis. This compound has a N-S or N-O group and may undergo hydrolysis at high or low pH.

$$$$
