2r2w_ligand
                    3D
 Schrodinger Suite 2020-3.
 35 36  0  0  1  0            999 V2000
   33.8740    4.6450   27.8850 C   0  0  0  0  0  0
   31.9330    5.9770   28.4410 C   0  0  0  0  0  0
   31.3210    5.1850   29.4660 C   0  0  0  0  0  0
   31.1760    6.9990   27.8130 C   0  0  0  0  0  0
   27.7360    6.6410   29.7020 C   0  0  0  0  0  0
   27.0800    7.9250   29.2180 C   0  0  0  0  0  0
   27.1470    9.2390   30.0010 C   0  0  0  0  0  0
   26.5040   10.4070   29.4820 C   0  0  0  0  0  0
   26.5540   11.6400   30.1920 C   0  0  0  0  0  0
   27.2480   11.7220   31.4370 C   0  0  0  0  0  0
   27.8900   10.5710   31.9660 C   0  0  0  0  0  0
   27.8410    9.3350   31.2560 C   0  0  0  0  0  0
   33.2440    5.7690   28.0740 N   0  0  0  0  0  0
   35.1060    4.7490   27.5640 N   0  3  0  0  0  0
   33.3760    3.4690   28.0040 N   0  0  0  0  0  0
   29.9760    5.4160   29.8510 C   0  0  0  0  0  0
   29.2020    6.4390   29.2310 C   0  0  0  0  0  0
   29.8190    7.2340   28.1990 C   0  0  0  0  0  0
   26.4770    7.8860   28.1520 O   0  0  0  0  0  0
   31.8947    4.3974   29.9545 H   0  0  0  0  0  0
   31.6308    7.6085   27.0321 H   0  0  0  0  0  0
   27.7527    6.6298   30.8018 H   0  0  0  0  0  0
   27.1639    5.7761   29.3352 H   0  0  0  0  0  0
   25.9703   10.3523   28.5332 H   0  0  0  0  0  0
   26.0616   12.5229   29.7844 H   0  0  0  0  0  0
   27.2850   12.6662   31.9804 H   0  0  0  0  0  0
   28.4209   10.6323   32.9160 H   0  0  0  0  0  0
   28.3344    8.4551   31.6689 H   0  0  0  0  0  0
   33.7717    6.7247   27.9391 H   0  0  0  0  0  0
   35.5636    5.7432   27.4538 H   0  0  0  0  0  0
   32.3183    3.3449   28.2793 H   0  0  0  0  0  0
   34.0067    2.5845   27.8308 H   0  0  0  0  0  0
   29.5279    4.8022   30.6324 H   0  0  0  0  0  0
   29.2464    8.0212   27.7085 H   0  0  0  0  0  0
   35.7093    3.8444   27.3977 H   0  0  0  0  0  0
  1 13  1  0  0  0
  1 14  2  0  0  0
  1 15  1  0  0  0
  2  3  2  0  0  0
  2  4  1  0  0  0
  2 13  1  0  0  0
  3 16  1  0  0  0
  3 20  1  0  0  0
  4 18  2  0  0  0
  4 21  1  0  0  0
  5  6  1  0  0  0
  5 17  1  0  0  0
  5 22  1  0  0  0
  5 23  1  0  0  0
  6  7  1  0  0  0
  6 19  2  0  0  0
  7  8  2  0  0  0
  7 12  1  0  0  0
  8  9  1  0  0  0
  8 24  1  0  0  0
  9 10  2  0  0  0
  9 25  1  0  0  0
 10 11  1  0  0  0
 10 26  1  0  0  0
 11 12  2  0  0  0
 11 27  1  0  0  0
 12 28  1  0  0  0
 13 29  1  0  0  0
 14 30  1  0  0  0
 14 35  1  0  0  0
 15 31  1  0  0  0
 15 32  1  0  0  0
 16 17  2  0  0  0
 16 33  1  0  0  0
 17 18  1  0  0  0
 18 34  1  0  0  0
M  CHG  1  14   1
M  END
> <s_m_source_file>
../2r2w_ligand.sdf

> <i_m_source_file_index>
1

> <s_epik_input>
W0hdL049QyhbTkgyXSlcW05IXWMxW2NIXVtjSF1jKFtjSF1bY0hdMSlbQ0gyXUMoPU8pYzJbY0hdW2NIXVtjSF1bY0hdW2NIXTI=

> <s_epik_cmdline>
J2VwaWtfYXBwJywgJy1pbWFlJywgJ2xpZ2FuZF9wcm8ubWFlJywgJy1vbWFlJywgJ2xpZ2FuZF9wcmVwLm1hZScsICctbXMnLCAnMScsICctcGgnLCAnNycsICctcGh0JywgJzAuNScsICctbnQn

> <r_lp_tautomer_probability>
1

> <r_epik_Ionization_Penalty>
  0.0001

> <r_epik_Ionization_Penalty_Charging>
  0.0001

> <r_epik_Ionization_Penalty_Neutral>
  0.0000

> <r_epik_State_Penalty>
 -0.0000

> <r_epik_Charging_Adjusted_Penalty>
0.00011812062944429

> <i_epik_Tot_Q>
1

> <i_epik_Tot_abs_Q>
1

> <s_epik_Chemistry_Notes>
This compound has an imine and may undergo hydrolysis.

$$$$
