2r3c_ligand
                    3D
 Schrodinger Suite 2020-3.
222227  0  0  1  0            999 V2000
    1.1940   18.2040  -33.9980 N   0  3  0  0  0  0
    2.5180   17.8510  -33.3980 C   0  0  1  0  0  0
    2.5270   16.4780  -32.7240 C   0  0  0  0  0  0
    2.1000   15.4820  -33.3130 O   0  0  0  0  0  0
    3.6310   17.9270  -34.4540 C   0  0  0  0  0  0
    4.0710   19.3430  -34.8060 C   0  0  0  0  0  0
    5.3640   19.3350  -35.6080 C   0  0  0  0  0  0
    5.8840   20.7520  -35.8430 C   0  0  0  0  0  0
    7.1860   20.7680  -36.5800 N   0  3  0  0  0  0
    3.0590   16.4390  -31.5020 N   0  0  0  0  0  0
    3.1560   15.2220  -30.6940 C   0  0  0  0  0  0
    4.3290   14.3290  -31.1220 C   0  0  0  0  0  0
    5.0570   14.6670  -32.0600 O   0  0  0  0  0  0
    4.4890   13.1840  -30.4480 N   0  0  0  0  0  0
    5.5590   12.2150  -30.7360 C   0  0  2  0  0  0
    5.4250   10.9900  -29.8360 C   0  0  0  0  0  0
    6.9660   12.7830  -30.6400 C   0  0  0  0  0  0
    7.8050   12.5360  -31.5150 O   0  0  0  0  0  0
    7.1810   13.6100  -29.6200 N   0  0  0  0  0  0
    8.4700   14.2400  -29.3700 C   0  0  1  0  0  0
    8.8910   15.3100  -30.3730 C   0  0  0  0  0  0
   10.0630   15.6800  -30.4350 O   0  0  0  0  0  0
    8.5130   14.7520  -27.9340 C   0  0  0  0  0  0
    8.3980   13.3800  -26.7330 S   0  0  0  0  0  0
    7.9430   15.7250  -31.2130 N   0  0  0  0  0  0
    8.1650   16.7400  -32.2430 C   0  0  1  0  0  0
    8.1470   16.1580  -33.6630 C   0  0  0  0  0  0
    8.5180   16.8360  -34.6260 O   0  0  0  0  0  0
    7.1310   17.8630  -32.0920 C   0  0  0  0  0  0
    7.4430   18.8150  -30.9360 C   0  0  0  0  0  0
    6.2040   19.3130  -30.2120 C   0  0  0  0  0  0
    5.5410   18.4990  -29.5230 O   0  0  0  0  0  0
    5.9070   20.5250  -30.3110 O   0  0  0  0  0  0
    7.7380   14.8930  -33.7760 N   0  0  0  0  0  0
    7.6720   14.1870  -35.0530 C   0  0  1  0  0  0
    8.9870   13.4190  -35.2450 C   0  0  0  0  0  0
    9.3310   12.5750  -34.4140 O   0  0  0  0  0  0
    6.4790   13.2350  -35.0590 C   0  0  0  0  0  0
    5.2750   13.9320  -34.7960 O   0  0  0  0  0  0
    9.7440   13.7110  -36.3340 N   0  0  0  0  0  0
   11.0310   13.0540  -36.6340 C   0  0  2  0  0  0
   11.4790   13.7370  -37.9350 C   0  0  0  0  0  0
   10.1910   14.2410  -38.5460 C   0  0  0  0  0  0
    9.4500   14.7470  -37.3460 C   0  0  0  0  0  0
   11.0820   11.5210  -36.7420 C   0  0  0  0  0  0
   12.1100   10.9140  -36.3990 O   0  0  0  0  0  0
    9.9830   10.9040  -37.1900 N   0  0  0  0  0  0
    9.9130    9.4440  -37.3350 C   0  0  1  0  0  0
    9.4130    8.7240  -36.0760 C   0  0  0  0  0  0
    9.3150    7.4880  -36.0510 O   0  0  0  0  0  0
    9.0340    9.0580  -38.5380 C   0  0  0  0  0  0
    9.5620    9.4810  -39.9270 C   0  0  0  0  0  0
   10.6970    8.6160  -40.4730 C   0  0  0  0  0  0
   11.1140    7.6380  -39.8140 O   0  0  0  0  0  0
   11.1790    8.9230  -41.5820 O   0  0  0  0  0  0
    9.1330    9.4980  -35.0270 N   0  0  0  0  0  0
    8.6200    8.9520  -33.7670 C   0  0  2  0  0  0
    7.1870    9.4510  -33.5270 C   0  0  0  0  0  0
    6.1550    8.9430  -34.5180 C   0  0  0  0  0  0
    5.6730    9.6050  -35.6140 C   0  0  0  0  0  0
    4.6950    8.8610  -36.2290 N   0  0  0  0  0  0
    4.5270    7.6920  -35.5500 C   0  0  0  0  0  0
    3.6480    6.6020  -35.7940 C   0  0  0  0  0  0
    3.6920    5.5250  -34.9270 C   0  0  0  0  0  0
    4.5940    5.5010  -33.8220 C   0  0  0  0  0  0
    5.4750    6.5940  -33.5790 C   0  0  0  0  0  0
    5.4420    7.6970  -34.4530 C   0  0  0  0  0  0
    9.4800    9.2490  -32.5340 C   0  0  0  0  0  0
    9.0150    9.1120  -31.3980 O   0  0  0  0  0  0
   10.7500    9.5840  -32.7620 N   0  0  0  0  0  0
   11.6870    9.9090  -31.6800 C   0  0  1  0  0  0
   12.0020    8.7490  -30.7350 C   0  0  0  0  0  0
   12.3060    8.9690  -29.5610 O   0  0  0  0  0  0
   12.9720   10.5070  -32.2520 C   0  0  0  0  0  0
   12.7830   11.8460  -32.9710 C   0  0  0  0  0  0
   12.3320   12.9680  -32.0480 C   0  0  0  0  0  0
   13.0760   13.4010  -31.1720 O   0  0  0  0  0  0
   11.1090   13.4430  -32.2480 N   0  0  0  0  0  0
   11.8540    7.5230  -31.2430 N   0  0  0  0  0  0
   12.0820    6.2990  -30.4770 C   0  0  2  0  0  0
   12.2030    5.0850  -31.4290 C   0  0  0  0  0  0
   10.9770    4.8390  -32.2950 C   0  0  0  0  0  0
   10.6970    5.4170  -33.5060 C   0  0  0  0  0  0
    9.4320    5.0680  -33.9210 N   0  0  0  0  0  0
    8.8680    4.2360  -32.9890 C   0  0  0  0  0  0
    7.5920    3.6240  -32.9620 C   0  0  0  0  0  0
    7.2790    2.8260  -31.8740 C   0  0  0  0  0  0
    8.2050    2.6210  -30.8160 C   0  0  0  0  0  0
    9.4820    3.2330  -30.8480 C   0  0  0  0  0  0
    9.8180    4.0590  -31.9480 C   0  0  0  0  0  0
   10.9610    6.0940  -29.4430 C   0  0  0  0  0  0
   11.1900    5.5210  -28.3750 O   0  0  0  0  0  0
    9.7480    6.5320  -29.8020 N   0  0  0  0  0  0
    8.5670    6.4270  -28.9370 C   0  0  2  0  0  0
    7.2710    6.6840  -29.7190 C   0  0  0  0  0  0
    6.0310    5.7920  -29.5300 C   0  0  0  0  0  0
    5.9100    5.1690  -28.1610 C   0  0  0  0  0  0
    4.8090    6.5950  -29.8810 C   0  0  0  0  0  0
    8.6880    7.4480  -27.8210 C   0  0  0  0  0  0
    8.4180    7.1390  -26.6610 O   0  0  0  0  0  0
    9.1380    8.6480  -28.1840 N   0  0  0  0  0  0
    9.3550    9.7390  -27.2420 C   0  0  1  0  0  0
   10.4220    9.3310  -26.2190 C   0  0  0  0  0  0
   10.3120    9.6570  -25.0400 O   0  0  0  0  0  0
    9.8060   10.9800  -28.0020 C   0  0  0  0  0  0
   10.1790   12.4140  -26.9490 S   0  0  0  0  0  0
   11.4060    8.5550  -26.6820 N   0  0  0  0  0  0
   12.4990    8.0520  -25.8490 C   0  0  2  0  0  0
   13.6260    7.5510  -26.7270 C   0  0  0  0  0  0
   12.0480    6.9370  -24.9000 C   0  0  0  0  0  0
   12.5280    6.8490  -23.7640 O   0  0  0  0  0  0
   11.1090    6.1110  -25.3690 N   0  0  0  0  0  0
   10.5740    4.9870  -24.6050 C   0  0  2  0  0  0
    9.8470    4.0340  -25.5310 C   0  0  0  0  0  0
    9.6510    5.4460  -23.4820 C   0  0  0  0  0  0
    9.4690    4.7430  -22.4870 O   0  0  0  0  0  0
    9.0343    6.6205  -23.5778 O   0  0  0  0  0  0
    0.4134   18.1431  -33.2254 H   0  0  0  0  0  0
    0.9608   17.5009  -34.8112 H   0  0  0  0  0  0
    1.2343   19.2276  -34.3987 H   0  0  0  0  0  0
    2.6794   18.6051  -32.6136 H   0  0  0  0  0  0
    4.5220   17.3968  -34.0864 H   0  0  0  0  0  0
    3.2842   17.4582  -35.3867 H   0  0  0  0  0  0
    3.2892   19.8313  -35.4063 H   0  0  0  0  0  0
    4.2353   19.9164  -33.8817 H   0  0  0  0  0  0
    6.1315   18.7683  -35.0605 H   0  0  0  0  0  0
    5.1864   18.8622  -36.5852 H   0  0  0  0  0  0
    5.1511   21.3177  -36.4369 H   0  0  0  0  0  0
    6.0359   21.2521  -34.8751 H   0  0  0  0  0  0
    7.5141   21.8083  -36.7221 H   0  0  0  0  0  0
    7.0581   20.2866  -37.5608 H   0  0  0  0  0  0
    7.9430   20.2209  -35.9989 H   0  0  0  0  0  0
    3.4378   17.3932  -31.1069 H   0  0  0  0  0  0
    3.3029   15.4936  -29.6382 H   0  0  0  0  0  0
    2.2291   14.6386  -30.7970 H   0  0  0  0  0  0
    3.7678   12.9836  -29.6419 H   0  0  0  0  0  0
    5.3920   11.9583  -31.7925 H   0  0  0  0  0  0
    4.4040   10.5880  -29.9135 H   0  0  0  0  0  0
    5.6279   11.2769  -28.7936 H   0  0  0  0  0  0
    6.1464   10.2221  -30.1521 H   0  0  0  0  0  0
    6.3317   13.8106  -28.9504 H   0  0  0  0  0  0
    9.1829   13.4173  -29.5281 H   0  0  0  0  0  0
    9.4591   15.2866  -27.7635 H   0  0  0  0  0  0
    7.6691   15.4367  -27.7634 H   0  0  0  0  0  0
    6.9515   15.2618  -31.1019 H   0  0  0  0  0  0
    9.1804   17.1178  -32.0525 H   0  0  0  0  0  0
    7.1001   18.4596  -33.0157 H   0  0  0  0  0  0
    6.1392   17.4256  -31.9047 H   0  0  0  0  0  0
    8.0725   18.2992  -30.1960 H   0  0  0  0  0  0
    7.9769   19.6965  -31.3208 H   0  0  0  0  0  0
    4.6400   18.8360  -28.9895 H   0  0  0  0  0  0
    7.4423   14.3809  -32.8485 H   0  0  0  0  0  0
    7.5334   14.9343  -35.8482 H   0  0  0  0  0  0
    6.4001   12.7523  -36.0443 H   0  0  0  0  0  0
    6.6191   12.4666  -34.2844 H   0  0  0  0  0  0
    4.3197   13.3875  -34.7655 H   0  0  0  0  0  0
   11.6618   13.2085  -35.7462 H   0  0  0  0  0  0
   12.1739   14.5563  -37.6985 H   0  0  0  0  0  0
   11.9839   13.0025  -38.5797 H   0  0  0  0  0  0
   10.4166   15.0316  -39.2768 H   0  0  0  0  0  0
    9.6754   13.4110  -39.0512 H   0  0  0  0  0  0
    8.3633   14.8048  -37.5065 H   0  0  0  0  0  0
    9.8208   15.7205  -36.9926 H   0  0  0  0  0  0
    9.1142   11.5251  -37.4533 H   0  0  0  0  0  0
   10.9634    9.1599  -37.4963 H   0  0  0  0  0  0
    8.9220    7.9643  -38.5743 H   0  0  0  0  0  0
    8.0434    9.5247  -38.4331 H   0  0  0  0  0  0
    8.7443    9.4305  -40.6610 H   0  0  0  0  0  0
    9.9454   10.5107  -39.8755 H   0  0  0  0  0  0
   11.9312    7.0167  -40.2092 H   0  0  0  0  0  0
    9.2992   10.5805  -35.1301 H   0  0  0  0  0  0
    8.6685    7.8667  -33.9393 H   0  0  0  0  0  0
    6.8496    9.1314  -32.5300 H   0  0  0  0  0  0
    7.1663   10.5492  -33.5865 H   0  0  0  0  0  0
    6.0159   10.5831  -35.9513 H   0  0  0  0  0  0
    2.9597    6.6144  -36.6391 H   0  0  0  0  0  0
    3.0249    4.6787  -35.0912 H   0  0  0  0  0  0
    4.6093    4.6376  -33.1568 H   0  0  0  0  0  0
    6.1615    6.5765  -32.7325 H   0  0  0  0  0  0
   11.0874    9.6116  -33.8086 H   0  0  0  0  0  0
   11.1324   10.6510  -31.0869 H   0  0  0  0  0  0
   13.6905   10.6797  -31.4371 H   0  0  0  0  0  0
   13.4073    9.8097  -32.9829 H   0  0  0  0  0  0
   13.7353   12.1552  -33.4265 H   0  0  0  0  0  0
   12.0198   11.7364  -33.7556 H   0  0  0  0  0  0
   10.4793   13.0225  -33.0459 H   0  0  0  0  0  0
   10.7250   14.2572  -31.6159 H   0  0  0  0  0  0
   11.5432    7.4627  -32.2965 H   0  0  0  0  0  0
   13.0339    6.4502  -29.9468 H   0  0  0  0  0  0
   13.0519    5.2376  -32.1118 H   0  0  0  0  0  0
   12.3668    4.1712  -30.8390 H   0  0  0  0  0  0
   11.3789    6.0611  -34.0611 H   0  0  0  0  0  0
    6.8783    3.7759  -33.7717 H   0  0  0  0  0  0
    6.3018    2.3452  -31.8285 H   0  0  0  0  0  0
    7.9304    1.9874  -29.9726 H   0  0  0  0  0  0
   10.1944    3.0708  -30.0391 H   0  0  0  0  0  0
    9.6607    6.9885  -30.7990 H   0  0  0  0  0  0
    8.5625    5.4001  -28.5427 H   0  0  0  0  0  0
    6.8951    7.6909  -29.4849 H   0  0  0  0  0  0
    7.4728    6.6096  -30.7978 H   0  0  0  0  0  0
    6.1144    4.9243  -30.2010 H   0  0  0  0  0  0
    6.8194    4.5912  -27.9394 H   0  0  0  0  0  0
    5.0364    4.5009  -28.1381 H   0  0  0  0  0  0
    5.7859    5.9608  -27.4075 H   0  0  0  0  0  0
    4.9330    7.0326  -30.8826 H   0  0  0  0  0  0
    4.6748    7.3998  -29.1433 H   0  0  0  0  0  0
    3.9253    5.9400  -29.8739 H   0  0  0  0  0  0
    9.3480    8.7950  -29.2537 H   0  0  0  0  0  0
    8.3946    9.9295  -26.7407 H   0  0  0  0  0  0
   10.7215   10.7512  -28.5672 H   0  0  0  0  0  0
    9.0135   11.2918  -28.6983 H   0  0  0  0  0  0
   11.3654    8.2972  -27.7506 H   0  0  0  0  0  0
   12.8239    8.9192  -25.2553 H   0  0  0  0  0  0
   13.9464    8.3546  -27.4064 H   0  0  0  0  0  0
   13.2769    6.6901  -27.3161 H   0  0  0  0  0  0
   14.4735    7.2443  -26.0964 H   0  0  0  0  0  0
   10.7384    6.3115  -26.3851 H   0  0  0  0  0  0
   11.4497    4.4922  -24.1597 H   0  0  0  0  0  0
   10.5267    3.7132  -26.3342 H   0  0  0  0  0  0
    8.9754    4.5421  -25.9693 H   0  0  0  0  0  0
    9.5110    3.1546  -24.9619 H   0  0  0  0  0  0
    8.3667    6.9586  -22.7715 H   0  0  0  0  0  0
  1  2  1  0  0  0
  1118  1  0  0  0
  1119  1  0  0  0
  1120  1  0  0  0
  2  3  1  0  0  0
  2  5  1  0  0  0
  2121  1  0  0  0
  3  4  2  0  0  0
  3 10  1  0  0  0
  5  6  1  0  0  0
  5122  1  0  0  0
  5123  1  0  0  0
  6  7  1  0  0  0
  6124  1  0  0  0
  6125  1  0  0  0
  7  8  1  0  0  0
  7126  1  0  0  0
  7127  1  0  0  0
  8  9  1  0  0  0
  8128  1  0  0  0
  8129  1  0  0  0
  9130  1  0  0  0
  9131  1  0  0  0
  9132  1  0  0  0
 10 11  1  0  0  0
 10133  1  0  0  0
 11 12  1  0  0  0
 11134  1  0  0  0
 11135  1  0  0  0
 12 13  2  0  0  0
 12 14  1  0  0  0
 14 15  1  0  0  0
 14136  1  0  0  0
 15 16  1  0  0  0
 15 17  1  0  0  0
 15137  1  0  0  0
 16138  1  0  0  0
 16139  1  0  0  0
 16140  1  0  0  0
 17 18  2  0  0  0
 17 19  1  0  0  0
 19 20  1  0  0  0
 19141  1  0  0  0
 20 21  1  0  0  0
 20 23  1  0  0  0
 20142  1  0  0  0
 21 22  2  0  0  0
 21 25  1  0  0  0
 23 24  1  0  0  0
 23143  1  0  0  0
 23144  1  0  0  0
 24106  1  0  0  0
 25 26  1  0  0  0
 25145  1  0  0  0
 26 27  1  0  0  0
 26 29  1  0  0  0
 26146  1  0  0  0
 27 28  2  0  0  0
 27 34  1  0  0  0
 29 30  1  0  0  0
 29147  1  0  0  0
 29148  1  0  0  0
 30 31  1  0  0  0
 30149  1  0  0  0
 30150  1  0  0  0
 31 32  1  0  0  0
 31 33  2  0  0  0
 32151  1  0  0  0
 34 35  1  0  0  0
 34152  1  0  0  0
 35 36  1  0  0  0
 35 38  1  0  0  0
 35153  1  0  0  0
 36 37  2  0  0  0
 36 40  1  0  0  0
 38 39  1  0  0  0
 38154  1  0  0  0
 38155  1  0  0  0
 39156  1  0  0  0
 40 41  1  0  0  0
 40 44  1  0  0  0
 41 42  1  0  0  0
 41 45  1  0  0  0
 41157  1  0  0  0
 42 43  1  0  0  0
 42158  1  0  0  0
 42159  1  0  0  0
 43 44  1  0  0  0
 43160  1  0  0  0
 43161  1  0  0  0
 44162  1  0  0  0
 44163  1  0  0  0
 45 46  2  0  0  0
 45 47  1  0  0  0
 47 48  1  0  0  0
 47164  1  0  0  0
 48 49  1  0  0  0
 48 51  1  0  0  0
 48165  1  0  0  0
 49 50  2  0  0  0
 49 56  1  0  0  0
 51 52  1  0  0  0
 51166  1  0  0  0
 51167  1  0  0  0
 52 53  1  0  0  0
 52168  1  0  0  0
 52169  1  0  0  0
 53 54  1  0  0  0
 53 55  2  0  0  0
 54170  1  0  0  0
 56 57  1  0  0  0
 56171  1  0  0  0
 57 58  1  0  0  0
 57 68  1  0  0  0
 57172  1  0  0  0
 58 59  1  0  0  0
 58173  1  0  0  0
 58174  1  0  0  0
 59 60  2  0  0  0
 59 67  1  0  0  0
 60 61  1  0  0  0
 60175  1  0  0  0
 61 62  1  0  0  0
 62 63  1  0  0  0
 62 67  2  0  0  0
 63 64  2  0  0  0
 63176  1  0  0  0
 64 65  1  0  0  0
 64177  1  0  0  0
 65 66  2  0  0  0
 65178  1  0  0  0
 66 67  1  0  0  0
 66179  1  0  0  0
 68 69  2  0  0  0
 68 70  1  0  0  0
 70 71  1  0  0  0
 70180  1  0  0  0
 71 72  1  0  0  0
 71 74  1  0  0  0
 71181  1  0  0  0
 72 73  2  0  0  0
 72 79  1  0  0  0
 74 75  1  0  0  0
 74182  1  0  0  0
 74183  1  0  0  0
 75 76  1  0  0  0
 75184  1  0  0  0
 75185  1  0  0  0
 76 77  2  0  0  0
 76 78  1  0  0  0
 78186  1  0  0  0
 78187  1  0  0  0
 79 80  1  0  0  0
 79188  1  0  0  0
 80 81  1  0  0  0
 80 91  1  0  0  0
 80189  1  0  0  0
 81 82  1  0  0  0
 81190  1  0  0  0
 81191  1  0  0  0
 82 83  2  0  0  0
 82 90  1  0  0  0
 83 84  1  0  0  0
 83192  1  0  0  0
 84 85  1  0  0  0
 85 86  1  0  0  0
 85 90  2  0  0  0
 86 87  2  0  0  0
 86193  1  0  0  0
 87 88  1  0  0  0
 87194  1  0  0  0
 88 89  2  0  0  0
 88195  1  0  0  0
 89 90  1  0  0  0
 89196  1  0  0  0
 91 92  2  0  0  0
 91 93  1  0  0  0
 93 94  1  0  0  0
 93197  1  0  0  0
 94 95  1  0  0  0
 94 99  1  0  0  0
 94198  1  0  0  0
 95 96  1  0  0  0
 95199  1  0  0  0
 95200  1  0  0  0
 96 97  1  0  0  0
 96 98  1  0  0  0
 96201  1  0  0  0
 97202  1  0  0  0
 97203  1  0  0  0
 97204  1  0  0  0
 98205  1  0  0  0
 98206  1  0  0  0
 98207  1  0  0  0
 99100  2  0  0  0
 99101  1  0  0  0
101102  1  0  0  0
101208  1  0  0  0
102103  1  0  0  0
102105  1  0  0  0
102209  1  0  0  0
103104  2  0  0  0
103107  1  0  0  0
105106  1  0  0  0
105210  1  0  0  0
105211  1  0  0  0
107108  1  0  0  0
107212  1  0  0  0
108109  1  0  0  0
108110  1  0  0  0
108213  1  0  0  0
109214  1  0  0  0
109215  1  0  0  0
109216  1  0  0  0
110111  2  0  0  0
110112  1  0  0  0
112113  1  0  0  0
112217  1  0  0  0
113114  1  0  0  0
113115  1  0  0  0
113218  1  0  0  0
114219  1  0  0  0
114220  1  0  0  0
114221  1  0  0  0
115116  2  0  0  0
115117  1  0  0  0
117222  1  0  0  0
M  CHG  2   1   1   9   1
M  END
> <s_m_source_file>
../2r3c_ligand.sdf

> <i_m_source_file_index>
1

> <s_epik_input>
W05IMytdW0NIMl1bQ0gyXVtDSDJdW0NIMl1bQ0BASF0oW05IMytdKUMoPU8pW05IXVtDSDJdQyg9TylbTkhdW0NASF0oW0NIM10pQyg9TylbTkhdW0NAQEhdKEMoPU8pW05IXVtDQEhdKFtDSDJdW0NIMl1DKD1PKVtPSF0pQyg9TylbTkhdW0NAQEhdKEMxPU8pW0NIMl1bT0hdKVtDSDJdU1NbQ0gyXVtDQEhdKEMoPU8pW05IXVtDQEhdKFtDSDNdKUMoPU8pW05IXVtDQEhdKFtDSDNdKUMoPU8pW09IXSlbTkhdQyg9TylbQ0BASF0oW0NIMl1bQ0hdKFtDSDNdKVtDSDNdKVtOSF1DKD1PKVtDQEBIXShbQ0gyXWMoW2NIXVtuSF0yKWMoYzIzKVtjSF1bY0hdW2NIXVtjSF0zKVtOSF1DKD1PKVtDQEBIXShbQ0gyXVtDSDJdQyg9TylbTkgyXSlbTkhdQyg9TylbQ0BASF0oW0NIMl1jKFtjSF1bbkhdNCljKGM0NSlbY0hdW2NIXVtjSF1bY0hdNSlbTkhdQyg9TylbQ0BASF0oW0NIMl1bQ0gyXUMoPU8pW09IXSlbTkhdQyg9TylbQ0BIXShOMTYpW0NIMl1bQ0gyXVtDSDJdNg==

> <s_epik_cmdline>
J2VwaWtfYXBwJywgJy1pbWFlJywgJ2xpZ2FuZF9wcm8ubWFlJywgJy1vbWFlJywgJ2xpZ2FuZF9wcmVwLm1hZScsICctbXMnLCAnMScsICctcGgnLCAnNycsICctcGh0JywgJzAuNScsICctbnQn

> <s_epik_pKa_notes>
Molecule size exceeds maximum supported for generating protonation states

$$$$
