2r3g_ligand
                    3D
 Schrodinger Suite 2020-3.
 38 41  0  0  1  0            999 V2000
    4.7510   27.2600    5.3530 C   0  0  0  0  0  0
    3.7760   27.4230    6.3150 N   0  0  0  0  0  0
    3.9450   26.4550    7.2380 C   0  0  0  0  0  0
    4.9810   25.6520    6.9200 N   0  0  0  0  0  0
    5.4770   26.1650    5.7680 C   0  0  0  0  0  0
    2.7330   28.2840    6.3950 C   0  0  0  0  0  0
    1.8740   28.2380    7.4880 C   0  0  0  0  0  0
    2.0480   27.2650    8.4510 N   0  0  0  0  0  0
    3.0300   26.3890    8.3660 C   0  0  0  0  0  0
    3.2530   25.4020    9.2840 N   0  0  0  0  0  0
    2.4150   25.4500   10.4870 C   0  0  0  0  0  0
    1.2100   24.5860   10.2840 C   0  0  0  0  0  0
    1.3300   23.1920   10.1360 C   0  0  0  0  0  0
    0.1680   22.4290    9.9360 C   0  0  0  0  0  0
   -1.0640   23.0910    9.8770 C   0  0  0  0  0  0
   -1.2010   24.4290   10.0340 N   0  0  0  0  0  0
   -0.0800   25.1360   10.2260 C   0  0  0  0  0  0
    0.7830   29.2310    7.7520 C   0  0  0  0  0  0
    0.6870   30.5270    7.1360 C   0  0  0  0  0  0
   -0.3160   31.4220    7.5130 C   0  0  0  0  0  0
   -1.2280   31.0940    8.5240 C   0  0  0  0  0  0
   -1.1560   29.8350    9.1290 C   0  0  0  0  0  0
   -0.1470   28.9270    8.7600 C   0  0  0  0  0  0
    1.5020   30.9250    6.1820 F   0  0  0  0  0  0
    4.9118   27.8647    4.4605 H   0  0  0  0  0  0
    6.3400   25.7628    5.2375 H   0  0  0  0  0  0
    2.5669   29.0133    5.6022 H   0  0  0  0  0  0
    4.0021   24.6050    9.1670 H   0  0  0  0  0  0
    2.9905   25.0831   11.3496 H   0  0  0  0  0  0
    2.0981   26.4870   10.6720 H   0  0  0  0  0  0
    2.3080   22.7124   10.1759 H   0  0  0  0  0  0
    0.2242   21.3457    9.8291 H   0  0  0  0  0  0
   -1.9604   22.4981    9.6951 H   0  0  0  0  0  0
   -0.1762   26.2151   10.3457 H   0  0  0  0  0  0
   -0.3902   32.3883    7.0142 H   0  0  0  0  0  0
   -1.9860   31.8124    8.8361 H   0  0  0  0  0  0
   -1.8850   29.5562    9.8898 H   0  0  0  0  0  0
   -0.0853   27.9647    9.2682 H   0  0  0  0  0  0
  1  2  1  0  0  0
  1  5  2  0  0  0
  1 25  1  0  0  0
  2  3  1  0  0  0
  2  6  1  0  0  0
  3  4  2  0  0  0
  3  9  1  0  0  0
  4  5  1  0  0  0
  5 26  1  0  0  0
  6  7  2  0  0  0
  6 27  1  0  0  0
  7  8  1  0  0  0
  7 18  1  0  0  0
  8  9  2  0  0  0
  9 10  1  0  0  0
 10 11  1  0  0  0
 10 28  1  0  0  0
 11 12  1  0  0  0
 11 29  1  0  0  0
 11 30  1  0  0  0
 12 13  2  0  0  0
 12 17  1  0  0  0
 13 14  1  0  0  0
 13 31  1  0  0  0
 14 15  2  0  0  0
 14 32  1  0  0  0
 15 16  1  0  0  0
 15 33  1  0  0  0
 16 17  2  0  0  0
 17 34  1  0  0  0
 18 19  2  0  0  0
 18 23  1  0  0  0
 19 20  1  0  0  0
 19 24  1  0  0  0
 20 21  2  0  0  0
 20 35  1  0  0  0
 21 22  1  0  0  0
 21 36  1  0  0  0
 22 23  2  0  0  0
 22 37  1  0  0  0
 23 38  1  0  0  0
M  END
> <s_m_source_file>
../2r3g_ligand.sdf

> <i_m_source_file_index>
1

> <s_epik_input>
W2NIXTFbY0hdW2NIXVtjSF1jKEYpYzEtYyhbY0hdMiluYyhjKG4yMyluW2NIXVtjSF0zKVtOSF1bQ0gyXWM0W2NIXVtjSF1bY0hdbltjSF00

> <s_epik_cmdline>
J2VwaWtfYXBwJywgJy1pbWFlJywgJ2xpZ2FuZF9wcm8ubWFlJywgJy1vbWFlJywgJ2xpZ2FuZF9wcmVwLm1hZScsICctbXMnLCAnMScsICctcGgnLCAnNycsICctcGh0JywgJzAuNScsICctbnQn

> <r_epik_Ionization_Penalty>
  0.0165

> <r_epik_Ionization_Penalty_Charging>
  0.0027

> <r_epik_Ionization_Penalty_Neutral>
  0.0138

> <r_epik_State_Penalty>
  0.0108

> <r_epik_Charging_Adjusted_Penalty>
0.0134138632992153

> <i_epik_Tot_Q>
0

> <i_epik_Tot_abs_Q>
0

$$$$
