2r3h_ligand
                    3D
 Schrodinger Suite 2020-3.
 31 33  0  0  1  0            999 V2000
   -0.2280   30.4830    7.8410 C   0  0  0  0  0  0
    0.4500   29.2650    8.0110 N   0  0  0  0  0  0
    1.6890   29.3660    7.2990 C   0  0  0  0  0  0
    1.7920   30.5860    6.6620 N   0  0  0  0  0  0
    0.6420   31.2990    7.0400 C   0  0  0  0  0  0
    0.1480   28.1080    8.7120 C   0  0  0  0  0  0
    1.0660   27.0600    8.6860 C   0  0  0  0  0  0
    2.2670   27.0760    8.0280 N   0  0  0  0  0  0
    2.6020   28.2010    7.3410 C   0  0  0  0  0  0
    3.7900   28.3030    6.6450 N   0  0  0  0  0  0
    4.8130   27.2760    6.7850 C   0  0  0  0  0  0
    4.8740   26.3270    5.6150 C   0  0  0  0  0  0
    4.7030   24.9460    5.8130 C   0  0  0  0  0  0
    4.7650   24.0920    4.6930 C   0  0  0  0  0  0
    4.9920   24.5330    3.4300 N   0  0  0  0  0  0
    5.1530   25.8610    3.2610 C   0  0  0  0  0  0
    5.0980   26.7910    4.3180 C   0  0  0  0  0  0
   -1.5460   30.7980    8.4130 C   0  0  0  0  0  0
    0.4372   32.3330    6.7627 H   0  0  0  0  0  0
   -0.7844   28.0201    9.2697 H   0  0  0  0  0  0
    0.8072   26.1539    9.2338 H   0  0  0  0  0  0
    3.9623   29.1642    5.9827 H   0  0  0  0  0  0
    5.8005   27.7521    6.8755 H   0  0  0  0  0  0
    4.6107   26.6772    7.6853 H   0  0  0  0  0  0
    4.5263   24.5441    6.8107 H   0  0  0  0  0  0
    4.6233   23.0227    4.8497 H   0  0  0  0  0  0
    5.3353   26.2348    2.2535 H   0  0  0  0  0  0
    5.2283   27.8560    4.1258 H   0  0  0  0  0  0
   -1.9204   29.9279    8.9723 H   0  0  0  0  0  0
   -2.2484   31.0429    7.6026 H   0  0  0  0  0  0
   -1.4549   31.6587    9.0918 H   0  0  0  0  0  0
  1  2  1  0  0  0
  1  5  2  0  0  0
  1 18  1  0  0  0
  2  3  1  0  0  0
  2  6  1  0  0  0
  3  4  2  0  0  0
  3  9  1  0  0  0
  4  5  1  0  0  0
  5 19  1  0  0  0
  6  7  2  0  0  0
  6 20  1  0  0  0
  7  8  1  0  0  0
  7 21  1  0  0  0
  8  9  2  0  0  0
  9 10  1  0  0  0
 10 11  1  0  0  0
 10 22  1  0  0  0
 11 12  1  0  0  0
 11 23  1  0  0  0
 11 24  1  0  0  0
 12 13  2  0  0  0
 12 17  1  0  0  0
 13 14  1  0  0  0
 13 25  1  0  0  0
 14 15  2  0  0  0
 14 26  1  0  0  0
 15 16  1  0  0  0
 16 17  2  0  0  0
 16 27  1  0  0  0
 17 28  1  0  0  0
 18 29  1  0  0  0
 18 30  1  0  0  0
 18 31  1  0  0  0
M  END
> <s_m_source_file>
../2r3h_ligand.sdf

> <i_m_source_file_index>
1

> <s_epik_input>
W0NIM11jMVtjSF1uYyhuMTIpYyhuW2NIXVtjSF0yKVtOSF1bQ0gyXWMzW2NIXVtjSF1uW2NIXVtjSF0z

> <s_epik_cmdline>
J2VwaWtfYXBwJywgJy1pbWFlJywgJ2xpZ2FuZF9wcm8ubWFlJywgJy1vbWFlJywgJ2xpZ2FuZF9wcmVwLm1hZScsICctbXMnLCAnMScsICctcGgnLCAnNycsICctcGh0JywgJzAuNScsICctbnQn

> <r_lp_tautomer_probability>
1

> <r_epik_Ionization_Penalty>
  0.2142

> <r_epik_Ionization_Penalty_Charging>
  0.0095

> <r_epik_Ionization_Penalty_Neutral>
  0.2048

> <r_epik_State_Penalty>
 -0.0000

> <r_epik_Charging_Adjusted_Penalty>
0.00946025510278294

> <i_epik_Tot_Q>
0

> <i_epik_Tot_abs_Q>
0

$$$$
