2r3i_ligand
                    3D
 Schrodinger Suite 2020-3.
 38 41  0  0  1  0            999 V2000
   -0.4540   31.5250    8.0940 C   0  0  0  0  0  0
    0.0870   30.2500    8.2840 C   0  0  0  0  0  0
    1.2260   30.1960    7.4700 N   0  0  0  0  0  0
    1.4580   31.3630    6.8360 N   0  0  0  0  0  0
    0.4510   32.1780    7.2150 C   0  0  0  0  0  0
   -0.3280   29.2050    9.0170 N   0  0  0  0  0  0
    0.4500   28.1340    8.9830 C   0  0  0  0  0  0
    1.6660   28.0510    8.2540 C   0  0  0  0  0  0
    2.0470   29.1240    7.4950 C   0  0  0  0  0  0
    3.1980   29.2270    6.7960 N   0  0  0  0  0  0
    0.0700   26.9870    9.8140 C   0  0  0  0  0  0
    4.3530   28.4500    7.1930 C   0  0  0  0  0  0
    4.5950   27.3370    6.2500 C   0  0  0  0  0  0
    4.5140   26.0190    6.6900 C   0  0  0  0  0  0
    4.7570   24.9860    5.7550 C   0  0  0  0  0  0
    5.0310   25.2190    4.4510 N   0  0  0  0  0  0
    5.0990   26.5090    4.0500 C   0  0  0  0  0  0
    4.8550   27.5940    4.9100 C   0  0  0  0  0  0
    0.0210   25.6890    9.2610 C   0  0  0  0  0  0
   -0.3660   24.5800   10.0230 C   0  0  0  0  0  0
   -0.7010   24.7620   11.3620 C   0  0  0  0  0  0
   -0.6320   26.0240   11.9530 C   0  0  0  0  0  0
   -0.2700   27.1600   11.1820 C   0  0  0  0  0  0
   -0.2260   28.4050   11.8130 F   0  0  0  0  0  0
   -1.3695   31.9294    8.5257 H   0  0  0  0  0  0
    0.3450   33.2119    6.8864 H   0  0  0  0  0  0
    2.2819   27.1528    8.2981 H   0  0  0  0  0  0
    3.2593   29.8989    5.9272 H   0  0  0  0  0  0
    5.2423   29.0972    7.2093 H   0  0  0  0  0  0
    4.1859   28.0312    8.1963 H   0  0  0  0  0  0
    4.2699   25.7892    7.7272 H   0  0  0  0  0  0
    4.7218   23.9532    6.1016 H   0  0  0  0  0  0
    5.3550   26.7171    3.0111 H   0  0  0  0  0  0
    4.8696   28.6165    4.5328 H   0  0  0  0  0  0
    0.2912   25.5466    8.2147 H   0  0  0  0  0  0
   -0.4045   23.5875    9.5740 H   0  0  0  0  0  0
   -1.0216   23.9068   11.9569 H   0  0  0  0  0  0
   -0.8574   26.1385   13.0133 H   0  0  0  0  0  0
  1  2  2  0  0  0
  1  5  1  0  0  0
  1 25  1  0  0  0
  2  3  1  0  0  0
  2  6  1  0  0  0
  3  4  1  0  0  0
  3  9  1  0  0  0
  4  5  2  0  0  0
  5 26  1  0  0  0
  6  7  2  0  0  0
  7  8  1  0  0  0
  7 11  1  0  0  0
  8  9  2  0  0  0
  8 27  1  0  0  0
  9 10  1  0  0  0
 10 12  1  0  0  0
 10 28  1  0  0  0
 11 19  2  0  0  0
 11 23  1  0  0  0
 12 13  1  0  0  0
 12 29  1  0  0  0
 12 30  1  0  0  0
 13 14  2  0  0  0
 13 18  1  0  0  0
 14 15  1  0  0  0
 14 31  1  0  0  0
 15 16  2  0  0  0
 15 32  1  0  0  0
 16 17  1  0  0  0
 17 18  2  0  0  0
 17 33  1  0  0  0
 18 34  1  0  0  0
 19 20  1  0  0  0
 19 35  1  0  0  0
 20 21  2  0  0  0
 20 36  1  0  0  0
 21 22  1  0  0  0
 21 37  1  0  0  0
 22 23  2  0  0  0
 22 38  1  0  0  0
 23 24  1  0  0  0
M  END
> <s_m_source_file>
../2r3i_ligand.sdf

> <i_m_source_file_index>
1

> <s_epik_input>
W2NIXTFbY0hdbltjSF1bY0hdYzFbQ0gyXVtOSF1jKG4oYzIzKW5bY0hdW2NIXTIpW2NIXWMobjMpLWM0W2NIXVtjSF1bY0hdW2NIXWM0Rg==

> <s_epik_cmdline>
J2VwaWtfYXBwJywgJy1pbWFlJywgJ2xpZ2FuZF9wcm8ubWFlJywgJy1vbWFlJywgJ2xpZ2FuZF9wcmVwLm1hZScsICctbXMnLCAnMScsICctcGgnLCAnNycsICctcGh0JywgJzAuNScsICctbnQn

> <r_epik_Ionization_Penalty>
  0.2045

> <r_epik_Ionization_Penalty_Charging>
  0.0000

> <r_epik_Ionization_Penalty_Neutral>
  0.2045

> <r_epik_State_Penalty>
  0.1944

> <r_epik_Charging_Adjusted_Penalty>
0.194446350830357

> <i_epik_Tot_Q>
0

> <i_epik_Tot_abs_Q>
0

$$$$
