2r3p_ligand
                    3D
 Schrodinger Suite 2020-3.
 40 43  0  0  1  0            999 V2000
   -0.5810   31.1270    8.0390 C   0  0  0  0  0  0
   -0.0020   29.9290    8.3680 C   0  0  0  0  0  0
    1.2540   29.9240    7.7520 N   0  0  0  0  0  0
    1.4920   31.0930    7.0480 N   0  0  0  0  0  0
    0.3720   31.8130    7.2310 C   0  0  0  0  0  0
   -0.4570   28.8830    9.1120 N   0  0  0  0  0  0
    0.3260   27.8810    9.2430 C   0  0  0  0  0  0
    1.6890   27.7740    8.6560 C   0  0  0  0  0  0
    2.1180   28.8340    7.9120 C   0  0  0  0  0  0
    3.3520   28.9230    7.2900 N   0  0  0  0  0  0
   -0.0920   26.7310   10.0770 C   0  0  0  0  0  0
    4.5130   28.1090    7.5410 C   0  0  0  0  0  0
    4.5340   26.9870    6.5510 C   0  0  0  0  0  0
    4.6210   27.2420    5.1860 C   0  0  0  0  0  0
    4.6350   26.1670    4.3250 C   0  0  0  0  0  0
    4.5740   24.8620    4.7160 N   0  0  0  0  0  0
    4.4890   24.6380    6.0300 C   0  0  0  0  0  0
    4.4700   25.6540    6.9830 C   0  0  0  0  0  0
   -0.3660   26.8890   11.4490 C   0  0  0  0  0  0
   -0.7420   25.7770   12.2100 C   0  0  0  0  0  0
   -0.8360   24.5290   11.6070 C   0  0  0  0  0  0
   -0.5690   24.3790   10.2520 C   0  0  0  0  0  0
   -0.1860   25.4750    9.4780 C   0  0  0  0  0  0
   -2.1600   31.7240    8.5020 S   0  0  0  0  0  0
   -2.8430   30.3170    9.2150 C   0  0  0  0  0  0
   -3.2780   29.3170    9.7170 N   0  0  0  0  0  0
   -0.2490   28.4220   12.1690 Cl  0  0  0  0  0  0
   -1.0860   25.8570   13.9010 Cl  0  0  0  0  0  0
    0.2112   32.8057    6.8106 H   0  0  0  0  0  0
    2.3127   26.8939    8.8124 H   0  0  0  0  0  0
    3.3917   29.7187    6.5315 H   0  0  0  0  0  0
    5.4205   28.7211    7.4320 H   0  0  0  0  0  0
    4.4637   27.7052    8.5630 H   0  0  0  0  0  0
    4.6765   28.2632    4.8088 H   0  0  0  0  0  0
    4.6993   26.3738    3.2567 H   0  0  0  0  0  0
    4.4315   23.6056    6.3749 H   0  0  0  0  0  0
    4.4065   25.4174    8.0451 H   0  0  0  0  0  0
   -1.1214   23.6611   12.2015 H   0  0  0  0  0  0
   -0.6595   23.3963    9.7893 H   0  0  0  0  0  0
    0.0370   25.3511    8.4183 H   0  0  0  0  0  0
  1  2  2  0  0  0
  1  5  1  0  0  0
  1 24  1  0  0  0
  2  3  1  0  0  0
  2  6  1  0  0  0
  3  4  1  0  0  0
  3  9  1  0  0  0
  4  5  2  0  0  0
  5 29  1  0  0  0
  6  7  2  0  0  0
  7  8  1  0  0  0
  7 11  1  0  0  0
  8  9  2  0  0  0
  8 30  1  0  0  0
  9 10  1  0  0  0
 10 12  1  0  0  0
 10 31  1  0  0  0
 11 19  2  0  0  0
 11 23  1  0  0  0
 12 13  1  0  0  0
 12 32  1  0  0  0
 12 33  1  0  0  0
 13 14  2  0  0  0
 13 18  1  0  0  0
 14 15  1  0  0  0
 14 34  1  0  0  0
 15 16  2  0  0  0
 15 35  1  0  0  0
 16 17  1  0  0  0
 17 18  2  0  0  0
 17 36  1  0  0  0
 18 37  1  0  0  0
 19 20  1  0  0  0
 19 27  1  0  0  0
 20 21  2  0  0  0
 20 28  1  0  0  0
 21 22  1  0  0  0
 21 38  1  0  0  0
 22 23  2  0  0  0
 22 39  1  0  0  0
 23 40  1  0  0  0
 24 25  1  0  0  0
 25 26  3  0  0  0
M  END
> <s_m_source_file>
../2r3p_ligand.sdf

> <i_m_source_file_index>
1

> <s_epik_input>
W2NIXTFbY0hdW2NIXWMoQ2wpYyhDbCljMS1jKG4yKVtjSF1jKG4oYzIzKW5bY0hdYzNTQyNOKVtOSF1bQ0gyXWM0W2NIXVtjSF1uW2NIXVtjSF00

> <s_epik_cmdline>
J2VwaWtfYXBwJywgJy1pbWFlJywgJ2xpZ2FuZF9wcm8ubWFlJywgJy1vbWFlJywgJ2xpZ2FuZF9wcmVwLm1hZScsICctbXMnLCAnMScsICctcGgnLCAnNycsICctcGh0JywgJzAuNScsICctbnQn

> <r_epik_Ionization_Penalty>
  0.2045

> <r_epik_Ionization_Penalty_Charging>
  0.0000

> <r_epik_Ionization_Penalty_Neutral>
  0.2045

> <r_epik_State_Penalty>
  0.1944

> <r_epik_Charging_Adjusted_Penalty>
0.194446350830357

> <i_epik_Tot_Q>
0

> <i_epik_Tot_abs_Q>
0

$$$$
