2r3y_ligand
                    3D
 Schrodinger Suite 2020-3.
 84 87  0  0  1  0            999 V2000
   78.5220   24.1470   12.9790 N   0  3  0  0  0  0
   79.7540   24.0550   13.8150 C   0  0  2  0  0  0
   80.9240   23.5490   12.9780 C   0  0  0  0  0  0
   80.8340   22.4980   12.3420 O   0  0  0  0  0  0
   79.5480   23.0960   15.0090 C   0  0  0  0  0  0
   80.7680   23.1210   15.9160 C   0  0  0  0  0  0
   78.3000   23.4910   15.7810 C   0  0  0  0  0  0
   82.0190   24.3040   12.9830 N   0  0  0  0  0  0
   83.2110   23.9410   12.2220 C   0  0  2  0  0  0
   84.4250   23.6950   13.1200 C   0  0  0  0  0  0
   84.4140   24.0240   14.3090 O   0  0  0  0  0  0
   83.5430   25.0420   11.2030 C   0  0  0  0  0  0
   82.6270   25.1020    9.9930 C   0  0  0  0  0  0
   82.8510   26.0310    8.9760 C   0  0  0  0  0  0
   81.5510   24.2230    9.8510 C   0  0  0  0  0  0
   82.0310   26.0820    7.8480 C   0  0  0  0  0  0
   80.7240   24.2670    8.7270 C   0  0  0  0  0  0
   80.9710   25.1990    7.7310 C   0  0  0  0  0  0
   80.1630   25.2490    6.6180 O   0  0  0  0  0  0
   85.4680   23.1060   12.5400 N   0  0  0  0  0  0
   86.7040   22.8220   13.2630 C   0  0  2  0  0  0
   87.9290   23.0480   12.3710 C   0  0  0  0  0  0
   88.4880   22.1070   11.8090 O   0  0  0  0  0  0
   86.6990   21.3810   13.8110 C   0  0  0  0  0  0
   86.2650   20.2980   12.8360 C   0  0  0  0  0  0
   86.4290   20.2950   11.4810 C   0  0  0  0  0  0
   85.6600   19.0380   13.1650 C   0  0  0  0  0  0
   85.9690   19.1160   10.9440 N   0  3  0  0  0  0
   85.4900   18.3260   11.9550 C   0  0  0  0  0  0
   85.2450   18.4410   14.3640 C   0  0  0  0  0  0
   84.9250   17.0460   11.9100 C   0  0  0  0  0  0
   84.6830   17.1660   14.3190 C   0  0  0  0  0  0
   84.5290   16.4850   13.0980 C   0  0  0  0  0  0
   88.3450   24.3060   12.2480 N   0  0  0  0  0  0
   89.4950   24.6590   11.4190 C   0  0  2  0  0  0
   90.7870   24.7930   12.2170 C   0  0  0  0  0  0
   91.2480   25.9360   12.4120 O   0  5  0  0  0  0
   89.2140   25.9590   10.6620 C   0  0  0  0  0  0
   88.1760   25.8190    9.5870 C   0  0  0  0  0  0
   86.9140   25.3170    9.8830 C   0  0  0  0  0  0
   88.4610   26.1840    8.2770 C   0  0  0  0  0  0
   85.9520   25.1790    8.8890 C   0  0  0  0  0  0
   87.5040   26.0500    7.2730 C   0  0  0  0  0  0
   86.2460   25.5470    7.5810 C   0  0  0  0  0  0
   91.3210   23.7480   12.6400 O   0  0  0  0  0  0
   78.6993   24.8351   12.1393 H   0  0  0  0  0  0
   77.6900   24.5235   13.5923 H   0  0  0  0  0  0
   78.2683   23.1502   12.5890 H   0  0  0  0  0  0
   79.9534   25.0764   14.1713 H   0  0  0  0  0  0
   79.4150   22.0659   14.6467 H   0  0  0  0  0  0
   81.6594   22.8327   15.3396 H   0  0  0  0  0  0
   80.6229   22.4131   16.7454 H   0  0  0  0  0  0
   80.9044   24.1353   16.3193 H   0  0  0  0  0  0
   77.4299   23.4668   15.1085 H   0  0  0  0  0  0
   78.4242   24.5071   16.1836 H   0  0  0  0  0  0
   78.1427   22.7849   16.6097 H   0  0  0  0  0  0
   82.0093   25.2256   13.5834 H   0  0  0  0  0  0
   82.9369   22.9980   11.7265 H   0  0  0  0  0  0
   83.4800   26.0253   11.6920 H   0  0  0  0  0  0
   84.5616   24.8892   10.8169 H   0  0  0  0  0  0
   83.6825   26.7302    9.0644 H   0  0  0  0  0  0
   81.3532   23.4890   10.6322 H   0  0  0  0  0  0
   82.2240   26.8132    7.0631 H   0  0  0  0  0  0
   79.8891   23.5726    8.6332 H   0  0  0  0  0  0
   80.3599   25.9889    5.8282 H   0  0  0  0  0  0
   85.3761   22.8314   11.4788 H   0  0  0  0  0  0
   86.7164   23.5452   14.0918 H   0  0  0  0  0  0
   87.7138   21.1092   14.1370 H   0  0  0  0  0  0
   86.0096   21.3161   14.6657 H   0  0  0  0  0  0
   86.8780   21.1650   10.9794 H   0  0  0  0  0  0
   85.3597   18.9640   15.3134 H   0  0  0  0  0  0
   84.8041   16.5146   10.9660 H   0  0  0  0  0  0
   84.3580   16.6897   15.2440 H   0  0  0  0  0  0
   84.0852   15.4894   13.0954 H   0  0  0  0  0  0
   87.7975   25.0900   12.7917 H   0  0  0  0  0  0
   89.6046   23.8063   10.7328 H   0  0  0  0  0  0
   88.8545   26.7233   11.3667 H   0  0  0  0  0  0
   90.1386   26.3102   10.1806 H   0  0  0  0  0  0
   86.6759   25.0281   10.9067 H   0  0  0  0  0  0
   89.4462   26.5804    8.0314 H   0  0  0  0  0  0
   84.9671   24.7822    9.1352 H   0  0  0  0  0  0
   87.7416   26.3389    6.2492 H   0  0  0  0  0  0
   85.4927   25.4414    6.8003 H   0  0  0  0  0  0
   86.0281   18.9458    9.8589 H   0  0  0  0  0  0
  1  2  1  0  0  0
  1 46  1  0  0  0
  1 47  1  0  0  0
  1 48  1  0  0  0
  2  3  1  0  0  0
  2  5  1  0  0  0
  2 49  1  0  0  0
  3  4  2  0  0  0
  3  8  1  0  0  0
  5  6  1  0  0  0
  5  7  1  0  0  0
  5 50  1  0  0  0
  6 51  1  0  0  0
  6 52  1  0  0  0
  6 53  1  0  0  0
  7 54  1  0  0  0
  7 55  1  0  0  0
  7 56  1  0  0  0
  8  9  1  0  0  0
  8 57  1  0  0  0
  9 10  1  0  0  0
  9 12  1  0  0  0
  9 58  1  0  0  0
 10 11  2  0  0  0
 10 20  1  0  0  0
 12 13  1  0  0  0
 12 59  1  0  0  0
 12 60  1  0  0  0
 13 14  2  0  0  0
 13 15  1  0  0  0
 14 16  1  0  0  0
 14 61  1  0  0  0
 15 17  2  0  0  0
 15 62  1  0  0  0
 16 18  2  0  0  0
 16 63  1  0  0  0
 17 18  1  0  0  0
 17 64  1  0  0  0
 18 19  1  0  0  0
 19 65  1  0  0  0
 20 21  1  0  0  0
 20 66  1  0  0  0
 21 22  1  0  0  0
 21 24  1  0  0  0
 21 67  1  0  0  0
 22 23  2  0  0  0
 22 34  1  0  0  0
 24 25  1  0  0  0
 24 68  1  0  0  0
 24 69  1  0  0  0
 25 26  2  0  0  0
 25 27  1  0  0  0
 26 28  1  0  0  0
 26 70  1  0  0  0
 27 29  2  0  0  0
 27 30  1  0  0  0
 28 29  1  0  0  0
 28 84  1  0  0  0
 29 31  1  0  0  0
 30 32  2  0  0  0
 30 71  1  0  0  0
 31 33  2  0  0  0
 31 72  1  0  0  0
 32 33  1  0  0  0
 32 73  1  0  0  0
 33 74  1  0  0  0
 34 35  1  0  0  0
 34 75  1  0  0  0
 35 36  1  0  0  0
 35 38  1  0  0  0
 35 76  1  0  0  0
 36 37  1  0  0  0
 36 45  2  0  0  0
 38 39  1  0  0  0
 38 77  1  0  0  0
 38 78  1  0  0  0
 39 40  2  0  0  0
 39 41  1  0  0  0
 40 42  1  0  0  0
 40 79  1  0  0  0
 41 43  2  0  0  0
 41 80  1  0  0  0
 42 44  2  0  0  0
 42 81  1  0  0  0
 43 44  1  0  0  0
 43 82  1  0  0  0
 44 83  1  0  0  0
M  CHG  3   1   1  28   1  37  -1
M  END
> <s_m_source_file>
../2r3y_ligand.sdf

> <i_m_source_file_index>
1

> <s_epik_input>
W2NIXTFbY0hdYyhbT0hdKVtjSF1bY0hdYzFbQ0gyXVtDQEhdKFtOSF1DKD1PKVtDQEBIXShbTkgzK10pW0NIXShbQ0gzXSlbQ0gzXSlDKD1PKVtOSF1bQ0BASF0oW0NIMl1jMltjSF1bbkhdYyhjMjMpW2NIXVtjSF1bY0hdW2NIXTMpQyg9TylbTkhdW0NASF0oQyg9TylbT0hdKVtDSDJdYzRbY0hdW2NIXVtjSF1bY0hdW2NIXTQ=

> <s_epik_cmdline>
J2VwaWtfYXBwJywgJy1pbWFlJywgJ2xpZ2FuZF9wcm8ubWFlJywgJy1vbWFlJywgJ2xpZ2FuZF9wcmVwLm1hZScsICctbXMnLCAnMScsICctcGgnLCAnNycsICctcGh0JywgJzAuNScsICctbnQn

> <r_lp_tautomer_probability>
0.999999999997365

> <r_epik_Ionization_Penalty>
  0.0890

> <r_epik_Ionization_Penalty_Charging>
  0.0880

> <r_epik_Ionization_Penalty_Neutral>
  0.0009

> <r_epik_State_Penalty>
  0.0784

> <r_epik_Charging_Adjusted_Penalty>
0.166399348360109

> <i_epik_Tot_Q>
1

> <i_epik_Tot_abs_Q>
3

$$$$
