2r4b_ligand
                    3D
 Schrodinger Suite 2020-3.
 43 46  0  0  1  0            999 V2000
  -21.2290   16.9550   -0.2150 F   0  0  0  0  0  0
  -20.8290   18.2330   -0.2870 C   0  0  0  0  0  0
  -21.6050   19.1790   -0.9250 C   0  0  0  0  0  0
  -21.1630   20.4860   -0.9790 C   0  0  0  0  0  0
  -19.9550   20.8300   -0.4030 C   0  0  0  0  0  0
  -19.1840   19.8810    0.2340 C   0  0  0  0  0  0
  -17.8790   20.2610    0.8450 C   0  0  0  0  0  0
  -17.2180   19.0910    1.3200 O   0  0  0  0  0  0
  -16.3390   18.5630    0.3720 C   0  0  0  0  0  0
  -15.9390   19.2400   -0.7650 C   0  0  0  0  0  0
  -15.0580   18.6330   -1.6400 C   0  0  0  0  0  0
  -14.5650   17.3600   -1.4110 C   0  0  0  0  0  0
  -13.6590   16.7620   -2.3130 N   0  0  0  0  0  0
  -13.7950   15.4760   -2.8640 C   0  0  0  0  0  0
  -14.8450   14.6680   -2.6620 N   0  0  0  0  0  0
  -14.8470   13.4680   -3.2520 C   0  0  0  0  0  0
  -13.9320   12.9160   -4.0530 N   0  0  0  0  0  0
  -12.8820   13.7240   -4.2560 C   0  0  0  0  0  0
  -11.7560   13.4190   -5.0570 C   0  0  0  0  0  0
  -10.8210   14.4240   -5.0960 C   0  0  0  0  0  0
   -9.5310   14.4680   -5.8100 C   0  0  0  0  0  0
   -9.0530   15.7030   -6.1790 C   0  0  0  0  0  0
  -11.3370   15.7550   -4.1410 S   0  0  0  0  0  0
  -12.7990   14.9820   -3.6790 C   0  0  0  0  0  0
  -14.9700   16.7000   -0.2700 C   0  0  0  0  0  0
  -15.8480   17.2940    0.6090 C   0  0  0  0  0  0
  -16.3200   16.4120    2.0130 Cl  0  0  0  0  0  0
  -19.6300   18.5780    0.2910 C   0  0  0  0  0  0
  -22.5546   18.8981   -1.3804 H   0  0  0  0  0  0
  -21.7665   21.2458   -1.4756 H   0  0  0  0  0  0
  -19.6081   21.8621   -0.4528 H   0  0  0  0  0  0
  -17.2508   20.7559    0.0897 H   0  0  0  0  0  0
  -18.0540   20.9497    1.6847 H   0  0  0  0  0  0
  -16.3147   20.2426   -0.9694 H   0  0  0  0  0  0
  -14.7431   19.1710   -2.5341 H   0  0  0  0  0  0
  -12.7623   17.3107   -2.6367 H   0  0  0  0  0  0
  -15.7224   12.8508   -3.0498 H   0  0  0  0  0  0
  -11.6417   12.4762   -5.5920 H   0  0  0  0  0  0
   -8.9555   13.5616   -6.0492 H   0  0  0  0  0  0
   -9.6285   16.6094   -5.9398 H   0  0  0  0  0  0
   -8.0950   15.7848   -6.7134 H   0  0  0  0  0  0
  -14.5918   15.6991   -0.0620 H   0  0  0  0  0  0
  -19.0311   17.8196    0.7952 H   0  0  0  0  0  0
  1  2  1  0  0  0
  2  3  2  0  0  0
  2 28  1  0  0  0
  3  4  1  0  0  0
  3 29  1  0  0  0
  4  5  2  0  0  0
  4 30  1  0  0  0
  5  6  1  0  0  0
  5 31  1  0  0  0
  6  7  1  0  0  0
  6 28  2  0  0  0
  7  8  1  0  0  0
  7 32  1  0  0  0
  7 33  1  0  0  0
  8  9  1  0  0  0
  9 10  2  0  0  0
  9 26  1  0  0  0
 10 11  1  0  0  0
 10 34  1  0  0  0
 11 12  2  0  0  0
 11 35  1  0  0  0
 12 13  1  0  0  0
 12 25  1  0  0  0
 13 14  1  0  0  0
 13 36  1  0  0  0
 14 15  1  0  0  0
 14 24  2  0  0  0
 15 16  2  0  0  0
 16 17  1  0  0  0
 16 37  1  0  0  0
 17 18  2  0  0  0
 18 19  1  0  0  0
 18 24  1  0  0  0
 19 20  2  0  0  0
 19 38  1  0  0  0
 20 21  1  0  0  0
 20 23  1  0  0  0
 21 22  2  0  0  0
 21 39  1  0  0  0
 22 40  1  0  0  0
 22 41  1  0  0  0
 23 24  1  0  0  0
 25 26  2  0  0  0
 25 42  1  0  0  0
 26 27  1  0  0  0
 28 43  1  0  0  0
M  END
> <s_m_source_file>
../2r4b_ligand.sdf

> <i_m_source_file_index>
1

> <s_epik_input>
RmMxW2NIXVtjSF1bY0hdYyhbY0hdMSlbQ0gyXU9jMltjSF1bY0hdYyhbY0hdYzJDbClbTkhdYyhuW2NIXW4zKWMoYzM0KXNjKFtjSF00KVtDSF09W0NIMl0=

> <s_epik_cmdline>
J2VwaWtfYXBwJywgJy1pbWFlJywgJ2xpZ2FuZF9wcm8ubWFlJywgJy1vbWFlJywgJ2xpZ2FuZF9wcmVwLm1hZScsICctbXMnLCAnMScsICctcGgnLCAnNycsICctcGh0JywgJzAuNScsICctbnQn

> <r_lp_tautomer_probability>
1

> <r_epik_Ionization_Penalty>
  0.0000

> <r_epik_Ionization_Penalty_Charging>
  0.0000

> <r_epik_Ionization_Penalty_Neutral>
  0.0000

> <r_epik_State_Penalty>
 -0.0000

> <r_epik_Charging_Adjusted_Penalty>
0

> <i_epik_Tot_Q>
0

> <i_epik_Tot_abs_Q>
0

$$$$
