2r4f_ligand
                    3D
 Schrodinger Suite 2020-3.
 73 75  0  0  1  0            999 V2000
   77.2520    8.4100   -5.4310 N   0  0  0  0  0  0
   78.4760    8.0650   -5.0140 C   0  0  0  0  0  0
   79.2990    9.2900   -5.2960 C   0  0  0  0  0  0
   80.7470    9.5420   -5.0530 C   0  0  0  0  0  0
   78.9000    6.7480   -4.3960 C   0  0  0  0  0  0
   78.9040    6.9250   -2.8790 C   0  0  0  0  0  0
   78.5790    5.7710   -0.6750 C   0  0  0  0  0  0
   80.9610    9.9660   -3.6050 C   0  0  0  0  0  0
   74.6670    5.9850   -6.4020 C   0  0  0  0  0  0
   80.8230   12.7310   -9.0530 C   0  0  0  0  0  0
   82.0780   13.0370   -9.5800 C   0  0  0  0  0  0
   75.2880    7.6550   -4.2930 C   0  0  0  0  0  0
   74.1390    6.8690   -4.2320 C   0  0  0  0  0  0
   80.5270   15.0500   -8.4400 C   0  0  0  0  0  0
   79.1490   12.3740   -5.4810 O   0  0  0  0  0  0
   78.6650   11.6430   -6.3330 C   0  0  0  0  0  0
   78.3910   12.0680   -7.5770 N   0  0  0  0  0  0
   78.6950   13.4720   -7.9060 C   0  0  2  0  0  0
   77.6180   14.0590   -8.8260 C   0  0  0  0  0  0
   80.0430   13.7380   -8.4800 C   0  0  0  0  0  0
   81.7790   15.3590   -8.9680 C   0  0  0  0  0  0
   82.5530   14.3480   -9.5370 C   0  0  0  0  0  0
   77.7850   11.2370   -8.6200 C   0  0  0  0  0  0
   78.3300   10.2530   -5.9080 C   0  0  0  0  0  0
   81.6150    8.3370   -5.4120 C   0  0  0  0  0  0
   76.1650    7.6350   -5.3830 C   0  0  0  0  0  0
   75.8100    6.7820   -6.4350 C   0  0  0  0  0  0
   73.8270    6.0300   -5.2970 C   0  0  0  0  0  0
   72.7240    5.2660   -5.2570 F   0  0  0  0  0  0
   77.1070    9.6900   -5.9560 N   0  0  0  0  0  0
   79.0210    5.6010   -2.1290 C   0  0  2  0  0  0
   80.3890    5.1760   -2.1370 O   0  0  0  0  0  0
   77.0630    5.8210   -0.4980 C   0  0  1  0  0  0
   76.4760    4.5520   -0.8200 O   0  0  0  0  0  0
   76.7500    6.1750    0.9520 C   0  0  0  0  0  0
   75.2880    6.5290    1.1060 C   0  0  0  0  0  0
   74.8970    7.6570    0.7310 O   0  5  0  0  0  0
   74.5220    5.6800    1.6130 O   0  0  0  0  0  0
   81.0378   10.3627   -5.7252 H   0  0  0  0  0  0
   78.1889    5.9607   -4.6868 H   0  0  0  0  0  0
   79.9064    6.4829   -4.7523 H   0  0  0  0  0  0
   79.7575    7.5538   -2.5855 H   0  0  0  0  0  0
   77.9673    7.4079   -2.5637 H   0  0  0  0  0  0
   78.9514    4.9259   -0.0774 H   0  0  0  0  0  0
   78.9872    6.7109   -0.2752 H   0  0  0  0  0  0
   80.3235   10.8334   -3.3789 H   0  0  0  0  0  0
   82.0163   10.2374   -3.4546 H   0  0  0  0  0  0
   80.6977    9.1332   -2.9364 H   0  0  0  0  0  0
   74.4333    5.3288   -7.2404 H   0  0  0  0  0  0
   80.4515   11.7069   -9.0884 H   0  0  0  0  0  0
   82.6879   12.2512  -10.0257 H   0  0  0  0  0  0
   75.5134    8.3143   -3.4548 H   0  0  0  0  0  0
   73.4901    6.9112   -3.3572 H   0  0  0  0  0  0
   79.9199   15.8368   -7.9922 H   0  0  0  0  0  0
   78.7232   13.9422   -6.9119 H   0  0  0  0  0  0
   76.6236   13.8609   -8.3994 H   0  0  0  0  0  0
   77.6904   13.5924   -9.8195 H   0  0  0  0  0  0
   77.7674   15.1448   -8.9191 H   0  0  0  0  0  0
   82.1506   16.3832   -8.9365 H   0  0  0  0  0  0
   83.5338   14.5833   -9.9501 H   0  0  0  0  0  0
   77.6179   10.2223   -8.2294 H   0  0  0  0  0  0
   78.4586   11.1893   -9.4883 H   0  0  0  0  0  0
   76.8234   11.6753   -8.9255 H   0  0  0  0  0  0
   81.4375    8.0567   -6.4608 H   0  0  0  0  0  0
   81.3569    7.4913   -4.7577 H   0  0  0  0  0  0
   82.6755    8.5955   -5.2759 H   0  0  0  0  0  0
   76.4527    6.7395   -7.3143 H   0  0  0  0  0  0
   78.4319    4.8225   -2.6358 H   0  0  0  0  0  0
   80.9031    4.9948   -3.0925 H   0  0  0  0  0  0
   76.6077    6.5342   -1.2009 H   0  0  0  0  0  0
   76.5969    4.1302   -1.8287 H   0  0  0  0  0  0
   76.9794    5.3142    1.5973 H   0  0  0  0  0  0
   77.3609    7.0367    1.2592 H   0  0  0  0  0  0
  1  2  1  0  0  0
  1 26  1  0  0  0
  1 30  1  0  0  0
  2  3  2  0  0  0
  2  5  1  0  0  0
  3  4  1  0  0  0
  3 24  1  0  0  0
  4  8  1  0  0  0
  4 25  1  0  0  0
  4 39  1  0  0  0
  5  6  1  0  0  0
  5 40  1  0  0  0
  5 41  1  0  0  0
  6 31  1  0  0  0
  6 42  1  0  0  0
  6 43  1  0  0  0
  7 31  1  0  0  0
  7 33  1  0  0  0
  7 44  1  0  0  0
  7 45  1  0  0  0
  8 46  1  0  0  0
  8 47  1  0  0  0
  8 48  1  0  0  0
  9 27  2  0  0  0
  9 28  1  0  0  0
  9 49  1  0  0  0
 10 11  2  0  0  0
 10 20  1  0  0  0
 10 50  1  0  0  0
 11 22  1  0  0  0
 11 51  1  0  0  0
 12 13  1  0  0  0
 12 26  2  0  0  0
 12 52  1  0  0  0
 13 28  2  0  0  0
 13 53  1  0  0  0
 14 20  2  0  0  0
 14 21  1  0  0  0
 14 54  1  0  0  0
 15 16  2  0  0  0
 16 17  1  0  0  0
 16 24  1  0  0  0
 17 18  1  0  0  0
 17 23  1  0  0  0
 18 19  1  0  0  0
 18 20  1  0  0  0
 18 55  1  0  0  0
 19 56  1  0  0  0
 19 57  1  0  0  0
 19 58  1  0  0  0
 21 22  2  0  0  0
 21 59  1  0  0  0
 22 60  1  0  0  0
 23 61  1  0  0  0
 23 62  1  0  0  0
 23 63  1  0  0  0
 24 30  2  0  0  0
 25 64  1  0  0  0
 25 65  1  0  0  0
 25 66  1  0  0  0
 26 27  1  0  0  0
 27 67  1  0  0  0
 28 29  1  0  0  0
 31 32  1  0  0  0
 31 68  1  0  0  0
 32 69  1  0  0  0
 33 34  1  0  0  0
 33 35  1  0  0  0
 33 70  1  0  0  0
 34 71  1  0  0  0
 35 36  1  0  0  0
 35 72  1  0  0  0
 35 73  1  0  0  0
 36 37  1  0  0  0
 36 38  2  0  0  0
M  CHG  1  37  -1
M  END
> <s_m_source_file>
../2r4f_ligand.sdf

> <i_m_source_file_index>
1

> <s_epik_input>
W09IXUMoPU8pW0NIMl1bQ0BIXShbT0hdKVtDSDJdW0NASF0oW09IXSlbQ0gyXVtDSDJdYyhuMS1jMltjSF1bY0hdYyhGKVtjSF1bY0hdMiljKFtDSF0oW0NIM10pW0NIM10pYyhuMSlDKD1PKU4oW0NIM10pW0NASF0oW0NIM10pYzNbY0hdW2NIXVtjSF1bY0hdW2NIXTM=

> <s_epik_cmdline>
J2VwaWtfYXBwJywgJy1pbWFlJywgJ2xpZ2FuZF9wcm8ubWFlJywgJy1vbWFlJywgJ2xpZ2FuZF9wcmVwLm1hZScsICctbXMnLCAnMScsICctcGgnLCAnNycsICctcGh0JywgJzAuNScsICctbnQn

> <r_lp_tautomer_probability>
1

> <r_epik_Ionization_Penalty>
  0.0032

> <r_epik_Ionization_Penalty_Charging>
  0.0031

> <r_epik_Ionization_Penalty_Neutral>
  0.0000

> <r_epik_State_Penalty>
 -0.0000

> <r_epik_Charging_Adjusted_Penalty>
0.00314987193902911

> <i_epik_Tot_Q>
-1

> <i_epik_Tot_abs_Q>
1

$$$$
