2r5a_ligand
                    3D
 Schrodinger Suite 2020-3.
 28 27  0  0  1  0            999 V2000
  -26.9940  -20.5260  -15.8370 N   0  3  0  0  0  0
  -26.4300  -20.5520  -17.2200 C   0  0  1  0  0  0
  -25.1370  -19.7370  -17.2980 C   0  0  0  0  0  0
  -25.0700  -19.0160  -18.6360 C   0  0  0  0  0  0
  -23.8060  -18.1830  -18.8010 C   0  0  0  0  0  0
  -23.5150  -18.0370  -20.2870 C   0  0  0  0  0  0
  -22.6920  -16.9010  -20.6420 N   0  3  0  0  0  0
  -22.7040  -16.4390  -22.0200 C   0  0  0  0  0  0
  -26.1530  -21.9540  -17.6930 C   0  0  0  0  0  0
  -25.4350  -22.7060  -17.0260 O   0  0  0  0  0  0
  -26.6200  -22.3660  -18.7660 O   0  5  0  0  0  0
  -27.1793  -19.4843  -15.5361 H   0  0  0  0  0  0
  -26.2783  -20.9871  -15.1405 H   0  0  0  0  0  0
  -27.9397  -21.0874  -15.8161 H   0  0  0  0  0  0
  -27.2088  -20.1177  -17.8641 H   0  0  0  0  0  0
  -25.1193  -18.9985  -16.4829 H   0  0  0  0  0  0
  -24.2727  -20.4105  -17.2014 H   0  0  0  0  0  0
  -25.0924  -19.7538  -19.4516 H   0  0  0  0  0  0
  -25.9312  -18.3383  -18.7309 H   0  0  0  0  0  0
  -23.9585  -17.1918  -18.3491 H   0  0  0  0  0  0
  -22.9661  -18.6883  -18.3017 H   0  0  0  0  0  0
  -22.9870  -18.9324  -20.6469 H   0  0  0  0  0  0
  -24.4611  -17.9236  -20.8365 H   0  0  0  0  0  0
  -22.9995  -16.0263  -20.0501 H   0  0  0  0  0  0
  -21.6372  -17.1328  -20.4330 H   0  0  0  0  0  0
  -22.0311  -15.5750  -22.1229 H   0  0  0  0  0  0
  -23.7261  -16.1429  -22.2986 H   0  0  0  0  0  0
  -22.3639  -17.2495  -22.6814 H   0  0  0  0  0  0
  1  2  1  0  0  0
  1 12  1  0  0  0
  1 13  1  0  0  0
  1 14  1  0  0  0
  2  3  1  0  0  0
  2  9  1  0  0  0
  2 15  1  0  0  0
  3  4  1  0  0  0
  3 16  1  0  0  0
  3 17  1  0  0  0
  4  5  1  0  0  0
  4 18  1  0  0  0
  4 19  1  0  0  0
  5  6  1  0  0  0
  5 20  1  0  0  0
  5 21  1  0  0  0
  6  7  1  0  0  0
  6 22  1  0  0  0
  6 23  1  0  0  0
  7  8  1  0  0  0
  7 24  1  0  0  0
  7 25  1  0  0  0
  8 26  1  0  0  0
  8 27  1  0  0  0
  8 28  1  0  0  0
  9 10  2  0  0  0
  9 11  1  0  0  0
M  CHG  3   1   1   7   1  11  -1
M  END
> <s_m_source_file>
../2r5a_ligand.sdf

> <i_m_source_file_index>
1

> <s_epik_input>
Tz1DKFtPSF0pW0NAQEhdKFtOSDMrXSlbQ0gyXVtDSDJdW0NIMl1bQ0gyXVtOSDIrXVtDSDNd

> <s_epik_cmdline>
J2VwaWtfYXBwJywgJy1pbWFlJywgJ2xpZ2FuZF9wcm8ubWFlJywgJy1vbWFlJywgJ2xpZ2FuZF9wcmVwLm1hZScsICctbXMnLCAnMScsICctcGgnLCAnNycsICctcGh0JywgJzAuNScsICctbnQn

> <r_lp_tautomer_probability>
1

> <r_epik_Ionization_Penalty>
  0.0016

> <r_epik_Ionization_Penalty_Charging>
  0.0016

> <r_epik_Ionization_Penalty_Neutral>
  0.0000

> <r_epik_State_Penalty>
 -0.0000

> <r_epik_Charging_Adjusted_Penalty>
0.00156520728045857

> <i_epik_Tot_Q>
1

> <i_epik_Tot_abs_Q>
3

$$$$
