2r5b_ligand
                    3D
 Schrodinger Suite 2020-3.
229235  0  0  1  0            999 V2000
  -20.0330  -12.3940   18.0430 N   0  3  0  0  0  0
  -20.5160  -11.4260   17.0220 C   0  0  1  0  0  0
  -20.1870  -11.9320   15.6180 C   0  0  0  0  0  0
  -19.0120  -12.0290   15.2550 O   0  0  0  0  0  0
  -22.0170  -11.2010   17.1760 C   0  0  0  0  0  0
  -22.4780   -9.7710   16.8950 C   0  0  0  0  0  0
  -23.8960   -9.5520   17.4100 C   0  0  0  0  0  0
  -24.2630   -8.0700   17.4730 C   0  0  0  0  0  0
  -25.7260   -7.8430   17.7060 N   0  3  0  0  0  0
  -21.2230  -12.2610   14.8450 N   0  0  0  0  0  0
  -21.0700  -12.7390   13.4700 C   0  0  0  0  0  0
  -21.9450  -13.9420   13.1770 C   0  0  0  0  0  0
  -22.8220  -14.2770   13.9760 O   0  0  0  0  0  0
  -21.7180  -14.5670   12.0240 N   0  0  0  0  0  0
  -22.3810  -15.8240   11.6530 C   0  0  2  0  0  0
  -22.0190  -16.2290   10.2180 C   0  0  0  0  0  0
  -23.8910  -15.7540   11.7960 C   0  0  0  0  0  0
  -24.5260  -16.7320   12.1800 O   0  0  0  0  0  0
  -24.4490  -14.5910   11.4750 N   0  0  0  0  0  0
  -25.8980  -14.4240   11.3710 C   0  0  1  0  0  0
  -26.5730  -14.5730   12.7240 C   0  0  0  0  0  0
  -27.7460  -14.9220   12.7930 O   0  0  0  0  0  0
  -26.2320  -13.0700   10.7370 C   0  0  0  0  0  0
  -25.8290  -13.0460    8.9690 S   0  0  0  0  0  0
  -25.8040  -14.3510   13.7900 N   0  0  0  0  0  0
  -26.3010  -14.4230   15.1630 C   0  0  1  0  0  0
  -26.4170  -15.8410   15.7140 C   0  0  0  0  0  0
  -27.0590  -16.0470   16.7460 O   0  0  0  0  0  0
  -25.4150  -13.5890   16.0980 C   0  0  0  0  0  0
  -25.3380  -12.1510   15.6850 C   0  0  0  0  0  0
  -24.2850  -11.7360   15.1610 O   0  0  0  0  0  0
  -26.3280  -11.4220   15.8700 O   0  0  0  0  0  0
  -25.8000  -16.8050   15.0310 N   0  0  0  0  0  0
  -25.6890  -18.1660   15.5500 C   0  0  1  0  0  0
  -26.5240  -19.1350   14.7390 C   0  0  0  0  0  0
  -26.3330  -19.2520   13.5280 O   0  0  0  0  0  0
  -24.2200  -18.6540   15.5320 C   0  0  0  0  0  0
  -23.2580  -17.8250   16.3460 C   0  0  0  0  0  0
  -22.6830  -18.3280   17.5210 C   0  0  0  0  0  0
  -22.9200  -16.5400   15.9450 C   0  0  0  0  0  0
  -21.7870  -17.5550   18.2730 C   0  0  0  0  0  0
  -22.0400  -15.7640   16.6660 C   0  0  0  0  0  0
  -21.4750  -16.2660   17.8400 C   0  0  0  0  0  0
  -20.6050  -15.4640   18.5470 O   0  0  0  0  0  0
  -27.4190  -19.8740   15.4050 N   0  0  0  0  0  0
  -28.1690  -20.9290   14.7210 C   0  0  2  0  0  0
  -28.9790  -21.5940   15.8500 C   0  0  0  0  0  0
  -28.4130  -21.0880   17.1060 C   0  0  0  0  0  0
  -27.8010  -19.7570   16.8210 C   0  0  0  0  0  0
  -27.2580  -21.9550   14.0250 C   0  0  0  0  0  0
  -27.5910  -22.4130   12.9410 O   0  0  0  0  0  0
  -26.1260  -22.3040   14.6430 N   0  0  0  0  0  0
  -25.1920  -23.2950   14.0750 C   0  0  1  0  0  0
  -24.5160  -22.8300   12.7750 C   0  0  0  0  0  0
  -23.9410  -23.6550   12.0420 O   0  0  0  0  0  0
  -24.1010  -23.6700   15.0990 C   0  0  0  0  0  0
  -24.5160  -23.5150   16.5670 C   0  0  0  0  0  0
  -24.0520  -22.2030   17.1720 C   0  0  0  0  0  0
  -24.9190  -21.3400   17.4250 O   0  0  0  0  0  0
  -22.8220  -22.0400   17.3930 O   0  0  0  0  0  0
  -24.5390  -21.5210   12.5120 N   0  0  0  0  0  0
  -23.7830  -20.9460   11.3880 C   0  0  2  0  0  0
  -22.8440  -19.8420   11.8680 C   0  0  0  0  0  0
  -21.7140  -20.3520   12.6880 C   0  0  0  0  0  0
  -21.6160  -20.3510   14.0450 C   0  0  0  0  0  0
  -20.4120  -20.9300   14.4310 N   0  0  0  0  0  0
  -19.7150  -21.2960   13.3070 C   0  0  0  0  0  0
  -18.4550  -21.8990   13.1760 C   0  0  0  0  0  0
  -18.0060  -22.1690   11.8990 C   0  0  0  0  0  0
  -18.7690  -21.8520   10.7730 C   0  0  0  0  0  0
  -20.0270  -21.2560   10.9000 C   0  0  0  0  0  0
  -20.5110  -20.9660   12.1910 C   0  0  0  0  0  0
  -24.7220  -20.3690   10.3190 C   0  0  0  0  0  0
  -24.2980  -19.5960    9.4710 O   0  0  0  0  0  0
  -25.9940  -20.7350   10.3820 N   0  0  0  0  0  0
  -26.9830  -20.1870    9.4340 C   0  0  1  0  0  0
  -26.6220  -20.5010    7.9840 C   0  0  0  0  0  0
  -26.8500  -19.6870    7.1020 O   0  0  0  0  0  0
  -28.3980  -20.6730    9.7770 C   0  0  0  0  0  0
  -28.9650  -20.0180   11.0430 C   0  0  0  0  0  0
  -28.7720  -18.5150   11.0270 C   0  0  0  0  0  0
  -29.2190  -17.8270   10.1110 O   0  0  0  0  0  0
  -28.0740  -18.0020   12.0210 N   0  0  0  0  0  0
  -26.0270  -21.6660    7.7470 N   0  0  0  0  0  0
  -25.6650  -22.0700    6.3910 C   0  0  2  0  0  0
  -25.1710  -23.5310    6.3750 C   0  0  0  0  0  0
  -23.9450  -23.7070    7.2460 C   0  0  0  0  0  0
  -23.9250  -24.0320    8.5670 C   0  0  0  0  0  0
  -22.6140  -24.0610    9.0280 N   0  0  0  0  0  0
  -21.7720  -23.7600    7.9940 C   0  0  0  0  0  0
  -20.3770  -23.6520    7.9740 C   0  0  0  0  0  0
  -19.7790  -23.3080    6.7740 C   0  0  0  0  0  0
  -20.5420  -23.0740    5.6220 C   0  0  0  0  0  0
  -21.9400  -23.1800    5.6450 C   0  0  0  0  0  0
  -22.5710  -23.5070    6.8560 C   0  0  0  0  0  0
  -24.6060  -21.0990    5.8130 C   0  0  0  0  0  0
  -24.5800  -20.8440    4.6030 O   0  0  0  0  0  0
  -23.7550  -20.5630    6.6880 N   0  0  0  0  0  0
  -22.6410  -19.7110    6.2840 C   0  0  2  0  0  0
  -21.5260  -19.7380    7.3420 C   0  0  0  0  0  0
  -20.3020  -18.8230    7.1470 C   0  0  0  0  0  0
  -19.5860  -19.0420    5.7740 C   0  0  0  0  0  0
  -19.3430  -19.0380    8.3240 C   0  0  0  0  0  0
  -23.1330  -18.2980    6.0520 C   0  0  0  0  0  0
  -22.7820  -17.6640    5.0790 O   0  0  0  0  0  0
  -23.9890  -17.8280    6.9470 N   0  0  0  0  0  0
  -24.6640  -16.5570    6.7880 C   0  0  1  0  0  0
  -25.4100  -16.5390    5.4440 C   0  0  0  0  0  0
  -25.3860  -15.5440    4.7070 O   0  0  0  0  0  0
  -25.6340  -16.3790    7.9700 C   0  0  0  0  0  0
  -26.4200  -14.7920    8.0370 S   0  0  0  0  0  0
  -26.0670  -17.6470    5.1270 N   0  0  0  0  0  0
  -26.8540  -17.7750    3.8880 C   0  0  2  0  0  0
  -27.7160  -19.0380    3.9290 C   0  0  0  0  0  0
  -25.9750  -17.7580    2.6340 C   0  0  0  0  0  0
  -26.3520  -17.1570    1.6260 O   0  0  0  0  0  0
  -24.8040  -18.3940    2.7190 N   0  0  0  0  0  0
  -23.8130  -18.4220    1.6400 C   0  0  2  0  0  0
  -22.6140  -19.3550    2.0250 C   0  0  0  0  0  0
  -23.2970  -17.0270    1.2650 C   0  0  0  0  0  0
  -22.8940  -16.7930    0.1250 O   0  0  0  0  0  0
  -23.2847  -16.0613    2.1794 O   0  0  0  0  0  0
  -18.9506  -12.5466   17.9204 H   0  0  0  0  0  0
  -20.5554  -13.3535   17.9147 H   0  0  0  0  0  0
  -20.2358  -11.9977   19.0489 H   0  0  0  0  0  0
  -19.9914  -10.4750   17.1964 H   0  0  0  0  0  0
  -22.5593  -11.8542   16.4765 H   0  0  0  0  0  0
  -22.3192  -11.4367   18.2071 H   0  0  0  0  0  0
  -21.8033   -9.0627   17.3982 H   0  0  0  0  0  0
  -22.4608   -9.5866   15.8107 H   0  0  0  0  0  0
  -24.6107  -10.0534   16.7408 H   0  0  0  0  0  0
  -23.9868   -9.9705   18.4232 H   0  0  0  0  0  0
  -23.7135   -7.5909   18.2967 H   0  0  0  0  0  0
  -23.9951   -7.5852   16.5226 H   0  0  0  0  0  0
  -25.9283   -6.7623   17.7416 H   0  0  0  0  0  0
  -26.0209   -8.3029   18.6608 H   0  0  0  0  0  0
  -26.3026   -8.2972   16.8867 H   0  0  0  0  0  0
  -22.2267  -12.1598   15.2836 H   0  0  0  0  0  0
  -21.3484  -11.9374   12.7700 H   0  0  0  0  0  0
  -20.0233  -13.0296   13.2971 H   0  0  0  0  0  0
  -20.9976  -14.1011   11.3356 H   0  0  0  0  0  0
  -21.9973  -16.5534   12.3816 H   0  0  0  0  0  0
  -20.9249  -16.2792   10.1162 H   0  0  0  0  0  0
  -22.4189  -15.4837    9.5147 H   0  0  0  0  0  0
  -22.4537  -17.2144    9.9944 H   0  0  0  0  0  0
  -23.7819  -13.7373   11.2849 H   0  0  0  0  0  0
  -26.2447  -15.2420   10.7224 H   0  0  0  0  0  0
  -27.3069  -12.8666   10.8517 H   0  0  0  0  0  0
  -25.6538  -12.2786   11.2365 H   0  0  0  0  0  0
  -24.7493  -14.1038   13.5991 H   0  0  0  0  0  0
  -27.3174  -14.0123   15.0724 H   0  0  0  0  0  0
  -25.8223  -13.6264   17.1191 H   0  0  0  0  0  0
  -24.3934  -13.9969   16.0956 H   0  0  0  0  0  0
  -24.2033  -10.6844   14.8490 H   0  0  0  0  0  0
  -25.3678  -16.5530   14.0514 H   0  0  0  0  0  0
  -26.0860  -18.0931   16.5733 H   0  0  0  0  0  0
  -24.1686  -19.6771   15.9329 H   0  0  0  0  0  0
  -23.8435  -18.6458   14.4985 H   0  0  0  0  0  0
  -22.9359  -19.3343   17.8549 H   0  0  0  0  0  0
  -23.3628  -16.1343   15.0354 H   0  0  0  0  0  0
  -21.3405  -17.9555   19.1831 H   0  0  0  0  0  0
  -21.7855  -14.7617   16.3215 H   0  0  0  0  0  0
  -20.1459  -15.8350   19.4752 H   0  0  0  0  0  0
  -28.7762  -20.4752   13.9239 H   0  0  0  0  0  0
  -30.0393  -21.3179   15.7522 H   0  0  0  0  0  0
  -28.8768  -22.6870   15.7799 H   0  0  0  0  0  0
  -29.2124  -20.9900   17.8552 H   0  0  0  0  0  0
  -27.6501  -21.7901   17.4735 H   0  0  0  0  0  0
  -26.9044  -19.5622   17.4277 H   0  0  0  0  0  0
  -28.5126  -18.9269   16.9414 H   0  0  0  0  0  0
  -25.9003  -21.8251   15.6072 H   0  0  0  0  0  0
  -25.8486  -24.1470   13.8448 H   0  0  0  0  0  0
  -23.8142  -24.7229   14.9602 H   0  0  0  0  0  0
  -23.2209  -23.0275   14.9490 H   0  0  0  0  0  0
  -25.6127  -23.5519   16.6438 H   0  0  0  0  0  0
  -24.0792  -24.3322   17.1598 H   0  0  0  0  0  0
  -22.4621  -21.0973   17.8310 H   0  0  0  0  0  0
  -25.1424  -20.8684   13.1601 H   0  0  0  0  0  0
  -23.2065  -21.7894   10.9800 H   0  0  0  0  0  0
  -22.4159  -19.3211   10.9988 H   0  0  0  0  0  0
  -23.4059  -19.1252   12.4849 H   0  0  0  0  0  0
  -22.3684  -19.9556   14.7274 H   0  0  0  0  0  0
  -17.8528  -22.1452   14.0505 H   0  0  0  0  0  0
  -17.0325  -22.6410   11.7662 H   0  0  0  0  0  0
  -18.3775  -22.0727    9.7800 H   0  0  0  0  0  0
  -20.6218  -21.0202   10.0176 H   0  0  0  0  0  0
  -26.3098  -21.4551   11.1512 H   0  0  0  0  0  0
  -26.9304  -19.0958    9.5627 H   0  0  0  0  0  0
  -29.0782  -20.4376    8.9452 H   0  0  0  0  0  0
  -28.3824  -21.7605    9.9413 H   0  0  0  0  0  0
  -30.0422  -20.2292   11.1141 H   0  0  0  0  0  0
  -28.4525  -20.4247   11.9273 H   0  0  0  0  0  0
  -27.6930  -18.6550   12.8200 H   0  0  0  0  0  0
  -27.8726  -16.9210   12.0513 H   0  0  0  0  0  0
  -25.8079  -22.3304    8.5958 H   0  0  0  0  0  0
  -26.5899  -22.0032    5.7993 H   0  0  0  0  0  0
  -25.9659  -24.1910    6.7525 H   0  0  0  0  0  0
  -24.9130  -23.8196    5.3454 H   0  0  0  0  0  0
  -24.8064  -24.2390    9.1739 H   0  0  0  0  0  0
  -19.7833  -23.8321    8.8702 H   0  0  0  0  0  0
  -18.6939  -23.2174    6.7241 H   0  0  0  0  0  0
  -20.0403  -22.8051    4.6925 H   0  0  0  0  0  0
  -22.5252  -23.0119    4.7409 H   0  0  0  0  0  0
  -23.9190  -20.7859    7.7526 H   0  0  0  0  0  0
  -22.2628  -20.1223    5.3365 H   0  0  0  0  0  0
  -21.9401  -19.4469    8.3186 H   0  0  0  0  0  0
  -21.1084  -20.7534    7.4088 H   0  0  0  0  0  0
  -20.6508  -17.7798    7.1478 H   0  0  0  0  0  0
  -20.3036  -18.8795    4.9563 H   0  0  0  0  0  0
  -19.1982  -20.0701    5.7226 H   0  0  0  0  0  0
  -18.7527  -18.3305    5.6774 H   0  0  0  0  0  0
  -19.8810  -18.8757    9.2696 H   0  0  0  0  0  0
  -18.5073  -18.3265    8.2507 H   0  0  0  0  0  0
  -18.9528  -20.0661    8.2959 H   0  0  0  0  0  0
  -24.1793  -18.4441    7.8381 H   0  0  0  0  0  0
  -23.8988  -15.7668    6.7902 H   0  0  0  0  0  0
  -26.4338  -17.1313    7.9044 H   0  0  0  0  0  0
  -25.0870  -16.5069    8.9157 H   0  0  0  0  0  0
  -26.0081  -18.4903    5.8308 H   0  0  0  0  0  0
  -27.4961  -16.8821    3.8672 H   0  0  0  0  0  0
  -28.3376  -19.0283    4.8365 H   0  0  0  0  0  0
  -27.0660  -19.9254    3.9392 H   0  0  0  0  0  0
  -28.3642  -19.0685    3.0408 H   0  0  0  0  0  0
  -24.6016  -18.9169    3.6653 H   0  0  0  0  0  0
  -24.3833  -18.8080    0.7822 H   0  0  0  0  0  0
  -22.9958  -20.3515    2.2917 H   0  0  0  0  0  0
  -22.0768  -18.9262    2.8838 H   0  0  0  0  0  0
  -21.9279  -19.4421    1.1697 H   0  0  0  0  0  0
  -22.9157  -15.0591    1.9160 H   0  0  0  0  0  0
  1  2  1  0  0  0
  1123  1  0  0  0
  1124  1  0  0  0
  1125  1  0  0  0
  2  3  1  0  0  0
  2  5  1  0  0  0
  2126  1  0  0  0
  3  4  2  0  0  0
  3 10  1  0  0  0
  5  6  1  0  0  0
  5127  1  0  0  0
  5128  1  0  0  0
  6  7  1  0  0  0
  6129  1  0  0  0
  6130  1  0  0  0
  7  8  1  0  0  0
  7131  1  0  0  0
  7132  1  0  0  0
  8  9  1  0  0  0
  8133  1  0  0  0
  8134  1  0  0  0
  9135  1  0  0  0
  9136  1  0  0  0
  9137  1  0  0  0
 10 11  1  0  0  0
 10138  1  0  0  0
 11 12  1  0  0  0
 11139  1  0  0  0
 11140  1  0  0  0
 12 13  2  0  0  0
 12 14  1  0  0  0
 14 15  1  0  0  0
 14141  1  0  0  0
 15 16  1  0  0  0
 15 17  1  0  0  0
 15142  1  0  0  0
 16143  1  0  0  0
 16144  1  0  0  0
 16145  1  0  0  0
 17 18  2  0  0  0
 17 19  1  0  0  0
 19 20  1  0  0  0
 19146  1  0  0  0
 20 21  1  0  0  0
 20 23  1  0  0  0
 20147  1  0  0  0
 21 22  2  0  0  0
 21 25  1  0  0  0
 23 24  1  0  0  0
 23148  1  0  0  0
 23149  1  0  0  0
 24111  1  0  0  0
 25 26  1  0  0  0
 25150  1  0  0  0
 26 27  1  0  0  0
 26 29  1  0  0  0
 26151  1  0  0  0
 27 28  2  0  0  0
 27 33  1  0  0  0
 29 30  1  0  0  0
 29152  1  0  0  0
 29153  1  0  0  0
 30 31  1  0  0  0
 30 32  2  0  0  0
 31154  1  0  0  0
 33 34  1  0  0  0
 33155  1  0  0  0
 34 35  1  0  0  0
 34 37  1  0  0  0
 34156  1  0  0  0
 35 36  2  0  0  0
 35 45  1  0  0  0
 37 38  1  0  0  0
 37157  1  0  0  0
 37158  1  0  0  0
 38 39  2  0  0  0
 38 40  1  0  0  0
 39 41  1  0  0  0
 39159  1  0  0  0
 40 42  2  0  0  0
 40160  1  0  0  0
 41 43  2  0  0  0
 41161  1  0  0  0
 42 43  1  0  0  0
 42162  1  0  0  0
 43 44  1  0  0  0
 44163  1  0  0  0
 45 46  1  0  0  0
 45 49  1  0  0  0
 46 47  1  0  0  0
 46 50  1  0  0  0
 46164  1  0  0  0
 47 48  1  0  0  0
 47165  1  0  0  0
 47166  1  0  0  0
 48 49  1  0  0  0
 48167  1  0  0  0
 48168  1  0  0  0
 49169  1  0  0  0
 49170  1  0  0  0
 50 51  2  0  0  0
 50 52  1  0  0  0
 52 53  1  0  0  0
 52171  1  0  0  0
 53 54  1  0  0  0
 53 56  1  0  0  0
 53172  1  0  0  0
 54 55  2  0  0  0
 54 61  1  0  0  0
 56 57  1  0  0  0
 56173  1  0  0  0
 56174  1  0  0  0
 57 58  1  0  0  0
 57175  1  0  0  0
 57176  1  0  0  0
 58 59  2  0  0  0
 58 60  1  0  0  0
 60177  1  0  0  0
 61 62  1  0  0  0
 61178  1  0  0  0
 62 63  1  0  0  0
 62 73  1  0  0  0
 62179  1  0  0  0
 63 64  1  0  0  0
 63180  1  0  0  0
 63181  1  0  0  0
 64 65  2  0  0  0
 64 72  1  0  0  0
 65 66  1  0  0  0
 65182  1  0  0  0
 66 67  1  0  0  0
 67 68  1  0  0  0
 67 72  2  0  0  0
 68 69  2  0  0  0
 68183  1  0  0  0
 69 70  1  0  0  0
 69184  1  0  0  0
 70 71  2  0  0  0
 70185  1  0  0  0
 71 72  1  0  0  0
 71186  1  0  0  0
 73 74  2  0  0  0
 73 75  1  0  0  0
 75 76  1  0  0  0
 75187  1  0  0  0
 76 77  1  0  0  0
 76 79  1  0  0  0
 76188  1  0  0  0
 77 78  2  0  0  0
 77 84  1  0  0  0
 79 80  1  0  0  0
 79189  1  0  0  0
 79190  1  0  0  0
 80 81  1  0  0  0
 80191  1  0  0  0
 80192  1  0  0  0
 81 82  2  0  0  0
 81 83  1  0  0  0
 83193  1  0  0  0
 83194  1  0  0  0
 84 85  1  0  0  0
 84195  1  0  0  0
 85 86  1  0  0  0
 85 96  1  0  0  0
 85196  1  0  0  0
 86 87  1  0  0  0
 86197  1  0  0  0
 86198  1  0  0  0
 87 88  2  0  0  0
 87 95  1  0  0  0
 88 89  1  0  0  0
 88199  1  0  0  0
 89 90  1  0  0  0
 90 91  1  0  0  0
 90 95  2  0  0  0
 91 92  2  0  0  0
 91200  1  0  0  0
 92 93  1  0  0  0
 92201  1  0  0  0
 93 94  2  0  0  0
 93202  1  0  0  0
 94 95  1  0  0  0
 94203  1  0  0  0
 96 97  2  0  0  0
 96 98  1  0  0  0
 98 99  1  0  0  0
 98204  1  0  0  0
 99100  1  0  0  0
 99104  1  0  0  0
 99205  1  0  0  0
100101  1  0  0  0
100206  1  0  0  0
100207  1  0  0  0
101102  1  0  0  0
101103  1  0  0  0
101208  1  0  0  0
102209  1  0  0  0
102210  1  0  0  0
102211  1  0  0  0
103212  1  0  0  0
103213  1  0  0  0
103214  1  0  0  0
104105  2  0  0  0
104106  1  0  0  0
106107  1  0  0  0
106215  1  0  0  0
107108  1  0  0  0
107110  1  0  0  0
107216  1  0  0  0
108109  2  0  0  0
108112  1  0  0  0
110111  1  0  0  0
110217  1  0  0  0
110218  1  0  0  0
112113  1  0  0  0
112219  1  0  0  0
113114  1  0  0  0
113115  1  0  0  0
113220  1  0  0  0
114221  1  0  0  0
114222  1  0  0  0
114223  1  0  0  0
115116  2  0  0  0
115117  1  0  0  0
117118  1  0  0  0
117224  1  0  0  0
118119  1  0  0  0
118120  1  0  0  0
118225  1  0  0  0
119226  1  0  0  0
119227  1  0  0  0
119228  1  0  0  0
120121  2  0  0  0
120122  1  0  0  0
122229  1  0  0  0
M  CHG  2   1   1   9   1
M  END
> <s_m_source_file>
../2r5b_ligand.sdf

> <i_m_source_file_index>
1

> <s_epik_input>
W05IMytdW0NIMl1bQ0gyXVtDSDJdW0NIMl1bQ0BASF0oW05IMytdKUMoPU8pW05IXVtDSDJdQyg9TylbTkhdW0NASF0oW0NIM10pQyg9TylbTkhdW0NAQEhdKEMoPU8pW05IXVtDQEhdKFtDSDJdQyg9TylbT0hdKUMoPU8pW05IXVtDQEBIXShDMT1PKVtDSDJdYzJbY0hdW2NIXWMoW09IXSlbY0hdW2NIXTIpW0NIMl1TU1tDSDJdW0NASF0oQyg9TylbTkhdW0NASF0oW0NIM10pQyg9TylbTkhdW0NASF0oW0NIM10pQyg9TylbT0hdKVtOSF1DKD1PKVtDQEBIXShbQ0gyXVtDSF0oW0NIM10pW0NIM10pW05IXUMoPU8pW0NAQEhdKFtDSDJdYyhbY0hdW25IXTMpYyhjMzQpW2NIXVtjSF1bY0hdW2NIXTQpW05IXUMoPU8pW0NAQEhdKFtDSDJdW0NIMl1DKD1PKVtOSDJdKVtOSF1DKD1PKVtDQEBIXShbQ0gyXWMoW2NIXVtuSF01KWMoYzU2KVtjSF1bY0hdW2NIXVtjSF02KVtOSF1DKD1PKVtDQEBIXShbQ0gyXVtDSDJdQyg9TylbT0hdKVtOSF1DKD1PKVtDQEhdKE4xNylbQ0gyXVtDSDJdW0NIMl03

> <s_epik_cmdline>
J2VwaWtfYXBwJywgJy1pbWFlJywgJ2xpZ2FuZF9wcm8ubWFlJywgJy1vbWFlJywgJ2xpZ2FuZF9wcmVwLm1hZScsICctbXMnLCAnMScsICctcGgnLCAnNycsICctcGh0JywgJzAuNScsICctbnQn

> <s_epik_pKa_notes>
Molecule size exceeds maximum supported for generating protonation states

$$$$
