2r5d_ligand
                    3D
 Schrodinger Suite 2020-3.
229235  0  0  1  0            999 V2000
   -8.8520  -17.4790   16.3790 N   0  3  0  0  0  0
   -8.8620  -16.6060   15.1870 C   0  0  1  0  0  0
   -7.6540  -15.6480   15.0620 C   0  0  0  0  0  0
   -7.6760  -14.7170   14.2480 O   0  0  0  0  0  0
   -9.0820  -17.4470   13.9150 C   0  0  0  0  0  0
   -8.0400  -17.3160   12.8000 C   0  0  0  0  0  0
   -7.5400  -18.6820   12.3230 C   0  0  0  0  0  0
   -8.4620  -19.2900   11.2580 C   0  0  0  0  0  0
   -9.7810  -19.7300   11.8230 N   0  3  0  0  0  0
   -6.6200  -15.8620   15.8780 N   0  0  0  0  0  0
   -5.4360  -14.9940   15.8820 C   0  0  0  0  0  0
   -4.6880  -14.9800   17.2050 C   0  0  0  0  0  0
   -4.9550  -15.7900   18.0940 O   0  0  0  0  0  0
   -3.7460  -14.0500   17.3250 N   0  0  0  0  0  0
   -2.8950  -13.8750   18.5140 C   0  0  2  0  0  0
   -1.7710  -12.8840   18.2140 C   0  0  0  0  0  0
   -2.3140  -15.1630   19.0590 C   0  0  0  0  0  0
   -2.2560  -15.3740   20.2890 O   0  0  0  0  0  0
   -1.9130  -16.0380   18.1430 N   0  0  0  0  0  0
   -1.2660  -17.2950   18.5080 C   0  0  1  0  0  0
   -2.1790  -18.2400   19.2690 C   0  0  0  0  0  0
   -1.6980  -19.1410   19.9420 O   0  0  0  0  0  0
   -0.6970  -17.9760   17.2670 C   0  0  0  0  0  0
    0.8220  -17.1470   16.7700 S   0  0  0  0  0  0
   -3.4900  -18.0130   19.1780 N   0  0  0  0  0  0
   -4.4670  -18.8930   19.8180 C   0  0  1  0  0  0
   -4.6770  -18.5190   21.2790 C   0  0  0  0  0  0
   -5.2860  -19.2880   22.0400 O   0  0  0  0  0  0
   -5.8030  -18.8290   19.0670 C   0  0  0  0  0  0
   -5.6890  -19.3050   17.6210 C   0  0  0  0  0  0
   -5.9490  -18.5150   16.6900 O   0  0  0  0  0  0
   -5.3320  -20.4740   17.4170 O   0  0  0  0  0  0
   -4.2090  -17.3400   21.6810 N   0  0  0  0  0  0
   -4.5340  -16.8030   23.0360 C   0  0  1  0  0  0
   -3.3470  -16.8170   23.9900 C   0  0  0  0  0  0
   -2.2760  -16.3150   23.6510 O   0  0  0  0  0  0
   -5.0480  -15.3670   22.9270 C   0  0  0  0  0  0
   -6.3710  -15.2650   22.2400 C   0  0  0  0  0  0
   -7.5480  -15.1820   22.9850 C   0  0  0  0  0  0
   -6.4610  -15.2940   20.8470 C   0  0  0  0  0  0
   -8.7810  -15.1100   22.3600 C   0  0  0  0  0  0
   -7.6900  -15.2180   20.2120 C   0  0  0  0  0  0
   -8.8460  -15.1190   20.9770 C   0  0  0  0  0  0
  -10.0690  -15.0570   20.3540 O   0  0  0  0  0  0
   -3.5380  -17.3710   25.2050 N   0  0  0  0  0  0
   -2.4530  -17.3450   26.1980 C   0  0  2  0  0  0
   -3.1010  -17.9260   27.4480 C   0  0  0  0  0  0
   -4.5830  -17.8910   27.1770 C   0  0  0  0  0  0
   -4.7470  -18.0380   25.7250 C   0  0  0  0  0  0
   -1.9160  -15.9270   26.4680 C   0  0  0  0  0  0
   -0.6900  -15.7300   26.5090 O   0  0  0  0  0  0
   -2.8110  -14.9480   26.5810 N   0  0  0  0  0  0
   -2.4230  -13.5690   26.9270 C   0  0  1  0  0  0
   -1.7650  -12.8050   25.7770 C   0  0  0  0  0  0
   -1.3430  -11.6480   25.9630 O   0  0  0  0  0  0
   -3.6320  -12.7790   27.4680 C   0  0  0  0  0  0
   -4.7140  -12.4880   26.4120 C   0  0  0  0  0  0
   -5.8020  -13.5650   26.2870 C   0  0  0  0  0  0
   -5.5500  -14.7720   26.5560 O   0  0  0  0  0  0
   -6.9440  -13.1740   25.9310 O   0  0  0  0  0  0
   -1.6910  -13.4380   24.6030 N   0  0  0  0  0  0
   -1.1570  -12.7750   23.3830 C   0  0  2  0  0  0
   -2.2430  -12.6490   22.3090 C   0  0  0  0  0  0
   -3.2980  -11.6040   22.6020 C   0  0  0  0  0  0
   -4.5760  -11.8300   23.0210 C   0  0  0  0  0  0
   -5.2490  -10.6400   23.1920 N   0  0  0  0  0  0
   -4.4120   -9.6100   22.8450 C   0  0  0  0  0  0
   -4.6320   -8.2350   22.8480 C   0  0  0  0  0  0
   -3.5950   -7.4120   22.4380 C   0  0  0  0  0  0
   -2.3540   -7.9480   22.0570 C   0  0  0  0  0  0
   -2.1340   -9.3330   22.0750 C   0  0  0  0  0  0
   -3.1660  -10.1810   22.4780 C   0  0  0  0  0  0
    0.0490  -13.5250   22.8110 C   0  0  0  0  0  0
    0.5480  -13.1910   21.6970 O   0  0  0  0  0  0
    0.5250  -14.5150   23.5720 N   0  0  0  0  0  0
    1.7380  -15.2820   23.1770 C   0  0  1  0  0  0
    2.9450  -14.3840   22.8920 C   0  0  0  0  0  0
    3.6620  -14.6160   21.8990 O   0  0  0  0  0  0
    2.0810  -16.3930   24.1890 C   0  0  0  0  0  0
    1.0220  -17.5020   24.2810 C   0  0  0  0  0  0
    0.7760  -18.2000   22.9410 C   0  0  0  0  0  0
    1.5880  -19.0030   22.4850 O   0  0  0  0  0  0
   -0.3450  -17.8810   22.3060 N   0  0  0  0  0  0
    3.1650  -13.3530   23.7170 N   0  0  0  0  0  0
    4.2710  -12.4000   23.4450 C   0  0  2  0  0  0
    4.3290  -11.2800   24.4770 C   0  0  0  0  0  0
    3.0850  -10.4310   24.4850 C   0  0  0  0  0  0
    1.9410  -10.6350   25.2180 C   0  0  0  0  0  0
    1.0230   -9.6460   24.9390 N   0  0  0  0  0  0
    1.5550   -8.7840   24.0150 C   0  0  0  0  0  0
    1.0080   -7.6460   23.4280 C   0  0  0  0  0  0
    1.7870   -6.9550   22.5250 C   0  0  0  0  0  0
    3.1030   -7.4010   22.1790 C   0  0  0  0  0  0
    3.6420   -8.5360   22.7590 C   0  0  0  0  0  0
    2.8600   -9.2520   23.6990 C   0  0  0  0  0  0
    4.1900  -11.7790   22.0420 C   0  0  0  0  0  0
    5.2120  -11.6020   21.3740 O   0  0  0  0  0  0
    2.9790  -11.4680   21.5860 N   0  0  0  0  0  0
    2.7830  -10.8710   20.2620 C   0  0  2  0  0  0
    1.3830  -10.2700   20.1590 C   0  0  0  0  0  0
    1.1040   -9.5080   18.8550 C   0  0  0  0  0  0
    2.1280   -8.3710   18.5670 C   0  0  0  0  0  0
   -0.3220   -8.9420   18.9100 C   0  0  0  0  0  0
    2.9880  -11.9080   19.1600 C   0  0  0  0  0  0
    3.6930  -11.6490   18.1800 O   0  0  0  0  0  0
    2.3600  -13.0700   19.3150 N   0  0  0  0  0  0
    2.6220  -14.2310   18.4590 C   0  0  1  0  0  0
    4.1400  -14.4160   18.2490 C   0  0  0  0  0  0
    4.6320  -14.5240   17.1000 O   0  0  0  0  0  0
    2.0260  -15.4620   19.1430 C   0  0  0  0  0  0
    2.2250  -16.9730   18.2230 S   0  0  0  0  0  0
    4.8780  -14.4250   19.3630 N   0  0  0  0  0  0
    6.3420  -14.5910   19.3370 C   0  0  2  0  0  0
    6.8750  -14.7300   20.7630 C   0  0  0  0  0  0
    7.0980  -13.4840   18.5900 C   0  0  0  0  0  0
    8.1090  -13.7690   17.9360 O   0  0  0  0  0  0
    6.6290  -12.2400   18.7150 N   0  0  0  0  0  0
    7.2350  -11.0640   18.0650 C   0  0  2  0  0  0
    6.6150   -9.8000   18.6200 C   0  0  0  0  0  0
    7.0780  -11.1040   16.5460 C   0  0  0  0  0  0
    7.8950  -10.5270   15.7920 O   0  0  0  0  0  0
    6.0537  -11.7645   16.0136 O   0  0  0  0  0  0
   -8.6943  -16.8677   17.2798 H   0  0  0  0  0  0
   -8.0391  -18.2145   16.2880 H   0  0  0  0  0  0
   -9.8151  -18.0047   16.4565 H   0  0  0  0  0  0
   -9.7273  -15.9505   15.3647 H   0  0  0  0  0  0
   -9.0965  -18.5147   14.1793 H   0  0  0  0  0  0
  -10.0416  -17.1704   13.4540 H   0  0  0  0  0  0
   -8.4859  -16.7932   11.9410 H   0  0  0  0  0  0
   -7.1769  -16.7432   13.1701 H   0  0  0  0  0  0
   -6.5359  -18.5732   11.8872 H   0  0  0  0  0  0
   -7.4962  -19.3749   13.1762 H   0  0  0  0  0  0
   -8.6611  -18.5428   10.4756 H   0  0  0  0  0  0
   -7.9753  -20.1690   10.8102 H   0  0  0  0  0  0
  -10.4000  -20.1563   11.0198 H   0  0  0  0  0  0
  -10.2977  -18.8650   12.2643 H   0  0  0  0  0  0
   -9.6119  -20.4911   12.5989 H   0  0  0  0  0  0
   -6.6744  -16.7212   16.5627 H   0  0  0  0  0  0
   -4.7288  -15.3350   15.1115 H   0  0  0  0  0  0
   -5.7397  -13.9585   15.6685 H   0  0  0  0  0  0
   -3.6227  -13.3848   16.4577 H   0  0  0  0  0  0
   -3.5869  -13.4926   19.2788 H   0  0  0  0  0  0
   -2.2002  -11.9515   17.8188 H   0  0  0  0  0  0
   -1.0885  -13.3183   17.4687 H   0  0  0  0  0  0
   -1.2153  -12.6689   19.1387 H   0  0  0  0  0  0
   -2.0808  -15.7930   17.0838 H   0  0  0  0  0  0
   -0.4607  -16.9951   19.1947 H   0  0  0  0  0  0
   -0.4817  -19.0306   17.4937 H   0  0  0  0  0  0
   -1.4301  -17.9191   16.4489 H   0  0  0  0  0  0
   -3.8304  -17.1385   18.6041 H   0  0  0  0  0  0
   -4.0315  -19.9017   19.7644 H   0  0  0  0  0  0
   -6.5402  -19.4681   19.5751 H   0  0  0  0  0  0
   -6.1661  -17.7907   19.0524 H   0  0  0  0  0  0
   -5.8692  -18.8506   15.6455 H   0  0  0  0  0  0
   -3.5732  -16.7587   20.9970 H   0  0  0  0  0  0
   -5.3027  -17.4847   23.4288 H   0  0  0  0  0  0
   -5.1637  -14.9415   23.9348 H   0  0  0  0  0  0
   -4.3292  -14.7627   22.3542 H   0  0  0  0  0  0
   -7.4958  -15.1738   24.0737 H   0  0  0  0  0  0
   -5.5521  -15.3776   20.2511 H   0  0  0  0  0  0
   -9.6939  -15.0467   22.9522 H   0  0  0  0  0  0
   -7.7496  -15.2357   19.1238 H   0  0  0  0  0  0
  -10.9881  -14.9786   20.9532 H   0  0  0  0  0  0
   -1.5977  -17.9250   25.8211 H   0  0  0  0  0  0
   -2.7424  -18.9543   27.6027 H   0  0  0  0  0  0
   -2.8346  -17.3098   28.3194 H   0  0  0  0  0  0
   -5.0733  -18.7171   27.7129 H   0  0  0  0  0  0
   -4.9966  -16.9324   27.5236 H   0  0  0  0  0  0
   -5.6419  -17.5270   25.3402 H   0  0  0  0  0  0
   -4.7556  -19.0883   25.3982 H   0  0  0  0  0  0
   -3.8688  -15.1945   26.4071 H   0  0  0  0  0  0
   -1.6583  -13.7115   27.7047 H   0  0  0  0  0  0
   -4.1123  -13.3512   28.2754 H   0  0  0  0  0  0
   -3.2910  -11.8090   27.8588 H   0  0  0  0  0  0
   -5.2273  -11.5479   26.6624 H   0  0  0  0  0  0
   -4.2445  -12.3967   25.4214 H   0  0  0  0  0  0
   -6.3390  -15.5327   26.4620 H   0  0  0  0  0  0
   -2.0396  -14.4802   24.5547 H   0  0  0  0  0  0
   -0.8357  -11.7763   23.7136 H   0  0  0  0  0  0
   -1.7798  -12.3753   21.3496 H   0  0  0  0  0  0
   -2.7665  -13.6105   22.2023 H   0  0  0  0  0  0
   -5.0058  -12.8162   23.1964 H   0  0  0  0  0  0
   -5.5892   -7.8193   23.1627 H   0  0  0  0  0  0
   -3.7448   -6.3327   22.4108 H   0  0  0  0  0  0
   -1.5522   -7.2795   21.7435 H   0  0  0  0  0  0
   -1.1684   -9.7420   21.7777 H   0  0  0  0  0  0
    0.0006  -14.7588   24.5077 H   0  0  0  0  0  0
    1.4519  -15.7523   22.2246 H   0  0  0  0  0  0
    3.0285  -16.8717   23.9008 H   0  0  0  0  0  0
    2.1817  -15.9558   25.1934 H   0  0  0  0  0  0
    1.3517  -18.2649   25.0016 H   0  0  0  0  0  0
    0.0670  -17.0703   24.6152 H   0  0  0  0  0  0
   -1.0429  -17.1571   22.7520 H   0  0  0  0  0  0
   -0.5762  -18.3405   21.3337 H   0  0  0  0  0  0
    2.5229  -13.2131   24.5991 H   0  0  0  0  0  0
    5.1707  -13.0280   23.5239 H   0  0  0  0  0  0
    4.4477  -11.7127   25.4813 H   0  0  0  0  0  0
    5.1835  -10.6230   24.2575 H   0  0  0  0  0  0
    1.7831  -11.4569   25.9163 H   0  0  0  0  0  0
   -0.0005   -7.3134   23.6739 H   0  0  0  0  0  0
    1.3927   -6.0493   22.0642 H   0  0  0  0  0  0
    3.6873   -6.8397   21.4499 H   0  0  0  0  0  0
    4.6458   -8.8717   22.4985 H   0  0  0  0  0  0
    2.1119  -11.6705   22.2319 H   0  0  0  0  0  0
    3.5451  -10.0830   20.1712 H   0  0  0  0  0  0
    0.6337  -11.0727   20.2238 H   0  0  0  0  0  0
    1.2286   -9.5570   20.9823 H   0  0  0  0  0  0
    1.1986  -10.2314   18.0317 H   0  0  0  0  0  0
    3.1434   -8.7925   18.5308 H   0  0  0  0  0  0
    2.0724   -7.6166   19.3656 H   0  0  0  0  0  0
    1.8916   -7.9007   17.6011 H   0  0  0  0  0  0
   -1.0323   -9.7568   19.1140 H   0  0  0  0  0  0
   -0.5681   -8.4739   17.9455 H   0  0  0  0  0  0
   -0.3873   -8.1898   19.7099 H   0  0  0  0  0  0
    1.6184  -13.1396   20.1244 H   0  0  0  0  0  0
    2.1401  -14.0448   17.4879 H   0  0  0  0  0  0
    2.5121  -15.6108   20.1185 H   0  0  0  0  0  0
    0.9462  -15.3128   19.2904 H   0  0  0  0  0  0
    4.3553  -14.3027   20.3231 H   0  0  0  0  0  0
    6.4849  -15.5173   18.7611 H   0  0  0  0  0  0
    6.3237  -15.5263   21.2845 H   0  0  0  0  0  0
    6.7402  -13.7790   21.2991 H   0  0  0  0  0  0
    7.9446  -14.9847   20.7314 H   0  0  0  0  0  0
    5.7368  -12.1202   19.3471 H   0  0  0  0  0  0
    8.3071  -11.1012   18.3084 H   0  0  0  0  0  0
    6.7342   -9.7826   19.7134 H   0  0  0  0  0  0
    5.5447   -9.7751   18.3674 H   0  0  0  0  0  0
    7.1155   -8.9235   18.1826 H   0  0  0  0  0  0
    5.9304  -11.8002   14.9211 H   0  0  0  0  0  0
  1  2  1  0  0  0
  1123  1  0  0  0
  1124  1  0  0  0
  1125  1  0  0  0
  2  3  1  0  0  0
  2  5  1  0  0  0
  2126  1  0  0  0
  3  4  2  0  0  0
  3 10  1  0  0  0
  5  6  1  0  0  0
  5127  1  0  0  0
  5128  1  0  0  0
  6  7  1  0  0  0
  6129  1  0  0  0
  6130  1  0  0  0
  7  8  1  0  0  0
  7131  1  0  0  0
  7132  1  0  0  0
  8  9  1  0  0  0
  8133  1  0  0  0
  8134  1  0  0  0
  9135  1  0  0  0
  9136  1  0  0  0
  9137  1  0  0  0
 10 11  1  0  0  0
 10138  1  0  0  0
 11 12  1  0  0  0
 11139  1  0  0  0
 11140  1  0  0  0
 12 13  2  0  0  0
 12 14  1  0  0  0
 14 15  1  0  0  0
 14141  1  0  0  0
 15 16  1  0  0  0
 15 17  1  0  0  0
 15142  1  0  0  0
 16143  1  0  0  0
 16144  1  0  0  0
 16145  1  0  0  0
 17 18  2  0  0  0
 17 19  1  0  0  0
 19 20  1  0  0  0
 19146  1  0  0  0
 20 21  1  0  0  0
 20 23  1  0  0  0
 20147  1  0  0  0
 21 22  2  0  0  0
 21 25  1  0  0  0
 23 24  1  0  0  0
 23148  1  0  0  0
 23149  1  0  0  0
 24111  1  0  0  0
 25 26  1  0  0  0
 25150  1  0  0  0
 26 27  1  0  0  0
 26 29  1  0  0  0
 26151  1  0  0  0
 27 28  2  0  0  0
 27 33  1  0  0  0
 29 30  1  0  0  0
 29152  1  0  0  0
 29153  1  0  0  0
 30 31  1  0  0  0
 30 32  2  0  0  0
 31154  1  0  0  0
 33 34  1  0  0  0
 33155  1  0  0  0
 34 35  1  0  0  0
 34 37  1  0  0  0
 34156  1  0  0  0
 35 36  2  0  0  0
 35 45  1  0  0  0
 37 38  1  0  0  0
 37157  1  0  0  0
 37158  1  0  0  0
 38 39  2  0  0  0
 38 40  1  0  0  0
 39 41  1  0  0  0
 39159  1  0  0  0
 40 42  2  0  0  0
 40160  1  0  0  0
 41 43  2  0  0  0
 41161  1  0  0  0
 42 43  1  0  0  0
 42162  1  0  0  0
 43 44  1  0  0  0
 44163  1  0  0  0
 45 46  1  0  0  0
 45 49  1  0  0  0
 46 47  1  0  0  0
 46 50  1  0  0  0
 46164  1  0  0  0
 47 48  1  0  0  0
 47165  1  0  0  0
 47166  1  0  0  0
 48 49  1  0  0  0
 48167  1  0  0  0
 48168  1  0  0  0
 49169  1  0  0  0
 49170  1  0  0  0
 50 51  2  0  0  0
 50 52  1  0  0  0
 52 53  1  0  0  0
 52171  1  0  0  0
 53 54  1  0  0  0
 53 56  1  0  0  0
 53172  1  0  0  0
 54 55  2  0  0  0
 54 61  1  0  0  0
 56 57  1  0  0  0
 56173  1  0  0  0
 56174  1  0  0  0
 57 58  1  0  0  0
 57175  1  0  0  0
 57176  1  0  0  0
 58 59  1  0  0  0
 58 60  2  0  0  0
 59177  1  0  0  0
 61 62  1  0  0  0
 61178  1  0  0  0
 62 63  1  0  0  0
 62 73  1  0  0  0
 62179  1  0  0  0
 63 64  1  0  0  0
 63180  1  0  0  0
 63181  1  0  0  0
 64 65  2  0  0  0
 64 72  1  0  0  0
 65 66  1  0  0  0
 65182  1  0  0  0
 66 67  1  0  0  0
 67 68  1  0  0  0
 67 72  2  0  0  0
 68 69  2  0  0  0
 68183  1  0  0  0
 69 70  1  0  0  0
 69184  1  0  0  0
 70 71  2  0  0  0
 70185  1  0  0  0
 71 72  1  0  0  0
 71186  1  0  0  0
 73 74  2  0  0  0
 73 75  1  0  0  0
 75 76  1  0  0  0
 75187  1  0  0  0
 76 77  1  0  0  0
 76 79  1  0  0  0
 76188  1  0  0  0
 77 78  2  0  0  0
 77 84  1  0  0  0
 79 80  1  0  0  0
 79189  1  0  0  0
 79190  1  0  0  0
 80 81  1  0  0  0
 80191  1  0  0  0
 80192  1  0  0  0
 81 82  2  0  0  0
 81 83  1  0  0  0
 83193  1  0  0  0
 83194  1  0  0  0
 84 85  1  0  0  0
 84195  1  0  0  0
 85 86  1  0  0  0
 85 96  1  0  0  0
 85196  1  0  0  0
 86 87  1  0  0  0
 86197  1  0  0  0
 86198  1  0  0  0
 87 88  2  0  0  0
 87 95  1  0  0  0
 88 89  1  0  0  0
 88199  1  0  0  0
 89 90  1  0  0  0
 90 91  1  0  0  0
 90 95  2  0  0  0
 91 92  2  0  0  0
 91200  1  0  0  0
 92 93  1  0  0  0
 92201  1  0  0  0
 93 94  2  0  0  0
 93202  1  0  0  0
 94 95  1  0  0  0
 94203  1  0  0  0
 96 97  2  0  0  0
 96 98  1  0  0  0
 98 99  1  0  0  0
 98204  1  0  0  0
 99100  1  0  0  0
 99104  1  0  0  0
 99205  1  0  0  0
100101  1  0  0  0
100206  1  0  0  0
100207  1  0  0  0
101102  1  0  0  0
101103  1  0  0  0
101208  1  0  0  0
102209  1  0  0  0
102210  1  0  0  0
102211  1  0  0  0
103212  1  0  0  0
103213  1  0  0  0
103214  1  0  0  0
104105  2  0  0  0
104106  1  0  0  0
106107  1  0  0  0
106215  1  0  0  0
107108  1  0  0  0
107110  1  0  0  0
107216  1  0  0  0
108109  2  0  0  0
108112  1  0  0  0
110111  1  0  0  0
110217  1  0  0  0
110218  1  0  0  0
112113  1  0  0  0
112219  1  0  0  0
113114  1  0  0  0
113115  1  0  0  0
113220  1  0  0  0
114221  1  0  0  0
114222  1  0  0  0
114223  1  0  0  0
115116  2  0  0  0
115117  1  0  0  0
117118  1  0  0  0
117224  1  0  0  0
118119  1  0  0  0
118120  1  0  0  0
118225  1  0  0  0
119226  1  0  0  0
119227  1  0  0  0
119228  1  0  0  0
120121  2  0  0  0
120122  1  0  0  0
122229  1  0  0  0
M  CHG  2   1   1   9   1
M  END
> <s_m_source_file>
../2r5d_ligand.sdf

> <i_m_source_file_index>
1

> <s_epik_input>
W05IMytdW0NIMl1bQ0gyXVtDSDJdW0NIMl1bQ0BASF0oW05IMytdKUMoPU8pW05IXVtDSDJdQyg9TylbTkhdW0NASF0oW0NIM10pQyg9TylbTkhdW0NAQEhdKEMoPU8pW05IXVtDQEhdKFtDSDJdQyg9TylbT0hdKUMoPU8pW05IXVtDQEBIXShDMT1PKVtDSDJdYzJbY0hdW2NIXWMoW09IXSlbY0hdW2NIXTIpW0NIMl1TU1tDSDJdW0NASF0oQyg9TylbTkhdW0NASF0oW0NIM10pQyg9TylbTkhdW0NASF0oW0NIM10pQyg9TylbT0hdKVtOSF1DKD1PKVtDQEBIXShbQ0gyXVtDSF0oW0NIM10pW0NIM10pW05IXUMoPU8pW0NAQEhdKFtDSDJdYyhbY0hdW25IXTMpYyhjMzQpW2NIXVtjSF1bY0hdW2NIXTQpW05IXUMoPU8pW0NAQEhdKFtDSDJdW0NIMl1DKD1PKVtOSDJdKVtOSF1DKD1PKVtDQEBIXShbQ0gyXWMoW2NIXVtuSF01KWMoYzU2KVtjSF1bY0hdW2NIXVtjSF02KVtOSF1DKD1PKVtDQEBIXShbQ0gyXVtDSDJdQyg9TylbT0hdKVtOSF1DKD1PKVtDQEhdKE4xNylbQ0gyXVtDSDJdW0NIMl03

> <s_epik_cmdline>
J2VwaWtfYXBwJywgJy1pbWFlJywgJ2xpZ2FuZF9wcm8ubWFlJywgJy1vbWFlJywgJ2xpZ2FuZF9wcmVwLm1hZScsICctbXMnLCAnMScsICctcGgnLCAnNycsICctcGh0JywgJzAuNScsICctbnQn

> <s_epik_pKa_notes>
Molecule size exceeds maximum supported for generating protonation states

$$$$
