2r5p_ligand
                    3D
 Schrodinger Suite 2020-3.
 93 97  0  0  1  0            999 V2000
   26.4360   -8.3120   -1.5830 N   0  0  1  0  0  0
   27.9290   -8.3930   -1.5440 C   0  0  0  0  0  0
   28.4980   -9.5290   -2.4010 C   0  0  1  0  0  0
   30.0200   -9.5050   -2.2950 C   0  0  0  0  0  0
   30.5500   -9.8940   -1.2470 O   0  0  0  0  0  0
   30.6940   -9.0480   -3.3730 N   0  0  0  0  0  0
   32.1510   -8.9380   -3.5100 C   0  0  0  0  0  0
   32.3650   -8.3490   -4.9030 C   0  0  0  0  0  0
   32.7860  -10.3210   -3.4480 C   0  0  0  0  0  0
   32.7520   -7.9740   -2.4800 C   0  0  0  0  0  0
   27.8750  -10.8290   -1.8520 N   0  3  1  0  0  0
   26.3900  -10.8170   -1.9150 C   0  0  0  0  0  0
   25.8920   -9.6050   -1.1300 C   0  0  0  0  0  0
   28.3230  -12.0320   -2.6040 C   0  0  0  0  0  0
   28.6030  -13.2040   -1.6400 C   0  0  1  0  0  0
   28.2070  -14.3830   -2.3530 O   0  0  0  0  0  0
   30.0940  -13.3640   -1.2560 C   0  0  0  0  0  0
   30.3800  -14.5220   -0.2780 C   0  0  1  0  0  0
   31.9030  -14.6030    0.0040 C   0  0  0  0  0  0
   32.2710  -15.7110    0.9750 C   0  0  0  0  0  0
   31.9590  -17.0730    0.7120 C   0  0  0  0  0  0
   32.2940  -18.0880    1.6280 C   0  0  0  0  0  0
   32.9530  -17.7250    2.8300 C   0  0  0  0  0  0
   33.2690  -16.3760    3.1010 C   0  0  0  0  0  0
   32.9290  -15.3610    2.1760 C   0  0  0  0  0  0
   29.6300  -14.3110    1.0470 C   0  0  0  0  0  0
   29.5680  -13.2300    1.6440 O   0  0  0  0  0  0
   29.0600  -15.4200    1.5200 N   0  0  0  0  0  0
   28.6760  -15.6000    2.8800 C   0  0  2  0  0  0
   28.9850  -16.9600    3.4790 C   0  0  2  0  0  0
   28.8000  -18.0050    2.5130 O   0  0  0  0  0  0
   28.0110  -17.1060    4.6180 C   0  0  0  0  0  0
   26.7800  -16.3380    4.1890 C   0  0  0  0  0  0
   25.4220  -16.3750    4.6140 C   0  0  0  0  0  0
   24.4970  -15.5160    4.0040 C   0  0  0  0  0  0
   24.8650  -14.6250    2.9830 C   0  0  0  0  0  0
   26.2050  -14.5930    2.5660 C   0  0  0  0  0  0
   27.1900  -15.4310    3.1370 C   0  0  0  0  0  0
   25.9490   -7.1870   -0.7530 C   0  0  0  0  0  0
   26.3920   -5.7760   -1.0760 C   0  0  0  0  0  0
   25.9800   -5.1460   -2.2680 C   0  0  0  0  0  0
   26.3330   -3.8390   -2.6700 N   0  0  0  0  0  0
   27.1670   -3.2090   -1.7210 C   0  0  0  0  0  0
   27.6260   -3.7530   -0.5110 C   0  0  0  0  0  0
   27.2300   -5.0630   -0.1810 C   0  0  0  0  0  0
   28.3572   -7.4509   -1.9169 H   0  0  0  0  0  0
   28.2602   -8.5618   -0.5087 H   0  0  0  0  0  0
   28.2644   -9.4299   -3.4713 H   0  0  0  0  0  0
   30.0389   -8.7411   -4.2017 H   0  0  0  0  0  0
   31.9398   -9.0275   -5.6572 H   0  0  0  0  0  0
   33.4424   -8.2250   -5.0871 H   0  0  0  0  0  0
   31.8669   -7.3704   -4.9678 H   0  0  0  0  0  0
   32.3217  -10.9718   -4.2036 H   0  0  0  0  0  0
   32.6303  -10.7514   -2.4477 H   0  0  0  0  0  0
   33.8645  -10.2385   -3.6479 H   0  0  0  0  0  0
   32.2612   -6.9933   -2.5656 H   0  0  0  0  0  0
   33.8301   -7.8622   -2.6679 H   0  0  0  0  0  0
   32.5958   -8.3750   -1.4677 H   0  0  0  0  0  0
   28.1935  -10.9129   -0.8025 H   0  0  0  0  0  0
   26.0681  -10.7473   -2.9645 H   0  0  0  0  0  0
   25.9967  -11.7437   -1.4716 H   0  0  0  0  0  0
   26.1693   -9.7713   -0.0786 H   0  0  0  0  0  0
   24.7960   -9.5945   -1.2229 H   0  0  0  0  0  0
   27.5383  -12.3344   -3.3131 H   0  0  0  0  0  0
   29.2452  -11.7972   -3.1558 H   0  0  0  0  0  0
   28.0199  -13.0845   -0.7149 H   0  0  0  0  0  0
   27.1759  -14.4816   -2.7232 H   0  0  0  0  0  0
   30.6874  -13.5557   -2.1621 H   0  0  0  0  0  0
   30.4494  -12.4416   -0.7733 H   0  0  0  0  0  0
   30.0261  -15.4579   -0.7350 H   0  0  0  0  0  0
   32.4405  -14.7924   -0.9368 H   0  0  0  0  0  0
   32.2467  -13.6523    0.4376 H   0  0  0  0  0  0
   31.4511  -17.3360   -0.2159 H   0  0  0  0  0  0
   32.0522  -19.1299    1.4180 H   0  0  0  0  0  0
   33.2186  -18.4963    3.5529 H   0  0  0  0  0  0
   33.7781  -16.1149    4.0287 H   0  0  0  0  0  0
   33.1720  -14.3197    2.3873 H   0  0  0  0  0  0
   28.8903  -16.2247    0.7895 H   0  0  0  0  0  0
   29.3080  -14.7943    3.2817 H   0  0  0  0  0  0
   30.0350  -17.0809    3.7837 H   0  0  0  0  0  0
   29.4349  -18.0431    1.6156 H   0  0  0  0  0  0
   27.7880  -18.1716    4.7754 H   0  0  0  0  0  0
   28.4516  -16.6845    5.5335 H   0  0  0  0  0  0
   25.1064  -17.0600    5.4009 H   0  0  0  0  0  0
   23.4582  -15.5406    4.3331 H   0  0  0  0  0  0
   24.1244  -13.9708    2.5231 H   0  0  0  0  0  0
   26.4954  -13.8997    1.7766 H   0  0  0  0  0  0
   24.8509   -7.1439   -0.8017 H   0  0  0  0  0  0
   26.2641   -7.3376    0.2901 H   0  0  0  0  0  0
   25.3342   -5.7160   -2.9360 H   0  0  0  0  0  0
   27.4883   -2.1934   -1.9521 H   0  0  0  0  0  0
   28.2704   -3.1777    0.1538 H   0  0  0  0  0  0
   27.5628   -5.5230    0.7495 H   0  0  0  0  0  0
  1  2  1  0  0  0
  1 13  1  0  0  0
  1 39  1  0  0  0
  2  3  1  0  0  0
  2 46  1  0  0  0
  2 47  1  0  0  0
  3  4  1  0  0  0
  3 11  1  0  0  0
  3 48  1  0  0  0
  4  5  2  0  0  0
  4  6  1  0  0  0
  6  7  1  0  0  0
  6 49  1  0  0  0
  7  8  1  0  0  0
  7  9  1  0  0  0
  7 10  1  0  0  0
  8 50  1  0  0  0
  8 51  1  0  0  0
  8 52  1  0  0  0
  9 53  1  0  0  0
  9 54  1  0  0  0
  9 55  1  0  0  0
 10 56  1  0  0  0
 10 57  1  0  0  0
 10 58  1  0  0  0
 11 12  1  0  0  0
 11 14  1  0  0  0
 11 59  1  0  0  0
 12 13  1  0  0  0
 12 60  1  0  0  0
 12 61  1  0  0  0
 13 62  1  0  0  0
 13 63  1  0  0  0
 14 15  1  0  0  0
 14 64  1  0  0  0
 14 65  1  0  0  0
 15 16  1  0  0  0
 15 17  1  0  0  0
 15 66  1  0  0  0
 16 67  1  0  0  0
 17 18  1  0  0  0
 17 68  1  0  0  0
 17 69  1  0  0  0
 18 19  1  0  0  0
 18 26  1  0  0  0
 18 70  1  0  0  0
 19 20  1  0  0  0
 19 71  1  0  0  0
 19 72  1  0  0  0
 20 21  2  0  0  0
 20 25  1  0  0  0
 21 22  1  0  0  0
 21 73  1  0  0  0
 22 23  2  0  0  0
 22 74  1  0  0  0
 23 24  1  0  0  0
 23 75  1  0  0  0
 24 25  2  0  0  0
 24 76  1  0  0  0
 25 77  1  0  0  0
 26 27  2  0  0  0
 26 28  1  0  0  0
 28 29  1  0  0  0
 28 78  1  0  0  0
 29 30  1  0  0  0
 29 38  1  0  0  0
 29 79  1  0  0  0
 30 31  1  0  0  0
 30 32  1  0  0  0
 30 80  1  0  0  0
 31 81  1  0  0  0
 32 33  1  0  0  0
 32 82  1  0  0  0
 32 83  1  0  0  0
 33 34  2  0  0  0
 33 38  1  0  0  0
 34 35  1  0  0  0
 34 84  1  0  0  0
 35 36  2  0  0  0
 35 85  1  0  0  0
 36 37  1  0  0  0
 36 86  1  0  0  0
 37 38  2  0  0  0
 37 87  1  0  0  0
 39 40  1  0  0  0
 39 88  1  0  0  0
 39 89  1  0  0  0
 40 41  2  0  0  0
 40 45  1  0  0  0
 41 42  1  0  0  0
 41 90  1  0  0  0
 42 43  2  0  0  0
 43 44  1  0  0  0
 43 91  1  0  0  0
 44 45  2  0  0  0
 44 92  1  0  0  0
 45 93  1  0  0  0
M  CHG  1  11   1
M  END
> <s_m_source_file>
../2r5p_ligand.sdf

> <i_m_source_file_index>
1

> <s_epik_input>
W2NIXTFbY0hdW2NIXW5bY0hdYzFbQ0gyXVtOQEgrXTJbQ0gyXVtDQEBIXShDKD1PKVtOSF1DKFtDSDNdKShbQ0gzXSlbQ0gzXSlbTkBASCtdKFtDSDJdW0NIMl0yKVtDSDJdW0NAQEhdKFtPSF0pW0NIMl1bQ0BASF0oW0NIMl1jM1tjSF1bY0hdW2NIXVtjSF1bY0hdMylDKD1PKVtOSF1bQ0BIXShbQ0BIXShbT0hdKVtDSDJdNCljKGM0NSlbY0hdW2NIXVtjSF1bY0hdNQ==

> <s_epik_cmdline>
J2VwaWtfYXBwJywgJy1pbWFlJywgJ2xpZ2FuZF9wcm8ubWFlJywgJy1vbWFlJywgJ2xpZ2FuZF9wcmVwLm1hZScsICctbXMnLCAnMScsICctcGgnLCAnNycsICctcGh0JywgJzAuNScsICctbnQn

> <r_epik_Ionization_Penalty>
  0.1676

> <r_epik_Ionization_Penalty_Charging>
  0.1567

> <r_epik_Ionization_Penalty_Neutral>
  0.0108

> <r_epik_State_Penalty>
  0.3908

> <r_epik_Charging_Adjusted_Penalty>
0.547583055920383

> <i_epik_Tot_Q>
1

> <i_epik_Tot_abs_Q>
1

$$$$
