2r5q_ligand
                    3D
 Schrodinger Suite 2020-3.
 86 89  0  0  1  0            999 V2000
   25.3670   -9.4850   -1.7570 C   0  0  2  0  0  0
   26.0470   -8.1590   -2.3020 C   0  0  1  0  0  0
   25.4380   -6.9210   -1.6360 C   0  0  0  0  0  0
   25.5090   -7.0440   -0.1030 C   0  0  0  0  0  0
   24.7820   -8.3180    0.3890 C   0  0  0  0  0  0
   25.4630   -9.6100   -0.2020 C   0  0  0  0  0  0
   27.5140  -10.7540   -2.2070 N   0  3  1  0  0  0
   28.1670   -9.5150   -2.7770 C   0  0  1  0  0  0
   27.5930   -8.2540   -2.0820 C   0  0  0  0  0  0
   26.0260  -10.7300   -2.4520 C   0  0  0  0  0  0
   29.6410   -9.5200   -2.5070 C   0  0  0  0  0  0
   30.3510   -9.0880   -3.5820 N   0  0  0  0  0  0
   31.8560   -8.9720   -3.6520 C   0  0  0  0  0  0
   32.4080   -7.9710   -2.5870 C   0  0  0  0  0  0
   32.4980  -10.3710   -3.3860 C   0  0  0  0  0  0
   32.1850   -8.4300   -5.0720 C   0  0  0  0  0  0
   30.0580   -9.8910   -1.3970 O   0  0  0  0  0  0
   27.9940  -12.0010   -2.8510 C   0  0  0  0  0  0
   27.9040  -13.1280   -1.8020 C   0  0  2  0  0  0
   29.0600  -13.2110   -0.7860 C   0  0  1  0  0  0
   27.8300  -14.3240   -2.5950 O   0  0  0  0  0  0
   28.6740  -14.3140    0.1150 N   0  0  0  0  0  0
   30.4050  -13.6150   -1.3630 C   0  0  0  0  0  0
   28.3240  -14.0030    1.4170 C   0  0  0  0  0  0
   28.3310  -12.8290    1.8460 O   0  0  0  0  0  0
   27.9320  -15.1160    2.2760 C   0  0  0  0  0  0
   28.8540  -16.1590    2.5100 C   0  0  0  0  0  0
   28.5430  -17.2690    3.3290 C   0  0  0  0  0  0
   27.2740  -17.3320    3.9240 C   0  0  0  0  0  0
   26.3320  -16.3010    3.7070 C   0  0  0  0  0  0
   26.6260  -15.1700    2.8830 C   0  0  0  0  0  0
   25.0790  -16.3880    4.3080 O   0  0  0  0  0  0
   25.5570  -14.1080    2.7040 C   0  0  0  0  0  0
   31.7250  -13.2730   -0.1890 S   0  0  0  0  0  0
   32.0040  -14.7430    0.6910 C   0  0  0  0  0  0
   32.3970  -14.6050    2.0460 C   0  0  0  0  0  0
   32.6390  -15.7870    2.7910 C   0  0  0  0  0  0
   32.4890  -17.0570    2.1800 C   0  0  0  0  0  0
   32.0950  -17.1820    0.8210 C   0  0  0  0  0  0
   31.8510  -16.0040    0.0720 C   0  0  0  0  0  0
   24.2931   -9.4521   -1.9927 H   0  0  0  0  0  0
   25.8541   -8.0216   -3.3762 H   0  0  0  0  0  0
   25.9945   -6.0252   -1.9489 H   0  0  0  0  0  0
   24.3849   -6.8226   -1.9383 H   0  0  0  0  0  0
   26.5616   -7.0962    0.2123 H   0  0  0  0  0  0
   25.0313   -6.1668    0.3578 H   0  0  0  0  0  0
   24.8251   -8.3637    1.4872 H   0  0  0  0  0  0
   23.7314   -8.2893    0.0642 H   0  0  0  0  0  0
   24.9368  -10.5186    0.1260 H   0  0  0  0  0  0
   26.5200   -9.6706    0.0964 H   0  0  0  0  0  0
   27.7740  -10.7657   -1.1382 H   0  0  0  0  0  0
   27.9923   -9.5270   -3.8630 H   0  0  0  0  0  0
   28.0789   -7.3622   -2.5045 H   0  0  0  0  0  0
   27.8072   -8.3125   -1.0046 H   0  0  0  0  0  0
   25.5847  -11.6525   -2.0466 H   0  0  0  0  0  0
   25.8456  -10.6829   -3.5361 H   0  0  0  0  0  0
   29.7369   -8.8102   -4.4513 H   0  0  0  0  0  0
   32.1799   -8.3461   -1.5784 H   0  0  0  0  0  0
   31.9353   -6.9878   -2.7282 H   0  0  0  0  0  0
   33.4974   -7.8743   -2.7046 H   0  0  0  0  0  0
   32.2359  -10.7079   -2.3722 H   0  0  0  0  0  0
   33.5917  -10.2956   -3.4761 H   0  0  0  0  0  0
   32.1184  -11.0946   -4.1224 H   0  0  0  0  0  0
   31.7113   -7.4466   -5.2079 H   0  0  0  0  0  0
   31.8015   -9.1295   -5.8294 H   0  0  0  0  0  0
   33.2749   -8.3305   -5.1831 H   0  0  0  0  0  0
   27.3600  -12.2326   -3.7196 H   0  0  0  0  0  0
   29.0343  -11.8658   -3.1820 H   0  0  0  0  0  0
   27.0099  -13.0120   -1.1718 H   0  0  0  0  0  0
   29.1958  -12.2292   -0.3089 H   0  0  0  0  0  0
   27.0554  -14.4232   -3.3697 H   0  0  0  0  0  0
   28.6699  -15.3501   -0.2544 H   0  0  0  0  0  0
   30.3986  -14.6915   -1.5889 H   0  0  0  0  0  0
   30.5932  -13.0477   -2.2865 H   0  0  0  0  0  0
   29.8380  -16.1070    2.0441 H   0  0  0  0  0  0
   29.2746  -18.0599    3.4947 H   0  0  0  0  0  0
   27.0133  -18.1804    4.5568 H   0  0  0  0  0  0
   24.8334  -17.2502    4.9455 H   0  0  0  0  0  0
   25.9375  -13.3118    2.0472 H   0  0  0  0  0  0
   25.2961  -13.6816    3.6839 H   0  0  0  0  0  0
   24.6626  -14.5607    2.2512 H   0  0  0  0  0  0
   32.5097  -13.6210    2.5010 H   0  0  0  0  0  0
   32.9411  -15.7187    3.8361 H   0  0  0  0  0  0
   32.6800  -17.9566    2.7651 H   0  0  0  0  0  0
   31.9825  -18.1648    0.3632 H   0  0  0  0  0  0
   31.5478  -16.0701   -0.9729 H   0  0  0  0  0  0
  1  2  1  0  0  0
  1  6  1  0  0  0
  1 10  1  0  0  0
  1 41  1  0  0  0
  2  3  1  0  0  0
  2  9  1  0  0  0
  2 42  1  0  0  0
  3  4  1  0  0  0
  3 43  1  0  0  0
  3 44  1  0  0  0
  4  5  1  0  0  0
  4 45  1  0  0  0
  4 46  1  0  0  0
  5  6  1  0  0  0
  5 47  1  0  0  0
  5 48  1  0  0  0
  6 49  1  0  0  0
  6 50  1  0  0  0
  7  8  1  0  0  0
  7 10  1  0  0  0
  7 18  1  0  0  0
  7 51  1  0  0  0
  8  9  1  0  0  0
  8 11  1  0  0  0
  8 52  1  0  0  0
  9 53  1  0  0  0
  9 54  1  0  0  0
 10 55  1  0  0  0
 10 56  1  0  0  0
 11 12  1  0  0  0
 11 17  2  0  0  0
 12 13  1  0  0  0
 12 57  1  0  0  0
 13 14  1  0  0  0
 13 15  1  0  0  0
 13 16  1  0  0  0
 14 58  1  0  0  0
 14 59  1  0  0  0
 14 60  1  0  0  0
 15 61  1  0  0  0
 15 62  1  0  0  0
 15 63  1  0  0  0
 16 64  1  0  0  0
 16 65  1  0  0  0
 16 66  1  0  0  0
 18 19  1  0  0  0
 18 67  1  0  0  0
 18 68  1  0  0  0
 19 20  1  0  0  0
 19 21  1  0  0  0
 19 69  1  0  0  0
 20 22  1  0  0  0
 20 23  1  0  0  0
 20 70  1  0  0  0
 21 71  1  0  0  0
 22 24  1  0  0  0
 22 72  1  0  0  0
 23 34  1  0  0  0
 23 73  1  0  0  0
 23 74  1  0  0  0
 24 25  2  0  0  0
 24 26  1  0  0  0
 26 27  2  0  0  0
 26 31  1  0  0  0
 27 28  1  0  0  0
 27 75  1  0  0  0
 28 29  2  0  0  0
 28 76  1  0  0  0
 29 30  1  0  0  0
 29 77  1  0  0  0
 30 31  2  0  0  0
 30 32  1  0  0  0
 31 33  1  0  0  0
 32 78  1  0  0  0
 33 79  1  0  0  0
 33 80  1  0  0  0
 33 81  1  0  0  0
 34 35  1  0  0  0
 35 36  2  0  0  0
 35 40  1  0  0  0
 36 37  1  0  0  0
 36 82  1  0  0  0
 37 38  2  0  0  0
 37 83  1  0  0  0
 38 39  1  0  0  0
 38 84  1  0  0  0
 39 40  2  0  0  0
 39 85  1  0  0  0
 40 86  1  0  0  0
M  CHG  1   7   1
M  END
> <s_m_source_file>
../2r5q_ligand.sdf

> <i_m_source_file_index>
1

> <s_epik_input>
W0NIMl0xW0NIMl1bQ0gyXVtDSDJdW0NASF0oW0NASF0xMilbQ0gyXVtDQEBIXShDKD1PKVtOSF1DKFtDSDNdKShbQ0gzXSlbQ0gzXSlbTkBASCtdKFtDSDJdMilbQ0gyXVtDQEBIXShbT0hdKVtDQEhdKFtDSDJdU2MzW2NIXVtjSF1bY0hdW2NIXVtjSF0zKVtOSF1DKD1PKWM0W2NIXVtjSF1bY0hdYyhbT0hdKWM0W0NIM10=

> <s_epik_cmdline>
J2VwaWtfYXBwJywgJy1pbWFlJywgJ2xpZ2FuZF9wcm8ubWFlJywgJy1vbWFlJywgJ2xpZ2FuZF9wcmVwLm1hZScsICctbXMnLCAnMScsICctcGgnLCAnNycsICctcGh0JywgJzAuNScsICctbnQn

> <r_lp_tautomer_probability>
0.999999999997365

> <r_epik_Ionization_Penalty>
  0.0194

> <r_epik_Ionization_Penalty_Charging>
  0.0175

> <r_epik_Ionization_Penalty_Neutral>
  0.0019

> <r_epik_State_Penalty>
  0.0138

> <r_epik_Charging_Adjusted_Penalty>
0.0313186340146469

> <i_epik_Tot_Q>
1

> <i_epik_Tot_abs_Q>
1

$$$$
