2r64_ligand
                    3D
 Schrodinger Suite 2020-3.
 58 62  0  0  1  0            999 V2000
   21.7670   24.6660   31.7320 C   0  0  0  0  0  0
   22.0340   24.4640   30.3280 C   0  0  0  0  0  0
   22.0410   25.6070   29.4420 C   0  0  0  0  0  0
   21.7830   26.9100   29.9790 C   0  0  0  0  0  0
   21.5270   27.0670   31.3500 C   0  0  0  0  0  0
   21.5200   25.9660   32.2080 C   0  0  0  0  0  0
   21.7860   28.1370   29.1090 C   0  0  0  0  0  0
   23.2150   28.5100   28.6300 C   0  0  0  0  0  0
   23.5810   29.7760   29.0000 N   0  0  0  0  0  0
   24.7840   30.6260   28.7700 C   0  0  0  0  0  0
   24.9740   31.8610   29.2320 N   0  0  0  0  0  0
   26.1680   32.3580   28.8290 N   0  0  0  0  0  0
   26.8640   31.4720   28.0570 C   0  0  0  0  0  0
   28.1020   31.5090   27.4200 C   0  0  0  0  0  0
   28.5290   30.3880   26.6720 C   0  0  0  0  0  0
   27.6950   29.2180   26.5670 C   0  0  0  0  0  0
   26.4310   29.1860   27.2270 C   0  0  0  0  0  0
   25.9830   30.2860   27.9770 C   0  0  0  0  0  0
   28.1370   28.1460   25.8210 N   0  0  0  0  0  0
   28.0940   26.7420   26.2350 C   0  0  0  0  0  0
   23.8670   27.7140   27.9690 O   0  0  0  0  0  0
   28.7030   25.8780   25.0780 C   0  0  0  0  0  0
   28.7820   28.3250   24.3640 S   0  0  0  0  0  0
   28.6480   26.6540   23.7610 C   0  0  0  0  0  0
   27.9140   29.2550   23.5530 O   0  0  0  0  0  0
   30.1920   28.7150   24.6960 O   0  0  0  0  0  0
   22.6640   23.6190   33.8460 C   0  0  0  0  0  0
   21.7360   23.5880   32.6520 N   0  0  0  0  0  0
   20.7450   22.4980   32.4320 C   0  0  0  0  0  0
   20.9930   21.2160   33.2600 C   0  0  0  0  0  0
   21.3620   21.5880   34.7040 C   0  0  0  0  0  0
   22.7280   22.3020   34.6820 C   0  0  0  0  0  0
   22.2277   23.4637   29.9408 H   0  0  0  0  0  0
   22.2402   25.4787   28.3781 H   0  0  0  0  0  0
   21.3311   28.0618   31.7500 H   0  0  0  0  0  0
   21.3190   26.1170   33.2686 H   0  0  0  0  0  0
   21.1628   27.9580   28.2204 H   0  0  0  0  0  0
   21.3813   28.9889   29.6751 H   0  0  0  0  0  0
   28.7350   32.3930   27.4974 H   0  0  0  0  0  0
   29.4967   30.4090   26.1708 H   0  0  0  0  0  0
   25.8050   28.2971   27.1485 H   0  0  0  0  0  0
   28.6819   26.6131   27.1557 H   0  0  0  0  0  0
   27.0510   26.4465   26.4216 H   0  0  0  0  0  0
   29.7503   25.6370   25.3126 H   0  0  0  0  0  0
   28.1270   24.9467   24.9736 H   0  0  0  0  0  0
   29.4862   26.3460   23.1187 H   0  0  0  0  0  0
   27.6973   26.4420   23.2499 H   0  0  0  0  0  0
   23.6907   23.8215   33.5072 H   0  0  0  0  0  0
   22.3436   24.4110   34.5389 H   0  0  0  0  0  0
   19.7400   22.8569   32.6986 H   0  0  0  0  0  0
   20.7585   22.1982   31.3737 H   0  0  0  0  0  0
   20.0809   20.6012   33.2660 H   0  0  0  0  0  0
   21.8181   20.6435   32.8112 H   0  0  0  0  0  0
   20.5925   22.2558   35.1186 H   0  0  0  0  0  0
   21.4221   20.6746   35.3140 H   0  0  0  0  0  0
   23.4716   21.6227   34.2397 H   0  0  0  0  0  0
   23.0169   22.5382   35.7168 H   0  0  0  0  0  0
   24.2043   32.3395   29.8554 H   0  0  0  0  0  0
  1  2  2  0  0  0
  1  6  1  0  0  0
  1 28  1  0  0  0
  2  3  1  0  0  0
  2 33  1  0  0  0
  3  4  2  0  0  0
  3 34  1  0  0  0
  4  5  1  0  0  0
  4  7  1  0  0  0
  5  6  2  0  0  0
  5 35  1  0  0  0
  6 36  1  0  0  0
  7  8  1  0  0  0
  7 37  1  0  0  0
  7 38  1  0  0  0
  8  9  1  0  0  0
  8 21  2  0  0  0
  9 10  2  0  0  0
 10 11  1  0  0  0
 10 18  1  0  0  0
 11 12  1  0  0  0
 11 58  1  0  0  0
 12 13  1  0  0  0
 13 14  1  0  0  0
 13 18  2  0  0  0
 14 15  2  0  0  0
 14 39  1  0  0  0
 15 16  1  0  0  0
 15 40  1  0  0  0
 16 17  2  0  0  0
 16 19  1  0  0  0
 17 18  1  0  0  0
 17 41  1  0  0  0
 19 20  1  0  0  0
 19 23  1  0  0  0
 20 22  1  0  0  0
 20 42  1  0  0  0
 20 43  1  0  0  0
 22 24  1  0  0  0
 22 44  1  0  0  0
 22 45  1  0  0  0
 23 24  1  0  0  0
 23 25  2  0  0  0
 23 26  2  0  0  0
 24 46  1  0  0  0
 24 47  1  0  0  0
 27 28  1  0  0  0
 27 32  1  0  0  0
 27 48  1  0  0  0
 27 49  1  0  0  0
 28 29  1  0  0  0
 29 30  1  0  0  0
 29 50  1  0  0  0
 29 51  1  0  0  0
 30 31  1  0  0  0
 30 52  1  0  0  0
 30 53  1  0  0  0
 31 32  1  0  0  0
 31 54  1  0  0  0
 31 55  1  0  0  0
 32 56  1  0  0  0
 32 57  1  0  0  0
M  END
> <s_m_source_file>
../2r64_ligand.sdf

> <i_m_source_file_index>
1

> <s_epik_input>
W0NIMl0xW0NIMl1bQ0gyXVtDSDJdW0NIMl1OMWMyW2NIXVtjSF1jKFtjSF1bY0hdMilbQ0gyXUMoPU8pW05IXWMobltuSF0zKWMoYzM0KVtjSF1jKFtjSF1bY0hdNClOKFM1KD1PKT1PKVtDSDJdW0NIMl1bQ0gyXTU=

> <s_epik_cmdline>
J2VwaWtfYXBwJywgJy1pbWFlJywgJ2xpZ2FuZF9wcm8ubWFlJywgJy1vbWFlJywgJ2xpZ2FuZF9wcmVwLm1hZScsICctbXMnLCAnMScsICctcGgnLCAnNycsICctcGh0JywgJzAuNScsICctbnQn

> <r_epik_Ionization_Penalty>
  0.0469

> <r_epik_Ionization_Penalty_Charging>
  0.0000

> <r_epik_Ionization_Penalty_Neutral>
  0.0469

> <r_epik_State_Penalty>
  0.0399

> <r_epik_Charging_Adjusted_Penalty>
0.0399125287158621

> <i_epik_Tot_Q>
0

> <i_epik_Tot_abs_Q>
0

$$$$
