2r6f_ligand
                    3D
 Schrodinger Suite 2020-3.
 39 41  0  0  1  0            999 V2000
   54.0190   25.8980   18.7280 P   0  0  0  0  0  0
   54.4010   25.9550   17.2750 O   0  0  0  0  0  0
   54.7880   24.8710   19.5160 O   0  5  0  0  0  0
   52.5280   25.8310   18.9460 O   0  5  0  0  0  0
   54.0040   27.9220   20.6980 P   0  0  2  0  0  0
   54.5520   27.0240   21.7760 O   0  5  0  0  0  0
   52.5190   28.1360   20.6120 O   0  0  0  0  0  0
   54.5240   27.3310   19.2930 O   0  0  0  0  0  0
   54.6120   29.4070   20.8520 O   0  0  0  0  0  0
   55.9830   29.7100   20.6090 C   0  0  0  0  0  0
   56.6700   30.4510   21.7670 C   0  0  1  0  0  0
   55.7380   31.0470   22.6770 O   0  0  0  0  0  0
   57.5190   29.5170   22.6160 C   0  0  1  0  0  0
   58.7210   30.1740   23.0160 O   0  0  0  0  0  0
   56.6800   29.2380   23.8360 C   0  0  1  0  0  0
   57.4630   28.8990   24.9780 O   0  0  0  0  0  0
   55.9810   30.5660   24.0100 C   0  0  2  0  0  0
   54.7470   30.4150   24.8200 N   0  0  0  0  0  0
   53.6030   29.8100   24.4440 C   0  0  0  0  0  0
   52.6830   29.8590   25.4420 N   0  0  0  0  0  0
   53.2450   30.5090   26.4740 C   0  0  0  0  0  0
   52.8340   30.9110   27.8290 C   0  0  0  0  0  0
   51.6010   30.6170   28.2880 N   0  0  0  0  0  0
   53.7250   31.5720   28.5960 N   0  0  0  0  0  0
   54.9600   31.8760   28.1580 C   0  0  0  0  0  0
   55.3940   31.5410   26.9300 N   0  0  0  0  0  0
   54.6020   30.8700   26.0610 C   0  0  0  0  0  0
   56.5408   28.7767   20.4424 H   0  0  0  0  0  0
   56.0648   30.3500   19.7181 H   0  0  0  0  0  0
   57.2520   31.2665   21.3128 H   0  0  0  0  0  0
   57.8537   28.6136   22.0851 H   0  0  0  0  0  0
   59.4677   30.4620   22.2613 H   0  0  0  0  0  0
   56.0338   28.3503   23.7688 H   0  0  0  0  0  0
   58.0307   27.9570   24.9957 H   0  0  0  0  0  0
   56.5734   31.3259   24.5407 H   0  0  0  0  0  0
   53.4385   29.3450   23.4720 H   0  0  0  0  0  0
   50.8894   30.0771   27.6460 H   0  0  0  0  0  0
   51.3065   30.9170   29.3045 H   0  0  0  0  0  0
   55.6346   32.4143   28.8237 H   0  0  0  0  0  0
  1  2  2  0  0  0
  1  3  1  0  0  0
  1  4  1  0  0  0
  1  8  1  0  0  0
  5  6  1  0  0  0
  5  7  2  0  0  0
  5  8  1  0  0  0
  5  9  1  0  0  0
  9 10  1  0  0  0
 10 11  1  0  0  0
 10 28  1  0  0  0
 10 29  1  0  0  0
 11 12  1  0  0  0
 11 13  1  0  0  0
 11 30  1  0  0  0
 12 17  1  0  0  0
 13 14  1  0  0  0
 13 15  1  0  0  0
 13 31  1  0  0  0
 14 32  1  0  0  0
 15 16  1  0  0  0
 15 17  1  0  0  0
 15 33  1  0  0  0
 16 34  1  0  0  0
 17 18  1  0  0  0
 17 35  1  0  0  0
 18 19  1  0  0  0
 18 27  1  0  0  0
 19 20  2  0  0  0
 19 36  1  0  0  0
 20 21  1  0  0  0
 21 22  2  0  0  0
 21 27  1  0  0  0
 22 23  1  0  0  0
 22 24  1  0  0  0
 23 37  1  0  0  0
 23 38  1  0  0  0
 24 25  2  0  0  0
 25 26  1  0  0  0
 25 39  1  0  0  0
 26 27  2  0  0  0
M  CHG  3   3  -1   4  -1   6  -1
M  END
> <s_m_source_file>
../2r6f_ligand.sdf

> <i_m_source_file_index>
1

> <s_epik_input>
Tz1QKFtPSF0pKFtPSF0pT1tQQEBdKD1PKShbT0hdKU9bQ0gyXVtDQEhdMU9bQ0BIXShbQ0BIXShbT0hdKVtDQEBIXTFbT0hdKW4oW2NIXW4yKWMoYzIzKW5bY0hdbmMzW05IMl0=

> <s_epik_cmdline>
J2VwaWtfYXBwJywgJy1pbWFlJywgJ2xpZ2FuZF9wcm8ubWFlJywgJy1vbWFlJywgJ2xpZ2FuZF9wcmVwLm1hZScsICctbXMnLCAnMScsICctcGgnLCAnNycsICctcGh0JywgJzAuNScsICctbnQn

> <r_lp_tautomer_probability>
0.999997216410988

> <r_epik_Ionization_Penalty>
  0.1037

> <r_epik_Ionization_Penalty_Charging>
  0.1033

> <r_epik_Ionization_Penalty_Neutral>
  0.0004

> <r_epik_State_Penalty>
  0.0922

> <r_epik_Charging_Adjusted_Penalty>
0.19546844050481

> <i_epik_Tot_Q>
-3

> <i_epik_Tot_abs_Q>
3

> <s_epik_Chemistry_Notes>
This compound contains an acetal/aminal-like group ( X-CH(R)-Y where X, Y are N, S, or O) that may be acid/base labile, releasing an aldehyde.

$$$$
