2r6n_ligand
                    3D
 Schrodinger Suite 2020-3.
 64 68  0  0  1  0            999 V2000
   33.9090    6.1450    4.3440 C   0  0  0  0  0  0
   32.9670    5.2600    3.5470 C   0  0  0  0  0  0
   31.5300    5.7630    3.6800 C   0  0  0  0  0  0
   30.9080    6.5130    2.6310 C   0  0  0  0  0  0
   29.5670    6.9870    2.7730 C   0  0  0  0  0  0
   28.7880    6.7290    3.9740 C   0  0  0  0  0  0
   26.4370    6.4620    4.9320 C   0  0  0  0  0  0
   25.7600    5.2740    4.2010 C   0  0  0  0  0  0
   26.7800    7.5600    2.7650 C   0  0  0  0  0  0
   34.1100    9.5590    2.6960 C   0  0  0  0  0  0
   35.0440    9.7910    0.3380 C   0  0  0  0  0  0
   24.4700    4.5800    2.2630 C   0  0  0  0  0  0
   36.6600    8.4150    7.2380 N   0  0  0  0  0  0
   35.9060    7.2490    7.1470 C   0  0  0  0  0  0
   35.2010    6.9700    6.0050 C   0  0  0  0  0  0
   35.2680    7.8490    4.9920 C   0  0  0  0  0  0
   35.9930    8.9950    5.0400 N   0  0  0  0  0  0
   36.6810    9.2720    6.1670 C   0  0  0  0  0  0
   34.3440    5.8550    5.6460 C   0  0  0  0  0  0
   34.4810    7.3710    3.9320 N   0  0  0  0  0  0
   38.1180   10.8050    7.3000 N   0  0  0  0  0  0
   29.4380    5.9720    5.0160 C   0  0  0  0  0  0
   30.7770    5.5020    4.8700 C   0  0  0  0  0  0
   27.4050    7.2390    4.1020 N   0  0  0  0  0  0
   25.1030    5.7290    2.9480 N   0  3  0  0  0  0
   26.1150    6.3520    2.0600 C   0  0  0  0  0  0
   34.2620    8.0060    2.6060 C   0  0  0  0  0  0
   35.4370    7.6380    1.6550 C   0  0  0  0  0  0
   35.2450    8.2620    0.2500 C   0  0  0  0  0  0
   33.8800   10.1490    1.2870 C   0  0  0  0  0  0
   37.4580   10.5120    6.2390 C   0  0  0  0  0  0
   33.2574    5.2771    2.4862 H   0  0  0  0  0  0
   33.0238    4.2290    3.9261 H   0  0  0  0  0  0
   31.4618    6.7243    1.7163 H   0  0  0  0  0  0
   29.1164    7.5566    1.9602 H   0  0  0  0  0  0
   25.6672    7.1720    5.2688 H   0  0  0  0  0  0
   26.9956    6.0868    5.8022 H   0  0  0  0  0  0
   26.5186    4.5184    3.9488 H   0  0  0  0  0  0
   24.9994    4.8253    4.8569 H   0  0  0  0  0  0
   25.9981    8.3220    2.8993 H   0  0  0  0  0  0
   27.5522    7.9435    2.0819 H   0  0  0  0  0  0
   33.2511    9.8068    3.3371 H   0  0  0  0  0  0
   35.0252    9.9927    3.1253 H   0  0  0  0  0  0
   35.9632   10.2603    0.7185 H   0  0  0  0  0  0
   34.8159   10.1890   -0.6618 H   0  0  0  0  0  0
   23.7215    4.1239    2.9276 H   0  0  0  0  0  0
   25.2387    3.8348    2.0105 H   0  0  0  0  0  0
   23.9794    4.9273    1.3418 H   0  0  0  0  0  0
   35.8759    6.5549    7.9869 H   0  0  0  0  0  0
   34.0938    4.9851    6.2533 H   0  0  0  0  0  0
   38.1027   10.1232    8.1631 H   0  0  0  0  0  0
   28.8940    5.7544    5.9351 H   0  0  0  0  0  0
   31.2356    4.9337    5.6792 H   0  0  0  0  0  0
   24.3236    6.4670    3.1887 H   0  0  0  0  0  0
   25.6218    6.6919    1.1374 H   0  0  0  0  0  0
   26.8827    5.6044    1.8114 H   0  0  0  0  0  0
   33.3104    7.5846    2.2497 H   0  0  0  0  0  0
   36.3813    8.0127    2.0769 H   0  0  0  0  0  0
   35.4922    6.5448    1.5464 H   0  0  0  0  0  0
   34.3626    7.8026   -0.2194 H   0  0  0  0  0  0
   36.1375    8.0437   -0.3549 H   0  0  0  0  0  0
   32.9470    9.7442    0.8678 H   0  0  0  0  0  0
   33.8062   11.2444    1.3557 H   0  0  0  0  0  0
   37.4733   11.1938    5.3759 H   0  0  0  0  0  0
  1  2  1  0  0  0
  1 19  2  0  0  0
  1 20  1  0  0  0
  2  3  1  0  0  0
  2 32  1  0  0  0
  2 33  1  0  0  0
  3  4  2  0  0  0
  3 23  1  0  0  0
  4  5  1  0  0  0
  4 34  1  0  0  0
  5  6  2  0  0  0
  5 35  1  0  0  0
  6 22  1  0  0  0
  6 24  1  0  0  0
  7  8  1  0  0  0
  7 24  1  0  0  0
  7 36  1  0  0  0
  7 37  1  0  0  0
  8 25  1  0  0  0
  8 38  1  0  0  0
  8 39  1  0  0  0
  9 24  1  0  0  0
  9 26  1  0  0  0
  9 40  1  0  0  0
  9 41  1  0  0  0
 10 27  1  0  0  0
 10 30  1  0  0  0
 10 42  1  0  0  0
 10 43  1  0  0  0
 11 29  1  0  0  0
 11 30  1  0  0  0
 11 44  1  0  0  0
 11 45  1  0  0  0
 12 25  1  0  0  0
 12 46  1  0  0  0
 12 47  1  0  0  0
 12 48  1  0  0  0
 13 14  1  0  0  0
 13 18  2  0  0  0
 14 15  2  0  0  0
 14 49  1  0  0  0
 15 16  1  0  0  0
 15 19  1  0  0  0
 16 17  2  0  0  0
 16 20  1  0  0  0
 17 18  1  0  0  0
 18 31  1  0  0  0
 19 50  1  0  0  0
 20 27  1  0  0  0
 21 31  2  0  0  0
 21 51  1  0  0  0
 22 23  2  0  0  0
 22 52  1  0  0  0
 23 53  1  0  0  0
 25 26  1  0  0  0
 25 54  1  0  0  0
 26 55  1  0  0  0
 26 56  1  0  0  0
 27 28  1  0  0  0
 27 57  1  0  0  0
 28 29  1  0  0  0
 28 58  1  0  0  0
 28 59  1  0  0  0
 29 60  1  0  0  0
 29 61  1  0  0  0
 30 62  1  0  0  0
 30 63  1  0  0  0
 31 64  1  0  0  0
M  CHG  1  25   1
M  END
> <s_m_source_file>
../2r6n_ligand.sdf

> <i_m_source_file_index>
1

> <s_epik_input>
W0NIMl0xW0NIMl1bQ0gyXVtDSDJdW0NIMl1bQ0hdMW4oYyhjMjMpbmMobltjSF0yKS9bQ0hdPU5cW0hdKWMoW2NIXTMpW0NIMl1jNFtjSF1bY0hdYyhbY0hdW2NIXTQpTjVbQ0gyXVtDSDJdW05IK10oW0NIM10pW0NIMl1bQ0gyXTU=

> <s_epik_cmdline>
J2VwaWtfYXBwJywgJy1pbWFlJywgJ2xpZ2FuZF9wcm8ubWFlJywgJy1vbWFlJywgJ2xpZ2FuZF9wcmVwLm1hZScsICctbXMnLCAnMScsICctcGgnLCAnNycsICctcGh0JywgJzAuNScsICctbnQn

> <r_epik_Ionization_Penalty>
  0.0539

> <r_epik_Ionization_Penalty_Charging>
  0.0534

> <r_epik_Ionization_Penalty_Neutral>
  0.0005

> <r_epik_State_Penalty>
  0.0459

> <r_epik_Charging_Adjusted_Penalty>
0.0992541545514987

> <i_epik_Tot_Q>
1

> <i_epik_Tot_abs_Q>
1

> <s_epik_Chemistry_Notes>
This compound has an imine and may undergo hydrolysis.

$$$$
