2r6w_ligand
                    3D
 Schrodinger Suite 2020-3.
 65 69  0  0  1  0            999 V2000
   10.7080   53.3480   59.6360 C   0  0  0  0  0  0
   10.2010   54.6090   60.1340 C   0  0  0  0  0  0
    8.7920   54.8130   60.2910 C   0  0  0  0  0  0
   11.7390   56.6550   71.3940 C   0  0  0  0  0  0
   13.2350   53.9520   59.7510 C   0  0  0  0  0  0
   14.1970   55.0950   63.7940 C   0  0  0  0  0  0
   14.8140   55.7760   62.7110 C   0  0  0  0  0  0
   14.4950   55.3920   61.3700 C   0  0  0  0  0  0
   15.2480   56.4120   65.4630 C   0  0  0  0  0  0
   13.8880   54.4290   58.8390 O   0  0  0  0  0  0
   12.1240   53.0060   59.4430 C   0  0  0  0  0  0
   12.2990   51.6840   58.9650 C   0  0  0  0  0  0
   13.6050   51.0450   58.6540 C   0  0  0  0  0  0
   14.6140   50.9770   59.6100 C   0  0  0  0  0  0
   15.8550   50.3780   59.2780 C   0  0  0  0  0  0
   16.0650   49.8660   57.9880 C   0  0  0  0  0  0
   17.2630   49.2760   57.6190 O   0  0  0  0  0  0
   15.0450   49.9230   57.0100 C   0  0  0  0  0  0
   13.8060   50.5260   57.3600 C   0  0  0  0  0  0
   10.7740   50.9350   58.7570 S   0  0  0  0  0  0
    9.8470   52.3010   59.2910 C   0  0  0  0  0  0
    8.4540   52.4840   59.4420 C   0  0  0  0  0  0
    7.9420   53.7470   59.9390 C   0  0  0  0  0  0
    6.5930   53.8990   60.0350 O   0  0  0  0  0  0
   13.5620   54.3280   61.1600 C   0  0  0  0  0  0
   13.2770   54.0730   63.5960 C   0  0  0  0  0  0
   12.9500   53.6820   62.2850 C   0  0  0  0  0  0
   14.4150   55.3460   65.1190 O   0  0  0  0  0  0
   15.4330   56.3180   66.9750 C   0  0  0  0  0  0
   14.3510   56.6080   67.9170 N   0  3  1  0  0  0
   13.5420   55.3660   68.1680 C   0  0  0  0  0  0
   12.4690   55.4960   69.2680 C   0  0  0  0  0  0
   12.9630   56.2400   70.5520 C   0  0  1  0  0  0
   13.7750   57.4960   70.2600 C   0  0  0  0  0  0
   14.8430   57.2060   69.1970 C   0  0  0  0  0  0
   10.8959   55.4084   60.3912 H   0  0  0  0  0  0
    8.3939   55.7552   60.6677 H   0  0  0  0  0  0
   11.1319   55.7663   71.6211 H   0  0  0  0  0  0
   11.1331   57.3783   70.8285 H   0  0  0  0  0  0
   12.0792   57.1164   72.3328 H   0  0  0  0  0  0
   15.5228   56.5824   62.8993 H   0  0  0  0  0  0
   14.9549   55.9013   60.5231 H   0  0  0  0  0  0
   16.2079   56.3124   64.9350 H   0  0  0  0  0  0
   14.7684   57.3595   65.1762 H   0  0  0  0  0  0
   14.4509   51.3822   60.6087 H   0  0  0  0  0  0
   16.6466   50.3149   60.0247 H   0  0  0  0  0  0
   18.0881   49.2068   58.3432 H   0  0  0  0  0  0
   15.2049   49.5145   56.0122 H   0  0  0  0  0  0
   13.0062   50.5871   56.6220 H   0  0  0  0  0  0
    7.7660   51.6783   59.1857 H   0  0  0  0  0  0
    6.1712   54.8440   60.4079 H   0  0  0  0  0  0
   12.8126   53.5784   64.4492 H   0  0  0  0  0  0
   12.2267   52.8828   62.1229 H   0  0  0  0  0  0
   15.7204   55.2914   67.2461 H   0  0  0  0  0  0
   16.2223   57.0155   67.2919 H   0  0  0  0  0  0
   13.7246   57.3728   67.4347 H   0  0  0  0  0  0
   13.0141   55.0798   67.2464 H   0  0  0  0  0  0
   14.2107   54.5489   68.4763 H   0  0  0  0  0  0
   11.6090   56.0592   68.8766 H   0  0  0  0  0  0
   12.1398   54.4937   69.5794 H   0  0  0  0  0  0
   13.6320   55.5555   71.0940 H   0  0  0  0  0  0
   13.1063   58.2871   69.8900 H   0  0  0  0  0  0
   14.2696   57.8355   71.1820 H   0  0  0  0  0  0
   15.5639   56.5217   69.6681 H   0  0  0  0  0  0
   15.3336   58.1680   68.9876 H   0  0  0  0  0  0
  1  2  2  0  0  0
  1 11  1  0  0  0
  1 21  1  0  0  0
  2  3  1  0  0  0
  2 36  1  0  0  0
  3 23  2  0  0  0
  3 37  1  0  0  0
  4 33  1  0  0  0
  4 38  1  0  0  0
  4 39  1  0  0  0
  4 40  1  0  0  0
  5 10  2  0  0  0
  5 11  1  0  0  0
  5 25  1  0  0  0
  6  7  2  0  0  0
  6 26  1  0  0  0
  6 28  1  0  0  0
  7  8  1  0  0  0
  7 41  1  0  0  0
  8 25  2  0  0  0
  8 42  1  0  0  0
  9 28  1  0  0  0
  9 29  1  0  0  0
  9 43  1  0  0  0
  9 44  1  0  0  0
 11 12  2  0  0  0
 12 13  1  0  0  0
 12 20  1  0  0  0
 13 14  2  0  0  0
 13 19  1  0  0  0
 14 15  1  0  0  0
 14 45  1  0  0  0
 15 16  2  0  0  0
 15 46  1  0  0  0
 16 17  1  0  0  0
 16 18  1  0  0  0
 17 47  1  0  0  0
 18 19  2  0  0  0
 18 48  1  0  0  0
 19 49  1  0  0  0
 20 21  1  0  0  0
 21 22  2  0  0  0
 22 23  1  0  0  0
 22 50  1  0  0  0
 23 24  1  0  0  0
 24 51  1  0  0  0
 25 27  1  0  0  0
 26 27  2  0  0  0
 26 52  1  0  0  0
 27 53  1  0  0  0
 29 30  1  0  0  0
 29 54  1  0  0  0
 29 55  1  0  0  0
 30 31  1  0  0  0
 30 35  1  0  0  0
 30 56  1  0  0  0
 31 32  1  0  0  0
 31 57  1  0  0  0
 31 58  1  0  0  0
 32 33  1  0  0  0
 32 59  1  0  0  0
 32 60  1  0  0  0
 33 34  1  0  0  0
 33 61  1  0  0  0
 34 35  1  0  0  0
 34 62  1  0  0  0
 34 63  1  0  0  0
 35 64  1  0  0  0
 35 65  1  0  0  0
M  CHG  1  30   1
M  END
> <s_m_source_file>
../2r6w_ligand.sdf

> <i_m_source_file_index>
1

> <s_epik_input>
W2NIXTFbY0hdYyhbT0hdKVtjSF1jKGMxMilzYygtYzNbY0hdW2NIXWMoW09IXSlbY0hdW2NIXTMpYzJDKD1PKWMoW2NIXVtjSF00KVtjSF1bY0hdYzRPW0NIMl1bQ0gyXVtOQEgrXTVbQ0gyXVtDSDJdW0NASF0oW0NIM10pW0NIMl1bQ0gyXTU=

> <s_epik_cmdline>
J2VwaWtfYXBwJywgJy1pbWFlJywgJ2xpZ2FuZF9wcm8ubWFlJywgJy1vbWFlJywgJ2xpZ2FuZF9wcmVwLm1hZScsICctbXMnLCAnMScsICctcGgnLCAnNycsICctcGh0JywgJzAuNScsICctbnQn

> <r_lp_tautomer_probability>
1

> <r_epik_Ionization_Penalty>
  0.0170

> <r_epik_Ionization_Penalty_Charging>
  0.0081

> <r_epik_Ionization_Penalty_Neutral>
  0.0089

> <r_epik_State_Penalty>
 -0.0000

> <r_epik_Charging_Adjusted_Penalty>
0.0080671095608545

> <i_epik_Tot_Q>
1

> <i_epik_Tot_abs_Q>
1

$$$$
