2r6y_ligand
                    3D
 Schrodinger Suite 2020-3.
 59 63  0  0  1  0            999 V2000
   12.1520   -0.5100   28.6560 C   0  0  0  0  0  0
   13.3830   -0.0040   29.0190 C   0  0  0  0  0  0
   14.4350    0.0280   28.0800 C   0  0  0  0  0  0
   14.2680   -0.4430   26.7780 C   0  0  0  0  0  0
    8.1750   -4.2560   25.9620 C   0  0  0  0  0  0
    6.0080   -3.1600   26.2430 C   0  0  0  0  0  0
   11.5270   -4.1330   24.8220 C   0  0  0  0  0  0
   10.9130   -3.3480   23.8520 C   0  0  0  0  0  0
   11.0730   -3.5860   22.5040 C   0  0  0  0  0  0
   13.0610   -5.9040   18.9130 C   0  0  0  0  0  0
   12.2090   -6.1380   16.6850 C   0  0  0  0  0  0
   12.0270   -4.2520   27.1140 O   0  0  0  0  0  0
   11.3070   -3.7800   26.2460 C   0  0  0  0  0  0
   12.3540   -5.2150   24.4220 C   0  0  0  0  0  0
   12.4960   -5.4500   23.0670 C   0  0  0  0  0  0
   11.8710   -4.6640   22.1070 C   0  0  0  0  0  0
   11.9720   -4.8700   20.7670 O   0  0  0  0  0  0
   12.7740   -6.0140   20.4290 C   0  0  0  0  0  0
   11.8240   -6.0700   18.1060 N   0  3  0  0  0  0
   10.9500   -4.8990   18.2650 C   0  0  0  0  0  0
   10.3840   -4.5120   16.8640 C   0  0  0  0  0  0
   11.0000   -5.5610   15.8950 C   0  0  0  0  0  0
   10.2560   -2.7790   26.5780 C   0  0  0  0  0  0
    8.8230   -3.0590   26.4270 C   0  0  0  0  0  0
    6.7840   -4.2440   25.8530 C   0  0  0  0  0  0
    4.6500   -3.1750   26.1640 O   0  0  0  0  0  0
    6.6170   -1.9870   26.7010 C   0  0  0  0  0  0
    7.9810   -1.9540   26.7760 C   0  0  0  0  0  0
    9.1040   -0.6720   27.3110 S   0  0  0  0  0  0
   10.6250   -1.5300   27.0440 C   0  0  0  0  0  0
   11.9670   -0.9910   27.3430 C   0  0  0  0  0  0
   13.0290   -0.9510   26.4060 C   0  0  0  0  0  0
   15.6340    0.5200   28.5000 O   0  0  0  0  0  0
   11.3329   -0.5377   29.3746 H   0  0  0  0  0  0
   13.5424    0.3706   30.0301 H   0  0  0  0  0  0
   15.0929   -0.4133   26.0662 H   0  0  0  0  0  0
    8.7520   -5.1438   25.7031 H   0  0  0  0  0  0
   10.2838   -2.5162   24.1687 H   0  0  0  0  0  0
   10.5887   -2.9487   21.7641 H   0  0  0  0  0  0
   13.4887   -4.9150   18.6916 H   0  0  0  0  0  0
   13.7750   -6.6868   18.6172 H   0  0  0  0  0  0
   13.1168   -5.5386   16.5220 H   0  0  0  0  0  0
   12.4058   -7.1842   16.4081 H   0  0  0  0  0  0
   12.8600   -5.8395   25.1582 H   0  0  0  0  0  0
   13.1205   -6.2815   22.7403 H   0  0  0  0  0  0
   12.2345   -6.9507   20.6330 H   0  0  0  0  0  0
   13.7241   -6.0099   20.9833 H   0  0  0  0  0  0
   11.2903   -6.9754   18.4306 H   0  0  0  0  0  0
   10.1246   -5.1476   18.9484 H   0  0  0  0  0  0
   11.5304   -4.0619   18.6803 H   0  0  0  0  0  0
    9.2855   -4.5664   16.8845 H   0  0  0  0  0  0
   10.6957   -3.4874   16.6129 H   0  0  0  0  0  0
   11.3573   -5.1030   14.9609 H   0  0  0  0  0  0
   10.2952   -6.3720   15.6595 H   0  0  0  0  0  0
    6.2851   -5.1227   25.4444 H   0  0  0  0  0  0
    4.1296   -4.0768   25.8091 H   0  0  0  0  0  0
    6.0195   -1.1224   26.9903 H   0  0  0  0  0  0
   12.8741   -1.3192   25.3918 H   0  0  0  0  0  0
   15.7472    0.8872   29.5307 H   0  0  0  0  0  0
  1  2  2  0  0  0
  1 31  1  0  0  0
  1 34  1  0  0  0
  2  3  1  0  0  0
  2 35  1  0  0  0
  3  4  2  0  0  0
  3 33  1  0  0  0
  4 32  1  0  0  0
  4 36  1  0  0  0
  5 24  2  0  0  0
  5 25  1  0  0  0
  5 37  1  0  0  0
  6 25  2  0  0  0
  6 26  1  0  0  0
  6 27  1  0  0  0
  7  8  2  0  0  0
  7 13  1  0  0  0
  7 14  1  0  0  0
  8  9  1  0  0  0
  8 38  1  0  0  0
  9 16  2  0  0  0
  9 39  1  0  0  0
 10 18  1  0  0  0
 10 19  1  0  0  0
 10 40  1  0  0  0
 10 41  1  0  0  0
 11 19  1  0  0  0
 11 22  1  0  0  0
 11 42  1  0  0  0
 11 43  1  0  0  0
 12 13  2  0  0  0
 13 23  1  0  0  0
 14 15  2  0  0  0
 14 44  1  0  0  0
 15 16  1  0  0  0
 15 45  1  0  0  0
 16 17  1  0  0  0
 17 18  1  0  0  0
 18 46  1  0  0  0
 18 47  1  0  0  0
 19 20  1  0  0  0
 19 48  1  0  0  0
 20 21  1  0  0  0
 20 49  1  0  0  0
 20 50  1  0  0  0
 21 22  1  0  0  0
 21 51  1  0  0  0
 21 52  1  0  0  0
 22 53  1  0  0  0
 22 54  1  0  0  0
 23 24  1  0  0  0
 23 30  2  0  0  0
 24 28  1  0  0  0
 25 55  1  0  0  0
 26 56  1  0  0  0
 27 28  2  0  0  0
 27 57  1  0  0  0
 28 29  1  0  0  0
 29 30  1  0  0  0
 30 31  1  0  0  0
 31 32  2  0  0  0
 32 58  1  0  0  0
 33 59  1  0  0  0
M  CHG  1  19   1
M  END
> <s_m_source_file>
../2r6y_ligand.sdf

> <i_m_source_file_index>
1

> <s_epik_input>
W2NIXTFbY0hdYyhbT0hdKVtjSF1jKGMxMilzYygtYyhbY0hdW2NIXTMpW2NIXVtjSF1jM1tPSF0pYzJDKD1PKWM0W2NIXVtjSF1jKFtjSF1bY0hdNClPW0NIMl1bQ0gyXVtOSCtdNVtDSDJdW0NIMl1bQ0gyXVtDSDJdNQ==

> <s_epik_cmdline>
J2VwaWtfYXBwJywgJy1pbWFlJywgJ2xpZ2FuZF9wcm8ubWFlJywgJy1vbWFlJywgJ2xpZ2FuZF9wcmVwLm1hZScsICctbXMnLCAnMScsICctcGgnLCAnNycsICctcGh0JywgJzAuNScsICctbnQn

> <r_lp_tautomer_probability>
1

> <r_epik_Ionization_Penalty>
  0.0172

> <r_epik_Ionization_Penalty_Charging>
  0.0083

> <r_epik_Ionization_Penalty_Neutral>
  0.0089

> <r_epik_State_Penalty>
 -0.0000

> <r_epik_Charging_Adjusted_Penalty>
0.00828855470925701

> <i_epik_Tot_Q>
1

> <i_epik_Tot_abs_Q>
1

$$$$
