2r7b_ligand
                    3D
 Schrodinger Suite 2020-3.
 43 46  0  0  1  0            999 V2000
   89.2630   14.0150   15.0910 C   0  0  0  0  0  0
   88.8500   15.1850   14.4000 O   0  0  0  0  0  0
   87.4970   15.2430   14.0130 C   0  0  0  0  0  0
   86.8760   16.5210   14.0490 C   0  0  0  0  0  0
   87.6900   17.5970   14.4460 O   0  0  0  0  0  0
   87.5050   18.8260   13.7300 C   0  0  0  0  0  0
   85.5190   16.6530   13.6820 C   0  0  0  0  0  0
   84.7230   15.5570   13.2280 C   0  0  0  0  0  0
   83.3200   15.5550   12.7690 C   0  0  0  0  0  0
   82.4100   16.7270   12.7570 C   0  0  0  0  0  0
   81.0950   16.4920   12.1440 C   0  0  0  0  0  0
   80.7210   15.2520   11.6430 N   0  0  0  0  0  0
   80.1260   17.5320   12.0520 C   0  0  0  0  0  0
   78.8180   17.1560   11.3820 C   0  0  0  0  0  0
   80.4050   18.8140   12.5860 C   0  0  0  0  0  0
   79.4900   19.8150   12.5380 N   0  0  0  0  0  0
   81.6500   19.0590   13.1980 C   0  0  0  0  0  0
   82.6170   18.0500   13.2710 C   0  0  0  0  0  0
   82.7980   14.2810   12.2650 C   0  0  0  0  0  0
   81.4970   14.1750   11.7140 C   0  0  0  0  0  0
   80.9580   13.0530   11.2210 N   0  0  0  0  0  0
   83.5560   13.0820   12.2830 C   0  0  0  0  0  0
   84.8210   13.1080   12.7470 N   0  0  0  0  0  0
   85.4120   14.2620   13.1900 C   0  0  0  0  0  0
   86.7430   14.1260   13.5840 C   0  0  0  0  0  0
   90.3326   14.0921   15.3358 H   0  0  0  0  0  0
   89.0953   13.1343   14.4536 H   0  0  0  0  0  0
   88.6810   13.9124   16.0187 H   0  0  0  0  0  0
   88.1917   19.5883   14.1266 H   0  0  0  0  0  0
   86.4668   19.1686   13.8518 H   0  0  0  0  0  0
   87.7146   18.6635   12.6625 H   0  0  0  0  0  0
   85.0568   17.6379   13.7482 H   0  0  0  0  0  0
   78.8607   16.1056   11.0581 H   0  0  0  0  0  0
   78.6547   17.8031   10.5076 H   0  0  0  0  0  0
   77.9902   17.2866   12.0946 H   0  0  0  0  0  0
   78.5120   19.6439   12.0645 H   0  0  0  0  0  0
   79.7263   20.7975   12.9726 H   0  0  0  0  0  0
   81.8618   20.0423   13.6180 H   0  0  0  0  0  0
   83.5731   18.2805   13.7409 H   0  0  0  0  0  0
   79.9368   13.0668   10.8123 H   0  0  0  0  0  0
   81.5363   12.1173   11.2246 H   0  0  0  0  0  0
   83.1198   12.1494   11.9252 H   0  0  0  0  0  0
   87.2103   13.1415   13.5609 H   0  0  0  0  0  0
  1  2  1  0  0  0
  1 26  1  0  0  0
  1 27  1  0  0  0
  1 28  1  0  0  0
  2  3  1  0  0  0
  3  4  2  0  0  0
  3 25  1  0  0  0
  4  5  1  0  0  0
  4  7  1  0  0  0
  5  6  1  0  0  0
  6 29  1  0  0  0
  6 30  1  0  0  0
  6 31  1  0  0  0
  7  8  2  0  0  0
  7 32  1  0  0  0
  8  9  1  0  0  0
  8 24  1  0  0  0
  9 10  2  0  0  0
  9 19  1  0  0  0
 10 11  1  0  0  0
 10 18  1  0  0  0
 11 12  2  0  0  0
 11 13  1  0  0  0
 12 20  1  0  0  0
 13 14  1  0  0  0
 13 15  2  0  0  0
 14 33  1  0  0  0
 14 34  1  0  0  0
 14 35  1  0  0  0
 15 16  1  0  0  0
 15 17  1  0  0  0
 16 36  1  0  0  0
 16 37  1  0  0  0
 17 18  2  0  0  0
 17 38  1  0  0  0
 18 39  1  0  0  0
 19 20  2  0  0  0
 19 22  1  0  0  0
 20 21  1  0  0  0
 21 40  1  0  0  0
 21 41  1  0  0  0
 22 23  2  0  0  0
 22 42  1  0  0  0
 23 24  1  0  0  0
 24 25  2  0  0  0
 25 43  1  0  0  0
M  END
> <s_m_source_file>
../2r7b_ligand.sdf

> <i_m_source_file_index>
1

> <s_epik_input>
W0NIM11PYyhbY0hdMSljKE9bQ0gzXSlbY0hdYzJuW2NIXWMzYyhbTkgyXSluYyhjNGMzYzEyKWMoW0NIM10pYyhbTkgyXSlbY0hdW2NIXTQ=

> <s_epik_cmdline>
J2VwaWtfYXBwJywgJy1pbWFlJywgJ2xpZ2FuZF9wcm8ubWFlJywgJy1vbWFlJywgJ2xpZ2FuZF9wcmVwLm1hZScsICctbXMnLCAnMScsICctcGgnLCAnNycsICctcGh0JywgJzAuNScsICctbnQn

> <r_epik_Ionization_Penalty>
  0.0376

> <r_epik_Ionization_Penalty_Charging>
  0.0000

> <r_epik_Ionization_Penalty_Neutral>
  0.0376

> <r_epik_State_Penalty>
  0.0296

> <r_epik_Charging_Adjusted_Penalty>
0.0295689600889517

> <i_epik_Tot_Q>
0

> <i_epik_Tot_abs_Q>
0

$$$$
