2r7g_ligand
                    3D
 Schrodinger Suite 2020-3.
169172  0  0  1  0            999 V2000
  -13.1290    1.6730    9.8840 N   0  3  0  0  0  0
  -11.9810    0.8150    9.6020 C   0  0  2  0  0  0
  -12.0730   -0.4650   10.4210 C   0  0  0  0  0  0
  -12.8690   -0.5240   11.3510 O   0  0  0  0  0  0
  -10.7710    1.6520   10.0720 C   0  0  0  0  0  0
  -11.3000    3.0130   10.3300 C   0  0  0  0  0  0
  -12.7440    2.8130   10.7250 C   0  0  0  0  0  0
  -11.2530   -1.4810   10.0900 N   0  0  0  0  0  0
  -11.2050   -2.7170   10.8830 C   0  0  2  0  0  0
  -10.6750   -2.3890   12.2700 C   0  0  0  0  0  0
  -10.1060   -1.3150   12.4620 O   0  0  0  0  0  0
  -10.1520   -3.5740   10.1590 C   0  0  0  0  0  0
   -9.9540   -2.9620    8.8430 C   0  0  0  0  0  0
  -10.3070   -1.5070    8.9590 C   0  0  0  0  0  0
  -10.8390   -3.2960   13.2270 N   0  0  0  0  0  0
  -10.2320   -3.0810   14.5450 C   0  0  2  0  0  0
   -8.7110   -3.2330   14.4710 C   0  0  0  0  0  0
   -8.1730   -3.8790   13.5700 O   0  0  0  0  0  0
  -10.7290   -4.0810   15.5970 C   0  0  2  0  0  0
  -10.4070   -5.4020   15.1710 O   0  0  0  0  0  0
  -12.2440   -3.9550   15.7880 C   0  0  0  0  0  0
   -8.0320   -2.6380   15.4390 N   0  0  0  0  0  0
   -6.5910   -2.8160   15.5600 C   0  0  2  0  0  0
   -6.3100   -4.2940   15.8380 C   0  0  0  0  0  0
   -5.3520   -4.8330   15.3250 O   0  0  0  0  0  0
   -6.0430   -1.9170   16.6630 C   0  0  0  0  0  0
   -6.0060   -0.4010   16.4230 C   0  0  0  0  0  0
   -7.3360    0.1720   16.0160 C   0  0  0  0  0  0
   -5.5870    0.3160   17.6870 C   0  0  0  0  0  0
   -7.1660   -4.9500   16.6220 N   0  0  0  0  0  0
   -7.0160   -6.3950   16.8640 C   0  0  2  0  0  0
   -6.9760   -7.1920   15.5350 C   0  0  0  0  0  0
   -6.1260   -8.0780   15.3520 O   0  0  0  0  0  0
   -8.1170   -6.9100   17.8030 C   0  0  0  0  0  0
   -7.8240   -6.7040   19.2600 C   0  0  0  0  0  0
   -7.9160   -5.4750   19.8780 N   0  0  0  0  0  0
   -7.3870   -7.5690   20.2080 C   0  0  0  0  0  0
   -7.5910   -5.6000   21.1540 C   0  0  0  0  0  0
   -7.2540   -6.8590   21.3780 N   0  0  0  0  0  0
   -7.8490   -6.8530   14.5970 N   0  0  0  0  0  0
   -7.8380   -7.5170   13.2810 C   0  0  2  0  0  0
   -6.5780   -7.2110   12.4930 C   0  0  0  0  0  0
   -6.0230   -8.0910   11.8460 O   0  0  0  0  0  0
   -9.0280   -7.0750   12.4350 C   0  0  0  0  0  0
  -10.3490   -7.6550   12.8250 C   0  0  0  0  0  0
  -11.4470   -6.9530   12.0700 C   0  0  0  0  0  0
  -11.6970   -7.3320   10.9060 O   0  0  0  0  0  0
  -12.0270   -5.9960   12.6320 O   0  0  0  0  0  0
   -6.1490   -5.9480   12.5290 N   0  0  0  0  0  0
   -5.0300   -5.4880   11.7160 C   0  0  2  0  0  0
   -3.7310   -6.1090   12.1970 C   0  0  0  0  0  0
   -2.7930   -6.2450   11.4160 O   0  0  0  0  0  0
   -4.9430   -3.9500   11.7310 C   0  0  0  0  0  0
   -6.0100   -3.2020   10.8930 C   0  0  0  0  0  0
   -6.1670   -1.7820   11.4060 C   0  0  0  0  0  0
   -5.6820   -3.1710    9.4010 C   0  0  0  0  0  0
   -3.6940   -6.5060   13.4780 N   0  0  0  0  0  0
   -2.4620   -7.0590   14.0680 C   0  0  2  0  0  0
   -2.5790   -8.5300   14.4590 C   0  0  0  0  0  0
   -1.7490   -9.0550   15.2110 O   0  0  0  0  0  0
   -1.9810   -6.1780   15.2260 C   0  0  0  0  0  0
   -1.4460   -4.8900   14.6920 C   0  0  0  0  0  0
   -2.2800   -3.7920   14.5390 C   0  0  0  0  0  0
   -0.1190   -4.7790   14.2760 C   0  0  0  0  0  0
   -1.8090   -2.5940   13.9780 C   0  0  0  0  0  0
    0.3710   -3.5760   13.7170 C   0  0  0  0  0  0
   -0.4800   -2.5020   13.5810 C   0  0  0  0  0  0
   -0.0130   -1.3340   13.0590 O   0  0  0  0  0  0
   -3.6000   -9.1950   13.9220 N   0  0  0  0  0  0
   -3.8320  -10.6260   14.1860 C   0  0  2  0  0  0
   -3.8410  -10.9270   15.7010 C   0  0  0  0  0  0
   -3.2190  -11.8870   16.1730 O   0  0  0  0  0  0
   -2.8230  -11.5010   13.4210 C   0  0  0  0  0  0
   -2.9470  -11.3690   11.8970 C   0  0  0  0  0  0
   -3.8890  -10.7180   11.4130 O   0  0  0  0  0  0
   -2.1150  -11.9490   11.1640 O   0  0  0  0  0  0
   -4.5730  -10.1010   16.4450 N   0  0  0  0  0  0
   -4.6820  -10.2060   17.9060 C   0  0  2  0  0  0
   -6.0540  -10.7530   18.3460 C   0  0  0  0  0  0
   -7.0490  -10.6280   17.6060 O   0  0  0  0  0  0
   -4.4530   -8.8240   18.5310 C   0  0  0  0  0  0
   -3.0340   -8.3290   18.8610 C   0  0  0  0  0  0
   -1.9000   -9.1180   18.2280 C   0  0  0  0  0  0
   -2.8710   -6.8310   18.6650 C   0  0  0  0  0  0
   -6.1769  -11.3619   19.5220 O   0  0  0  0  0  0
  -13.5409    2.0567    8.9389 H   0  0  0  0  0  0
  -13.9002    1.0921   10.4110 H   0  0  0  0  0  0
  -11.9607    0.5341    8.5387 H   0  0  0  0  0  0
  -10.3499    1.2069   10.9855 H   0  0  0  0  0  0
  -10.0046    1.6638    9.2830 H   0  0  0  0  0  0
  -10.7224    3.4835   11.1393 H   0  0  0  0  0  0
  -11.2125    3.6197    9.4166 H   0  0  0  0  0  0
  -13.3818    3.6768   10.4861 H   0  0  0  0  0  0
  -12.8700    2.5460   11.7846 H   0  0  0  0  0  0
  -12.2012   -3.1758   10.9674 H   0  0  0  0  0  0
   -9.2170   -3.5730   10.7385 H   0  0  0  0  0  0
  -10.5222   -4.6053   10.0621 H   0  0  0  0  0  0
   -8.9032   -3.0779    8.5391 H   0  0  0  0  0  0
  -10.6051   -3.4563    8.1070 H   0  0  0  0  0  0
  -10.8034   -1.1203    8.0568 H   0  0  0  0  0  0
   -9.4353   -0.8791    9.1955 H   0  0  0  0  0  0
  -11.4272   -4.2053   13.0341 H   0  0  0  0  0  0
  -10.5442   -2.0574   14.7996 H   0  0  0  0  0  0
  -10.2103   -3.9357   16.5561 H   0  0  0  0  0  0
   -9.3593   -5.6790   14.9824 H   0  0  0  0  0  0
  -12.4885   -2.9341   16.1168 H   0  0  0  0  0  0
  -12.5788   -4.6753   16.5489 H   0  0  0  0  0  0
  -12.7524   -4.1651   14.8354 H   0  0  0  0  0  0
   -8.5699   -2.0023   16.1577 H   0  0  0  0  0  0
   -6.1290   -2.5133   14.6088 H   0  0  0  0  0  0
   -6.6486   -2.0422   17.5727 H   0  0  0  0  0  0
   -4.9997   -2.1927   16.8762 H   0  0  0  0  0  0
   -5.2953   -0.2316   15.6006 H   0  0  0  0  0  0
   -7.6821   -0.3221   15.0962 H   0  0  0  0  0  0
   -7.2300    1.2518   15.8346 H   0  0  0  0  0  0
   -8.0684    0.0053   16.8196 H   0  0  0  0  0  0
   -4.6144   -0.0723   18.0235 H   0  0  0  0  0  0
   -6.3401    0.1477   18.4709 H   0  0  0  0  0  0
   -5.5017    1.3941   17.4859 H   0  0  0  0  0  0
   -7.9931   -4.3968   17.0908 H   0  0  0  0  0  0
   -6.0454   -6.5016   17.3705 H   0  0  0  0  0  0
   -9.0595   -6.3864   17.5848 H   0  0  0  0  0  0
   -8.2539   -7.9906   17.6496 H   0  0  0  0  0  0
   -7.1473   -8.6423   20.1857 H   0  0  0  0  0  0
   -7.5995   -4.8008   21.8952 H   0  0  0  0  0  0
   -8.5876   -6.0661   14.8099 H   0  0  0  0  0  0
   -7.8828   -8.5892   13.5225 H   0  0  0  0  0  0
   -9.1387   -5.9825   12.5004 H   0  0  0  0  0  0
   -8.8606   -7.3645   11.3871 H   0  0  0  0  0  0
  -10.3645   -8.7278   12.5822 H   0  0  0  0  0  0
  -10.5034   -7.5214   13.9059 H   0  0  0  0  0  0
  -12.8338   -5.4595   12.1112 H   0  0  0  0  0  0
   -6.6676   -5.2460   13.1986 H   0  0  0  0  0  0
   -5.2380   -5.8440   10.6962 H   0  0  0  0  0  0
   -5.0550   -3.5865   12.7631 H   0  0  0  0  0  0
   -3.9666   -3.6341   11.3349 H   0  0  0  0  0  0
   -6.9619   -3.7425   11.0014 H   0  0  0  0  0  0
   -6.4031   -1.8042   12.4801 H   0  0  0  0  0  0
   -6.9825   -1.2835   10.8615 H   0  0  0  0  0  0
   -5.2291   -1.2293   11.2481 H   0  0  0  0  0  0
   -5.5682   -4.2000    9.0292 H   0  0  0  0  0  0
   -4.7441   -2.6183    9.2432 H   0  0  0  0  0  0
   -6.4975   -2.6725    8.8566 H   0  0  0  0  0  0
   -4.6033   -6.4132   14.0900 H   0  0  0  0  0  0
   -1.7241   -7.0275   13.2528 H   0  0  0  0  0  0
   -2.8230   -5.9699   15.9026 H   0  0  0  0  0  0
   -1.1867   -6.7008   15.7791 H   0  0  0  0  0  0
   -3.3194   -3.8605   14.8600 H   0  0  0  0  0  0
    0.5503   -5.6326   14.3835 H   0  0  0  0  0  0
   -2.4797   -1.7436   13.8549 H   0  0  0  0  0  0
    1.4103   -3.4998   13.3975 H   0  0  0  0  0  0
   -0.6879   -0.4725   12.9478 H   0  0  0  0  0  0
   -4.2824   -8.6399   13.2616 H   0  0  0  0  0  0
   -4.8368  -10.8340   13.7896 H   0  0  0  0  0  0
   -1.7996  -11.2088   13.6989 H   0  0  0  0  0  0
   -2.9851  -12.5581   13.6785 H   0  0  0  0  0  0
   -2.1917  -11.8631   10.0700 H   0  0  0  0  0  0
   -5.1138   -9.3073   15.9087 H   0  0  0  0  0  0
   -3.8989  -10.9179   18.2059 H   0  0  0  0  0  0
   -4.8445   -8.0475   17.8574 H   0  0  0  0  0  0
   -4.9747   -8.7678   19.4978 H   0  0  0  0  0  0
   -2.9207   -8.5277   19.9370 H   0  0  0  0  0  0
   -2.0626  -10.1928   18.3962 H   0  0  0  0  0  0
   -0.9449   -8.8161   18.6826 H   0  0  0  0  0  0
   -1.8716   -8.9162   17.1470 H   0  0  0  0  0  0
   -3.7131   -6.3054   19.1390 H   0  0  0  0  0  0
   -2.8543   -6.6016   17.5893 H   0  0  0  0  0  0
   -1.9276   -6.5016   19.1248 H   0  0  0  0  0  0
   -7.1547  -11.7535   19.8391 H   0  0  0  0  0  0
  1  2  1  0  0  0
  1  7  1  0  0  0
  1 86  1  0  0  0
  1 87  1  0  0  0
  2  3  1  0  0  0
  2  5  1  0  0  0
  2 88  1  0  0  0
  3  4  2  0  0  0
  3  8  1  0  0  0
  5  6  1  0  0  0
  5 89  1  0  0  0
  5 90  1  0  0  0
  6  7  1  0  0  0
  6 91  1  0  0  0
  6 92  1  0  0  0
  7 93  1  0  0  0
  7 94  1  0  0  0
  8  9  1  0  0  0
  8 14  1  0  0  0
  9 10  1  0  0  0
  9 12  1  0  0  0
  9 95  1  0  0  0
 10 11  2  0  0  0
 10 15  1  0  0  0
 12 13  1  0  0  0
 12 96  1  0  0  0
 12 97  1  0  0  0
 13 14  1  0  0  0
 13 98  1  0  0  0
 13 99  1  0  0  0
 14100  1  0  0  0
 14101  1  0  0  0
 15 16  1  0  0  0
 15102  1  0  0  0
 16 19  1  0  0  0
 16 17  1  0  0  0
 16103  1  0  0  0
 17 18  2  0  0  0
 17 22  1  0  0  0
 19 21  1  0  0  0
 19 20  1  0  0  0
 19104  1  0  0  0
 20105  1  0  0  0
 21106  1  0  0  0
 21107  1  0  0  0
 21108  1  0  0  0
 22 23  1  0  0  0
 22109  1  0  0  0
 23 26  1  0  0  0
 23 24  1  0  0  0
 23110  1  0  0  0
 24 25  2  0  0  0
 24 30  1  0  0  0
 26 27  1  0  0  0
 26111  1  0  0  0
 26112  1  0  0  0
 27 28  1  0  0  0
 27 29  1  0  0  0
 27113  1  0  0  0
 28114  1  0  0  0
 28115  1  0  0  0
 28116  1  0  0  0
 29117  1  0  0  0
 29118  1  0  0  0
 29119  1  0  0  0
 30 31  1  0  0  0
 30120  1  0  0  0
 31 34  1  0  0  0
 31 32  1  0  0  0
 31121  1  0  0  0
 32 33  2  0  0  0
 32 40  1  0  0  0
 34 35  1  0  0  0
 34122  1  0  0  0
 34123  1  0  0  0
 35 36  2  0  0  0
 35 37  1  0  0  0
 36 38  1  0  0  0
 37 39  2  0  0  0
 37124  1  0  0  0
 38 39  1  0  0  0
 38125  1  0  0  0
 40 41  1  0  0  0
 40126  1  0  0  0
 41 44  1  0  0  0
 41 42  1  0  0  0
 41127  1  0  0  0
 42 43  2  0  0  0
 42 49  1  0  0  0
 44 45  1  0  0  0
 44128  1  0  0  0
 44129  1  0  0  0
 45 46  1  0  0  0
 45130  1  0  0  0
 45131  1  0  0  0
 46 48  1  0  0  0
 46 47  2  0  0  0
 48132  1  0  0  0
 49 50  1  0  0  0
 49133  1  0  0  0
 50 53  1  0  0  0
 50 51  1  0  0  0
 50134  1  0  0  0
 51 52  2  0  0  0
 51 57  1  0  0  0
 53 54  1  0  0  0
 53135  1  0  0  0
 53136  1  0  0  0
 54 55  1  0  0  0
 54 56  1  0  0  0
 54137  1  0  0  0
 55138  1  0  0  0
 55139  1  0  0  0
 55140  1  0  0  0
 56141  1  0  0  0
 56142  1  0  0  0
 56143  1  0  0  0
 57 58  1  0  0  0
 57144  1  0  0  0
 58 61  1  0  0  0
 58 59  1  0  0  0
 58145  1  0  0  0
 59 60  2  0  0  0
 59 69  1  0  0  0
 61 62  1  0  0  0
 61146  1  0  0  0
 61147  1  0  0  0
 62 63  2  0  0  0
 62 64  1  0  0  0
 63 65  1  0  0  0
 63148  1  0  0  0
 64 66  2  0  0  0
 64149  1  0  0  0
 65 67  2  0  0  0
 65150  1  0  0  0
 66 67  1  0  0  0
 66151  1  0  0  0
 67 68  1  0  0  0
 68152  1  0  0  0
 69 70  1  0  0  0
 69153  1  0  0  0
 70 73  1  0  0  0
 70 71  1  0  0  0
 70154  1  0  0  0
 71 72  2  0  0  0
 71 77  1  0  0  0
 73 74  1  0  0  0
 73155  1  0  0  0
 73156  1  0  0  0
 74 75  2  0  0  0
 74 76  1  0  0  0
 76157  1  0  0  0
 77 78  1  0  0  0
 77158  1  0  0  0
 78 81  1  0  0  0
 78 79  1  0  0  0
 78159  1  0  0  0
 79 80  2  0  0  0
 79 85  1  0  0  0
 81 82  1  0  0  0
 81160  1  0  0  0
 81161  1  0  0  0
 82 83  1  0  0  0
 82 84  1  0  0  0
 82162  1  0  0  0
 83163  1  0  0  0
 83164  1  0  0  0
 83165  1  0  0  0
 84166  1  0  0  0
 84167  1  0  0  0
 84168  1  0  0  0
 85169  1  0  0  0
M  CHG  1   1   1
M  END
> <s_m_source_file>
../2r7g_ligand.sdf

> <i_m_source_file_index>
1

> <s_epik_input>
W0NIMl0xW0NIMl1bQ0gyXVtOSDIrXVtDQEBIXTFDKD1PKU4yW0NAQEhdKFtDSDJdW0NIMl1bQ0gyXTIpQyg9TylbTkhdW0NAQEhdKFtDQEhdKFtPSF0pW0NIM10pQyg9TylbTkhdW0NAQEhdKFtDSDJdW0NIXShbQ0gzXSlbQ0gzXSlDKD1PKVtOSF1bQ0BASF0oW0NIMl1DMz1OW0NIMl1OPVtDSF0zKUMoPU8pW05IXVtDQEBIXShbQ0gyXVtDSDJdQyg9TylbT0hdKUMoPU8pW05IXVtDQEBIXShbQ0gyXVtDSF0oW0NIM10pW0NIM10pQyg9TylbTkhdW0NAQEhdKFtDSDJdYzRbY0hdW2NIXWMoW09IXSlbY0hdW2NIXTQpQyg9TylbTkhdW0NAQEhdKFtDSDJdQyg9TylbT0hdKUMoPU8pW05IXVtDQEhdKEMoPU8pW09IXSlbQ0gyXVtDSF0oW0NIM10pW0NIM10=

> <s_epik_cmdline>
J2VwaWtfYXBwJywgJy1pbWFlJywgJ2xpZ2FuZF9wcm8ubWFlJywgJy1vbWFlJywgJ2xpZ2FuZF9wcmVwLm1hZScsICctbXMnLCAnMScsICctcGgnLCAnNycsICctcGh0JywgJzAuNScsICctbnQn

> <s_epik_pKa_notes>
Molecule size exceeds maximum supported for generating protonation states

> <s_epik_Chemistry_Notes>
This compound has an imine and may undergo hydrolysis.

$$$$
