2r8q_ligand
                    3D
 Schrodinger Suite 2020-3.
 30 31  0  0  1  0            999 V2000
   32.4900   -1.6050   12.1320 N   0  0  0  0  0  0
   33.8010   -1.5470   11.7270 C   0  0  0  0  0  0
   34.4880   -0.5900   12.2990 N   0  3  0  0  0  0
   33.5670    0.0220   13.1370 C   0  0  0  0  0  0
   32.3360   -0.5890   13.0460 C   0  0  0  0  0  0
   31.2070   -0.2650   13.7140 N   0  0  0  0  0  0
   31.3340    0.7960   14.5650 C   0  0  0  0  0  0
   32.5460    1.4770   14.7220 N   0  0  0  0  0  0
   33.6580    1.0920   14.0130 C   0  0  0  0  0  0
   34.7180    1.6830   14.1510 O   0  0  0  0  0  0
   30.3570    1.1630   15.2090 O   0  0  0  0  0  0
   32.6300    2.6010   15.6430 C   0  0  0  0  0  0
   29.9610   -0.9930   13.5420 C   0  0  0  0  0  0
   30.1370   -2.4230   14.0610 C   0  0  0  0  0  0
   29.7710   -2.5140   15.5360 C   0  0  0  0  0  0
   29.3140   -3.4020   13.2360 C   0  0  0  0  0  0
   34.1803   -2.2667   10.9866 H   0  0  0  0  0  0
   31.6501    2.7611   16.1164 H   0  0  0  0  0  0
   32.9229    3.5063   15.0910 H   0  0  0  0  0  0
   33.3805    2.3850   16.4176 H   0  0  0  0  0  0
   29.1620   -0.4910   14.1073 H   0  0  0  0  0  0
   29.6951   -1.0178   12.4749 H   0  0  0  0  0  0
   31.1961   -2.7023   13.9594 H   0  0  0  0  0  0
   30.3784   -1.7982   16.1093 H   0  0  0  0  0  0
   29.9654   -3.5337   15.8998 H   0  0  0  0  0  0
   28.7048   -2.2758   15.6646 H   0  0  0  0  0  0
   29.5968   -3.3168   12.1764 H   0  0  0  0  0  0
   28.2449   -3.1694   13.3501 H   0  0  0  0  0  0
   29.5055   -4.4273   13.5853 H   0  0  0  0  0  0
   35.5500   -0.4502   12.0488 H   0  0  0  0  0  0
  1  2  2  0  0  0
  1  5  1  0  0  0
  2  3  1  0  0  0
  2 17  1  0  0  0
  3  4  1  0  0  0
  3 30  1  0  0  0
  4  5  2  0  0  0
  4  9  1  0  0  0
  5  6  1  0  0  0
  6  7  1  0  0  0
  6 13  1  0  0  0
  7  8  1  0  0  0
  7 11  2  0  0  0
  8  9  1  0  0  0
  8 12  1  0  0  0
  9 10  2  0  0  0
 12 18  1  0  0  0
 12 19  1  0  0  0
 12 20  1  0  0  0
 13 14  1  0  0  0
 13 21  1  0  0  0
 13 22  1  0  0  0
 14 15  1  0  0  0
 14 16  1  0  0  0
 14 23  1  0  0  0
 15 24  1  0  0  0
 15 25  1  0  0  0
 15 26  1  0  0  0
 16 27  1  0  0  0
 16 28  1  0  0  0
 16 29  1  0  0  0
M  CHG  1   3   1
M  END
> <s_m_source_file>
../2r8q_ligand.sdf

> <i_m_source_file_index>
1

> <s_epik_input>
W25IXTFbY0hdbmMoYzEyKW4oYyg9TyluKGMyPU8pW0NIM10pW0NIMl1bQ0hdKFtDSDNdKVtDSDNd

> <s_epik_cmdline>
J2VwaWtfYXBwJywgJy1pbWFlJywgJ2xpZ2FuZF9wcm8ubWFlJywgJy1vbWFlJywgJ2xpZ2FuZF9wcmVwLm1hZScsICctbXMnLCAnMScsICctcGgnLCAnNycsICctcGh0JywgJzAuNScsICctbnQn

> <r_lp_tautomer_probability>
1

> <r_epik_Ionization_Penalty>
  0.0000

> <r_epik_Ionization_Penalty_Charging>
  0.0000

> <r_epik_Ionization_Penalty_Neutral>
  0.0000

> <r_epik_State_Penalty>
 -0.0000

> <r_epik_Charging_Adjusted_Penalty>
2.54524996633124e-08

> <i_epik_Tot_Q>
1

> <i_epik_Tot_abs_Q>
1

> <s_epik_Chemistry_Notes>
This compound has an imine and may undergo hydrolysis.

$$$$
