2r9b_ligand
                    3D
 Schrodinger Suite 2020-3.
147149  0  0  1  0            999 V2000
  -50.1000   33.3750   49.8890 N   0  3  0  0  0  0
  -49.1580   32.7490   50.8910 C   0  0  2  0  0  0
  -48.9990   33.7070   52.0820 C   0  0  0  0  0  0
  -49.0020   34.9400   51.9150 O   0  0  0  0  0  0
  -47.8020   32.4850   50.2210 C   0  0  0  0  0  0
  -47.9730   31.9350   48.8130 C   0  0  0  0  0  0
  -46.6190   31.6290   48.1710 C   0  0  0  0  0  0
  -46.7570   31.4490   46.6500 C   0  0  0  0  0  0
  -45.4450   31.0360   46.0350 N   0  3  0  0  0  0
  -48.8350   33.1610   53.2840 N   0  0  0  0  0  0
  -48.6900   34.0560   54.4230 C   0  0  2  0  0  0
  -47.3070   34.7130   54.4490 C   0  0  0  0  0  0
  -46.2740   34.0110   54.5180 O   0  0  0  0  0  0
  -48.9190   33.1260   55.5960 C   0  0  0  0  0  0
  -48.3510   31.8380   55.1670 C   0  0  0  0  0  0
  -48.3440   31.8140   53.6210 C   0  0  0  0  0  0
  -47.2650   36.0540   54.4400 N   0  0  0  0  0  0
  -45.9650   36.7490   54.4360 C   0  0  2  0  0  0
  -45.0200   36.3030   55.5710 C   0  0  0  0  0  0
  -45.1070   36.8010   56.7100 O   0  0  0  0  0  0
  -46.1540   38.2550   54.5330 C   0  0  0  0  0  0
  -45.0590   39.0340   53.8780 C   0  0  0  0  0  0
  -45.2420   39.5530   52.6090 C   0  0  0  0  0  0
  -43.8340   39.2160   54.5080 C   0  0  0  0  0  0
  -44.2120   40.2550   51.9710 C   0  0  0  0  0  0
  -42.8060   39.9090   53.8900 C   0  0  0  0  0  0
  -42.9840   40.4300   52.6180 C   0  0  0  0  0  0
  -44.1190   35.3750   55.2420 N   0  0  0  0  0  0
  -43.1710   34.8530   56.2040 C   0  0  2  0  0  0
  -41.8920   34.4450   55.4790 C   0  0  0  0  0  0
  -41.9340   33.6490   54.5360 O   0  0  0  0  0  0
  -43.7610   33.6450   56.9190 C   0  0  0  0  0  0
  -42.8400   33.1240   57.8580 O   0  0  0  0  0  0
  -40.7420   34.9740   55.9100 N   0  0  0  0  0  0
  -39.5080   34.6590   55.2010 C   0  0  2  0  0  0
  -38.7170   33.5760   55.9180 C   0  0  0  0  0  0
  -38.6470   35.9110   55.0550 C   0  0  0  0  0  0
  -39.1960   36.9560   54.0800 C   0  0  0  0  0  0
  -38.2300   38.1310   54.0030 C   0  0  0  0  0  0
  -39.3940   36.3720   52.6700 C   0  0  0  0  0  0
  -39.5890   32.7090   56.6920 N   0  3  0  0  0  0
  -38.9140   31.5640   57.3110 C   0  0  2  0  0  0
  -38.4040   30.6100   56.2260 C   0  0  0  0  0  0
  -39.1380   30.3520   55.2710 O   0  0  0  0  0  0
  -39.9070   30.8400   58.2240 C   0  0  0  0  0  0
  -39.2420   29.9120   59.2250 C   0  0  0  0  0  0
  -38.2820   30.7040   60.1080 C   0  0  0  0  0  0
  -40.2870   29.2420   60.0640 C   0  0  0  0  0  0
  -37.1830   30.0790   56.3500 N   0  0  0  0  0  0
  -36.7250   29.1260   55.3470 C   0  0  2  0  0  0
  -36.7480   27.6510   55.7120 C   0  0  0  0  0  0
  -36.4710   27.2840   56.8570 O   0  0  0  0  0  0
  -35.3280   29.4850   54.8430 C   0  0  0  0  0  0
  -34.2340   29.7030   55.8630 C   0  0  0  0  0  0
  -32.8420   29.7760   55.2530 C   0  0  0  0  0  0
  -31.8800   30.0620   55.9700 O   0  0  0  0  0  0
  -32.7240   29.5070   53.9430 N   0  0  0  0  0  0
  -37.0730   26.8170   54.7160 N   0  0  0  0  0  0
  -37.0250   25.3650   54.8570 C   0  0  2  0  0  0
  -36.2940   24.8130   53.6300 C   0  0  0  0  0  0
  -36.8260   23.8950   52.9700 O   0  0  0  0  0  0
  -38.4230   24.7510   54.9410 C   0  0  0  0  0  0
  -39.1320   25.0380   56.2180 C   0  0  0  0  0  0
  -39.8250   26.2320   56.3730 C   0  0  0  0  0  0
  -39.1410   24.1120   57.2570 C   0  0  0  0  0  0
  -40.5280   26.5080   57.5560 C   0  0  0  0  0  0
  -39.8360   24.3770   58.4400 C   0  0  0  0  0  0
  -40.5340   25.5710   58.5910 C   0  0  0  0  0  0
  -35.1780   25.3160   53.3420 O   0  5  0  0  0  0
  -51.0719   33.5645   50.3682 H   0  0  0  0  0  0
  -50.2377   32.6913   49.0384 H   0  0  0  0  0  0
  -49.6762   34.3249   49.5311 H   0  0  0  0  0  0
  -49.5734   31.7920   51.2397 H   0  0  0  0  0  0
  -47.2336   33.4249   50.1608 H   0  0  0  0  0  0
  -47.2363   31.7518   50.8146 H   0  0  0  0  0  0
  -48.5613   31.0063   48.8511 H   0  0  0  0  0  0
  -48.4970   32.6757   48.1911 H   0  0  0  0  0  0
  -45.9247   32.4597   48.3659 H   0  0  0  0  0  0
  -46.2110   30.7019   48.5999 H   0  0  0  0  0  0
  -47.5060   30.6715   46.4393 H   0  0  0  0  0  0
  -47.0765   32.3986   46.1959 H   0  0  0  0  0  0
  -45.5713   30.9144   44.9491 H   0  0  0  0  0  0
  -45.1178   30.0825   46.4752 H   0  0  0  0  0  0
  -44.6882   31.8096   46.2318 H   0  0  0  0  0  0
  -49.4085   34.8878   54.3803 H   0  0  0  0  0  0
  -48.4062   33.5232   56.4844 H   0  0  0  0  0  0
  -49.9975   33.0499   55.7985 H   0  0  0  0  0  0
  -47.3259   31.7422   55.5542 H   0  0  0  0  0  0
  -48.9689   31.0163   55.5581 H   0  0  0  0  0  0
  -49.0256   31.0596   53.2011 H   0  0  0  0  0  0
  -47.3378   31.6743   53.1991 H   0  0  0  0  0  0
  -48.1992   36.6348   54.4356 H   0  0  0  0  0  0
  -45.5372   36.4620   53.4641 H   0  0  0  0  0  0
  -47.0983   38.5382   54.0451 H   0  0  0  0  0  0
  -46.1842   38.5534   55.5913 H   0  0  0  0  0  0
  -46.1964   39.4143   52.1011 H   0  0  0  0  0  0
  -43.6792   38.8062   55.5061 H   0  0  0  0  0  0
  -44.3666   40.6641   50.9726 H   0  0  0  0  0  0
  -41.8551   40.0449   54.4052 H   0  0  0  0  0  0
  -42.1752   40.9708   52.1266 H   0  0  0  0  0  0
  -44.1100   35.0068   54.2055 H   0  0  0  0  0  0
  -42.9793   35.6627   56.9234 H   0  0  0  0  0  0
  -44.6784   33.9436   57.4474 H   0  0  0  0  0  0
  -43.9999   32.8636   56.1826 H   0  0  0  0  0  0
  -43.1091   32.2459   58.4634 H   0  0  0  0  0  0
  -40.7186   35.6384   56.7863 H   0  0  0  0  0  0
  -39.8293   34.2869   54.2170 H   0  0  0  0  0  0
  -38.1813   32.9628   55.1784 H   0  0  0  0  0  0
  -37.9922   34.0428   56.6012 H   0  0  0  0  0  0
  -38.5527   36.4071   56.0322 H   0  0  0  0  0  0
  -37.6487   35.6289   54.6891 H   0  0  0  0  0  0
  -40.1721   37.2925   54.4595 H   0  0  0  0  0  0
  -38.0846   38.5526   55.0085 H   0  0  0  0  0  0
  -38.6441   38.9031   53.3380 H   0  0  0  0  0  0
  -37.2636   37.7858   53.6069 H   0  0  0  0  0  0
  -40.0911   35.5226   52.7195 H   0  0  0  0  0  0
  -38.4259   36.0293   52.2758 H   0  0  0  0  0  0
  -39.8065   37.1467   52.0069 H   0  0  0  0  0  0
  -40.0512   33.2863   57.5063 H   0  0  0  0  0  0
  -40.3751   32.3021   56.0390 H   0  0  0  0  0  0
  -38.0649   31.9548   57.8910 H   0  0  0  0  0  0
  -40.4867   31.5801   58.7951 H   0  0  0  0  0  0
  -40.5900   30.2313   57.6133 H   0  0  0  0  0  0
  -38.6839   29.1306   58.6884 H   0  0  0  0  0  0
  -37.5214   31.1897   59.4790 H   0  0  0  0  0  0
  -37.7902   30.0228   60.8180 H   0  0  0  0  0  0
  -38.8424   31.4704   60.6635 H   0  0  0  0  0  0
  -40.9709   28.6756   59.4147 H   0  0  0  0  0  0
  -40.8548   30.0031   60.6194 H   0  0  0  0  0  0
  -39.8025   28.5554   60.7739 H   0  0  0  0  0  0
  -36.5276   30.3501   57.1908 H   0  0  0  0  0  0
  -37.5186   29.2672   54.5985 H   0  0  0  0  0  0
  -34.9541   28.6793   54.1941 H   0  0  0  0  0  0
  -35.3743   30.4240   54.2719 H   0  0  0  0  0  0
  -34.4111   30.6500   56.3939 H   0  0  0  0  0  0
  -34.2345   28.8726   56.5844 H   0  0  0  0  0  0
  -33.6164   29.2574   53.3502 H   0  0  0  0  0  0
  -31.7350   29.5362   53.4624 H   0  0  0  0  0  0
  -37.3858   27.2669   53.7622 H   0  0  0  0  0  0
  -36.4997   25.1549   55.8003 H   0  0  0  0  0  0
  -39.0469   25.1469   54.1262 H   0  0  0  0  0  0
  -38.3494   23.6574   54.8482 H   0  0  0  0  0  0
  -39.8227   26.9640   55.5654 H   0  0  0  0  0  0
  -38.6010   23.1716   57.1469 H   0  0  0  0  0  0
  -41.0666   27.4492   57.6661 H   0  0  0  0  0  0
  -39.8312   23.6452   59.2478 H   0  0  0  0  0  0
  -41.0819   25.7736   59.5113 H   0  0  0  0  0  0
  1  2  1  0  0  0
  1 70  1  0  0  0
  1 71  1  0  0  0
  1 72  1  0  0  0
  2  3  1  0  0  0
  2  5  1  0  0  0
  2 73  1  0  0  0
  3  4  2  0  0  0
  3 10  1  0  0  0
  5  6  1  0  0  0
  5 74  1  0  0  0
  5 75  1  0  0  0
  6  7  1  0  0  0
  6 76  1  0  0  0
  6 77  1  0  0  0
  7  8  1  0  0  0
  7 78  1  0  0  0
  7 79  1  0  0  0
  8  9  1  0  0  0
  8 80  1  0  0  0
  8 81  1  0  0  0
  9 82  1  0  0  0
  9 83  1  0  0  0
  9 84  1  0  0  0
 10 11  1  0  0  0
 10 16  1  0  0  0
 11 12  1  0  0  0
 11 14  1  0  0  0
 11 85  1  0  0  0
 12 13  2  0  0  0
 12 17  1  0  0  0
 14 15  1  0  0  0
 14 86  1  0  0  0
 14 87  1  0  0  0
 15 16  1  0  0  0
 15 88  1  0  0  0
 15 89  1  0  0  0
 16 90  1  0  0  0
 16 91  1  0  0  0
 17 18  1  0  0  0
 17 92  1  0  0  0
 18 19  1  0  0  0
 18 21  1  0  0  0
 18 93  1  0  0  0
 19 20  2  0  0  0
 19 28  1  0  0  0
 21 22  1  0  0  0
 21 94  1  0  0  0
 21 95  1  0  0  0
 22 23  2  0  0  0
 22 24  1  0  0  0
 23 25  1  0  0  0
 23 96  1  0  0  0
 24 26  2  0  0  0
 24 97  1  0  0  0
 25 27  2  0  0  0
 25 98  1  0  0  0
 26 27  1  0  0  0
 26 99  1  0  0  0
 27100  1  0  0  0
 28 29  1  0  0  0
 28101  1  0  0  0
 29 30  1  0  0  0
 29 32  1  0  0  0
 29102  1  0  0  0
 30 31  2  0  0  0
 30 34  1  0  0  0
 32 33  1  0  0  0
 32103  1  0  0  0
 32104  1  0  0  0
 33105  1  0  0  0
 34 35  1  0  0  0
 34106  1  0  0  0
 35 36  1  0  0  0
 35 37  1  0  0  0
 35107  1  0  0  0
 36 41  1  0  0  0
 36108  1  0  0  0
 36109  1  0  0  0
 37 38  1  0  0  0
 37110  1  0  0  0
 37111  1  0  0  0
 38 39  1  0  0  0
 38 40  1  0  0  0
 38112  1  0  0  0
 39113  1  0  0  0
 39114  1  0  0  0
 39115  1  0  0  0
 40116  1  0  0  0
 40117  1  0  0  0
 40118  1  0  0  0
 41 42  1  0  0  0
 41119  1  0  0  0
 41120  1  0  0  0
 42 43  1  0  0  0
 42 45  1  0  0  0
 42121  1  0  0  0
 43 44  2  0  0  0
 43 49  1  0  0  0
 45 46  1  0  0  0
 45122  1  0  0  0
 45123  1  0  0  0
 46 47  1  0  0  0
 46 48  1  0  0  0
 46124  1  0  0  0
 47125  1  0  0  0
 47126  1  0  0  0
 47127  1  0  0  0
 48128  1  0  0  0
 48129  1  0  0  0
 48130  1  0  0  0
 49 50  1  0  0  0
 49131  1  0  0  0
 50 51  1  0  0  0
 50 53  1  0  0  0
 50132  1  0  0  0
 51 52  2  0  0  0
 51 58  1  0  0  0
 53 54  1  0  0  0
 53133  1  0  0  0
 53134  1  0  0  0
 54 55  1  0  0  0
 54135  1  0  0  0
 54136  1  0  0  0
 55 56  2  0  0  0
 55 57  1  0  0  0
 57137  1  0  0  0
 57138  1  0  0  0
 58 59  1  0  0  0
 58139  1  0  0  0
 59 60  1  0  0  0
 59 62  1  0  0  0
 59140  1  0  0  0
 60 61  2  0  0  0
 60 69  1  0  0  0
 62 63  1  0  0  0
 62141  1  0  0  0
 62142  1  0  0  0
 63 64  2  0  0  0
 63 65  1  0  0  0
 64 66  1  0  0  0
 64143  1  0  0  0
 65 67  2  0  0  0
 65144  1  0  0  0
 66 68  2  0  0  0
 66145  1  0  0  0
 67 68  1  0  0  0
 67146  1  0  0  0
 68147  1  0  0  0
M  CHG  4   1   1   9   1  41   1  69  -1
M  END
> <s_m_source_file>
../2r9b_ligand.sdf

> <i_m_source_file_index>
1

> <s_epik_input>
W05IMytdW0NIMl1bQ0gyXVtDSDJdW0NIMl1bQ0BIXShbTkgzK10pQyg9TylOMVtDQEBIXShbQ0gyXVtDSDJdW0NIMl0xKUMoPU8pW05IXVtDQEBIXShbQ0gyXWMyW2NIXVtjSF1bY0hdW2NIXVtjSF0yKUMoPU8pW05IXVtDQEBIXShbQ0gyXVtPSF0pQyg9TylbTkhdW0NAQEhdKFtDSDJdW0NIXShbQ0gzXSlbQ0gzXSlbQ0gyXVtOSDIrXVtDQEBIXShbQ0gyXVtDSF0oW0NIM10pW0NIM10pQyg9TylbTkhdW0NAQEhdKFtDSDJdW0NIMl1DKD1PKVtOSDJdKUMoPU8pW05IXVtDQEhdKEMoPU8pW09IXSlbQ0gyXWMzW2NIXVtjSF1bY0hdW2NIXVtjSF0z

> <s_epik_cmdline>
J2VwaWtfYXBwJywgJy1pbWFlJywgJ2xpZ2FuZF9wcm8ubWFlJywgJy1vbWFlJywgJ2xpZ2FuZF9wcmVwLm1hZScsICctbXMnLCAnMScsICctcGgnLCAnNycsICctcGh0JywgJzAuNScsICctbnQn

> <r_lp_tautomer_probability>
1

> <r_epik_Ionization_Penalty>
  0.2827

> <r_epik_Ionization_Penalty_Charging>
  0.2827

> <r_epik_Ionization_Penalty_Neutral>
  0.0000

> <r_epik_State_Penalty>
 -0.0000

> <r_epik_Charging_Adjusted_Penalty>
0.28273297006863

> <i_epik_Tot_Q>
2

> <i_epik_Tot_abs_Q>
4

$$$$
