2r9m_ligand
                    3D
 Schrodinger Suite 2020-3.
 67 69  0  0  1  0            999 V2000
   61.3310   36.1020   62.8230 C   0  0  0  0  0  0
   59.2690   37.3430   62.3390 C   0  0  0  0  0  0
   58.8430   38.2930   61.2280 C   0  0  0  0  0  0
   59.7360   36.9080   59.5530 C   0  0  0  0  0  0
   60.2550   35.8810   60.5720 C   0  0  0  0  0  0
   61.2850   36.4360   64.0110 O   0  0  0  0  0  0
   58.5680   37.5640   60.0420 O   0  0  0  0  0  0
   60.3440   36.4300   61.9280 N   0  0  0  0  0  0
   62.3570   35.3790   62.3690 N   0  0  0  0  0  0
   63.4590   35.0310   63.2860 C   0  0  1  0  0  0
   64.4500   34.0740   62.6200 C   0  0  0  0  0  0
   63.7860   32.8280   62.0240 C   0  0  0  0  0  0
   64.8370   31.8880   61.4310 C   0  0  0  0  0  0
   64.2260   30.6440   60.7980 C   0  0  0  0  0  0
   63.3720   29.8580   61.8190 C   0  0  0  0  0  0
   62.3490   30.7690   62.5580 C   0  0  0  0  0  0
   63.0280   32.0520   63.1030 C   0  0  0  0  0  0
   64.1760   36.3170   63.7160 C   0  0  0  0  0  0
   64.4530   37.1700   62.8840 O   0  0  0  0  0  0
   64.4700   36.4330   65.0140 N   0  0  0  0  0  0
   64.3930   38.8910   65.1690 C   0  0  0  0  0  0
   62.9040   38.9060   65.4720 C   0  0  0  0  0  0
   63.3840   37.4030   67.4710 C   0  0  0  0  0  0
   64.8820   37.5390   67.1370 C   0  0  0  0  0  0
   62.5730   38.5260   66.8800 N   0  3  2  0  0  0
   61.1170   38.1810   66.9530 C   0  0  0  0  0  0
   66.6000   37.7470   65.3290 C   0  0  0  0  0  0
   67.3300   38.7740   65.7340 N   0  0  0  0  0  0
   65.1060   37.6190   65.6310 C   0  0  1  0  0  0
   59.6331   37.9243   63.1990 H   0  0  0  0  0  0
   58.4088   36.7309   62.6480 H   0  0  0  0  0  0
   57.9371   38.8354   61.5366 H   0  0  0  0  0  0
   59.6515   39.0122   61.0304 H   0  0  0  0  0  0
   60.5134   37.6632   59.3652 H   0  0  0  0  0  0
   59.4865   36.3966   58.6116 H   0  0  0  0  0  0
   59.5747   35.0171   60.6008 H   0  0  0  0  0  0
   61.2602   35.5464   60.2759 H   0  0  0  0  0  0
   62.3859   35.0431   61.3219 H   0  0  0  0  0  0
   63.0049   34.5237   64.1500 H   0  0  0  0  0  0
   64.9693   34.5948   61.8020 H   0  0  0  0  0  0
   65.1859   33.7327   63.3629 H   0  0  0  0  0  0
   63.0930   33.1683   61.2405 H   0  0  0  0  0  0
   65.4045   32.4176   60.6516 H   0  0  0  0  0  0
   65.5238   31.5585   62.2246 H   0  0  0  0  0  0
   63.5823   30.9394   59.9563 H   0  0  0  0  0  0
   65.0287   29.9866   60.4326 H   0  0  0  0  0  0
   62.8109   29.0688   61.2972 H   0  0  0  0  0  0
   64.0299   29.4023   62.5736 H   0  0  0  0  0  0
   61.5509   31.0646   61.8611 H   0  0  0  0  0  0
   61.9117   30.2183   63.4039 H   0  0  0  0  0  0
   63.7271   31.7500   63.8968 H   0  0  0  0  0  0
   62.2418   32.6916   63.5306 H   0  0  0  0  0  0
   64.2055   35.5649   65.6356 H   0  0  0  0  0  0
   64.5470   38.9747   64.0831 H   0  0  0  0  0  0
   64.8786   39.7386   65.6746 H   0  0  0  0  0  0
   62.5058   39.9175   65.3037 H   0  0  0  0  0  0
   62.3881   38.1941   64.8109 H   0  0  0  0  0  0
   63.0031   36.4533   67.0672 H   0  0  0  0  0  0
   63.2489   37.4178   68.5626 H   0  0  0  0  0  0
   65.2792   38.4544   67.5999 H   0  0  0  0  0  0
   65.4253   36.6655   67.5267 H   0  0  0  0  0  0
   60.5239   39.0008   66.5215 H   0  0  0  0  0  0
   60.8276   38.0327   68.0038 H   0  0  0  0  0  0
   60.9305   37.2563   66.3873 H   0  0  0  0  0  0
   67.0649   36.9368   64.7480 H   0  0  0  0  0  0
   68.4016   38.8174   65.4896 H   0  0  0  0  0  0
   62.8279   39.4093   67.4840 H   0  0  0  0  0  0
  1  6  2  0  0  0
  1  8  1  0  0  0
  1  9  1  0  0  0
  2  3  1  0  0  0
  2  8  1  0  0  0
  2 30  1  0  0  0
  2 31  1  0  0  0
  3  7  1  0  0  0
  3 32  1  0  0  0
  3 33  1  0  0  0
  4  5  1  0  0  0
  4  7  1  0  0  0
  4 34  1  0  0  0
  4 35  1  0  0  0
  5  8  1  0  0  0
  5 36  1  0  0  0
  5 37  1  0  0  0
  9 10  1  0  0  0
  9 38  1  0  0  0
 10 11  1  0  0  0
 10 18  1  0  0  0
 10 39  1  0  0  0
 11 12  1  0  0  0
 11 40  1  0  0  0
 11 41  1  0  0  0
 12 13  1  0  0  0
 12 17  1  0  0  0
 12 42  1  0  0  0
 13 14  1  0  0  0
 13 43  1  0  0  0
 13 44  1  0  0  0
 14 15  1  0  0  0
 14 45  1  0  0  0
 14 46  1  0  0  0
 15 16  1  0  0  0
 15 47  1  0  0  0
 15 48  1  0  0  0
 16 17  1  0  0  0
 16 49  1  0  0  0
 16 50  1  0  0  0
 17 51  1  0  0  0
 17 52  1  0  0  0
 18 19  2  0  0  0
 18 20  1  0  0  0
 20 29  1  0  0  0
 20 53  1  0  0  0
 21 22  1  0  0  0
 21 29  1  0  0  0
 21 54  1  0  0  0
 21 55  1  0  0  0
 22 25  1  0  0  0
 22 56  1  0  0  0
 22 57  1  0  0  0
 23 24  1  0  0  0
 23 25  1  0  0  0
 23 58  1  0  0  0
 23 59  1  0  0  0
 24 29  1  0  0  0
 24 60  1  0  0  0
 24 61  1  0  0  0
 25 26  1  0  0  0
 25 67  1  0  0  0
 26 62  1  0  0  0
 26 63  1  0  0  0
 26 64  1  0  0  0
 27 28  2  0  0  0
 27 29  1  0  0  0
 27 65  1  0  0  0
 28 66  1  0  0  0
M  CHG  1  25   1
M  END
> <s_m_source_file>
../2r9m_ligand.sdf

> <i_m_source_file_index>
1

> <s_epik_input>
W0NIMl0xW0NIMl1PW0NIMl1bQ0gyXU4xQyg9TylbTkhdW0NAQEhdKFtDSDJdW0NIXTJbQ0gyXVtDSDJdW0NIMl1bQ0gyXVtDSDJdMilDKD1PKVtOSF1bQ0BAXTMoL1tDSF09TlxbSF0pW0NIMl1bQ0gyXVtOQEBIK10oW0NIM10pW0NIMl1bQ0gyXTM=

> <s_epik_cmdline>
J2VwaWtfYXBwJywgJy1pbWFlJywgJ2xpZ2FuZF9wcm8ubWFlJywgJy1vbWFlJywgJ2xpZ2FuZF9wcmVwLm1hZScsICctbXMnLCAnMScsICctcGgnLCAnNycsICctcGh0JywgJzAuNScsICctbnQn

> <r_lp_tautomer_probability>
0.5

> <r_epik_Ionization_Penalty>
  0.0589

> <r_epik_Ionization_Penalty_Charging>
  0.0557

> <r_epik_Ionization_Penalty_Neutral>
  0.0033

> <r_epik_State_Penalty>
  0.0906

> <r_epik_Charging_Adjusted_Penalty>
0.146305881887581

> <i_epik_Tot_Q>
1

> <i_epik_Tot_abs_Q>
1

> <s_epik_Chemistry_Notes>
This compound has an imine and may undergo hydrolysis.

$$$$
