2r9s_ligand
                    3D
 Schrodinger Suite 2020-3.
 73 76  0  0  1  0            999 V2000
   12.7730   20.6790   23.0370 O   0  0  0  0  0  0
   14.2350   20.6540   23.8180 S   0  0  0  0  0  0
   14.3650   21.9860   24.7930 O   0  0  0  0  0  0
   15.5100   20.6620   22.6580 N   0  0  3  0  0  0
   15.4590   19.4310   21.8450 C   0  0  0  0  0  0
   15.0560   19.7910   20.3990 C   0  0  0  0  0  0
   16.8490   18.7560   21.8370 C   0  0  0  0  0  0
   14.4150   18.4590   22.4410 C   0  0  0  0  0  0
   14.3520   19.1500   24.8330 C   0  0  0  0  0  0
   13.1690   18.7210   25.7090 C   0  0  0  0  0  0
   13.2690   17.4540   26.5620 C   0  0  0  0  0  0
   14.5530   16.6140   26.5410 C   0  0  0  0  0  0
   15.7360   17.0440   25.6650 C   0  0  0  0  0  0
   15.6360   18.3090   24.8120 C   0  0  0  0  0  0
   14.6540   15.3500   27.3940 C   0  0  2  0  0  0
   15.9820   14.9860   28.0760 C   0  0  0  0  0  0
   16.0820   13.7330   28.9200 N   0  3  0  0  0  0
   14.8860   12.8480   29.0910 C   0  0  1  0  0  0
   14.9890   11.5760   29.9500 C   0  0  0  0  0  0
   13.7560   10.6620   30.1270 C   0  0  0  0  0  0
   12.4210   11.0260   29.4440 C   0  0  0  0  0  0
   12.3190   12.2950   28.5870 C   0  0  3  0  0  0
   13.5560   13.2120   28.4090 C   0  0  3  0  0  0
   13.4560   14.4640   27.5650 C   0  0  0  0  0  0
   11.0580   12.6350   27.9430 N   0  3  0  0  0  0
   10.3170   11.6160   27.2190 C   0  0  1  0  0  0
    8.9920   11.9420   26.6230 N   0  0  1  0  0  0
    8.2230   10.8860   25.8720 C   0  0  0  0  0  0
    8.8050    9.4750   25.7220 C   0  0  0  0  0  0
   10.1390    9.1470   26.3210 C   0  0  0  0  0  0
   10.9040   10.1990   27.0690 C   0  0  0  0  0  0
   16.3782   21.3335   22.5854 H   0  0  0  0  0  0
   15.7977   20.4827   19.9731 H   0  0  0  0  0  0
   14.0665   20.2714   20.4030 H   0  0  0  0  0  0
   15.0166   18.8754   19.7906 H   0  0  0  0  0  0
   17.5906   19.4488   21.4127 H   0  0  0  0  0  0
   16.8093   17.8421   21.2260 H   0  0  0  0  0  0
   17.1365   18.4966   22.8666 H   0  0  0  0  0  0
   13.4262   18.9409   22.4460 H   0  0  0  0  0  0
   14.7016   18.1995   23.4708 H   0  0  0  0  0  0
   14.3744   17.5450   21.8303 H   0  0  0  0  0  0
   12.2572   19.3180   25.7243 H   0  0  0  0  0  0
   12.4280   17.1484   27.1844 H   0  0  0  0  0  0
   16.6483   16.4477   25.6505 H   0  0  0  0  0  0
   16.4767   18.6137   24.1888 H   0  0  0  0  0  0
   14.9525   14.7743   26.5055 H   0  0  0  0  0  0
   16.7625   14.8544   27.3121 H   0  0  0  0  0  0
   16.2744   15.7932   28.7637 H   0  0  0  0  0  0
   16.8478   13.0662   28.4970 H   0  0  0  0  0  0
   16.3605   14.0051   29.9488 H   0  0  0  0  0  0
   15.1850   12.2723   28.2026 H   0  0  0  0  0  0
   15.7556   10.9096   29.5279 H   0  0  0  0  0  0
   15.2671   11.8496   30.9785 H   0  0  0  0  0  0
   13.9860    9.6575   29.7423 H   0  0  0  0  0  0
   13.4989   10.5958   31.1945 H   0  0  0  0  0  0
   12.1277   10.2176   28.7581 H   0  0  0  0  0  0
   11.6418   11.1585   30.2091 H   0  0  0  0  0  0
   12.0199   12.8708   29.4752 H   0  0  0  0  0  0
   13.8544   12.6369   27.5201 H   0  0  0  0  0  0
   12.6409   15.0357   28.0327 H   0  0  0  0  0  0
   13.1285   14.0963   26.5814 H   0  0  0  0  0  0
   10.3457   12.9962   28.6994 H   0  0  0  0  0  0
   11.2291   13.4229   27.1947 H   0  0  0  0  0  0
    9.8220   11.3122   28.1532 H   0  0  0  0  0  0
    8.3007   12.2594   27.4176 H   0  0  0  0  0  0
    7.2515   10.7223   26.3613 H   0  0  0  0  0  0
    8.0603   11.2180   24.8360 H   0  0  0  0  0  0
    8.1212    8.7457   26.1807 H   0  0  0  0  0  0
    8.9283    9.2408   24.6543 H   0  0  0  0  0  0
   10.0227    8.3328   27.0514 H   0  0  0  0  0  0
   10.8301    8.8304   25.5259 H   0  0  0  0  0  0
   11.8668   10.2551   26.5399 H   0  0  0  0  0  0
   11.0582    9.7586   28.0651 H   0  0  0  0  0  0
  1  2  2  0  0  0
  2  3  2  0  0  0
  2  4  1  0  0  0
  2  9  1  0  0  0
  4  5  1  0  0  0
  4 32  1  0  0  0
  5  6  1  0  0  0
  5  7  1  0  0  0
  5  8  1  0  0  0
  6 33  1  0  0  0
  6 34  1  0  0  0
  6 35  1  0  0  0
  7 36  1  0  0  0
  7 37  1  0  0  0
  7 38  1  0  0  0
  8 39  1  0  0  0
  8 40  1  0  0  0
  8 41  1  0  0  0
  9 10  2  0  0  0
  9 14  1  0  0  0
 10 11  1  0  0  0
 10 42  1  0  0  0
 11 12  2  0  0  0
 11 43  1  0  0  0
 12 13  1  0  0  0
 12 15  1  0  0  0
 13 14  2  0  0  0
 13 44  1  0  0  0
 14 45  1  0  0  0
 15 16  1  0  0  0
 15 24  1  0  0  0
 15 46  1  0  0  0
 16 17  1  0  0  0
 16 47  1  0  0  0
 16 48  1  0  0  0
 17 18  1  0  0  0
 17 49  1  0  0  0
 17 50  1  0  0  0
 18 19  1  0  0  0
 18 23  1  0  0  0
 18 51  1  0  0  0
 19 20  1  0  0  0
 19 52  1  0  0  0
 19 53  1  0  0  0
 20 21  1  0  0  0
 20 54  1  0  0  0
 20 55  1  0  0  0
 21 22  1  0  0  0
 21 56  1  0  0  0
 21 57  1  0  0  0
 22 23  1  0  0  0
 22 25  1  0  0  0
 22 58  1  0  0  0
 23 24  1  0  0  0
 23 59  1  0  0  0
 24 60  1  0  0  0
 24 61  1  0  0  0
 25 26  1  0  0  0
 25 62  1  0  0  0
 25 63  1  0  0  0
 26 27  1  0  0  0
 26 31  1  0  0  0
 26 64  1  0  0  0
 27 28  1  0  0  0
 27 65  1  0  0  0
 28 29  1  0  0  0
 28 66  1  0  0  0
 28 67  1  0  0  0
 29 30  1  0  0  0
 29 68  1  0  0  0
 29 69  1  0  0  0
 30 31  1  0  0  0
 30 70  1  0  0  0
 30 71  1  0  0  0
 31 72  1  0  0  0
 31 73  1  0  0  0
M  CHG  2  17   1  25   1
M  END
> <s_m_source_file>
../2r9s_ligand.sdf

> <i_m_source_file_index>
1

> <s_epik_input>
W0NIM11DKFtDSDNdKShbQ0gzXSlbTkhdUyg9TykoPU8pYzFbY0hdW2NIXWMoW2NIXVtjSF0xKVtDQEhdKFtDSDJdW05IMitdMilbQ0gyXVtDSF0oW0NIXTIzKVtDSF0oW0NIMl1bQ0gyXVtDSDJdMylbTkgyK11bQ0hdNFtOSDIrXVtDSDJdW0NIMl1bQ0gyXVtDSDJdNA==

> <s_epik_cmdline>
J2VwaWtfYXBwJywgJy1pbWFlJywgJ2xpZ2FuZF9wcm8ubWFlJywgJy1vbWFlJywgJ2xpZ2FuZF9wcmVwLm1hZScsICctbXMnLCAnMScsICctcGgnLCAnNycsICctcGh0JywgJzAuNScsICctbnQn

> <r_epik_Ionization_Penalty>
  0.0044

> <r_epik_Ionization_Penalty_Charging>
  0.0040

> <r_epik_Ionization_Penalty_Neutral>
  0.0004

> <r_epik_State_Penalty>
  0.2725

> <r_epik_Charging_Adjusted_Penalty>
0.276484690148624

> <i_epik_Tot_Q>
2

> <i_epik_Tot_abs_Q>
2

> <s_epik_Chemistry_Notes>
This compound contains an acetal/aminal-like group ( X-CH(R)-Y where X, Y are N, S, or O) that may be acid/base labile, releasing an aldehyde.

$$$$
