2r9x_ligand
                    3D
 Schrodinger Suite 2020-3.
 45 48  0  0  1  0            999 V2000
   21.9590    9.9130   15.1240 C   0  0  0  0  0  0
   21.8530   10.0300   16.5100 C   0  0  0  0  0  0
   20.7710   10.6810   17.0840 C   0  0  0  0  0  0
   19.7800   11.2260   16.2690 C   0  0  0  0  0  0
   19.8690   11.1200   14.8830 C   0  0  0  0  0  0
   20.9590   10.4600   14.3090 C   0  0  0  0  0  0
   21.0470   10.3510   12.9240 C   0  0  0  0  0  0
   22.1380    9.6910   12.3530 C   0  0  0  0  0  0
   23.1350    9.1570   13.1590 C   0  0  0  0  0  0
   23.0560    9.2640   14.5530 C   0  0  0  0  0  0
   24.1660    8.6250   15.3810 C   0  0  0  0  0  0
   23.6920    7.2370   15.9160 C   0  0  2  0  0  0
   24.8770    6.6180   16.6400 C   0  0  0  0  0  0
   24.4570    5.4100   17.4510 C   0  0  0  0  0  0
   24.9510    4.3190   17.1050 O   0  0  0  0  0  0
   23.6440    5.6090   18.3790 O   0  5  0  0  0  0
   23.2260    6.5050   14.7210 N   0  0  0  0  0  0
   21.9340    6.2910   14.3930 C   0  0  0  0  0  0
   20.9600    6.6080   15.0840 O   0  0  0  0  0  0
   21.8700    5.6490   13.1470 C   0  0  0  0  0  0
   20.8270    5.1780   12.3400 C   0  0  0  0  0  0
   21.1210    4.5500   11.1240 C   0  0  0  0  0  0
   20.0180    4.0090   10.1990 C   0  0  0  0  0  0
   20.1740    4.1220    8.9600 O   0  5  0  0  0  0
   19.0400    3.4550   10.7250 O   0  0  0  0  0  0
   22.4390    4.3950   10.7200 C   0  0  0  0  0  0
   23.4770    4.8550   11.5240 C   0  0  0  0  0  0
   23.1990    5.4840   12.7340 C   0  0  0  0  0  0
   24.0050    6.0480   13.7300 C   0  0  0  0  0  0
   25.2410    6.0900   13.7190 O   0  0  0  0  0  0
   22.6281    9.6057   17.1482 H   0  0  0  0  0  0
   20.6959   10.7661   18.1681 H   0  0  0  0  0  0
   18.9299   11.7385   16.7193 H   0  0  0  0  0  0
   19.0928   11.5494   14.2496 H   0  0  0  0  0  0
   20.2702   10.7776   12.2895 H   0  0  0  0  0  0
   22.2070    9.5947   11.2695 H   0  0  0  0  0  0
   23.9857    8.6506   12.7029 H   0  0  0  0  0  0
   25.0590    8.4880   14.7535 H   0  0  0  0  0  0
   24.4119    9.2785   16.2310 H   0  0  0  0  0  0
   22.8513    7.2109   16.6249 H   0  0  0  0  0  0
   25.6309    6.3006   15.9046 H   0  0  0  0  0  0
   25.3189    7.3601   17.3212 H   0  0  0  0  0  0
   19.7913    5.2998   12.6572 H   0  0  0  0  0  0
   22.6622    3.9110    9.7692 H   0  0  0  0  0  0
   24.5109    4.7224   11.2054 H   0  0  0  0  0  0
  1  2  2  0  0  0
  1  6  1  0  0  0
  1 10  1  0  0  0
  2  3  1  0  0  0
  2 31  1  0  0  0
  3  4  2  0  0  0
  3 32  1  0  0  0
  4  5  1  0  0  0
  4 33  1  0  0  0
  5  6  2  0  0  0
  5 34  1  0  0  0
  6  7  1  0  0  0
  7  8  2  0  0  0
  7 35  1  0  0  0
  8  9  1  0  0  0
  8 36  1  0  0  0
  9 10  2  0  0  0
  9 37  1  0  0  0
 10 11  1  0  0  0
 11 12  1  0  0  0
 11 38  1  0  0  0
 11 39  1  0  0  0
 12 13  1  0  0  0
 12 17  1  0  0  0
 12 40  1  0  0  0
 13 14  1  0  0  0
 13 41  1  0  0  0
 13 42  1  0  0  0
 14 15  2  0  0  0
 14 16  1  0  0  0
 17 18  1  0  0  0
 17 29  1  0  0  0
 18 19  2  0  0  0
 18 20  1  0  0  0
 20 21  2  0  0  0
 20 28  1  0  0  0
 21 22  1  0  0  0
 21 43  1  0  0  0
 22 23  1  0  0  0
 22 26  2  0  0  0
 23 24  1  0  0  0
 23 25  2  0  0  0
 26 27  1  0  0  0
 26 44  1  0  0  0
 27 28  2  0  0  0
 27 45  1  0  0  0
 28 29  1  0  0  0
 29 30  2  0  0  0
M  CHG  2  16  -1  24  -1
M  END
> <s_m_source_file>
../2r9x_ligand.sdf

> <i_m_source_file_index>
1

> <s_epik_input>
W2NIXTFbY0hdW2NIXVtjSF1jKGMxMilbY0hdW2NIXVtjSF1jMltDSDJdW0NASF0oW0NIMl1DKD1PKVtPSF0pTihDMz1PKUMoPU8pYyhjMzQpW2NIXVtjSF1jKFtjSF00KUMoPU8pW09IXQ==

> <s_epik_cmdline>
J2VwaWtfYXBwJywgJy1pbWFlJywgJ2xpZ2FuZF9wcm8ubWFlJywgJy1vbWFlJywgJ2xpZ2FuZF9wcmVwLm1hZScsICctbXMnLCAnMScsICctcGgnLCAnNycsICctcGh0JywgJzAuNScsICctbnQn

> <r_lp_tautomer_probability>
1

> <r_epik_Ionization_Penalty>
  0.0010

> <r_epik_Ionization_Penalty_Charging>
  0.0010

> <r_epik_Ionization_Penalty_Neutral>
  0.0000

> <r_epik_State_Penalty>
 -0.0000

> <r_epik_Charging_Adjusted_Penalty>
0.000973542034892857

> <i_epik_Tot_Q>
-2

> <i_epik_Tot_abs_Q>
2

$$$$
