2rc8_ligand
                    3D
 Schrodinger Suite 2020-3.
 14 13  0  0  1  0            999 V2000
   13.5670   46.9020    7.0420 N   0  3  0  0  0  0
   12.8800   48.2410    7.0130 C   0  0  1  0  0  0
   11.8860   48.3370    8.1270 C   0  0  0  0  0  0
   11.6010   49.4390    8.6370 O   0  5  0  0  0  0
   11.3400   47.2860    8.5120 O   0  0  0  0  0  0
   13.8970   49.3900    7.0220 C   0  0  0  0  0  0
   14.6620   49.3520    8.2250 O   0  0  0  0  0  0
   12.8118   46.1022    7.0347 H   0  0  0  0  0  0
   14.1767   46.8224    7.9541 H   0  0  0  0  0  0
   14.2145   46.8029    6.1583 H   0  0  0  0  0  0
   12.3042   48.3172    6.0788 H   0  0  0  0  0  0
   14.5721   49.2888    6.1595 H   0  0  0  0  0  0
   13.3652   50.3509    6.9606 H   0  0  0  0  0  0
   15.4435   50.1052    8.4039 H   0  0  0  0  0  0
  1  2  1  0  0  0
  1  8  1  0  0  0
  1  9  1  0  0  0
  1 10  1  0  0  0
  2  3  1  0  0  0
  2  6  1  0  0  0
  2 11  1  0  0  0
  3  4  1  0  0  0
  3  5  2  0  0  0
  6  7  1  0  0  0
  6 12  1  0  0  0
  6 13  1  0  0  0
  7 14  1  0  0  0
M  CHG  2   1   1   4  -1
M  END
> <s_m_source_file>
../2rc8_ligand.sdf

> <i_m_source_file_index>
1

> <s_epik_input>
W09IXVtDSDJdW0NAQEhdKFtOSDMrXSlDKD1PKVtPSF0=

> <s_epik_cmdline>
J2VwaWtfYXBwJywgJy1pbWFlJywgJ2xpZ2FuZF9wcm8ubWFlJywgJy1vbWFlJywgJ2xpZ2FuZF9wcmVwLm1hZScsICctbXMnLCAnMScsICctcGgnLCAnNycsICctcGh0JywgJzAuNScsICctbnQn

> <r_lp_tautomer_probability>
1

> <r_epik_Ionization_Penalty>
  0.0007

> <r_epik_Ionization_Penalty_Charging>
  0.0007

> <r_epik_Ionization_Penalty_Neutral>
  0.0000

> <r_epik_State_Penalty>
 -0.0000

> <r_epik_Charging_Adjusted_Penalty>
0.000747601593621184

> <i_epik_Tot_Q>
0

> <i_epik_Tot_abs_Q>
2

$$$$
