2rc9_ligand
                    3D
 Schrodinger Suite 2020-3.
 14 14  0  0  1  0            999 V2000
   13.2580    2.0980    6.6300 C   0  0  0  0  0  0
   14.0680    1.8950    7.9250 C   0  0  0  0  0  0
   13.0070    0.8750    7.5030 C   0  0  0  0  0  0
   11.7680    0.8770    8.3610 C   0  0  0  0  0  0
   11.4420    1.9370    8.9310 O   0  0  0  0  0  0
   11.1150   -0.1990    8.4780 O   0  5  0  0  0  0
   13.5270   -0.3910    6.9960 N   0  3  0  0  0  0
   12.6999    3.0440    6.6911 H   0  0  0  0  0  0
   13.9434    2.1315    5.7703 H   0  0  0  0  0  0
   15.1389    1.8319    7.6816 H   0  0  0  0  0  0
   13.8954    2.7443    8.6024 H   0  0  0  0  0  0
   14.4282   -0.2025    6.3940 H   0  0  0  0  0  0
   12.7634   -0.8770    6.3708 H   0  0  0  0  0  0
   13.7813   -1.0477    7.8411 H   0  0  0  0  0  0
  1  2  1  0  0  0
  1  3  1  0  0  0
  1  8  1  0  0  0
  1  9  1  0  0  0
  2  3  1  0  0  0
  2 10  1  0  0  0
  2 11  1  0  0  0
  3  4  1  0  0  0
  3  7  1  0  0  0
  4  5  2  0  0  0
  4  6  1  0  0  0
  7 12  1  0  0  0
  7 13  1  0  0  0
  7 14  1  0  0  0
M  CHG  2   6  -1   7   1
M  END
> <s_m_source_file>
../2rc9_ligand.sdf

> <i_m_source_file_index>
1

> <s_epik_input>
W0NIMl0xW0NIMl1DMShbTkgzK10pQyg9TylbT0hd

> <s_epik_cmdline>
J2VwaWtfYXBwJywgJy1pbWFlJywgJ2xpZ2FuZF9wcm8ubWFlJywgJy1vbWFlJywgJ2xpZ2FuZF9wcmVwLm1hZScsICctbXMnLCAnMScsICctcGgnLCAnNycsICctcGh0JywgJzAuNScsICctbnQn

> <r_lp_tautomer_probability>
1

> <r_epik_Ionization_Penalty>
  0.0029

> <r_epik_Ionization_Penalty_Charging>
  0.0029

> <r_epik_Ionization_Penalty_Neutral>
  0.0000

> <r_epik_State_Penalty>
 -0.0000

> <r_epik_Charging_Adjusted_Penalty>
0.00292958339328472

> <i_epik_Tot_Q>
0

> <i_epik_Tot_abs_Q>
2

$$$$
