2rcn_ligand
                    3D
 Schrodinger Suite 2020-3.
 40 42  0  0  1  0            999 V2000
   18.3700   65.5040  -14.1160 P   0  0  0  0  0  0
   17.8300   66.0120  -12.8320 O   0  0  0  0  0  0
   17.3780   65.9200  -15.3050 O   0  5  0  0  0  0
   18.4630   63.9020  -14.0360 O   0  5  0  0  0  0
   19.8240   66.1860  -14.3680 O   0  0  0  0  0  0
   20.8560   65.1870  -15.1540 P   0  0  2  0  0  0
   20.2310   64.6020  -16.3640 O   0  0  0  0  0  0
   21.3190   64.0030  -14.1730 O   0  5  0  0  0  0
   22.1630   66.0400  -15.5680 O   0  0  0  0  0  0
   21.7500   67.1750  -16.3510 C   0  0  0  0  0  0
   22.9950   68.0110  -16.7290 C   0  0  1  0  0  0
   23.6530   68.5040  -15.5170 O   0  0  0  0  0  0
   24.0730   67.1810  -17.5110 C   0  0  2  0  0  0
   23.5320   65.9840  -18.0880 O   0  0  0  0  0  0
   25.0960   66.8430  -16.4230 C   0  0  1  0  0  0
   26.3900   66.6300  -16.9800 O   0  0  0  0  0  0
   25.0550   68.1240  -15.5790 C   0  0  2  0  0  0
   25.5980   67.9090  -14.2360 N   0  0  0  0  0  0
   25.1310   67.0230  -13.2920 C   0  0  0  0  0  0
   25.7590   67.1960  -12.1630 N   0  0  0  0  0  0
   26.5880   68.2580  -12.2780 C   0  0  0  0  0  0
   27.5790   68.8470  -11.4360 C   0  0  0  0  0  0
   27.7180   68.4680  -10.2870 O   0  0  0  0  0  0
   28.2810   69.9310  -11.9070 N   0  3  0  0  0  0
   28.1700   70.3190  -13.2280 C   0  0  0  0  0  0
   29.0040   71.2880  -13.7220 N   0  0  0  0  0  0
   27.3130   69.7160  -14.0470 N   0  0  0  0  0  0
   26.4730   68.7440  -13.6070 C   0  0  0  0  0  0
   21.2475   66.8264  -17.2653 H   0  0  0  0  0  0
   21.0548   67.7925  -15.7633 H   0  0  0  0  0  0
   22.6365   68.8674  -17.3189 H   0  0  0  0  0  0
   24.4857   67.6691  -18.4062 H   0  0  0  0  0  0
   22.7800   66.0503  -18.8880 H   0  0  0  0  0  0
   24.9412   65.8967  -15.8839 H   0  0  0  0  0  0
   26.5787   65.7496  -17.6120 H   0  0  0  0  0  0
   25.6576   68.9462  -15.9923 H   0  0  0  0  0  0
   24.3489   66.2834  -13.4637 H   0  0  0  0  0  0
   29.7167   71.7933  -13.0536 H   0  0  0  0  0  0
   28.9606   71.5604  -14.7868 H   0  0  0  0  0  0
   28.9378   70.4972  -11.2302 H   0  0  0  0  0  0
  1  2  2  0  0  0
  1  3  1  0  0  0
  1  4  1  0  0  0
  1  5  1  0  0  0
  5  6  1  0  0  0
  6  7  2  0  0  0
  6  8  1  0  0  0
  6  9  1  0  0  0
  9 10  1  0  0  0
 10 11  1  0  0  0
 10 29  1  0  0  0
 10 30  1  0  0  0
 11 12  1  0  0  0
 11 13  1  0  0  0
 11 31  1  0  0  0
 12 17  1  0  0  0
 13 14  1  0  0  0
 13 15  1  0  0  0
 13 32  1  0  0  0
 14 33  1  0  0  0
 15 16  1  0  0  0
 15 17  1  0  0  0
 15 34  1  0  0  0
 16 35  1  0  0  0
 17 18  1  0  0  0
 17 36  1  0  0  0
 18 19  1  0  0  0
 18 28  1  0  0  0
 19 20  2  0  0  0
 19 37  1  0  0  0
 20 21  1  0  0  0
 21 22  1  0  0  0
 21 28  2  0  0  0
 22 23  2  0  0  0
 22 24  1  0  0  0
 24 25  1  0  0  0
 24 40  1  0  0  0
 25 26  1  0  0  0
 25 27  2  0  0  0
 26 38  1  0  0  0
 26 39  1  0  0  0
 27 28  1  0  0  0
M  CHG  4   3  -1   4  -1   8  -1  24   1
M  END
> <s_m_source_file>
../2rcn_ligand.sdf

> <i_m_source_file_index>
1

> <s_epik_input>
Tz1QKFtPSF0pKFtPSF0pT1tQQF0oPU8pKFtPSF0pT1tDSDJdW0NASF0xT1tDQEhdKFtDQEhdKFtPSF0pW0NASF0xW09IXSluKFtjSF1uMiljKGMyMylbbkhdYyg9TlxbSF0pXFtuSF1jMz1P

> <s_epik_cmdline>
J2VwaWtfYXBwJywgJy1pbWFlJywgJ2xpZ2FuZF9wcm8ubWFlJywgJy1vbWFlJywgJ2xpZ2FuZF9wcmVwLm1hZScsICctbXMnLCAnMScsICctcGgnLCAnNycsICctcGh0JywgJzAuNScsICctbnQn

> <r_epik_Ionization_Penalty>
  2.4918

> <r_epik_Ionization_Penalty_Charging>
  2.4918

> <r_epik_Ionization_Penalty_Neutral>
  0.0000

> <r_epik_State_Penalty>
  0.1302

> <r_epik_Charging_Adjusted_Penalty>
2.62193179535438

> <i_epik_Tot_Q>
-2

> <i_epik_Tot_abs_Q>
4

> <s_epik_Chemistry_Notes>
This compound has an imine and may undergo hydrolysis. This compound contains an acetal/aminal-like group ( X-CH(R)-Y where X, Y are N, S, or O) that may be acid/base labile, releasing an aldehyde.

$$$$
