2rcu_ligand
                    3D
 Schrodinger Suite 2020-3.
 74 73  0  0  1  0            999 V2000
   37.7010  -21.6430   15.0640 O   0  5  0  0  0  0
   37.7080  -21.5990   16.3230 C   0  0  0  0  0  0
   36.8920  -22.2210   17.0390 O   0  0  0  0  0  0
   38.7660  -20.7450   16.9860 C   0  0  0  0  0  0
   38.6390  -20.7370   18.5120 C   0  0  2  0  0  0
   37.7210  -19.5580   18.8510 C   0  0  0  0  0  0
   37.1560  -19.4980   20.2260 N   0  3  0  0  0  0
   36.3540  -20.6820   20.5640 C   0  0  0  0  0  0
   36.2530  -18.3150   20.1950 C   0  0  0  0  0  0
   38.2340  -19.3780   21.2450 C   0  0  0  0  0  0
   40.0080  -20.4280   18.9110 N   0  0  0  0  0  0
   40.7270  -21.1410   19.7890 C   0  0  0  0  0  0
   40.2890  -22.1280   20.3860 O   0  0  0  0  0  0
   42.1580  -20.6460   19.9860 C   0  0  0  0  0  0
   42.7780  -21.0910   21.3060 C   0  0  0  0  0  0
   42.4280  -20.1140   22.4460 C   0  0  0  0  0  0
   43.2260  -20.3510   23.7220 C   0  0  0  0  0  0
   42.6150  -21.4300   24.5950 C   0  0  0  0  0  0
   43.4710  -21.6410   25.8450 C   0  0  0  0  0  0
   43.1080  -22.9470   26.5360 C   0  0  0  0  0  0
   44.0860  -23.3050   27.6540 C   0  0  0  0  0  0
   43.6040  -22.6990   28.9520 C   0  0  0  0  0  0
   44.0900  -23.4670   30.1670 C   0  0  0  0  0  0
   43.3150  -22.9560   31.3690 C   0  0  0  0  0  0
   44.0890  -23.2080   32.6490 C   0  0  0  0  0  0
   43.4880  -22.3940   33.7800 C   0  0  0  0  0  0
   43.8630  -22.9710   35.1370 C   0  0  0  0  0  0
   43.6020  -21.9400   36.2110 C   0  0  0  0  0  0
   39.7632  -21.1327   16.7305 H   0  0  0  0  0  0
   38.6743  -19.7074   16.6324 H   0  0  0  0  0  0
   38.2805  -21.6549   19.0007 H   0  0  0  0  0  0
   38.2728  -18.6151   18.7230 H   0  0  0  0  0  0
   36.8496  -19.5669   18.1797 H   0  0  0  0  0  0
   35.5455  -20.7997   19.8275 H   0  0  0  0  0  0
   35.9207  -20.5571   21.5673 H   0  0  0  0  0  0
   36.9955  -21.5755   20.5502 H   0  0  0  0  0  0
   35.4810  -18.4631   19.4255 H   0  0  0  0  0  0
   36.8376  -17.4136   19.9592 H   0  0  0  0  0  0
   35.7731  -18.1942   21.1774 H   0  0  0  0  0  0
   38.8649  -20.2787   21.2191 H   0  0  0  0  0  0
   37.7846  -19.2736   22.2436 H   0  0  0  0  0  0
   38.8492  -18.4930   21.0254 H   0  0  0  0  0  0
   40.5220  -19.5549   18.4826 H   0  0  0  0  0  0
   42.7943  -21.0322   19.1761 H   0  0  0  0  0  0
   42.1711  -19.5462   19.9698 H   0  0  0  0  0  0
   42.3987  -22.0889   21.5713 H   0  0  0  0  0  0
   43.8724  -21.1304   21.2023 H   0  0  0  0  0  0
   42.6299  -19.0829   22.1202 H   0  0  0  0  0  0
   41.3631  -20.2157   22.7021 H   0  0  0  0  0  0
   44.2484  -20.6631   23.4624 H   0  0  0  0  0  0
   43.2643  -19.4212   24.3086 H   0  0  0  0  0  0
   41.6020  -21.1266   24.8979 H   0  0  0  0  0  0
   42.5620  -22.3724   24.0301 H   0  0  0  0  0  0
   44.5331  -21.6742   25.5607 H   0  0  0  0  0  0
   43.3052  -20.8108   26.5474 H   0  0  0  0  0  0
   42.1039  -22.8617   26.9771 H   0  0  0  0  0  0
   43.1173  -23.7655   25.8012 H   0  0  0  0  0  0
   44.1414  -24.3988   27.7564 H   0  0  0  0  0  0
   45.0827  -22.9086   27.4102 H   0  0  0  0  0  0
   43.9735  -21.6662   29.0339 H   0  0  0  0  0  0
   42.5041  -22.6974   28.9698 H   0  0  0  0  0  0
   43.9062  -24.5414   30.0192 H   0  0  0  0  0  0
   45.1679  -23.2947   30.3027 H   0  0  0  0  0  0
   43.1444  -21.8745   31.2625 H   0  0  0  0  0  0
   42.3473  -23.4756   31.4293 H   0  0  0  0  0  0
   44.0392  -24.2771   32.9032 H   0  0  0  0  0  0
   45.1392  -22.9136   32.5064 H   0  0  0  0  0  0
   43.8592  -21.3600   33.7250 H   0  0  0  0  0  0
   42.3917  -22.3953   33.6903 H   0  0  0  0  0  0
   43.2574  -23.8679   35.3341 H   0  0  0  0  0  0
   44.9293  -23.2410   35.1387 H   0  0  0  0  0  0
   43.8729  -22.3563   37.1925 H   0  0  0  0  0  0
   42.5356  -21.6701   36.2088 H   0  0  0  0  0  0
   44.2076  -21.0432   36.0133 H   0  0  0  0  0  0
  1  2  1  0  0  0
  2  3  2  0  0  0
  2  4  1  0  0  0
  4  5  1  0  0  0
  4 29  1  0  0  0
  4 30  1  0  0  0
  5  6  1  0  0  0
  5 11  1  0  0  0
  5 31  1  0  0  0
  6  7  1  0  0  0
  6 32  1  0  0  0
  6 33  1  0  0  0
  7  8  1  0  0  0
  7  9  1  0  0  0
  7 10  1  0  0  0
  8 34  1  0  0  0
  8 35  1  0  0  0
  8 36  1  0  0  0
  9 37  1  0  0  0
  9 38  1  0  0  0
  9 39  1  0  0  0
 10 40  1  0  0  0
 10 41  1  0  0  0
 10 42  1  0  0  0
 11 12  1  0  0  0
 11 43  1  0  0  0
 12 13  2  0  0  0
 12 14  1  0  0  0
 14 15  1  0  0  0
 14 44  1  0  0  0
 14 45  1  0  0  0
 15 16  1  0  0  0
 15 46  1  0  0  0
 15 47  1  0  0  0
 16 17  1  0  0  0
 16 48  1  0  0  0
 16 49  1  0  0  0
 17 18  1  0  0  0
 17 50  1  0  0  0
 17 51  1  0  0  0
 18 19  1  0  0  0
 18 52  1  0  0  0
 18 53  1  0  0  0
 19 20  1  0  0  0
 19 54  1  0  0  0
 19 55  1  0  0  0
 20 21  1  0  0  0
 20 56  1  0  0  0
 20 57  1  0  0  0
 21 22  1  0  0  0
 21 58  1  0  0  0
 21 59  1  0  0  0
 22 23  1  0  0  0
 22 60  1  0  0  0
 22 61  1  0  0  0
 23 24  1  0  0  0
 23 62  1  0  0  0
 23 63  1  0  0  0
 24 25  1  0  0  0
 24 64  1  0  0  0
 24 65  1  0  0  0
 25 26  1  0  0  0
 25 66  1  0  0  0
 25 67  1  0  0  0
 26 27  1  0  0  0
 26 68  1  0  0  0
 26 69  1  0  0  0
 27 28  1  0  0  0
 27 70  1  0  0  0
 27 71  1  0  0  0
 28 72  1  0  0  0
 28 73  1  0  0  0
 28 74  1  0  0  0
M  CHG  2   1  -1   7   1
M  END
> <s_m_source_file>
../2rcu_ligand.sdf

> <i_m_source_file_index>
1

> <s_epik_input>
W09IXUMoPU8pW0NIMl1bQ0BIXShbQ0gyXVtOK10oW0NIM10pKFtDSDNdKVtDSDNdKVtOSF1DKD1PKVtDSDJdW0NIMl1bQ0gyXVtDSDJdW0NIMl1bQ0gyXVtDSDJdW0NIMl1bQ0gyXVtDSDJdW0NIMl1bQ0gyXVtDSDJdW0NIMl1bQ0gzXQ==

> <s_epik_cmdline>
J2VwaWtfYXBwJywgJy1pbWFlJywgJ2xpZ2FuZF9wcm8ubWFlJywgJy1vbWFlJywgJ2xpZ2FuZF9wcmVwLm1hZScsICctbXMnLCAnMScsICctcGgnLCAnNycsICctcGh0JywgJzAuNScsICctbnQn

> <r_lp_tautomer_probability>
1

> <r_epik_Ionization_Penalty>
  0.0006

> <r_epik_Ionization_Penalty_Charging>
  0.0006

> <r_epik_Ionization_Penalty_Neutral>
  0.0000

> <r_epik_State_Penalty>
 -0.0000

> <r_epik_Charging_Adjusted_Penalty>
0.000621064069903769

> <i_epik_Tot_Q>
0

> <i_epik_Tot_abs_Q>
2

$$$$
