2rcw_ligand
                    3D
 Schrodinger Suite 2020-3.
 43 45  0  0  1  0            999 V2000
  -24.8700   64.2680   26.2490 C   0  0  0  0  0  0
  -24.8790   65.1870   25.2770 N   0  0  0  0  0  0
  -26.1880   65.2880   24.8200 C   0  0  0  0  0  0
  -26.9610   64.3500   25.6060 C   0  0  0  0  0  0
  -26.0850   63.7380   26.4860 N   0  0  0  0  0  0
  -26.8180   66.0740   23.8240 C   0  0  0  0  0  0
  -28.2260   65.9160   23.6140 C   0  0  0  0  0  0
  -28.9780   64.9920   24.3890 C   0  0  0  0  0  0
  -28.3310   64.2120   25.3860 C   0  0  0  0  0  0
  -26.0900   67.0640   22.9750 C   0  0  0  0  0  0
  -24.7680   67.1630   23.1620 N   0  0  0  0  0  0
  -26.6380   67.7780   22.1380 O   0  0  0  0  0  0
  -23.6070   63.8700   27.0030 C   0  0  1  0  0  0
  -23.1630   65.0110   27.9420 C   0  0  0  0  0  0
  -21.9360   64.5860   28.7820 C   0  0  0  0  0  0
  -22.1970   63.3540   29.5870 N   0  3  1  0  0  0
  -22.6400   62.2200   28.7170 C   0  0  0  0  0  0
  -23.8530   62.5720   27.8200 C   0  0  0  0  0  0
  -21.0040   62.9840   30.4080 C   0  0  0  0  0  0
  -19.7140   62.6330   29.6230 C   0  0  0  0  0  0
  -18.5410   62.2900   30.5470 C   0  0  0  0  0  0
  -28.7268   66.5115   22.8507 H   0  0  0  0  0  0
  -30.0589   64.8798   24.2184 H   0  0  0  0  0  0
  -28.9113   63.4965   25.9871 H   0  0  0  0  0  0
  -24.2691   66.5280   23.9089 H   0  0  0  0  0  0
  -24.1807   67.8793   22.5687 H   0  0  0  0  0  0
  -22.8165   63.6911   26.2593 H   0  0  0  0  0  0
  -22.8942   65.8943   27.3441 H   0  0  0  0  0  0
  -23.9876   65.2668   28.6237 H   0  0  0  0  0  0
  -21.0868   64.3817   28.1133 H   0  0  0  0  0  0
  -21.6689   65.3959   29.4768 H   0  0  0  0  0  0
  -23.0201   63.5755   30.2823 H   0  0  0  0  0  0
  -21.8141   61.9219   28.0544 H   0  0  0  0  0  0
  -22.9310   61.3665   29.3470 H   0  0  0  0  0  0
  -24.7332   62.7066   28.4658 H   0  0  0  0  0  0
  -24.0287   61.7328   27.1309 H   0  0  0  0  0  0
  -20.7384   63.8231   31.0678 H   0  0  0  0  0  0
  -21.2384   62.0986   31.0172 H   0  0  0  0  0  0
  -19.9029   61.7625   28.9777 H   0  0  0  0  0  0
  -19.4171   63.4916   29.0028 H   0  0  0  0  0  0
  -17.6549   62.0499   29.9410 H   0  0  0  0  0  0
  -18.8059   61.4223   31.1691 H   0  0  0  0  0  0
  -18.3201   63.1515   31.1943 H   0  0  0  0  0  0
  1  2  2  0  0  0
  1  5  1  0  0  0
  1 13  1  0  0  0
  2  3  1  0  0  0
  3  4  1  0  0  0
  3  6  2  0  0  0
  4  5  2  0  0  0
  4  9  1  0  0  0
  6  7  1  0  0  0
  6 10  1  0  0  0
  7  8  1  0  0  0
  7 22  1  0  0  0
  8  9  2  0  0  0
  8 23  1  0  0  0
  9 24  1  0  0  0
 10 11  1  0  0  0
 10 12  2  0  0  0
 11 25  1  0  0  0
 11 26  1  0  0  0
 13 14  1  0  0  0
 13 18  1  0  0  0
 13 27  1  0  0  0
 14 15  1  0  0  0
 14 28  1  0  0  0
 14 29  1  0  0  0
 15 16  1  0  0  0
 15 30  1  0  0  0
 15 31  1  0  0  0
 16 17  1  0  0  0
 16 19  1  0  0  0
 16 32  1  0  0  0
 17 18  1  0  0  0
 17 33  1  0  0  0
 17 34  1  0  0  0
 18 35  1  0  0  0
 18 36  1  0  0  0
 19 20  1  0  0  0
 19 37  1  0  0  0
 19 38  1  0  0  0
 20 21  1  0  0  0
 20 39  1  0  0  0
 20 40  1  0  0  0
 21 41  1  0  0  0
 21 42  1  0  0  0
 21 43  1  0  0  0
M  CHG  1  16   1
M  END
> <s_m_source_file>
../2rcw_ligand.sdf

> <i_m_source_file_index>
1

> <s_epik_input>
W0NIM11bQ0gyXVtDSDJdW05ASCtdKFtDSDJdW0NIMl0xKVtDSDJdW0NIMl1bQ0BASF0xQyg9TjIpTj1DKEMyPTMpW0NIXT1bQ0hdW0NIMl1DM0MoPU8pW05IMl0=

> <s_epik_cmdline>
J2VwaWtfYXBwJywgJy1pbWFlJywgJ2xpZ2FuZF9wcm8ubWFlJywgJy1vbWFlJywgJ2xpZ2FuZF9wcmVwLm1hZScsICctbXMnLCAnMScsICctcGgnLCAnNycsICctcGh0JywgJzAuNScsICctbnQn

> <r_lp_tautomer_probability>
1

> <r_epik_Ionization_Penalty>
  0.0797

> <r_epik_Ionization_Penalty_Charging>
  0.0609

> <r_epik_Ionization_Penalty_Neutral>
  0.0188

> <r_epik_State_Penalty>
 -0.0000

> <r_epik_Charging_Adjusted_Penalty>
0.0608601597248298

> <i_epik_Tot_Q>
1

> <i_epik_Tot_abs_Q>
1

> <s_epik_Chemistry_Notes>
This compound has an imine and may undergo hydrolysis.

$$$$
