2rd6_ligand
                    3D
 Schrodinger Suite 2020-3.
 35 37  0  0  1  0            999 V2000
   26.5400   65.6230    9.3920 C   0  0  0  0  0  0
   26.9380   66.4290   10.4920 C   0  0  0  0  0  0
   28.2920   66.3560   10.9360 C   0  0  0  0  0  0
   25.5670   64.5520    7.7490 C   0  0  0  0  0  0
   26.0130   67.3690   11.2180 C   0  0  0  0  0  0
   24.4690   64.0880    6.7730 C   0  0  1  0  0  0
   22.3940   63.6700    7.8910 C   0  0  0  0  0  0
   24.2720   62.5770    6.8630 C   0  0  0  0  0  0
   29.2270   65.4930   10.2900 C   0  0  0  0  0  0
   28.8190   64.6970    9.1930 C   0  0  0  0  0  0
   27.4990   64.7530    8.7410 C   0  0  0  0  0  0
   26.8370   64.1060    7.7180 N   0  3  0  0  0  0
   25.3440   65.4470    8.7180 N   0  0  0  0  0  0
   24.7080   67.3040   10.9130 N   0  0  0  0  0  0
   26.3940   68.1870   12.0460 O   0  0  0  0  0  0
   23.1570   64.6780    7.1410 N   0  3  0  0  0  0
   23.2480   62.4100    7.9760 C   0  0  0  0  0  0
   24.8840   64.5500    5.3750 C   0  0  0  0  0  0
   28.6161   66.9667   11.7787 H   0  0  0  0  0  0
   22.1743   64.0516    8.8990 H   0  0  0  0  0  0
   21.4511   63.4581    7.3656 H   0  0  0  0  0  0
   23.9039   62.1972    5.8985 H   0  0  0  0  0  0
   25.2313   62.0959    7.1045 H   0  0  0  0  0  0
   30.2575   65.4467   10.6421 H   0  0  0  0  0  0
   29.5358   64.0398    8.7007 H   0  0  0  0  0  0
   24.3523   66.5739   10.1711 H   0  0  0  0  0  0
   23.9938   67.9808   11.4049 H   0  0  0  0  0  0
   23.3180   65.5705    7.7635 H   0  0  0  0  0  0
   22.6132   64.9613    6.2277 H   0  0  0  0  0  0
   23.7214   62.3541    8.9673 H   0  0  0  0  0  0
   22.6125   61.5253    7.8228 H   0  0  0  0  0  0
   25.8564   64.1059    5.1157 H   0  0  0  0  0  0
   24.9663   65.6468    5.3607 H   0  0  0  0  0  0
   24.1277   64.2295    4.6434 H   0  0  0  0  0  0
   27.1419   63.3663    6.9631 H   0  0  0  0  0  0
  1  2  2  0  0  0
  1 11  1  0  0  0
  1 13  1  0  0  0
  2  3  1  0  0  0
  2  5  1  0  0  0
  3  9  2  0  0  0
  3 19  1  0  0  0
  4  6  1  0  0  0
  4 12  1  0  0  0
  4 13  2  0  0  0
  5 14  1  0  0  0
  5 15  2  0  0  0
  6  8  1  0  0  0
  6 16  1  0  0  0
  6 18  1  0  0  0
  7 16  1  0  0  0
  7 17  1  0  0  0
  7 20  1  0  0  0
  7 21  1  0  0  0
  8 17  1  0  0  0
  8 22  1  0  0  0
  8 23  1  0  0  0
  9 10  1  0  0  0
  9 24  1  0  0  0
 10 11  2  0  0  0
 10 25  1  0  0  0
 11 12  1  0  0  0
 12 35  1  0  0  0
 14 26  1  0  0  0
 14 27  1  0  0  0
 16 28  1  0  0  0
 16 29  1  0  0  0
 17 30  1  0  0  0
 17 31  1  0  0  0
 18 32  1  0  0  0
 18 33  1  0  0  0
 18 34  1  0  0  0
M  CHG  2  12   1  16   1
M  END
> <s_m_source_file>
../2rd6_ligand.sdf

> <i_m_source_file_index>
1

> <s_epik_input>
W05IMl1DKD1PKWMxW2NIXVtjSF1bY0hdYyhjMTIpW25IXWMobjIpW0NAQF0zKFtDSDNdKVtDSDJdW0NIMl1bQ0gyXVtOSDIrXTM=

> <s_epik_cmdline>
J2VwaWtfYXBwJywgJy1pbWFlJywgJ2xpZ2FuZF9wcm8ubWFlJywgJy1vbWFlJywgJ2xpZ2FuZF9wcmVwLm1hZScsICctbXMnLCAnMScsICctcGgnLCAnNycsICctcGh0JywgJzAuNScsICctbnQn

> <r_epik_Ionization_Penalty>
  0.0014

> <r_epik_Ionization_Penalty_Charging>
  0.0013

> <r_epik_Ionization_Penalty_Neutral>
  0.0000

> <r_epik_State_Penalty>
  0.1498

> <r_epik_Charging_Adjusted_Penalty>
0.151175409822366

> <i_epik_Tot_Q>
2

> <i_epik_Tot_abs_Q>
2

> <s_epik_Chemistry_Notes>
This compound has an imine and may undergo hydrolysis.

$$$$
