2rf2_ligand
                    3D
 Schrodinger Suite 2020-3.
 34 36  0  0  1  0            999 V2000
    6.6800   10.2160   18.0890 Br  0  0  0  0  0  0
    7.4420   11.5910   16.9300 C   0  0  0  0  0  0
    8.7500   12.1020   17.0540 C   0  0  0  0  0  0
    6.6520   12.0880   15.8560 C   0  0  0  0  0  0
    7.1630   13.0090   14.9290 C   0  0  0  0  0  0
    8.4540   13.5170   15.1070 C   0  0  0  0  0  0
    9.1950   14.4610   14.3710 N   0  0  0  0  0  0
   10.4590   14.6970   14.8560 C   0  0  0  0  0  0
   11.2090   15.6740   14.1570 C   0  0  0  0  0  0
   12.5280   16.1410   14.4480 N   0  0  0  0  0  0
   10.6330   16.2420   13.1600 O   0  0  0  0  0  0
   10.5760   13.8330   15.9840 C   0  0  3  0  0  0
    9.2890   13.0740   16.1480 C   0  0  0  0  0  0
   11.9600   13.6750   17.0640 S   0  0  0  0  0  0
   13.0900   14.4320   16.4800 O   0  0  0  0  0  0
   11.8340   12.3280   17.5590 O   0  0  0  0  0  0
   11.6390   14.5860   18.5490 N   0  0  0  0  0  0
   11.5470   16.0860   18.5370 C   0  0  0  0  0  0
   10.9450   16.5560   19.8330 C   0  0  0  0  0  0
   10.6930   15.2130   20.5450 C   0  0  0  0  0  0
   10.4640   14.2360   19.3940 C   0  0  0  0  0  0
    9.3765   11.7440   17.8710 H   0  0  0  0  0  0
    5.6230   11.7443   15.7507 H   0  0  0  0  0  0
    6.5596   13.3256   14.0782 H   0  0  0  0  0  0
   13.0925   15.7073   15.2866 H   0  0  0  0  0  0
   12.9787   16.9342   13.8334 H   0  0  0  0  0  0
   12.5536   16.5142   18.4212 H   0  0  0  0  0  0
   10.9129   16.4078   17.6977 H   0  0  0  0  0  0
   11.6635   17.2029   20.3577 H   0  0  0  0  0  0
   10.0250   17.1223   19.6259 H   0  0  0  0  0  0
   11.5726   14.9480   21.1500 H   0  0  0  0  0  0
    9.8126   15.3038   21.1982 H   0  0  0  0  0  0
    9.5385   14.4127   18.8263 H   0  0  0  0  0  0
   10.5214   13.1756   19.6808 H   0  0  0  0  0  0
  1  2  1  0  0  0
  2  3  2  0  0  0
  2  4  1  0  0  0
  3 13  1  0  0  0
  3 22  1  0  0  0
  4  5  2  0  0  0
  4 23  1  0  0  0
  5  6  1  0  0  0
  5 24  1  0  0  0
  6  7  1  0  0  0
  6 13  2  0  0  0
  7  8  2  0  0  0
  8  9  1  0  0  0
  8 12  1  0  0  0
  9 10  1  0  0  0
  9 11  2  0  0  0
 10 25  1  0  0  0
 10 26  1  0  0  0
 12 13  1  0  0  0
 12 14  1  0  0  0
 14 15  2  0  0  0
 14 16  2  0  0  0
 14 17  1  0  0  0
 17 18  1  0  0  0
 17 21  1  0  0  0
 18 19  1  0  0  0
 18 27  1  0  0  0
 18 28  1  0  0  0
 19 20  1  0  0  0
 19 29  1  0  0  0
 19 30  1  0  0  0
 20 21  1  0  0  0
 20 31  1  0  0  0
 20 32  1  0  0  0
 21 33  1  0  0  0
 21 34  1  0  0  0
M  END
> <s_m_source_file>
../2rf2_ligand.sdf

> <i_m_source_file_index>
1

> <s_epik_input>
W2NIXTFbY0hdYyhCcilbY0hdYyhjMTIpW0NIXShDKD1OMilDKD1PKVtOSDJdKVMoPU8pKD1PKU4zW0NIMl1bQ0gyXVtDSDJdW0NIMl0z

> <s_epik_cmdline>
J2VwaWtfYXBwJywgJy1pbWFlJywgJ2xpZ2FuZF9wcm8ubWFlJywgJy1vbWFlJywgJ2xpZ2FuZF9wcmVwLm1hZScsICctbXMnLCAnMScsICctcGgnLCAnNycsICctcGh0JywgJzAuNScsICctbnQn

> <r_lp_tautomer_probability>
1

> <r_epik_Ionization_Penalty>
  0.0000

> <r_epik_Ionization_Penalty_Charging>
  0.0000

> <r_epik_Ionization_Penalty_Neutral>
  0.0000

> <r_epik_State_Penalty>
 -0.0000

> <r_epik_Charging_Adjusted_Penalty>
0

> <i_epik_Tot_Q>
0

> <i_epik_Tot_abs_Q>
0

> <s_epik_Chemistry_Notes>
This compound has an imine and may undergo hydrolysis.

$$$$
