2rfh_ligand
                    3D
 Schrodinger Suite 2020-3.
 25 25  0  0  1  0            999 V2000
    9.4810  -10.0730   20.3230 C   0  0  0  0  0  0
    8.3250   -9.3720   19.9800 C   0  0  0  0  0  0
    7.3870   -9.0520   20.9680 C   0  0  0  0  0  0
    7.6260   -9.4380   22.2870 C   0  0  0  0  0  0
    8.7860  -10.1290   22.6290 C   0  0  0  0  0  0
    9.7120  -10.4540   21.6420 C   0  0  0  0  0  0
   10.9970  -11.1850   22.0180 C   0  0  0  0  0  0
   11.9930  -10.0560   22.3860 C   0  0  1  0  0  0
   12.3720  -10.0180   23.8860 C   0  0  0  0  0  0
   12.2490   -8.9020   24.4010 O   0  0  0  0  0  0
   12.7620  -11.0540   24.4830 O   0  5  0  0  0  0
   13.2130   -9.9330   21.4600 C   0  0  0  0  0  0
   13.7850   -8.5830   21.6850 N   0  3  0  0  0  0
   14.8050   -8.6270   22.6940 O   0  0  0  0  0  0
   14.3580   -7.9680   20.5070 O   0  5  0  0  0  0
   10.2094  -10.3246   19.5522 H   0  0  0  0  0  0
    8.1527   -9.0744   18.9457 H   0  0  0  0  0  0
    6.4792   -8.5069   20.7096 H   0  0  0  0  0  0
    6.8961   -9.1959   23.0595 H   0  0  0  0  0  0
    8.9678  -10.4140   23.6652 H   0  0  0  0  0  0
   10.8026  -11.8539   22.8694 H   0  0  0  0  0  0
   11.3470  -11.7767   21.1593 H   0  0  0  0  0  0
   11.4207   -9.1372   22.1905 H   0  0  0  0  0  0
   13.9447  -10.7148   21.7118 H   0  0  0  0  0  0
   12.8933  -10.0531   20.4144 H   0  0  0  0  0  0
  1  2  2  0  0  0
  1  6  1  0  0  0
  1 16  1  0  0  0
  2  3  1  0  0  0
  2 17  1  0  0  0
  3  4  2  0  0  0
  3 18  1  0  0  0
  4  5  1  0  0  0
  4 19  1  0  0  0
  5  6  2  0  0  0
  5 20  1  0  0  0
  6  7  1  0  0  0
  7  8  1  0  0  0
  7 21  1  0  0  0
  7 22  1  0  0  0
  8  9  1  0  0  0
  8 12  1  0  0  0
  8 23  1  0  0  0
  9 10  2  0  0  0
  9 11  1  0  0  0
 12 13  1  0  0  0
 12 24  1  0  0  0
 12 25  1  0  0  0
 13 14  2  0  0  0
 13 15  1  0  0  0
M  CHG  3  11  -1  13   1  15  -1
M  END
> <s_m_source_file>
../2rfh_ligand.sdf

> <i_m_source_file_index>
1

> <s_epik_input>
W2NIXTFbY0hdW2NIXVtjSF1bY0hdYzFbQ0gyXVtDQEBIXShDKD1PKVtPSF0pW0NIMl1bTitdKD1PKVtPLV0=

> <s_epik_cmdline>
J2VwaWtfYXBwJywgJy1pbWFlJywgJ2xpZ2FuZF9wcm8ubWFlJywgJy1vbWFlJywgJ2xpZ2FuZF9wcmVwLm1hZScsICctbXMnLCAnMScsICctcGgnLCAnNycsICctcGh0JywgJzAuNScsICctbnQn

> <r_lp_tautomer_probability>
1

> <r_epik_Ionization_Penalty>
  0.0007

> <r_epik_Ionization_Penalty_Charging>
  0.0002

> <r_epik_Ionization_Penalty_Neutral>
  0.0005

> <r_epik_State_Penalty>
 -0.0000

> <r_epik_Charging_Adjusted_Penalty>
0.00016334959147066

> <i_epik_Tot_Q>
-1

> <i_epik_Tot_abs_Q>
3

$$$$
