2rfn_ligand
                    3D
 Schrodinger Suite 2020-3.
 80 85  0  0  1  0            999 V2000
   58.2790    9.6300  127.1800 N   0  0  0  0  0  0
   63.4650   17.0740  111.4590 N   0  0  0  0  0  0
   58.1170   10.3360  128.4840 C   0  0  0  0  0  0
   64.5900   16.7850  108.2710 C   0  0  0  0  0  0
   65.7610   16.4710  108.9570 C   0  0  0  0  0  0
   66.8520   15.9530  108.2540 C   0  0  0  0  0  0
   66.7710   15.7430  106.8770 C   0  0  0  0  0  0
   64.5070   16.5800  106.8940 C   0  0  0  0  0  0
   63.0110   16.6030  110.2800 C   0  0  0  0  0  0
   61.5140   13.6160  116.4240 C   0  0  0  0  0  0
   62.1090   13.3590  114.0730 C   0  0  0  0  0  0
   61.4940   15.0060  116.2800 C   0  0  0  0  0  0
   61.5920   12.4350  119.9120 C   0  0  0  0  0  0
   60.2570   12.0540  120.0540 C   0  0  0  0  0  0
   60.6680   11.4880  122.3660 C   0  0  0  0  0  0
   62.4510   12.3510  121.0100 C   0  0  0  0  0  0
   63.4000   13.2980  118.6280 C   0  0  0  0  0  0
   57.0650    9.0140  126.5510 C   0  0  0  0  0  0
   55.8300    8.8870  127.4800 C   0  0  0  0  0  0
   55.7990    9.8720  128.5420 O   0  0  0  0  0  0
   56.9890    9.7360  129.3300 C   0  0  0  0  0  0
   58.8590   10.5960  126.2170 C   0  0  0  0  0  0
   60.2400   10.1090  125.7810 C   0  0  0  0  0  0
   60.9210   11.0250  124.7470 C   0  0  0  0  0  0
   60.1620   10.9950  123.5270 O   0  0  0  0  0  0
   61.9950   11.8690  122.2290 C   0  0  0  0  0  0
   59.7910   11.5700  121.2800 C   0  0  0  0  0  0
   58.4770   11.1870  121.4690 O   0  0  0  0  0  0
   57.8200   10.4470  120.4250 C   0  0  0  0  0  0
   63.7260   12.7300  120.9110 N   0  0  0  0  0  0
   64.2120   13.1850  119.7650 C   0  0  0  0  0  0
   62.0620   12.9230  118.6880 C   0  0  0  0  0  0
   61.2080   13.0110  117.6100 O   0  0  0  0  0  0
   61.8050   12.8160  115.3160 C   0  0  0  0  0  0
   61.8190   11.4840  115.4580 F   0  0  0  0  0  0
   61.7980   15.5540  115.0240 C   0  0  0  0  0  0
   62.1110   14.7460  113.9190 C   0  0  0  0  0  0
   62.3950   15.3320  112.6720 C   0  0  0  0  0  0
   61.8880   14.7980  111.4680 C   0  0  0  0  0  0
   61.1870   13.7770  111.4530 O   0  0  0  0  0  0
   62.1940   15.4410  110.2450 N   0  0  0  0  0  0
   61.6680   14.8790  108.9570 C   0  0  0  0  0  0
   63.1810   16.4820  112.6130 C   0  0  0  0  0  0
   63.3790   17.3660  109.0060 C   0  0  0  0  0  0
   65.5900   16.0540  106.2030 C   0  0  0  0  0  0
   59.0518   10.2628  129.0592 H   0  0  0  0  0  0
   57.8811   11.3947  128.3010 H   0  0  0  0  0  0
   65.8258   16.6281  110.0337 H   0  0  0  0  0  0
   67.7727   15.7113  108.7851 H   0  0  0  0  0  0
   67.6242   15.3390  106.3320 H   0  0  0  0  0  0
   63.5911   16.8330  106.3600 H   0  0  0  0  0  0
   62.3428   12.7097  113.2293 H   0  0  0  0  0  0
   61.2478   15.6501  117.1242 H   0  0  0  0  0  0
   59.5758   12.1340  119.2068 H   0  0  0  0  0  0
   63.8174   13.6800  117.6963 H   0  0  0  0  0  0
   56.7481    9.6233  125.6918 H   0  0  0  0  0  0
   57.3052    7.9962  126.2100 H   0  0  0  0  0  0
   54.9115    9.0134  126.8881 H   0  0  0  0  0  0
   55.8276    7.8940  127.9531 H   0  0  0  0  0  0
   57.2109    8.6794  129.5405 H   0  0  0  0  0  0
   56.9070   10.2892  130.2772 H   0  0  0  0  0  0
   58.2028   10.6761  125.3378 H   0  0  0  0  0  0
   58.9511   11.5816  126.6967 H   0  0  0  0  0  0
   60.9029   10.0543  126.6571 H   0  0  0  0  0  0
   60.1503    9.1115  125.3262 H   0  0  0  0  0  0
   60.9585   12.0531  125.1364 H   0  0  0  0  0  0
   61.9438   10.6672  124.5575 H   0  0  0  0  0  0
   62.6769   11.7901  123.0757 H   0  0  0  0  0  0
   56.7874   10.2212  120.7297 H   0  0  0  0  0  0
   58.3627    9.5074  120.2443 H   0  0  0  0  0  0
   57.8075   11.0465  119.5028 H   0  0  0  0  0  0
   65.2607   13.4762  119.7056 H   0  0  0  0  0  0
   61.7909   16.6372  114.9030 H   0  0  0  0  0  0
   62.0053   15.5061  108.1185 H   0  0  0  0  0  0
   60.5685   14.8648  108.9851 H   0  0  0  0  0  0
   62.0447   13.8542  108.8232 H   0  0  0  0  0  0
   63.5723   16.9059  113.5378 H   0  0  0  0  0  0
   63.5902   18.4059  109.2957 H   0  0  0  0  0  0
   62.5013   17.3410  108.3434 H   0  0  0  0  0  0
   65.5172   15.8832  105.1289 H   0  0  0  0  0  0
  1  3  1  0  0  0
  1 18  1  0  0  0
  1 22  1  0  0  0
  2  9  2  0  0  0
  2 43  1  0  0  0
  3 21  1  0  0  0
  3 46  1  0  0  0
  3 47  1  0  0  0
  4  5  2  0  0  0
  4  8  1  0  0  0
  4 44  1  0  0  0
  5  6  1  0  0  0
  5 48  1  0  0  0
  6  7  2  0  0  0
  6 49  1  0  0  0
  7 45  1  0  0  0
  7 50  1  0  0  0
  8 45  2  0  0  0
  8 51  1  0  0  0
  9 41  1  0  0  0
  9 44  1  0  0  0
 10 12  2  0  0  0
 10 33  1  0  0  0
 10 34  1  0  0  0
 11 34  2  0  0  0
 11 37  1  0  0  0
 11 52  1  0  0  0
 12 36  1  0  0  0
 12 53  1  0  0  0
 13 14  2  0  0  0
 13 16  1  0  0  0
 13 32  1  0  0  0
 14 27  1  0  0  0
 14 54  1  0  0  0
 15 25  1  0  0  0
 15 26  1  0  0  0
 15 27  2  0  0  0
 16 26  2  0  0  0
 16 30  1  0  0  0
 17 31  1  0  0  0
 17 32  2  0  0  0
 17 55  1  0  0  0
 18 19  1  0  0  0
 18 56  1  0  0  0
 18 57  1  0  0  0
 19 20  1  0  0  0
 19 58  1  0  0  0
 19 59  1  0  0  0
 20 21  1  0  0  0
 21 60  1  0  0  0
 21 61  1  0  0  0
 22 23  1  0  0  0
 22 62  1  0  0  0
 22 63  1  0  0  0
 23 24  1  0  0  0
 23 64  1  0  0  0
 23 65  1  0  0  0
 24 25  1  0  0  0
 24 66  1  0  0  0
 24 67  1  0  0  0
 26 68  1  0  0  0
 27 28  1  0  0  0
 28 29  1  0  0  0
 29 69  1  0  0  0
 29 70  1  0  0  0
 29 71  1  0  0  0
 30 31  2  0  0  0
 31 72  1  0  0  0
 32 33  1  0  0  0
 34 35  1  0  0  0
 36 37  2  0  0  0
 36 73  1  0  0  0
 37 38  1  0  0  0
 38 39  1  0  0  0
 38 43  2  0  0  0
 39 40  2  0  0  0
 39 41  1  0  0  0
 41 42  1  0  0  0
 42 74  1  0  0  0
 42 75  1  0  0  0
 42 76  1  0  0  0
 43 77  1  0  0  0
 44 78  1  0  0  0
 44 79  1  0  0  0
 45 80  1  0  0  0
M  END
> <s_m_source_file>
../2rfn_ligand.sdf

> <i_m_source_file_index>
1

> <s_epik_input>
W0NIMl0xW0NIMl1PW0NIMl1bQ0gyXVtOSCtdMVtDSDJdW0NIMl1bQ0gyXU9jKGMoW2NIXTIpT1tDSDNdKVtjSF1jKGMyMyluW2NIXVtjSF1jM09jNFtjSF1bY0hdYyhbY0hdYzRGKS1jKGMoPU8pbjVbQ0gzXSlbY0hdbmM1W0NIMl1jNltjSF1bY0hdW2NIXVtjSF1bY0hdNg==

> <s_epik_cmdline>
J2VwaWtfYXBwJywgJy1pbWFlJywgJ2xpZ2FuZF9wcm8ubWFlJywgJy1vbWFlJywgJ2xpZ2FuZF9wcmVwLm1hZScsICctbXMnLCAnMScsICctcGgnLCAnNycsICctcGh0JywgJzAuNScsICctbnQn

> <r_lp_tautomer_probability>
1

> <r_epik_Ionization_Penalty>
  0.5665

> <r_epik_Ionization_Penalty_Charging>
  0.0000

> <r_epik_Ionization_Penalty_Neutral>
  0.5665

> <r_epik_State_Penalty>
  0.4064

> <r_epik_Charging_Adjusted_Penalty>
0.406387616797415

> <i_epik_Tot_Q>
0

> <i_epik_Tot_abs_Q>
0

$$$$
