2rfy_ligand
                    3D
 Schrodinger Suite 2020-3.
 45 46  0  0  1  0            999 V2000
   -0.2090   -5.2640   75.8990 C   0  0  1  0  0  0
    0.8220   -4.2910   75.3180 C   0  0  1  0  0  0
    0.8520   -4.3480   73.7900 C   0  0  2  0  0  0
    0.8400   -5.7940   73.2910 C   0  0  1  0  0  0
   -0.2460   -6.6040   74.0040 C   0  0  1  0  0  0
   -0.1760   -8.0640   73.5450 C   0  0  0  0  0  0
    0.4730   -2.9840   75.7780 O   0  0  0  0  0  0
    2.0350   -3.7060   73.2970 O   0  0  0  0  0  0
    0.6350   -5.8390   71.8820 O   0  0  0  0  0  0
    0.0730   -6.5790   75.4090 O   0  0  0  0  0  0
   -1.2630   -8.7740   74.1510 O   0  0  0  0  0  0
   -1.6000   -7.2850   80.3020 C   0  0  2  0  0  0
   -1.5520   -8.2030   79.0760 C   0  0  1  0  0  0
   -0.9050   -7.4370   77.9260 C   0  0  2  0  0  0
   -1.2290   -5.9660   77.8750 C   0  0  1  0  0  0
   -1.7380   -5.2870   79.1170 C   0  0  1  0  0  0
   -2.7170   -4.1740   78.6980 C   0  0  0  0  0  0
   -1.9960   -7.9400   81.4930 O   0  0  0  0  0  0
   -0.7600   -9.3560   79.3920 O   0  0  0  0  0  0
   -1.1560   -8.0500   76.6570 O   0  0  0  0  0  0
   -0.1240   -5.2470   77.3300 O   0  0  0  0  0  0
   -2.4590   -6.1850   79.9770 O   0  0  0  0  0  0
   -3.1570   -4.4220   77.3630 O   0  0  0  0  0  0
   -1.2482   -5.0224   75.6314 H   0  0  0  0  0  0
    1.8380   -4.4995   75.6845 H   0  0  0  0  0  0
   -0.0045   -3.7872   73.3876 H   0  0  0  0  0  0
    1.8289   -6.2510   73.4433 H   0  0  0  0  0  0
   -1.2483   -6.1793   73.8457 H   0  0  0  0  0  0
   -0.2588   -8.1081   72.4490 H   0  0  0  0  0  0
    0.7836   -8.5012   73.8581 H   0  0  0  0  0  0
    0.4086   -2.7797   76.8569 H   0  0  0  0  0  0
    2.2334   -2.6529   73.5453 H   0  0  0  0  0  0
    1.3248   -5.3091   71.2086 H   0  0  0  0  0  0
   -1.3981   -9.8473   73.9516 H   0  0  0  0  0  0
   -0.6132   -6.8983   80.5963 H   0  0  0  0  0  0
   -2.5458   -8.5824   78.7959 H   0  0  0  0  0  0
    0.1815   -7.5188   78.0771 H   0  0  0  0  0  0
   -2.0809   -5.8984   77.1824 H   0  0  0  0  0  0
   -0.8695   -4.9486   79.7011 H   0  0  0  0  0  0
   -3.5808   -4.1700   79.3790 H   0  0  0  0  0  0
   -2.2076   -3.2003   78.7463 H   0  0  0  0  0  0
   -1.4241   -8.8043   81.8616 H   0  0  0  0  0  0
   -1.0725  -10.0331   80.2006 H   0  0  0  0  0  0
   -0.9713   -9.1257   76.5197 H   0  0  0  0  0  0
   -3.8659   -3.7329   76.8806 H   0  0  0  0  0  0
  1  2  1  0  0  0
  1 10  1  0  0  0
  1 21  1  0  0  0
  1 24  1  0  0  0
  2  3  1  0  0  0
  2  7  1  0  0  0
  2 25  1  0  0  0
  3  4  1  0  0  0
  3  8  1  0  0  0
  3 26  1  0  0  0
  4  5  1  0  0  0
  4  9  1  0  0  0
  4 27  1  0  0  0
  5  6  1  0  0  0
  5 10  1  0  0  0
  5 28  1  0  0  0
  6 11  1  0  0  0
  6 29  1  0  0  0
  6 30  1  0  0  0
  7 31  1  0  0  0
  8 32  1  0  0  0
  9 33  1  0  0  0
 11 34  1  0  0  0
 12 13  1  0  0  0
 12 18  1  0  0  0
 12 22  1  0  0  0
 12 35  1  0  0  0
 13 14  1  0  0  0
 13 19  1  0  0  0
 13 36  1  0  0  0
 14 15  1  0  0  0
 14 20  1  0  0  0
 14 37  1  0  0  0
 15 16  1  0  0  0
 15 21  1  0  0  0
 15 38  1  0  0  0
 16 17  1  0  0  0
 16 22  1  0  0  0
 16 39  1  0  0  0
 17 23  1  0  0  0
 17 40  1  0  0  0
 17 41  1  0  0  0
 18 42  1  0  0  0
 19 43  1  0  0  0
 20 44  1  0  0  0
 23 45  1  0  0  0
M  END
> <s_m_source_file>
../2rfy_ligand.sdf

> <i_m_source_file_index>
1

> <s_epik_input>
W09IXVtDQEhdMVtDQEhdKFtPSF0pW0NAQEhdKFtPSF0pW0NAQEhdKFtDQEhdKE8xKVtDSDJdW09IXSlPW0NASF0yW0NASF0oW09IXSlbQ0BASF0oW09IXSlbQ0BIXShbT0hdKVtDQEhdKE8yKVtDSDJdW09IXQ==

> <s_epik_cmdline>
J2VwaWtfYXBwJywgJy1pbWFlJywgJ2xpZ2FuZF9wcm8ubWFlJywgJy1vbWFlJywgJ2xpZ2FuZF9wcmVwLm1hZScsICctbXMnLCAnMScsICctcGgnLCAnNycsICctcGh0JywgJzAuNScsICctbnQn

> <r_lp_tautomer_probability>
1

> <r_epik_Ionization_Penalty>
  0.0000

> <r_epik_Ionization_Penalty_Charging>
  0.0000

> <r_epik_Ionization_Penalty_Neutral>
  0.0000

> <r_epik_State_Penalty>
 -0.0000

> <r_epik_Charging_Adjusted_Penalty>
0

> <i_epik_Tot_Q>
0

> <i_epik_Tot_abs_Q>
0

> <s_epik_Chemistry_Notes>
This compound contains an acetal/aminal-like group ( X-CH(R)-Y where X, Y are N, S, or O) that may be acid/base labile, releasing an aldehyde.

$$$$
