2rg5_ligand
                    3D
 Schrodinger Suite 2020-3.
 50 52  0  0  1  0            999 V2000
   -3.8850   -0.0190   14.0800 C   0  0  0  0  0  0
   -4.9140   -0.4950   14.9190 C   0  0  0  0  0  0
   -2.2600   -1.1680   15.4190 C   0  0  0  0  0  0
   -1.4860   -3.3000   21.6710 C   0  0  0  0  0  0
   -2.5430   -0.3520   14.3350 C   0  0  0  0  0  0
   -1.6320   -4.5170   21.0300 C   0  0  0  0  0  0
   -4.6090   -1.3150   16.0190 C   0  0  0  0  0  0
   -2.0560   -4.2370   19.6850 C   0  0  0  0  0  0
   -3.2700   -1.6460   16.2550 C   0  0  0  0  0  0
   -2.1590   -2.8570   19.5990 C   0  0  0  0  0  0
   -2.1300   -0.2140   20.0540 C   0  0  0  0  0  0
   -2.5320   -1.9590   18.5480 C   0  0  0  0  0  0
   -1.3570    0.0700   13.5290 C   0  0  0  0  0  0
   -1.3530   -5.8080   21.6400 C   0  0  0  0  0  0
   -5.6800   -1.8450   16.9270 C   0  0  0  0  0  0
   -2.3500   -5.2380   18.6190 C   0  0  0  0  0  0
    1.1250   -7.4270   22.9230 C   0  0  0  0  0  0
    0.2780    1.3670   11.0850 C   0  0  0  0  0  0
   -0.1570   -6.8670   23.5180 C   0  0  0  0  0  0
   -1.7940   -0.9580   21.0640 N   0  0  0  0  0  0
   -2.4920   -0.6700   18.8050 N   0  0  0  0  0  0
   -1.8180   -2.3020   20.8000 N   0  0  0  0  0  0
   -2.9030   -2.4660   17.3270 N   0  0  0  0  0  0
   -0.5610   -5.7080   22.7640 N   0  0  0  0  0  0
   -1.5080    1.0530   12.5640 N   0  0  0  0  0  0
   -0.2850   -0.4870   13.7610 O   0  0  0  0  0  0
   -1.7670   -6.8690   21.1840 O   0  0  0  0  0  0
   -0.2810    1.7590   12.3370 O   0  0  0  0  0  0
   -4.1323    0.6124   13.2266 H   0  0  0  0  0  0
   -5.9500   -0.2258   14.7135 H   0  0  0  0  0  0
   -1.2251   -1.4426   15.6231 H   0  0  0  0  0  0
   -1.1597   -3.1605   22.7016 H   0  0  0  0  0  0
   -2.1253    0.8651   20.2076 H   0  0  0  0  0  0
   -6.6613   -1.4818   16.5876 H   0  0  0  0  0  0
   -5.4953   -1.4969   17.9540 H   0  0  0  0  0  0
   -5.6683   -2.9447   16.9049 H   0  0  0  0  0  0
   -2.1682   -6.2511   19.0071 H   0  0  0  0  0  0
   -1.6967   -5.0543   17.7533 H   0  0  0  0  0  0
   -3.4019   -5.1468   18.3105 H   0  0  0  0  0  0
    1.4384   -8.3127   23.4951 H   0  0  0  0  0  0
    1.9148   -6.6627   22.9686 H   0  0  0  0  0  0
    0.9494   -7.7108   21.8748 H   0  0  0  0  0  0
    1.2187    1.9119   10.9168 H   0  0  0  0  0  0
   -0.4311    1.6015   10.2774 H   0  0  0  0  0  0
    0.4776    0.2853   11.0952 H   0  0  0  0  0  0
   -0.9468   -7.6313   23.4724 H   0  0  0  0  0  0
    0.0186   -6.5833   24.5662 H   0  0  0  0  0  0
   -2.9049   -3.5596   17.2087 H   0  0  0  0  0  0
   -0.2369   -4.7056   23.0804 H   0  0  0  0  0  0
   -2.4112    1.3237   11.9975 H   0  0  0  0  0  0
  1  2  2  0  0  0
  1  5  1  0  0  0
  1 29  1  0  0  0
  2  7  1  0  0  0
  2 30  1  0  0  0
  3  5  2  0  0  0
  3  9  1  0  0  0
  3 31  1  0  0  0
  4  6  2  0  0  0
  4 22  1  0  0  0
  4 32  1  0  0  0
  5 13  1  0  0  0
  6  8  1  0  0  0
  6 14  1  0  0  0
  7  9  2  0  0  0
  7 15  1  0  0  0
  8 10  2  0  0  0
  8 16  1  0  0  0
  9 23  1  0  0  0
 10 12  1  0  0  0
 10 22  1  0  0  0
 11 20  2  0  0  0
 11 21  1  0  0  0
 11 33  1  0  0  0
 12 21  2  0  0  0
 12 23  1  0  0  0
 13 25  1  0  0  0
 13 26  2  0  0  0
 14 24  1  0  0  0
 14 27  2  0  0  0
 15 34  1  0  0  0
 15 35  1  0  0  0
 15 36  1  0  0  0
 16 37  1  0  0  0
 16 38  1  0  0  0
 16 39  1  0  0  0
 17 19  1  0  0  0
 17 40  1  0  0  0
 17 41  1  0  0  0
 17 42  1  0  0  0
 18 28  1  0  0  0
 18 43  1  0  0  0
 18 44  1  0  0  0
 18 45  1  0  0  0
 19 24  1  0  0  0
 19 46  1  0  0  0
 19 47  1  0  0  0
 20 22  1  0  0  0
 23 48  1  0  0  0
 24 49  1  0  0  0
 25 28  1  0  0  0
 25 50  1  0  0  0
M  END
> <s_m_source_file>
../2rg5_ligand.sdf

> <i_m_source_file_index>
1

> <s_epik_input>
W0NIM11PW05IXUMoPU8pYzFbY0hdW2NIXWMoW0NIM10pYyhbY0hdMSlbTkhdYzJuW2NIXW5uKGMyMylbY0hdYyhjM1tDSDNdKUMoPU8pW05IXVtDSDJdW0NIM10=

> <s_epik_cmdline>
J2VwaWtfYXBwJywgJy1pbWFlJywgJ2xpZ2FuZF9wcm8ubWFlJywgJy1vbWFlJywgJ2xpZ2FuZF9wcmVwLm1hZScsICctbXMnLCAnMScsICctcGgnLCAnNycsICctcGh0JywgJzAuNScsICctbnQn

> <r_lp_tautomer_probability>
1

> <r_epik_Ionization_Penalty>
  0.0000

> <r_epik_Ionization_Penalty_Charging>
  0.0000

> <r_epik_Ionization_Penalty_Neutral>
  0.0000

> <r_epik_State_Penalty>
 -0.0000

> <r_epik_Charging_Adjusted_Penalty>
0

> <i_epik_Tot_Q>
0

> <i_epik_Tot_abs_Q>
0

> <s_epik_Chemistry_Notes>
This compound has a N-S or N-O group and may undergo hydrolysis at high or low pH.

$$$$
