2rgp_ligand
                    3D
 Schrodinger Suite 2020-3.
 58 62  0  0  1  0            999 V2000
   14.7180   40.1160   97.0990 C   0  0  0  0  0  0
   16.0310   40.2220   97.6320 C   0  0  0  0  0  0
   16.8780   39.0760   97.6860 C   0  0  0  0  0  0
   13.9670   33.2580   86.9490 N   0  0  0  0  0  0
   17.3230   36.5580   97.2600 C   0  0  0  0  0  0
   15.5850   33.7600   95.9940 C   0  0  0  0  0  0
   16.0750   34.2210   94.7560 C   0  0  0  0  0  0
   16.8400   35.3580   95.0700 C   0  0  0  0  0  0
   17.5140   36.1290   94.0760 C   0  0  0  0  0  0
   17.3900   35.7120   92.7350 C   0  0  0  0  0  0
   16.6250   34.5740   92.3820 C   0  0  0  0  0  0
   15.9650   33.8170   93.4030 C   0  0  0  0  0  0
   14.1240   33.6450   88.2640 C   0  0  0  0  0  0
   15.3910   33.7190   88.8960 C   0  0  0  0  0  0
   16.6440   33.3950   88.1860 C   0  0  0  0  0  0
   19.5090   31.9970   84.8580 C   0  0  0  0  0  0
   18.1270   31.9340   85.5370 C   0  0  0  0  0  0
   19.1670   31.5240   87.7400 C   0  0  0  0  0  0
   20.5540   31.1900   85.6350 C   0  0  0  0  0  0
   16.4190   37.8080   97.2090 C   0  0  0  0  0  0
   15.0830   37.7300   96.6750 C   0  0  0  0  0  0
   14.2560   38.8690   96.6250 C   0  0  0  0  0  0
   13.0110   38.7560   96.1180 F   0  0  0  0  0  0
   16.7310   35.4930   96.4340 N   0  0  0  0  0  0
   15.9710   34.5190   97.0190 N   0  0  0  0  0  0
   16.5250   34.2480   91.0370 N   0  0  0  0  0  0
   12.9540   33.9630   88.9110 N   0  0  0  0  0  0
   15.3910   34.1200   90.2310 C   0  0  0  0  0  0
   14.2120   34.4440   90.8920 N   0  0  0  0  0  0
   13.0410   34.3520   90.2010 C   0  0  0  0  0  0
   16.9000   32.2900   87.5590 N   0  0  0  0  0  0
   18.1460   32.3440   86.9840 N   0  0  0  0  0  0
   20.5730   31.5960   87.1120 C   0  0  0  0  0  0
   14.0713   40.9924   97.0564 H   0  0  0  0  0  0
   16.3918   41.1822   98.0007 H   0  0  0  0  0  0
   17.8844   39.1671   98.0945 H   0  0  0  0  0  0
   14.8463   32.9837   86.3477 H   0  0  0  0  0  0
   12.9625   33.2237   86.5019 H   0  0  0  0  0  0
   18.3211   36.8113   96.8731 H   0  0  0  0  0  0
   17.4103   36.2108   98.3001 H   0  0  0  0  0  0
   14.9566   32.8759   96.1019 H   0  0  0  0  0  0
   18.1022   37.0068   94.3434 H   0  0  0  0  0  0
   17.8945   36.2785   91.9522 H   0  0  0  0  0  0
   15.3812   32.9348   93.1402 H   0  0  0  0  0  0
   17.3980   34.1952   88.2205 H   0  0  0  0  0  0
   19.4368   31.5847   83.8407 H   0  0  0  0  0  0
   19.8450   33.0432   84.8066 H   0  0  0  0  0  0
   17.4309   32.6069   85.0148 H   0  0  0  0  0  0
   17.7435   30.9039   85.4932 H   0  0  0  0  0  0
   19.2410   31.8930   88.7736 H   0  0  0  0  0  0
   18.8562   30.4689   87.7487 H   0  0  0  0  0  0
   20.3150   30.1185   85.5665 H   0  0  0  0  0  0
   21.5506   31.3715   85.2062 H   0  0  0  0  0  0
   14.7071   36.7763   96.3046 H   0  0  0  0  0  0
   17.4337   34.0462   90.4509 H   0  0  0  0  0  0
   12.1182   34.6081   90.7216 H   0  0  0  0  0  0
   20.9543   32.6253   87.1837 H   0  0  0  0  0  0
   21.2500   30.9159   87.6497 H   0  0  0  0  0  0
  1  2  2  0  0  0
  1 22  1  0  0  0
  1 34  1  0  0  0
  2  3  1  0  0  0
  2 35  1  0  0  0
  3 20  2  0  0  0
  3 36  1  0  0  0
  4 13  1  0  0  0
  4 37  1  0  0  0
  4 38  1  0  0  0
  5 20  1  0  0  0
  5 24  1  0  0  0
  5 39  1  0  0  0
  5 40  1  0  0  0
  6  7  1  0  0  0
  6 25  2  0  0  0
  6 41  1  0  0  0
  7  8  2  0  0  0
  7 12  1  0  0  0
  8  9  1  0  0  0
  8 24  1  0  0  0
  9 10  2  0  0  0
  9 42  1  0  0  0
 10 11  1  0  0  0
 10 43  1  0  0  0
 11 12  2  0  0  0
 11 26  1  0  0  0
 12 44  1  0  0  0
 13 14  2  0  0  0
 13 27  1  0  0  0
 14 15  1  0  0  0
 14 28  1  0  0  0
 15 31  2  0  0  0
 15 45  1  0  0  0
 16 17  1  0  0  0
 16 19  1  0  0  0
 16 46  1  0  0  0
 16 47  1  0  0  0
 17 32  1  0  0  0
 17 48  1  0  0  0
 17 49  1  0  0  0
 18 32  1  0  0  0
 18 33  1  0  0  0
 18 50  1  0  0  0
 18 51  1  0  0  0
 19 33  1  0  0  0
 19 52  1  0  0  0
 19 53  1  0  0  0
 20 21  1  0  0  0
 21 22  2  0  0  0
 21 54  1  0  0  0
 22 23  1  0  0  0
 24 25  1  0  0  0
 26 28  1  0  0  0
 26 55  1  0  0  0
 27 30  2  0  0  0
 28 29  2  0  0  0
 29 30  1  0  0  0
 30 56  1  0  0  0
 31 32  1  0  0  0
 33 57  1  0  0  0
 33 58  1  0  0  0
M  END
> <s_m_source_file>
../2rgp_ligand.sdf

> <i_m_source_file_index>
1

> <s_epik_input>
W2NIXTFjKEYpW2NIXVtjSF1bY0hdYzFbQ0gyXW4obltjSF0yKWMoYzIzKVtjSF1bY0hdYyhbY0hdMylbTkhdYyhuW2NIXW40KWMoYzRbTkgyXSkvW0NIXT1OL041W0NIMl1bQ0gyXVtDSDJdW0NIMl1bQ0gyXTU=

> <s_epik_cmdline>
J2VwaWtfYXBwJywgJy1pbWFlJywgJ2xpZ2FuZF9wcm8ubWFlJywgJy1vbWFlJywgJ2xpZ2FuZF9wcmVwLm1hZScsICctbXMnLCAnMScsICctcGgnLCAnNycsICctcGh0JywgJzAuNScsICctbnQn

> <r_lp_tautomer_probability>
1

> <r_epik_Ionization_Penalty>
  0.0030

> <r_epik_Ionization_Penalty_Charging>
  0.0000

> <r_epik_Ionization_Penalty_Neutral>
  0.0030

> <r_epik_State_Penalty>
 -0.0000

> <r_epik_Charging_Adjusted_Penalty>
0

> <i_epik_Tot_Q>
0

> <i_epik_Tot_abs_Q>
0

> <s_epik_Chemistry_Notes>
This compound has an imine and may undergo hydrolysis.

$$$$
