2rgu_ligand
                    3D
 Schrodinger Suite 2020-3.
 64 68  0  0  1  0            999 V2000
   69.0230   69.5870   69.8910 C   0  0  0  0  0  0
   68.5930   70.8800   69.4780 N   0  0  0  0  0  0
   68.6460   69.4700   71.2410 C   0  0  0  0  0  0
   69.6890   68.4790   69.3030 C   0  0  0  0  0  0
   67.9320   71.3720   70.6010 C   0  0  0  0  0  0
   68.7950   71.5900   68.1420 C   0  0  0  0  0  0
   68.0080   70.5350   71.5700 N   0  0  0  0  0  0
   68.9620   68.3370   71.9770 N   0  0  0  0  0  0
   69.9520   67.3480   70.0640 N   0  0  0  0  0  0
   70.0100   68.5270   68.1350 O   0  0  0  0  0  0
   67.2480   72.5290   70.7930 N   0  0  0  0  0  0
   68.0580   71.1430   66.9590 C   0  0  0  0  0  0
   69.5960   67.2990   71.3980 C   0  0  0  0  0  0
   68.5970   68.2960   73.4070 C   0  0  0  0  0  0
   70.6310   66.1760   69.4380 C   0  0  0  0  0  0
   66.3910   73.0560   69.7640 C   0  0  0  0  0  0
   67.5170   73.3980   71.8960 C   0  0  0  0  0  0
   67.5090   70.8750   65.9620 C   0  0  0  0  0  0
   69.8520   66.3150   72.0710 O   0  0  0  0  0  0
   69.7000   64.9760   69.5580 C   0  0  0  0  0  0
   65.0140   72.7450   70.3660 C   0  0  1  0  0  0
   66.1730   73.3450   72.7010 C   0  0  0  0  0  0
   66.8410   70.5880   64.6840 C   0  0  0  0  0  0
   68.4020   65.1560   69.3030 N   0  0  0  0  0  0
   70.2020   63.7850   69.9320 N   0  0  0  0  0  0
   64.8790   73.4740   71.7640 C   0  0  0  0  0  0
   63.9670   73.1820   69.4360 N   0  3  0  0  0  0
   67.5260   64.1350   69.4110 C   0  0  0  0  0  0
   69.4330   62.6890   70.0740 C   0  0  0  0  0  0
   68.0230   62.8080   69.8190 C   0  0  0  0  0  0
   66.1440   64.3100   69.1420 C   0  0  0  0  0  0
   70.0490   61.3740   70.4930 C   0  0  0  0  0  0
   67.1010   61.7110   69.9400 C   0  0  0  0  0  0
   65.2750   63.2230   69.2680 C   0  0  0  0  0  0
   65.7520   61.9260   69.6670 C   0  0  0  0  0  0
   68.5177   72.6495   68.2443 H   0  0  0  0  0  0
   69.8508   71.5146   67.8426 H   0  0  0  0  0  0
   68.0909   69.2328   73.6832 H   0  0  0  0  0  0
   69.5065   68.1777   74.0143 H   0  0  0  0  0  0
   67.9216   67.4470   73.5888 H   0  0  0  0  0  0
   70.8368   66.3938   68.3796 H   0  0  0  0  0  0
   71.5774   65.9774   69.9623 H   0  0  0  0  0  0
   66.5881   74.1308   69.6375 H   0  0  0  0  0  0
   66.5904   72.5328   68.8172 H   0  0  0  0  0  0
   68.3736   73.0109   72.4673 H   0  0  0  0  0  0
   67.7516   74.4050   71.5207 H   0  0  0  0  0  0
   64.8706   71.6588   70.4645 H   0  0  0  0  0  0
   66.1042   72.3869   73.2370 H   0  0  0  0  0  0
   66.1462   74.1728   73.4249 H   0  0  0  0  0  0
   66.2780   69.6467   64.7678 H   0  0  0  0  0  0
   67.5954   70.4945   63.8889 H   0  0  0  0  0  0
   66.1499   71.4081   64.4392 H   0  0  0  0  0  0
   64.7040   74.5479   71.6021 H   0  0  0  0  0  0
   64.0334   73.0446   72.3213 H   0  0  0  0  0  0
   64.0876   72.6587   68.4760 H   0  0  0  0  0  0
   64.0491   74.2671   69.2751 H   0  0  0  0  0  0
   62.9792   72.9479   69.8597 H   0  0  0  0  0  0
   65.7629   65.2853   68.8392 H   0  0  0  0  0  0
   71.1319   61.5050   70.6347 H   0  0  0  0  0  0
   69.8699   60.6200   69.7124 H   0  0  0  0  0  0
   69.5935   61.0400   71.4369 H   0  0  0  0  0  0
   67.4530   60.7244   70.2413 H   0  0  0  0  0  0
   64.2140   63.3608   69.0597 H   0  0  0  0  0  0
   65.0475   61.0991   69.7571 H   0  0  0  0  0  0
  1  2  1  0  0  0
  1  3  2  0  0  0
  1  4  1  0  0  0
  2  5  1  0  0  0
  2  6  1  0  0  0
  3  7  1  0  0  0
  3  8  1  0  0  0
  4  9  1  0  0  0
  4 10  2  0  0  0
  5  7  2  0  0  0
  5 11  1  0  0  0
  6 12  1  0  0  0
  6 36  1  0  0  0
  6 37  1  0  0  0
  8 13  1  0  0  0
  8 14  1  0  0  0
  9 13  1  0  0  0
  9 15  1  0  0  0
 11 16  1  0  0  0
 11 17  1  0  0  0
 12 18  3  0  0  0
 13 19  2  0  0  0
 14 38  1  0  0  0
 14 39  1  0  0  0
 14 40  1  0  0  0
 15 20  1  0  0  0
 15 41  1  0  0  0
 15 42  1  0  0  0
 16 21  1  0  0  0
 16 43  1  0  0  0
 16 44  1  0  0  0
 17 22  1  0  0  0
 17 45  1  0  0  0
 17 46  1  0  0  0
 18 23  1  0  0  0
 20 24  2  0  0  0
 20 25  1  0  0  0
 21 26  1  0  0  0
 21 27  1  0  0  0
 21 47  1  0  0  0
 22 26  1  0  0  0
 22 48  1  0  0  0
 22 49  1  0  0  0
 23 50  1  0  0  0
 23 51  1  0  0  0
 23 52  1  0  0  0
 24 28  1  0  0  0
 25 29  2  0  0  0
 26 53  1  0  0  0
 26 54  1  0  0  0
 27 55  1  0  0  0
 27 56  1  0  0  0
 27 57  1  0  0  0
 28 30  2  0  0  0
 28 31  1  0  0  0
 29 30  1  0  0  0
 29 32  1  0  0  0
 30 33  1  0  0  0
 31 34  2  0  0  0
 31 58  1  0  0  0
 32 59  1  0  0  0
 32 60  1  0  0  0
 32 61  1  0  0  0
 33 35  2  0  0  0
 33 62  1  0  0  0
 34 35  1  0  0  0
 34 63  1  0  0  0
 35 64  1  0  0  0
M  CHG  1  27   1
M  END
> <s_m_source_file>
../2rgu_ligand.sdf

> <i_m_source_file_index>
1

> <s_epik_input>
W0NIMl0xW0NIMl1bQ0gyXVtDQEBIXShbTkgzK10pW0NIMl1OMWMobjJbQ0gyXUMjQ1tDSDNdKW5jKGMyMyluKFtDSDNdKWMoPU8pbihjMz1PKVtDSDJdYyhuNCluYyhbQ0gzXSljKGM0NSlbY0hdW2NIXVtjSF1bY0hdNQ==

> <s_epik_cmdline>
J2VwaWtfYXBwJywgJy1pbWFlJywgJ2xpZ2FuZF9wcm8ubWFlJywgJy1vbWFlJywgJ2xpZ2FuZF9wcmVwLm1hZScsICctbXMnLCAnMScsICctcGgnLCAnNycsICctcGh0JywgJzAuNScsICctbnQn

> <r_lp_tautomer_probability>
1

> <r_epik_Ionization_Penalty>
  0.0009

> <r_epik_Ionization_Penalty_Charging>
  0.0008

> <r_epik_Ionization_Penalty_Neutral>
  0.0001

> <r_epik_State_Penalty>
 -0.0000

> <r_epik_Charging_Adjusted_Penalty>
0.000783080584421597

> <i_epik_Tot_Q>
1

> <i_epik_Tot_abs_Q>
1

> <s_epik_Chemistry_Notes>
This compound contains an electron-poor aromatic ring that is susceptible to covalent hydrolysis at low pH, typically resulting in measured values for nitrogen ring protonation that are around two units higher than predicted values.

$$$$
