2rip_ligand
                    3D
 Schrodinger Suite 2020-3.
 47 50  0  0  1  0            999 V2000
   63.3610   52.9320   84.3060 N   0  0  0  0  0  0
   62.2430   54.5500   86.7820 N   0  3  0  0  0  0
   64.8080   53.2900   87.7100 C   0  0  0  0  0  0
   65.2980   53.1670   90.0900 C   0  0  0  0  0  0
   64.9820   52.1840   91.2450 C   0  0  0  0  0  0
   63.9680   51.4280   89.1370 C   0  0  0  0  0  0
   63.9520   51.2120   90.6520 C   0  0  0  0  0  0
   63.5370   52.7540   82.9750 C   0  0  0  0  0  0
   60.1050   52.0260   80.3990 C   0  0  0  0  0  0
   59.1210   54.1340   81.2730 C   0  0  0  0  0  0
   62.2850   52.4200   82.0030 C   0  0  0  0  0  0
   64.6870   52.9160   82.4890 O   0  0  0  0  0  0
   62.1870   51.1990   81.1080 C   0  0  0  0  0  0
   61.1390   51.0430   80.3510 N   0  0  0  0  0  0
   60.1900   53.1070   81.2080 C   0  0  0  0  0  0
   61.3140   53.2990   82.0180 N   0  0  0  0  0  0
   57.9770   54.0120   80.4890 C   0  0  0  0  0  0
   58.8950   51.8830   79.5580 C   0  0  0  0  0  0
   57.8570   52.8330   79.6130 C   0  0  0  0  0  0
   64.4090   53.4380   85.1660 C   0  0  0  0  0  0
   64.0050   52.8100   86.4990 C   0  0  2  0  0  0
   62.5060   53.1240   86.5200 C   0  0  2  0  0  0
   62.1570   52.6870   85.0930 C   0  0  0  0  0  0
   65.5450   54.2690   87.5540 O   0  0  0  0  0  0
   64.6930   52.6590   88.8790 N   0  0  0  0  0  0
   62.5163   54.7885   87.8205 H   0  0  0  0  0  0
   61.1746   54.7604   86.6265 H   0  0  0  0  0  0
   62.8418   55.1656   86.0946 H   0  0  0  0  0  0
   64.8857   54.1584   90.3291 H   0  0  0  0  0  0
   66.3878   53.2443   89.9621 H   0  0  0  0  0  0
   65.9044   51.6682   91.5502 H   0  0  0  0  0  0
   64.5740   52.7424   92.1004 H   0  0  0  0  0  0
   64.4689   50.5779   88.6507 H   0  0  0  0  0  0
   62.9351   51.5056   88.7667 H   0  0  0  0  0  0
   64.2351   50.1793   90.9038 H   0  0  0  0  0  0
   62.9580   51.4317   91.0689 H   0  0  0  0  0  0
   59.2321   54.9897   81.9390 H   0  0  0  0  0  0
   62.9869   50.4587   81.0987 H   0  0  0  0  0  0
   57.1920   54.7675   80.5222 H   0  0  0  0  0  0
   58.8063   51.0294   78.8860 H   0  0  0  0  0  0
   56.9622   52.6959   79.0059 H   0  0  0  0  0  0
   65.3859   53.0960   84.7937 H   0  0  0  0  0  0
   64.3822   54.5377   85.1687 H   0  0  0  0  0  0
   64.2257   51.7351   86.5753 H   0  0  0  0  0  0
   61.9065   52.6678   87.3216 H   0  0  0  0  0  0
   61.3247   53.2783   84.6836 H   0  0  0  0  0  0
   61.9026   51.6177   85.0508 H   0  0  0  0  0  0
  1  8  1  0  0  0
  1 20  1  0  0  0
  1 23  1  0  0  0
  2 22  1  0  0  0
  2 26  1  0  0  0
  2 27  1  0  0  0
  2 28  1  0  0  0
  3 21  1  0  0  0
  3 24  2  0  0  0
  3 25  1  0  0  0
  4  5  1  0  0  0
  4 25  1  0  0  0
  4 29  1  0  0  0
  4 30  1  0  0  0
  5  7  1  0  0  0
  5 31  1  0  0  0
  5 32  1  0  0  0
  6  7  1  0  0  0
  6 25  1  0  0  0
  6 33  1  0  0  0
  6 34  1  0  0  0
  7 35  1  0  0  0
  7 36  1  0  0  0
  8 11  1  0  0  0
  8 12  2  0  0  0
  9 14  2  0  0  0
  9 15  1  0  0  0
  9 18  1  0  0  0
 10 15  1  0  0  0
 10 17  2  0  0  0
 10 37  1  0  0  0
 11 13  2  0  0  0
 11 16  1  0  0  0
 13 14  1  0  0  0
 13 38  1  0  0  0
 15 16  2  0  0  0
 17 19  1  0  0  0
 17 39  1  0  0  0
 18 19  2  0  0  0
 18 40  1  0  0  0
 19 41  1  0  0  0
 20 21  1  0  0  0
 20 42  1  0  0  0
 20 43  1  0  0  0
 21 22  1  0  0  0
 21 44  1  0  0  0
 22 23  1  0  0  0
 22 45  1  0  0  0
 23 46  1  0  0  0
 23 47  1  0  0  0
M  CHG  1   2   1
M  END
> <s_m_source_file>
../2rip_ligand.sdf

> <i_m_source_file_index>
1

> <s_epik_input>
W2NIXTFbY0hdW2NIXVtjSF1jKGMxMiluYyhbY0hdbjIpQyg9TylOM1tDSDJdW0NASF0oW0NAQEhdKFtOSDMrXSlbQ0gyXTMpQyg9TylONFtDSDJdW0NIMl1bQ0gyXVtDSDJdNA==

> <s_epik_cmdline>
J2VwaWtfYXBwJywgJy1pbWFlJywgJ2xpZ2FuZF9wcm8ubWFlJywgJy1vbWFlJywgJ2xpZ2FuZF9wcmVwLm1hZScsICctbXMnLCAnMScsICctcGgnLCAnNycsICctcGh0JywgJzAuNScsICctbnQn

> <r_lp_tautomer_probability>
1

> <r_epik_Ionization_Penalty>
  0.0122

> <r_epik_Ionization_Penalty_Charging>
  0.0122

> <r_epik_Ionization_Penalty_Neutral>
  0.0000

> <r_epik_State_Penalty>
  0.0094

> <r_epik_Charging_Adjusted_Penalty>
0.0216115368423454

> <i_epik_Tot_Q>
1

> <i_epik_Tot_abs_Q>
1

$$$$
