2rk7_ligand
                    3D
 Schrodinger Suite 2020-3.
  6  5  0  0  1  0            999 V2000
   22.4900    2.1060    3.6980 C   0  0  0  0  0  0
   23.2220    3.0960    4.4840 C   0  0  0  0  0  0
   21.9090    2.4730    2.6560 O   0  0  0  0  0  0
   23.3410    4.2640    4.0490 O   0  0  0  0  0  0
   22.4810    0.9120    4.0830 O   0  5  0  0  0  0
   23.7360    2.7370    5.5700 O   0  5  0  0  0  0
  1  2  1  0  0  0
  1  3  2  0  0  0
  1  5  1  0  0  0
  2  4  2  0  0  0
  2  6  1  0  0  0
M  CHG  2   5  -1   6  -1
M  END
> <s_m_source_file>
../2rk7_ligand.sdf

> <i_m_source_file_index>
1

> <s_epik_input>
Tz1DKFtPSF0pQyg9TylbT0hd

> <s_epik_cmdline>
J2VwaWtfYXBwJywgJy1pbWFlJywgJ2xpZ2FuZF9wcm8ubWFlJywgJy1vbWFlJywgJ2xpZ2FuZF9wcmVwLm1hZScsICctbXMnLCAnMScsICctcGgnLCAnNycsICctcGh0JywgJzAuNScsICctbnQn

> <r_epik_Ionization_Penalty>
  0.0138

> <r_epik_Ionization_Penalty_Charging>
  0.0138

> <r_epik_Ionization_Penalty_Neutral>
  0.0000

> <r_epik_State_Penalty>
  0.0108

> <r_epik_Charging_Adjusted_Penalty>
0.0246500087683109

> <i_epik_Tot_Q>
-2

> <i_epik_Tot_abs_Q>
2

$$$$
