2rk8_ligand
                    3D
 Schrodinger Suite 2020-3.
  8  7  0  0  1  0            999 V2000
   23.2760    3.1650    4.8940 C   0  0  0  0  0  0
   22.1050    2.8430    2.6190 O   0  0  0  0  0  0
   20.7720    3.1500    4.7080 O   0  5  0  0  0  0
   22.0950    0.9810    4.4010 O   0  0  0  0  0  0
   23.8690    2.4870    5.7740 O   0  5  0  0  0  0
   23.6060    4.3360    4.6120 O   0  0  0  0  0  0
   21.9530    2.4650    4.0690 P   0  0  0  0  0  0
   22.9282    0.4002    3.9786 H   0  0  0  0  0  0
  1  5  1  0  0  0
  1  6  2  0  0  0
  1  7  1  0  0  0
  2  7  2  0  0  0
  3  7  1  0  0  0
  4  7  1  0  0  0
  4  8  1  0  0  0
M  CHG  2   3  -1   5  -1
M  END
> <s_m_source_file>
../2rk8_ligand.sdf

> <i_m_source_file_index>
1

> <s_epik_input>
W09IXUMoPU8pUCg9TykoW09IXSlbT0hd

> <s_epik_cmdline>
J2VwaWtfYXBwJywgJy1pbWFlJywgJ2xpZ2FuZF9wcm8ubWFlJywgJy1vbWFlJywgJ2xpZ2FuZF9wcmVwLm1hZScsICctbXMnLCAnMScsICctcGgnLCAnNycsICctcGh0JywgJzAuNScsICctbnQn

> <r_lp_tautomer_probability>
1

> <r_epik_Ionization_Penalty>
  0.0086

> <r_epik_Ionization_Penalty_Charging>
  0.0002

> <r_epik_Ionization_Penalty_Neutral>
  0.0085

> <r_epik_State_Penalty>
 -0.0000

> <r_epik_Charging_Adjusted_Penalty>
0.000150402791654004

> <i_epik_Tot_Q>
-2

> <i_epik_Tot_abs_Q>
2

$$$$
