2rke_ligand
                    3D
 Schrodinger Suite 2020-3.
 10  9  0  0  1  0            999 V2000
    2.2430   -3.8190    9.0810 O   0  0  0  0  0  0
    1.6540   -4.8960    8.2630 S   0  0  0  0  0  0
    0.1850   -4.7390    8.2280 O   0  5  0  0  0  0
    2.1770   -4.7980    6.8970 O   0  0  0  0  0  0
    2.0400   -6.3970    8.8970 C   0  0  0  0  0  0
    3.4970   -6.7820    8.7220 C   0  0  0  0  0  0
    3.8520   -7.3340    7.6600 O   0  5  0  0  0  0
    4.2950   -6.5760    9.6590 O   0  0  0  0  0  0
    1.8288   -6.4044    9.9765 H   0  0  0  0  0  0
    1.4368   -7.1711    8.4001 H   0  0  0  0  0  0
  1  2  2  0  0  0
  2  3  1  0  0  0
  2  4  2  0  0  0
  2  5  1  0  0  0
  5  6  1  0  0  0
  5  9  1  0  0  0
  5 10  1  0  0  0
  6  7  1  0  0  0
  6  8  2  0  0  0
M  CHG  2   3  -1   7  -1
M  END
> <s_m_source_file>
../2rke_ligand.sdf

> <i_m_source_file_index>
1

> <s_epik_input>
Tz1TKD1PKShbT0hdKVtDSDJdQyg9TylbT0hd

> <s_epik_cmdline>
J2VwaWtfYXBwJywgJy1pbWFlJywgJ2xpZ2FuZF9wcm8ubWFlJywgJy1vbWFlJywgJ2xpZ2FuZF9wcmVwLm1hZScsICctbXMnLCAnMScsICctcGgnLCAnNycsICctcGh0JywgJzAuNScsICctbnQn

> <r_lp_tautomer_probability>
1

> <r_epik_Ionization_Penalty>
  0.0007

> <r_epik_Ionization_Penalty_Charging>
  0.0007

> <r_epik_Ionization_Penalty_Neutral>
  0.0000

> <r_epik_State_Penalty>
 -0.0000

> <r_epik_Charging_Adjusted_Penalty>
0.000722318956942415

> <i_epik_Tot_Q>
-2

> <i_epik_Tot_abs_Q>
2

$$$$
