2rkf_ligand
                    3D
 Schrodinger Suite 2020-3.
 94 97  0  0  1  0            999 V2000
  -17.1830    4.8640   -7.3260 C   0  0  0  0  0  0
  -16.5540    2.6760   -6.1360 C   0  0  0  0  0  0
  -17.9450    2.7180   -5.6600 N   0  0  0  0  0  0
  -18.8120    3.6970   -5.9170 C   0  0  0  0  0  0
  -18.3440    4.8060   -6.4570 N   0  0  0  0  0  0
  -18.5930   -3.3210   -0.0580 C   0  0  0  0  0  0
  -19.2050   -4.4150    0.5570 C   0  0  0  0  0  0
  -18.4470   -5.4820    1.0440 C   0  0  0  0  0  0
  -17.0560   -5.4630    0.9210 C   0  0  0  0  0  0
  -16.4400   -4.3710    0.2990 C   0  0  0  0  0  0
  -17.2030   -3.3080   -0.1870 C   0  0  0  0  0  0
  -19.9970    3.5830   -5.7040 O   0  0  0  0  0  0
  -18.3980    1.5650   -4.8670 C   0  0  2  0  0  0
  -17.9180    1.6610   -3.4350 C   0  0  0  0  0  0
  -18.8130    2.1500   -2.5770 N   0  0  0  0  0  0
  -18.5100    2.3450   -1.1570 C   0  0  1  0  0  0
  -18.0390    0.2530   -5.5990 C   0  0  0  0  0  0
  -18.4320   -0.9790   -4.7940 C   0  0  0  0  0  0
  -18.6980    0.1640   -6.9740 C   0  0  0  0  0  0
  -16.7890    1.3300   -3.0980 O   0  0  0  0  0  0
  -15.5250    5.5050   -2.4300 C   0  0  0  0  0  0
  -16.0990    6.3700   -3.3590 C   0  0  0  0  0  0
  -17.4830    6.4180   -3.4780 C   0  0  0  0  0  0
  -18.2820    5.6040   -2.6710 C   0  0  0  0  0  0
  -17.7020    4.7240   -1.7480 C   0  0  0  0  0  0
  -16.3150    4.6840   -1.6270 C   0  0  0  0  0  0
  -18.5840    3.8520   -0.8770 C   0  0  0  0  0  0
  -19.6500    1.7170   -0.3580 C   0  0  0  0  0  0
  -19.9500    0.2660   -0.7280 C   0  0  1  0  0  0
  -18.9120   -0.7750   -0.2910 C   0  0  1  0  0  0
  -18.8090   -0.6950    1.1650 N   0  0  0  0  0  0
  -17.6820   -0.2900    1.7620 C   0  0  0  0  0  0
  -17.6530   -0.2420    3.2640 C   0  0  0  0  0  0
  -18.7670   -0.9080    3.8690 O   0  0  0  0  0  0
  -18.5830   -1.5070    5.0930 C   0  0  0  0  0  0
  -21.1780   -0.0690   -0.0950 O   0  0  0  0  0  0
  -19.4580   -2.1780   -0.5800 C   0  0  0  0  0  0
  -16.6800    0.0410    1.1530 O   0  0  0  0  0  0
  -18.4590   -0.7380    6.2550 C   0  0  0  0  0  0
  -18.2590   -1.3580    7.4900 C   0  0  0  0  0  0
  -18.1820   -2.7440    7.5680 C   0  0  0  0  0  0
  -18.2980   -3.5140    6.4140 C   0  0  0  0  0  0
  -18.4940   -2.8980    5.1810 C   0  0  0  0  0  0
  -18.6140   -3.7620    3.9600 C   0  0  0  0  0  0
  -18.5460    0.7650    6.2180 C   0  0  0  0  0  0
  -16.1210    4.0900   -6.5550 C   0  0  0  0  0  0
  -17.4239    4.3951   -8.2914 H   0  0  0  0  0  0
  -16.8992    5.9142   -7.4892 H   0  0  0  0  0  0
  -15.9009    2.3138   -5.3284 H   0  0  0  0  0  0
  -16.4819    1.9969   -6.9983 H   0  0  0  0  0  0
  -18.8936    5.7266   -6.2113 H   0  0  0  0  0  0
  -20.2901   -4.4365    0.6584 H   0  0  0  0  0  0
  -18.9408   -6.3292    1.5199 H   0  0  0  0  0  0
  -16.4571   -6.2889    1.3049 H   0  0  0  0  0  0
  -15.3553   -4.3505    0.1932 H   0  0  0  0  0  0
  -16.7111   -2.4635   -0.6697 H   0  0  0  0  0  0
  -19.4939    1.6184   -4.7881 H   0  0  0  0  0  0
  -19.8078    2.4101   -2.9679 H   0  0  0  0  0  0
  -17.5276    1.9021   -0.9362 H   0  0  0  0  0  0
  -16.9462    0.2600   -5.7245 H   0  0  0  0  0  0
  -17.9652   -0.9312   -3.7991 H   0  0  0  0  0  0
  -18.0885   -1.8837   -5.3171 H   0  0  0  0  0  0
  -19.5260   -1.0118   -4.6845 H   0  0  0  0  0  0
  -18.4243    1.0474   -7.5696 H   0  0  0  0  0  0
  -19.7909    0.1262   -6.8550 H   0  0  0  0  0  0
  -18.3534   -0.7457   -7.4876 H   0  0  0  0  0  0
  -14.4402    5.4696   -2.3294 H   0  0  0  0  0  0
  -15.4698    7.0021   -3.9856 H   0  0  0  0  0  0
  -17.9450    7.0905   -4.2008 H   0  0  0  0  0  0
  -19.3672    5.6541   -2.7604 H   0  0  0  0  0  0
  -15.8485    4.0124   -0.9062 H   0  0  0  0  0  0
  -19.6149    4.2034   -1.0311 H   0  0  0  0  0  0
  -18.2817    4.0471    0.1625 H   0  0  0  0  0  0
  -19.3985    1.7312    0.7128 H   0  0  0  0  0  0
  -20.5740    2.2899   -0.5252 H   0  0  0  0  0  0
  -20.0337    0.2090   -1.8233 H   0  0  0  0  0  0
  -17.9394   -0.5898   -0.7704 H   0  0  0  0  0  0
  -19.6689   -0.9708    1.7932 H   0  0  0  0  0  0
  -16.7361   -0.7281    3.6287 H   0  0  0  0  0  0
  -17.6701    0.8060    3.5978 H   0  0  0  0  0  0
  -22.0718    0.5488   -0.2668 H   0  0  0  0  0  0
  -19.5556   -2.2614   -1.6725 H   0  0  0  0  0  0
  -20.4547   -2.2318   -0.1177 H   0  0  0  0  0  0
  -18.1632   -0.7553    8.3931 H   0  0  0  0  0  0
  -18.0308   -3.2279    8.5329 H   0  0  0  0  0  0
  -18.2353   -4.6004    6.4759 H   0  0  0  0  0  0
  -18.7644   -3.1267    3.0747 H   0  0  0  0  0  0
  -19.4719   -4.4410    4.0742 H   0  0  0  0  0  0
  -17.6937   -4.3516    3.8362 H   0  0  0  0  0  0
  -18.7036    1.0977    5.1814 H   0  0  0  0  0  0
  -17.6101    1.1960    6.6032 H   0  0  0  0  0  0
  -19.3878    1.0990    6.8424 H   0  0  0  0  0  0
  -15.2215    3.9811   -7.1787 H   0  0  0  0  0  0
  -15.8652    4.6357   -5.6348 H   0  0  0  0  0  0
  1  5  1  0  0  0
  1 46  1  0  0  0
  1 47  1  0  0  0
  1 48  1  0  0  0
  2  3  1  0  0  0
  2 46  1  0  0  0
  2 49  1  0  0  0
  2 50  1  0  0  0
  3  4  1  0  0  0
  3 13  1  0  0  0
  4  5  1  0  0  0
  4 12  2  0  0  0
  5 51  1  0  0  0
  6  7  2  0  0  0
  6 11  1  0  0  0
  6 37  1  0  0  0
  7  8  1  0  0  0
  7 52  1  0  0  0
  8  9  2  0  0  0
  8 53  1  0  0  0
  9 10  1  0  0  0
  9 54  1  0  0  0
 10 11  2  0  0  0
 10 55  1  0  0  0
 11 56  1  0  0  0
 13 14  1  0  0  0
 13 17  1  0  0  0
 13 57  1  0  0  0
 14 15  1  0  0  0
 14 20  2  0  0  0
 15 16  1  0  0  0
 15 58  1  0  0  0
 16 27  1  0  0  0
 16 28  1  0  0  0
 16 59  1  0  0  0
 17 18  1  0  0  0
 17 19  1  0  0  0
 17 60  1  0  0  0
 18 61  1  0  0  0
 18 62  1  0  0  0
 18 63  1  0  0  0
 19 64  1  0  0  0
 19 65  1  0  0  0
 19 66  1  0  0  0
 21 22  2  0  0  0
 21 26  1  0  0  0
 21 67  1  0  0  0
 22 23  1  0  0  0
 22 68  1  0  0  0
 23 24  2  0  0  0
 23 69  1  0  0  0
 24 25  1  0  0  0
 24 70  1  0  0  0
 25 26  2  0  0  0
 25 27  1  0  0  0
 26 71  1  0  0  0
 27 72  1  0  0  0
 27 73  1  0  0  0
 28 29  1  0  0  0
 28 74  1  0  0  0
 28 75  1  0  0  0
 29 30  1  0  0  0
 29 36  1  0  0  0
 29 76  1  0  0  0
 30 31  1  0  0  0
 30 37  1  0  0  0
 30 77  1  0  0  0
 31 32  1  0  0  0
 31 78  1  0  0  0
 32 33  1  0  0  0
 32 38  2  0  0  0
 33 34  1  0  0  0
 33 79  1  0  0  0
 33 80  1  0  0  0
 34 35  1  0  0  0
 35 39  2  0  0  0
 35 43  1  0  0  0
 36 81  1  0  0  0
 37 82  1  0  0  0
 37 83  1  0  0  0
 39 40  1  0  0  0
 39 45  1  0  0  0
 40 41  2  0  0  0
 40 84  1  0  0  0
 41 42  1  0  0  0
 41 85  1  0  0  0
 42 43  2  0  0  0
 42 86  1  0  0  0
 43 44  1  0  0  0
 44 87  1  0  0  0
 44 88  1  0  0  0
 44 89  1  0  0  0
 45 90  1  0  0  0
 45 91  1  0  0  0
 45 92  1  0  0  0
 46 93  1  0  0  0
 46 94  1  0  0  0
M  END
> <s_m_source_file>
../2rkf_ligand.sdf

> <i_m_source_file_index>
1

> <s_epik_input>
Tz1DMVtOSF1bQ0gyXVtDSDJdW0NIMl1OMVtDQEBIXShbQ0hdKFtDSDNdKVtDSDNdKUMoPU8pW05IXVtDQEBIXShbQ0gyXWMyW2NIXVtjSF1bY0hdW2NIXVtjSF0yKVtDSDJdW0NASF0oW09IXSlbQ0BIXShbQ0gyXWMzW2NIXVtjSF1bY0hdW2NIXVtjSF0zKVtOSF1DKD1PKVtDSDJdT2M0YyhbQ0gzXSlbY0hdW2NIXVtjSF1jNFtDSDNd

> <s_epik_cmdline>
J2VwaWtfYXBwJywgJy1pbWFlJywgJ2xpZ2FuZF9wcm8ubWFlJywgJy1vbWFlJywgJ2xpZ2FuZF9wcmVwLm1hZScsICctbXMnLCAnMScsICctcGgnLCAnNycsICctcGh0JywgJzAuNScsICctbnQn

> <r_lp_tautomer_probability>
1

> <r_epik_Ionization_Penalty>
  0.0001

> <r_epik_Ionization_Penalty_Charging>
  0.0000

> <r_epik_Ionization_Penalty_Neutral>
  0.0001

> <r_epik_State_Penalty>
 -0.0000

> <r_epik_Charging_Adjusted_Penalty>
0

> <i_epik_Tot_Q>
0

> <i_epik_Tot_abs_Q>
0

$$$$
