2rkg_ligand
                    3D
 Schrodinger Suite 2020-3.
 94 97  0  0  1  0            999 V2000
  -12.5830   12.3050    6.9680 C   0  0  0  0  0  0
  -10.4740   13.0480    5.7760 C   0  0  0  0  0  0
  -11.2370   14.2330    5.3870 N   0  0  0  0  0  0
  -12.5030   14.4660    5.7490 C   0  0  0  0  0  0
  -13.1700   13.4740    6.3330 N   0  0  0  0  0  0
   -6.4060   17.5750   -0.2120 C   0  0  0  0  0  0
   -5.7590   18.6000   -0.9040 C   0  0  0  0  0  0
   -4.4720   18.4050   -1.4090 C   0  0  0  0  0  0
   -3.8230   17.1840   -1.2160 C   0  0  0  0  0  0
   -4.4690   16.1610   -0.5140 C   0  0  0  0  0  0
   -5.7590   16.3530   -0.0170 C   0  0  0  0  0  0
  -13.0410   15.5350    5.5690 O   0  0  0  0  0  0
  -10.4930   15.1880    4.5370 C   0  0  2  0  0  0
  -10.3650   14.6780    3.1150 C   0  0  0  0  0  0
  -11.2610   15.2040    2.2700 N   0  0  0  0  0  0
  -11.3180   14.8460    0.8530 C   0  0  1  0  0  0
   -9.1480   15.5640    5.1980 C   0  0  0  0  0  0
   -8.3050   16.4700    4.3100 C   0  0  0  0  0  0
   -9.3270   16.2580    6.5470 C   0  0  0  0  0  0
   -9.5120   13.8520    2.7810 O   0  0  0  0  0  0
  -12.4550   10.6580    1.9210 C   0  0  0  0  0  0
  -13.4870   10.6420    2.8580 C   0  0  0  0  0  0
  -14.2560   11.7860    3.0630 C   0  0  0  0  0  0
  -13.9910   12.9400    2.3270 C   0  0  0  0  0  0
  -12.9520   12.9620    1.3980 C   0  0  0  0  0  0
  -12.1910   11.8140    1.1890 C   0  0  0  0  0  0
  -12.6950   14.2280    0.6130 C   0  0  0  0  0  0
  -11.3160   16.1540    0.0660 C   0  0  0  0  0  0
  -10.2000   17.1290    0.4250 C   0  0  1  0  0  0
   -8.7910   16.6940    0.0160 C   0  0  1  0  0  0
   -8.7390   16.5540   -1.4340 N   0  0  0  0  0  0
   -8.5640   15.3460   -1.9710 C   0  0  0  0  0  0
   -8.4930   15.2230   -3.4750 C   0  0  0  0  0  0
   -8.6070   16.4800   -4.1480 O   0  0  0  0  0  0
   -8.0950   16.6300   -5.4150 C   0  0  0  0  0  0
  -10.4980   18.3790   -0.1920 O   0  0  0  0  0  0
   -7.8040   17.8190    0.3280 C   0  0  0  0  0  0
   -8.4640   14.3320   -1.2980 O   0  0  0  0  0  0
   -8.7070   16.0230   -6.5230 C   0  0  0  0  0  0
   -8.1660   16.1920   -7.7940 C   0  0  0  0  0  0
   -7.0230   16.9640   -7.9790 C   0  0  0  0  0  0
   -6.4120   17.5670   -6.8840 C   0  0  0  0  0  0
   -6.9410   17.4030   -5.6060 C   0  0  0  0  0  0
   -6.2400   18.0820   -4.4580 C   0  0  0  0  0  0
   -9.9530   15.1820   -6.4010 C   0  0  0  0  0  0
  -11.4580   11.9060    6.0230 C   0  0  0  0  0  0
  -12.2109   12.5781    7.9665 H   0  0  0  0  0  0
  -13.3455   11.5179    7.0635 H   0  0  0  0  0  0
   -9.7777   12.7787    4.9681 H   0  0  0  0  0  0
   -9.9060   13.2624    6.6933 H   0  0  0  0  0  0
  -14.2630   13.5952    6.3071 H   0  0  0  0  0  0
   -6.2605   19.5566   -1.0508 H   0  0  0  0  0  0
   -3.9736   19.2065   -1.9543 H   0  0  0  0  0  0
   -2.8187   17.0288   -1.6101 H   0  0  0  0  0  0
   -3.9624   15.2092   -0.3543 H   0  0  0  0  0  0
   -6.2609   15.5500    0.5228 H   0  0  0  0  0  0
  -11.1035   16.1000    4.4625 H   0  0  0  0  0  0
  -11.9736   15.9337    2.6820 H   0  0  0  0  0  0
  -10.4792   14.1790    0.6048 H   0  0  0  0  0  0
   -8.6186   14.6124    5.3535 H   0  0  0  0  0  0
   -8.1611   15.9918    3.3299 H   0  0  0  0  0  0
   -7.3263   16.6391    4.7828 H   0  0  0  0  0  0
   -8.8189   17.4333    4.1761 H   0  0  0  0  0  0
   -9.9340   15.6225    7.2086 H   0  0  0  0  0  0
   -9.8342   17.2227    6.3986 H   0  0  0  0  0  0
   -8.3416   16.4285    7.0052 H   0  0  0  0  0  0
  -11.8528    9.7637    1.7605 H   0  0  0  0  0  0
  -13.6921    9.7366    3.4292 H   0  0  0  0  0  0
  -15.0622   11.7786    3.7965 H   0  0  0  0  0  0
  -14.6003   13.8309    2.4790 H   0  0  0  0  0  0
  -11.3880   11.8200    0.4519 H   0  0  0  0  0  0
  -13.4752   14.9487    0.8990 H   0  0  0  0  0  0
  -12.8026   13.9745   -0.4520 H   0  0  0  0  0  0
  -11.2071   15.9363   -1.0067 H   0  0  0  0  0  0
  -12.2630   16.6867    0.2377 H   0  0  0  0  0  0
  -10.1961   17.2552    1.5177 H   0  0  0  0  0  0
   -8.5426   15.7407    0.5054 H   0  0  0  0  0  0
   -8.8438   17.4408   -2.0763 H   0  0  0  0  0  0
   -7.5284   14.7786   -3.7614 H   0  0  0  0  0  0
   -9.3124   14.5804   -3.8294 H   0  0  0  0  0  0
  -11.4721   18.8596   -0.0185 H   0  0  0  0  0  0
   -7.7616   17.9219    1.4224 H   0  0  0  0  0  0
   -8.2110   18.7416   -0.1115 H   0  0  0  0  0  0
   -8.6414   15.7158   -8.6516 H   0  0  0  0  0  0
   -6.6079   17.0958   -8.9782 H   0  0  0  0  0  0
   -5.5155   18.1703   -7.0269 H   0  0  0  0  0  0
   -6.7719   17.8605   -3.5210 H   0  0  0  0  0  0
   -6.2300   19.1691   -4.6259 H   0  0  0  0  0  0
   -5.2064   17.7121   -4.3891 H   0  0  0  0  0  0
  -10.2634   15.1374   -5.3467 H   0  0  0  0  0  0
   -9.7461   14.1651   -6.7657 H   0  0  0  0  0  0
  -10.7582   15.6302   -7.0017 H   0  0  0  0  0  0
  -10.8988   11.0625    6.4541 H   0  0  0  0  0  0
  -11.8824   11.6071    5.0532 H   0  0  0  0  0  0
  1  5  1  0  0  0
  1 46  1  0  0  0
  1 47  1  0  0  0
  1 48  1  0  0  0
  2  3  1  0  0  0
  2 46  1  0  0  0
  2 49  1  0  0  0
  2 50  1  0  0  0
  3  4  1  0  0  0
  3 13  1  0  0  0
  4  5  1  0  0  0
  4 12  2  0  0  0
  5 51  1  0  0  0
  6  7  2  0  0  0
  6 11  1  0  0  0
  6 37  1  0  0  0
  7  8  1  0  0  0
  7 52  1  0  0  0
  8  9  2  0  0  0
  8 53  1  0  0  0
  9 10  1  0  0  0
  9 54  1  0  0  0
 10 11  2  0  0  0
 10 55  1  0  0  0
 11 56  1  0  0  0
 13 14  1  0  0  0
 13 17  1  0  0  0
 13 57  1  0  0  0
 14 15  1  0  0  0
 14 20  2  0  0  0
 15 16  1  0  0  0
 15 58  1  0  0  0
 16 27  1  0  0  0
 16 28  1  0  0  0
 16 59  1  0  0  0
 17 18  1  0  0  0
 17 19  1  0  0  0
 17 60  1  0  0  0
 18 61  1  0  0  0
 18 62  1  0  0  0
 18 63  1  0  0  0
 19 64  1  0  0  0
 19 65  1  0  0  0
 19 66  1  0  0  0
 21 22  2  0  0  0
 21 26  1  0  0  0
 21 67  1  0  0  0
 22 23  1  0  0  0
 22 68  1  0  0  0
 23 24  2  0  0  0
 23 69  1  0  0  0
 24 25  1  0  0  0
 24 70  1  0  0  0
 25 26  2  0  0  0
 25 27  1  0  0  0
 26 71  1  0  0  0
 27 72  1  0  0  0
 27 73  1  0  0  0
 28 29  1  0  0  0
 28 74  1  0  0  0
 28 75  1  0  0  0
 29 30  1  0  0  0
 29 36  1  0  0  0
 29 76  1  0  0  0
 30 31  1  0  0  0
 30 37  1  0  0  0
 30 77  1  0  0  0
 31 32  1  0  0  0
 31 78  1  0  0  0
 32 33  1  0  0  0
 32 38  2  0  0  0
 33 34  1  0  0  0
 33 79  1  0  0  0
 33 80  1  0  0  0
 34 35  1  0  0  0
 35 39  2  0  0  0
 35 43  1  0  0  0
 36 81  1  0  0  0
 37 82  1  0  0  0
 37 83  1  0  0  0
 39 40  1  0  0  0
 39 45  1  0  0  0
 40 41  2  0  0  0
 40 84  1  0  0  0
 41 42  1  0  0  0
 41 85  1  0  0  0
 42 43  2  0  0  0
 42 86  1  0  0  0
 43 44  1  0  0  0
 44 87  1  0  0  0
 44 88  1  0  0  0
 44 89  1  0  0  0
 45 90  1  0  0  0
 45 91  1  0  0  0
 45 92  1  0  0  0
 46 93  1  0  0  0
 46 94  1  0  0  0
M  END
> <s_m_source_file>
../2rkg_ligand.sdf

> <i_m_source_file_index>
1

> <s_epik_input>
Tz1DMVtOSF1bQ0gyXVtDSDJdW0NIMl1OMVtDQEBIXShbQ0hdKFtDSDNdKVtDSDNdKUMoPU8pW05IXVtDQEBIXShbQ0gyXWMyW2NIXVtjSF1bY0hdW2NIXVtjSF0yKVtDSDJdW0NASF0oW09IXSlbQ0BIXShbQ0gyXWMzW2NIXVtjSF1bY0hdW2NIXVtjSF0zKVtOSF1DKD1PKVtDSDJdT2M0YyhbQ0gzXSlbY0hdW2NIXVtjSF1jNFtDSDNd

> <s_epik_cmdline>
J2VwaWtfYXBwJywgJy1pbWFlJywgJ2xpZ2FuZF9wcm8ubWFlJywgJy1vbWFlJywgJ2xpZ2FuZF9wcmVwLm1hZScsICctbXMnLCAnMScsICctcGgnLCAnNycsICctcGh0JywgJzAuNScsICctbnQn

> <r_lp_tautomer_probability>
1

> <r_epik_Ionization_Penalty>
  0.0001

> <r_epik_Ionization_Penalty_Charging>
  0.0000

> <r_epik_Ionization_Penalty_Neutral>
  0.0001

> <r_epik_State_Penalty>
 -0.0000

> <r_epik_Charging_Adjusted_Penalty>
0

> <i_epik_Tot_Q>
0

> <i_epik_Tot_abs_Q>
0

$$$$
