2rkn_ligand
                    3D
 Schrodinger Suite 2020-3.
 74 73  0  0  1  0            999 V2000
    9.1570   12.2200   17.5350 O   0  0  0  0  0  0
    8.6180   11.7880   16.5330 C   0  0  0  0  0  0
    7.3550   11.4080   16.5960 O   0  0  0  0  0  0
    6.4920   12.3940   16.4780 C   0  0  0  0  0  0
    5.3560   12.2890   17.4290 C   0  0  1  0  0  0
    4.6910   13.4420   17.4380 O   0  0  0  0  0  0
    4.4350   11.2060   17.0110 C   0  0  0  0  0  0
    3.8260   10.5910   18.0390 O   0  0  0  0  0  0
    2.4430   10.0300   17.6710 P   0  0  1  0  0  0
    2.6290    8.5960   17.1450 O   0  5  0  0  0  0
    1.5620   10.1360   18.9370 O   0  0  0  0  0  0
    1.7960   10.8730   16.5650 O   0  0  0  0  0  0
    1.2670    8.9310   19.6400 C   0  0  0  0  0  0
    9.4330   11.6930   15.2550 C   0  0  0  0  0  0
    9.8000   10.2540   14.8960 C   0  0  0  0  0  0
   11.3120   10.0390   14.8860 C   0  0  0  0  0  0
   11.4850    8.5370   14.8480 C   0  0  0  0  0  0
   12.8510    8.0690   14.4140 C   0  0  0  0  0  0
   12.6420    6.9250   13.4330 C   0  0  0  0  0  0
   13.8270    6.7740   12.5100 C   0  0  0  0  0  0
   13.3750    6.0330   11.2610 C   0  0  0  0  0  0
   14.4780    5.8980   10.2590 C   0  0  0  0  0  0
   13.6770    5.6930    9.0000 C   0  0  0  0  0  0
   14.4250    4.9040    7.9570 C   0  0  0  0  0  0
   15.9230    5.0430    7.9470 C   0  0  0  0  0  0
   16.3660    4.4290    6.6420 C   0  0  0  0  0  0
   17.8530    4.5180    6.5370 C   0  0  0  0  0  0
   18.1560    4.6660    5.0680 C   0  0  0  0  0  0
   19.5820    4.3070    4.7770 C   0  0  0  0  0  0
   20.5250    5.4080    5.2200 C   0  0  0  0  0  0
    7.0000   13.3507   16.6693 H   0  0  0  0  0  0
    6.0757   12.3970   15.4598 H   0  0  0  0  0  0
    5.6990   12.1556   18.4656 H   0  0  0  0  0  0
    5.2054   14.3714   17.7236 H   0  0  0  0  0  0
    3.6483   11.6227   16.3650 H   0  0  0  0  0  0
    4.9972   10.4401   16.4566 H   0  0  0  0  0  0
    0.6364    9.1601   20.5117 H   0  0  0  0  0  0
    2.2043    8.4648   19.9778 H   0  0  0  0  0  0
    0.7328    8.2386   18.9727 H   0  0  0  0  0  0
    8.8539   12.1118   14.4188 H   0  0  0  0  0  0
   10.3682   12.2599   15.3735 H   0  0  0  0  0  0
    9.3589    9.5681   15.6342 H   0  0  0  0  0  0
    9.4110   10.0151   13.8952 H   0  0  0  0  0  0
   11.7453   10.5230   13.9983 H   0  0  0  0  0  0
   11.7508   10.4782   15.7940 H   0  0  0  0  0  0
   11.3120    8.1225   15.8521 H   0  0  0  0  0  0
   10.7618    8.1023   14.1423 H   0  0  0  0  0  0
   13.3872    8.8998   13.9320 H   0  0  0  0  0  0
   13.4179    7.7274   15.2926 H   0  0  0  0  0  0
   12.5082    5.9852   13.9888 H   0  0  0  0  0  0
   11.7467    7.1222   12.8251 H   0  0  0  0  0  0
   14.2093    7.7690   12.2383 H   0  0  0  0  0  0
   14.6180    6.2038   13.0191 H   0  0  0  0  0  0
   13.0357    5.0235   11.5362 H   0  0  0  0  0  0
   12.5471    6.5819   10.7884 H   0  0  0  0  0  0
   15.0842    6.8159   10.2551 H   0  0  0  0  0  0
   15.1130    5.0404   10.5260 H   0  0  0  0  0  0
   12.7532    5.1455    9.2383 H   0  0  0  0  0  0
   13.4220    6.6704    8.5644 H   0  0  0  0  0  0
   14.2265    3.8311    8.0966 H   0  0  0  0  0  0
   14.0908    5.2114    6.9551 H   0  0  0  0  0  0
   16.1928    6.1078    8.0060 H   0  0  0  0  0  0
   16.3466    4.5090    8.8104 H   0  0  0  0  0  0
   16.0562    3.3740    6.6093 H   0  0  0  0  0  0
   15.9037    4.9730    5.8052 H   0  0  0  0  0  0
   18.2093    5.3890    7.1066 H   0  0  0  0  0  0
   18.3050    3.6025    6.9463 H   0  0  0  0  0  0
   17.4987    4.0005    4.4892 H   0  0  0  0  0  0
   17.9842    5.7083    4.7614 H   0  0  0  0  0  0
   19.8443    3.3831    5.3133 H   0  0  0  0  0  0
   19.7075    4.1513    3.6953 H   0  0  0  0  0  0
   21.5612    5.1162    4.9939 H   0  0  0  0  0  0
   20.4174    5.5693    6.3028 H   0  0  0  0  0  0
   20.2806    6.3374    4.6848 H   0  0  0  0  0  0
  1  2  2  0  0  0
  2  3  1  0  0  0
  2 14  1  0  0  0
  3  4  1  0  0  0
  4  5  1  0  0  0
  4 31  1  0  0  0
  4 32  1  0  0  0
  5  6  1  0  0  0
  5  7  1  0  0  0
  5 33  1  0  0  0
  6 34  1  0  0  0
  7  8  1  0  0  0
  7 35  1  0  0  0
  7 36  1  0  0  0
  8  9  1  0  0  0
  9 10  1  0  0  0
  9 11  1  0  0  0
  9 12  2  0  0  0
 11 13  1  0  0  0
 13 37  1  0  0  0
 13 38  1  0  0  0
 13 39  1  0  0  0
 14 15  1  0  0  0
 14 40  1  0  0  0
 14 41  1  0  0  0
 15 16  1  0  0  0
 15 42  1  0  0  0
 15 43  1  0  0  0
 16 17  1  0  0  0
 16 44  1  0  0  0
 16 45  1  0  0  0
 17 18  1  0  0  0
 17 46  1  0  0  0
 17 47  1  0  0  0
 18 19  1  0  0  0
 18 48  1  0  0  0
 18 49  1  0  0  0
 19 20  1  0  0  0
 19 50  1  0  0  0
 19 51  1  0  0  0
 20 21  1  0  0  0
 20 52  1  0  0  0
 20 53  1  0  0  0
 21 22  1  0  0  0
 21 54  1  0  0  0
 21 55  1  0  0  0
 22 23  1  0  0  0
 22 56  1  0  0  0
 22 57  1  0  0  0
 23 24  1  0  0  0
 23 58  1  0  0  0
 23 59  1  0  0  0
 24 25  1  0  0  0
 24 60  1  0  0  0
 24 61  1  0  0  0
 25 26  1  0  0  0
 25 62  1  0  0  0
 25 63  1  0  0  0
 26 27  1  0  0  0
 26 64  1  0  0  0
 26 65  1  0  0  0
 27 28  1  0  0  0
 27 66  1  0  0  0
 27 67  1  0  0  0
 28 29  1  0  0  0
 28 68  1  0  0  0
 28 69  1  0  0  0
 29 30  1  0  0  0
 29 70  1  0  0  0
 29 71  1  0  0  0
 30 72  1  0  0  0
 30 73  1  0  0  0
 30 74  1  0  0  0
M  CHG  1  10  -1
M  END
> <s_m_source_file>
../2rkn_ligand.sdf

> <i_m_source_file_index>
1

> <s_epik_input>
W0NIM11PW1BAXSg9TykoW09IXSlPW0NIMl1bQ0BIXShbT0hdKVtDSDJdT0MoPU8pW0NIMl1bQ0gyXVtDSDJdW0NIMl1bQ0gyXVtDSDJdW0NIMl1bQ0gyXVtDSDJdW0NIMl1bQ0gyXVtDSDJdW0NIMl1bQ0gyXVtDSDJdW0NIMl1bQ0gzXQ==

> <s_epik_cmdline>
J2VwaWtfYXBwJywgJy1pbWFlJywgJ2xpZ2FuZF9wcm8ubWFlJywgJy1vbWFlJywgJ2xpZ2FuZF9wcmVwLm1hZScsICctbXMnLCAnMScsICctcGgnLCAnNycsICctcGh0JywgJzAuNScsICctbnQn

> <r_lp_tautomer_probability>
1

> <r_epik_Ionization_Penalty>
  0.0004

> <r_epik_Ionization_Penalty_Charging>
  0.0004

> <r_epik_Ionization_Penalty_Neutral>
  0.0000

> <r_epik_State_Penalty>
 -0.0000

> <r_epik_Charging_Adjusted_Penalty>
0.000392364542545446

> <i_epik_Tot_Q>
-1

> <i_epik_Tot_abs_Q>
1

> <s_epik_Chemistry_Notes>
This compound has an ester and may undergo hydrolysis at high or low pH.

$$$$
