2rku_ligand
                    3D
 Schrodinger Suite 2020-3.
 78 82  0  0  1  0            999 V2000
  -42.7990   11.9460   18.0890 N   0  0  0  0  0  0
  -44.0660   13.8570   14.7150 N   0  0  0  0  0  0
  -41.8640   12.4240   17.2470 C   0  0  0  0  0  0
  -43.0960   14.3700   13.7230 C   0  0  1  0  0  0
  -41.6760   14.2910   14.1160 C   0  0  0  0  0  0
  -46.3230   11.5110   18.7200 C   0  0  0  0  0  0
  -45.5350   13.9590   14.5600 C   0  0  0  0  0  0
  -42.8550   11.8550   12.8690 C   0  0  0  0  0  0
  -47.3450   14.9390   13.3030 C   0  0  0  0  0  0
  -46.3390   12.7770   14.0340 C   0  0  0  0  0  0
  -48.2690   10.5240   19.7090 C   0  0  0  0  0  0
  -47.1180   12.2960   17.8890 C   0  0  0  0  0  0
  -50.5580   11.0550   19.0150 C   0  0  0  0  0  0
  -52.7790   10.9790   18.1120 C   0  0  2  0  0  0
  -54.9580   12.0160   17.5680 C   0  0  0  0  0  0
  -54.5930    9.7410   16.8070 C   0  0  0  0  0  0
  -50.9800   10.6510   20.0970 O   0  0  0  0  0  0
  -51.3460   11.2340   17.9720 N   0  0  0  0  0  0
  -53.0940    9.8630   17.1200 C   0  0  0  0  0  0
  -55.2150   11.0440   16.4880 N   0  3  1  0  0  0
  -56.6790   10.8900   16.4050 C   0  0  0  0  0  0
  -53.4540   12.2600   17.6620 C   0  0  0  0  0  0
  -49.0750   11.2810   18.8710 C   0  0  0  0  0  0
  -46.8900   10.6250   19.6330 C   0  0  0  0  0  0
  -46.0520    9.8690   20.4330 O   0  0  0  0  0  0
  -46.4850    8.7790   21.2670 C   0  0  0  0  0  0
  -48.5230   12.1720   17.9390 C   0  0  0  0  0  0
  -44.9550   11.5360   18.7390 N   0  0  0  0  0  0
  -44.1150   12.0470   17.8240 C   0  0  0  0  0  0
  -44.5370   12.6780   16.7250 N   0  0  0  0  0  0
  -43.6260   13.2120   15.8720 C   0  0  0  0  0  0
  -47.5600   13.4390   13.4150 C   0  0  0  0  0  0
  -45.9180   15.1950   13.7660 C   0  0  0  0  0  0
  -43.1500   13.3440   12.5470 C   0  0  0  0  0  0
  -40.8350   14.8060   13.3360 O   0  0  0  0  0  0
  -41.2990   13.6610   15.2350 N   0  0  0  0  0  0
  -39.8810   13.5230   15.6240 C   0  0  0  0  0  0
  -42.2670   13.0880   16.1130 C   0  0  0  0  0  0
  -40.8041   12.2867   17.4610 H   0  0  0  0  0  0
  -43.3555   15.4302   13.5861 H   0  0  0  0  0  0
  -45.7936   14.0030   15.6283 H   0  0  0  0  0  0
  -42.9302   11.2588   11.9477 H   0  0  0  0  0  0
  -43.5857   11.4872   13.6044 H   0  0  0  0  0  0
  -41.8401   11.7636   13.2832 H   0  0  0  0  0  0
  -47.4857   15.2525   12.2581 H   0  0  0  0  0  0
  -48.0702   15.4622   13.9436 H   0  0  0  0  0  0
  -45.7388   12.2247   13.2960 H   0  0  0  0  0  0
  -46.5986   12.1095   14.8689 H   0  0  0  0  0  0
  -48.7238    9.8460   20.4312 H   0  0  0  0  0  0
  -46.6563   13.0047   17.2014 H   0  0  0  0  0  0
  -53.0664   10.7065   19.1382 H   0  0  0  0  0  0
  -55.4755   12.9601   17.3424 H   0  0  0  0  0  0
  -55.3306   11.6123   18.5210 H   0  0  0  0  0  0
  -54.7339    9.0783   15.9404 H   0  0  0  0  0  0
  -55.1166    9.3211   17.6785 H   0  0  0  0  0  0
  -50.9389   11.5702   17.0070 H   0  0  0  0  0  0
  -52.5702   10.0563   16.1722 H   0  0  0  0  0  0
  -52.7603    8.8998   17.5335 H   0  0  0  0  0  0
  -54.7915   11.3951   15.5354 H   0  0  0  0  0  0
  -57.1370   11.8615   16.1676 H   0  0  0  0  0  0
  -57.0649   10.5286   17.3696 H   0  0  0  0  0  0
  -56.9272   10.1650   15.6159 H   0  0  0  0  0  0
  -53.2504   13.0576   18.3917 H   0  0  0  0  0  0
  -53.0618   12.5549   16.6775 H   0  0  0  0  0  0
  -45.6181    8.3538   21.7940 H   0  0  0  0  0  0
  -46.9517    8.0027   20.6428 H   0  0  0  0  0  0
  -47.2161    9.1474   22.0016 H   0  0  0  0  0  0
  -49.1610   12.7522   17.2723 H   0  0  0  0  0  0
  -44.4086   11.0967   19.5866 H   0  0  0  0  0  0
  -48.4368   13.2406   14.0490 H   0  0  0  0  0  0
  -47.7288   13.0170   12.4133 H   0  0  0  0  0  0
  -45.8543   16.0815   14.4142 H   0  0  0  0  0  0
  -45.2301   15.3123   12.9157 H   0  0  0  0  0  0
  -44.1565   13.3476   12.1032 H   0  0  0  0  0  0
  -42.4109   13.6240   11.7819 H   0  0  0  0  0  0
  -39.2446   14.0046   14.8670 H   0  0  0  0  0  0
  -39.6225   12.4562   15.6954 H   0  0  0  0  0  0
  -39.7197   14.0054   16.5993 H   0  0  0  0  0  0
  1  3  2  0  0  0
  1 29  1  0  0  0
  2  4  1  0  0  0
  2  7  1  0  0  0
  2 31  1  0  0  0
  3 38  1  0  0  0
  3 39  1  0  0  0
  4  5  1  0  0  0
  4 34  1  0  0  0
  4 40  1  0  0  0
  5 35  2  0  0  0
  5 36  1  0  0  0
  6 12  2  0  0  0
  6 24  1  0  0  0
  6 28  1  0  0  0
  7 10  1  0  0  0
  7 33  1  0  0  0
  7 41  1  0  0  0
  8 34  1  0  0  0
  8 42  1  0  0  0
  8 43  1  0  0  0
  8 44  1  0  0  0
  9 32  1  0  0  0
  9 33  1  0  0  0
  9 45  1  0  0  0
  9 46  1  0  0  0
 10 32  1  0  0  0
 10 47  1  0  0  0
 10 48  1  0  0  0
 11 23  1  0  0  0
 11 24  2  0  0  0
 11 49  1  0  0  0
 12 27  1  0  0  0
 12 50  1  0  0  0
 13 17  2  0  0  0
 13 18  1  0  0  0
 13 23  1  0  0  0
 14 18  1  0  0  0
 14 19  1  0  0  0
 14 22  1  0  0  0
 14 51  1  0  0  0
 15 20  1  0  0  0
 15 22  1  0  0  0
 15 52  1  0  0  0
 15 53  1  0  0  0
 16 19  1  0  0  0
 16 20  1  0  0  0
 16 54  1  0  0  0
 16 55  1  0  0  0
 18 56  1  0  0  0
 19 57  1  0  0  0
 19 58  1  0  0  0
 20 21  1  0  0  0
 20 59  1  0  0  0
 21 60  1  0  0  0
 21 61  1  0  0  0
 21 62  1  0  0  0
 22 63  1  0  0  0
 22 64  1  0  0  0
 23 27  2  0  0  0
 24 25  1  0  0  0
 25 26  1  0  0  0
 26 65  1  0  0  0
 26 66  1  0  0  0
 26 67  1  0  0  0
 27 68  1  0  0  0
 28 29  1  0  0  0
 28 69  1  0  0  0
 29 30  2  0  0  0
 30 31  1  0  0  0
 31 38  2  0  0  0
 32 70  1  0  0  0
 32 71  1  0  0  0
 33 72  1  0  0  0
 33 73  1  0  0  0
 34 74  1  0  0  0
 34 75  1  0  0  0
 36 37  1  0  0  0
 36 38  1  0  0  0
 37 76  1  0  0  0
 37 77  1  0  0  0
 37 78  1  0  0  0
M  CHG  1  20   1
M  END
> <s_m_source_file>
../2rku_ligand.sdf

> <i_m_source_file_index>
1

> <s_epik_input>
W0NIMl0xW0NIMl1bQ0gyXVtDSDJdW0NIXTFOMltDQEhdKFtDSDJdW0NIM10pQyg9TylOKFtDSDNdKWMoYzIzKVtjSF1uYyhuMylbTkhdYzRbY0hdW2NIXWMoW2NIXWM0T1tDSDNdKUMoPU8pW05IXVtDQEBIXTVbQ0gyXVtDSDJdW05AQEgrXShbQ0gzXSlbQ0gyXVtDSDJdNQ==

> <s_epik_cmdline>
J2VwaWtfYXBwJywgJy1pbWFlJywgJ2xpZ2FuZF9wcm8ubWFlJywgJy1vbWFlJywgJ2xpZ2FuZF9wcmVwLm1hZScsICctbXMnLCAnMScsICctcGgnLCAnNycsICctcGh0JywgJzAuNScsICctbnQn

> <r_lp_tautomer_probability>
0.999999648617923

> <r_epik_Ionization_Penalty>
  0.0476

> <r_epik_Ionization_Penalty_Charging>
  0.0049

> <r_epik_Ionization_Penalty_Neutral>
  0.0426

> <r_epik_State_Penalty>
  0.0356

> <r_epik_Charging_Adjusted_Penalty>
0.0405113066483782

> <i_epik_Tot_Q>
1

> <i_epik_Tot_abs_Q>
1

$$$$
