2rly_ligand
                    3D
 Schrodinger Suite 2020-3.
120125  0  0  1  0            999 V2000
  -10.0560   11.5080    1.2330 N   0  3  0  0  0  0
   -9.1140   10.4110    1.4570 C   0  0  2  0  0  0
   -7.7180   10.9160    1.8060 C   0  0  0  0  0  0
   -7.0450   11.5450    0.9840 O   0  0  0  0  0  0
   -9.1030    9.6750    0.1180 C   0  0  0  0  0  0
  -10.4440    9.9360   -0.4680 C   0  0  0  0  0  0
  -10.8360   11.3180   -0.0080 C   0  0  0  0  0  0
   -7.3050   10.6600    3.0360 N   0  0  0  0  0  0
   -6.0070   11.1070    3.5120 C   0  0  2  0  0  0
   -5.0230    9.9430    3.4330 C   0  0  0  0  0  0
   -5.4320    8.7910    3.5850 O   0  0  0  0  0  0
   -6.1380   11.5840    4.9760 C   0  0  2  0  0  0
   -7.3910   12.2590    5.1310 O   0  0  0  0  0  0
   -5.0140   12.5350    5.3730 C   0  0  0  0  0  0
   -3.7260   10.2040    3.1970 N   0  0  0  0  0  0
   -2.7320    9.1380    3.1400 C   0  0  2  0  0  0
   -2.3240    8.6470    4.5290 C   0  0  0  0  0  0
   -2.3200    9.4120    5.4970 O   0  0  0  0  0  0
   -1.5640    9.8220    2.4230 C   0  0  0  0  0  0
   -1.6450   11.2330    2.8810 C   0  0  0  0  0  0
   -3.1190   11.5350    2.9520 C   0  0  0  0  0  0
   -1.9730    7.3640    4.6510 N   0  0  0  0  0  0
   -1.3600    6.8430    5.8520 C   0  0  2  0  0  0
    0.1100    7.2270    5.8700 C   0  0  0  0  0  0
    0.7090    7.3920    4.8030 O   0  0  0  0  0  0
   -1.5650    5.3280    5.7590 C   0  0  0  0  0  0
   -1.7950    5.0250    4.3140 C   0  0  0  0  0  0
   -2.0800    6.3310    3.6080 C   0  0  0  0  0  0
    0.7200    7.4280    7.0390 N   0  0  0  0  0  0
    2.1320    7.7530    7.0670 C   0  0  2  0  0  0
    2.9590    6.4990    6.8450 C   0  0  0  0  0  0
    2.5640    5.4000    7.2420 O   0  0  0  0  0  0
    2.3360    8.2920    8.4810 C   0  0  0  0  0  0
    1.2820    7.6250    9.3010 C   0  0  0  0  0  0
    0.1160    7.3690    8.3800 C   0  0  0  0  0  0
    4.1130    6.6700    6.2280 N   0  0  0  0  0  0
    4.9090    5.5340    5.8010 C   0  0  2  0  0  0
    5.6670    4.9220    6.9840 C   0  0  0  0  0  0
    6.0390    5.6270    7.9210 O   0  0  0  0  0  0
    5.8240    6.0200    4.6550 C   0  0  0  0  0  0
    7.1050    5.2450    4.3620 C   0  0  0  0  0  0
    6.8170    4.0060    3.5400 C   0  0  0  0  0  0
    8.0690    6.1500    3.6280 C   0  0  0  0  0  0
    5.8960    3.5960    6.9550 N   0  0  0  0  0  0
    6.6820    2.9170    7.9820 C   0  0  2  0  0  0
    8.1820    3.1150    7.8040 C   0  0  0  0  0  0
    8.6510    3.3700    6.7030 O   0  0  0  0  0  0
    6.3430    1.4280    7.8060 C   0  0  0  0  0  0
    5.4560    1.3090    6.6040 C   0  0  0  0  0  0
    5.2850    2.6620    5.9970 C   0  0  0  0  0  0
    8.9430    3.0180    8.9020 N   0  0  0  0  0  0
   10.3890    3.1130    8.8790 C   0  0  2  0  0  0
   11.0480    1.7420    8.7260 C   0  0  0  0  0  0
   11.5830    1.4490    7.6390 O   0  0  0  0  0  0
   10.7120    3.7350   10.2430 C   0  0  0  0  0  0
    9.5470    3.4090   11.1340 C   0  0  0  0  0  0
    8.4530    2.8230   10.2720 C   0  0  0  0  0  0
   11.0210    0.9550    9.6970 O   0  5  0  0  0  0
  -10.7591   11.5656    2.0770 H   0  0  0  0  0  0
   -9.5029   12.4553    1.1512 H   0  0  0  0  0  0
   -9.4415    9.8012    2.3119 H   0  0  0  0  0  0
   -8.2965   10.0754   -0.5138 H   0  0  0  0  0  0
   -8.9349    8.6018    0.2909 H   0  0  0  0  0  0
  -10.3810    9.8850   -1.5650 H   0  0  0  0  0  0
  -11.1559    9.1796   -0.1061 H   0  0  0  0  0  0
  -11.9098   11.3931    0.2187 H   0  0  0  0  0  0
  -10.5600   12.0941   -0.7370 H   0  0  0  0  0  0
   -7.9707   10.0939    3.7041 H   0  0  0  0  0  0
   -5.6850   11.9277    2.8542 H   0  0  0  0  0  0
   -6.1395   10.7224    5.6599 H   0  0  0  0  0  0
   -8.3298   11.7374    4.8933 H   0  0  0  0  0  0
   -4.0455   12.0264    5.2577 H   0  0  0  0  0  0
   -5.1453   12.8403    6.4216 H   0  0  0  0  0  0
   -5.0405   13.4243    4.7261 H   0  0  0  0  0  0
   -3.1406    8.2542    2.6282 H   0  0  0  0  0  0
   -0.6199    9.3417    2.7195 H   0  0  0  0  0  0
   -1.6967    9.7292    1.3350 H   0  0  0  0  0  0
   -1.1631   11.3272    3.8653 H   0  0  0  0  0  0
   -1.1314   11.8834    2.1576 H   0  0  0  0  0  0
   -3.5100   11.9486    2.0107 H   0  0  0  0  0  0
   -3.3708   12.2113    3.7822 H   0  0  0  0  0  0
   -1.8205    7.2739    6.7533 H   0  0  0  0  0  0
   -0.6678    4.8130    6.1329 H   0  0  0  0  0  0
   -2.4345    5.0376    6.3670 H   0  0  0  0  0  0
   -0.8970    4.5506    3.8914 H   0  0  0  0  0  0
   -2.6517    4.3423    4.2143 H   0  0  0  0  0  0
   -3.0929    6.3464    3.1792 H   0  0  0  0  0  0
   -1.3435    6.5319    2.8160 H   0  0  0  0  0  0
    2.3928    8.4650    6.2701 H   0  0  0  0  0  0
    3.3469    8.0339    8.8294 H   0  0  0  0  0  0
    2.2175    9.3856    8.4772 H   0  0  0  0  0  0
    1.6755    6.6813    9.7066 H   0  0  0  0  0  0
    0.9889    8.2863   10.1297 H   0  0  0  0  0  0
   -0.6630    8.1409    8.4655 H   0  0  0  0  0  0
   -0.3322    6.3768    8.5370 H   0  0  0  0  0  0
    4.4691    7.6934    6.0387 H   0  0  0  0  0  0
    4.2276    4.7493    5.4405 H   0  0  0  0  0  0
    5.2652    6.0036    3.7076 H   0  0  0  0  0  0
    6.1605    7.0461    4.8645 H   0  0  0  0  0  0
    7.5583    4.9146    5.3082 H   0  0  0  0  0  0
    6.1154    3.3585    4.0863 H   0  0  0  0  0  0
    7.7546    3.4601    3.3588 H   0  0  0  0  0  0
    6.3719    4.2996    2.5779 H   0  0  0  0  0  0
    8.2681    7.0443    4.2368 H   0  0  0  0  0  0
    7.6286    6.4517    2.6662 H   0  0  0  0  0  0
    9.0114    5.6122    3.4472 H   0  0  0  0  0  0
    6.4170    3.3495    8.9580 H   0  0  0  0  0  0
    7.2707    0.8558    7.6581 H   0  0  0  0  0  0
    5.8252    1.0611    8.7045 H   0  0  0  0  0  0
    5.9177    0.6283    5.8736 H   0  0  0  0  0  0
    4.4770    0.9106    6.9087 H   0  0  0  0  0  0
    4.2224    2.9143    5.8658 H   0  0  0  0  0  0
    5.8023    2.7387    5.0293 H   0  0  0  0  0  0
   10.7151    3.7061    8.0119 H   0  0  0  0  0  0
   11.6441    3.3000   10.6329 H   0  0  0  0  0  0
   10.8339    4.8224   10.1305 H   0  0  0  0  0  0
    9.8613    2.6817   11.8971 H   0  0  0  0  0  0
    9.1935    4.3271   11.6261 H   0  0  0  0  0  0
    7.4965    3.3513   10.3980 H   0  0  0  0  0  0
    8.3062    1.7491   10.4595 H   0  0  0  0  0  0
  1  2  1  0  0  0
  1  7  1  0  0  0
  1 59  1  0  0  0
  1 60  1  0  0  0
  2  3  1  0  0  0
  2  5  1  0  0  0
  2 61  1  0  0  0
  3  4  2  0  0  0
  3  8  1  0  0  0
  5  6  1  0  0  0
  5 62  1  0  0  0
  5 63  1  0  0  0
  6  7  1  0  0  0
  6 64  1  0  0  0
  6 65  1  0  0  0
  7 66  1  0  0  0
  7 67  1  0  0  0
  8  9  1  0  0  0
  8 68  1  0  0  0
  9 10  1  0  0  0
  9 12  1  0  0  0
  9 69  1  0  0  0
 10 11  2  0  0  0
 10 15  1  0  0  0
 12 13  1  0  0  0
 12 14  1  0  0  0
 12 70  1  0  0  0
 13 71  1  0  0  0
 14 72  1  0  0  0
 14 73  1  0  0  0
 14 74  1  0  0  0
 15 16  1  0  0  0
 15 21  1  0  0  0
 16 17  1  0  0  0
 16 19  1  0  0  0
 16 75  1  0  0  0
 17 18  2  0  0  0
 17 22  1  0  0  0
 19 20  1  0  0  0
 19 76  1  0  0  0
 19 77  1  0  0  0
 20 21  1  0  0  0
 20 78  1  0  0  0
 20 79  1  0  0  0
 21 80  1  0  0  0
 21 81  1  0  0  0
 22 23  1  0  0  0
 22 28  1  0  0  0
 23 24  1  0  0  0
 23 26  1  0  0  0
 23 82  1  0  0  0
 24 25  2  0  0  0
 24 29  1  0  0  0
 26 27  1  0  0  0
 26 83  1  0  0  0
 26 84  1  0  0  0
 27 28  1  0  0  0
 27 85  1  0  0  0
 27 86  1  0  0  0
 28 87  1  0  0  0
 28 88  1  0  0  0
 29 30  1  0  0  0
 29 35  1  0  0  0
 30 31  1  0  0  0
 30 33  1  0  0  0
 30 89  1  0  0  0
 31 32  2  0  0  0
 31 36  1  0  0  0
 33 34  1  0  0  0
 33 90  1  0  0  0
 33 91  1  0  0  0
 34 35  1  0  0  0
 34 92  1  0  0  0
 34 93  1  0  0  0
 35 94  1  0  0  0
 35 95  1  0  0  0
 36 37  1  0  0  0
 36 96  1  0  0  0
 37 38  1  0  0  0
 37 40  1  0  0  0
 37 97  1  0  0  0
 38 39  2  0  0  0
 38 44  1  0  0  0
 40 41  1  0  0  0
 40 98  1  0  0  0
 40 99  1  0  0  0
 41 42  1  0  0  0
 41 43  1  0  0  0
 41100  1  0  0  0
 42101  1  0  0  0
 42102  1  0  0  0
 42103  1  0  0  0
 43104  1  0  0  0
 43105  1  0  0  0
 43106  1  0  0  0
 44 45  1  0  0  0
 44 50  1  0  0  0
 45 46  1  0  0  0
 45 48  1  0  0  0
 45107  1  0  0  0
 46 47  2  0  0  0
 46 51  1  0  0  0
 48 49  1  0  0  0
 48108  1  0  0  0
 48109  1  0  0  0
 49 50  1  0  0  0
 49110  1  0  0  0
 49111  1  0  0  0
 50112  1  0  0  0
 50113  1  0  0  0
 51 52  1  0  0  0
 51 57  1  0  0  0
 52 53  1  0  0  0
 52 55  1  0  0  0
 52114  1  0  0  0
 53 54  2  0  0  0
 53 58  1  0  0  0
 55 56  1  0  0  0
 55115  1  0  0  0
 55116  1  0  0  0
 56 57  1  0  0  0
 56117  1  0  0  0
 56118  1  0  0  0
 57119  1  0  0  0
 57120  1  0  0  0
M  CHG  2   1   1  58  -1
M  END
> <s_m_source_file>
../2rly_ligand.sdf

> <i_m_source_file_index>
1

> <s_epik_input>
W0NIMl0xW0NIMl1bQ0gyXVtOSDIrXVtDQEBIXTFDKD1PKVtOSF1bQ0BASF0oW0NASF0oW09IXSlbQ0gzXSlDKD1PKU4yW0NAQEhdKFtDSDJdW0NIMl1bQ0gyXTIpQyg9TylOM1tDQEBIXShbQ0gyXVtDSDJdW0NIMl0zKUMoPU8pTjRbQ0BASF0oW0NIMl1bQ0gyXVtDSDJdNClDKD1PKVtOSF1bQ0BASF0oW0NIMl1bQ0hdKFtDSDNdKVtDSDNdKUMoPU8pTjVbQ0BASF0oW0NIMl1bQ0gyXVtDSDJdNSlDKD1PKU42W0NASF0oQyg9TylbT0hdKVtDSDJdW0NIMl1bQ0gyXTY=

> <s_epik_cmdline>
J2VwaWtfYXBwJywgJy1pbWFlJywgJ2xpZ2FuZF9wcm8ubWFlJywgJy1vbWFlJywgJ2xpZ2FuZF9wcmVwLm1hZScsICctbXMnLCAnMScsICctcGgnLCAnNycsICctcGh0JywgJzAuNScsICctbnQn

> <r_epik_Ionization_Penalty>
  0.0418

> <r_epik_Ionization_Penalty_Charging>
  0.0418

> <r_epik_Ionization_Penalty_Neutral>
  0.0000

> <r_epik_State_Penalty>
  0.0349

> <r_epik_Charging_Adjusted_Penalty>
0.0767039103639602

> <i_epik_Tot_Q>
0

> <i_epik_Tot_abs_Q>
2

$$$$
