2rm0_ligand
                    3D
 Schrodinger Suite 2020-3.
139145  0  0  1  0            999 V2000
   -4.5750   14.6400   -0.4010 N   0  3  0  0  0  0
   -3.1740   14.4620    0.0460 C   0  0  2  0  0  0
   -2.9230   12.9930    0.3550 C   0  0  0  0  0  0
   -3.7760   12.3390    0.9500 O   0  0  0  0  0  0
   -2.9460   15.3060    1.2930 C   0  0  0  0  0  0
   -4.2960   15.8560    1.6010 C   0  0  0  0  0  0
   -5.0770   15.8280    0.3060 C   0  0  0  0  0  0
   -1.7750   12.4370   -0.0570 N   0  0  0  0  0  0
   -1.4970   11.0180    0.1490 C   0  0  2  0  0  0
   -1.0670   10.6940    1.5780 C   0  0  0  0  0  0
   -0.4500   11.5140    2.2610 O   0  0  0  0  0  0
   -0.3510   10.7520   -0.8270 C   0  0  0  0  0  0
    0.3680   12.0550   -0.9330 C   0  0  0  0  0  0
   -0.6650   13.1340   -0.7270 C   0  0  0  0  0  0
   -1.4050    9.4880    2.0420 N   0  0  0  0  0  0
   -0.9250    8.9370    3.3030 C   0  0  2  0  0  0
    0.4990    8.4090    3.1770 C   0  0  0  0  0  0
    0.8960    7.9430    2.1050 O   0  0  0  0  0  0
   -1.8980    7.7750    3.5870 C   0  0  0  0  0  0
   -2.9350    7.8370    2.5100 C   0  0  0  0  0  0
   -2.3010    8.5570    1.3680 C   0  0  0  0  0  0
    1.2730    8.4690    4.2490 N   0  0  0  0  0  0
    2.5300    7.7430    4.2630 C   0  0  2  0  0  0
    2.2260    6.2780    4.5310 C   0  0  0  0  0  0
    1.2510    5.9640    5.2200 O   0  0  0  0  0  0
    3.4920    8.2930    5.3250 C   0  0  0  0  0  0
    4.2730    9.5520    4.9280 C   0  0  0  0  0  0
    5.0830    9.3070    3.6610 C   0  0  0  0  0  0
    3.3460   10.7480    4.7610 C   0  0  0  0  0  0
    3.0320    5.3800    3.9900 N   0  0  0  0  0  0
    2.8420    3.9640    4.2620 C   0  0  2  0  0  0
    3.4100    3.6230    5.6450 C   0  0  0  0  0  0
    4.3740    4.2480    6.0880 O   0  0  0  0  0  0
    3.5250    3.0630    3.1810 C   0  0  2  0  0  0
    2.9500    3.2850    1.7860 C   0  0  0  0  0  0
    3.3510    1.5890    3.5190 C   0  0  0  0  0  0
    3.2330    4.6510    1.1890 C   0  0  0  0  0  0
    2.8290    2.6420    6.3550 N   0  0  0  0  0  0
    3.5010    2.0090    7.4890 C   0  0  2  0  0  0
    4.5380    0.9960    6.9970 C   0  0  0  0  0  0
    4.3550    0.3750    5.9550 O   0  0  0  0  0  0
    2.3470    1.3090    8.2170 C   0  0  0  0  0  0
    1.3540    1.0080    7.1500 C   0  0  0  0  0  0
    1.4700    2.1170    6.1430 C   0  0  0  0  0  0
    5.6310    0.7900    7.7240 N   0  0  0  0  0  0
    6.6260   -0.1960    7.3260 C   0  0  2  0  0  0
    6.1860   -1.6160    7.6650 C   0  0  0  0  0  0
    5.4750   -1.8340    8.6460 O   0  0  0  0  0  0
    7.8700    0.1940    8.1390 C   0  0  0  0  0  0
    7.5030    1.4220    8.9160 C   0  0  0  0  0  0
    6.0020    1.4800    8.9580 C   0  0  0  0  0  0
    6.6050   -2.6020    6.8620 N   0  0  0  0  0  0
    6.4040   -4.0120    7.1740 C   0  0  2  0  0  0
    7.4140   -4.4940    8.2100 C   0  0  0  0  0  0
    8.5290   -3.9710    8.2740 O   0  0  0  0  0  0
    6.6270   -4.7260    5.8280 C   0  0  0  0  0  0
    6.7950   -3.6380    4.8120 C   0  0  0  0  0  0
    7.2670   -2.4330    5.5690 C   0  0  0  0  0  0
    7.0320   -5.4700    9.0500 N   0  0  0  0  0  0
    7.9380   -6.0710   10.0260 C   0  0  2  0  0  0
    8.8840   -7.0790    9.3730 C   0  0  0  0  0  0
    8.5910   -8.2900    9.4230 O   0  0  0  0  0  0
    6.9930   -6.7770   11.0200 C   0  0  0  0  0  0
    5.5980   -6.4250   10.5880 C   0  0  0  0  0  0
    5.6890   -6.0530    9.1410 C   0  0  0  0  0  0
    9.9080   -6.6540    8.7950 O   0  5  0  0  0  0
   -4.5962   14.7871   -1.4909 H   0  0  0  0  0  0
   -5.1595   13.7454   -0.1404 H   0  0  0  0  0  0
   -2.5023   14.7877   -0.7619 H   0  0  0  0  0  0
   -2.5619   14.6679    2.1025 H   0  0  0  0  0  0
   -2.2147   16.0973    1.0715 H   0  0  0  0  0  0
   -4.7806   15.2314    2.3659 H   0  0  0  0  0  0
   -4.1957   16.8847    1.9774 H   0  0  0  0  0  0
   -4.8912   16.7239   -0.3047 H   0  0  0  0  0  0
   -6.1577   15.7212    0.4809 H   0  0  0  0  0  0
   -2.4124   10.4334   -0.0252 H   0  0  0  0  0  0
    0.2972    9.9598   -0.4242 H   0  0  0  0  0  0
   -0.7615   10.4324   -1.7962 H   0  0  0  0  0  0
    1.1491   12.1067   -0.1602 H   0  0  0  0  0  0
    0.8302   12.1389   -1.9276 H   0  0  0  0  0  0
   -1.0190   13.5573   -1.6786 H   0  0  0  0  0  0
   -0.2966   13.9437   -0.0800 H   0  0  0  0  0  0
   -0.9049    9.7271    4.0681 H   0  0  0  0  0  0
   -1.3495    6.8220    3.5576 H   0  0  0  0  0  0
   -2.3481    7.9085    4.5818 H   0  0  0  0  0  0
   -3.2268    6.8160    2.2228 H   0  0  0  0  0  0
   -3.8170    8.3797    2.8810 H   0  0  0  0  0  0
   -3.0263    9.1198    0.7621 H   0  0  0  0  0  0
   -1.7159    7.8922    0.7156 H   0  0  0  0  0  0
    0.9709    9.0625    5.1245 H   0  0  0  0  0  0
    2.9819    7.8856    3.2703 H   0  0  0  0  0  0
    2.9266    8.5545    6.2316 H   0  0  0  0  0  0
    4.2441    7.5285    5.5696 H   0  0  0  0  0  0
    4.9756    9.7930    5.7393 H   0  0  0  0  0  0
    5.7425    8.4393    3.8095 H   0  0  0  0  0  0
    5.6912   10.1958    3.4371 H   0  0  0  0  0  0
    4.4000    9.1091    2.8217 H   0  0  0  0  0  0
    2.7748   10.9015    5.6885 H   0  0  0  0  0  0
    2.6511   10.5600    3.9293 H   0  0  0  0  0  0
    3.9423   11.6467    4.5446 H   0  0  0  0  0  0
    3.8494    5.7087    3.3313 H   0  0  0  0  0  0
    1.7502    3.8322    4.2393 H   0  0  0  0  0  0
    4.5932    3.3248    3.1631 H   0  0  0  0  0  0
    3.3730    2.5431    1.0927 H   0  0  0  0  0  0
    1.8560    3.1745    1.8184 H   0  0  0  0  0  0
    3.7565    1.3926    4.5225 H   0  0  0  0  0  0
    3.8891    0.9773    2.7799 H   0  0  0  0  0  0
    2.2816    1.3320    3.4989 H   0  0  0  0  0  0
    2.7807    4.7146    0.1883 H   0  0  0  0  0  0
    4.3202    4.7985    1.1101 H   0  0  0  0  0  0
    2.8032    5.4300    1.8359 H   0  0  0  0  0  0
    4.0397    2.7464    8.1022 H   0  0  0  0  0  0
    2.7193    0.3928    8.6986 H   0  0  0  0  0  0
    1.9332    1.9829    8.9816 H   0  0  0  0  0  0
    1.5887    0.0345    6.6947 H   0  0  0  0  0  0
    0.3450    0.9747    7.5869 H   0  0  0  0  0  0
    0.7362    2.9174    6.3187 H   0  0  0  0  0  0
    1.3747    1.7526    5.1095 H   0  0  0  0  0  0
    6.7605   -0.1650    6.2347 H   0  0  0  0  0  0
    8.1408   -0.6316    8.8136 H   0  0  0  0  0  0
    8.7065    0.3975    7.4543 H   0  0  0  0  0  0
    7.9187    1.3509    9.9319 H   0  0  0  0  0  0
    7.9133    2.3102    8.4133 H   0  0  0  0  0  0
    5.6114    2.5081    8.9349 H   0  0  0  0  0  0
    5.5758    0.9452    9.8196 H   0  0  0  0  0  0
    5.4042   -4.1612    7.6077 H   0  0  0  0  0  0
    7.5270   -5.3553    5.8914 H   0  0  0  0  0  0
    5.7549   -5.3557    5.5980 H   0  0  0  0  0  0
    7.5351   -3.9495    4.0602 H   0  0  0  0  0  0
    5.8308   -3.4445    4.3191 H   0  0  0  0  0  0
    6.9441   -1.4856    5.1128 H   0  0  0  0  0  0
    8.3572   -2.4171    5.7145 H   0  0  0  0  0  0
    8.5726   -5.2906   10.4713 H   0  0  0  0  0  0
    7.1600   -7.8634   10.9761 H   0  0  0  0  0  0
    7.1962   -6.4156   12.0389 H   0  0  0  0  0  0
    4.9393   -7.2941   10.7320 H   0  0  0  0  0  0
    5.2293   -5.5817   11.1905 H   0  0  0  0  0  0
    4.9423   -5.3016    8.8446 H   0  0  0  0  0  0
    5.6205   -6.9224    8.4706 H   0  0  0  0  0  0
  1  2  1  0  0  0
  1  7  1  0  0  0
  1 67  1  0  0  0
  1 68  1  0  0  0
  2  3  1  0  0  0
  2  5  1  0  0  0
  2 69  1  0  0  0
  3  4  2  0  0  0
  3  8  1  0  0  0
  5  6  1  0  0  0
  5 70  1  0  0  0
  5 71  1  0  0  0
  6  7  1  0  0  0
  6 72  1  0  0  0
  6 73  1  0  0  0
  7 74  1  0  0  0
  7 75  1  0  0  0
  8  9  1  0  0  0
  8 14  1  0  0  0
  9 10  1  0  0  0
  9 12  1  0  0  0
  9 76  1  0  0  0
 10 11  2  0  0  0
 10 15  1  0  0  0
 12 13  1  0  0  0
 12 77  1  0  0  0
 12 78  1  0  0  0
 13 14  1  0  0  0
 13 79  1  0  0  0
 13 80  1  0  0  0
 14 81  1  0  0  0
 14 82  1  0  0  0
 15 16  1  0  0  0
 15 21  1  0  0  0
 16 17  1  0  0  0
 16 19  1  0  0  0
 16 83  1  0  0  0
 17 18  2  0  0  0
 17 22  1  0  0  0
 19 20  1  0  0  0
 19 84  1  0  0  0
 19 85  1  0  0  0
 20 21  1  0  0  0
 20 86  1  0  0  0
 20 87  1  0  0  0
 21 88  1  0  0  0
 21 89  1  0  0  0
 22 23  1  0  0  0
 22 90  1  0  0  0
 23 24  1  0  0  0
 23 26  1  0  0  0
 23 91  1  0  0  0
 24 25  2  0  0  0
 24 30  1  0  0  0
 26 27  1  0  0  0
 26 92  1  0  0  0
 26 93  1  0  0  0
 27 28  1  0  0  0
 27 29  1  0  0  0
 27 94  1  0  0  0
 28 95  1  0  0  0
 28 96  1  0  0  0
 28 97  1  0  0  0
 29 98  1  0  0  0
 29 99  1  0  0  0
 29100  1  0  0  0
 30 31  1  0  0  0
 30101  1  0  0  0
 31 32  1  0  0  0
 31 34  1  0  0  0
 31102  1  0  0  0
 32 33  2  0  0  0
 32 38  1  0  0  0
 34 35  1  0  0  0
 34 36  1  0  0  0
 34103  1  0  0  0
 35 37  1  0  0  0
 35104  1  0  0  0
 35105  1  0  0  0
 36106  1  0  0  0
 36107  1  0  0  0
 36108  1  0  0  0
 37109  1  0  0  0
 37110  1  0  0  0
 37111  1  0  0  0
 38 39  1  0  0  0
 38 44  1  0  0  0
 39 40  1  0  0  0
 39 42  1  0  0  0
 39112  1  0  0  0
 40 41  2  0  0  0
 40 45  1  0  0  0
 42 43  1  0  0  0
 42113  1  0  0  0
 42114  1  0  0  0
 43 44  1  0  0  0
 43115  1  0  0  0
 43116  1  0  0  0
 44117  1  0  0  0
 44118  1  0  0  0
 45 46  1  0  0  0
 45 51  1  0  0  0
 46 47  1  0  0  0
 46 49  1  0  0  0
 46119  1  0  0  0
 47 48  2  0  0  0
 47 52  1  0  0  0
 49 50  1  0  0  0
 49120  1  0  0  0
 49121  1  0  0  0
 50 51  1  0  0  0
 50122  1  0  0  0
 50123  1  0  0  0
 51124  1  0  0  0
 51125  1  0  0  0
 52 53  1  0  0  0
 52 58  1  0  0  0
 53 54  1  0  0  0
 53 56  1  0  0  0
 53126  1  0  0  0
 54 55  2  0  0  0
 54 59  1  0  0  0
 56 57  1  0  0  0
 56127  1  0  0  0
 56128  1  0  0  0
 57 58  1  0  0  0
 57129  1  0  0  0
 57130  1  0  0  0
 58131  1  0  0  0
 58132  1  0  0  0
 59 60  1  0  0  0
 59 65  1  0  0  0
 60 61  1  0  0  0
 60 63  1  0  0  0
 60133  1  0  0  0
 61 62  2  0  0  0
 61 66  1  0  0  0
 63 64  1  0  0  0
 63134  1  0  0  0
 63135  1  0  0  0
 64 65  1  0  0  0
 64136  1  0  0  0
 64137  1  0  0  0
 65138  1  0  0  0
 65139  1  0  0  0
M  CHG  2   1   1  66  -1
M  END
> <s_m_source_file>
../2rm0_ligand.sdf

> <i_m_source_file_index>
1

> <s_epik_input>
W0NIMl0xW0NIMl1bQ0gyXVtOSDIrXVtDQEBIXTFDKD1PKU4yW0NAQEhdKFtDSDJdW0NIMl1bQ0gyXTIpQyg9TylOM1tDQEBIXShbQ0gyXVtDSDJdW0NIMl0zKUMoPU8pW05IXVtDQEBIXShbQ0gyXVtDSF0oW0NIM10pW0NIM10pQyg9TylbTkhdW0NAQEhdKFtDQEBIXShbQ0gzXSlbQ0gyXVtDSDNdKUMoPU8pTjRbQ0BASF0oW0NIMl1bQ0gyXVtDSDJdNClDKD1PKU41W0NAQEhdKFtDSDJdW0NIMl1bQ0gyXTUpQyg9TylONltDQEBIXShbQ0gyXVtDSDJdW0NIMl02KUMoPU8pTjdbQ0BIXShDKD1PKVtPSF0pW0NIMl1bQ0gyXVtDSDJdNw==

> <s_epik_cmdline>
J2VwaWtfYXBwJywgJy1pbWFlJywgJ2xpZ2FuZF9wcm8ubWFlJywgJy1vbWFlJywgJ2xpZ2FuZF9wcmVwLm1hZScsICctbXMnLCAnMScsICctcGgnLCAnNycsICctcGh0JywgJzAuNScsICctbnQn

> <r_epik_Ionization_Penalty>
  0.0382

> <r_epik_Ionization_Penalty_Charging>
  0.0382

> <r_epik_Ionization_Penalty_Neutral>
  0.0000

> <r_epik_State_Penalty>
  0.0317

> <r_epik_Charging_Adjusted_Penalty>
0.0699662412451952

> <i_epik_Tot_Q>
0

> <i_epik_Tot_abs_Q>
2

$$$$
