2rnw_ligand
                    3D
 Schrodinger Suite 2020-3.
234233  0  0  1  0            999 V2000
   11.0260   16.7260    4.1250 N   0  3  0  0  0  0
   12.2420   16.2110    4.8040 C   0  0  2  0  0  0
   11.9000   15.6220    6.1680 C   0  0  0  0  0  0
   10.7390   15.6200    6.5790 O   0  0  0  0  0  0
   13.2740   17.3200    4.9510 C   0  0  0  0  0  0
   12.9180   15.1220    6.8630 N   0  0  0  0  0  0
   12.7300   14.5270    8.1840 C   0  0  2  0  0  0
   11.7130   13.3910    8.1310 C   0  0  0  0  0  0
   10.8890   13.2380    9.0330 O   0  0  0  0  0  0
   12.2820   15.5890    9.1900 C   0  0  0  0  0  0
   13.3300   16.6570    9.4570 C   0  0  0  0  0  0
   12.8100   17.7240   10.4060 C   0  0  0  0  0  0
   11.6500   18.4220    9.8600 N   0  0  0  0  0  0
   10.9460   19.3260   10.5350 C   0  0  0  0  0  0
   11.2800   19.6420   11.7790 N   0  0  0  0  0  0
    9.9040   19.9170    9.9640 N   0  0  0  0  0  0
   11.7760   12.5960    7.0660 N   0  0  0  0  0  0
   10.8620   11.4730    6.8940 C   0  0  2  0  0  0
   11.4950   10.1760    7.3860 C   0  0  0  0  0  0
   12.6930    9.9540    7.2110 O   0  0  0  0  0  0
   10.4530   11.3070    5.4180 C   0  0  2  0  0  0
    9.9470   12.5460    4.9070 O   0  0  0  0  0  0
    9.3940   10.2240    5.2660 C   0  0  0  0  0  0
   10.6830    9.3230    8.0040 N   0  0  0  0  0  0
   11.1680    8.0490    8.5240 C   0  0  2  0  0  0
   10.5660    6.8760    7.7540 C   0  0  0  0  0  0
    9.6730    6.1880    8.2480 O   0  0  0  0  0  0
   10.8340    7.9260   10.0140 C   0  0  0  0  0  0
   11.4080    6.6780   10.6670 C   0  0  0  0  0  0
   11.0420    6.6030   12.1410 C   0  0  0  0  0  0
   11.5910    5.3400   12.7850 C   0  0  0  0  0  0
   11.2390    5.2540   14.2290 N   0  3  0  0  0  0
   11.0600    6.6550    6.5390 N   0  0  0  0  0  0
   10.5740    5.5600    5.7060 C   0  0  2  0  0  0
   11.1910    4.2370    6.1480 C   0  0  0  0  0  0
   11.9320    4.1860    7.1300 O   0  0  0  0  0  0
   10.8980    5.8200    4.2330 C   0  0  0  0  0  0
   12.3870    5.8190    3.9260 C   0  0  0  0  0  0
   12.6770    5.7750    2.4360 C   0  0  0  0  0  0
   13.6930    5.2280    2.0080 O   0  0  0  0  0  0
   11.7860    6.3550    1.6380 N   0  0  0  0  0  0
   10.8830    3.1690    5.4190 N   0  0  0  0  0  0
   11.4090    1.8490    5.7430 C   0  0  2  0  0  0
   11.9700    1.1510    4.5070 C   0  0  0  0  0  0
   12.7460    0.2020    4.6250 O   0  0  0  0  0  0
   10.3340    0.9550    6.3870 C   0  0  2  0  0  0
   10.8040   -0.3960    6.4750 O   0  0  0  0  0  0
    9.0440    1.0000    5.5860 C   0  0  0  0  0  0
   11.5710    1.6170    3.3240 N   0  0  0  0  0  0
   12.0580    1.0330    2.0770 C   0  0  2  0  0  0
   13.5760    1.1140    2.0200 C   0  0  0  0  0  0
   14.1350    2.1550    1.6740 O   0  0  0  0  0  0
   11.4460    1.7400    0.8720 C   0  0  0  0  0  0
   14.2360    0.0120    2.3720 N   0  0  0  0  0  0
   15.6930   -0.0380    2.3640 C   0  0  2  0  0  0
   16.2400    0.5270    1.0600 C   0  0  0  0  0  0
   17.3270    1.1020    1.0400 O   0  0  0  0  0  0
   16.1870   -1.4730    2.5650 C   0  0  0  0  0  0
   15.7680   -2.0850    3.8920 C   0  0  0  0  0  0
   16.5380   -1.4810    5.0550 C   0  0  0  0  0  0
   16.1340   -2.0570    6.3350 N   0  0  0  0  0  0
   16.8410   -1.9360    7.4550 C   0  0  0  0  0  0
   17.9880   -1.2700    7.4550 N   0  0  0  0  0  0
   16.4010   -2.4860    8.5790 N   0  0  0  0  0  0
    9.4130   -0.3000   -2.8270 O   0  0  0  0  0  0
    9.8420    0.7800   -2.4240 C   0  0  0  0  0  0
    8.8290    1.8840   -2.0790 C   0  0  0  0  0  0
   11.1330    0.9520   -2.1260 N   0  0  0  0  0  0
   11.8930    2.1760   -2.3970 C   0  0  0  0  0  0
   13.3930    1.9090   -2.4830 C   0  0  0  0  0  0
   14.1870    2.7960   -1.5210 C   0  0  0  0  0  0
   15.6530    2.3710   -1.3920 C   0  0  0  0  0  0
   15.8550    0.8640   -1.3350 C   0  0  2  0  0  0
   15.4660    0.3690   -0.0180 N   0  0  0  0  0  0
   17.2940    0.4840   -1.6750 C   0  0  0  0  0  0
   17.5270   -0.5120   -2.3600 O   0  0  0  0  0  0
   18.2520    1.2820   -1.2030 N   0  0  0  0  0  0
   19.6700    1.0250   -1.4560 C   0  0  2  0  0  0
   19.9950   -0.4590   -1.3230 C   0  0  0  0  0  0
   19.7190   -1.0760   -0.2940 O   0  0  0  0  0  0
   20.5340    1.8330   -0.4870 C   0  0  0  0  0  0
   21.9120    1.5810   -0.6990 O   0  0  0  0  0  0
   20.5820   -1.0230   -2.3760 N   0  0  0  0  0  0
   20.9440   -2.4350   -2.3910 C   0  0  2  0  0  0
   21.8170   -2.7990   -1.1940 C   0  0  0  0  0  0
   22.8900   -2.2270   -0.9990 O   0  0  0  0  0  0
   21.6880   -2.8060   -3.6870 C   0  0  2  0  0  0
   22.9190   -2.0780   -3.7720 O   0  0  0  0  0  0
   20.8290   -2.5010   -4.9060 C   0  0  0  0  0  0
   21.3470   -3.7550   -0.3980 N   0  0  0  0  0  0
   22.0900   -4.1830    0.7720 C   0  0  0  0  0  0
   21.6710   -5.5580    1.2540 C   0  0  0  0  0  0
   22.4850   -6.3070    1.7950 O   0  0  0  0  0  0
   20.3990   -5.8900    1.0560 N   0  0  0  0  0  0
   19.8930   -7.1840    1.4810 C   0  0  0  0  0  0
   18.3940   -7.1760    1.7180 C   0  0  0  0  0  0
   17.9260   -6.6860    2.7440 O   0  0  0  0  0  0
   17.6450   -7.7240    0.7660 N   0  0  0  0  0  0
   16.1900   -7.7830    0.8670 C   0  0  2  0  0  0
   15.6560   -9.0530    0.2150 C   0  0  0  0  0  0
   15.7520   -9.2270   -0.9980 O   0  0  0  0  0  0
   15.5610   -6.5470    0.2260 C   0  0  0  0  0  0
   14.4660   -5.9250    1.0800 C   0  0  0  0  0  0
   15.0350   -5.2700    2.3300 C   0  0  0  0  0  0
   14.0860   -5.3950    3.5090 C   0  0  0  0  0  0
   13.9640   -6.8050    3.9780 N   0  3  0  0  0  0
   15.1020   -9.9420    1.0370 N   0  0  0  0  0  0
   14.5540  -11.2020    0.5490 C   0  0  2  0  0  0
   13.7620  -11.9140    1.6420 C   0  0  0  0  0  0
   14.3810  -12.6590    2.4290 O   0  0  0  0  0  0
   15.6690  -12.1000    0.0350 C   0  0  0  0  0  0
   12.5290  -11.7190    1.7010 O   0  0  0  0  0  0
   10.2900   15.9146    4.0259 H   0  0  0  0  0  0
   11.2948   17.1013    3.1265 H   0  0  0  0  0  0
   10.5925   17.5436    4.7196 H   0  0  0  0  0  0
   12.6471   15.4139    4.1633 H   0  0  0  0  0  0
   13.5103   17.7346    3.9599 H   0  0  0  0  0  0
   14.1888   16.9117    5.4053 H   0  0  0  0  0  0
   12.8687   18.1151    5.5940 H   0  0  0  0  0  0
   13.9227   15.1652    6.4172 H   0  0  0  0  0  0
   13.7141   14.1255    8.4676 H   0  0  0  0  0  0
   11.3842   16.0985    8.8099 H   0  0  0  0  0  0
   12.0512   15.1084   10.1522 H   0  0  0  0  0  0
   14.2193   16.1932    9.9088 H   0  0  0  0  0  0
   13.6101   17.1408    8.5097 H   0  0  0  0  0  0
   12.5138   17.2564   11.3566 H   0  0  0  0  0  0
   13.6008   18.4654   10.5929 H   0  0  0  0  0  0
   11.3134   18.2106    8.8343 H   0  0  0  0  0  0
   12.1427   19.1553   12.2574 H   0  0  0  0  0  0
    9.6224   19.6588    8.9325 H   0  0  0  0  0  0
    9.3219   20.6650   10.5222 H   0  0  0  0  0  0
   12.5420   12.8033    6.3043 H   0  0  0  0  0  0
    9.9919   11.7329    7.5148 H   0  0  0  0  0  0
   11.3303   11.0626    4.8010 H   0  0  0  0  0  0
   10.5750   13.4488    4.9321 H   0  0  0  0  0  0
    9.7832    9.2730    5.6585 H   0  0  0  0  0  0
    9.1409   10.1054    4.2021 H   0  0  0  0  0  0
    8.4927   10.5111    5.8275 H   0  0  0  0  0  0
    9.6238    9.5966    8.1190 H   0  0  0  0  0  0
   12.2571    8.0659    8.3707 H   0  0  0  0  0  0
   11.2396    8.7945   10.5536 H   0  0  0  0  0  0
    9.7422    7.8912   10.1434 H   0  0  0  0  0  0
   11.0103    5.7847   10.1633 H   0  0  0  0  0  0
   12.5045    6.6901   10.5804 H   0  0  0  0  0  0
   11.4604    7.4735   12.6674 H   0  0  0  0  0  0
    9.9472    6.6016   12.2474 H   0  0  0  0  0  0
   11.1745    4.4582   12.2762 H   0  0  0  0  0  0
   12.6874    5.3303   12.6969 H   0  0  0  0  0  0
   11.6548    4.3282   14.6532 H   0  0  0  0  0  0
   10.1446    5.2491   14.3399 H   0  0  0  0  0  0
   11.6576    6.1212   14.7607 H   0  0  0  0  0  0
   11.8526    7.3202    6.1656 H   0  0  0  0  0  0
    9.4847    5.5356    5.8571 H   0  0  0  0  0  0
   10.4349    5.0388    3.6123 H   0  0  0  0  0  0
   10.5035    6.8038    3.9389 H   0  0  0  0  0  0
   12.8457    6.7326    4.3321 H   0  0  0  0  0  0
   12.8559    4.9372    4.3871 H   0  0  0  0  0  0
   10.8921    6.8318    2.0665 H   0  0  0  0  0  0
   11.9426    6.3581    0.5492 H   0  0  0  0  0  0
   10.2152    3.2979    4.5545 H   0  0  0  0  0  0
   12.2190    2.0608    6.4564 H   0  0  0  0  0  0
   10.1393    1.2695    7.4229 H   0  0  0  0  0  0
   11.7317   -0.6211    7.0216 H   0  0  0  0  0  0
    8.6883    2.0389    5.5219 H   0  0  0  0  0  0
    8.2821    0.3815    6.0830 H   0  0  0  0  0  0
    9.2276    0.6121    4.5732 H   0  0  0  0  0  0
   10.8616    2.4573    3.2976 H   0  0  0  0  0  0
   11.7367   -0.0190    2.0885 H   0  0  0  0  0  0
   10.3493    1.6737    0.9260 H   0  0  0  0  0  0
   11.7973    1.2590   -0.0528 H   0  0  0  0  0  0
   11.7500    2.7972    0.8738 H   0  0  0  0  0  0
   13.6569   -0.8733    2.6734 H   0  0  0  0  0  0
   16.0130    0.5928    3.2064 H   0  0  0  0  0  0
   15.7840   -2.1146    1.7675 H   0  0  0  0  0  0
   17.2863   -1.4907    2.5295 H   0  0  0  0  0  0
   14.6951   -1.9060    4.0558 H   0  0  0  0  0  0
   15.9604   -3.1679    3.8734 H   0  0  0  0  0  0
   17.6136   -1.6666    4.9185 H   0  0  0  0  0  0
   16.3549   -0.3970    5.0925 H   0  0  0  0  0  0
   15.1973   -2.6288    6.4096 H   0  0  0  0  0  0
   18.3579   -0.8118    6.5259 H   0  0  0  0  0  0
   15.4504   -3.0395    8.5851 H   0  0  0  0  0  0
   16.9867   -2.3886    9.5050 H   0  0  0  0  0  0
    7.8231    1.5704   -2.3951 H   0  0  0  0  0  0
    9.1052    2.8115   -2.6020 H   0  0  0  0  0  0
    8.8340    2.0599   -0.9932 H   0  0  0  0  0  0
   11.6254    0.0940   -1.6451 H   0  0  0  0  0  0
   11.5650    2.6068   -3.3545 H   0  0  0  0  0  0
   11.7188    2.9022   -1.5894 H   0  0  0  0  0  0
   13.5936    0.8581   -2.2274 H   0  0  0  0  0  0
   13.7433    2.1108   -3.5060 H   0  0  0  0  0  0
   14.1696    3.8351   -1.8814 H   0  0  0  0  0  0
   13.7345    2.7477   -0.5195 H   0  0  0  0  0  0
   16.2202    2.7430   -2.2580 H   0  0  0  0  0  0
   16.0768    2.7915   -0.4681 H   0  0  0  0  0  0
   15.1896    0.3681   -2.0570 H   0  0  0  0  0  0
   14.5072   -0.1543    0.1117 H   0  0  0  0  0  0
   17.9491    2.1557   -0.6072 H   0  0  0  0  0  0
   19.8453    1.3458   -2.4935 H   0  0  0  0  0  0
   20.3461    2.9065   -0.6361 H   0  0  0  0  0  0
   20.2813    1.5567    0.5473 H   0  0  0  0  0  0
   22.6657    2.0884   -0.0789 H   0  0  0  0  0  0
   20.7931   -0.3918   -3.2518 H   0  0  0  0  0  0
   19.9776   -2.9563   -2.3263 H   0  0  0  0  0  0
   21.9697   -3.8693   -3.6809 H   0  0  0  0  0  0
   23.6707   -2.1736   -2.9746 H   0  0  0  0  0  0
   19.8846   -3.0610   -4.8384 H   0  0  0  0  0  0
   21.3675   -2.7988   -5.8178 H   0  0  0  0  0  0
   20.6142   -1.4228   -4.9427 H   0  0  0  0  0  0
   20.3805   -4.2226   -0.6372 H   0  0  0  0  0  0
   23.1628   -4.2205    0.5316 H   0  0  0  0  0  0
   21.9230   -3.4705    1.5933 H   0  0  0  0  0  0
   19.7272   -5.1714    0.5638 H   0  0  0  0  0  0
   20.1081   -7.9344    0.7059 H   0  0  0  0  0  0
   20.3818   -7.4779    2.4216 H   0  0  0  0  0  0
   18.1524   -8.1404   -0.1167 H   0  0  0  0  0  0
   15.9645   -7.8023    1.9435 H   0  0  0  0  0  0
   16.3354   -5.7820    0.0673 H   0  0  0  0  0  0
   15.1142   -6.8225   -0.7407 H   0  0  0  0  0  0
   13.9370   -5.1575    0.4959 H   0  0  0  0  0  0
   13.7549   -6.7050    1.3897 H   0  0  0  0  0  0
   15.9858   -5.7542    2.5972 H   0  0  0  0  0  0
   15.2094   -4.2012    2.1369 H   0  0  0  0  0  0
   14.4580   -4.7850    4.3454 H   0  0  0  0  0  0
   13.0866   -5.0426    3.2142 H   0  0  0  0  0  0
   13.2696   -6.8492    4.8300 H   0  0  0  0  0  0
   14.9519   -7.1742    4.2906 H   0  0  0  0  0  0
   13.5805   -7.4318    3.1594 H   0  0  0  0  0  0
   15.0643   -9.7049    2.1105 H   0  0  0  0  0  0
   13.8798  -10.9311   -0.2769 H   0  0  0  0  0  0
   16.2304  -11.5740   -0.7512 H   0  0  0  0  0  0
   15.2355  -13.0225   -0.3786 H   0  0  0  0  0  0
   16.3473  -12.3529    0.8632 H   0  0  0  0  0  0
   11.9299  -12.2175    2.4772 H   0  0  0  0  0  0
  1  2  1  0  0  0
  1113  1  0  0  0
  1114  1  0  0  0
  1115  1  0  0  0
  2  3  1  0  0  0
  2  5  1  0  0  0
  2116  1  0  0  0
  3  4  2  0  0  0
  3  6  1  0  0  0
  5117  1  0  0  0
  5118  1  0  0  0
  5119  1  0  0  0
  6  7  1  0  0  0
  6120  1  0  0  0
  7  8  1  0  0  0
  7 10  1  0  0  0
  7121  1  0  0  0
  8  9  2  0  0  0
  8 17  1  0  0  0
 10 11  1  0  0  0
 10122  1  0  0  0
 10123  1  0  0  0
 11 12  1  0  0  0
 11124  1  0  0  0
 11125  1  0  0  0
 12 13  1  0  0  0
 12126  1  0  0  0
 12127  1  0  0  0
 13 14  1  0  0  0
 13128  1  0  0  0
 14 15  2  0  0  0
 14 16  1  0  0  0
 15129  1  0  0  0
 16130  1  0  0  0
 16131  1  0  0  0
 17 18  1  0  0  0
 17132  1  0  0  0
 18 19  1  0  0  0
 18 21  1  0  0  0
 18133  1  0  0  0
 19 20  2  0  0  0
 19 24  1  0  0  0
 21 22  1  0  0  0
 21 23  1  0  0  0
 21134  1  0  0  0
 22135  1  0  0  0
 23136  1  0  0  0
 23137  1  0  0  0
 23138  1  0  0  0
 24 25  1  0  0  0
 24139  1  0  0  0
 25 26  1  0  0  0
 25 28  1  0  0  0
 25140  1  0  0  0
 26 27  2  0  0  0
 26 33  1  0  0  0
 28 29  1  0  0  0
 28141  1  0  0  0
 28142  1  0  0  0
 29 30  1  0  0  0
 29143  1  0  0  0
 29144  1  0  0  0
 30 31  1  0  0  0
 30145  1  0  0  0
 30146  1  0  0  0
 31 32  1  0  0  0
 31147  1  0  0  0
 31148  1  0  0  0
 32149  1  0  0  0
 32150  1  0  0  0
 32151  1  0  0  0
 33 34  1  0  0  0
 33152  1  0  0  0
 34 35  1  0  0  0
 34 37  1  0  0  0
 34153  1  0  0  0
 35 36  2  0  0  0
 35 42  1  0  0  0
 37 38  1  0  0  0
 37154  1  0  0  0
 37155  1  0  0  0
 38 39  1  0  0  0
 38156  1  0  0  0
 38157  1  0  0  0
 39 40  2  0  0  0
 39 41  1  0  0  0
 41158  1  0  0  0
 41159  1  0  0  0
 42 43  1  0  0  0
 42160  1  0  0  0
 43 44  1  0  0  0
 43 46  1  0  0  0
 43161  1  0  0  0
 44 45  2  0  0  0
 44 49  1  0  0  0
 46 47  1  0  0  0
 46 48  1  0  0  0
 46162  1  0  0  0
 47163  1  0  0  0
 48164  1  0  0  0
 48165  1  0  0  0
 48166  1  0  0  0
 49 50  1  0  0  0
 49167  1  0  0  0
 50 51  1  0  0  0
 50 53  1  0  0  0
 50168  1  0  0  0
 51 52  2  0  0  0
 51 54  1  0  0  0
 53169  1  0  0  0
 53170  1  0  0  0
 53171  1  0  0  0
 54 55  1  0  0  0
 54172  1  0  0  0
 55 56  1  0  0  0
 55 58  1  0  0  0
 55173  1  0  0  0
 56 57  2  0  0  0
 56 74  1  0  0  0
 58 59  1  0  0  0
 58174  1  0  0  0
 58175  1  0  0  0
 59 60  1  0  0  0
 59176  1  0  0  0
 59177  1  0  0  0
 60 61  1  0  0  0
 60178  1  0  0  0
 60179  1  0  0  0
 61 62  1  0  0  0
 61180  1  0  0  0
 62 63  2  0  0  0
 62 64  1  0  0  0
 63181  1  0  0  0
 64182  1  0  0  0
 64183  1  0  0  0
 65 66  2  0  0  0
 66 67  1  0  0  0
 66 68  1  0  0  0
 67184  1  0  0  0
 67185  1  0  0  0
 67186  1  0  0  0
 68 69  1  0  0  0
 68187  1  0  0  0
 69 70  1  0  0  0
 69188  1  0  0  0
 69189  1  0  0  0
 70 71  1  0  0  0
 70190  1  0  0  0
 70191  1  0  0  0
 71 72  1  0  0  0
 71192  1  0  0  0
 71193  1  0  0  0
 72 73  1  0  0  0
 72194  1  0  0  0
 72195  1  0  0  0
 73 74  1  0  0  0
 73 75  1  0  0  0
 73196  1  0  0  0
 74197  1  0  0  0
 75 76  2  0  0  0
 75 77  1  0  0  0
 77 78  1  0  0  0
 77198  1  0  0  0
 78 79  1  0  0  0
 78 81  1  0  0  0
 78199  1  0  0  0
 79 80  2  0  0  0
 79 83  1  0  0  0
 81 82  1  0  0  0
 81200  1  0  0  0
 81201  1  0  0  0
 82202  1  0  0  0
 83 84  1  0  0  0
 83203  1  0  0  0
 84 85  1  0  0  0
 84 87  1  0  0  0
 84204  1  0  0  0
 85 86  2  0  0  0
 85 90  1  0  0  0
 87 88  1  0  0  0
 87 89  1  0  0  0
 87205  1  0  0  0
 88206  1  0  0  0
 89207  1  0  0  0
 89208  1  0  0  0
 89209  1  0  0  0
 90 91  1  0  0  0
 90210  1  0  0  0
 91 92  1  0  0  0
 91211  1  0  0  0
 91212  1  0  0  0
 92 93  2  0  0  0
 92 94  1  0  0  0
 94 95  1  0  0  0
 94213  1  0  0  0
 95 96  1  0  0  0
 95214  1  0  0  0
 95215  1  0  0  0
 96 97  2  0  0  0
 96 98  1  0  0  0
 98 99  1  0  0  0
 98216  1  0  0  0
 99100  1  0  0  0
 99102  1  0  0  0
 99217  1  0  0  0
100101  2  0  0  0
100107  1  0  0  0
102103  1  0  0  0
102218  1  0  0  0
102219  1  0  0  0
103104  1  0  0  0
103220  1  0  0  0
103221  1  0  0  0
104105  1  0  0  0
104222  1  0  0  0
104223  1  0  0  0
105106  1  0  0  0
105224  1  0  0  0
105225  1  0  0  0
106226  1  0  0  0
106227  1  0  0  0
106228  1  0  0  0
107108  1  0  0  0
107229  1  0  0  0
108109  1  0  0  0
108111  1  0  0  0
108230  1  0  0  0
109110  2  0  0  0
109112  1  0  0  0
111231  1  0  0  0
111232  1  0  0  0
111233  1  0  0  0
112234  1  0  0  0
M  CHG  3   1   1  32   1 106   1
M  END
> <s_m_source_file>
../2rnw_ligand.sdf

> <i_m_source_file_index>
1

> <s_epik_input>
W0hdL049QyhbTkgyXSlcW05IXVtDSDJdW0NIMl1bQ0gyXVtDQEhdKFtOSF1DKD1PKVtDQEBIXShbTkgzK10pW0NIM10pQyg9TylbTkhdW0NAQEhdKFtDQEhdKFtPSF0pW0NIM10pQyg9TylbTkhdW0NAQEhdKFtDSDJdW0NIMl1bQ0gyXVtDSDJdW05IMytdKUMoPU8pW05IXVtDQEBIXShbQ0gyXVtDSDJdQyg9TylbTkgyXSlDKD1PKVtOSF1bQ0BASF0oW0NASF0oW09IXSlbQ0gzXSlDKD1PKVtOSF1bQ0BASF0oW0NIM10pQyg9TylbTkhdW0NAQEhdKFtDSDJdW0NIMl1bQ0gyXVtOSF0vQyg9TlxbSF0pW05IMl0pQyg9TylbTkhdW0NAQEhdKFtDSDJdW0NIMl1bQ0gyXVtDSDJdW05IXUMoPU8pW0NIM10pQyg9TylbTkhdW0NAQEhdKFtDSDJdW09IXSlDKD1PKVtOSF1bQ0BASF0oW0NASF0oW09IXSlbQ0gzXSlDKD1PKVtOSF1bQ0gyXUMoPU8pW05IXVtDSDJdQyg9TylbTkhdW0NASF0oQyg9TylbTkhdW0NAQEhdKFtDSDNdKUMoPU8pW09IXSlbQ0gyXVtDSDJdW0NIMl1bQ0gyXVtOSDMrXQ==

> <s_epik_cmdline>
J2VwaWtfYXBwJywgJy1pbWFlJywgJ2xpZ2FuZF9wcm8ubWFlJywgJy1vbWFlJywgJ2xpZ2FuZF9wcmVwLm1hZScsICctbXMnLCAnMScsICctcGgnLCAnNycsICctcGh0JywgJzAuNScsICctbnQn

> <s_epik_pKa_notes>
Molecule size exceeds maximum supported for generating protonation states

> <s_epik_Chemistry_Notes>
This compound has an imine and may undergo hydrolysis.

$$$$
