2rnx_ligand
                    3D
 Schrodinger Suite 2020-3.
214216  0  0  1  0            999 V2000
   10.2950    6.4620  -19.9560 N   0  3  0  0  0  0
    9.9270    7.0790  -18.6560 C   0  0  2  0  0  0
    9.5490    6.0110  -17.6350 C   0  0  0  0  0  0
    8.8430    6.2880  -16.6650 O   0  0  0  0  0  0
    8.7620    8.0510  -18.8450 C   0  0  0  0  0  0
    9.1010    9.0830  -19.7560 O   0  0  0  0  0  0
   10.0260    4.7910  -17.8590 N   0  0  0  0  0  0
    9.7390    3.6790  -16.9610 C   0  0  2  0  0  0
   11.0200    3.1400  -16.3320 C   0  0  0  0  0  0
   11.8300    2.5010  -17.0030 O   0  0  0  0  0  0
    9.0180    2.5330  -17.6950 C   0  0  2  0  0  0
    7.8480    3.0320  -18.3530 O   0  0  0  0  0  0
    8.6250    1.4280  -16.7250 C   0  0  0  0  0  0
   11.1960    3.4040  -15.0410 N   0  0  0  0  0  0
   12.3800    2.9380  -14.3420 C   0  0  0  0  0  0
   12.4580    1.4250  -14.2790 C   0  0  0  0  0  0
   11.4360    0.7500  -14.1480 O   0  0  0  0  0  0
   13.6720    0.8930  -14.3740 N   0  0  0  0  0  0
   13.8590   -0.5450  -14.3260 C   0  0  0  0  0  0
   14.4650   -1.0080  -13.0160 C   0  0  0  0  0  0
   14.0900   -2.0540  -12.4890 O   0  0  0  0  0  0
   15.4010   -0.2240  -12.4910 N   0  0  0  0  0  0
   16.0630   -0.5590  -11.2340 C   0  0  2  0  0  0
   15.2400   -0.1000  -10.0400 C   0  0  0  0  0  0
   14.1440    0.4380  -10.1990 O   0  0  0  0  0  0
   17.4550    0.0940  -11.1420 C   0  0  0  0  0  0
   18.2760   -0.2190  -12.3840 C   0  0  0  0  0  0
   17.3250    1.6020  -10.9390 C   0  0  0  0  0  0
   10.1890    0.6950   -5.6690 O   0  0  0  0  0  0
    9.7570   -0.0820   -4.8170 C   0  0  0  0  0  0
    8.3620    0.1500   -4.2340 C   0  0  0  0  0  0
   10.4700   -1.1100   -4.3760 N   0  0  0  0  0  0
   11.9140   -1.0650   -4.1760 C   0  0  0  0  0  0
   12.6750   -1.3930   -5.4460 C   0  0  0  0  0  0
   13.9860   -0.6900   -5.4940 C   0  0  0  0  0  0
   14.7510   -1.0900   -6.7260 C   0  0  0  0  0  0
   15.0960    0.1070   -7.6270 C   0  0  2  0  0  0
   15.7760   -0.3130   -8.8410 N   0  0  0  0  0  0
   15.9300    1.1410   -6.8750 C   0  0  0  0  0  0
   16.0570    1.0800   -5.6530 O   0  0  0  0  0  0
   16.4890    2.0950   -7.6380 N   0  0  0  0  0  0
   17.3110    3.1750   -7.0900 C   0  0  2  0  0  0
   17.7940    2.8250   -5.6870 C   0  0  0  0  0  0
   17.4170    3.4710   -4.7160 O   0  0  0  0  0  0
   16.5280    4.5040   -7.0960 C   0  0  0  0  0  0
   17.3270    5.6850   -6.5650 C   0  0  0  0  0  0
   16.6570    7.0070   -6.8970 C   0  0  0  0  0  0
   17.4180    8.1820   -6.3040 C   0  0  0  0  0  0
   18.7910    8.2990   -6.8710 N   0  3  0  0  0  0
   18.6420    1.7800   -5.5810 N   0  0  0  0  0  0
   19.1700    1.2900   -4.3170 C   0  0  2  0  0  0
   19.2240    2.3590   -3.2290 C   0  0  0  0  0  0
   20.0810    3.2440   -3.2540 O   0  0  0  0  0  0
   20.5710    0.8570   -4.7260 C   0  0  0  0  0  0
   20.3920    0.2940   -6.0990 C   0  0  0  0  0  0
   19.1970    1.0000   -6.7050 C   0  0  0  0  0  0
   18.3020    2.2660   -2.2790 N   0  0  0  0  0  0
   18.2280    3.2270   -1.1860 C   0  0  2  0  0  0
   19.0130    2.7340    0.0270 C   0  0  0  0  0  0
   19.5260    1.6160    0.0320 O   0  0  0  0  0  0
   16.7670    3.4690   -0.8010 C   0  0  0  0  0  0
   15.7990    3.1680   -1.9060 C   0  0  0  0  0  0
   15.1910    1.9430   -2.0540 N   0  0  0  0  0  0
   15.3400    3.9360   -2.9230 C   0  0  0  0  0  0
   14.4050    1.9670   -3.1150 C   0  0  0  0  0  0
   14.4760    3.1660   -3.6580 N   0  0  0  0  0  0
   19.0990    3.5780    1.0520 N   0  0  0  0  0  0
   19.8230    3.2290    2.2700 C   0  0  2  0  0  0
   19.0200    3.6160    3.5100 C   0  0  0  0  0  0
   19.2550    4.6640    4.1130 O   0  0  0  0  0  0
   21.1870    3.9250    2.2950 C   0  0  0  0  0  0
   22.0740    3.5800    1.1100 C   0  0  0  0  0  0
   22.5360    2.1320    1.1570 C   0  0  0  0  0  0
   23.3810    1.7910    0.0160 N   0  0  0  0  0  0
   24.3780    0.9110    0.0710 C   0  0  0  0  0  0
   24.6600    0.2920    1.2100 N   0  0  0  0  0  0
   25.0960    0.6520   -1.0130 N   0  0  0  0  0  0
   18.0730    2.7620    3.8860 N   0  0  0  0  0  0
   17.2370    3.0130    5.0550 C   0  0  2  0  0  0
   17.6030    2.0720    6.1990 C   0  0  0  0  0  0
   17.5170    2.4410    7.3700 O   0  0  0  0  0  0
   15.7560    2.8540    4.6940 C   0  0  0  0  0  0
   14.8260    2.9040    5.8870 C   0  0  0  0  0  0
   14.7740    4.0170    6.7170 C   0  0  0  0  0  0
   14.0020    1.8310    6.1800 C   0  0  0  0  0  0
   13.9210    4.0530    7.8060 C   0  0  0  0  0  0
   13.1470    1.8560    7.2600 C   0  0  0  0  0  0
   13.1090    2.9690    8.0720 C   0  0  0  0  0  0
   12.2580    2.9990    9.1530 O   0  0  0  0  0  0
   18.0150    0.8580    5.8520 N   0  0  0  0  0  0
   18.3940   -0.1340    6.8520 C   0  0  2  0  0  0
   19.6010   -0.9420    6.3820 C   0  0  0  0  0  0
   19.4730   -2.1060    6.0010 O   0  0  0  0  0  0
   17.2140   -1.0640    7.1470 C   0  0  0  0  0  0
   17.4530   -2.0000    8.3210 C   0  0  0  0  0  0
   16.2230   -2.8430    8.6190 C   0  0  0  0  0  0
   16.4640   -3.7870    9.7860 C   0  0  0  0  0  0
   16.8480   -3.0560   11.0240 N   0  3  0  0  0  0
   20.7720   -0.3130    6.4110 N   0  0  0  0  0  0
   22.0060   -0.9680    5.9900 C   0  0  2  0  0  0
   22.3840   -2.0890    6.9520 C   0  0  0  0  0  0
   22.0030   -3.2490    6.6870 O   0  0  0  0  0  0
   23.1440    0.0510    5.9020 C   0  0  0  0  0  0
   22.8270    1.4150    4.7590 S   0  0  0  0  0  0
   23.0580   -1.7990    7.9630 O   0  0  0  0  0  0
   11.1333    5.7655  -19.8070 H   0  0  0  0  0  0
   10.5936    7.2492  -20.6640 H   0  0  0  0  0  0
    9.4306    5.9144  -20.3597 H   0  0  0  0  0  0
   10.8172    7.6192  -18.3014 H   0  0  0  0  0  0
    7.8906    7.5069  -19.2382 H   0  0  0  0  0  0
    8.5039    8.5065  -17.8776 H   0  0  0  0  0  0
    8.3666    9.8649  -19.9994 H   0  0  0  0  0  0
   10.6522    4.6315  -18.7492 H   0  0  0  0  0  0
    9.0885    4.1190  -16.1908 H   0  0  0  0  0  0
    9.6579    2.1226  -18.4900 H   0  0  0  0  0  0
    7.9363    3.8397  -19.0945 H   0  0  0  0  0  0
    9.5247    1.0459  -16.2205 H   0  0  0  0  0  0
    8.1394    0.6104  -17.2779 H   0  0  0  0  0  0
    7.9268    1.8292  -15.9756 H   0  0  0  0  0  0
   10.4314    3.9829  -14.5022 H   0  0  0  0  0  0
   13.2791    3.3025  -14.8604 H   0  0  0  0  0  0
   12.3712    3.3203  -13.3106 H   0  0  0  0  0  0
   14.5412    1.5571  -14.4903 H   0  0  0  0  0  0
   12.8866   -1.0454  -14.4449 H   0  0  0  0  0  0
   14.5324   -0.8545  -15.1388 H   0  0  0  0  0  0
   15.6734    0.6967  -13.0278 H   0  0  0  0  0  0
   16.1335   -1.6565  -11.2560 H   0  0  0  0  0  0
   17.9917   -0.3210  -10.2761 H   0  0  0  0  0  0
   18.3541   -1.3093  -12.5067 H   0  0  0  0  0  0
   19.2827    0.2109  -12.2760 H   0  0  0  0  0  0
   17.7847    0.2152  -13.2673 H   0  0  0  0  0  0
   16.7283    1.8004  -10.0364 H   0  0  0  0  0  0
   16.8275    2.0480  -11.8128 H   0  0  0  0  0  0
   18.3255    2.0437  -10.8215 H   0  0  0  0  0  0
    7.9107    1.0360   -4.7044 H   0  0  0  0  0  0
    8.4403    0.3109   -3.1486 H   0  0  0  0  0  0
    7.7318   -0.7301   -4.4297 H   0  0  0  0  0  0
    9.9131   -2.0332   -4.1579 H   0  0  0  0  0  0
   12.2079   -0.0561   -3.8509 H   0  0  0  0  0  0
   12.2005   -1.7963   -3.4059 H   0  0  0  0  0  0
   12.8593   -2.4764   -5.4936 H   0  0  0  0  0  0
   12.0820   -1.0833   -6.3192 H   0  0  0  0  0  0
   13.8186    0.3970   -5.5136 H   0  0  0  0  0  0
   14.5765   -0.9541   -4.6043 H   0  0  0  0  0  0
   15.6948   -1.5719   -6.4312 H   0  0  0  0  0  0
   14.1491   -1.7945   -7.3187 H   0  0  0  0  0  0
   14.1629    0.5723   -7.9774 H   0  0  0  0  0  0
   16.7518   -0.8169   -8.7786 H   0  0  0  0  0  0
   16.3051    2.0391   -8.7211 H   0  0  0  0  0  0
   18.1859    3.2538   -7.7520 H   0  0  0  0  0  0
   16.2272    4.7477   -8.1256 H   0  0  0  0  0  0
   15.6317    4.4044   -6.4661 H   0  0  0  0  0  0
   17.4159    5.6055   -5.4715 H   0  0  0  0  0  0
   18.3304    5.6812   -7.0157 H   0  0  0  0  0  0
   16.6170    7.1337   -7.9889 H   0  0  0  0  0  0
   15.6353    7.0128   -6.4895 H   0  0  0  0  0  0
   16.8766    9.1152   -6.5183 H   0  0  0  0  0  0
   17.5053    8.0505   -5.2154 H   0  0  0  0  0  0
   19.3037    9.1591   -6.4156 H   0  0  0  0  0  0
   18.7270    8.4445   -7.9594 H   0  0  0  0  0  0
   19.3558    7.3798   -6.6565 H   0  0  0  0  0  0
   18.5211    0.5018   -3.9075 H   0  0  0  0  0  0
   21.2406    1.7297   -4.7209 H   0  0  0  0  0  0
   20.9442    0.1044   -4.0158 H   0  0  0  0  0  0
   21.2993    0.4797   -6.6926 H   0  0  0  0  0  0
   20.2139   -0.7893   -6.0307 H   0  0  0  0  0  0
   18.4377    0.2934   -7.0712 H   0  0  0  0  0  0
   19.4850    1.6826   -7.5181 H   0  0  0  0  0  0
   17.5817    1.4363   -2.3316 H   0  0  0  0  0  0
   18.6865    4.1500   -1.5706 H   0  0  0  0  0  0
   16.5017    2.8279    0.0526 H   0  0  0  0  0  0
   16.6311    4.5246   -0.5229 H   0  0  0  0  0  0
   15.5356    4.9775   -3.2181 H   0  0  0  0  0  0
   13.8004    1.1366   -3.4797 H   0  0  0  0  0  0
   18.6081    4.5586    0.9658 H   0  0  0  0  0  0
   19.9473    2.1366    2.2341 H   0  0  0  0  0  0
   21.0424    5.0154    2.2878 H   0  0  0  0  0  0
   21.7309    3.6333    3.2055 H   0  0  0  0  0  0
   21.5144    3.7350    0.1757 H   0  0  0  0  0  0
   22.9631    4.2277    1.1166 H   0  0  0  0  0  0
   23.1150    1.9615    2.0766 H   0  0  0  0  0  0
   21.6598    1.4670    1.1468 H   0  0  0  0  0  0
   23.2094    2.2714   -0.9585 H   0  0  0  0  0  0
   24.0673    0.5034    2.1122 H   0  0  0  0  0  0
   25.4865   -0.4326    1.2522 H   0  0  0  0  0  0
   24.8662    1.1626   -1.9598 H   0  0  0  0  0  0
   17.9274    1.8479    3.2917 H   0  0  0  0  0  0
   17.4512    4.0504    5.3514 H   0  0  0  0  0  0
   15.4557    3.6637    4.0126 H   0  0  0  0  0  0
   15.6010    1.8832    4.2005 H   0  0  0  0  0  0
   15.4142    4.8739    6.5074 H   0  0  0  0  0  0
   14.0302    0.9473    5.5425 H   0  0  0  0  0  0
   13.8905    4.9320    8.4498 H   0  0  0  0  0  0
   12.5047    1.0010    7.4709 H   0  0  0  0  0  0
   12.2254    3.8859    9.8029 H   0  0  0  0  0  0
   18.0669    0.6080    4.7820 H   0  0  0  0  0  0
   18.6637    0.4376    7.7523 H   0  0  0  0  0  0
   16.3236   -0.4629    7.3832 H   0  0  0  0  0  0
   17.0108   -1.6895    6.2653 H   0  0  0  0  0  0
   18.2899   -2.6746    8.0876 H   0  0  0  0  0  0
   17.6966   -1.4099    9.2168 H   0  0  0  0  0  0
   15.3796   -2.1840    8.8727 H   0  0  0  0  0  0
   15.9662   -3.4428    7.7334 H   0  0  0  0  0  0
   15.5454   -4.3553    9.9936 H   0  0  0  0  0  0
   17.2767   -4.4836    9.5324 H   0  0  0  0  0  0
   17.0118   -3.7762   11.8392 H   0  0  0  0  0  0
   16.0423   -2.3616   11.3046 H   0  0  0  0  0  0
   17.7737   -2.4899   10.8433 H   0  0  0  0  0  0
   20.7950    0.7285    6.7642 H   0  0  0  0  0  0
   21.7900   -1.3916    4.9981 H   0  0  0  0  0  0
   22.2594   -4.0796    7.3611 H   0  0  0  0  0  0
   23.3172    0.4937    6.8940 H   0  0  0  0  0  0
   24.0606   -0.4516    5.5597 H   0  0  0  0  0  0
   23.5815    2.2034    4.6208 H   0  0  0  0  0  0
  1  2  1  0  0  0
  1106  1  0  0  0
  1107  1  0  0  0
  1108  1  0  0  0
  2  3  1  0  0  0
  2  5  1  0  0  0
  2109  1  0  0  0
  3  4  2  0  0  0
  3  7  1  0  0  0
  5  6  1  0  0  0
  5110  1  0  0  0
  5111  1  0  0  0
  6112  1  0  0  0
  7  8  1  0  0  0
  7113  1  0  0  0
  8  9  1  0  0  0
  8 11  1  0  0  0
  8114  1  0  0  0
  9 10  2  0  0  0
  9 14  1  0  0  0
 11 12  1  0  0  0
 11 13  1  0  0  0
 11115  1  0  0  0
 12116  1  0  0  0
 13117  1  0  0  0
 13118  1  0  0  0
 13119  1  0  0  0
 14 15  1  0  0  0
 14120  1  0  0  0
 15 16  1  0  0  0
 15121  1  0  0  0
 15122  1  0  0  0
 16 17  2  0  0  0
 16 18  1  0  0  0
 18 19  1  0  0  0
 18123  1  0  0  0
 19 20  1  0  0  0
 19124  1  0  0  0
 19125  1  0  0  0
 20 21  2  0  0  0
 20 22  1  0  0  0
 22 23  1  0  0  0
 22126  1  0  0  0
 23 24  1  0  0  0
 23 26  1  0  0  0
 23127  1  0  0  0
 24 25  2  0  0  0
 24 38  1  0  0  0
 26 27  1  0  0  0
 26 28  1  0  0  0
 26128  1  0  0  0
 27129  1  0  0  0
 27130  1  0  0  0
 27131  1  0  0  0
 28132  1  0  0  0
 28133  1  0  0  0
 28134  1  0  0  0
 29 30  2  0  0  0
 30 31  1  0  0  0
 30 32  1  0  0  0
 31135  1  0  0  0
 31136  1  0  0  0
 31137  1  0  0  0
 32 33  1  0  0  0
 32138  1  0  0  0
 33 34  1  0  0  0
 33139  1  0  0  0
 33140  1  0  0  0
 34 35  1  0  0  0
 34141  1  0  0  0
 34142  1  0  0  0
 35 36  1  0  0  0
 35143  1  0  0  0
 35144  1  0  0  0
 36 37  1  0  0  0
 36145  1  0  0  0
 36146  1  0  0  0
 37 38  1  0  0  0
 37 39  1  0  0  0
 37147  1  0  0  0
 38148  1  0  0  0
 39 40  2  0  0  0
 39 41  1  0  0  0
 41 42  1  0  0  0
 41149  1  0  0  0
 42 43  1  0  0  0
 42 45  1  0  0  0
 42150  1  0  0  0
 43 44  2  0  0  0
 43 50  1  0  0  0
 45 46  1  0  0  0
 45151  1  0  0  0
 45152  1  0  0  0
 46 47  1  0  0  0
 46153  1  0  0  0
 46154  1  0  0  0
 47 48  1  0  0  0
 47155  1  0  0  0
 47156  1  0  0  0
 48 49  1  0  0  0
 48157  1  0  0  0
 48158  1  0  0  0
 49159  1  0  0  0
 49160  1  0  0  0
 49161  1  0  0  0
 50 51  1  0  0  0
 50 56  1  0  0  0
 51 52  1  0  0  0
 51 54  1  0  0  0
 51162  1  0  0  0
 52 53  2  0  0  0
 52 57  1  0  0  0
 54 55  1  0  0  0
 54163  1  0  0  0
 54164  1  0  0  0
 55 56  1  0  0  0
 55165  1  0  0  0
 55166  1  0  0  0
 56167  1  0  0  0
 56168  1  0  0  0
 57 58  1  0  0  0
 57169  1  0  0  0
 58 59  1  0  0  0
 58 61  1  0  0  0
 58170  1  0  0  0
 59 60  2  0  0  0
 59 67  1  0  0  0
 61 62  1  0  0  0
 61171  1  0  0  0
 61172  1  0  0  0
 62 63  2  0  0  0
 62 64  1  0  0  0
 63 65  1  0  0  0
 64 66  2  0  0  0
 64173  1  0  0  0
 65 66  1  0  0  0
 65174  1  0  0  0
 67 68  1  0  0  0
 67175  1  0  0  0
 68 69  1  0  0  0
 68 71  1  0  0  0
 68176  1  0  0  0
 69 70  2  0  0  0
 69 78  1  0  0  0
 71 72  1  0  0  0
 71177  1  0  0  0
 71178  1  0  0  0
 72 73  1  0  0  0
 72179  1  0  0  0
 72180  1  0  0  0
 73 74  1  0  0  0
 73181  1  0  0  0
 73182  1  0  0  0
 74 75  1  0  0  0
 74183  1  0  0  0
 75 76  1  0  0  0
 75 77  2  0  0  0
 76184  1  0  0  0
 76185  1  0  0  0
 77186  1  0  0  0
 78 79  1  0  0  0
 78187  1  0  0  0
 79 80  1  0  0  0
 79 82  1  0  0  0
 79188  1  0  0  0
 80 81  2  0  0  0
 80 90  1  0  0  0
 82 83  1  0  0  0
 82189  1  0  0  0
 82190  1  0  0  0
 83 84  2  0  0  0
 83 85  1  0  0  0
 84 86  1  0  0  0
 84191  1  0  0  0
 85 87  2  0  0  0
 85192  1  0  0  0
 86 88  2  0  0  0
 86193  1  0  0  0
 87 88  1  0  0  0
 87194  1  0  0  0
 88 89  1  0  0  0
 89195  1  0  0  0
 90 91  1  0  0  0
 90196  1  0  0  0
 91 92  1  0  0  0
 91 94  1  0  0  0
 91197  1  0  0  0
 92 93  2  0  0  0
 92 99  1  0  0  0
 94 95  1  0  0  0
 94198  1  0  0  0
 94199  1  0  0  0
 95 96  1  0  0  0
 95200  1  0  0  0
 95201  1  0  0  0
 96 97  1  0  0  0
 96202  1  0  0  0
 96203  1  0  0  0
 97 98  1  0  0  0
 97204  1  0  0  0
 97205  1  0  0  0
 98206  1  0  0  0
 98207  1  0  0  0
 98208  1  0  0  0
 99100  1  0  0  0
 99209  1  0  0  0
100101  1  0  0  0
100103  1  0  0  0
100210  1  0  0  0
101102  1  0  0  0
101105  2  0  0  0
102211  1  0  0  0
103104  1  0  0  0
103212  1  0  0  0
103213  1  0  0  0
104214  1  0  0  0
M  CHG  3   1   1  49   1  98   1
M  END
> <s_m_source_file>
../2rnx_ligand.sdf

> <i_m_source_file_index>
1

> <s_epik_input>
W09IXVtDSDJdW0NASF0oW05IMytdKUMoPU8pW05IXVtDQEBIXShbQ0BIXShbT0hdKVtDSDNdKUMoPU8pW05IXVtDSDJdQyg9TylbTkhdW0NIMl1DKD1PKVtOSF1bQ0BASF0oW0NIXShbQ0gzXSlbQ0gzXSlDKD1PKVtOSF1bQ0BASF0oW0NIMl1bQ0gyXVtDSDJdW0NIMl1bTkhdQyg9TylbQ0gzXSlDKD1PKVtOSF1bQ0BASF0oW0NIMl1bQ0gyXVtDSDJdW0NIMl1bTkgzK10pQyg9TylOMVtDQEBIXShbQ0gyXVtDSDJdW0NIMl0xKUMoPU8pW05IXVtDQEBIXShbQ0gyXUMyPU5bQ0gyXU49W0NIXTIpQyg9TylbTkhdW0NAQEhdKFtDSDJdW0NIMl1bQ0gyXVtOSF0vQyhbTkgyXSk9TlxbSF0pQyg9TylbTkhdW0NAQEhdKFtDSDJdYzNbY0hdW2NIXWMoW09IXSlbY0hdW2NIXTMpQyg9TylbTkhdW0NASF0oQyg9TylbTkhdW0NASF0oQyg9TylbT0hdKVtDSDJdW1NIXSlbQ0gyXVtDSDJdW0NIMl1bQ0gyXVtOSDMrXQ==

> <s_epik_cmdline>
J2VwaWtfYXBwJywgJy1pbWFlJywgJ2xpZ2FuZF9wcm8ubWFlJywgJy1vbWFlJywgJ2xpZ2FuZF9wcmVwLm1hZScsICctbXMnLCAnMScsICctcGgnLCAnNycsICctcGh0JywgJzAuNScsICctbnQn

> <s_epik_pKa_notes>
Molecule size exceeds maximum supported for generating protonation states

> <s_epik_Chemistry_Notes>
This compound has an imine and may undergo hydrolysis.

$$$$
