2rny_ligand
                    3D
 Schrodinger Suite 2020-3.
259259  0  0  1  0            999 V2000
  -22.6770  -12.3490   -3.7930 N   0  3  0  0  0  0
  -22.8840  -10.9520   -4.2660 C   0  0  0  0  0  0
  -21.5810  -10.2540   -4.6010 C   0  0  0  0  0  0
  -20.5510  -10.9030   -4.7820 O   0  0  0  0  0  0
  -21.6280   -8.9280   -4.6840 N   0  0  0  0  0  0
  -20.4370   -8.1610   -4.9990 C   0  0  0  0  0  0
  -20.3490   -7.8050   -6.4710 C   0  0  0  0  0  0
  -20.9250   -6.8080   -6.9090 O   0  0  0  0  0  0
  -19.6230   -8.6220   -7.2330 N   0  0  0  0  0  0
  -19.4540   -8.3990   -8.6680 C   0  0  2  0  0  0
  -18.7420   -7.0780   -8.9470 C   0  0  0  0  0  0
  -18.5510   -6.2580   -8.0490 O   0  0  0  0  0  0
  -20.8030   -8.4330   -9.3730 C   0  0  0  0  0  0
  -18.3470   -6.8830  -10.2030 N   0  0  0  0  0  0
  -17.6550   -5.6660  -10.6120 C   0  0  2  0  0  0
  -18.6440   -4.6210  -11.1140 C   0  0  0  0  0  0
  -19.1870   -4.7460  -12.2120 O   0  0  0  0  0  0
  -16.6380   -5.9800  -11.7100 C   0  0  0  0  0  0
  -15.5310   -6.9200  -11.2670 C   0  0  0  0  0  0
  -14.6680   -7.3510  -12.4410 C   0  0  0  0  0  0
  -13.4900   -8.1960  -11.9880 C   0  0  0  0  0  0
  -12.6910   -8.6940  -13.1420 N   0  3  0  0  0  0
  -18.8710   -3.5880  -10.3070 N   0  0  0  0  0  0
  -19.7960   -2.5220  -10.6720 C   0  0  2  0  0  0
  -19.6950   -1.3530   -9.6940 C   0  0  0  0  0  0
  -19.1990   -1.5080   -8.5780 O   0  0  0  0  0  0
  -21.2300   -3.0590  -10.7060 C   0  0  0  0  0  0
  -22.2480   -2.0720  -11.2570 C   0  0  0  0  0  0
  -22.0330   -1.8150  -12.7400 C   0  0  0  0  0  0
  -22.2040   -3.0250  -13.5390 N   0  0  0  0  0  0
  -22.5240   -3.0200  -14.8300 C   0  0  0  0  0  0
  -22.7080   -1.8720  -15.4660 N   0  0  0  0  0  0
  -22.6600   -4.1650  -15.4860 N   0  0  0  0  0  0
  -20.1650   -0.1860  -10.1260 N   0  0  0  0  0  0
  -20.1350    1.0160   -9.2990 C   0  0  2  0  0  0
  -18.7070    1.3380   -8.8550 C   0  0  0  0  0  0
  -17.8740    1.7130   -9.6730 O   0  0  0  0  0  0
  -21.0590    0.8550   -8.0880 C   0  0  0  0  0  0
  -21.3110    2.1340   -7.3500 C   0  0  0  0  0  0
  -21.8840    3.2430   -7.9380 N   0  0  0  0  0  0
  -21.0640    2.4780   -6.0640 C   0  0  0  0  0  0
  -21.9770    4.2130   -7.0470 C   0  0  0  0  0  0
  -21.4860    3.7750   -5.9020 N   0  0  0  0  0  0
  -18.4230    1.1820   -7.5630 N   0  0  0  0  0  0
  -17.0910    1.4680   -7.0340 C   0  0  2  0  0  0
  -16.0620    0.4490   -7.5390 C   0  0  0  0  0  0
  -16.2200   -0.1270   -8.6170 O   0  0  0  0  0  0
  -17.1260    1.4770   -5.5020 C   0  0  0  0  0  0
  -17.3310    2.8530   -4.8880 C   0  0  0  0  0  0
  -17.1790    2.8060   -3.3730 C   0  0  0  0  0  0
  -17.3420    4.1210   -2.7570 N   0  0  0  0  0  0
  -16.6210    4.5490   -1.7210 C   0  0  0  0  0  0
  -15.6850    3.7730   -1.1880 N   0  0  0  0  0  0
  -16.8340    5.7570   -1.2190 N   0  0  0  0  0  0
  -11.3890    3.3590   -3.4130 O   0  0  0  0  0  0
  -10.6580    2.4690   -3.8470 C   0  0  0  0  0  0
   -9.2280    2.3530   -3.3070 C   0  0  0  0  0  0
  -11.0570    1.6310   -4.7980 N   0  0  0  0  0  0
  -10.2790    1.3440   -5.9990 C   0  0  0  0  0  0
  -11.0220    0.4390   -6.9620 C   0  0  0  0  0  0
  -11.4950   -0.8290   -6.2760 C   0  0  0  0  0  0
  -12.9560   -0.7520   -5.8940 C   0  0  0  0  0  0
  -13.9330   -0.6860   -7.0850 C   0  0  2  0  0  0
  -15.0080    0.2450   -6.7510 N   0  0  0  0  0  0
  -14.5290   -2.0560   -7.3980 C   0  0  0  0  0  0
  -14.9150   -2.3380   -8.5330 O   0  0  0  0  0  0
  -14.5870   -2.8980   -6.3850 N   0  0  0  0  0  0
  -15.1980   -4.2090   -6.4950 C   0  0  2  0  0  0
  -16.3090   -4.2320   -5.4620 C   0  0  0  0  0  0
  -16.9180   -5.2570   -5.1560 O   0  0  0  0  0  0
  -14.1830   -5.3430   -6.2530 C   0  0  0  0  0  0
  -14.8340   -6.7090   -6.4230 C   0  0  0  0  0  0
  -13.0010   -5.1940   -7.2000 C   0  0  0  0  0  0
  -16.5430   -3.0290   -4.9460 N   0  0  0  0  0  0
  -17.5440   -2.7500   -3.9380 C   0  0  2  0  0  0
  -18.9260   -3.2490   -4.3630 C   0  0  0  0  0  0
  -19.2200   -4.4410   -4.2650 O   0  0  0  0  0  0
  -17.5560   -1.2350   -3.6960 C   0  0  0  0  0  0
  -16.4460   -0.6910   -2.7910 C   0  0  0  0  0  0
  -16.4130   -1.4420   -1.4710 C   0  0  0  0  0  0
  -15.0910   -0.7660   -3.4810 C   0  0  0  0  0  0
  -19.7700   -2.3310   -4.8350 N   0  0  0  0  0  0
  -21.1190   -2.6740   -5.2760 C   0  0  2  0  0  0
  -21.8320   -3.5460   -4.2440 C   0  0  0  0  0  0
  -21.9490   -4.7590   -4.4160 O   0  0  0  0  0  0
  -21.0640   -3.3950   -6.6250 C   0  0  0  0  0  0
  -22.4170   -3.5390   -7.3050 C   0  0  0  0  0  0
  -22.9430   -2.2010   -7.8040 C   0  0  0  0  0  0
  -23.4330   -1.3620   -6.7130 N   0  0  0  0  0  0
  -24.0520   -0.2000   -6.8950 C   0  0  0  0  0  0
  -24.2630    0.2590   -8.1210 N   0  0  0  0  0  0
  -24.4640    0.5030   -5.8490 N   0  0  0  0  0  0
  -22.3080   -2.9200   -3.1700 N   0  0  0  0  0  0
  -23.0080   -3.6390   -2.1120 C   0  0  2  0  0  0
  -24.2800   -4.2940   -2.6440 C   0  0  0  0  0  0
  -24.3830   -5.5210   -2.6850 O   0  0  0  0  0  0
  -23.3520   -2.6920   -0.9600 C   0  0  0  0  0  0
  -22.1150   -2.1680   -0.2560 C   0  0  0  0  0  0
  -21.6560   -2.8240    0.7030 O   0  0  0  0  0  0
  -21.6060   -1.1030   -0.6630 O   0  0  0  0  0  0
  -25.2420   -3.4650   -3.0480 N   0  0  0  0  0  0
  -26.5140   -3.9520   -3.5810 C   0  0  2  0  0  0
  -27.2950   -4.7290   -2.5250 C   0  0  0  0  0  0
  -26.8430   -5.7680   -2.0400 O   0  0  0  0  0  0
  -26.2830   -4.8310   -4.8130 C   0  0  0  0  0  0
  -27.5750   -5.3890   -5.3810 C   0  0  0  0  0  0
  -27.6030   -6.4970   -5.9160 O   0  0  0  0  0  0
  -28.6530   -4.6210   -5.2710 N   0  0  0  0  0  0
  -28.4730   -4.2210   -2.1750 N   0  0  0  0  0  0
  -29.3210   -4.8640   -1.1790 C   0  0  2  0  0  0
  -30.7970   -4.6150   -1.4730 C   0  0  0  0  0  0
  -31.6490   -5.4560   -1.1830 O   0  0  0  0  0  0
  -28.9920   -4.3640    0.2440 C   0  0  2  0  0  0
  -29.9040   -5.0390    1.2740 C   0  0  0  0  0  0
  -29.1270   -2.8490    0.3180 C   0  0  0  0  0  0
  -29.5430   -4.7190    2.7090 C   0  0  0  0  0  0
  -31.0920   -3.4570   -2.0550 N   0  0  0  0  0  0
  -32.4650   -3.0960   -2.3880 C   0  0  2  0  0  0
  -32.5950   -2.7610   -3.8720 C   0  0  0  0  0  0
  -32.3400   -1.5950   -4.2390 O   0  0  0  0  0  0
  -32.9190   -1.9060   -1.5400 C   0  0  0  0  0  0
  -34.3710   -1.5160   -1.7640 C   0  0  0  0  0  0
  -34.7960   -0.3350   -0.9130 C   0  0  0  0  0  0
  -34.2870   -0.1340    0.1890 O   0  0  0  0  0  0
  -35.7330    0.4560   -1.4240 N   0  0  0  0  0  0
  -32.9470   -3.6690   -4.6540 O   0  0  0  0  0  0
  -23.6508  -12.8069   -3.5649 H   0  0  0  0  0  0
  -22.0543  -12.3406   -2.8863 H   0  0  0  0  0  0
  -22.1730  -12.9312   -4.5785 H   0  0  0  0  0  0
  -23.5067  -10.9604   -5.1727 H   0  0  0  0  0  0
  -23.3880  -10.3698   -3.4805 H   0  0  0  0  0  0
  -22.5842   -8.4126   -4.5107 H   0  0  0  0  0  0
  -20.4416   -7.2237   -4.4232 H   0  0  0  0  0  0
  -19.5436   -8.7473   -4.7380 H   0  0  0  0  0  0
  -19.1431   -9.4862   -6.7504 H   0  0  0  0  0  0
  -18.8247   -9.2297   -9.0201 H   0  0  0  0  0  0
  -21.3028   -9.3900   -9.1623 H   0  0  0  0  0  0
  -20.6526   -8.3289  -10.4577 H   0  0  0  0  0  0
  -21.4282   -7.6047   -9.0083 H   0  0  0  0  0  0
  -18.5559   -7.6714  -10.9411 H   0  0  0  0  0  0
  -17.1504   -5.2967   -9.7070 H   0  0  0  0  0  0
  -17.1505   -6.4554  -12.5593 H   0  0  0  0  0  0
  -16.1606   -5.0474  -12.0452 H   0  0  0  0  0  0
  -14.8909   -6.4115  -10.5310 H   0  0  0  0  0  0
  -15.9731   -7.8177  -10.8103 H   0  0  0  0  0  0
  -15.2727   -7.9454  -13.1418 H   0  0  0  0  0  0
  -14.2789   -6.4606  -12.9564 H   0  0  0  0  0  0
  -12.8311   -7.5925  -11.3463 H   0  0  0  0  0  0
  -13.8579   -9.0645  -11.4220 H   0  0  0  0  0  0
  -11.8504   -9.2994  -12.7719 H   0  0  0  0  0  0
  -12.3029   -7.8392  -13.7153 H   0  0  0  0  0  0
  -13.3296   -9.3112  -13.7910 H   0  0  0  0  0  0
  -18.3408   -3.5504   -9.3439 H   0  0  0  0  0  0
  -19.4839   -2.1900  -11.6732 H   0  0  0  0  0  0
  -21.2707   -3.9558  -11.3417 H   0  0  0  0  0  0
  -21.5488   -3.3181   -9.6856 H   0  0  0  0  0  0
  -23.2620   -2.4752  -11.1181 H   0  0  0  0  0  0
  -22.1575   -1.1150  -10.7223 H   0  0  0  0  0  0
  -22.7593   -1.0675  -13.0916 H   0  0  0  0  0  0
  -21.0121   -1.4391  -12.9028 H   0  0  0  0  0  0
  -22.0673   -4.0135  -13.0763 H   0  0  0  0  0  0
  -22.5963   -0.9201  -14.9262 H   0  0  0  0  0  0
  -22.5082   -5.1203  -14.9622 H   0  0  0  0  0  0
  -22.9245   -4.1591  -16.5537 H   0  0  0  0  0  0
  -20.5859   -0.1446  -11.1414 H   0  0  0  0  0  0
  -20.5042    1.8269   -9.9440 H   0  0  0  0  0  0
  -22.0346    0.4702   -8.4198 H   0  0  0  0  0  0
  -20.6093    0.1482   -7.3751 H   0  0  0  0  0  0
  -20.6224    1.9334   -5.2164 H   0  0  0  0  0  0
  -22.3889    5.2062   -7.2261 H   0  0  0  0  0  0
  -19.2181    0.8293   -6.8897 H   0  0  0  0  0  0
  -16.8308    2.4657   -7.4174 H   0  0  0  0  0  0
  -17.9524    0.8418   -5.1504 H   0  0  0  0  0  0
  -16.1737    1.0893   -5.1112 H   0  0  0  0  0  0
  -16.5845    3.5510   -5.2949 H   0  0  0  0  0  0
  -18.3413    3.2153   -5.1290 H   0  0  0  0  0  0
  -17.9404    2.1349   -2.9488 H   0  0  0  0  0  0
  -16.1768    2.4321   -3.1164 H   0  0  0  0  0  0
  -18.0947    4.8218   -3.1474 H   0  0  0  0  0  0
  -15.5028    2.7693   -1.5995 H   0  0  0  0  0  0
  -15.0917    4.1337   -0.3349 H   0  0  0  0  0  0
  -17.6079    6.4054   -1.6556 H   0  0  0  0  0  0
   -9.0658    3.1163   -2.5317 H   0  0  0  0  0  0
   -8.5124    2.5065   -4.1282 H   0  0  0  0  0  0
   -9.0797    1.3529   -2.8736 H   0  0  0  0  0  0
  -12.0304    1.1425   -4.6434 H   0  0  0  0  0  0
  -10.0513    2.2846   -6.5218 H   0  0  0  0  0  0
   -9.3403    0.8446   -5.7172 H   0  0  0  0  0  0
  -11.8999    0.9690   -7.3600 H   0  0  0  0  0  0
  -10.3553    0.1596   -7.7911 H   0  0  0  0  0  0
  -11.3609   -1.6846   -6.9542 H   0  0  0  0  0  0
  -10.9076   -0.9914   -5.3602 H   0  0  0  0  0  0
  -13.2293   -1.6423   -5.3087 H   0  0  0  0  0  0
  -13.1302    0.1511   -5.2907 H   0  0  0  0  0  0
  -13.4190   -0.3120   -7.9827 H   0  0  0  0  0  0
  -14.9691    0.8159   -5.8116 H   0  0  0  0  0  0
  -14.1493   -2.5736   -5.4294 H   0  0  0  0  0  0
  -15.5793   -4.3230   -7.5205 H   0  0  0  0  0  0
  -13.8146   -5.2798   -5.2185 H   0  0  0  0  0  0
  -15.6849   -6.7982   -5.7316 H   0  0  0  0  0  0
  -14.0979   -7.4960   -6.2021 H   0  0  0  0  0  0
  -15.1895   -6.8195   -7.4581 H   0  0  0  0  0  0
  -12.5442   -4.2027   -7.0631 H   0  0  0  0  0  0
  -13.3480   -5.2975   -8.2387 H   0  0  0  0  0  0
  -12.2565   -5.9740   -6.9827 H   0  0  0  0  0  0
  -15.9136   -2.2155   -5.3361 H   0  0  0  0  0  0
  -17.2468   -3.3073   -3.0374 H   0  0  0  0  0  0
  -17.4519   -0.7094   -4.6567 H   0  0  0  0  0  0
  -18.5057   -0.9470   -3.2215 H   0  0  0  0  0  0
  -16.6606    0.3668   -2.5787 H   0  0  0  0  0  0
  -17.3989   -1.3771   -0.9875 H   0  0  0  0  0  0
  -15.6522   -0.9953   -0.8140 H   0  0  0  0  0  0
  -16.1640   -2.4974   -1.6558 H   0  0  0  0  0  0
  -15.1338   -0.2176   -4.4336 H   0  0  0  0  0  0
  -14.8360   -1.8183   -3.6749 H   0  0  0  0  0  0
  -14.3242   -0.3163   -2.8331 H   0  0  0  0  0  0
  -19.4229   -1.2885   -4.8867 H   0  0  0  0  0  0
  -21.6492   -1.7149   -5.3711 H   0  0  0  0  0  0
  -20.4127   -2.8362   -7.3131 H   0  0  0  0  0  0
  -20.6626   -4.4092   -6.4826 H   0  0  0  0  0  0
  -22.3242   -4.2168   -8.1663 H   0  0  0  0  0  0
  -23.1445   -3.9516   -6.5905 H   0  0  0  0  0  0
  -22.1358   -1.6582   -8.3177 H   0  0  0  0  0  0
  -23.7737   -2.3718   -8.5046 H   0  0  0  0  0  0
  -23.2974   -1.6822   -5.6694 H   0  0  0  0  0  0
  -23.9228   -0.3210   -8.9916 H   0  0  0  0  0  0
  -24.7782    1.2198   -8.2675 H   0  0  0  0  0  0
  -24.2910    0.1259   -4.8302 H   0  0  0  0  0  0
  -22.1621   -1.8325   -3.0924 H   0  0  0  0  0  0
  -22.3048   -4.4152   -1.7757 H   0  0  0  0  0  0
  -23.9131   -1.8297   -1.3493 H   0  0  0  0  0  0
  -23.9659   -3.2244   -0.2185 H   0  0  0  0  0  0
  -20.7599   -2.4692    1.2333 H   0  0  0  0  0  0
  -25.0560   -2.3836   -2.9708 H   0  0  0  0  0  0
  -27.0734   -3.0462   -3.8576 H   0  0  0  0  0  0
  -25.7959   -4.2375   -5.6007 H   0  0  0  0  0  0
  -25.6383   -5.6801   -4.5420 H   0  0  0  0  0  0
  -28.5800   -3.6371   -4.7845 H   0  0  0  0  0  0
  -29.6188   -4.9688   -5.6664 H   0  0  0  0  0  0
  -28.8024   -3.2898   -2.6592 H   0  0  0  0  0  0
  -29.0910   -5.9348   -1.2813 H   0  0  0  0  0  0
  -27.9502   -4.6214    0.4855 H   0  0  0  0  0  0
  -30.9417   -4.7099    1.1163 H   0  0  0  0  0  0
  -29.8439   -6.1311    1.1571 H   0  0  0  0  0  0
  -28.4652   -2.3850   -0.4282 H   0  0  0  0  0  0
  -28.8442   -2.5044    1.3236 H   0  0  0  0  0  0
  -30.1691   -2.5633    0.1120 H   0  0  0  0  0  0
  -30.2383   -5.2367    3.3862 H   0  0  0  0  0  0
  -29.6131   -3.6333    2.8713 H   0  0  0  0  0  0
  -28.5153   -5.0545    2.9121 H   0  0  0  0  0  0
  -30.2697   -2.7636   -2.2853 H   0  0  0  0  0  0
  -33.0683   -3.9861   -2.1563 H   0  0  0  0  0  0
  -32.8062   -2.1514   -0.4737 H   0  0  0  0  0  0
  -32.3026   -1.0274   -1.7812 H   0  0  0  0  0  0
  -34.5185   -1.2422   -2.8191 H   0  0  0  0  0  0
  -35.0221   -2.3658   -1.5113 H   0  0  0  0  0  0
  -36.1588    0.2357   -2.4140 H   0  0  0  0  0  0
  -36.0831    1.3313   -0.8571 H   0  0  0  0  0  0
  -33.0499   -3.4598   -5.7290 H   0  0  0  0  0  0
  1  2  1  0  0  0
  1127  1  0  0  0
  1128  1  0  0  0
  1129  1  0  0  0
  2  3  1  0  0  0
  2130  1  0  0  0
  2131  1  0  0  0
  3  4  2  0  0  0
  3  5  1  0  0  0
  5  6  1  0  0  0
  5132  1  0  0  0
  6  7  1  0  0  0
  6133  1  0  0  0
  6134  1  0  0  0
  7  8  2  0  0  0
  7  9  1  0  0  0
  9 10  1  0  0  0
  9135  1  0  0  0
 10 11  1  0  0  0
 10 13  1  0  0  0
 10136  1  0  0  0
 11 12  2  0  0  0
 11 14  1  0  0  0
 13137  1  0  0  0
 13138  1  0  0  0
 13139  1  0  0  0
 14 15  1  0  0  0
 14140  1  0  0  0
 15 16  1  0  0  0
 15 18  1  0  0  0
 15141  1  0  0  0
 16 17  2  0  0  0
 16 23  1  0  0  0
 18 19  1  0  0  0
 18142  1  0  0  0
 18143  1  0  0  0
 19 20  1  0  0  0
 19144  1  0  0  0
 19145  1  0  0  0
 20 21  1  0  0  0
 20146  1  0  0  0
 20147  1  0  0  0
 21 22  1  0  0  0
 21148  1  0  0  0
 21149  1  0  0  0
 22150  1  0  0  0
 22151  1  0  0  0
 22152  1  0  0  0
 23 24  1  0  0  0
 23153  1  0  0  0
 24 25  1  0  0  0
 24 27  1  0  0  0
 24154  1  0  0  0
 25 26  2  0  0  0
 25 34  1  0  0  0
 27 28  1  0  0  0
 27155  1  0  0  0
 27156  1  0  0  0
 28 29  1  0  0  0
 28157  1  0  0  0
 28158  1  0  0  0
 29 30  1  0  0  0
 29159  1  0  0  0
 29160  1  0  0  0
 30 31  1  0  0  0
 30161  1  0  0  0
 31 32  2  0  0  0
 31 33  1  0  0  0
 32162  1  0  0  0
 33163  1  0  0  0
 33164  1  0  0  0
 34 35  1  0  0  0
 34165  1  0  0  0
 35 36  1  0  0  0
 35 38  1  0  0  0
 35166  1  0  0  0
 36 37  2  0  0  0
 36 44  1  0  0  0
 38 39  1  0  0  0
 38167  1  0  0  0
 38168  1  0  0  0
 39 40  2  0  0  0
 39 41  1  0  0  0
 40 42  1  0  0  0
 41 43  2  0  0  0
 41169  1  0  0  0
 42 43  1  0  0  0
 42170  1  0  0  0
 44 45  1  0  0  0
 44171  1  0  0  0
 45 46  1  0  0  0
 45 48  1  0  0  0
 45172  1  0  0  0
 46 47  2  0  0  0
 46 64  1  0  0  0
 48 49  1  0  0  0
 48173  1  0  0  0
 48174  1  0  0  0
 49 50  1  0  0  0
 49175  1  0  0  0
 49176  1  0  0  0
 50 51  1  0  0  0
 50177  1  0  0  0
 50178  1  0  0  0
 51 52  1  0  0  0
 51179  1  0  0  0
 52 53  1  0  0  0
 52 54  2  0  0  0
 53180  1  0  0  0
 53181  1  0  0  0
 54182  1  0  0  0
 55 56  2  0  0  0
 56 57  1  0  0  0
 56 58  1  0  0  0
 57183  1  0  0  0
 57184  1  0  0  0
 57185  1  0  0  0
 58 59  1  0  0  0
 58186  1  0  0  0
 59 60  1  0  0  0
 59187  1  0  0  0
 59188  1  0  0  0
 60 61  1  0  0  0
 60189  1  0  0  0
 60190  1  0  0  0
 61 62  1  0  0  0
 61191  1  0  0  0
 61192  1  0  0  0
 62 63  1  0  0  0
 62193  1  0  0  0
 62194  1  0  0  0
 63 64  1  0  0  0
 63 65  1  0  0  0
 63195  1  0  0  0
 64196  1  0  0  0
 65 66  2  0  0  0
 65 67  1  0  0  0
 67 68  1  0  0  0
 67197  1  0  0  0
 68 69  1  0  0  0
 68 71  1  0  0  0
 68198  1  0  0  0
 69 70  2  0  0  0
 69 74  1  0  0  0
 71 72  1  0  0  0
 71 73  1  0  0  0
 71199  1  0  0  0
 72200  1  0  0  0
 72201  1  0  0  0
 72202  1  0  0  0
 73203  1  0  0  0
 73204  1  0  0  0
 73205  1  0  0  0
 74 75  1  0  0  0
 74206  1  0  0  0
 75 76  1  0  0  0
 75 78  1  0  0  0
 75207  1  0  0  0
 76 77  2  0  0  0
 76 82  1  0  0  0
 78 79  1  0  0  0
 78208  1  0  0  0
 78209  1  0  0  0
 79 80  1  0  0  0
 79 81  1  0  0  0
 79210  1  0  0  0
 80211  1  0  0  0
 80212  1  0  0  0
 80213  1  0  0  0
 81214  1  0  0  0
 81215  1  0  0  0
 81216  1  0  0  0
 82 83  1  0  0  0
 82217  1  0  0  0
 83 84  1  0  0  0
 83 86  1  0  0  0
 83218  1  0  0  0
 84 85  2  0  0  0
 84 93  1  0  0  0
 86 87  1  0  0  0
 86219  1  0  0  0
 86220  1  0  0  0
 87 88  1  0  0  0
 87221  1  0  0  0
 87222  1  0  0  0
 88 89  1  0  0  0
 88223  1  0  0  0
 88224  1  0  0  0
 89 90  1  0  0  0
 89225  1  0  0  0
 90 91  1  0  0  0
 90 92  2  0  0  0
 91226  1  0  0  0
 91227  1  0  0  0
 92228  1  0  0  0
 93 94  1  0  0  0
 93229  1  0  0  0
 94 95  1  0  0  0
 94 97  1  0  0  0
 94230  1  0  0  0
 95 96  2  0  0  0
 95101  1  0  0  0
 97 98  1  0  0  0
 97231  1  0  0  0
 97232  1  0  0  0
 98 99  1  0  0  0
 98100  2  0  0  0
 99233  1  0  0  0
101102  1  0  0  0
101234  1  0  0  0
102103  1  0  0  0
102105  1  0  0  0
102235  1  0  0  0
103104  2  0  0  0
103109  1  0  0  0
105106  1  0  0  0
105236  1  0  0  0
105237  1  0  0  0
106107  2  0  0  0
106108  1  0  0  0
108238  1  0  0  0
108239  1  0  0  0
109110  1  0  0  0
109240  1  0  0  0
110111  1  0  0  0
110113  1  0  0  0
110241  1  0  0  0
111112  2  0  0  0
111117  1  0  0  0
113114  1  0  0  0
113115  1  0  0  0
113242  1  0  0  0
114116  1  0  0  0
114243  1  0  0  0
114244  1  0  0  0
115245  1  0  0  0
115246  1  0  0  0
115247  1  0  0  0
116248  1  0  0  0
116249  1  0  0  0
116250  1  0  0  0
117118  1  0  0  0
117251  1  0  0  0
118119  1  0  0  0
118121  1  0  0  0
118252  1  0  0  0
119120  2  0  0  0
119126  1  0  0  0
121122  1  0  0  0
121253  1  0  0  0
121254  1  0  0  0
122123  1  0  0  0
122255  1  0  0  0
122256  1  0  0  0
123124  2  0  0  0
123125  1  0  0  0
125257  1  0  0  0
125258  1  0  0  0
126259  1  0  0  0
M  CHG  2   1   1  22   1
M  END
> <s_m_source_file>
../2rny_ligand.sdf

> <i_m_source_file_index>
1

> <s_epik_input>
W05IMytdW0NIMl1DKD1PKVtOSF1bQ0gyXUMoPU8pW05IXVtDQEBIXShbQ0gzXSlDKD1PKVtOSF1bQ0BASF0oW0NIMl1bQ0gyXVtDSDJdW0NIMl1bTkgzK10pQyg9TylbTkhdW0NAQEhdKFtDSDJdW0NIMl1bQ0gyXVtOSF0vQyg9TlxbSF0pW05IMl0pQyg9TylbTkhdW0NAQEhdKFtDSDJdQzE9TltDSDJdTj1bQ0hdMSlDKD1PKVtOSF1bQ0BASF0oW0NIMl1bQ0gyXVtDSDJdW05IXS9DKFtOSDJdKT1OXFtIXSlDKD1PKVtOSF1bQ0BASF0oW0NIMl1bQ0gyXVtDSDJdW0NIMl1bTkhdQyg9TylbQ0gzXSlDKD1PKVtOSF1bQ0BASF0oW0NIXShbQ0gzXSlbQ0gzXSlDKD1PKVtOSF1bQ0BASF0oW0NIMl1bQ0hdKFtDSDNdKVtDSDNdKUMoPU8pW05IXVtDQEBIXShbQ0gyXVtDSDJdW0NIMl1bTkhdL0MoW05IMl0pPU5cW0hdKUMoPU8pW05IXVtDQEBIXShbQ0gyXUMoPU8pW09IXSlDKD1PKVtOSF1bQ0BASF0oW0NIMl1DKD1PKVtOSDJdKUMoPU8pW05IXVtDQEBIXShbQ0BASF0oW0NIM10pW0NIMl1bQ0gzXSlDKD1PKVtOSF1bQ0BIXShDKD1PKVtPSF0pW0NIMl1bQ0gyXUMoPU8pW05IMl0=

> <s_epik_cmdline>
J2VwaWtfYXBwJywgJy1pbWFlJywgJ2xpZ2FuZF9wcm8ubWFlJywgJy1vbWFlJywgJ2xpZ2FuZF9wcmVwLm1hZScsICctbXMnLCAnMScsICctcGgnLCAnNycsICctcGh0JywgJzAuNScsICctbnQn

> <s_epik_pKa_notes>
Molecule size exceeds maximum supported for generating protonation states

> <s_epik_Chemistry_Notes>
This compound has an imine and may undergo hydrolysis.

$$$$
