2rok_ligand
                    3D
 Schrodinger Suite 2020-3.
 80 85  0  0  1  0            999 V2000
   -9.7030   -3.2220   11.6400 P   0  0  1  0  0  0
  -10.8260   -2.3110   11.9650 O   0  0  0  0  0  0
   -9.5420   -3.6660   10.2340 O   0  5  0  0  0  0
   -8.3300   -2.5090   12.0950 O   0  0  0  0  0  0
   -7.0740   -3.1550   11.9540 C   0  0  0  0  0  0
   -5.8940   -2.2410   12.3250 C   0  0  1  0  0  0
   -5.7720   -1.1240   11.4600 O   0  0  0  0  0  0
   -5.9510   -1.6800   13.7530 C   0  0  1  0  0  0
   -5.4970   -2.5880   14.7560 O   0  0  0  0  0  0
   -5.0330   -0.4550   13.6240 C   0  0  1  0  0  0
   -3.6480   -0.7940   13.7150 O   0  0  0  0  0  0
   -5.3400    0.0130   12.1970 C   0  0  2  0  0  0
   -6.4370    1.0040   12.1260 N   0  0  0  0  0  0
   -7.7940    0.7580   12.1650 C   0  0  0  0  0  0
   -8.4800    1.9280   11.7730 N   0  0  3  0  0  0
   -7.5020    2.8630   11.5790 C   0  0  3  0  0  0
   -7.6080    4.1980   11.1560 C   0  0  0  0  0  0
   -8.6070    4.8220   10.8320 O   0  0  0  0  0  0
   -6.4220    4.8360   11.1060 N   0  0  0  0  0  0
   -5.2730    4.2450   11.3500 C   0  0  0  0  0  0
   -4.2610    5.0170   11.2160 N   0  0  0  0  0  0
   -5.0900    3.0070   11.7380 N   0  3  0  0  0  0
   -6.2670    2.3410   11.8250 C   0  0  0  0  0  0
   -9.9720    1.9390   11.6380 C   0  0  0  0  0  0
  -10.2780   -4.7520   13.9580 P   0  0  2  0  0  0
   -9.4520   -5.8960   14.4250 O   0  0  0  0  0  0
  -11.7530   -4.9360   13.8850 O   0  5  0  0  0  0
   -9.8160   -4.5290   12.4870 O   0  0  0  0  0  0
   -9.9270   -3.4670   14.7260 O   0  0  0  0  0  0
   -9.8110   -3.4180   16.2620 P   0  0  2  0  0  0
   -8.3950   -3.6340   16.6670 O   0  0  0  0  0  0
  -10.8750   -4.2050   16.9470 O   0  5  0  0  0  0
  -10.1410   -1.8660   16.6000 O   0  0  0  0  0  0
   -9.5580   -0.7830   15.8750 C   0  0  0  0  0  0
   -8.1270   -0.4400   16.3240 C   0  0  1  0  0  0
   -7.6250    0.5600   15.4400 O   0  0  0  0  0  0
   -8.0690    0.1220   17.7550 C   0  0  1  0  0  0
   -6.8360   -0.2270   18.3920 O   0  0  0  0  0  0
   -8.1410    1.6290   17.4780 C   0  0  1  0  0  0
   -7.6120    2.4260   18.5340 O   0  0  0  0  0  0
   -7.3230    1.7250   16.1880 C   0  0  2  0  0  0
   -7.6380    2.9380   15.4040 N   0  0  0  0  0  0
   -8.8580    3.3660   14.9480 C   0  0  0  0  0  0
   -8.8390    4.5540   14.3960 N   0  0  0  0  0  0
   -7.4900    4.9330   14.4700 C   0  0  0  0  0  0
   -6.7950    6.1190   14.0290 C   0  0  0  0  0  0
   -7.2430    7.1380   13.5010 O   0  0  0  0  0  0
   -5.4270    6.0560   14.2190 N   0  0  0  0  0  0
   -4.7940    4.9990   14.7840 C   0  0  0  0  0  0
   -3.4930    5.0550   14.8520 N   0  0  0  0  0  0
   -5.3960    3.9030   15.2390 N   0  0  0  0  0  0
   -6.7480    3.9240   15.0490 C   0  0  0  0  0  0
   -7.0388   -4.0358   12.6120 H   0  0  0  0  0  0
   -6.9400   -3.4722   10.9093 H   0  0  0  0  0  0
   -4.9956   -2.8566   12.1703 H   0  0  0  0  0  0
   -6.9639   -1.5071   14.1457 H   0  0  0  0  0  0
   -6.0595   -3.5117   14.9570 H   0  0  0  0  0  0
   -5.1404    0.2809   14.4345 H   0  0  0  0  0  0
   -3.2313   -1.1542   14.6672 H   0  0  0  0  0  0
   -4.4446    0.4629   11.7434 H   0  0  0  0  0  0
   -8.0374   -0.0650   11.4769 H   0  0  0  0  0  0
   -8.0869    0.4793   13.1880 H   0  0  0  0  0  0
   -8.3544    3.5517   11.4830 H   0  0  0  0  0  0
   -6.3830    5.9053   10.8508 H   0  0  0  0  0  0
   -4.4028    6.0582   10.8908 H   0  0  0  0  0  0
  -10.3712    0.9480   11.8999 H   0  0  0  0  0  0
  -10.2445    2.1815   10.6002 H   0  0  0  0  0  0
  -10.3958    2.6956   12.3148 H   0  0  0  0  0  0
   -9.5141   -1.0389   14.8061 H   0  0  0  0  0  0
  -10.1701    0.1208   16.0108 H   0  0  0  0  0  0
   -7.4889   -1.3331   16.2522 H   0  0  0  0  0  0
   -8.8048   -0.2756   18.4695 H   0  0  0  0  0  0
   -6.6313   -1.2747   18.6574 H   0  0  0  0  0  0
   -9.1502    2.0657   17.4474 H   0  0  0  0  0  0
   -8.1113    2.4422   19.5140 H   0  0  0  0  0  0
   -6.2389    1.7613   16.3708 H   0  0  0  0  0  0
   -9.7657    2.7692   15.0371 H   0  0  0  0  0  0
   -2.9979    5.8695   14.4888 H   0  0  0  0  0  0
   -4.8028    3.1041   15.7079 H   0  0  0  0  0  0
   -4.1482    2.4935   11.9816 H   0  0  0  0  0  0
  1  2  2  0  0  0
  1  3  1  0  0  0
  1  4  1  0  0  0
  1 28  1  0  0  0
  4  5  1  0  0  0
  5  6  1  0  0  0
  5 53  1  0  0  0
  5 54  1  0  0  0
  6  7  1  0  0  0
  6  8  1  0  0  0
  6 55  1  0  0  0
  7 12  1  0  0  0
  8  9  1  0  0  0
  8 10  1  0  0  0
  8 56  1  0  0  0
  9 57  1  0  0  0
 10 11  1  0  0  0
 10 12  1  0  0  0
 10 58  1  0  0  0
 11 59  1  0  0  0
 12 13  1  0  0  0
 12 60  1  0  0  0
 13 14  1  0  0  0
 13 23  1  0  0  0
 14 15  1  0  0  0
 14 61  1  0  0  0
 14 62  1  0  0  0
 15 16  1  0  0  0
 15 24  1  0  0  0
 16 17  1  0  0  0
 16 23  1  0  0  0
 16 63  1  0  0  0
 17 18  2  0  0  0
 17 19  1  0  0  0
 19 20  1  0  0  0
 19 64  1  0  0  0
 20 21  2  0  0  0
 20 22  1  0  0  0
 21 65  1  0  0  0
 22 23  2  0  0  0
 22 80  1  0  0  0
 24 66  1  0  0  0
 24 67  1  0  0  0
 24 68  1  0  0  0
 25 26  2  0  0  0
 25 27  1  0  0  0
 25 28  1  0  0  0
 25 29  1  0  0  0
 29 30  1  0  0  0
 30 31  2  0  0  0
 30 32  1  0  0  0
 30 33  1  0  0  0
 33 34  1  0  0  0
 34 35  1  0  0  0
 34 69  1  0  0  0
 34 70  1  0  0  0
 35 36  1  0  0  0
 35 37  1  0  0  0
 35 71  1  0  0  0
 36 41  1  0  0  0
 37 38  1  0  0  0
 37 39  1  0  0  0
 37 72  1  0  0  0
 38 73  1  0  0  0
 39 40  1  0  0  0
 39 41  1  0  0  0
 39 74  1  0  0  0
 40 75  1  0  0  0
 41 42  1  0  0  0
 41 76  1  0  0  0
 42 43  1  0  0  0
 42 52  1  0  0  0
 43 44  2  0  0  0
 43 77  1  0  0  0
 44 45  1  0  0  0
 45 46  1  0  0  0
 45 52  2  0  0  0
 46 47  2  0  0  0
 46 48  1  0  0  0
 48 49  1  0  0  0
 49 50  2  0  0  0
 49 51  1  0  0  0
 50 78  1  0  0  0
 51 52  1  0  0  0
 51 79  1  0  0  0
M  CHG  4   3  -1  22   1  27  -1  32  -1
M  END
> <s_m_source_file>
../2rok_ligand.sdf

> <i_m_source_file_index>
1

> <s_epik_input>
Tz1DMVtOSF0vQyg9TlxbSF0pTj1DKFtDSF0xMilOKFtDSDJdW05IK10yW0NIM10pW0NAQEhdKFtDQEhdKFtPSF0pW0NAQEhdM1tPSF0pT1tDQEBIXTNbQ0gyXU9bUEBAXSg9TykoW09IXSlPW1BAXSg9TykoW09IXSlPW1BAXSg9TykoW09IXSlPW0NIMl1bQ0BIXTRPW0NASF0oW0NASF0oW09IXSlbQ0BASF00W09IXSluKFtjSF1uNSljKGM1NilbbkhdYyg9TlxbSF0pXFtuSF1jNj1P

> <s_epik_cmdline>
J2VwaWtfYXBwJywgJy1pbWFlJywgJ2xpZ2FuZF9wcm8ubWFlJywgJy1vbWFlJywgJ2xpZ2FuZF9wcmVwLm1hZScsICctbXMnLCAnMScsICctcGgnLCAnNycsICctcGh0JywgJzAuNScsICctbnQn

> <r_lp_tautomer_probability>
1

> <r_epik_Ionization_Penalty>
  0.8617

> <r_epik_Ionization_Penalty_Charging>
  0.8610

> <r_epik_Ionization_Penalty_Neutral>
  0.0007

> <r_epik_State_Penalty>
 -0.0000

> <r_epik_Charging_Adjusted_Penalty>
0.861003776340973

> <i_epik_Tot_Q>
-2

> <i_epik_Tot_abs_Q>
4

> <s_epik_Chemistry_Notes>
This compound has an imine and may undergo hydrolysis. This compound contains an acetal/aminal-like group ( X-CH(R)-Y where X, Y are N, S, or O) that may be acid/base labile, releasing an aldehyde.

$$$$
