2rol_ligand
                    3D
 Schrodinger Suite 2020-3.
195200  0  0  1  0            999 V2000
   19.0320   15.1990   26.9670 N   0  3  0  0  0  0
   19.1750   16.5100   26.2680 C   0  0  2  0  0  0
   18.8470   16.4050   24.7570 C   0  0  0  0  0  0
   19.7580   16.3580   23.9240 O   0  0  0  0  0  0
   20.6050   17.0070   26.5530 C   0  0  0  0  0  0
   21.3960   15.7060   26.7080 C   0  0  0  0  0  0
   20.3870   14.8430   27.4610 C   0  0  0  0  0  0
   17.5510   16.3490   24.3810 N   0  0  0  0  0  0
   17.1110   16.3030   22.9820 C   0  0  2  0  0  0
   17.3710   17.6310   22.2400 C   0  0  0  0  0  0
   17.8350   18.6100   22.8310 O   0  0  0  0  0  0
   15.6220   15.9390   23.0490 C   0  0  0  0  0  0
   15.1720   16.5710   24.3630 C   0  0  0  0  0  0
   16.3910   16.3900   25.2680 C   0  0  0  0  0  0
   17.0520   17.6660   20.9370 N   0  0  0  0  0  0
   17.3340   18.7960   20.0210 C   0  0  2  0  0  0
   18.8600   19.0720   19.9400 C   0  0  0  0  0  0
   19.3510   20.0630   20.4940 O   0  0  0  0  0  0
   16.4670   20.0370   20.3630 C   0  0  0  0  0  0
   16.5690   21.1980   19.3630 C   0  0  0  0  0  0
   14.9750   19.6670   20.4330 C   0  0  0  0  0  0
   19.6370   18.1650   19.3010 N   0  0  0  0  0  0
   21.0830   18.2910   19.0700 C   0  0  2  0  0  0
   21.4290   19.4210   18.0720 C   0  0  0  0  0  0
   20.5640   20.2050   17.6690 O   0  0  0  0  0  0
   21.5170   16.9100   18.5640 C   0  0  0  0  0  0
   20.2980   16.4480   17.7860 C   0  0  0  0  0  0
   19.1580   16.9540   18.6530 C   0  0  0  0  0  0
   22.7040   19.4990   17.6600 N   0  0  0  0  0  0
   23.2240   20.4970   16.7100 C   0  0  2  0  0  0
   22.3540   20.6600   15.4320 C   0  0  0  0  0  0
   21.8000   19.6670   14.9420 O   0  0  0  0  0  0
   24.6960   20.1780   16.3690 C   0  0  0  0  0  0
   25.6810   21.0100   17.1780 C   0  0  0  0  0  0
   26.4030   21.8450   16.6500 O   0  0  0  0  0  0
   25.7360   20.8360   18.4810 N   0  0  0  0  0  0
   22.2410   21.8860   14.8750 N   0  0  0  0  0  0
   21.3340   22.1900   13.7650 C   0  0  2  0  0  0
   21.7280   21.4530   12.4760 C   0  0  0  0  0  0
   22.9050   21.3830   12.1080 O   0  0  0  0  0  0
   21.3850   23.7120   13.5880 C   0  0  0  0  0  0
   22.7530   24.0970   14.1470 C   0  0  0  0  0  0
   22.9540   23.0920   15.2800 C   0  0  0  0  0  0
   20.7300   20.9080   11.7780 N   0  0  0  0  0  0
   20.9340   20.1130   10.5630 C   0  0  2  0  0  0
   21.1470   20.9800    9.3060 C   0  0  0  0  0  0
   20.5950   22.0800    9.1840 O   0  0  0  0  0  0
   19.7410   19.1690   10.3770 C   0  0  0  0  0  0
   20.1650   17.9090    9.6080 C   0  0  0  0  0  0
   21.0460   17.1790   10.1180 O   0  0  0  0  0  0
   19.6310   17.6540    8.5030 O   0  0  0  0  0  0
   21.9390   20.4740    8.3580 N   0  0  0  0  0  0
   22.2070   21.1270    7.0700 C   0  0  2  0  0  0
   21.0600   20.9150    6.0560 C   0  0  0  0  0  0
   20.2710   19.9750    6.1730 O   0  0  0  0  0  0
   23.5480   20.6090    6.5220 C   0  0  0  0  0  0
   24.7510   21.0260    7.3570 C   0  0  0  0  0  0
   25.1890   20.2250    8.4310 C   0  0  0  0  0  0
   25.4170   22.2360    7.0720 C   0  0  0  0  0  0
   26.2860   20.6290    9.2180 C   0  0  0  0  0  0
   26.5160   22.6440    7.8560 C   0  0  0  0  0  0
   26.9510   21.8410    8.9330 C   0  0  0  0  0  0
   28.0070   22.2290    9.7000 O   0  0  0  0  0  0
   20.9950   21.7690    5.0270 N   0  0  0  0  0  0
   19.9800   21.7550    3.9520 C   0  0  2  0  0  0
   18.5060   21.6730    4.4500 C   0  0  0  0  0  0
   17.8300   20.6510    4.2600 O   0  0  0  0  0  0
   20.3580   20.6840    2.9060 C   0  0  0  0  0  0
   19.6470   20.8490    1.5540 C   0  0  0  0  0  0
   20.0560   22.1510    0.8390 C   0  0  0  0  0  0
   21.1900   22.2300    0.3080 O   0  0  0  0  0  0
   19.2480   23.1100    0.8060 O   0  0  0  0  0  0
   17.9910   22.7310    5.1170 N   0  0  0  0  0  0
   16.6150   22.7900    5.6250 C   0  0  2  0  0  0
   15.5440   22.8660    4.5130 C   0  0  0  0  0  0
   15.8380   23.0370    3.3260 O   0  0  0  0  0  0
   16.5820   24.0240    6.5390 C   0  0  0  0  0  0
   17.6190   24.9510    5.9130 C   0  0  0  0  0  0
   18.6870   23.9780    5.4150 C   0  0  0  0  0  0
   14.2710   22.7820    4.9240 N   0  0  0  0  0  0
   13.0720   22.7250    4.0540 C   0  0  2  0  0  0
   12.3540   24.1000    4.0090 C   0  0  0  0  0  0
   11.1240   24.1970    3.9480 O   0  0  0  0  0  0
   12.1300   21.5710    4.4950 C   0  0  2  0  0  0
   12.8880   20.3160    5.0110 C   0  0  0  0  0  0
   11.1800   21.1750    3.3550 C   0  0  0  0  0  0
   12.0290   19.0730    5.2980 C   0  0  0  0  0  0
   13.1280   25.1870    4.1170 N   0  0  0  0  0  0
   12.6630   26.5870    4.2230 C   0  0  2  0  0  0
   13.5840   27.5590    3.4770 C   0  0  0  0  0  0
   14.8230   27.4430    3.5980 O   0  0  0  0  0  0
   12.5210   27.0040    5.7020 C   0  0  0  0  0  0
   11.4840   26.1620    6.4660 C   0  0  0  0  0  0
   11.0760   26.7660    7.8130 C   0  0  0  0  0  0
   12.1780   26.7810    8.7990 N   0  0  0  0  0  0
   12.8600   27.8320    9.2220 C   0  0  0  0  0  0
   12.7490   29.0100    8.6790 N   0  0  0  0  0  0
   13.6870   27.7140   10.2200 N   0  0  0  0  0  0
   18.3217   15.3034   27.8004 H   0  0  0  0  0  0
   18.6581   14.4448   26.2589 H   0  0  0  0  0  0
   18.4368   17.2174   26.6737 H   0  0  0  0  0  0
   20.9562   17.6176   25.7081 H   0  0  0  0  0  0
   20.6061   17.6147   27.4699 H   0  0  0  0  0  0
   21.6549   15.3136   25.7135 H   0  0  0  0  0  0
   22.3173   15.9025   27.2759 H   0  0  0  0  0  0
   20.4465   15.0392   28.5417 H   0  0  0  0  0  0
   20.5781   13.7765   27.2709 H   0  0  0  0  0  0
   17.7006   15.5482   22.4410 H   0  0  0  0  0  0
   15.1016   16.3616   22.1769 H   0  0  0  0  0  0
   15.5116   14.8446   23.0469 H   0  0  0  0  0  0
   14.9241   17.6294   24.1948 H   0  0  0  0  0  0
   14.2841   16.0418   24.7393 H   0  0  0  0  0  0
   16.3287   15.4488   25.8339 H   0  0  0  0  0  0
   16.4941   17.2324   25.9678 H   0  0  0  0  0  0
   16.5432   16.7664   20.5603 H   0  0  0  0  0  0
   17.0138   18.4673   19.0213 H   0  0  0  0  0  0
   16.8646   20.3791   21.3299 H   0  0  0  0  0  0
   17.6197   21.5096   19.2689 H   0  0  0  0  0  0
   15.9660   22.0451   19.7219 H   0  0  0  0  0  0
   16.1943   20.8708   18.3819 H   0  0  0  0  0  0
   14.8364   18.8347   21.1387 H   0  0  0  0  0  0
   14.6252   19.3638   19.4351 H   0  0  0  0  0  0
   14.3969   20.5380   20.7752 H   0  0  0  0  0  0
   21.5762   18.5702   20.0128 H   0  0  0  0  0  0
   22.4118   17.0153   17.9330 H   0  0  0  0  0  0
   21.7475   16.2610   19.4217 H   0  0  0  0  0  0
   20.3099   16.9002   16.7833 H   0  0  0  0  0  0
   20.3154   15.3520   17.6941 H   0  0  0  0  0  0
   18.8868   16.2115   19.4180 H   0  0  0  0  0  0
   18.2745   17.1901   18.0417 H   0  0  0  0  0  0
   23.3788   18.7427   18.0875 H   0  0  0  0  0  0
   23.1565   21.4469   17.2607 H   0  0  0  0  0  0
   24.8994   19.1175   16.5788 H   0  0  0  0  0  0
   24.8782   20.3825   15.3037 H   0  0  0  0  0  0
   25.0904   20.0875   18.9637 H   0  0  0  0  0  0
   26.4276   21.4390   19.0877 H   0  0  0  0  0  0
   20.3281   21.8321   14.0299 H   0  0  0  0  0  0
   21.2861   23.9605   12.5210 H   0  0  0  0  0  0
   20.5602   24.1744   14.1501 H   0  0  0  0  0  0
   23.5121   24.0016   13.3566 H   0  0  0  0  0  0
   22.7238   25.1371   14.5037 H   0  0  0  0  0  0
   22.5331   23.4670   16.2245 H   0  0  0  0  0  0
   24.0196   22.8582   15.4207 H   0  0  0  0  0  0
   19.7122   21.0809   12.1577 H   0  0  0  0  0  0
   21.8621   19.5502   10.7417 H   0  0  0  0  0  0
   19.3516   18.8717   11.3619 H   0  0  0  0  0  0
   18.9509   19.6837    9.8105 H   0  0  0  0  0  0
   19.9271   16.7543    7.9436 H   0  0  0  0  0  0
   22.4040   19.5046    8.5904 H   0  0  0  0  0  0
   22.2647   22.2045    7.2835 H   0  0  0  0  0  0
   23.5329   19.5094    6.4950 H   0  0  0  0  0  0
   23.7037   20.9986    5.5052 H   0  0  0  0  0  0
   24.6769   19.2889    8.6538 H   0  0  0  0  0  0
   25.0810   22.8583    6.2426 H   0  0  0  0  0  0
   26.6210   20.0055   10.0469 H   0  0  0  0  0  0
   27.0294   23.5788    7.6307 H   0  0  0  0  0  0
   28.3399   21.5980   10.5373 H   0  0  0  0  0  0
   21.7886   22.5307    5.0243 H   0  0  0  0  0  0
   20.0508   22.7512    3.4910 H   0  0  0  0  0  0
   21.4396   20.7282    2.7104 H   0  0  0  0  0  0
   20.0953   19.6873    3.2903 H   0  0  0  0  0  0
   19.9039   20.0034    0.8991 H   0  0  0  0  0  0
   18.5587   20.8726    1.7125 H   0  0  0  0  0  0
   21.4937   23.1542   -0.2054 H   0  0  0  0  0  0
   16.4103   21.8487    6.1562 H   0  0  0  0  0  0
   15.5713   24.4582    6.5325 H   0  0  0  0  0  0
   16.8472   23.7278    7.5646 H   0  0  0  0  0  0
   17.1537   25.5240    5.0974 H   0  0  0  0  0  0
   18.0000   25.6443    6.6773 H   0  0  0  0  0  0
   19.4494   23.7969    6.1870 H   0  0  0  0  0  0
   19.1718   24.3545    4.5022 H   0  0  0  0  0  0
   14.1585   22.7560    6.0179 H   0  0  0  0  0  0
   13.4406   22.5027    3.0417 H   0  0  0  0  0  0
   11.5383   21.9631    5.3353 H   0  0  0  0  0  0
   13.6322   20.0040    4.2634 H   0  0  0  0  0  0
   13.3966   20.5576    5.9560 H   0  0  0  0  0  0
   10.6473   22.0675    2.9950 H   0  0  0  0  0  0
   10.4521   20.4374    3.7239 H   0  0  0  0  0  0
   11.7603   20.7365    2.5298 H   0  0  0  0  0  0
   12.6736   18.2563    5.6549 H   0  0  0  0  0  0
   11.5173   18.7601    4.3759 H   0  0  0  0  0  0
   11.2817   19.3137    6.0685 H   0  0  0  0  0  0
   14.2050   24.9632    4.1228 H   0  0  0  0  0  0
   11.6807   26.5957    3.7279 H   0  0  0  0  0  0
   13.1654   28.3524    2.8403 H   0  0  0  0  0  0
   13.4889   26.8852    6.2110 H   0  0  0  0  0  0
   12.2042   28.0559    5.7576 H   0  0  0  0  0  0
   10.5714   26.0655    5.8595 H   0  0  0  0  0  0
   11.8985   25.1629    6.6662 H   0  0  0  0  0  0
   10.7475   27.8052    7.6644 H   0  0  0  0  0  0
   10.2515   26.1788    8.2435 H   0  0  0  0  0  0
   12.5108   25.8424    9.2662 H   0  0  0  0  0  0
   12.0635   29.1630    7.8324 H   0  0  0  0  0  0
   13.3407   29.8523    9.0668 H   0  0  0  0  0  0
   13.8176   26.7398   10.7139 H   0  0  0  0  0  0
  1  2  1  0  0  0
  1  7  1  0  0  0
  1 99  1  0  0  0
  1100  1  0  0  0
  2  3  1  0  0  0
  2  5  1  0  0  0
  2101  1  0  0  0
  3  4  2  0  0  0
  3  8  1  0  0  0
  5  6  1  0  0  0
  5102  1  0  0  0
  5103  1  0  0  0
  6  7  1  0  0  0
  6104  1  0  0  0
  6105  1  0  0  0
  7106  1  0  0  0
  7107  1  0  0  0
  8  9  1  0  0  0
  8 14  1  0  0  0
  9 10  1  0  0  0
  9 12  1  0  0  0
  9108  1  0  0  0
 10 11  2  0  0  0
 10 15  1  0  0  0
 12 13  1  0  0  0
 12109  1  0  0  0
 12110  1  0  0  0
 13 14  1  0  0  0
 13111  1  0  0  0
 13112  1  0  0  0
 14113  1  0  0  0
 14114  1  0  0  0
 15 16  1  0  0  0
 15115  1  0  0  0
 16 17  1  0  0  0
 16 19  1  0  0  0
 16116  1  0  0  0
 17 18  2  0  0  0
 17 22  1  0  0  0
 19 20  1  0  0  0
 19 21  1  0  0  0
 19117  1  0  0  0
 20118  1  0  0  0
 20119  1  0  0  0
 20120  1  0  0  0
 21121  1  0  0  0
 21122  1  0  0  0
 21123  1  0  0  0
 22 23  1  0  0  0
 22 28  1  0  0  0
 23 24  1  0  0  0
 23 26  1  0  0  0
 23124  1  0  0  0
 24 25  2  0  0  0
 24 29  1  0  0  0
 26 27  1  0  0  0
 26125  1  0  0  0
 26126  1  0  0  0
 27 28  1  0  0  0
 27127  1  0  0  0
 27128  1  0  0  0
 28129  1  0  0  0
 28130  1  0  0  0
 29 30  1  0  0  0
 29131  1  0  0  0
 30 31  1  0  0  0
 30 33  1  0  0  0
 30132  1  0  0  0
 31 32  2  0  0  0
 31 37  1  0  0  0
 33 34  1  0  0  0
 33133  1  0  0  0
 33134  1  0  0  0
 34 35  2  0  0  0
 34 36  1  0  0  0
 36135  1  0  0  0
 36136  1  0  0  0
 37 38  1  0  0  0
 37 43  1  0  0  0
 38 39  1  0  0  0
 38 41  1  0  0  0
 38137  1  0  0  0
 39 40  2  0  0  0
 39 44  1  0  0  0
 41 42  1  0  0  0
 41138  1  0  0  0
 41139  1  0  0  0
 42 43  1  0  0  0
 42140  1  0  0  0
 42141  1  0  0  0
 43142  1  0  0  0
 43143  1  0  0  0
 44 45  1  0  0  0
 44144  1  0  0  0
 45 46  1  0  0  0
 45 48  1  0  0  0
 45145  1  0  0  0
 46 47  2  0  0  0
 46 52  1  0  0  0
 48 49  1  0  0  0
 48146  1  0  0  0
 48147  1  0  0  0
 49 50  2  0  0  0
 49 51  1  0  0  0
 51148  1  0  0  0
 52 53  1  0  0  0
 52149  1  0  0  0
 53 54  1  0  0  0
 53 56  1  0  0  0
 53150  1  0  0  0
 54 55  2  0  0  0
 54 64  1  0  0  0
 56 57  1  0  0  0
 56151  1  0  0  0
 56152  1  0  0  0
 57 58  2  0  0  0
 57 59  1  0  0  0
 58 60  1  0  0  0
 58153  1  0  0  0
 59 61  2  0  0  0
 59154  1  0  0  0
 60 62  2  0  0  0
 60155  1  0  0  0
 61 62  1  0  0  0
 61156  1  0  0  0
 62 63  1  0  0  0
 63157  1  0  0  0
 64 65  1  0  0  0
 64158  1  0  0  0
 65 66  1  0  0  0
 65 68  1  0  0  0
 65159  1  0  0  0
 66 67  2  0  0  0
 66 73  1  0  0  0
 68 69  1  0  0  0
 68160  1  0  0  0
 68161  1  0  0  0
 69 70  1  0  0  0
 69162  1  0  0  0
 69163  1  0  0  0
 70 71  1  0  0  0
 70 72  2  0  0  0
 71164  1  0  0  0
 73 74  1  0  0  0
 73 79  1  0  0  0
 74 75  1  0  0  0
 74 77  1  0  0  0
 74165  1  0  0  0
 75 76  2  0  0  0
 75 80  1  0  0  0
 77 78  1  0  0  0
 77166  1  0  0  0
 77167  1  0  0  0
 78 79  1  0  0  0
 78168  1  0  0  0
 78169  1  0  0  0
 79170  1  0  0  0
 79171  1  0  0  0
 80 81  1  0  0  0
 80172  1  0  0  0
 81 82  1  0  0  0
 81 84  1  0  0  0
 81173  1  0  0  0
 82 83  2  0  0  0
 82 88  1  0  0  0
 84 85  1  0  0  0
 84 86  1  0  0  0
 84174  1  0  0  0
 85 87  1  0  0  0
 85175  1  0  0  0
 85176  1  0  0  0
 86177  1  0  0  0
 86178  1  0  0  0
 86179  1  0  0  0
 87180  1  0  0  0
 87181  1  0  0  0
 87182  1  0  0  0
 88 89  1  0  0  0
 88183  1  0  0  0
 89 90  1  0  0  0
 89 92  1  0  0  0
 89184  1  0  0  0
 90 91  2  0  0  0
 90185  1  0  0  0
 92 93  1  0  0  0
 92186  1  0  0  0
 92187  1  0  0  0
 93 94  1  0  0  0
 93188  1  0  0  0
 93189  1  0  0  0
 94 95  1  0  0  0
 94190  1  0  0  0
 94191  1  0  0  0
 95 96  1  0  0  0
 95192  1  0  0  0
 96 97  1  0  0  0
 96 98  2  0  0  0
 97193  1  0  0  0
 97194  1  0  0  0
 98195  1  0  0  0
M  CHG  1   1   1
M  END
> <s_m_source_file>
../2rol_ligand.sdf

> <i_m_source_file_index>
1

> <s_epik_input>
W0NIMl0xW0NIMl1bQ0gyXVtOSDIrXVtDQEBIXTFDKD1PKU4yW0NAQEhdKFtDSDJdW0NIMl1bQ0gyXTIpQyg9TylbTkhdW0NAQEhdKFtDSF0oW0NIM10pW0NIM10pQyg9TylOM1tDQEBIXShbQ0gyXVtDSDJdW0NIMl0zKUMoPU8pW05IXVtDQEBIXShbQ0gyXUMoPU8pW05IMl0pQyg9TylONFtDQEBIXShbQ0gyXVtDSDJdW0NIMl00KUMoPU8pW05IXVtDQEBIXShbQ0gyXUMoPU8pW09IXSlDKD1PKVtOSF1bQ0BASF0oW0NIMl1jNVtjSF1bY0hdYyhbT0hdKVtjSF1bY0hdNSlDKD1PKVtOSF1bQ0BASF0oW0NIMl1bQ0gyXUMoPU8pW09IXSlDKD1PKU42W0NAQEhdKFtDSDJdW0NIMl1bQ0gyXTYpQyg9TylbTkhdW0NAQEhdKFtDQEBIXShbQ0gzXSlbQ0gyXVtDSDNdKUMoPU8pW05IXVtDQEhdKFtDSF09TylbQ0gyXVtDSDJdW0NIMl1bTkhdL0MoW05IMl0pPU5cW0hd

> <s_epik_cmdline>
J2VwaWtfYXBwJywgJy1pbWFlJywgJ2xpZ2FuZF9wcm8ubWFlJywgJy1vbWFlJywgJ2xpZ2FuZF9wcmVwLm1hZScsICctbXMnLCAnMScsICctcGgnLCAnNycsICctcGh0JywgJzAuNScsICctbnQn

> <s_epik_pKa_notes>
Molecule size exceeds maximum supported for generating protonation states

> <s_epik_Chemistry_Notes>
This compound has an imine and may undergo hydrolysis.

$$$$
