2rox_ligand
                    3D
 Schrodinger Suite 2020-3.
 34 35  0  0  1  0            999 V2000
   21.0550   44.0460    0.7430 C   0  0  0  0  0  0
   22.2810   44.3810    1.3380 C   0  0  0  0  0  0
   22.6410   43.7860    2.5320 C   0  0  0  0  0  0
   21.8650   42.8680    3.2110 C   0  0  0  0  0  0
   20.6610   42.5530    2.5930 C   0  0  0  0  0  0
   20.2790   43.1390    1.3920 C   0  0  0  0  0  0
   20.5840   44.6190   -0.5140 C   0  0  0  0  0  0
   20.8730   43.7030   -1.6210 C   0  0  1  0  0  0
   19.6580   42.8770   -2.1560 C   0  0  0  0  0  0
   21.7880   42.5940    5.6430 C   0  0  0  0  0  0
   21.1190   43.7220    5.9030 C   0  0  0  0  0  0
   20.7150   43.9980    7.2090 C   0  0  0  0  0  0
   20.9510   43.1640    8.3010 C   0  0  0  0  0  0
   21.6520   41.9850    7.9930 C   0  0  0  0  0  0
   22.0780   41.6740    6.6790 C   0  0  0  0  0  0
   21.2130   44.5050   -2.8290 N   0  3  0  0  0  0
   22.2560   42.2370    4.3800 O   0  0  0  0  0  0
   20.5300   43.5000    9.5120 O   0  5  0  0  0  0
   18.5280   43.3520   -2.1040 O   0  0  0  0  0  0
   19.9800   41.7600   -2.6030 O   0  5  0  0  0  0
   24.4750   44.3410    3.3680 I   0  0  0  0  0  0
   19.7060   45.8150    7.3950 I   0  0  0  0  0  0
   19.2660   41.2190    3.3300 I   0  0  0  0  0  0
   21.9970   40.7120    9.6440 I   0  0  0  0  0  0
   22.9435   45.1042    0.8624 H   0  0  0  0  0  0
   19.3205   42.8604    0.9542 H   0  0  0  0  0  0
   19.4983   44.7865   -0.4566 H   0  0  0  0  0  0
   21.0938   45.5770   -0.6941 H   0  0  0  0  0  0
   21.6740   43.0892   -1.1833 H   0  0  0  0  0  0
   20.8907   44.4217    5.0990 H   0  0  0  0  0  0
   22.6159   40.7492    6.4704 H   0  0  0  0  0  0
   22.0722   45.1551   -2.6076 H   0  0  0  0  0  0
   20.3490   45.1234   -3.1136 H   0  0  0  0  0  0
   21.4689   43.8287   -3.6580 H   0  0  0  0  0  0
  1  2  2  0  0  0
  1  6  1  0  0  0
  1  7  1  0  0  0
  2  3  1  0  0  0
  2 25  1  0  0  0
  3  4  2  0  0  0
  3 21  1  0  0  0
  4  5  1  0  0  0
  4 17  1  0  0  0
  5  6  2  0  0  0
  5 23  1  0  0  0
  6 26  1  0  0  0
  7  8  1  0  0  0
  7 27  1  0  0  0
  7 28  1  0  0  0
  8  9  1  0  0  0
  8 16  1  0  0  0
  8 29  1  0  0  0
  9 19  2  0  0  0
  9 20  1  0  0  0
 10 11  2  0  0  0
 10 15  1  0  0  0
 10 17  1  0  0  0
 11 12  1  0  0  0
 11 30  1  0  0  0
 12 13  2  0  0  0
 12 22  1  0  0  0
 13 14  1  0  0  0
 13 18  1  0  0  0
 14 15  2  0  0  0
 14 24  1  0  0  0
 15 31  1  0  0  0
 16 32  1  0  0  0
 16 33  1  0  0  0
 16 34  1  0  0  0
M  CHG  3  16   1  18  -1  20  -1
M  END
> <s_m_source_file>
../2rox_ligand.sdf

> <i_m_source_file_index>
1

> <s_epik_input>
Tz1DKFtPSF0pW0NAQEhdKFtOSDMrXSlbQ0gyXWMxW2NIXWMoSSljKGMoSSlbY0hdMSlPYzJbY0hdYyhJKWMoW09IXSljKEkpW2NIXTI=

> <s_epik_cmdline>
J2VwaWtfYXBwJywgJy1pbWFlJywgJ2xpZ2FuZF9wcm8ubWFlJywgJy1vbWFlJywgJ2xpZ2FuZF9wcmVwLm1hZScsICctbXMnLCAnMScsICctcGgnLCAnNycsICctcGh0JywgJzAuNScsICctbnQn

> <r_lp_tautomer_probability>
1

> <r_epik_Ionization_Penalty>
  0.1375

> <r_epik_Ionization_Penalty_Charging>
  0.1375

> <r_epik_Ionization_Penalty_Neutral>
  0.0000

> <r_epik_State_Penalty>
  0.1238

> <r_epik_Charging_Adjusted_Penalty>
0.261359179817534

> <i_epik_Tot_Q>
-1

> <i_epik_Tot_abs_Q>
3

$$$$
