2rqu_ligand
                    3D
 Schrodinger Suite 2020-3.
303304  0  0  1  0            999 V2000
   17.5200    8.4010   14.0860 N   0  3  0  0  0  0
   18.4300    9.4360   13.5580 C   0  0  2  0  0  0
   17.6350   10.5610   12.9140 C   0  0  0  0  0  0
   16.9900   10.3570   11.8850 O   0  0  0  0  0  0
   19.3620    8.8190   12.5150 C   0  0  0  0  0  0
   20.2360    7.3450   13.0870 S   0  0  0  0  0  0
   17.6700   11.7390   13.5250 N   0  0  0  0  0  0
   17.0080   12.9010   12.9570 C   0  0  2  0  0  0
   17.7150   13.3400   11.6880 C   0  0  0  0  0  0
   18.9410   13.4840   11.6580 O   0  0  0  0  0  0
   16.9580   14.0960   13.9360 C   0  0  2  0  0  0
   16.0160   13.8020   15.1010 C   0  0  0  0  0  0
   16.5260   15.3700   13.2160 C   0  0  0  0  0  0
   15.7670   15.0090   15.9780 C   0  0  0  0  0  0
   16.9410   13.5350   10.6440 N   0  0  0  0  0  0
   17.4640   14.0530    9.4000 C   0  0  2  0  0  0
   17.5700   15.5670    9.4860 C   0  0  0  0  0  0
   16.6550   16.2190    9.9590 O   0  0  0  0  0  0
   16.5790   13.6200    8.2010 C   0  0  2  0  0  0
   17.0740   12.2910    7.6350 C   0  0  0  0  0  0
   16.5270   14.6750    7.1100 C   0  0  0  0  0  0
   17.0140   11.1690    8.6350 C   0  0  0  0  0  0
   18.7240   16.0900    9.0990 N   0  0  0  0  0  0
   18.9560   17.5280    9.0060 C   0  0  2  0  0  0
   18.4570   18.2750   10.2500 C   0  0  0  0  0  0
   18.5990   17.8020   11.3860 O   0  0  0  0  0  0
   18.2450   18.0590    7.7570 C   0  0  0  0  0  0
   18.7390   19.3350    7.3700 O   0  0  0  0  0  0
   17.9130   19.4580   10.0130 N   0  0  0  0  0  0
   17.2000   20.2130   11.0220 C   0  0  2  0  0  0
   15.7090   20.1550   10.7150 C   0  0  0  0  0  0
   15.3230   20.0130    9.5530 O   0  0  0  0  0  0
   17.6810   21.6520   11.0410 C   0  0  0  0  0  0
   14.8830   20.2660   11.7480 N   0  0  0  0  0  0
   13.4340   20.1320   11.6060 C   0  0  2  0  0  0
   12.8650   21.0740   10.5500 C   0  0  0  0  0  0
   13.1730   22.2670   10.5340 O   0  0  0  0  0  0
   12.7430   20.3720   12.9520 C   0  0  0  0  0  0
   11.2380   20.5580   12.8430 C   0  0  0  0  0  0
   10.3450   19.7850   14.2000 S   0  0  0  0  0  0
   10.6850   18.0660   13.8430 C   0  0  0  0  0  0
   12.0150   20.5370    9.6590 N   0  0  0  0  0  0
   11.3500   21.3110    8.6320 C   0  0  2  0  0  0
   10.1040   21.9830    9.1770 C   0  0  0  0  0  0
    9.8030   21.8920   10.3720 O   0  0  0  0  0  0
   10.9900   20.2610    7.5860 C   0  0  0  0  0  0
   10.7620   19.0180    8.3670 C   0  0  0  0  0  0
   11.6190   19.1190    9.6000 C   0  0  0  0  0  0
    9.3800   22.6470    8.3110 N   0  0  0  0  0  0
    8.2220   23.3930    8.7290 C   0  0  2  0  0  0
    6.9610   22.7060    8.2480 C   0  0  0  0  0  0
    6.8780   22.2850    7.0920 O   0  0  0  0  0  0
    8.2620   24.8270    8.1760 C   0  0  2  0  0  0
    9.5790   25.3660    8.3360 O   0  0  0  0  0  0
    7.2590   25.7170    8.8970 C   0  0  0  0  0  0
    6.0020   22.5550    9.1460 N   0  0  0  0  0  0
    4.7000   22.0550    8.7760 C   0  0  2  0  0  0
    4.0980   23.0000    7.7510 C   0  0  0  0  0  0
    3.7200   24.1250    8.0730 O   0  0  0  0  0  0
    3.8030   21.9490   10.0020 C   0  0  0  0  0  0
    2.5600   21.1200    9.7640 C   0  0  0  0  0  0
    1.5990   21.2270   10.9290 C   0  0  0  0  0  0
    2.1910   20.6490   12.2050 C   0  0  0  0  0  0
    1.3810   21.0070   13.3990 N   0  3  0  0  0  0
    4.0400   22.5420    6.5170 N   0  0  0  0  0  0
    3.6600   23.3840    5.3880 C   0  0  2  0  0  0
    2.1990   23.8190    5.4400 C   0  0  0  0  0  0
    1.7610   24.6150    4.6080 O   0  0  0  0  0  0
    3.9230   22.6320    4.0910 C   0  0  0  0  0  0
    3.4390   21.3040    4.1810 O   0  0  0  0  0  0
    1.4690   23.3000    6.4270 N   0  0  0  0  0  0
    0.0290   23.5020    6.5390 C   0  0  2  0  0  0
   -0.6850   22.8080    5.3910 C   0  0  0  0  0  0
   -0.4860   23.1350    4.2230 O   0  0  0  0  0  0
   -0.3270   24.9870    6.5750 C   0  0  0  0  0  0
    0.2110   25.6190    7.7300 O   0  0  0  0  0  0
   -1.5040   21.8350    5.7260 N   0  0  0  0  0  0
   -2.1530   21.0230    4.7190 C   0  0  2  0  0  0
   -3.1470   21.8420    3.9100 C   0  0  0  0  0  0
   -4.2390   22.1570    4.3760 O   0  0  0  0  0  0
   -2.8230   19.8230    5.3740 C   0  0  0  0  0  0
   -3.4300   18.8500    4.3870 C   0  0  0  0  0  0
   -3.4800   17.4550    4.9750 C   0  0  0  0  0  0
   -4.4310   17.3370    6.0770 N   0  0  0  0  0  0
   -5.6860   16.9180    5.9290 C   0  0  0  0  0  0
   -6.1740   16.6770    4.7170 N   0  0  0  0  0  0
   -6.4500   16.7480    6.9940 N   0  0  0  0  0  0
   -2.7430   22.1700    2.6860 N   0  0  0  0  0  0
   -3.5270   23.0080    1.7830 C   0  0  2  0  0  0
   -4.8860   22.3750    1.5020 C   0  0  0  0  0  0
   -5.8830   23.0700    1.2880 O   0  0  0  0  0  0
   -2.7760   23.2170    0.4570 C   0  0  0  0  0  0
   -1.3550   23.7690    0.5970 C   0  0  0  0  0  0
   -0.3630   22.6970    1.0430 C   0  0  0  0  0  0
    1.0550   23.2390    1.1680 C   0  0  0  0  0  0
    1.6480   23.5620   -0.1560 N   0  3  0  0  0  0
   -4.9080   21.0500    1.5060 N   0  0  0  0  0  0
   -6.1290   20.2940    1.2770 C   0  0  2  0  0  0
   -7.1890   20.6090    2.3290 C   0  0  0  0  0  0
   -8.3700   20.7430    2.0100 O   0  0  0  0  0  0
   -5.8230   18.8050    1.2780 C   0  0  0  0  0  0
   -6.7690   20.7470    3.5800 N   0  0  0  0  0  0
   -7.7150   20.9370    4.6690 C   0  0  2  0  0  0
   -7.8690   22.4140    4.9980 C   0  0  0  0  0  0
   -6.9190   23.1910    4.8960 O   0  0  0  0  0  0
   -7.2800   20.1650    5.9220 C   0  0  0  0  0  0
   -6.1610   20.8270    6.7150 C   0  0  0  0  0  0
   -5.8860   20.0840    8.0120 C   0  0  0  0  0  0
   -7.1540   19.9350    8.8460 C   0  0  0  0  0  0
   -6.9290   19.1320   10.0700 N   0  3  0  0  0  0
   -9.0760   22.7990    5.3650 N   0  0  0  0  0  0
   -9.3510   24.1590    5.7790 C   0  0  2  0  0  0
   -9.6210   24.1850    7.2720 C   0  0  0  0  0  0
  -10.3000   23.3000    7.7960 O   0  0  0  0  0  0
  -10.5430   24.7410    5.0070 C   0  0  0  0  0  0
  -10.1970   25.2250    3.6040 C   0  0  0  0  0  0
   -9.7060   24.0960    2.7100 C   0  0  0  0  0  0
   -9.2670   24.6100    1.3520 C   0  0  0  0  0  0
   -8.6860   23.5300    0.5110 N   0  3  0  0  0  0
   -9.0570   25.1690    7.9820 N   0  0  0  0  0  0
   -9.2600   25.3220    9.4230 C   0  0  2  0  0  0
  -10.7200   25.6090    9.7580 C   0  0  0  0  0  0
  -11.1590   26.7610    9.7310 O   0  0  0  0  0  0
   -8.3720   26.5170    9.7980 C   0  0  0  0  0  0
   -7.4200   26.6650    8.6590 C   0  0  0  0  0  0
   -8.1660   26.2060    7.4430 C   0  0  0  0  0  0
  -11.4670   24.5480   10.0470 N   0  0  0  0  0  0
  -12.8790   24.6590   10.3880 C   0  0  2  0  0  0
  -13.0800   25.5560   11.6090 C   0  0  0  0  0  0
  -12.6310   25.2290   12.7090 O   0  0  0  0  0  0
  -13.4650   23.2790   10.6470 C   0  0  0  0  0  0
  -13.7350   26.6910   11.4110 N   0  0  0  0  0  0
  -13.9920   27.6220   12.4930 C   0  0  2  0  0  0
  -15.4830   27.6720   12.7820 C   0  0  0  0  0  0
  -16.2240   28.2750   11.9810 O   0  0  0  0  0  0
  -13.4740   29.0190   12.1370 C   0  0  0  0  0  0
  -11.9570   29.1220   12.0870 C   0  0  0  0  0  0
  -11.3110   28.9430   13.4490 C   0  0  0  0  0  0
  -10.9770   27.8300   13.8570 O   0  0  0  0  0  0
  -11.1250   30.0420   14.1640 N   0  0  0  0  0  0
  -15.9100   27.1080   13.8080 O   0  0  0  0  0  0
   16.8513    8.8487   14.8359 H   0  0  0  0  0  0
   18.1094    7.5982   14.5530 H   0  0  0  0  0  0
   16.9211    7.9847   13.2626 H   0  0  0  0  0  0
   19.0009    9.8252   14.4139 H   0  0  0  0  0  0
   18.7787    8.5263   11.6295 H   0  0  0  0  0  0
   20.1255    9.5555   12.2240 H   0  0  0  0  0  0
   20.9322    6.8227   12.4143 H   0  0  0  0  0  0
   18.2126   11.8262   14.4779 H   0  0  0  0  0  0
   15.9921   12.5375   12.7429 H   0  0  0  0  0  0
   17.9668   14.2598   14.3429 H   0  0  0  0  0  0
   15.0440   13.4661   14.7108 H   0  0  0  0  0  0
   16.4497   13.0132   15.7332 H   0  0  0  0  0  0
   17.2126   15.5695   12.3801 H   0  0  0  0  0  0
   16.5499   16.2150   13.9198 H   0  0  0  0  0  0
   15.5040   15.2439   12.8291 H   0  0  0  0  0  0
   15.0840   14.7338   16.7952 H   0  0  0  0  0  0
   15.3151   15.8119   15.3771 H   0  0  0  0  0  0
   16.7209   15.3590   16.3995 H   0  0  0  0  0  0
   15.8714   13.2939   10.7330 H   0  0  0  0  0  0
   18.4694   13.6183    9.2988 H   0  0  0  0  0  0
   15.5457   13.4963    8.5574 H   0  0  0  0  0  0
   16.4525   12.0051    6.7736 H   0  0  0  0  0  0
   18.1205   12.3966    7.3130 H   0  0  0  0  0  0
   16.1689   15.6244    7.5348 H   0  0  0  0  0  0
   15.8410   14.3470    6.3152 H   0  0  0  0  0  0
   17.5335   14.8178    6.6898 H   0  0  0  0  0  0
   17.3820   10.2428    8.1694 H   0  0  0  0  0  0
   15.9740   11.0261    8.9637 H   0  0  0  0  0  0
   17.6421   11.4176    9.5031 H   0  0  0  0  0  0
   19.5284   15.3853    8.8414 H   0  0  0  0  0  0
   20.0473   17.6491    8.9394 H   0  0  0  0  0  0
   18.4009   17.3606    6.9216 H   0  0  0  0  0  0
   17.1680   18.1530    7.9602 H   0  0  0  0  0  0
   18.3214   19.8420    6.4876 H   0  0  0  0  0  0
   18.0212   19.8640    8.9964 H   0  0  0  0  0  0
   17.4222   19.7447   11.9922 H   0  0  0  0  0  0
   18.7579   21.6757   11.2638 H   0  0  0  0  0  0
   17.1342   22.2112   11.8145 H   0  0  0  0  0  0
   17.4996   22.1122   10.0585 H   0  0  0  0  0  0
   15.3226   20.4657   12.7364 H   0  0  0  0  0  0
   13.2853   19.0965   11.2661 H   0  0  0  0  0  0
   12.9190   19.5107   13.6132 H   0  0  0  0  0  0
   13.1520   21.2810   13.4172 H   0  0  0  0  0  0
   10.9998   21.6319   12.8504 H   0  0  0  0  0  0
   10.8801   20.1095   11.9045 H   0  0  0  0  0  0
   10.1989   17.4315   14.5987 H   0  0  0  0  0  0
   11.7714   17.8950   13.8645 H   0  0  0  0  0  0
   10.2939   17.8142   12.8462 H   0  0  0  0  0  0
   12.0061   22.1142    8.2653 H   0  0  0  0  0  0
   10.0855   20.5769    7.0456 H   0  0  0  0  0  0
   11.8222   20.1512    6.8751 H   0  0  0  0  0  0
    9.6978   18.9434    8.6350 H   0  0  0  0  0  0
   11.0494   18.1462    7.7609 H   0  0  0  0  0  0
   12.5184   18.4899    9.5271 H   0  0  0  0  0  0
   11.0605   18.8561   10.5104 H   0  0  0  0  0  0
    9.6688   22.6287    7.2498 H   0  0  0  0  0  0
    8.2697   23.3922    9.8280 H   0  0  0  0  0  0
    8.0556   24.8308    7.0956 H   0  0  0  0  0  0
   10.4410   24.8558    7.8814 H   0  0  0  0  0  0
    6.2472   25.3033    8.7743 H   0  0  0  0  0  0
    7.2950   26.7303    8.4705 H   0  0  0  0  0  0
    7.5102   25.7604    9.9671 H   0  0  0  0  0  0
    6.2126   22.8191   10.1928 H   0  0  0  0  0  0
    4.8475   21.0523    8.3484 H   0  0  0  0  0  0
    4.3615   21.4799   10.8254 H   0  0  0  0  0  0
    3.4773   22.9547   10.3061 H   0  0  0  0  0  0
    2.0510   21.4748    8.8557 H   0  0  0  0  0  0
    2.8420   20.0643    9.6377 H   0  0  0  0  0  0
    1.3574   22.2849   11.1090 H   0  0  0  0  0  0
    0.6767   20.6749   10.6955 H   0  0  0  0  0  0
    2.2278   19.5523   12.1281 H   0  0  0  0  0  0
    3.2089   21.0410   12.3473 H   0  0  0  0  0  0
    1.8411   20.5714   14.2982 H   0  0  0  0  0  0
    0.3608   20.6129   13.2815 H   0  0  0  0  0  0
    1.3418   22.1016   13.5007 H   0  0  0  0  0  0
    4.2910   21.4835    6.3538 H   0  0  0  0  0  0
    4.2922   24.2797    5.4776 H   0  0  0  0  0  0
    3.4128   23.1429    3.2611 H   0  0  0  0  0  0
    5.0052   22.6055    3.8955 H   0  0  0  0  0  0
    3.5484   20.6197    3.3268 H   0  0  0  0  0  0
    1.9998   22.6963    7.1779 H   0  0  0  0  0  0
   -0.2601   23.0418    7.4954 H   0  0  0  0  0  0
    0.0808   25.4836    5.6822 H   0  0  0  0  0  0
   -1.4209   25.1016    6.5907 H   0  0  0  0  0  0
    0.0404   26.6924    7.8994 H   0  0  0  0  0  0
   -1.6924   21.6431    6.7926 H   0  0  0  0  0  0
   -1.3521   20.6829    4.0460 H   0  0  0  0  0  0
   -2.0815   19.2674    5.9669 H   0  0  0  0  0  0
   -3.6335   20.1695    6.0321 H   0  0  0  0  0  0
   -4.4532   19.1691    4.1396 H   0  0  0  0  0  0
   -2.8210   18.8289    3.4712 H   0  0  0  0  0  0
   -3.7797   16.7391    4.1955 H   0  0  0  0  0  0
   -2.4859   17.1833    5.3596 H   0  0  0  0  0  0
   -4.1236   17.6017    7.0995 H   0  0  0  0  0  0
   -5.5387   16.8183    3.8302 H   0  0  0  0  0  0
   -7.2133   16.3362    4.6003 H   0  0  0  0  0  0
   -6.0466   16.9473    7.9978 H   0  0  0  0  0  0
   -1.7672   21.7774    2.3639 H   0  0  0  0  0  0
   -3.6600   23.9616    2.3150 H   0  0  0  0  0  0
   -2.6895   22.2558   -0.0708 H   0  0  0  0  0  0
   -3.3304   23.9309   -0.1699 H   0  0  0  0  0  0
   -1.0183   24.1649   -0.3725 H   0  0  0  0  0  0
   -1.3469   24.5754    1.3451 H   0  0  0  0  0  0
   -0.6653   22.3033    2.0246 H   0  0  0  0  0  0
   -0.3518   21.8790    0.3076 H   0  0  0  0  0  0
    1.0443   24.1581    1.7723 H   0  0  0  0  0  0
    1.6933   22.4873    1.6553 H   0  0  0  0  0  0
    2.6683   23.9485   -0.0163 H   0  0  0  0  0  0
    1.0328   24.3237   -0.6573 H   0  0  0  0  0  0
    1.6817   22.6528   -0.7743 H   0  0  0  0  0  0
   -3.9607   20.5222    1.6906 H   0  0  0  0  0  0
   -6.4890   20.6162    0.2888 H   0  0  0  0  0  0
   -5.0587   18.5872    0.5174 H   0  0  0  0  0  0
   -6.7397   18.2421    1.0483 H   0  0  0  0  0  0
   -5.4491   18.5082    2.2690 H   0  0  0  0  0  0
   -5.6894   20.7162    3.7884 H   0  0  0  0  0  0
   -8.6661   20.5378    4.2869 H   0  0  0  0  0  0
   -8.1367   20.0604    6.6040 H   0  0  0  0  0  0
   -6.9190   19.1675    5.6312 H   0  0  0  0  0  0
   -5.2397   20.8330    6.1141 H   0  0  0  0  0  0
   -6.4464   21.8610    6.9588 H   0  0  0  0  0  0
   -5.4975   19.0804    7.7843 H   0  0  0  0  0  0
   -5.1426   20.6397    8.6024 H   0  0  0  0  0  0
   -7.5110   20.9296    9.1514 H   0  0  0  0  0  0
   -7.9298   19.4348    8.2477 H   0  0  0  0  0  0
   -7.8694   19.0538   10.6352 H   0  0  0  0  0  0
   -6.1659   19.6204   10.6938 H   0  0  0  0  0  0
   -6.5846   18.1255    9.7900 H   0  0  0  0  0  0
   -9.8853   22.0542    5.3506 H   0  0  0  0  0  0
   -8.4432   24.7341    5.5442 H   0  0  0  0  0  0
  -11.3224   23.9720    4.9018 H   0  0  0  0  0  0
  -10.9500   25.6028    5.5562 H   0  0  0  0  0  0
  -11.0904   25.6657    3.1375 H   0  0  0  0  0  0
   -9.4024   25.9834    3.6633 H   0  0  0  0  0  0
   -8.8489   23.5975    3.1863 H   0  0  0  0  0  0
  -10.5168   23.3679    2.5602 H   0  0  0  0  0  0
  -10.1339   25.0307    0.8214 H   0  0  0  0  0  0
   -8.5039   25.3911    1.4847 H   0  0  0  0  0  0
   -8.3823   23.9456   -0.4611 H   0  0  0  0  0  0
   -9.4380   22.7426    0.3544 H   0  0  0  0  0  0
   -7.8080   23.1030    1.0177 H   0  0  0  0  0  0
   -9.0000   24.3855    9.9381 H   0  0  0  0  0  0
   -8.9972   27.4134    9.9230 H   0  0  0  0  0  0
   -7.8467   26.3021   10.7402 H   0  0  0  0  0  0
   -7.1178   27.7188    8.5683 H   0  0  0  0  0  0
   -6.5311   26.0431    8.8409 H   0  0  0  0  0  0
   -7.5067   25.7635    6.6818 H   0  0  0  0  0  0
   -8.7679   27.0056    6.9866 H   0  0  0  0  0  0
  -10.9832   23.5604   10.0222 H   0  0  0  0  0  0
  -13.3603   25.1164    9.5110 H   0  0  0  0  0  0
  -13.3137   22.6443    9.7614 H   0  0  0  0  0  0
  -14.5417   23.3706   10.8529 H   0  0  0  0  0  0
  -12.9633   22.8244   11.5140 H   0  0  0  0  0  0
  -14.0867   26.9191   10.3940 H   0  0  0  0  0  0
  -13.4484   27.2302   13.3654 H   0  0  0  0  0  0
  -17.3071   28.3267   12.1659 H   0  0  0  0  0  0
  -13.8520   29.3085   11.1454 H   0  0  0  0  0  0
  -13.8240   29.7423   12.8882 H   0  0  0  0  0  0
  -11.5584   28.3428   11.4207 H   0  0  0  0  0  0
  -11.6691   30.1129   11.7058 H   0  0  0  0  0  0
  -11.4374   31.0179   13.7639 H   0  0  0  0  0  0
  -10.6581   29.9790   15.1580 H   0  0  0  0  0  0
  1  2  1  0  0  0
  1142  1  0  0  0
  1143  1  0  0  0
  1144  1  0  0  0
  2  3  1  0  0  0
  2  5  1  0  0  0
  2145  1  0  0  0
  3  4  2  0  0  0
  3  7  1  0  0  0
  5  6  1  0  0  0
  5146  1  0  0  0
  5147  1  0  0  0
  6148  1  0  0  0
  7  8  1  0  0  0
  7149  1  0  0  0
  8  9  1  0  0  0
  8 11  1  0  0  0
  8150  1  0  0  0
  9 10  2  0  0  0
  9 15  1  0  0  0
 11 12  1  0  0  0
 11 13  1  0  0  0
 11151  1  0  0  0
 12 14  1  0  0  0
 12152  1  0  0  0
 12153  1  0  0  0
 13154  1  0  0  0
 13155  1  0  0  0
 13156  1  0  0  0
 14157  1  0  0  0
 14158  1  0  0  0
 14159  1  0  0  0
 15 16  1  0  0  0
 15160  1  0  0  0
 16 17  1  0  0  0
 16 19  1  0  0  0
 16161  1  0  0  0
 17 18  2  0  0  0
 17 23  1  0  0  0
 19 20  1  0  0  0
 19 21  1  0  0  0
 19162  1  0  0  0
 20 22  1  0  0  0
 20163  1  0  0  0
 20164  1  0  0  0
 21165  1  0  0  0
 21166  1  0  0  0
 21167  1  0  0  0
 22168  1  0  0  0
 22169  1  0  0  0
 22170  1  0  0  0
 23 24  1  0  0  0
 23171  1  0  0  0
 24 25  1  0  0  0
 24 27  1  0  0  0
 24172  1  0  0  0
 25 26  2  0  0  0
 25 29  1  0  0  0
 27 28  1  0  0  0
 27173  1  0  0  0
 27174  1  0  0  0
 28175  1  0  0  0
 29 30  1  0  0  0
 29176  1  0  0  0
 30 31  1  0  0  0
 30 33  1  0  0  0
 30177  1  0  0  0
 31 32  2  0  0  0
 31 34  1  0  0  0
 33178  1  0  0  0
 33179  1  0  0  0
 33180  1  0  0  0
 34 35  1  0  0  0
 34181  1  0  0  0
 35 36  1  0  0  0
 35 38  1  0  0  0
 35182  1  0  0  0
 36 37  2  0  0  0
 36 42  1  0  0  0
 38 39  1  0  0  0
 38183  1  0  0  0
 38184  1  0  0  0
 39 40  1  0  0  0
 39185  1  0  0  0
 39186  1  0  0  0
 40 41  1  0  0  0
 41187  1  0  0  0
 41188  1  0  0  0
 41189  1  0  0  0
 42 43  1  0  0  0
 42 48  1  0  0  0
 43 44  1  0  0  0
 43 46  1  0  0  0
 43190  1  0  0  0
 44 45  2  0  0  0
 44 49  1  0  0  0
 46 47  1  0  0  0
 46191  1  0  0  0
 46192  1  0  0  0
 47 48  1  0  0  0
 47193  1  0  0  0
 47194  1  0  0  0
 48195  1  0  0  0
 48196  1  0  0  0
 49 50  1  0  0  0
 49197  1  0  0  0
 50 51  1  0  0  0
 50 53  1  0  0  0
 50198  1  0  0  0
 51 52  2  0  0  0
 51 56  1  0  0  0
 53 54  1  0  0  0
 53 55  1  0  0  0
 53199  1  0  0  0
 54200  1  0  0  0
 55201  1  0  0  0
 55202  1  0  0  0
 55203  1  0  0  0
 56 57  1  0  0  0
 56204  1  0  0  0
 57 58  1  0  0  0
 57 60  1  0  0  0
 57205  1  0  0  0
 58 59  2  0  0  0
 58 65  1  0  0  0
 60 61  1  0  0  0
 60206  1  0  0  0
 60207  1  0  0  0
 61 62  1  0  0  0
 61208  1  0  0  0
 61209  1  0  0  0
 62 63  1  0  0  0
 62210  1  0  0  0
 62211  1  0  0  0
 63 64  1  0  0  0
 63212  1  0  0  0
 63213  1  0  0  0
 64214  1  0  0  0
 64215  1  0  0  0
 64216  1  0  0  0
 65 66  1  0  0  0
 65217  1  0  0  0
 66 67  1  0  0  0
 66 69  1  0  0  0
 66218  1  0  0  0
 67 68  2  0  0  0
 67 71  1  0  0  0
 69 70  1  0  0  0
 69219  1  0  0  0
 69220  1  0  0  0
 70221  1  0  0  0
 71 72  1  0  0  0
 71222  1  0  0  0
 72 73  1  0  0  0
 72 75  1  0  0  0
 72223  1  0  0  0
 73 74  2  0  0  0
 73 77  1  0  0  0
 75 76  1  0  0  0
 75224  1  0  0  0
 75225  1  0  0  0
 76226  1  0  0  0
 77 78  1  0  0  0
 77227  1  0  0  0
 78 79  1  0  0  0
 78 81  1  0  0  0
 78228  1  0  0  0
 79 80  2  0  0  0
 79 88  1  0  0  0
 81 82  1  0  0  0
 81229  1  0  0  0
 81230  1  0  0  0
 82 83  1  0  0  0
 82231  1  0  0  0
 82232  1  0  0  0
 83 84  1  0  0  0
 83233  1  0  0  0
 83234  1  0  0  0
 84 85  1  0  0  0
 84235  1  0  0  0
 85 86  1  0  0  0
 85 87  2  0  0  0
 86236  1  0  0  0
 86237  1  0  0  0
 87238  1  0  0  0
 88 89  1  0  0  0
 88239  1  0  0  0
 89 90  1  0  0  0
 89 92  1  0  0  0
 89240  1  0  0  0
 90 91  2  0  0  0
 90 97  1  0  0  0
 92 93  1  0  0  0
 92241  1  0  0  0
 92242  1  0  0  0
 93 94  1  0  0  0
 93243  1  0  0  0
 93244  1  0  0  0
 94 95  1  0  0  0
 94245  1  0  0  0
 94246  1  0  0  0
 95 96  1  0  0  0
 95247  1  0  0  0
 95248  1  0  0  0
 96249  1  0  0  0
 96250  1  0  0  0
 96251  1  0  0  0
 97 98  1  0  0  0
 97252  1  0  0  0
 98 99  1  0  0  0
 98101  1  0  0  0
 98253  1  0  0  0
 99100  2  0  0  0
 99102  1  0  0  0
101254  1  0  0  0
101255  1  0  0  0
101256  1  0  0  0
102103  1  0  0  0
102257  1  0  0  0
103104  1  0  0  0
103106  1  0  0  0
103258  1  0  0  0
104105  2  0  0  0
104111  1  0  0  0
106107  1  0  0  0
106259  1  0  0  0
106260  1  0  0  0
107108  1  0  0  0
107261  1  0  0  0
107262  1  0  0  0
108109  1  0  0  0
108263  1  0  0  0
108264  1  0  0  0
109110  1  0  0  0
109265  1  0  0  0
109266  1  0  0  0
110267  1  0  0  0
110268  1  0  0  0
110269  1  0  0  0
111112  1  0  0  0
111270  1  0  0  0
112113  1  0  0  0
112115  1  0  0  0
112271  1  0  0  0
113114  2  0  0  0
113120  1  0  0  0
115116  1  0  0  0
115272  1  0  0  0
115273  1  0  0  0
116117  1  0  0  0
116274  1  0  0  0
116275  1  0  0  0
117118  1  0  0  0
117276  1  0  0  0
117277  1  0  0  0
118119  1  0  0  0
118278  1  0  0  0
118279  1  0  0  0
119280  1  0  0  0
119281  1  0  0  0
119282  1  0  0  0
120121  1  0  0  0
120126  1  0  0  0
121122  1  0  0  0
121124  1  0  0  0
121283  1  0  0  0
122123  2  0  0  0
122127  1  0  0  0
124125  1  0  0  0
124284  1  0  0  0
124285  1  0  0  0
125126  1  0  0  0
125286  1  0  0  0
125287  1  0  0  0
126288  1  0  0  0
126289  1  0  0  0
127128  1  0  0  0
127290  1  0  0  0
128129  1  0  0  0
128131  1  0  0  0
128291  1  0  0  0
129130  2  0  0  0
129132  1  0  0  0
131292  1  0  0  0
131293  1  0  0  0
131294  1  0  0  0
132133  1  0  0  0
132295  1  0  0  0
133134  1  0  0  0
133136  1  0  0  0
133296  1  0  0  0
134135  1  0  0  0
134141  2  0  0  0
135297  1  0  0  0
136137  1  0  0  0
136298  1  0  0  0
136299  1  0  0  0
137138  1  0  0  0
137300  1  0  0  0
137301  1  0  0  0
138139  2  0  0  0
138140  1  0  0  0
140302  1  0  0  0
140303  1  0  0  0
M  CHG  5   1   1  64   1  96   1 110   1 119   1
M  END
> <s_m_source_file>
../2rqu_ligand.sdf

> <i_m_source_file_index>
1

> <s_epik_input>
W1NIXVtDSDJdW0NASF0oW05IMytdKUMoPU8pW05IXVtDQEBIXShbQ0BASF0oW0NIM10pW0NIMl1bQ0gzXSlDKD1PKVtOSF1bQ0BASF0oW0NAQEhdKFtDSDNdKVtDSDJdW0NIM10pQyg9TylbTkhdW0NAQEhdKFtDSDJdW09IXSlDKD1PKVtOSF1bQ0BASF0oW0NIM10pQyg9TylbTkhdW0NAQEhdKFtDSDJdW0NIMl1TW0NIM10pQyg9TylOMVtDQEBIXShbQ0gyXVtDSDJdW0NIMl0xKUMoPU8pW05IXVtDQEBIXShbQ0BIXShbT0hdKVtDSDNdKUMoPU8pW05IXVtDQEBIXShbQ0gyXVtDSDJdW0NIMl1bQ0gyXVtOSDMrXSlDKD1PKVtOSF1bQ0BASF0oW0NIMl1bT0hdKUMoPU8pW05IXVtDQEBIXShbQ0gyXVtPSF0pQyg9TylbTkhdW0NAQEhdKFtDSDJdW0NIMl1bQ0gyXVtOSF0vQyhbTkgyXSk9TlxbSF0pQyg9TylbTkhdW0NAQEhdKFtDSDJdW0NIMl1bQ0gyXVtDSDJdW05IMytdKUMoPU8pW05IXVtDQEBIXShbQ0gzXSlDKD1PKVtOSF1bQ0BASF0oW0NIMl1bQ0gyXVtDSDJdW0NIMl1bTkgzK10pQyg9TylbTkhdW0NAQEhdKFtDSDJdW0NIMl1bQ0gyXVtDSDJdW05IMytdKUMoPU8pTjJbQ0BASF0oW0NIMl1bQ0gyXVtDSDJdMilDKD1PKVtOSF1bQ0BASF0oW0NIM10pQyg9TylbTkhdW0NASF0oQyg9TylbT0hdKVtDSDJdW0NIMl1DKD1PKVtOSDJd

> <s_epik_cmdline>
J2VwaWtfYXBwJywgJy1pbWFlJywgJ2xpZ2FuZF9wcm8ubWFlJywgJy1vbWFlJywgJ2xpZ2FuZF9wcmVwLm1hZScsICctbXMnLCAnMScsICctcGgnLCAnNycsICctcGh0JywgJzAuNScsICctbnQn

> <s_epik_pKa_notes>
Molecule size exceeds maximum supported for generating protonation states

> <s_epik_Chemistry_Notes>
This compound has an imine and may undergo hydrolysis.

$$$$
