2rr4_ligand
                    3D
 Schrodinger Suite 2020-3.
179178  0  0  1  0            999 V2000
  -12.2980    5.0340    1.1990 N   0  3  0  0  0  0
  -10.9640    4.3900    1.2840 C   0  0  2  0  0  0
   -9.9510    5.1830    0.4520 C   0  0  0  0  0  0
  -10.0570    5.2030   -0.7770 O   0  0  0  0  0  0
  -11.0170    2.9160    0.8250 C   0  0  0  0  0  0
   -8.9790    5.8570    1.0890 N   0  0  0  0  0  0
   -7.9120    6.5620    0.3570 C   0  0  2  0  0  0
   -6.9170    5.5820   -0.2720 C   0  0  0  0  0  0
   -6.6730    4.4900    0.2510 O   0  0  0  0  0  0
   -7.1580    7.5740    1.2350 C   0  0  0  0  0  0
   -7.9960    8.8250    1.5260 C   0  0  0  0  0  0
   -7.1710    9.8810    2.2720 C   0  0  0  0  0  0
   -7.9740   11.0810    2.5730 N   0  0  0  0  0  0
   -8.1720   12.1330    1.7830 C   0  0  0  0  0  0
   -7.6490   12.2150    0.5760 N   0  0  0  0  0  0
   -8.9130   13.1330    2.2060 N   0  0  0  0  0  0
   -6.3210    6.0230   -1.3790 N   0  0  0  0  0  0
   -5.3160    5.3130   -2.1790 C   0  0  2  0  0  0
   -4.2040    6.2730   -2.5740 C   0  0  0  0  0  0
   -4.4330    7.4660   -2.7850 O   0  0  0  0  0  0
   -5.9330    4.6740   -3.4320 C   0  0  2  0  0  0
   -6.8010    5.5700   -4.0930 O   0  0  0  0  0  0
   -6.6980    3.3950   -3.0990 C   0  0  0  0  0  0
   -2.9930    5.7290   -2.6730 N   0  0  0  0  0  0
   -1.7840    6.4140   -3.1570 C   0  0  1  0  0  0
   -1.0980    7.1880   -2.0020 C   0  0  0  0  0  0
   -0.3140    6.2740   -1.0470 C   0  0  0  0  0  0
    0.4220    7.0120    0.0760 C   0  0  0  0  0  0
    1.4280    6.0200    0.7060 C   0  0  0  0  0  0
    2.0900    6.4730    1.9410 N   0  3  0  0  0  0
   -0.8260    5.4380   -3.8540 C   0  0  0  0  0  0
   -1.0230    4.2220   -3.8390 O   0  0  0  0  0  0
    3.0140    5.4210    2.3510 C   0  0  0  0  0  0
    1.1380    6.6650    3.0330 C   0  0  0  0  0  0
    2.8560    7.7020    1.7340 C   0  0  0  0  0  0
    0.2580    5.9920   -4.3830 N   0  0  0  0  0  0
    1.4070    5.2560   -4.9030 C   0  0  2  0  0  0
    2.7010    5.9120   -4.4080 C   0  0  0  0  0  0
    2.7490    7.1310   -4.2110 O   0  0  0  0  0  0
    1.3660    5.2220   -6.4390 C   0  0  0  0  0  0
    0.1640    4.4320   -6.9820 C   0  0  0  0  0  0
    0.4160    3.9260   -8.4010 C   0  0  0  0  0  0
   -0.0880    4.4500   -9.3870 O   0  0  0  0  0  0
    1.2150    2.8890   -8.5480 N   0  0  0  0  0  0
    3.7530    5.1020   -4.2300 N   0  0  0  0  0  0
    5.1110    5.5550   -3.8900 C   0  0  2  0  0  0
    6.1290    4.8710   -4.8040 C   0  0  0  0  0  0
    5.8130    3.8900   -5.4820 O   0  0  0  0  0  0
    5.4610    5.3450   -2.4070 C   0  0  2  0  0  0
    5.5190    3.9700   -2.1020 O   0  0  0  0  0  0
    4.4750    6.0210   -1.4560 C   0  0  0  0  0  0
    7.3580    5.3870   -4.8330 N   0  0  0  0  0  0
    8.4940    4.7330   -5.4860 C   0  0  2  0  0  0
    9.1870    3.7620   -4.5120 C   0  0  0  0  0  0
    9.3250    4.0690   -3.3230 O   0  0  0  0  0  0
    9.4490    5.8200   -5.9990 C   0  0  0  0  0  0
    9.6560    2.6090   -5.0120 N   0  0  0  0  0  0
   10.4260    1.6340   -4.2220 C   0  0  2  0  0  0
   11.8600    2.1490   -3.9950 C   0  0  0  0  0  0
   12.7740    1.8530   -4.7680 O   0  0  0  0  0  0
   10.3960    0.2420   -4.8840 C   0  0  0  0  0  0
    8.9850   -0.3710   -4.9440 C   0  0  0  0  0  0
    9.0220   -1.8430   -5.3850 C   0  0  0  0  0  0
    9.5870   -2.7040   -4.3280 N   0  0  0  0  0  0
   10.0670   -3.9360   -4.4600 C   0  0  0  0  0  0
   10.1170   -4.5660   -5.6150 N   0  0  0  0  0  0
   10.5210   -4.5710   -3.4010 N   0  0  0  0  0  0
   12.0420    2.9580   -2.9470 N   0  0  0  0  0  0
   13.2500    3.7490   -2.6410 C   0  0  2  0  0  0
   13.5270    3.8320   -1.1190 C   0  0  0  0  0  0
   12.6530    3.5280   -0.3000 O   0  0  0  0  0  0
   13.0750    5.1740   -3.2260 C   0  0  0  0  0  0
   12.9750    5.2800   -4.7610 C   0  0  0  0  0  0
   14.2530    4.8950   -5.5300 C   0  0  0  0  0  0
   15.4650    5.8020   -5.2510 C   0  0  0  0  0  0
   15.2750    7.1870   -5.7640 N   0  3  0  0  0  0
   14.7350    4.2880   -0.7540 N   0  0  0  0  0  0
   15.2060    4.5440    0.6270 C   0  0  2  0  0  0
   15.8570    5.9270    0.7490 C   0  0  0  0  0  0
   15.4870    6.6800    1.6770 O   0  0  0  0  0  0
   16.2120    3.4790    1.0750 C   0  0  0  0  0  0
   15.6050    2.1970    1.0760 O   0  0  0  0  0  0
   16.7240    6.2580   -0.0930 O   0  0  0  0  0  0
  -12.2223    6.0795    1.5326 H   0  0  0  0  0  0
  -13.0075    4.4940    1.8432 H   0  0  0  0  0  0
  -12.6530    5.0059    0.1582 H   0  0  0  0  0  0
  -10.6756    4.4185    2.3451 H   0  0  0  0  0  0
  -11.7496    2.3679    1.4357 H   0  0  0  0  0  0
  -10.0239    2.4586    0.9454 H   0  0  0  0  0  0
  -11.3152    2.8719   -0.2329 H   0  0  0  0  0  0
   -8.9947    5.8731    2.1888 H   0  0  0  0  0  0
   -8.4591    7.1019   -0.4299 H   0  0  0  0  0  0
   -6.8993    7.1048    2.1957 H   0  0  0  0  0  0
   -6.2379    7.8906    0.7220 H   0  0  0  0  0  0
   -8.3485    9.2587    0.5786 H   0  0  0  0  0  0
   -8.8609    8.5505    2.1478 H   0  0  0  0  0  0
   -6.8068    9.4590    3.2203 H   0  0  0  0  0  0
   -6.3140   10.1823    1.6517 H   0  0  0  0  0  0
   -8.4879   11.1702    3.5415 H   0  0  0  0  0  0
   -7.0239   11.3960    0.1907 H   0  0  0  0  0  0
   -7.8377   13.1024   -0.0460 H   0  0  0  0  0  0
   -9.3648   13.0972    3.2083 H   0  0  0  0  0  0
   -6.6535    7.0277   -1.6792 H   0  0  0  0  0  0
   -4.9234    4.5194   -1.5263 H   0  0  0  0  0  0
   -5.1334    4.4725   -4.1600 H   0  0  0  0  0  0
   -6.4327    6.5547   -4.4166 H   0  0  0  0  0  0
   -6.0283    2.6909   -2.5834 H   0  0  0  0  0  0
   -7.0673    2.9362   -4.0281 H   0  0  0  0  0  0
   -7.5494    3.6366   -2.4457 H   0  0  0  0  0  0
   -2.9393    4.6773   -2.3551 H   0  0  0  0  0  0
   -2.1345    7.1288   -3.9161 H   0  0  0  0  0  0
   -0.3903    7.9190   -2.4201 H   0  0  0  0  0  0
   -1.8608    7.7139   -1.4091 H   0  0  0  0  0  0
   -1.0057    5.5669   -0.5658 H   0  0  0  0  0  0
    0.4451    5.7156   -1.6144 H   0  0  0  0  0  0
    0.9510    7.8813   -0.3417 H   0  0  0  0  0  0
   -0.3043    7.3518    0.8290 H   0  0  0  0  0  0
    0.9090    5.0845    0.9619 H   0  0  0  0  0  0
    2.2330    5.8078   -0.0131 H   0  0  0  0  0  0
    2.4571    4.4862    2.5122 H   0  0  0  0  0  0
    3.5139    5.7158    3.2854 H   0  0  0  0  0  0
    3.7676    5.2679    1.5644 H   0  0  0  0  0  0
    0.5639    5.7393    3.1859 H   0  0  0  0  0  0
    0.4503    7.4854    2.7799 H   0  0  0  0  0  0
    1.6833    6.9149    3.9551 H   0  0  0  0  0  0
    3.5714    7.5540    0.9116 H   0  0  0  0  0  0
    3.4028    7.9528    2.6550 H   0  0  0  0  0  0
    2.1698    8.5233    1.4798 H   0  0  0  0  0  0
    0.2498    7.0916   -4.4130 H   0  0  0  0  0  0
    1.3285    4.2316   -4.5100 H   0  0  0  0  0  0
    1.2976    6.2491   -6.8268 H   0  0  0  0  0  0
    2.2819    4.7466   -6.8198 H   0  0  0  0  0  0
   -0.0276    3.5643   -6.3336 H   0  0  0  0  0  0
   -0.7241    5.0808   -6.9981 H   0  0  0  0  0  0
    1.6696    2.4155   -7.6653 H   0  0  0  0  0  0
    1.4275    2.4966   -9.5534 H   0  0  0  0  0  0
    3.5465    4.0289   -4.3556 H   0  0  0  0  0  0
    5.1029    6.6394   -4.0744 H   0  0  0  0  0  0
    6.4745    5.7328   -2.2270 H   0  0  0  0  0  0
    6.1781    3.3057   -2.6802 H   0  0  0  0  0  0
    4.4221    7.0955   -1.6856 H   0  0  0  0  0  0
    4.8138    5.8840   -0.4185 H   0  0  0  0  0  0
    3.4792    5.5703   -1.5791 H   0  0  0  0  0  0
    7.4953    6.3563   -4.3315 H   0  0  0  0  0  0
    8.1050    4.1480   -6.3324 H   0  0  0  0  0  0
    8.9098    6.4862   -6.6885 H   0  0  0  0  0  0
   10.2908    5.3488   -6.5276 H   0  0  0  0  0  0
    9.8307    6.4038   -5.1485 H   0  0  0  0  0  0
    9.4379    2.4089   -6.0714 H   0  0  0  0  0  0
    9.9217    1.5560   -3.2475 H   0  0  0  0  0  0
   10.7689    0.3187   -5.9160 H   0  0  0  0  0  0
   11.0343   -0.4490   -4.3139 H   0  0  0  0  0  0
    8.5204   -0.3199   -3.9482 H   0  0  0  0  0  0
    8.3716    0.1905   -5.6641 H   0  0  0  0  0  0
    8.0003   -2.1851   -5.6068 H   0  0  0  0  0  0
    9.6450   -1.9402   -6.2864 H   0  0  0  0  0  0
    9.6435   -2.3380   -3.2922 H   0  0  0  0  0  0
    9.7483   -4.0732   -6.5267 H   0  0  0  0  0  0
   10.5274   -5.5852   -5.6683 H   0  0  0  0  0  0
   10.4987   -4.0829   -2.4155 H   0  0  0  0  0  0
   11.1714    3.0017   -2.2761 H   0  0  0  0  0  0
   14.0825    3.2093   -3.1160 H   0  0  0  0  0  0
   12.1497    5.6206   -2.8330 H   0  0  0  0  0  0
   13.9343    5.7971   -2.9371 H   0  0  0  0  0  0
   12.1788    4.6132   -5.1235 H   0  0  0  0  0  0
   12.7409    6.3173   -5.0425 H   0  0  0  0  0  0
   14.5506    3.8716   -5.2576 H   0  0  0  0  0  0
   14.0591    4.9448   -6.6116 H   0  0  0  0  0  0
   15.6341    5.8644   -4.1659 H   0  0  0  0  0  0
   16.3574    5.3815   -5.7376 H   0  0  0  0  0  0
   16.1683    7.7876   -5.5375 H   0  0  0  0  0  0
   14.3966    7.6397   -5.2808 H   0  0  0  0  0  0
   15.1198    7.1567   -6.8526 H   0  0  0  0  0  0
   15.4044    4.4741   -1.6068 H   0  0  0  0  0  0
   14.2988    4.4966    1.2473 H   0  0  0  0  0  0
   17.0683    3.4700    0.3846 H   0  0  0  0  0  0
   16.5630    3.7106    2.0915 H   0  0  0  0  0  0
   16.1879    1.3127    1.3732 H   0  0  0  0  0  0
   17.2059    7.2446   -0.0274 H   0  0  0  0  0  0
  1  2  1  0  0  0
  1 84  1  0  0  0
  1 85  1  0  0  0
  1 86  1  0  0  0
  2  3  1  0  0  0
  2  5  1  0  0  0
  2 87  1  0  0  0
  3  4  2  0  0  0
  3  6  1  0  0  0
  5 88  1  0  0  0
  5 89  1  0  0  0
  5 90  1  0  0  0
  6  7  1  0  0  0
  6 91  1  0  0  0
  7  8  1  0  0  0
  7 10  1  0  0  0
  7 92  1  0  0  0
  8  9  2  0  0  0
  8 17  1  0  0  0
 10 11  1  0  0  0
 10 93  1  0  0  0
 10 94  1  0  0  0
 11 12  1  0  0  0
 11 95  1  0  0  0
 11 96  1  0  0  0
 12 13  1  0  0  0
 12 97  1  0  0  0
 12 98  1  0  0  0
 13 14  1  0  0  0
 13 99  1  0  0  0
 14 15  1  0  0  0
 14 16  2  0  0  0
 15100  1  0  0  0
 15101  1  0  0  0
 16102  1  0  0  0
 17 18  1  0  0  0
 17103  1  0  0  0
 18 19  1  0  0  0
 18 21  1  0  0  0
 18104  1  0  0  0
 19 20  2  0  0  0
 19 24  1  0  0  0
 21 22  1  0  0  0
 21 23  1  0  0  0
 21105  1  0  0  0
 22106  1  0  0  0
 23107  1  0  0  0
 23108  1  0  0  0
 23109  1  0  0  0
 24 25  1  0  0  0
 24110  1  0  0  0
 25 26  1  0  0  0
 25 31  1  0  0  0
 25111  1  0  0  0
 26 27  1  0  0  0
 26112  1  0  0  0
 26113  1  0  0  0
 27 28  1  0  0  0
 27114  1  0  0  0
 27115  1  0  0  0
 28 29  1  0  0  0
 28116  1  0  0  0
 28117  1  0  0  0
 29 30  1  0  0  0
 29118  1  0  0  0
 29119  1  0  0  0
 30 33  1  0  0  0
 30 34  1  0  0  0
 30 35  1  0  0  0
 31 32  2  0  0  0
 31 36  1  0  0  0
 33120  1  0  0  0
 33121  1  0  0  0
 33122  1  0  0  0
 34123  1  0  0  0
 34124  1  0  0  0
 34125  1  0  0  0
 35126  1  0  0  0
 35127  1  0  0  0
 35128  1  0  0  0
 36 37  1  0  0  0
 36129  1  0  0  0
 37 38  1  0  0  0
 37 40  1  0  0  0
 37130  1  0  0  0
 38 39  2  0  0  0
 38 45  1  0  0  0
 40 41  1  0  0  0
 40131  1  0  0  0
 40132  1  0  0  0
 41 42  1  0  0  0
 41133  1  0  0  0
 41134  1  0  0  0
 42 43  2  0  0  0
 42 44  1  0  0  0
 44135  1  0  0  0
 44136  1  0  0  0
 45 46  1  0  0  0
 45137  1  0  0  0
 46 47  1  0  0  0
 46 49  1  0  0  0
 46138  1  0  0  0
 47 48  2  0  0  0
 47 52  1  0  0  0
 49 50  1  0  0  0
 49 51  1  0  0  0
 49139  1  0  0  0
 50140  1  0  0  0
 51141  1  0  0  0
 51142  1  0  0  0
 51143  1  0  0  0
 52 53  1  0  0  0
 52144  1  0  0  0
 53 54  1  0  0  0
 53 56  1  0  0  0
 53145  1  0  0  0
 54 55  2  0  0  0
 54 57  1  0  0  0
 56146  1  0  0  0
 56147  1  0  0  0
 56148  1  0  0  0
 57 58  1  0  0  0
 57149  1  0  0  0
 58 59  1  0  0  0
 58 61  1  0  0  0
 58150  1  0  0  0
 59 60  2  0  0  0
 59 68  1  0  0  0
 61 62  1  0  0  0
 61151  1  0  0  0
 61152  1  0  0  0
 62 63  1  0  0  0
 62153  1  0  0  0
 62154  1  0  0  0
 63 64  1  0  0  0
 63155  1  0  0  0
 63156  1  0  0  0
 64 65  1  0  0  0
 64157  1  0  0  0
 65 66  1  0  0  0
 65 67  2  0  0  0
 66158  1  0  0  0
 66159  1  0  0  0
 67160  1  0  0  0
 68 69  1  0  0  0
 68161  1  0  0  0
 69 70  1  0  0  0
 69 72  1  0  0  0
 69162  1  0  0  0
 70 71  2  0  0  0
 70 77  1  0  0  0
 72 73  1  0  0  0
 72163  1  0  0  0
 72164  1  0  0  0
 73 74  1  0  0  0
 73165  1  0  0  0
 73166  1  0  0  0
 74 75  1  0  0  0
 74167  1  0  0  0
 74168  1  0  0  0
 75 76  1  0  0  0
 75169  1  0  0  0
 75170  1  0  0  0
 76171  1  0  0  0
 76172  1  0  0  0
 76173  1  0  0  0
 77 78  1  0  0  0
 77174  1  0  0  0
 78 79  1  0  0  0
 78 81  1  0  0  0
 78175  1  0  0  0
 79 80  2  0  0  0
 79 83  1  0  0  0
 81 82  1  0  0  0
 81176  1  0  0  0
 81177  1  0  0  0
 82178  1  0  0  0
 83179  1  0  0  0
M  CHG  3   1   1  30   1  76   1
M  END
> <s_m_source_file>
../2rr4_ligand.sdf

> <i_m_source_file_index>
1

> <s_epik_input>
W0hdL049QyhbTkgyXSlcW05IXVtDSDJdW0NIMl1bQ0gyXVtDQEhdKFtOSF1DKD1PKVtDQEBIXShbTkgzK10pW0NIM10pQyg9TylbTkhdW0NAQEhdKFtDQEhdKFtPSF0pW0NIM10pQyg9TylbTkhdW0NAQEhdKFtDSDJdW0NIMl1bQ0gyXVtDSDJdW04rXShbQ0gzXSkoW0NIM10pW0NIM10pQyg9TylbTkhdW0NAQEhdKFtDSDJdW0NIMl1DKD1PKVtOSDJdKUMoPU8pW05IXVtDQEBIXShbQ0BIXShbT0hdKVtDSDNdKUMoPU8pW05IXVtDQEBIXShbQ0gzXSlDKD1PKVtOSF1bQ0BASF0oW0NIMl1bQ0gyXVtDSDJdW05IXS9DKFtOSDJdKT1OXFtIXSlDKD1PKVtOSF1bQ0BIXShDKD1PKVtOSF1bQ0BIXShDKD1PKVtPSF0pW0NIMl1bT0hdKVtDSDJdW0NIMl1bQ0gyXVtDSDJdW05IMytd

> <s_epik_cmdline>
J2VwaWtfYXBwJywgJy1pbWFlJywgJ2xpZ2FuZF9wcm8ubWFlJywgJy1vbWFlJywgJ2xpZ2FuZF9wcmVwLm1hZScsICctbXMnLCAnMScsICctcGgnLCAnNycsICctcGh0JywgJzAuNScsICctbnQn

> <s_epik_pKa_notes>
Molecule size exceeds maximum supported for generating protonation states

> <s_epik_Chemistry_Notes>
This compound has an imine and may undergo hydrolysis.

$$$$
