2rt5_ligand
                    3D
 Schrodinger Suite 2020-3.
129129  0  0  1  0            999 V2000
  288.0800    7.5010   -9.4610 N   0  3  0  0  0  0
  287.6200    6.3700   -8.6250 C   0  0  2  0  0  0
  288.2190    5.0470   -9.0980 C   0  0  0  0  0  0
  287.5910    4.0050   -8.9440 O   0  0  0  0  0  0
  286.0880    6.2620   -8.6520 C   0  0  0  0  0  0
  285.3670    7.3260   -7.8510 C   0  0  0  0  0  0
  285.1820    7.1880   -6.4800 C   0  0  0  0  0  0
  284.8620    8.4640   -8.4660 C   0  0  0  0  0  0
  284.5160    8.1490   -5.7480 C   0  0  0  0  0  0
  284.1950    9.4340   -7.7390 C   0  0  0  0  0  0
  284.0240    9.2720   -6.3800 C   0  0  0  0  0  0
  283.3500   10.2330   -5.6560 O   0  0  0  0  0  0
  289.4330    5.0790   -9.6550 N   0  0  0  0  0  0
  290.1110    3.8510  -10.0910 C   0  0  2  0  0  0
  289.2290    3.0330  -11.0310 C   0  0  0  0  0  0
  288.3300    3.5550  -11.6950 O   0  0  0  0  0  0
  290.4650    2.9770   -8.8750 C   0  0  0  0  0  0
  291.5600    3.5420   -7.9940 C   0  0  0  0  0  0
  291.7930    2.7630   -6.7170 C   0  0  0  0  0  0
  292.5030    1.7330   -6.7520 O   0  5  0  0  0  0
  291.2900    3.1960   -5.6620 O   0  0  0  0  0  0
  289.5340    1.7500  -11.0960 N   0  0  0  0  0  0
  288.6630    0.7640  -11.6970 C   0  0  2  0  0  0
  288.8040   -0.5220  -10.9020 C   0  0  0  0  0  0
  289.8860   -1.1080  -10.8750 O   0  0  0  0  0  0
  289.0220    0.4960  -13.1720 C   0  0  2  0  0  0
  289.0560    1.7290  -13.9010 O   0  0  0  0  0  0
  288.0150   -0.4480  -13.8140 C   0  0  0  0  0  0
  287.7420   -0.9440  -10.2230 N   0  0  0  0  0  0
  287.8240   -2.1280   -9.3880 C   0  0  2  0  0  0
  287.8260   -3.3680  -10.2660 C   0  0  0  0  0  0
  288.6030   -3.4560  -11.2180 O   0  0  0  0  0  0
  286.7010   -2.1900   -8.3300 C   0  0  0  0  0  0
  287.0030   -3.0910   -7.1090 C   0  0  0  0  0  0
  286.8160   -2.3300   -5.8030 C   0  0  0  0  0  0
  286.1340   -4.3440   -7.1020 C   0  0  0  0  0  0
  286.9480   -4.3100   -9.9900 N   0  0  0  0  0  0
  287.1430   -5.6500  -10.4960 C   0  0  1  0  0  0
  288.3110   -6.2990   -9.7270 C   0  0  0  0  0  0
  289.4770   -5.4780   -9.9050 O   0  0  0  0  0  0
  285.8650   -6.4550  -10.3440 C   0  0  0  0  0  0
  285.5960   -7.0050   -9.2780 O   0  0  0  0  0  0
  290.7310   -6.1040   -9.1140 P   0  0  0  0  0  0
  291.0230   -7.4570   -9.6380 O   0  0  0  0  0  0
  292.0140   -5.1470   -9.3310 O   0  5  0  0  0  0
  290.3850   -6.2070   -7.5490 O   0  0  0  0  0  0
  285.0530   -6.4790  -11.3870 N   0  0  0  0  0  0
  283.7270   -7.0630  -11.2890 C   0  0  2  0  0  0
  283.5100   -8.1570  -12.3370 C   0  0  0  0  0  0
  284.0930   -9.2370  -12.2340 O   0  0  0  0  0  0
  282.6430   -5.9680  -11.3690 C   0  0  0  0  0  0
  282.7230   -5.1160  -12.6270 C   0  0  0  0  0  0
  283.5820   -4.2130  -12.6970 O   0  0  0  0  0  0
  281.9220   -5.3610  -13.5560 O   0  5  0  0  0  0
  282.6930   -7.8820  -13.3420 N   0  0  0  0  0  0
  282.3280   -8.8860  -14.3270 C   0  0  1  0  0  0
  281.0130   -9.5570  -13.9200 C   0  0  0  0  0  0
  281.1510  -10.1410  -12.6220 O   0  0  0  0  0  0
  282.1780   -8.2630  -15.7140 C   0  0  0  0  0  0
  282.3130   -8.9590  -16.7190 O   0  0  0  0  0  0
  279.7410  -10.8270  -12.2460 P   0  0  0  0  0  0
  279.4020  -11.8570  -13.2540 O   0  0  0  0  0  0
  279.8420  -11.5030  -10.7890 O   0  5  0  0  0  0
  278.5890   -9.7040  -12.2250 O   0  0  0  0  0  0
  281.9280   -6.9500  -15.7580 N   0  0  0  0  0  0
  281.6490   -6.2490  -17.0140 C   0  0  2  0  0  0
  280.5090   -6.9290  -17.7700 C   0  0  0  0  0  0
  280.7580   -7.4930  -18.8570 O   0  0  0  0  0  0
  282.9040   -6.1790  -17.8960 C   0  0  0  0  0  0
  283.9370   -5.1690  -17.4210 C   0  0  0  0  0  0
  283.5040   -3.7330  -17.6510 C   0  0  0  0  0  0
  282.7820   -3.1760  -16.8020 O   0  0  0  0  0  0
  283.8970   -3.1430  -18.6810 O   0  5  0  0  0  0
  279.3690   -6.9190  -17.2570 O   0  5  0  0  0  0
  289.1779    7.5593   -9.4270 H   0  0  0  0  0  0
  287.6510    8.4385   -9.0777 H   0  0  0  0  0  0
  287.7530    7.3459  -10.4998 H   0  0  0  0  0  0
  287.9792    6.5978   -7.6105 H   0  0  0  0  0  0
  285.7326    6.3482   -9.6894 H   0  0  0  0  0  0
  285.7816    5.2896   -8.2391 H   0  0  0  0  0  0
  285.5704    6.3041   -5.9741 H   0  0  0  0  0  0
  284.9933    8.5954   -9.5401 H   0  0  0  0  0  0
  284.3791    8.0214   -4.6742 H   0  0  0  0  0  0
  283.8066   10.3219   -8.2378 H   0  0  0  0  0  0
  283.2111   10.1082   -4.5720 H   0  0  0  0  0  0
  289.9249    6.0544   -9.7842 H   0  0  0  0  0  0
  291.0102    4.1970  -10.6219 H   0  0  0  0  0  0
  289.5750    2.8539   -8.2404 H   0  0  0  0  0  0
  290.8086    1.9906   -9.2200 H   0  0  0  0  0  0
  292.5105    3.5459   -8.5476 H   0  0  0  0  0  0
  291.3016    4.5705   -7.7019 H   0  0  0  0  0  0
  290.4991    1.4427  -10.6669 H   0  0  0  0  0  0
  287.6482    1.1844  -11.6385 H   0  0  0  0  0  0
  290.0342    0.0727  -13.2510 H   0  0  0  0  0  0
  289.7298    2.5380  -13.5823 H   0  0  0  0  0  0
  287.9901   -1.3940  -13.2533 H   0  0  0  0  0  0
  288.3103   -0.6464  -14.8549 H   0  0  0  0  0  0
  287.0170    0.0143  -13.7977 H   0  0  0  0  0  0
  286.7957   -0.3881  -10.2977 H   0  0  0  0  0  0
  288.7865   -2.0336   -8.8639 H   0  0  0  0  0  0
  286.5110   -1.1802   -7.9374 H   0  0  0  0  0  0
  285.7831   -2.5824   -8.7921 H   0  0  0  0  0  0
  288.0541   -3.4076   -7.1802 H   0  0  0  0  0  0
  287.4442   -1.4270   -5.8116 H   0  0  0  0  0  0
  287.1086   -2.9723   -4.9593 H   0  0  0  0  0  0
  285.7601   -2.0411   -5.6949 H   0  0  0  0  0  0
  286.2716   -4.8909   -8.0464 H   0  0  0  0  0  0
  285.0775   -4.0569   -6.9951 H   0  0  0  0  0  0
  286.4260   -4.9880   -6.2594 H   0  0  0  0  0  0
  286.0664   -4.0773   -9.3746 H   0  0  0  0  0  0
  287.3722   -5.5643  -11.5684 H   0  0  0  0  0  0
  288.0550   -6.3656   -8.6593 H   0  0  0  0  0  0
  288.4952   -7.3084  -10.1235 H   0  0  0  0  0  0
  289.5361   -6.8204   -7.2126 H   0  0  0  0  0  0
  285.3951   -6.0479  -12.3394 H   0  0  0  0  0  0
  283.7068   -7.5366  -10.2964 H   0  0  0  0  0  0
  281.6475   -6.4358  -11.3541 H   0  0  0  0  0  0
  282.7424   -5.2900  -10.5085 H   0  0  0  0  0  0
  282.2880   -6.8622  -13.4200 H   0  0  0  0  0  0
  283.1583   -9.6076  -14.3308 H   0  0  0  0  0  0
  280.2096   -8.8060  -13.8982 H   0  0  0  0  0  0
  280.7613  -10.3422  -14.6481 H   0  0  0  0  0  0
  278.3674   -9.1263  -13.1345 H   0  0  0  0  0  0
  281.9366   -6.3948  -14.8084 H   0  0  0  0  0  0
  281.3441   -5.2343  -16.7183 H   0  0  0  0  0  0
  283.3954   -7.1630  -17.9131 H   0  0  0  0  0  0
  282.6177   -5.8943  -18.9192 H   0  0  0  0  0  0
  284.1085   -5.2996  -16.3423 H   0  0  0  0  0  0
  284.8806   -5.3266  -17.9640 H   0  0  0  0  0  0
  1  2  1  0  0  0
  1 75  1  0  0  0
  1 76  1  0  0  0
  1 77  1  0  0  0
  2  3  1  0  0  0
  2  5  1  0  0  0
  2 78  1  0  0  0
  3  4  2  0  0  0
  3 13  1  0  0  0
  5  6  1  0  0  0
  5 79  1  0  0  0
  5 80  1  0  0  0
  6  7  2  0  0  0
  6  8  1  0  0  0
  7  9  1  0  0  0
  7 81  1  0  0  0
  8 10  2  0  0  0
  8 82  1  0  0  0
  9 11  2  0  0  0
  9 83  1  0  0  0
 10 11  1  0  0  0
 10 84  1  0  0  0
 11 12  1  0  0  0
 12 85  1  0  0  0
 13 14  1  0  0  0
 13 86  1  0  0  0
 14 15  1  0  0  0
 14 17  1  0  0  0
 14 87  1  0  0  0
 15 16  2  0  0  0
 15 22  1  0  0  0
 17 18  1  0  0  0
 17 88  1  0  0  0
 17 89  1  0  0  0
 18 19  1  0  0  0
 18 90  1  0  0  0
 18 91  1  0  0  0
 19 20  1  0  0  0
 19 21  2  0  0  0
 22 23  1  0  0  0
 22 92  1  0  0  0
 23 24  1  0  0  0
 23 26  1  0  0  0
 23 93  1  0  0  0
 24 25  2  0  0  0
 24 29  1  0  0  0
 26 27  1  0  0  0
 26 28  1  0  0  0
 26 94  1  0  0  0
 27 95  1  0  0  0
 28 96  1  0  0  0
 28 97  1  0  0  0
 28 98  1  0  0  0
 29 30  1  0  0  0
 29 99  1  0  0  0
 30 31  1  0  0  0
 30 33  1  0  0  0
 30100  1  0  0  0
 31 32  2  0  0  0
 31 37  1  0  0  0
 33 34  1  0  0  0
 33101  1  0  0  0
 33102  1  0  0  0
 34 35  1  0  0  0
 34 36  1  0  0  0
 34103  1  0  0  0
 35104  1  0  0  0
 35105  1  0  0  0
 35106  1  0  0  0
 36107  1  0  0  0
 36108  1  0  0  0
 36109  1  0  0  0
 37 38  1  0  0  0
 37110  1  0  0  0
 38 39  1  0  0  0
 38 41  1  0  0  0
 38111  1  0  0  0
 39 40  1  0  0  0
 39112  1  0  0  0
 39113  1  0  0  0
 40 43  1  0  0  0
 41 42  2  0  0  0
 41 47  1  0  0  0
 43 44  2  0  0  0
 43 45  1  0  0  0
 43 46  1  0  0  0
 46114  1  0  0  0
 47 48  1  0  0  0
 47115  1  0  0  0
 48 49  1  0  0  0
 48 51  1  0  0  0
 48116  1  0  0  0
 49 50  2  0  0  0
 49 55  1  0  0  0
 51 52  1  0  0  0
 51117  1  0  0  0
 51118  1  0  0  0
 52 53  2  0  0  0
 52 54  1  0  0  0
 55 56  1  0  0  0
 55119  1  0  0  0
 56 57  1  0  0  0
 56 59  1  0  0  0
 56120  1  0  0  0
 57 58  1  0  0  0
 57121  1  0  0  0
 57122  1  0  0  0
 58 61  1  0  0  0
 59 60  2  0  0  0
 59 65  1  0  0  0
 61 62  2  0  0  0
 61 63  1  0  0  0
 61 64  1  0  0  0
 64123  1  0  0  0
 65 66  1  0  0  0
 65124  1  0  0  0
 66 67  1  0  0  0
 66 69  1  0  0  0
 66125  1  0  0  0
 67 68  2  0  0  0
 67 74  1  0  0  0
 69 70  1  0  0  0
 69126  1  0  0  0
 69127  1  0  0  0
 70 71  1  0  0  0
 70128  1  0  0  0
 70129  1  0  0  0
 71 72  2  0  0  0
 71 73  1  0  0  0
M  CHG  7   1   1  20  -1  45  -1  54  -1  63  -1  73  -1  74  -1
M  END
> <s_m_source_file>
../2rt5_ligand.sdf

> <i_m_source_file_index>
1

> <s_epik_input>
W2NIXTFbY0hdYyhbT0hdKVtjSF1bY0hdYzFbQ0gyXVtDQEhdKFtOSDMrXSlDKD1PKVtOSF1bQ0BASF0oW0NIMl1bQ0gyXUMoPU8pW09IXSlDKD1PKVtOSF1bQ0BASF0oW0NASF0oW09IXSlbQ0gzXSlDKD1PKVtOSF1bQ0BASF0oW0NIMl1bQ0hdKFtDSDNdKVtDSDNdKUMoPU8pW05IXVtDQEBIXShbQ0gyXU9QKD1PKShbT0hdKVtPSF0pQyg9TylbTkhdW0NAQEhdKFtDSDJdQyg9TylbT0hdKUMoPU8pW05IXVtDQEBIXShbQ0gyXU9QKD1PKShbT0hdKVtPSF0pQyg9TylbTkhdW0NASF0oQyg9TylbT0hdKVtDSDJdW0NIMl1DKD1PKVtPSF0=

> <s_epik_cmdline>
J2VwaWtfYXBwJywgJy1pbWFlJywgJ2xpZ2FuZF9wcm8ubWFlJywgJy1vbWFlJywgJ2xpZ2FuZF9wcmVwLm1hZScsICctbXMnLCAnMScsICctcGgnLCAnNycsICctcGh0JywgJzAuNScsICctbnQn

> <r_lp_tautomer_probability>
0.999999999997365

> <r_epik_Ionization_Penalty>
  2.5301

> <r_epik_Ionization_Penalty_Charging>
  0.2036

> <r_epik_Ionization_Penalty_Neutral>
  2.3265

> <r_epik_State_Penalty>
  0.0336

> <r_epik_Charging_Adjusted_Penalty>
0.23722276880485

> <i_epik_Tot_Q>
-5

> <i_epik_Tot_abs_Q>
7

$$$$
