2sim_ligand
                    3D
 Schrodinger Suite 2020-3.
 36 36  0  0  1  0            999 V2000
   43.1440   51.8930   45.7220 C   0  0  0  0  0  0
   42.9540   51.5700   47.0740 C   0  0  0  0  0  0
   41.6990   51.1110   47.5000 C   0  0  0  0  0  0
   41.5320   50.4770   48.8760 C   0  0  1  0  0  0
   42.6710   50.9260   49.8030 C   0  0  2  0  0  0
   44.0010   50.6440   49.0790 C   0  0  2  0  0  0
   45.2100   51.0200   49.9070 C   0  0  1  0  0  0
   46.4760   50.7660   49.0570 C   0  0  1  0  0  0
   47.7450   51.1770   49.8680 C   0  0  0  0  0  0
   42.7660   50.7610   52.2420 C   0  0  0  0  0  0
   42.3930   49.9380   53.4740 C   0  0  0  0  0  0
   42.5120   50.2100   51.0570 N   0  0  0  0  0  0
   42.2370   52.2040   44.9500 O   0  0  0  0  0  0
   44.2840   51.8270   45.2450 O   0  5  0  0  0  0
   40.2990   50.8100   49.5070 O   0  0  0  0  0  0
   44.0580   51.4470   47.8980 O   0  0  0  0  0  0
   45.0550   52.3880   50.2550 O   0  0  0  0  0  0
   46.5260   49.3690   48.6880 O   0  0  0  0  0  0
   47.8820   50.3710   51.0250 O   0  0  0  0  0  0
   43.3710   51.8420   52.3360 O   0  0  0  0  0  0
   40.8249   51.2071   46.8392 H   0  0  0  0  0  0
   41.4758   49.3874   48.7360 H   0  0  0  0  0  0
   42.6475   51.9866   50.0940 H   0  0  0  0  0  0
   44.0477   49.5788   48.8085 H   0  0  0  0  0  0
   45.2807   50.4874   50.8669 H   0  0  0  0  0  0
   46.4368   51.3079   48.1005 H   0  0  0  0  0  0
   48.6387   51.0513   49.2391 H   0  0  0  0  0  0
   47.6584   52.2295   50.1759 H   0  0  0  0  0  0
   41.8662   49.0250   53.1593 H   0  0  0  0  0  0
   41.7378   50.5326   54.1275 H   0  0  0  0  0  0
   43.3065   49.6638   54.0221 H   0  0  0  0  0  0
   42.1678   49.1653   51.0540 H   0  0  0  0  0  0
   39.3460   50.5743   49.0108 H   0  0  0  0  0  0
   44.1937   52.7074   50.8601 H   0  0  0  0  0  0
   45.7027   48.9228   48.1109 H   0  0  0  0  0  0
   48.7281   50.5307   51.7095 H   0  0  0  0  0  0
  1 14  1  0  0  0
  1 13  2  0  0  0
  1  2  1  0  0  0
  2 16  1  0  0  0
  2  3  2  0  0  0
  3  4  1  0  0  0
  3 21  1  0  0  0
  4 15  1  0  0  0
  4  5  1  0  0  0
  4 22  1  0  0  0
  5 12  1  0  0  0
  5  6  1  0  0  0
  5 23  1  0  0  0
  6 16  1  0  0  0
  6  7  1  0  0  0
  6 24  1  0  0  0
  7 17  1  0  0  0
  7  8  1  0  0  0
  7 25  1  0  0  0
  8 18  1  0  0  0
  8  9  1  0  0  0
  8 26  1  0  0  0
  9 19  1  0  0  0
  9 27  1  0  0  0
  9 28  1  0  0  0
 10 12  1  0  0  0
 10 20  2  0  0  0
 10 11  1  0  0  0
 11 29  1  0  0  0
 11 30  1  0  0  0
 11 31  1  0  0  0
 12 32  1  0  0  0
 15 33  1  0  0  0
 17 34  1  0  0  0
 18 35  1  0  0  0
 19 36  1  0  0  0
M  CHG  1  14  -1
M  END
> <s_m_source_file>
../2sim_ligand.sdf

> <i_m_source_file_index>
1

> <s_epik_input>
Tz1DKFtPSF0pQzE9W0NIXVtDQEhdKFtPSF0pW0NAQEhdKFtOSF1DKD1PKVtDSDNdKVtDQEBIXShPMSlbQ0BIXShbT0hdKVtDQEhdKFtPSF0pW0NIMl1bT0hd

> <s_epik_cmdline>
J2VwaWtfYXBwJywgJy1pbWFlJywgJ2xpZ2FuZF9wcm8ubWFlJywgJy1vbWFlJywgJ2xpZ2FuZF9wcmVwLm1hZScsICctbXMnLCAnMScsICctcGgnLCAnNycsICctcGh0JywgJzAuNScsICctbnQn

> <r_lp_tautomer_probability>
1

> <r_epik_Ionization_Penalty>
  0.0004

> <r_epik_Ionization_Penalty_Charging>
  0.0004

> <r_epik_Ionization_Penalty_Neutral>
  0.0000

> <r_epik_State_Penalty>
 -0.0000

> <r_epik_Charging_Adjusted_Penalty>
0.000352443490958098

> <i_epik_Tot_Q>
-1

> <i_epik_Tot_abs_Q>
1

$$$$
