2srt_ligand
                    3D
 Schrodinger Suite 2020-3.
 70 71  0  0  1  0            999 V2000
   -1.9680    2.7480   14.3770 C   0  0  0  0  0  0
   -1.4790    2.0880   13.0710 C   0  0  2  0  0  0
   -2.1390    2.8070   11.8600 C   0  0  0  0  0  0
   -1.5200    2.8420   10.8030 O   0  5  0  0  0  0
   -3.2470    3.3030   12.0110 O   0  0  0  0  0  0
   -1.7850    0.6420   13.1240 N   0  3  0  0  0  0
   -3.2370    0.3870   12.8900 C   0  0  1  0  0  0
   -3.4870   -1.1360   12.6980 C   0  0  0  0  0  0
   -4.7560   -1.3960   11.8440 C   0  0  0  0  0  0
   -4.8510   -2.8660   11.4510 C   0  0  0  0  0  0
   -5.6290   -3.2490   10.3440 C   0  0  0  0  0  0
   -5.7230   -4.5980    9.9880 C   0  0  0  0  0  0
   -5.0460   -5.5690   10.7320 C   0  0  0  0  0  0
   -4.2720   -5.1930   11.8340 C   0  0  0  0  0  0
   -4.1720   -3.8440   12.1940 C   0  0  0  0  0  0
   -4.1180    0.8870   14.0660 C   0  0  0  0  0  0
   -3.9460    0.4770   15.2030 O   0  0  0  0  0  0
   -5.0730    1.7650   13.7890 N   0  0  0  0  0  0
   -6.0340    2.3190   14.8170 C   0  0  1  0  0  0
   -6.4950    3.7320   14.3740 C   0  0  0  0  0  0
   -5.4300    4.7870   14.7430 C   0  0  0  0  0  0
   -5.9420    6.2010   14.4120 C   0  0  0  0  0  0
   -4.8820    7.2240   14.7350 N   0  0  0  0  0  0
   -5.0300    8.5410   14.5970 C   0  0  0  0  0  0
   -4.0330    9.3350   14.9280 N   0  3  0  0  0  0
   -6.1590    9.0730   14.1490 N   0  0  0  0  0  0
   -7.2550    1.3650   14.9750 C   0  0  0  0  0  0
   -7.6800    0.7200   14.0250 O   0  0  0  0  0  0
   -7.8290    1.2870   16.1790 N   0  0  0  0  0  0
   -8.9080    0.4640   16.3850 C   0  0  0  0  0  0
   -8.9760   -0.3170   17.5490 C   0  0  0  0  0  0
  -10.0720   -1.1620   17.7670 C   0  0  0  0  0  0
  -11.1020   -1.2320   16.8230 C   0  0  0  0  0  0
  -11.0400   -0.4580   15.6610 C   0  0  0  0  0  0
   -9.9460    0.3880   15.4370 C   0  0  0  0  0  0
   -1.7456    3.8249   14.3492 H   0  0  0  0  0  0
   -1.4537    2.2894   15.2344 H   0  0  0  0  0  0
   -3.0533    2.6002   14.4785 H   0  0  0  0  0  0
   -0.3858    2.1383   12.9598 H   0  0  0  0  0  0
   -1.2077    0.1164   12.3491 H   0  0  0  0  0  0
   -1.5150    0.2461   14.1141 H   0  0  0  0  0  0
   -3.4763    0.9596   11.9818 H   0  0  0  0  0  0
   -2.6235   -1.5879   12.1879 H   0  0  0  0  0  0
   -3.6229   -1.6120   13.6803 H   0  0  0  0  0  0
   -5.6503   -1.1252   12.4244 H   0  0  0  0  0  0
   -4.7139   -0.7861   10.9295 H   0  0  0  0  0  0
   -6.1590   -2.4941    9.7632 H   0  0  0  0  0  0
   -6.3253   -4.8931    9.1288 H   0  0  0  0  0  0
   -5.1217   -6.6199   10.4527 H   0  0  0  0  0  0
   -3.7457   -5.9514   12.4136 H   0  0  0  0  0  0
   -3.5662   -3.5529   13.0521 H   0  0  0  0  0  0
   -5.1429    2.0887   12.7400 H   0  0  0  0  0  0
   -5.5056    2.3886   15.7793 H   0  0  0  0  0  0
   -6.6474    3.7432   13.2847 H   0  0  0  0  0  0
   -7.4390    3.9848   14.8789 H   0  0  0  0  0  0
   -5.2118    4.7268   15.8195 H   0  0  0  0  0  0
   -4.5101    4.5950   14.1712 H   0  0  0  0  0  0
   -6.1874    6.2608   13.3414 H   0  0  0  0  0  0
   -6.8424    6.4136   15.0070 H   0  0  0  0  0  0
   -3.9019    6.8994   15.1145 H   0  0  0  0  0  0
   -3.0904    8.9080   15.3011 H   0  0  0  0  0  0
   -7.0004    8.4223   13.8687 H   0  0  0  0  0  0
   -6.2542   10.1651   14.0577 H   0  0  0  0  0  0
   -7.4372    1.8852   17.0149 H   0  0  0  0  0  0
   -8.1740   -0.2660   18.2854 H   0  0  0  0  0  0
  -10.1222   -1.7656   18.6732 H   0  0  0  0  0  0
  -11.9535   -1.8907   16.9939 H   0  0  0  0  0  0
  -11.8444   -0.5127   14.9275 H   0  0  0  0  0  0
   -9.8985    0.9878   14.5281 H   0  0  0  0  0  0
   -4.1427   10.4252   14.8314 H   0  0  0  0  0  0
  1  2  1  0  0  0
  1 36  1  0  0  0
  1 37  1  0  0  0
  1 38  1  0  0  0
  2  3  1  0  0  0
  2  6  1  0  0  0
  2 39  1  0  0  0
  3  4  1  0  0  0
  3  5  2  0  0  0
  6  7  1  0  0  0
  6 40  1  0  0  0
  6 41  1  0  0  0
  7  8  1  0  0  0
  7 16  1  0  0  0
  7 42  1  0  0  0
  8  9  1  0  0  0
  8 43  1  0  0  0
  8 44  1  0  0  0
  9 10  1  0  0  0
  9 45  1  0  0  0
  9 46  1  0  0  0
 10 11  2  0  0  0
 10 15  1  0  0  0
 11 12  1  0  0  0
 11 47  1  0  0  0
 12 13  2  0  0  0
 12 48  1  0  0  0
 13 14  1  0  0  0
 13 49  1  0  0  0
 14 15  2  0  0  0
 14 50  1  0  0  0
 15 51  1  0  0  0
 16 17  2  0  0  0
 16 18  1  0  0  0
 18 19  1  0  0  0
 18 52  1  0  0  0
 19 20  1  0  0  0
 19 27  1  0  0  0
 19 53  1  0  0  0
 20 21  1  0  0  0
 20 54  1  0  0  0
 20 55  1  0  0  0
 21 22  1  0  0  0
 21 56  1  0  0  0
 21 57  1  0  0  0
 22 23  1  0  0  0
 22 58  1  0  0  0
 22 59  1  0  0  0
 23 24  1  0  0  0
 23 60  1  0  0  0
 24 25  2  0  0  0
 24 26  1  0  0  0
 25 61  1  0  0  0
 25 70  1  0  0  0
 26 62  1  0  0  0
 26 63  1  0  0  0
 27 28  2  0  0  0
 27 29  1  0  0  0
 29 30  1  0  0  0
 29 64  1  0  0  0
 30 31  2  0  0  0
 30 35  1  0  0  0
 31 32  1  0  0  0
 31 65  1  0  0  0
 32 33  2  0  0  0
 32 66  1  0  0  0
 33 34  1  0  0  0
 33 67  1  0  0  0
 34 35  2  0  0  0
 34 68  1  0  0  0
 35 69  1  0  0  0
M  CHG  3   4  -1   6   1  25   1
M  END
> <s_m_source_file>
../2srt_ligand.sdf

> <i_m_source_file_index>
1

> <s_epik_input>
W2NIXTFbY0hdW2NIXVtjSF1bY0hdYzFbQ0gyXVtDSDJdW0NASF0oW05IMitdW0NASF0oW0NIM10pQyg9TylbT0hdKUMoPU8pW05IXVtDQEBIXShbQ0gyXVtDSDJdW0NIMl1bTkhdL0MoPU5cW0hdKVtOSDJdKUMoPU8pW05IXWMyW2NIXVtjSF1bY0hdW2NIXVtjSF0y

> <s_epik_cmdline>
J2VwaWtfYXBwJywgJy1pbWFlJywgJ2xpZ2FuZF9wcm8ubWFlJywgJy1vbWFlJywgJ2xpZ2FuZF9wcmVwLm1hZScsICctbXMnLCAnMScsICctcGgnLCAnNycsICctcGh0JywgJzAuNScsICctbnQn

> <r_epik_Ionization_Penalty>
  0.0404

> <r_epik_Ionization_Penalty_Charging>
  0.0404

> <r_epik_Ionization_Penalty_Neutral>
  0.0000

> <r_epik_State_Penalty>
  0.0340

> <r_epik_Charging_Adjusted_Penalty>
0.0743238842610456

> <i_epik_Tot_Q>
1

> <i_epik_Tot_abs_Q>
3

> <s_epik_Chemistry_Notes>
This compound has an imine and may undergo hydrolysis.

$$$$
