2tmn_ligand
                    3D
 Schrodinger Suite 2020-3.
 27 26  0  0  1  0            999 V2000
   51.7110   18.9570   -6.2940 P   0  0  0  0  0  0
   51.6950   20.5290   -6.1650 O   0  5  0  0  0  0
   53.1510   18.5470   -6.8250 O   0  0  0  0  0  0
   50.5590   18.3330   -7.0080 O   0  0  0  0  0  0
   51.6470   18.3580   -4.5460 N   0  0  1  0  0  0
   52.8450   18.2740   -3.7280 C   0  0  2  0  0  0
   53.6540   17.0160   -4.0170 C   0  0  0  0  0  0
   54.8770   17.0990   -3.8570 O   0  0  0  0  0  0
   52.5110   18.2580   -2.2300 C   0  0  0  0  0  0
   53.6580   18.2450   -1.2680 C   0  0  0  0  0  0
   54.5690   19.4580   -1.5220 C   0  0  0  0  0  0
   52.8570   18.1860    0.0450 C   0  0  0  0  0  0
   53.0330   15.9300   -4.3380 N   0  0  0  0  0  0
   53.4476   18.7922   -7.8555 H   0  0  0  0  0  0
   50.9874   19.0130   -3.9579 H   0  0  0  0  0  0
   53.3949   19.1791   -4.0254 H   0  0  0  0  0  0
   51.9269   19.1545   -1.9750 H   0  0  0  0  0  0
   51.9233   17.3584   -1.9949 H   0  0  0  0  0  0
   54.3873   17.4243   -1.3362 H   0  0  0  0  0  0
   55.0656   19.3457   -2.4971 H   0  0  0  0  0  0
   55.3284   19.5187   -0.7285 H   0  0  0  0  0  0
   53.9644   20.3770   -1.5221 H   0  0  0  0  0  0
   52.2611   17.2617    0.0697 H   0  0  0  0  0  0
   52.1868   19.0562    0.1050 H   0  0  0  0  0  0
   53.5508   18.1979    0.8986 H   0  0  0  0  0  0
   51.9401   15.9376   -4.4622 H   0  0  0  0  0  0
   53.5970   14.9975   -4.4872 H   0  0  0  0  0  0
  1  2  1  0  0  0
  1  3  1  0  0  0
  1  4  2  0  0  0
  1  5  1  0  0  0
  3 14  1  0  0  0
  5  6  1  0  0  0
  5 15  1  0  0  0
  6  9  1  0  0  0
  6  7  1  0  0  0
  6 16  1  0  0  0
  7  8  2  0  0  0
  7 13  1  0  0  0
  9 10  1  0  0  0
  9 17  1  0  0  0
  9 18  1  0  0  0
 10 11  1  0  0  0
 10 12  1  0  0  0
 10 19  1  0  0  0
 11 20  1  0  0  0
 11 21  1  0  0  0
 11 22  1  0  0  0
 12 23  1  0  0  0
 12 24  1  0  0  0
 12 25  1  0  0  0
 13 26  1  0  0  0
 13 27  1  0  0  0
M  CHG  1   2  -1
M  END
> <s_m_source_file>
../2tmn_ligand.sdf

> <i_m_source_file_index>
1

> <s_epik_input>
W09IXVAoPU8pKFtPSF0pW05IXVtDQEhdKEMoPU8pW05IMl0pW0NIMl1bQ0hdKFtDSDNdKVtDSDNd

> <s_epik_cmdline>
J2VwaWtfYXBwJywgJy1pbWFlJywgJ2xpZ2FuZF9wcm8ubWFlJywgJy1vbWFlJywgJ2xpZ2FuZF9wcmVwLm1hZScsICctbXMnLCAnMScsICctcGgnLCAnNycsICctcGh0JywgJzAuNScsICctbnQn

> <r_lp_tautomer_probability>
1

> <r_epik_Ionization_Penalty>
  0.0146

> <r_epik_Ionization_Penalty_Charging>
  0.0001

> <r_epik_Ionization_Penalty_Neutral>
  0.0146

> <r_epik_State_Penalty>
 -0.0000

> <r_epik_Charging_Adjusted_Penalty>
7.12630332347684e-05

> <i_epik_Tot_Q>
-1

> <i_epik_Tot_abs_Q>
1

$$$$
