2toh_ligand
                    3D
 Schrodinger Suite 2020-3.
 29 30  0  0  1  0            999 V2000
   72.5310   59.7590   32.9450 N   0  0  0  0  0  0
   70.4320   60.6660   33.2640 N   0  0  0  0  0  0
   71.5640   60.2190   33.7620 C   0  0  0  0  0  0
   71.6400   60.2690   35.1280 N   0  0  0  0  0  0
   72.7970   59.8120   35.7790 C   0  0  0  0  0  0
   72.9090   59.8380   37.0320 O   0  0  0  0  0  0
   73.8450   59.2980   34.9840 C   0  0  0  0  0  0
   73.6640   59.3000   33.5570 C   0  0  0  0  0  0
   74.6400   58.8330   32.6740 N   0  0  0  0  0  0
   75.6620   57.9310   33.2530 C   0  0  0  0  0  0
   75.9840   58.1460   34.7270 C   0  0  0  0  0  0
   75.0360   58.7800   35.5140 N   0  5  0  0  0  0
   77.1620   57.4750   35.4060 C   0  0  1  0  0  0
   78.1810   57.2390   34.4180 O   0  0  0  0  0  0
   77.8030   58.2580   36.5870 C   0  0  1  0  0  0
   77.0820   59.4680   36.8660 O   0  0  0  0  0  0
   77.7880   57.4180   37.8630 C   0  0  0  0  0  0
   70.2726   60.6678   32.1756 H   0  0  0  0  0  0
   69.6445   61.0381   33.9358 H   0  0  0  0  0  0
   70.7964   60.6662   35.7116 H   0  0  0  0  0  0
   74.6804   59.0968   31.6069 H   0  0  0  0  0  0
   75.3239   56.8881   33.1631 H   0  0  0  0  0  0
   76.6111   58.0567   32.7114 H   0  0  0  0  0  0
   77.9356   56.6953   33.4938 H   0  0  0  0  0  0
   78.8227   58.5638   36.3100 H   0  0  0  0  0  0
   76.9639   60.2310   36.0825 H   0  0  0  0  0  0
   78.3328   56.4782   37.6897 H   0  0  0  0  0  0
   76.7479   57.1929   38.1416 H   0  0  0  0  0  0
   78.2725   57.9781   38.6764 H   0  0  0  0  0  0
  1  3  2  0  0  0
  1  8  1  0  0  0
  2  3  1  0  0  0
  2 18  1  0  0  0
  2 19  1  0  0  0
  3  4  1  0  0  0
  4  5  1  0  0  0
  4 20  1  0  0  0
  5  6  2  0  0  0
  5  7  1  0  0  0
  7  8  2  0  0  0
  7 12  1  0  0  0
  8  9  1  0  0  0
  9 10  1  0  0  0
  9 21  1  0  0  0
 10 11  1  0  0  0
 10 22  1  0  0  0
 10 23  1  0  0  0
 11 12  1  0  0  0
 11 13  2  0  0  0
 13 14  1  0  0  0
 13 15  1  0  0  0
 14 24  1  0  0  0
 15 16  1  0  0  0
 15 17  1  0  0  0
 15 25  1  0  0  0
 16 26  1  0  0  0
 17 27  1  0  0  0
 17 28  1  0  0  0
 17 29  1  0  0  0
M  CHG  1  12  -1
M  END
> <s_m_source_file>
../2toh_ligand.sdf

> <i_m_source_file_index>
1

> <s_epik_input>
Tz1jMVtuSF1jKFtOSDJdKW5jKGMxMilbTkhdW0NIMl1DKD1OMilbQ0BASF0oW09IXSlbQ0BASF0oW09IXSlbQ0gzXQ==

> <s_epik_cmdline>
J2VwaWtfYXBwJywgJy1pbWFlJywgJ2xpZ2FuZF9wcm8ubWFlJywgJy1vbWFlJywgJ2xpZ2FuZF9wcmVwLm1hZScsICctbXMnLCAnMScsICctcGgnLCAnNycsICctcGh0JywgJzAuNScsICctbnQn

> <r_epik_Ionization_Penalty>
  0.3722

> <r_epik_Ionization_Penalty_Charging>
  0.0000

> <r_epik_Ionization_Penalty_Neutral>
  0.3722

> <r_epik_State_Penalty>
  0.3696

> <r_epik_Charging_Adjusted_Penalty>
0.369584506302729

> <i_epik_Tot_Q>
-1

> <i_epik_Tot_abs_Q>
1

> <s_epik_Chemistry_Notes>
This compound has an imine and may undergo hydrolysis.

$$$$
