2tpi_ligand
                    3D
 Schrodinger Suite 2020-3.
 38 37  0  0  1  0            999 V2000
   18.8070   65.5860   12.6500 N   0  3  0  0  0  0
   19.7550   64.7920   13.4380 C   0  0  2  0  0  0
   21.1160   64.7600   12.7360 C   0  0  0  0  0  0
   21.2070   64.2830   11.5750 O   0  0  0  0  0  0
   19.2670   63.3180   13.6020 C   0  0  2  0  0  0
   17.8730   63.1280   14.2140 C   0  0  0  0  0  0
   20.2800   62.4390   14.3650 C   0  0  0  0  0  0
   17.8840   63.3290   15.7380 C   0  0  0  0  0  0
   22.1570   65.2440   13.4020 N   0  0  0  0  0  0
   23.5480   65.1770   12.9100 C   0  0  2  0  0  0
   24.3560   64.0890   13.6030 C   0  0  0  0  0  0
   24.1360   63.8290   14.8180 O   0  5  0  0  0  0
   24.2720   66.5240   13.0360 C   0  0  0  0  0  0
   23.6580   67.4450   14.1070 C   0  0  0  0  0  0
   25.7680   66.3410   13.2400 C   0  0  0  0  0  0
   24.8240   63.1690   12.8860 O   0  0  0  0  0  0
   19.1816   66.6159   12.5548 H   0  0  0  0  0  0
   17.8295   65.5965   13.1543 H   0  0  0  0  0  0
   18.6988   65.1413   11.6497 H   0  0  0  0  0  0
   19.8097   65.3117   14.4059 H   0  0  0  0  0  0
   19.1751   62.9703   12.5624 H   0  0  0  0  0  0
   17.1773   63.8584   13.7752 H   0  0  0  0  0  0
   17.5159   62.1091   14.0035 H   0  0  0  0  0  0
   21.2815   62.5717   13.9298 H   0  0  0  0  0  0
   19.9824   61.3830   14.2850 H   0  0  0  0  0  0
   20.2982   62.7356   15.4241 H   0  0  0  0  0  0
   16.8681   63.1841   16.1343 H   0  0  0  0  0  0
   18.2265   64.3480   15.9710 H   0  0  0  0  0  0
   18.5652   62.5987   16.1992 H   0  0  0  0  0  0
   21.9387   65.7154   14.3716 H   0  0  0  0  0  0
   23.4338   64.9130   11.8483 H   0  0  0  0  0  0
   24.1393   67.0354   12.0712 H   0  0  0  0  0  0
   22.5785   67.5510   13.9242 H   0  0  0  0  0  0
   24.1370   68.4340   14.0584 H   0  0  0  0  0  0
   23.8200   67.0077   15.1032 H   0  0  0  0  0  0
   26.1665   65.6790   12.4571 H   0  0  0  0  0  0
   25.9512   65.8927   14.2276 H   0  0  0  0  0  0
   26.2682   67.3190   13.1828 H   0  0  0  0  0  0
  1  2  1  0  0  0
  1 17  1  0  0  0
  1 18  1  0  0  0
  1 19  1  0  0  0
  2  3  1  0  0  0
  2  5  1  0  0  0
  2 20  1  0  0  0
  3  4  2  0  0  0
  3  9  1  0  0  0
  5  6  1  0  0  0
  5  7  1  0  0  0
  5 21  1  0  0  0
  6  8  1  0  0  0
  6 22  1  0  0  0
  6 23  1  0  0  0
  7 24  1  0  0  0
  7 25  1  0  0  0
  7 26  1  0  0  0
  8 27  1  0  0  0
  8 28  1  0  0  0
  8 29  1  0  0  0
  9 10  1  0  0  0
  9 30  1  0  0  0
 10 11  1  0  0  0
 10 13  1  0  0  0
 10 31  1  0  0  0
 11 16  2  0  0  0
 11 12  1  0  0  0
 13 14  1  0  0  0
 13 15  1  0  0  0
 13 32  1  0  0  0
 14 33  1  0  0  0
 14 34  1  0  0  0
 14 35  1  0  0  0
 15 36  1  0  0  0
 15 37  1  0  0  0
 15 38  1  0  0  0
M  CHG  2   1   1  12  -1
M  END
> <s_m_source_file>
../2tpi_ligand.sdf

> <i_m_source_file_index>
1

> <s_epik_input>
W0NIM11bQ0gyXVtDQEhdKFtDSDNdKVtDQEhdKFtOSDMrXSlDKD1PKVtOSF1bQ0BIXShDKD1PKVtPSF0pW0NIXShbQ0gzXSlbQ0gzXQ==

> <s_epik_cmdline>
J2VwaWtfYXBwJywgJy1pbWFlJywgJ2xpZ2FuZF9wcm8ubWFlJywgJy1vbWFlJywgJ2xpZ2FuZF9wcmVwLm1hZScsICctbXMnLCAnMScsICctcGgnLCAnNycsICctcGh0JywgJzAuNScsICctbnQn

> <r_epik_Ionization_Penalty>
  0.0719

> <r_epik_Ionization_Penalty_Charging>
  0.0719

> <r_epik_Ionization_Penalty_Neutral>
  0.0000

> <r_epik_State_Penalty>
  0.0630

> <r_epik_Charging_Adjusted_Penalty>
0.13496919326525

> <i_epik_Tot_Q>
0

> <i_epik_Tot_abs_Q>
2

$$$$
