2tsr_ligand
                    3D
 Schrodinger Suite 2020-3.
 52 54  0  0  1  0            999 V2000
   39.1340   30.1890    2.6130 N   0  0  0  0  0  0
   39.5290   30.4630    3.9750 C   0  0  0  0  0  0
   40.8200   29.9260    4.5360 C   0  0  0  0  0  0
   38.6750   31.2590    4.7930 N   0  0  0  0  0  0
   37.4440   31.8000    4.3280 C   0  0  0  0  0  0
   36.7240   32.4780    5.0320 O   0  0  0  0  0  0
   37.0770   31.4820    2.8850 C   0  0  0  0  0  0
   35.8940   31.9540    2.2970 C   0  0  0  0  0  0
   35.5130   31.6780    0.9370 C   0  0  0  0  0  0
   36.4190   30.8610    0.1560 C   0  0  0  0  0  0
   37.6370   30.3590    0.7200 C   0  0  0  0  0  0
   37.9400   30.6790    2.0670 C   0  0  0  0  0  0
   34.1590   32.2570    0.3350 C   0  0  0  0  0  0
   33.6280   33.6170    0.9020 N   0  0  0  0  0  0
   35.8940   36.7480    0.0950 C   0  0  0  0  0  0
   35.7710   35.0630   -0.2660 S   0  0  0  0  0  0
   34.3880   34.8430    0.7490 C   0  0  0  0  0  0
   34.1040   36.0420    1.3380 C   0  0  0  0  0  0
   34.9270   37.1180    0.9620 C   0  0  0  0  0  0
   37.0250   37.5270   -0.5970 C   0  0  0  0  0  0
   37.7030   36.9240   -1.4480 O   0  0  0  0  0  0
   37.1470   38.8790   -0.3550 N   0  0  0  0  0  0
   38.1930   39.6160   -1.1010 C   0  0  1  0  0  0
   37.9850   39.6300   -2.6910 C   0  0  0  0  0  0
   38.8180   38.6710   -3.6730 C   0  0  0  0  0  0
   38.7030   39.0220   -5.2190 C   0  0  0  0  0  0
   38.9720   38.0970   -6.0100 O   0  5  0  0  0  0
   38.3600   40.1840   -5.5030 O   0  0  0  0  0  0
   38.4560   41.0000   -0.3760 C   0  0  0  0  0  0
   38.0770   41.0790    0.8130 O   0  5  0  0  0  0
   39.0140   41.8760   -1.0640 O   0  0  0  0  0  0
   32.2070   33.6530    1.2850 C   0  0  0  0  0  0
   41.3397   29.3399    3.7637 H   0  0  0  0  0  0
   40.6040   29.2823    5.4015 H   0  0  0  0  0  0
   41.4588   30.7637    4.8524 H   0  0  0  0  0  0
   38.9580   31.4788    5.8330 H   0  0  0  0  0  0
   35.2257   32.5642    2.9045 H   0  0  0  0  0  0
   36.1701   30.6240   -0.8784 H   0  0  0  0  0  0
   38.3148   29.7452    0.1267 H   0  0  0  0  0  0
   34.2801   32.4243   -0.7454 H   0  0  0  0  0  0
   33.3446   31.5375    0.5056 H   0  0  0  0  0  0
   33.2906   36.1574    2.0544 H   0  0  0  0  0  0
   34.7990   38.1363    1.3290 H   0  0  0  0  0  0
   36.5032   39.4116    0.3604 H   0  0  0  0  0  0
   39.1036   39.0086   -0.9917 H   0  0  0  0  0  0
   36.9420   39.3717   -2.9266 H   0  0  0  0  0  0
   38.2115   40.6330   -3.0816 H   0  0  0  0  0  0
   39.8867   38.7246   -3.4182 H   0  0  0  0  0  0
   38.4656   37.6351   -3.5599 H   0  0  0  0  0  0
   31.8178   32.6260    1.3467 H   0  0  0  0  0  0
   31.6381   34.2160    0.5305 H   0  0  0  0  0  0
   32.1034   34.1439    2.2639 H   0  0  0  0  0  0
  1  2  2  0  0  0
  1 12  1  0  0  0
  2  3  1  0  0  0
  2  4  1  0  0  0
  3 33  1  0  0  0
  3 34  1  0  0  0
  3 35  1  0  0  0
  4  5  1  0  0  0
  4 36  1  0  0  0
  5  6  2  0  0  0
  5  7  1  0  0  0
  7  8  2  0  0  0
  7 12  1  0  0  0
  8  9  1  0  0  0
  8 37  1  0  0  0
  9 10  2  0  0  0
  9 13  1  0  0  0
 10 11  1  0  0  0
 10 38  1  0  0  0
 11 12  2  0  0  0
 11 39  1  0  0  0
 13 14  1  0  0  0
 13 40  1  0  0  0
 13 41  1  0  0  0
 14 17  1  0  0  0
 14 32  1  0  0  0
 15 16  1  0  0  0
 15 19  2  0  0  0
 15 20  1  0  0  0
 16 17  1  0  0  0
 17 18  2  0  0  0
 18 19  1  0  0  0
 18 42  1  0  0  0
 19 43  1  0  0  0
 20 21  2  0  0  0
 20 22  1  0  0  0
 22 23  1  0  0  0
 22 44  1  0  0  0
 23 24  1  0  0  0
 23 29  1  0  0  0
 23 45  1  0  0  0
 24 25  1  0  0  0
 24 46  1  0  0  0
 24 47  1  0  0  0
 25 26  1  0  0  0
 25 48  1  0  0  0
 25 49  1  0  0  0
 26 27  1  0  0  0
 26 28  2  0  0  0
 29 30  1  0  0  0
 29 31  2  0  0  0
 32 50  1  0  0  0
 32 51  1  0  0  0
 32 52  1  0  0  0
M  CHG  2  27  -1  30  -1
M  END
> <s_m_source_file>
../2tsr_ligand.sdf

> <i_m_source_file_index>
1

> <s_epik_input>
Tz1jMVtuSF1jKFtDSDNdKW5jKGMxMilbY0hdW2NIXWMoW2NIXTIpW0NIMl1OKFtDSDNdKWMoW2NIXVtjSF0zKXNjM0MoPU8pW05IXVtDQEhdKEMoPU8pW09IXSlbQ0gyXVtDSDJdQyg9TylbT0hd

> <s_epik_cmdline>
J2VwaWtfYXBwJywgJy1pbWFlJywgJ2xpZ2FuZF9wcm8ubWFlJywgJy1vbWFlJywgJ2xpZ2FuZF9wcmVwLm1hZScsICctbXMnLCAnMScsICctcGgnLCAnNycsICctcGh0JywgJzAuNScsICctbnQn

> <r_lp_tautomer_probability>
1

> <r_epik_Ionization_Penalty>
  0.0043

> <r_epik_Ionization_Penalty_Charging>
  0.0043

> <r_epik_Ionization_Penalty_Neutral>
  0.0000

> <r_epik_State_Penalty>
 -0.0000

> <r_epik_Charging_Adjusted_Penalty>
0.00433191746367378

> <i_epik_Tot_Q>
-2

> <i_epik_Tot_abs_Q>
2

$$$$
