2upj_ligand
                    3D
 Schrodinger Suite 2020-3.
 80 83  0  0  1  0            999 V2000
    4.0140   25.4800    1.3280 C   0  0  0  0  0  0
    5.3230   24.0290    2.8610 C   0  0  0  0  0  0
    6.4610   25.1010    0.9090 C   0  0  0  0  0  0
    5.3820   25.2890    1.9860 C   0  0  0  0  0  0
    5.7870   26.4810    2.6900 O   0  0  0  0  0  0
    5.1160   26.8180    3.8620 C   0  0  0  0  0  0
    4.1610   26.1280    4.2490 O   0  0  0  0  0  0
    5.5360   27.9080    4.4860 N   0  0  0  0  0  0
    5.0140   28.2630    5.8170 C   0  0  0  0  0  0
    5.9780   28.9610    6.7900 C   0  0  0  0  0  0
    7.3950   28.4150    6.7650 C   0  0  0  0  0  0
    8.3630   29.1260    6.4950 O   0  0  0  0  0  0
    7.5380   27.1250    7.0150 N   0  0  0  0  0  0
    8.8640   26.6390    6.9340 C   0  0  0  0  0  0
    9.7160   26.9400    7.9910 C   0  0  0  0  0  0
   11.0270   26.4770    8.0040 C   0  0  0  0  0  0
   11.4940   25.6990    6.9530 C   0  0  0  0  0  0
   10.6620   25.4080    5.8760 C   0  0  0  0  0  0
    9.3270   25.8440    5.8740 C   0  0  0  0  0  0
   11.3190   24.6560    4.7140 C   0  0  2  0  0  0
   10.2740   23.9690    3.8860 C   0  0  0  0  0  0
   10.3680   23.7310    2.3980 C   0  0  0  0  0  0
    9.2720   24.6160    2.9590 C   0  0  0  0  0  0
   12.4910   23.7470    5.1550 C   0  0  0  0  0  0
   12.1290   22.5830    5.8630 C   0  0  0  0  0  0
   11.0030   22.1540    5.9050 O   0  0  0  0  0  0
   13.0740   21.7400    6.2300 O   0  0  0  0  0  0
   14.3780   21.9500    5.9520 C   0  0  0  0  0  0
   14.8180   23.1090    5.3040 C   0  0  0  0  0  0
   13.8540   24.0260    4.8810 C   0  0  0  0  0  0
   14.3710   25.2190    4.4690 O   0  5  0  0  0  0
   15.3440   20.8500    6.0810 C   0  0  2  0  0  0
   16.5300   21.2650    6.9660 C   0  0  0  0  0  0
   16.0620   22.0760    8.1950 C   0  0  0  0  0  0
   15.6310   20.4160    4.6300 C   0  0  0  0  0  0
   16.8180   19.5060    4.3900 C   0  0  0  0  0  0
   17.1050   19.1090    3.0910 C   0  0  0  0  0  0
   18.2020   18.2940    2.8400 C   0  0  0  0  0  0
   19.0090   17.8650    3.8860 C   0  0  0  0  0  0
   18.7070   18.2570    5.1840 C   0  0  0  0  0  0
   17.6110   19.0730    5.4380 C   0  0  0  0  0  0
    3.7296   24.5583    0.7991 H   0  0  0  0  0  0
    4.0649   26.3131    0.6115 H   0  0  0  0  0  0
    3.2640   25.7059    2.1003 H   0  0  0  0  0  0
    5.0075   23.1716    2.2484 H   0  0  0  0  0  0
    4.6009   24.1824    3.6765 H   0  0  0  0  0  0
    6.3183   23.8302    3.2850 H   0  0  0  0  0  0
    6.2331   24.2041    0.3143 H   0  0  0  0  0  0
    7.4428   24.9820    1.3905 H   0  0  0  0  0  0
    6.4797   25.9823    0.2510 H   0  0  0  0  0  0
    6.2836   28.5513    3.9989 H   0  0  0  0  0  0
    4.1626   28.9505    5.7055 H   0  0  0  0  0  0
    4.6836   27.3514    6.3364 H   0  0  0  0  0  0
    6.0407   30.0304    6.5400 H   0  0  0  0  0  0
    5.6070   28.8462    7.8192 H   0  0  0  0  0  0
    6.6591   26.5123    7.2641 H   0  0  0  0  0  0
    9.3514   27.5467    8.8199 H   0  0  0  0  0  0
   11.6859   26.7239    8.8364 H   0  0  0  0  0  0
   12.5141   25.3155    6.9715 H   0  0  0  0  0  0
    8.6582   25.5682    5.0587 H   0  0  0  0  0  0
   11.7808   25.3914    4.0387 H   0  0  0  0  0  0
   10.1961   23.3455    4.7889 H   0  0  0  0  0  0
   11.3420   24.0864    2.0307 H   0  0  0  0  0  0
   10.2688   22.6551    2.1917 H   0  0  0  0  0  0
    8.2585   24.2783    3.2214 H   0  0  0  0  0  0
    9.3318   25.7097    3.0602 H   0  0  0  0  0  0
   15.8794   23.2903    5.1348 H   0  0  0  0  0  0
   14.9403   19.9893    6.6344 H   0  0  0  0  0  0
   17.0547   20.3658    7.3212 H   0  0  0  0  0  0
   17.2236   21.8873    6.3815 H   0  0  0  0  0  0
   16.9345   22.3553    8.8039 H   0  0  0  0  0  0
   15.3747   21.4643    8.7979 H   0  0  0  0  0  0
   15.5436   22.9858    7.8581 H   0  0  0  0  0  0
   14.7630   19.8699    4.2321 H   0  0  0  0  0  0
   15.8193   21.3060    4.0115 H   0  0  0  0  0  0
   16.4698   19.4366    2.2680 H   0  0  0  0  0  0
   18.4302   17.9901    1.8184 H   0  0  0  0  0  0
   19.8708   17.2270    3.6902 H   0  0  0  0  0  0
   19.3346   17.9220    6.0098 H   0  0  0  0  0  0
   17.3768   19.3711    6.4600 H   0  0  0  0  0  0
  1  4  1  0  0  0
  1 42  1  0  0  0
  1 43  1  0  0  0
  1 44  1  0  0  0
  2  4  1  0  0  0
  2 45  1  0  0  0
  2 46  1  0  0  0
  2 47  1  0  0  0
  3  4  1  0  0  0
  3 48  1  0  0  0
  3 49  1  0  0  0
  3 50  1  0  0  0
  4  5  1  0  0  0
  5  6  1  0  0  0
  6  7  2  0  0  0
  6  8  1  0  0  0
  8  9  1  0  0  0
  8 51  1  0  0  0
  9 10  1  0  0  0
  9 52  1  0  0  0
  9 53  1  0  0  0
 10 11  1  0  0  0
 10 54  1  0  0  0
 10 55  1  0  0  0
 11 12  2  0  0  0
 11 13  1  0  0  0
 13 14  1  0  0  0
 13 56  1  0  0  0
 14 15  2  0  0  0
 14 19  1  0  0  0
 15 16  1  0  0  0
 15 57  1  0  0  0
 16 17  2  0  0  0
 16 58  1  0  0  0
 17 18  1  0  0  0
 17 59  1  0  0  0
 18 19  2  0  0  0
 18 20  1  0  0  0
 19 60  1  0  0  0
 20 21  1  0  0  0
 20 24  1  0  0  0
 20 61  1  0  0  0
 21 22  1  0  0  0
 21 23  1  0  0  0
 21 62  1  0  0  0
 22 23  1  0  0  0
 22 63  1  0  0  0
 22 64  1  0  0  0
 23 65  1  0  0  0
 23 66  1  0  0  0
 24 25  1  0  0  0
 24 30  2  0  0  0
 25 26  2  0  0  0
 25 27  1  0  0  0
 27 28  1  0  0  0
 28 29  2  0  0  0
 28 32  1  0  0  0
 29 30  1  0  0  0
 29 67  1  0  0  0
 30 31  1  0  0  0
 32 33  1  0  0  0
 32 35  1  0  0  0
 32 68  1  0  0  0
 33 34  1  0  0  0
 33 69  1  0  0  0
 33 70  1  0  0  0
 34 71  1  0  0  0
 34 72  1  0  0  0
 34 73  1  0  0  0
 35 36  1  0  0  0
 35 74  1  0  0  0
 35 75  1  0  0  0
 36 37  2  0  0  0
 36 41  1  0  0  0
 37 38  1  0  0  0
 37 76  1  0  0  0
 38 39  2  0  0  0
 38 77  1  0  0  0
 39 40  1  0  0  0
 39 78  1  0  0  0
 40 41  2  0  0  0
 40 79  1  0  0  0
 41 80  1  0  0  0
M  CHG  1  31  -1
M  END
> <s_m_source_file>
../2upj_ligand.sdf

> <i_m_source_file_index>
1

> <s_epik_input>
W0NIM11DKFtDSDNdKShbQ0gzXSlPQyg9TylbTkhdW0NIMl1bQ0gyXUMoPU8pW05IXWMxW2NIXVtjSF1bY0hdYyhbY0hdMSlbQ0BIXShbQ0hdMltDSDJdW0NIMl0yKWMzYyg9TylvYyhbY0hdYzNbT0hdKVtDQEhdKFtDSDJdW0NIM10pW0NIMl1jNFtjSF1bY0hdW2NIXVtjSF1bY0hdNA==

> <s_epik_cmdline>
J2VwaWtfYXBwJywgJy1pbWFlJywgJ2xpZ2FuZF9wcm8ubWFlJywgJy1vbWFlJywgJ2xpZ2FuZF9wcmVwLm1hZScsICctbXMnLCAnMScsICctcGgnLCAnNycsICctcGh0JywgJzAuNScsICctbnQn

> <r_epik_Ionization_Penalty>
  0.2998

> <r_epik_Ionization_Penalty_Charging>
  0.2997

> <r_epik_Ionization_Penalty_Neutral>
  0.0000

> <r_epik_State_Penalty>
  0.2932

> <r_epik_Charging_Adjusted_Penalty>
0.592950087024954

> <i_epik_Tot_Q>
-1

> <i_epik_Tot_abs_Q>
1

> <s_epik_Chemistry_Notes>
This compound has an ester and may undergo hydrolysis at high or low pH.

$$$$
