2uue_ligand
                    3D
 Schrodinger Suite 2020-3.
 46 49  0  0  1  0            999 V2000
   -3.9500   47.8670    2.3880 C   0  0  0  0  0  0
   -4.8160   46.8960    3.2050 C   0  0  0  0  0  0
   -4.6380   45.5080    2.8070 O   0  0  0  0  0  0
   -3.2700   45.0440    2.8960 C   0  0  0  0  0  0
   -2.3090   45.9310    2.0900 C   0  0  0  0  0  0
   -2.5490   47.3740    2.3640 N   0  0  0  0  0  0
   -1.4820   48.2300    2.6990 C   0  0  0  0  0  0
   -1.7650   49.5100    3.1620 C   0  0  0  0  0  0
   -0.7330   50.3660    3.5200 C   0  0  0  0  0  0
   -0.1580   47.7980    2.6280 C   0  0  0  0  0  0
    0.8740   48.6540    3.0030 C   0  0  0  0  0  0
    0.5900   49.9470    3.4400 C   0  0  0  0  0  0
    1.5470   50.7960    3.8290 N   0  0  0  0  0  0
    2.8080   50.7310    3.4150 C   0  0  0  0  0  0
    3.3120   49.5710    2.9600 N   0  0  0  0  0  0
    3.5760   51.8310    3.4620 N   0  0  0  0  0  0
    4.8340   51.8070    3.0410 C   0  0  0  0  0  0
    5.3880   50.6240    2.5630 C   0  0  0  0  0  0
    4.5900   49.4810    2.5450 C   0  0  0  0  0  0
    5.0670   48.2810    2.0160 C   0  0  0  0  0  0
    4.1640   46.8510    1.7580 S   0  0  0  0  0  0
    6.3300   48.0680    1.4680 C   0  0  0  0  0  0
    7.4110   49.1460    1.4830 C   0  0  0  0  0  0
    6.5330   46.8390    0.9600 N   0  0  0  0  0  0
    5.4660   46.0260    1.0190 C   0  0  0  0  0  0
    5.4240   44.7650    0.5780 N   0  0  0  0  0  0
   -4.3369   47.9272    1.3600 H   0  0  0  0  0  0
   -3.9815   48.8645    2.8506 H   0  0  0  0  0  0
   -4.5517   46.9761    4.2698 H   0  0  0  0  0  0
   -5.8778   47.1498    3.0707 H   0  0  0  0  0  0
   -2.9471   45.0541    3.9475 H   0  0  0  0  0  0
   -3.2041   44.0191    2.5020 H   0  0  0  0  0  0
   -1.2711   45.6902    2.3636 H   0  0  0  0  0  0
   -2.4564   45.7491    1.0152 H   0  0  0  0  0  0
   -2.8000   49.8420    3.2440 H   0  0  0  0  0  0
   -0.9614   51.3739    3.8663 H   0  0  0  0  0  0
    0.0688   46.7906    2.2791 H   0  0  0  0  0  0
    1.9078   48.3119    2.9547 H   0  0  0  0  0  0
    1.3095   51.6075    4.5326 H   0  0  0  0  0  0
    5.4346   52.7162    3.0698 H   0  0  0  0  0  0
    6.4193   50.5915    2.2116 H   0  0  0  0  0  0
    7.0109   50.0601    1.9460 H   0  0  0  0  0  0
    7.7251   49.3646    0.4517 H   0  0  0  0  0  0
    8.2758   48.7900    2.0621 H   0  0  0  0  0  0
    4.4974   44.1798    0.6728 H   0  0  0  0  0  0
    6.3160   44.3124    0.1203 H   0  0  0  0  0  0
  1  2  1  0  0  0
  1  6  1  0  0  0
  1 27  1  0  0  0
  1 28  1  0  0  0
  2  3  1  0  0  0
  2 29  1  0  0  0
  2 30  1  0  0  0
  3  4  1  0  0  0
  4  5  1  0  0  0
  4 31  1  0  0  0
  4 32  1  0  0  0
  5  6  1  0  0  0
  5 33  1  0  0  0
  5 34  1  0  0  0
  6  7  1  0  0  0
  7  8  2  0  0  0
  7 10  1  0  0  0
  8  9  1  0  0  0
  8 35  1  0  0  0
  9 12  2  0  0  0
  9 36  1  0  0  0
 10 11  2  0  0  0
 10 37  1  0  0  0
 11 12  1  0  0  0
 11 38  1  0  0  0
 12 13  1  0  0  0
 13 14  1  0  0  0
 13 39  1  0  0  0
 14 15  2  0  0  0
 14 16  1  0  0  0
 15 19  1  0  0  0
 16 17  2  0  0  0
 17 18  1  0  0  0
 17 40  1  0  0  0
 18 19  2  0  0  0
 18 41  1  0  0  0
 19 20  1  0  0  0
 20 21  1  0  0  0
 20 22  2  0  0  0
 21 25  1  0  0  0
 22 23  1  0  0  0
 22 24  1  0  0  0
 23 42  1  0  0  0
 23 43  1  0  0  0
 23 44  1  0  0  0
 24 25  2  0  0  0
 25 26  1  0  0  0
 26 45  1  0  0  0
 26 46  1  0  0  0
M  END
> <s_m_source_file>
../2uue_ligand.sdf

> <i_m_source_file_index>
1

> <s_epik_input>
W0NIMl0xW0NIMl1PW0NIMl1bQ0gyXU4xYzJbY0hdW2NIXWMoW2NIXVtjSF0yKVtOSF1jM25jKFtjSF1bY0hdbjMpLWM0c2MoW05IMl0pbmM0W0NIM10=

> <s_epik_cmdline>
J2VwaWtfYXBwJywgJy1pbWFlJywgJ2xpZ2FuZF9wcm8ubWFlJywgJy1vbWFlJywgJ2xpZ2FuZF9wcmVwLm1hZScsICctbXMnLCAnMScsICctcGgnLCAnNycsICctcGh0JywgJzAuNScsICctbnQn

> <r_lp_tautomer_probability>
1

> <r_epik_Ionization_Penalty>
  0.0015

> <r_epik_Ionization_Penalty_Charging>
  0.0000

> <r_epik_Ionization_Penalty_Neutral>
  0.0015

> <r_epik_State_Penalty>
 -0.0000

> <r_epik_Charging_Adjusted_Penalty>
0

> <i_epik_Tot_Q>
0

> <i_epik_Tot_abs_Q>
0

$$$$
