2uuo_ligand
                    3D
 Schrodinger Suite 2020-3.
 52 53  0  0  1  0            999 V2000
  -22.2820    5.7350   19.3580 O   0  0  0  0  0  0
  -22.2230    4.6440   18.3960 S   0  0  0  0  0  0
  -21.8220    5.1950   17.0650 O   0  0  0  0  0  0
  -23.6920    3.9820   18.2340 N   0  0  3  0  0  0
  -24.4920    3.8770   19.4700 C   0  0  1  0  0  0
  -25.0090    5.2660   19.8740 C   0  0  0  0  0  0
  -25.3130    6.0400   18.9430 O   0  0  0  0  0  0
  -25.0960    5.5670   21.1000 O   0  5  0  0  0  0
  -25.6110    2.8380   19.2560 C   0  0  0  0  0  0
  -26.4690    2.6900   20.5120 C   0  0  0  0  0  0
  -27.4470    1.5390   20.4050 C   0  0  0  0  0  0
  -27.4070    0.8430   19.3680 O   0  0  0  0  0  0
  -28.2410    1.3710   21.3610 O   0  5  0  0  0  0
  -21.1420    3.4350   18.9580 C   0  0  0  0  0  0
  -21.0220    3.2250   20.3280 C   0  0  0  0  0  0
  -20.1790    2.2630   20.8740 C   0  0  0  0  0  0
  -19.4210    1.4740   20.0170 C   0  0  0  0  0  0
  -18.5810    0.4860   20.5430 C   0  0  0  0  0  0
  -17.8160   -0.3320   19.6900 C   0  0  0  0  0  0
  -17.8730   -0.1460   18.3020 C   0  0  0  0  0  0
  -18.7130    0.8620   17.7800 C   0  0  0  0  0  0
  -19.4980    1.6710   18.6300 C   0  0  0  0  0  0
  -20.3560    2.6430   18.1010 C   0  0  0  0  0  0
  -17.0540   -1.3520   20.2100 O   0  0  0  0  0  0
  -16.6440   -1.1910   21.5730 C   0  0  0  0  0  0
  -15.2800   -0.4910   21.5280 C   0  0  0  0  0  0
  -14.2550   -1.4170   20.8690 C   0  0  0  0  0  0
  -12.8900   -0.7390   20.9050 C   0  0  0  0  0  0
  -11.8540   -1.6240   20.2470 C   0  0  0  0  0  0
  -24.0288    3.4775   17.3164 H   0  0  0  0  0  0
  -23.8418    3.5231   20.2836 H   0  0  0  0  0  0
  -26.2556    3.1593   18.4246 H   0  0  0  0  0  0
  -25.1641    1.8617   19.0173 H   0  0  0  0  0  0
  -25.8192    2.5063   21.3804 H   0  0  0  0  0  0
  -27.0447    3.6133   20.6737 H   0  0  0  0  0  0
  -21.6149    3.8417   21.0034 H   0  0  0  0  0  0
  -20.1140    2.1303   21.9539 H   0  0  0  0  0  0
  -18.5185    0.3486   21.6225 H   0  0  0  0  0  0
  -17.2778   -0.7701   17.6354 H   0  0  0  0  0  0
  -18.7561    1.0182   16.7021 H   0  0  0  0  0  0
  -20.4151    2.7865   17.0221 H   0  0  0  0  0  0
  -17.3853   -0.5802   22.1092 H   0  0  0  0  0  0
  -16.5671   -2.1783   22.0518 H   0  0  0  0  0  0
  -15.3638    0.4382   20.9452 H   0  0  0  0  0  0
  -14.9557   -0.2536   22.5520 H   0  0  0  0  0  0
  -14.2141   -2.3689   21.4187 H   0  0  0  0  0  0
  -14.5501   -1.6079   19.8267 H   0  0  0  0  0  0
  -12.9420    0.2187   20.3664 H   0  0  0  0  0  0
  -12.5986   -0.5566   21.9499 H   0  0  0  0  0  0
  -10.8735   -1.1263   20.2781 H   0  0  0  0  0  0
  -12.1394   -1.8068   19.2005 H   0  0  0  0  0  0
  -11.7960   -2.5822   20.7840 H   0  0  0  0  0  0
  1  2  2  0  0  0
  2  3  2  0  0  0
  2  4  1  0  0  0
  2 14  1  0  0  0
  4  5  1  0  0  0
  4 30  1  0  0  0
  5  6  1  0  0  0
  5  9  1  0  0  0
  5 31  1  0  0  0
  6  7  2  0  0  0
  6  8  1  0  0  0
  9 10  1  0  0  0
  9 32  1  0  0  0
  9 33  1  0  0  0
 10 11  1  0  0  0
 10 34  1  0  0  0
 10 35  1  0  0  0
 11 12  2  0  0  0
 11 13  1  0  0  0
 14 15  2  0  0  0
 14 23  1  0  0  0
 15 16  1  0  0  0
 15 36  1  0  0  0
 16 17  2  0  0  0
 16 37  1  0  0  0
 17 18  1  0  0  0
 17 22  1  0  0  0
 18 19  2  0  0  0
 18 38  1  0  0  0
 19 20  1  0  0  0
 19 24  1  0  0  0
 20 21  2  0  0  0
 20 39  1  0  0  0
 21 22  1  0  0  0
 21 40  1  0  0  0
 22 23  2  0  0  0
 23 41  1  0  0  0
 24 25  1  0  0  0
 25 26  1  0  0  0
 25 42  1  0  0  0
 25 43  1  0  0  0
 26 27  1  0  0  0
 26 44  1  0  0  0
 26 45  1  0  0  0
 27 28  1  0  0  0
 27 46  1  0  0  0
 27 47  1  0  0  0
 28 29  1  0  0  0
 28 48  1  0  0  0
 28 49  1  0  0  0
 29 50  1  0  0  0
 29 51  1  0  0  0
 29 52  1  0  0  0
M  CHG  2   8  -1  13  -1
M  END
> <s_m_source_file>
../2uuo_ligand.sdf

> <i_m_source_file_index>
1

> <s_epik_input>
Tz1DKFtPSF0pW0NIMl1bQ0gyXVtDQEhdKEMoPU8pW09IXSlbTkhdUyg9TykoPU8pYyhbY0hdW2NIXTEpW2NIXWMoYzEyKVtjSF1bY0hdYyhbY0hdMilPW0NIMl1bQ0gyXVtDSDJdW0NIMl1bQ0gzXQ==

> <s_epik_cmdline>
J2VwaWtfYXBwJywgJy1pbWFlJywgJ2xpZ2FuZF9wcm8ubWFlJywgJy1vbWFlJywgJ2xpZ2FuZF9wcmVwLm1hZScsICctbXMnLCAnMScsICctcGgnLCAnNycsICctcGh0JywgJzAuNScsICctbnQn

> <r_lp_tautomer_probability>
1

> <r_epik_Ionization_Penalty>
  0.0038

> <r_epik_Ionization_Penalty_Charging>
  0.0038

> <r_epik_Ionization_Penalty_Neutral>
  0.0000

> <r_epik_State_Penalty>
 -0.0000

> <r_epik_Charging_Adjusted_Penalty>
0.0037574306144845

> <i_epik_Tot_Q>
-2

> <i_epik_Tot_abs_Q>
2

$$$$
