2uvm_ligand
                    3D
 Schrodinger Suite 2020-3.
 30 30  0  0  1  0            999 V2000
   12.5660    7.7940   13.1920 O   0  5  0  0  0  0
   12.7030    8.4780   14.6410 P   0  0  0  0  0  0
   13.8580    7.6460   15.3930 O   0  5  0  0  0  0
   11.4170    8.4320   15.3710 O   0  0  0  0  0  0
   13.2120    9.9850   14.3780 O   0  0  0  0  0  0
   14.2580   10.4060   15.1400 C   0  0  0  0  0  0
   14.0830   10.8990   16.4350 C   0  0  0  0  0  0
   12.9350   10.6600   17.1290 O   0  0  0  0  0  0
   11.6730   11.5580   16.6820 P   0  0  0  0  0  0
   12.1490   12.5800   15.5330 O   0  5  0  0  0  0
   10.6600   10.5060   16.0030 O   0  0  0  0  0  0
   11.0240   12.2430   17.8200 O   0  0  0  0  0  0
   15.1320   11.5510   17.0780 C   0  0  0  0  0  0
   14.9060   12.2560   18.2230 O   0  0  0  0  0  0
   14.7850   11.4020   19.5850 P   0  0  0  0  0  0
   13.2230   11.2560   19.9350 O   0  5  0  0  0  0
   15.3020    9.9110   19.2670 O   0  5  0  0  0  0
   15.5170   12.0560   20.6920 O   0  0  0  0  0  0
   16.3640   11.6710   16.4430 C   0  0  0  0  0  0
   16.5520   11.1620   15.1580 C   0  0  0  0  0  0
   15.4940   10.5340   14.5100 C   0  0  0  0  0  0
   15.5530   10.0930   13.2240 O   0  0  0  0  0  0
   16.9930    9.7090   12.6140 P   0  0  0  0  0  0
   17.8560   11.0640   12.5190 O   0  5  0  0  0  0
   16.6350    9.2520   11.1140 O   0  0  0  0  0  0
   17.6850    8.6350   13.3590 O   0  0  0  0  0  0
   10.9854    9.9086   15.1385 H   0  0  0  0  0  0
   17.1893   12.1669   16.9539 H   0  0  0  0  0  0
   17.5201   11.2557   14.6659 H   0  0  0  0  0  0
   16.1171    9.9466   10.4362 H   0  0  0  0  0  0
  1  2  1  0  0  0
  2  3  1  0  0  0
  2  4  2  0  0  0
  2  5  1  0  0  0
  5  6  1  0  0  0
  6  7  2  0  0  0
  6 21  1  0  0  0
  7  8  1  0  0  0
  7 13  1  0  0  0
  8  9  1  0  0  0
  9 10  1  0  0  0
  9 11  1  0  0  0
  9 12  2  0  0  0
 11 27  1  0  0  0
 13 14  1  0  0  0
 13 19  2  0  0  0
 14 15  1  0  0  0
 15 16  1  0  0  0
 15 17  1  0  0  0
 15 18  2  0  0  0
 19 20  1  0  0  0
 19 28  1  0  0  0
 20 21  2  0  0  0
 20 29  1  0  0  0
 21 22  1  0  0  0
 22 23  1  0  0  0
 23 24  1  0  0  0
 23 25  1  0  0  0
 23 26  2  0  0  0
 25 30  1  0  0  0
M  CHG  6   1  -1   3  -1  10  -1  16  -1  17  -1  24  -1
M  END
> <s_m_source_file>
../2uvm_ligand.sdf

> <i_m_source_file_index>
1

> <s_epik_input>
W09IXVAoPU8pKFtPSF0pT2MxYyhPUCg9TykoW09IXSlbT0hdKWMoT1AoPU8pKFtPSF0pW09IXSlbY0hdW2NIXWMxT1AoPU8pKFtPSF0pW09IXQ==

> <s_epik_cmdline>
J2VwaWtfYXBwJywgJy1pbWFlJywgJ2xpZ2FuZF9wcm8ubWFlJywgJy1vbWFlJywgJ2xpZ2FuZF9wcmVwLm1hZScsICctbXMnLCAnMScsICctcGgnLCAnNycsICctcGh0JywgJzAuNScsICctbnQn

> <r_epik_Ionization_Penalty>
  2.6946

> <r_epik_Ionization_Penalty_Charging>
  0.1467

> <r_epik_Ionization_Penalty_Neutral>
  2.5478

> <r_epik_State_Penalty>
  0.5375

> <r_epik_Charging_Adjusted_Penalty>
0.684219147231128

> <i_epik_Tot_Q>
-6

> <i_epik_Tot_abs_Q>
6

$$$$
