2uw0_ligand
                    3D
 Schrodinger Suite 2020-3.
 49 53  0  0  1  0            999 V2000
   13.5680   13.7150   -0.4550 Cl  0  0  0  0  0  0
   12.9930   12.4950    0.6220 C   0  0  0  0  0  0
   12.5300   12.8440    1.8770 C   0  0  0  0  0  0
   12.0640   11.8740    2.7340 C   0  0  0  0  0  0
   12.0410   10.5420    2.3410 C   0  0  0  0  0  0
   12.5180   10.2000    1.0790 C   0  0  0  0  0  0
   12.9900   11.1710    0.2270 C   0  0  0  0  0  0
   11.5430    9.4670    3.3110 C   0  0  0  0  0  0
   11.9940    8.0940    2.7760 C   0  0  0  0  0  0
   11.8190    6.9810    3.7840 C   0  0  0  0  0  0
   12.6260    7.2940    4.9950 N   0  3  0  0  0  0
   12.1440    8.5600    5.6160 C   0  0  0  0  0  0
   12.2900    9.7050    4.6340 C   0  0  0  0  0  0
   10.0020    9.5250    3.4300 C   0  0  0  0  0  0
    9.3610   10.0190    4.5650 C   0  0  0  0  0  0
    7.9810   10.0460    4.6440 C   0  0  0  0  0  0
    7.2000    9.5910    3.5850 C   0  0  0  0  0  0
    7.8400    9.0810    2.4620 C   0  0  0  0  0  0
    9.2180    9.0590    2.3810 C   0  0  0  0  0  0
    5.7120    9.5840    3.6790 C   0  0  0  0  0  0
    5.1860    9.5540    4.9170 N   0  0  0  0  0  0
    3.8540    9.5290    5.0330 C   0  0  0  0  0  0
    2.9320    9.4850    4.0690 N   0  0  0  0  0  0
    3.4880    9.4840    2.8510 C   0  0  0  0  0  0
    2.8640    9.4480    1.6410 N   0  3  0  0  0  0
    3.8150    9.4770    0.6790 C   0  0  0  0  0  0
    5.0510    9.5250    1.1890 N   0  0  0  0  0  0
    4.8460    9.5270    2.5790 C   0  0  0  0  0  0
   12.5342   13.8887    2.1878 H   0  0  0  0  0  0
   11.7109   12.1523    3.7270 H   0  0  0  0  0  0
   12.5175    9.1565    0.7641 H   0  0  0  0  0  0
   13.3618   10.8960   -0.7600 H   0  0  0  0  0  0
   11.4019    7.8348    1.8859 H   0  0  0  0  0  0
   13.0599    8.1372    2.5075 H   0  0  0  0  0  0
   10.7567    6.8974    4.0571 H   0  0  0  0  0  0
   12.1606    6.0319    3.3453 H   0  0  0  0  0  0
   12.5288    6.4745    5.7223 H   0  0  0  0  0  0
   13.6826    7.4094    4.7118 H   0  0  0  0  0  0
   11.0848    8.4525    5.8928 H   0  0  0  0  0  0
   12.7381    8.7763    6.5161 H   0  0  0  0  0  0
   13.3634    9.8338    4.4309 H   0  0  0  0  0  0
   11.8973   10.6109    5.1190 H   0  0  0  0  0  0
    9.9552   10.3886    5.4007 H   0  0  0  0  0  0
    7.4995   10.4274    5.5445 H   0  0  0  0  0  0
    7.2463    8.6932    1.6342 H   0  0  0  0  0  0
    9.6977    8.6710    1.4824 H   0  0  0  0  0  0
    3.4693    9.5470    6.0527 H   0  0  0  0  0  0
    3.5989    9.4629   -0.3893 H   0  0  0  0  0  0
    1.7661    9.4038    1.5895 H   0  0  0  0  0  0
  1  2  1  0  0  0
  2  3  2  0  0  0
  2  7  1  0  0  0
  3  4  1  0  0  0
  3 29  1  0  0  0
  4  5  2  0  0  0
  4 30  1  0  0  0
  5  6  1  0  0  0
  5  8  1  0  0  0
  6  7  2  0  0  0
  6 31  1  0  0  0
  7 32  1  0  0  0
  8  9  1  0  0  0
  8 13  1  0  0  0
  8 14  1  0  0  0
  9 10  1  0  0  0
  9 33  1  0  0  0
  9 34  1  0  0  0
 10 11  1  0  0  0
 10 35  1  0  0  0
 10 36  1  0  0  0
 11 12  1  0  0  0
 11 37  1  0  0  0
 11 38  1  0  0  0
 12 13  1  0  0  0
 12 39  1  0  0  0
 12 40  1  0  0  0
 13 41  1  0  0  0
 13 42  1  0  0  0
 14 15  2  0  0  0
 14 19  1  0  0  0
 15 16  1  0  0  0
 15 43  1  0  0  0
 16 17  2  0  0  0
 16 44  1  0  0  0
 17 18  1  0  0  0
 17 20  1  0  0  0
 18 19  2  0  0  0
 18 45  1  0  0  0
 19 46  1  0  0  0
 20 21  2  0  0  0
 20 28  1  0  0  0
 21 22  1  0  0  0
 22 23  2  0  0  0
 22 47  1  0  0  0
 23 24  1  0  0  0
 24 25  1  0  0  0
 24 28  2  0  0  0
 25 26  2  0  0  0
 25 49  1  0  0  0
 26 27  1  0  0  0
 26 48  1  0  0  0
 27 28  1  0  0  0
M  CHG  2  11   1  25   1
M  END
> <s_m_source_file>
../2uw0_ligand.sdf

> <i_m_source_file_index>
1

> <s_epik_input>
Q2xjMVtjSF1bY0hdYyhbY0hdW2NIXTEpQzIoW0NIMl1bQ0gyXVtOSDIrXVtDSDJdW0NIMl0yKWMzW2NIXVtjSF1jKFtjSF1bY0hdMyktYyhuW2NIXW40KWMoYzQ1KVtuSF1bY0hdbjU=

> <s_epik_cmdline>
J2VwaWtfYXBwJywgJy1pbWFlJywgJ2xpZ2FuZF9wcm8ubWFlJywgJy1vbWFlJywgJ2xpZ2FuZF9wcmVwLm1hZScsICctbXMnLCAnMScsICctcGgnLCAnNycsICctcGh0JywgJzAuNScsICctbnQn

> <r_epik_Ionization_Penalty>
  0.0154

> <r_epik_Ionization_Penalty_Charging>
  0.0011

> <r_epik_Ionization_Penalty_Neutral>
  0.0144

> <r_epik_State_Penalty>
  0.2856

> <r_epik_Charging_Adjusted_Penalty>
0.286704650777035

> <i_epik_Tot_Q>
2

> <i_epik_Tot_abs_Q>
2

$$$$
