2uw3_ligand
                    3D
 Schrodinger Suite 2020-3.
 21 22  0  0  1  0            999 V2000
    4.2930   10.0190    2.4950 C   0  0  0  0  0  0
    4.6250   10.3550    1.0850 C   0  0  0  0  0  0
    5.0650    9.8650    3.6530 C   0  0  0  0  0  0
    6.5190    9.9590    3.8280 C   0  0  0  0  0  0
    7.3780    9.7740    2.7500 C   0  0  0  0  0  0
    7.0640   10.1810    5.0860 C   0  0  0  0  0  0
    8.7420    9.8510    2.9240 C   0  0  0  0  0  0
    8.4300   10.2530    5.2530 C   0  0  0  0  0  0
    9.2680   10.0700    4.1770 C   0  0  0  0  0  0
    4.1570    9.5300    4.6500 C   0  0  0  0  0  0
    2.9110    9.4710    4.1780 N   0  0  0  0  0  0
    3.0070    9.7620    2.8590 N   0  0  0  0  0  0
    5.7076   10.5272    0.9943 H   0  0  0  0  0  0
    4.0828   11.2647    0.7874 H   0  0  0  0  0  0
    4.3301    9.5217    0.4303 H   0  0  0  0  0  0
    6.9691    9.5667    1.7611 H   0  0  0  0  0  0
    6.4066   10.2991    5.9474 H   0  0  0  0  0  0
    9.4066    9.7383    2.0674 H   0  0  0  0  0  0
    8.8475   10.4553    6.2393 H   0  0  0  0  0  0
   10.3486   10.0985    4.3169 H   0  0  0  0  0  0
    4.4290    9.3393    5.6881 H   0  0  0  0  0  0
  1  2  1  0  0  0
  1  3  2  0  0  0
  1 12  1  0  0  0
  2 13  1  0  0  0
  2 14  1  0  0  0
  2 15  1  0  0  0
  3  4  1  0  0  0
  3 10  1  0  0  0
  4  5  2  0  0  0
  4  6  1  0  0  0
  5  7  1  0  0  0
  5 16  1  0  0  0
  6  8  2  0  0  0
  6 17  1  0  0  0
  7  9  2  0  0  0
  7 18  1  0  0  0
  8  9  1  0  0  0
  8 19  1  0  0  0
  9 20  1  0  0  0
 10 11  1  0  0  0
 10 21  1  0  0  0
 11 12  2  0  0  0
M  END
> <s_m_source_file>
../2uw3_ligand.sdf

> <i_m_source_file_index>
1

> <s_epik_input>
TjE9TltDSDJdQyg9QzFbQ0gzXSljMltjSF1bY0hdW2NIXVtjSF1bY0hdMg==

> <s_epik_cmdline>
J2VwaWtfYXBwJywgJy1pbWFlJywgJ2xpZ2FuZF9wcm8ubWFlJywgJy1vbWFlJywgJ2xpZ2FuZF9wcmVwLm1hZScsICctbXMnLCAnMScsICctcGgnLCAnNycsICctcGh0JywgJzAuNScsICctbnQn

> <r_lp_tautomer_probability>
1

> <r_epik_Ionization_Penalty>
  0.0000

> <r_epik_Ionization_Penalty_Charging>
  0.0000

> <r_epik_Ionization_Penalty_Neutral>
  0.0000

> <r_epik_State_Penalty>
 -0.0000

> <r_epik_Charging_Adjusted_Penalty>
0

> <i_epik_Tot_Q>
0

> <i_epik_Tot_abs_Q>
0

$$$$
