2uw4_ligand
                    3D
 Schrodinger Suite 2020-3.
 31 32  0  0  1  0            999 V2000
    4.3990   10.0450    1.0270 C   0  0  0  0  0  0
    4.1070    9.9090    2.4800 C   0  0  0  0  0  0
    2.8250    9.8090    2.9440 N   0  0  0  0  0  0
    2.7950    9.6980    4.2990 N   0  3  0  0  0  0
    4.0830    9.7300    4.6900 C   0  0  0  0  0  0
    4.9410    9.8660    3.5960 C   0  0  0  0  0  0
    6.4090    9.9020    3.6190 C   0  0  0  0  0  0
    7.0930   10.2060    4.7890 C   0  0  0  0  0  0
    8.4750   10.2060    4.8130 C   0  0  0  0  0  0
    9.2000    9.8970    3.6690 C   0  0  0  0  0  0
   10.7080    9.8970    3.6870 C   0  0  0  0  0  0
   11.2940    8.4980    3.6820 C   0  0  0  0  0  0
   10.7360    7.6090    2.6270 N   0  3  0  0  0  0
    8.5140    9.5880    2.5030 C   0  0  0  0  0  0
    7.1370    9.5850    2.4790 C   0  0  0  0  0  0
    3.4558   10.0366    0.4611 H   0  0  0  0  0  0
    5.0304    9.2058    0.6998 H   0  0  0  0  0  0
    4.9266   10.9931    0.8462 H   0  0  0  0  0  0
    4.4954    9.6647    5.7077 H   0  0  0  0  0  0
    6.5360   10.4463    5.6946 H   0  0  0  0  0  0
    8.9999   10.4503    5.7365 H   0  0  0  0  0  0
   11.0853   10.4232    2.7978 H   0  0  0  0  0  0
   11.0639   10.4078    4.5939 H   0  0  0  0  0  0
   12.3798    8.5559    3.5154 H   0  0  0  0  0  0
   11.0969    8.0144    4.6501 H   0  0  0  0  0  0
   11.2115    6.6192    2.6923 H   0  0  0  0  0  0
   10.9335    8.0461    1.6371 H   0  0  0  0  0  0
    9.6506    7.5046    2.7718 H   0  0  0  0  0  0
    9.0702    9.3454    1.5976 H   0  0  0  0  0  0
    6.6135    9.3316    1.5571 H   0  0  0  0  0  0
    1.8316    9.6081    4.8223 H   0  0  0  0  0  0
  1  2  1  0  0  0
  1 16  1  0  0  0
  1 17  1  0  0  0
  1 18  1  0  0  0
  2  3  2  0  0  0
  2  6  1  0  0  0
  3  4  1  0  0  0
  4  5  1  0  0  0
  4 31  1  0  0  0
  5  6  2  0  0  0
  5 19  1  0  0  0
  6  7  1  0  0  0
  7  8  2  0  0  0
  7 15  1  0  0  0
  8  9  1  0  0  0
  8 20  1  0  0  0
  9 10  2  0  0  0
  9 21  1  0  0  0
 10 11  1  0  0  0
 10 14  1  0  0  0
 11 12  1  0  0  0
 11 22  1  0  0  0
 11 23  1  0  0  0
 12 13  1  0  0  0
 12 24  1  0  0  0
 12 25  1  0  0  0
 13 26  1  0  0  0
 13 27  1  0  0  0
 13 28  1  0  0  0
 14 15  2  0  0  0
 14 29  1  0  0  0
 15 30  1  0  0  0
M  CHG  2   4   1  13   1
M  END
> <s_m_source_file>
../2uw4_ligand.sdf

> <i_m_source_file_index>
1

> <s_epik_input>
W0NIM11jMW5bbkhdW2NIXWMxLWMyW2NIXVtjSF1jKFtjSF1bY0hdMilbQ0gyXVtDSDJdW05IMytd

> <s_epik_cmdline>
J2VwaWtfYXBwJywgJy1pbWFlJywgJ2xpZ2FuZF9wcm8ubWFlJywgJy1vbWFlJywgJ2xpZ2FuZF9wcmVwLm1hZScsICctbXMnLCAnMScsICctcGgnLCAnNycsICctcGh0JywgJzAuNScsICctbnQn

> <r_epik_Ionization_Penalty>
  0.0011

> <r_epik_Ionization_Penalty_Charging>
  0.0011

> <r_epik_Ionization_Penalty_Neutral>
  0.0000

> <r_epik_State_Penalty>
  0.3803

> <r_epik_Charging_Adjusted_Penalty>
0.381494315945292

> <i_epik_Tot_Q>
2

> <i_epik_Tot_abs_Q>
2

> <s_epik_Chemistry_Notes>
This compound has an imine and may undergo hydrolysis.

$$$$
