2uw5_ligand
                    3D
 Schrodinger Suite 2020-3.
 38 40  0  0  1  0            999 V2000
   12.5210    7.4910    3.0520 N   0  3  0  0  0  0
   11.0550    7.7400    2.9990 C   0  0  0  0  0  0
   10.7180    9.1970    3.3120 C   0  0  1  0  0  0
   11.4100   10.1950    2.4010 C   0  0  0  0  0  0
   11.5580    9.9570    1.0370 C   0  0  0  0  0  0
   12.1740   10.8910    0.2290 C   0  0  0  0  0  0
   12.6480   12.0760    0.7720 C   0  0  0  0  0  0
   13.4240   13.2530   -0.2420 Cl  0  0  0  0  0  0
   12.4980   12.3190    2.1280 C   0  0  0  0  0  0
   11.8830   11.3870    2.9350 C   0  0  0  0  0  0
    9.2110    9.3850    3.3080 C   0  0  0  0  0  0
    8.5230    9.6000    4.4960 C   0  0  0  0  0  0
    7.1520    9.7520    4.4920 C   0  0  0  0  0  0
    6.4400    9.7000    3.3010 C   0  0  0  0  0  0
    7.1270    9.4660    2.1160 C   0  0  0  0  0  0
    8.4970    9.3150    2.1190 C   0  0  0  0  0  0
    4.9780    9.8130    3.2960 C   0  0  0  0  0  0
    4.1210    9.8490    4.3900 C   0  0  0  0  0  0
    2.8490    9.8960    4.0050 N   0  3  0  0  0  0
    2.8910    9.8690    2.6490 N   0  0  0  0  0  0
    4.1580    9.8080    2.2100 C   0  0  0  0  0  0
   12.7220    6.4343    2.8217 H   0  0  0  0  0  0
   12.8964    7.7246    4.0592 H   0  0  0  0  0  0
   13.0283    8.1300    2.3142 H   0  0  0  0  0  0
   10.6796    7.5064    1.9918 H   0  0  0  0  0  0
   10.5476    7.1010    3.7367 H   0  0  0  0  0  0
   11.1088    9.4186    4.3161 H   0  0  0  0  0  0
   11.1854    9.0281    0.6052 H   0  0  0  0  0  0
   12.2882   10.6971   -0.8375 H   0  0  0  0  0  0
   12.8676   13.2502    2.5574 H   0  0  0  0  0  0
   11.7667   11.5864    4.0003 H   0  0  0  0  0  0
    9.0703    9.6489    5.4373 H   0  0  0  0  0  0
    6.6233    9.9142    5.4313 H   0  0  0  0  0  0
    6.5780    9.4013    1.1766 H   0  0  0  0  0  0
    9.0239    9.1393    1.1811 H   0  0  0  0  0  0
    4.5312    9.8367    5.4106 H   0  0  0  0  0  0
    4.3646    9.7653    1.1304 H   0  0  0  0  0  0
    1.8807    9.9469    4.5244 H   0  0  0  0  0  0
  1  2  1  0  0  0
  1 22  1  0  0  0
  1 23  1  0  0  0
  1 24  1  0  0  0
  2  3  1  0  0  0
  2 25  1  0  0  0
  2 26  1  0  0  0
  3  4  1  0  0  0
  3 11  1  0  0  0
  3 27  1  0  0  0
  4  5  2  0  0  0
  4 10  1  0  0  0
  5  6  1  0  0  0
  5 28  1  0  0  0
  6  7  2  0  0  0
  6 29  1  0  0  0
  7  8  1  0  0  0
  7  9  1  0  0  0
  9 10  2  0  0  0
  9 30  1  0  0  0
 10 31  1  0  0  0
 11 12  2  0  0  0
 11 16  1  0  0  0
 12 13  1  0  0  0
 12 32  1  0  0  0
 13 14  2  0  0  0
 13 33  1  0  0  0
 14 15  1  0  0  0
 14 17  1  0  0  0
 15 16  2  0  0  0
 15 34  1  0  0  0
 16 35  1  0  0  0
 17 18  2  0  0  0
 17 21  1  0  0  0
 18 19  1  0  0  0
 18 36  1  0  0  0
 19 20  1  0  0  0
 19 38  1  0  0  0
 20 21  2  0  0  0
 21 37  1  0  0  0
M  CHG  2   1   1  19   1
M  END
> <s_m_source_file>
../2uw5_ligand.sdf

> <i_m_source_file_index>
1

> <s_epik_input>
W2NIXTFbY0hdYyhDbClbY0hdW2NIXWMxW0NASF0oW0NIMl1bTkgzK10pYzJbY0hdW2NIXWMoW2NIXVtjSF0yKS1jM1tjSF1bbkhdbltjSF0z

> <s_epik_cmdline>
J2VwaWtfYXBwJywgJy1pbWFlJywgJ2xpZ2FuZF9wcm8ubWFlJywgJy1vbWFlJywgJ2xpZ2FuZF9wcmVwLm1hZScsICctbXMnLCAnMScsICctcGgnLCAnNycsICctcGh0JywgJzAuNScsICctbnQn

> <r_epik_Ionization_Penalty>
  0.0017

> <r_epik_Ionization_Penalty_Charging>
  0.0017

> <r_epik_Ionization_Penalty_Neutral>
  0.0000

> <r_epik_State_Penalty>
  0.4107

> <r_epik_Charging_Adjusted_Penalty>
0.412426300137575

> <i_epik_Tot_Q>
2

> <i_epik_Tot_abs_Q>
2

> <s_epik_Chemistry_Notes>
This compound has an imine and may undergo hydrolysis.

$$$$
