2uw6_ligand
                    3D
 Schrodinger Suite 2020-3.
 38 40  0  0  1  0            999 V2000
   12.3290    7.3430    2.7480 N   0  3  0  0  0  0
   10.9700    7.8370    3.0170 C   0  0  0  0  0  0
   10.8670    9.3790    3.1050 C   0  0  2  0  0  0
   11.8460    9.7920    4.1880 C   0  0  0  0  0  0
   11.7960    9.2710    5.4760 C   0  0  0  0  0  0
   12.7350    9.6380    6.4360 C   0  0  0  0  0  0
   13.7520   10.5150    6.1200 C   0  0  0  0  0  0
   14.9090   10.9560    7.3490 Cl  0  0  0  0  0  0
   13.8240   11.0320    4.8300 C   0  0  0  0  0  0
   12.8820   10.6610    3.8690 C   0  0  0  0  0  0
    9.3690    9.5690    3.2780 C   0  0  0  0  0  0
    8.5970    9.4180    2.1330 C   0  0  0  0  0  0
    7.2100    9.5120    2.1880 C   0  0  0  0  0  0
    6.5660    9.7880    3.3980 C   0  0  0  0  0  0
    7.3420    9.9090    4.5540 C   0  0  0  0  0  0
    8.7260    9.7920    4.4910 C   0  0  0  0  0  0
    5.0810    9.8370    3.4410 C   0  0  0  0  0  0
    4.2770    9.6450    4.5840 C   0  0  0  0  0  0
    3.0260    9.6850    4.2230 N   0  3  0  0  0  0
    2.9840    9.8620    2.8390 N   0  0  0  0  0  0
    4.2340    9.9430    2.3790 C   0  0  0  0  0  0
   12.3170    6.2441    2.7008 H   0  0  0  0  0  0
   13.0035    7.6681    3.5539 H   0  0  0  0  0  0
   12.6828    7.7474    1.7882 H   0  0  0  0  0  0
   10.2955    7.5119    2.2111 H   0  0  0  0  0  0
   10.6161    7.4326    3.9768 H   0  0  0  0  0  0
   11.1612   10.0431    2.2789 H   0  0  0  0  0  0
   11.0090    8.5639    5.7383 H   0  0  0  0  0  0
   12.6662    9.2296    7.4443 H   0  0  0  0  0  0
   14.6196   11.7298    4.5688 H   0  0  0  0  0  0
   12.9601   11.0576    2.8567 H   0  0  0  0  0  0
    9.0848    9.2231    1.1779 H   0  0  0  0  0  0
    6.6214    9.3695    1.2817 H   0  0  0  0  0  0
    6.8584   10.0966    5.5126 H   0  0  0  0  0  0
    9.3149    9.8762    5.4043 H   0  0  0  0  0  0
    4.7461    9.4957    5.5677 H   0  0  0  0  0  0
    4.4164   10.0731    1.3021 H   0  0  0  0  0  0
    2.0904    9.6070    4.7961 H   0  0  0  0  0  0
  1  2  1  0  0  0
  1 22  1  0  0  0
  1 23  1  0  0  0
  1 24  1  0  0  0
  2  3  1  0  0  0
  2 25  1  0  0  0
  2 26  1  0  0  0
  3  4  1  0  0  0
  3 11  1  0  0  0
  3 27  1  0  0  0
  4  5  2  0  0  0
  4 10  1  0  0  0
  5  6  1  0  0  0
  5 28  1  0  0  0
  6  7  2  0  0  0
  6 29  1  0  0  0
  7  8  1  0  0  0
  7  9  1  0  0  0
  9 10  2  0  0  0
  9 30  1  0  0  0
 10 31  1  0  0  0
 11 12  2  0  0  0
 11 16  1  0  0  0
 12 13  1  0  0  0
 12 32  1  0  0  0
 13 14  2  0  0  0
 13 33  1  0  0  0
 14 15  1  0  0  0
 14 17  1  0  0  0
 15 16  2  0  0  0
 15 34  1  0  0  0
 16 35  1  0  0  0
 17 18  2  0  0  0
 17 21  1  0  0  0
 18 19  1  0  0  0
 18 36  1  0  0  0
 19 20  1  0  0  0
 19 38  1  0  0  0
 20 21  2  0  0  0
 21 37  1  0  0  0
M  CHG  2   1   1  19   1
M  END
> <s_m_source_file>
../2uw6_ligand.sdf

> <i_m_source_file_index>
1

> <s_epik_input>
W2NIXTFbY0hdYyhDbClbY0hdW2NIXWMxW0NAQEhdKFtDSDJdW05IMytdKWMyW2NIXVtjSF1jKFtjSF1bY0hdMiktYzNbY0hdW25IXW5bY0hdMw==

> <s_epik_cmdline>
J2VwaWtfYXBwJywgJy1pbWFlJywgJ2xpZ2FuZF9wcm8ubWFlJywgJy1vbWFlJywgJ2xpZ2FuZF9wcmVwLm1hZScsICctbXMnLCAnMScsICctcGgnLCAnNycsICctcGh0JywgJzAuNScsICctbnQn

> <r_epik_Ionization_Penalty>
  0.0017

> <r_epik_Ionization_Penalty_Charging>
  0.0017

> <r_epik_Ionization_Penalty_Neutral>
  0.0000

> <r_epik_State_Penalty>
  0.4107

> <r_epik_Charging_Adjusted_Penalty>
0.412426300137575

> <i_epik_Tot_Q>
2

> <i_epik_Tot_abs_Q>
2

> <s_epik_Chemistry_Notes>
This compound has an imine and may undergo hydrolysis.

$$$$
