2uw7_ligand
                    3D
 Schrodinger Suite 2020-3.
 45 48  0  0  1  0            999 V2000
   13.3080   13.6520    0.2310 Cl  0  0  0  0  0  0
   12.5840   12.4390    1.2390 C   0  0  0  0  0  0
   12.4030   11.1570    0.7530 C   0  0  0  0  0  0
   11.8280   10.1890    1.5470 C   0  0  0  0  0  0
   11.4430   10.4800    2.8540 C   0  0  0  0  0  0
   11.6280   11.7740    3.3350 C   0  0  0  0  0  0
   12.2010   12.7420    2.5360 C   0  0  0  0  0  0
   10.7800    9.4070    3.7340 C   0  0  0  0  0  0
   11.0630    7.9740    3.2340 C   0  0  0  0  0  0
   12.5010    7.5290    3.4500 C   0  0  0  0  0  0
   12.8340    7.6310    4.8990 N   0  3  0  0  0  0
   12.6760    9.0280    5.3980 C   0  0  0  0  0  0
   11.2370    9.4680    5.2020 C   0  0  0  0  0  0
    9.2500    9.5620    3.6540 C   0  0  0  0  0  0
    8.4740    9.8010    4.7850 C   0  0  0  0  0  0
    7.1020    9.8910    4.6860 C   0  0  0  0  0  0
    6.4720    9.7610    3.4540 C   0  0  0  0  0  0
    7.2430    9.4990    2.3320 C   0  0  0  0  0  0
    8.6130    9.4020    2.4300 C   0  0  0  0  0  0
    5.0070    9.7800    3.3540 C   0  0  0  0  0  0
    4.0830    9.6650    4.4010 C   0  0  0  0  0  0
    2.8310    9.6460    3.9410 N   0  3  0  0  0  0
    2.9510    9.6990    2.5900 N   0  0  0  0  0  0
    4.2420    9.7630    2.2140 C   0  0  0  0  0  0
   12.7163   10.9116   -0.2617 H   0  0  0  0  0  0
   11.6728    9.1862    1.1490 H   0  0  0  0  0  0
   11.3179   12.0237    4.3497 H   0  0  0  0  0  0
   12.3529   13.7484    2.9262 H   0  0  0  0  0  0
   10.4149    7.2643    3.7690 H   0  0  0  0  0  0
   10.8588    7.9152    2.1547 H   0  0  0  0  0  0
   12.6161    6.4868    3.1176 H   0  0  0  0  0  0
   13.1760    8.1755    2.8700 H   0  0  0  0  0  0
   12.1639    6.9768    5.4761 H   0  0  0  0  0  0
   13.8770    7.3198    5.0584 H   0  0  0  0  0  0
   12.9315    9.0665    6.4672 H   0  0  0  0  0  0
   13.3460    9.6959    4.8367 H   0  0  0  0  0  0
   11.1522   10.5012    5.5698 H   0  0  0  0  0  0
   10.6017    8.8086    5.8115 H   0  0  0  0  0  0
    8.9550    9.9178    5.7561 H   0  0  0  0  0  0
    6.5060   10.0656    5.5818 H   0  0  0  0  0  0
    6.7603    9.3686    1.3635 H   0  0  0  0  0  0
    9.2041    9.1974    1.5374 H   0  0  0  0  0  0
    4.4353    9.6040    5.4413 H   0  0  0  0  0  0
    4.5030    9.7912    1.1458 H   0  0  0  0  0  0
    1.8339    9.6005    4.4032 H   0  0  0  0  0  0
  1  2  1  0  0  0
  2  3  2  0  0  0
  2  7  1  0  0  0
  3  4  1  0  0  0
  3 25  1  0  0  0
  4  5  2  0  0  0
  4 26  1  0  0  0
  5  6  1  0  0  0
  5  8  1  0  0  0
  6  7  2  0  0  0
  6 27  1  0  0  0
  7 28  1  0  0  0
  8  9  1  0  0  0
  8 13  1  0  0  0
  8 14  1  0  0  0
  9 10  1  0  0  0
  9 29  1  0  0  0
  9 30  1  0  0  0
 10 11  1  0  0  0
 10 31  1  0  0  0
 10 32  1  0  0  0
 11 12  1  0  0  0
 11 33  1  0  0  0
 11 34  1  0  0  0
 12 13  1  0  0  0
 12 35  1  0  0  0
 12 36  1  0  0  0
 13 37  1  0  0  0
 13 38  1  0  0  0
 14 15  2  0  0  0
 14 19  1  0  0  0
 15 16  1  0  0  0
 15 39  1  0  0  0
 16 17  2  0  0  0
 16 40  1  0  0  0
 17 18  1  0  0  0
 17 20  1  0  0  0
 18 19  2  0  0  0
 18 41  1  0  0  0
 19 42  1  0  0  0
 20 21  2  0  0  0
 20 24  1  0  0  0
 21 22  1  0  0  0
 21 43  1  0  0  0
 22 23  1  0  0  0
 22 45  1  0  0  0
 23 24  2  0  0  0
 24 44  1  0  0  0
M  CHG  2  11   1  22   1
M  END
> <s_m_source_file>
../2uw7_ligand.sdf

> <i_m_source_file_index>
1

> <s_epik_input>
Q2xjMVtjSF1bY0hdYyhbY0hdW2NIXTEpQzIoW0NIMl1bQ0gyXVtOSDIrXVtDSDJdW0NIMl0yKWMzW2NIXVtjSF1jKFtjSF1bY0hdMyktYzRbY0hdW25IXW5bY0hdNA==

> <s_epik_cmdline>
J2VwaWtfYXBwJywgJy1pbWFlJywgJ2xpZ2FuZF9wcm8ubWFlJywgJy1vbWFlJywgJ2xpZ2FuZF9wcmVwLm1hZScsICctbXMnLCAnMScsICctcGgnLCAnNycsICctcGh0JywgJzAuNScsICctbnQn

> <r_epik_Ionization_Penalty>
  0.0011

> <r_epik_Ionization_Penalty_Charging>
  0.0011

> <r_epik_Ionization_Penalty_Neutral>
  0.0000

> <r_epik_State_Penalty>
  0.4107

> <r_epik_Charging_Adjusted_Penalty>
0.411744216652657

> <i_epik_Tot_Q>
2

> <i_epik_Tot_abs_Q>
2

> <s_epik_Chemistry_Notes>
This compound has an imine and may undergo hydrolysis.

$$$$
