2uw8_ligand
                    3D
 Schrodinger Suite 2020-3.
 31 32  0  0  1  0            999 V2000
   10.9790   10.4960    1.8390 C   0  0  0  0  0  0
   11.8140   11.4510    1.2840 C   0  0  0  0  0  0
   12.7810   12.0510    2.0750 C   0  0  0  0  0  0
   12.9300   11.7090    3.4050 C   0  0  0  0  0  0
    6.6960   10.4470    3.2780 C   0  0  0  0  0  0
    6.4160   10.9900    4.5290 C   0  0  0  0  0  0
    7.3680   10.9210    5.5320 C   0  0  0  0  0  0
    8.5970   10.3160    5.2930 C   0  0  0  0  0  0
   10.2300    9.1220    3.8160 C   0  0  2  0  0  0
    7.9240    9.8390    3.0370 C   0  0  0  0  0  0
    8.8780    9.7700    4.0470 C   0  0  0  0  0  0
   11.1270   10.1490    3.1740 C   0  0  0  0  0  0
   12.0960   10.7570    3.9550 C   0  0  0  0  0  0
   10.1490    7.8480    2.9600 C   0  0  0  0  0  0
   11.5040    7.2980    2.7980 N   0  3  0  0  0  0
   13.8270   13.2460    1.3960 Cl  0  0  0  0  0  0
   10.2101   10.0198    1.2307 H   0  0  0  0  0  0
   11.7117   11.7283    0.2348 H   0  0  0  0  0  0
   13.6982   12.1860    4.0136 H   0  0  0  0  0  0
    5.9505   10.4984    2.4845 H   0  0  0  0  0  0
    5.4538   11.4662    4.7176 H   0  0  0  0  0  0
    7.1530   11.3430    6.5137 H   0  0  0  0  0  0
    9.3429   10.2700    6.0865 H   0  0  0  0  0  0
   10.6415    8.8142    4.7886 H   0  0  0  0  0  0
    8.1388    9.4162    2.0556 H   0  0  0  0  0  0
   12.1999   10.4833    5.0049 H   0  0  0  0  0  0
    9.5049    7.1102    3.4607 H   0  0  0  0  0  0
    9.7268    8.0945    1.9746 H   0  0  0  0  0  0
   11.4584    6.3849    2.1863 H   0  0  0  0  0  0
   11.9224    7.0568    3.7863 H   0  0  0  0  0  0
   12.1443    8.0412    2.3002 H   0  0  0  0  0  0
  1  2  2  0  0  0
  1 12  1  0  0  0
  1 17  1  0  0  0
  2  3  1  0  0  0
  2 18  1  0  0  0
  3  4  2  0  0  0
  3 16  1  0  0  0
  4 13  1  0  0  0
  4 19  1  0  0  0
  5  6  2  0  0  0
  5 10  1  0  0  0
  5 20  1  0  0  0
  6  7  1  0  0  0
  6 21  1  0  0  0
  7  8  2  0  0  0
  7 22  1  0  0  0
  8 11  1  0  0  0
  8 23  1  0  0  0
  9 11  1  0  0  0
  9 12  1  0  0  0
  9 14  1  0  0  0
  9 24  1  0  0  0
 10 11  2  0  0  0
 10 25  1  0  0  0
 12 13  2  0  0  0
 13 26  1  0  0  0
 14 15  1  0  0  0
 14 27  1  0  0  0
 14 28  1  0  0  0
 15 29  1  0  0  0
 15 30  1  0  0  0
 15 31  1  0  0  0
M  CHG  1  15   1
M  END
> <s_m_source_file>
../2uw8_ligand.sdf

> <i_m_source_file_index>
1

> <s_epik_input>
Q2xjMVtjSF1bY0hdYyhbY0hdW2NIXTEpW0NASF0oW0NIMl1bTkgzK10pYzJbY0hdW2NIXVtjSF1bY0hdW2NIXTI=

> <s_epik_cmdline>
J2VwaWtfYXBwJywgJy1pbWFlJywgJ2xpZ2FuZF9wcm8ubWFlJywgJy1vbWFlJywgJ2xpZ2FuZF9wcmVwLm1hZScsICctbXMnLCAnMScsICctcGgnLCAnNycsICctcGh0JywgJzAuNScsICctbnQn

> <r_lp_tautomer_probability>
1

> <r_epik_Ionization_Penalty>
  0.0017

> <r_epik_Ionization_Penalty_Charging>
  0.0017

> <r_epik_Ionization_Penalty_Neutral>
  0.0000

> <r_epik_State_Penalty>
 -0.0000

> <r_epik_Charging_Adjusted_Penalty>
0.00174646118497138

> <i_epik_Tot_Q>
1

> <i_epik_Tot_abs_Q>
1

$$$$
