2uwo_ligand
                    3D
 Schrodinger Suite 2020-3.
 53 55  0  0  1  0            999 V2000
   13.9370    7.3900   26.4430 Cl  0  0  0  0  0  0
   12.2450    7.5730   26.3190 C   0  0  0  0  0  0
   11.3060    7.0420   27.2320 C   0  0  0  0  0  0
    9.9940    7.3730   26.8330 C   0  0  0  0  0  0
    9.9530    8.1170   25.6440 C   0  0  0  0  0  0
    8.7350    8.6320   24.9240 C   0  0  0  0  0  0
    8.9900    9.6960   23.8820 C   0  0  0  0  0  0
    6.0100    8.5920   24.5560 S   0  0  0  0  0  0
    4.9870    7.8720   25.2610 O   0  0  0  0  0  0
    5.9350    9.9920   24.4140 O   0  0  0  0  0  0
    5.9310    8.0240   22.9250 N   0  0  3  0  0  0
    5.8320    6.5820   22.7650 C   0  0  1  0  0  0
    4.5110    6.0850   22.1530 C   0  0  0  0  0  0
    4.8910    4.7580   21.4910 C   0  0  0  0  0  0
    6.8980    5.9280   21.8860 C   0  0  0  0  0  0
    8.0680    6.3030   21.7470 O   0  0  0  0  0  0
    6.3470    4.8400   21.3110 N   0  0  0  0  0  0
    7.1550    3.8230   20.6180 C   0  0  1  0  0  0
    6.8170    2.4010   21.0890 C   0  0  0  0  0  0
    7.0080    3.9220   19.0870 C   0  0  0  0  0  0
    5.9470    4.3390   18.6670 O   0  0  0  0  0  0
    8.0250    3.5650   18.2390 N   0  0  0  0  0  0
    7.8660    3.8740   16.8080 C   0  0  0  0  0  0
    8.2620    2.6880   15.9280 C   0  0  0  0  0  0
    9.5220    2.2110   16.3400 O   0  0  0  0  0  0
    9.5980    1.7220   17.6610 C   0  0  0  0  0  0
    9.2870    2.8800   18.6060 C   0  0  0  0  0  0
   11.5230    8.4490   25.0570 S   0  0  0  0  0  0
    7.5340    8.0660   25.2120 C   0  0  0  0  0  0
   11.5593    6.4598   28.1180 H   0  0  0  0  0  0
    9.1041    7.0810   27.3907 H   0  0  0  0  0  0
   10.0586    9.9568   23.8781 H   0  0  0  0  0  0
    8.3951   10.5906   24.1183 H   0  0  0  0  0  0
    8.7019    9.3152   22.8910 H   0  0  0  0  0  0
    6.1166    8.6631   22.0491 H   0  0  0  0  0  0
    5.9571    6.3486   23.8326 H   0  0  0  0  0  0
    3.7643    5.9534   22.9500 H   0  0  0  0  0  0
    4.1437    6.8230   21.4247 H   0  0  0  0  0  0
    4.6055    3.9246   22.1498 H   0  0  0  0  0  0
    4.3637    4.6632   20.5303 H   0  0  0  0  0  0
    8.1868    4.0672   20.9109 H   0  0  0  0  0  0
    6.9250    2.3414   22.1821 H   0  0  0  0  0  0
    7.5027    1.6845   20.6132 H   0  0  0  0  0  0
    5.7812    2.1586   20.8091 H   0  0  0  0  0  0
    6.8148    4.1236   16.6014 H   0  0  0  0  0  0
    8.5047    4.7300   16.5445 H   0  0  0  0  0  0
    7.5121    1.8897   16.0294 H   0  0  0  0  0  0
    8.3133    3.0116   14.8779 H   0  0  0  0  0  0
    8.8652    0.9127   17.7951 H   0  0  0  0  0  0
   10.6101    1.3354   17.8513 H   0  0  0  0  0  0
   10.1200    3.5969   18.5601 H   0  0  0  0  0  0
    9.2035    2.4799   19.6272 H   0  0  0  0  0  0
    7.4799    7.2129   25.9044 H   0  0  0  0  0  0
  1  2  1  0  0  0
  2  3  2  0  0  0
  2 28  1  0  0  0
  3  4  1  0  0  0
  3 30  1  0  0  0
  4  5  2  0  0  0
  4 31  1  0  0  0
  5  6  1  0  0  0
  5 28  1  0  0  0
  6  7  1  0  0  0
  6 29  2  0  0  0
  7 32  1  0  0  0
  7 33  1  0  0  0
  7 34  1  0  0  0
  8  9  2  0  0  0
  8 10  2  0  0  0
  8 11  1  0  0  0
  8 29  1  0  0  0
 11 12  1  0  0  0
 11 35  1  0  0  0
 12 13  1  0  0  0
 12 15  1  0  0  0
 12 36  1  0  0  0
 13 14  1  0  0  0
 13 37  1  0  0  0
 13 38  1  0  0  0
 14 17  1  0  0  0
 14 39  1  0  0  0
 14 40  1  0  0  0
 15 16  2  0  0  0
 15 17  1  0  0  0
 17 18  1  0  0  0
 18 19  1  0  0  0
 18 20  1  0  0  0
 18 41  1  0  0  0
 19 42  1  0  0  0
 19 43  1  0  0  0
 19 44  1  0  0  0
 20 21  2  0  0  0
 20 22  1  0  0  0
 22 23  1  0  0  0
 22 27  1  0  0  0
 23 24  1  0  0  0
 23 45  1  0  0  0
 23 46  1  0  0  0
 24 25  1  0  0  0
 24 47  1  0  0  0
 24 48  1  0  0  0
 25 26  1  0  0  0
 26 27  1  0  0  0
 26 49  1  0  0  0
 26 50  1  0  0  0
 27 51  1  0  0  0
 27 52  1  0  0  0
 29 53  1  0  0  0
M  END
> <s_m_source_file>
../2uwo_ligand.sdf

> <i_m_source_file_index>
1

> <s_epik_input>
Q2xjMVtjSF1bY0hdYyhzMSkvQyhbQ0gzXSk9W0NIXS9TKD1PKSg9TylbTkhdW0NASF0yW0NIMl1bQ0gyXU4oQzI9TylbQ0BASF0oW0NIM10pQyg9TylOM1tDSDJdW0NIMl1PW0NIMl1bQ0gyXTM=

> <s_epik_cmdline>
J2VwaWtfYXBwJywgJy1pbWFlJywgJ2xpZ2FuZF9wcm8ubWFlJywgJy1vbWFlJywgJ2xpZ2FuZF9wcmVwLm1hZScsICctbXMnLCAnMScsICctcGgnLCAnNycsICctcGh0JywgJzAuNScsICctbnQn

> <r_lp_tautomer_probability>
1

> <r_epik_Ionization_Penalty>
  0.0001

> <r_epik_Ionization_Penalty_Charging>
  0.0000

> <r_epik_Ionization_Penalty_Neutral>
  0.0001

> <r_epik_State_Penalty>
 -0.0000

> <r_epik_Charging_Adjusted_Penalty>
0

> <i_epik_Tot_Q>
0

> <i_epik_Tot_abs_Q>
0

$$$$
