2uwp_ligand
                    3D
 Schrodinger Suite 2020-3.
 52 54  0  0  1  0            999 V2000
   13.8890    7.1760   26.1240 Cl  0  0  0  0  0  0
   12.1960    7.4610   26.0640 C   0  0  0  0  0  0
   11.3440    7.0710   27.0180 C   0  0  0  0  0  0
    9.9840    7.4670   26.6680 C   0  0  0  0  0  0
    9.8990    8.1260   25.5140 C   0  0  0  0  0  0
    8.6340    8.6640   24.9060 C   0  0  0  0  0  0
    6.5040    8.5600   23.3070 S   0  0  0  0  0  0
    6.3800    9.8990   22.8120 O   0  0  0  0  0  0
    5.7680    8.1660   24.4680 O   0  0  0  0  0  0
    5.9590    7.6380   21.9600 N   0  0  3  0  0  0
    5.9090    6.2060   22.0910 C   0  0  1  0  0  0
    4.6250    5.5960   21.5360 C   0  0  0  0  0  0
    5.0760    4.4400   20.6470 C   0  0  0  0  0  0
    7.0300    5.5660   21.2890 C   0  0  0  0  0  0
    8.1800    5.9910   21.2610 O   0  0  0  0  0  0
    6.5420    4.4800   20.6680 N   0  0  0  0  0  0
    7.3880    3.4230   20.1030 C   0  0  1  0  0  0
    7.0020    2.0600   20.7060 C   0  0  0  0  0  0
    7.2960    3.4220   18.5590 C   0  0  0  0  0  0
    6.2350    3.7630   18.0380 O   0  0  0  0  0  0
    8.3940    3.0620   17.8140 N   0  0  0  0  0  0
    9.6610    2.5140   18.3470 C   0  0  0  0  0  0
   10.1760    1.3400   17.5190 C   0  0  0  0  0  0
   10.1400    1.7080   16.1540 O   0  0  0  0  0  0
    8.8510    2.0060   15.6560 C   0  0  0  0  0  0
    8.3430    3.2580   16.3530 C   0  0  0  0  0  0
   11.4660    8.3100   24.7160 S   0  0  0  0  0  0
    8.2600    8.2020   23.5050 C   0  0  0  0  0  0
   11.6246    6.5354   27.9249 H   0  0  0  0  0  0
    9.1188    7.2443   27.2925 H   0  0  0  0  0  0
    7.7768    8.3852   25.5364 H   0  0  0  0  0  0
    8.6975    9.7600   24.8373 H   0  0  0  0  0  0
    5.8138    8.1056   20.9750 H   0  0  0  0  0  0
    5.9917    6.0728   23.1798 H   0  0  0  0  0  0
    3.9975    5.2430   22.3676 H   0  0  0  0  0  0
    4.0769    6.3563   20.9602 H   0  0  0  0  0  0
    4.6936    3.4928   21.0552 H   0  0  0  0  0  0
    4.6842    4.5855   19.6295 H   0  0  0  0  0  0
    8.4208    3.6625   20.3963 H   0  0  0  0  0  0
    7.0820    2.1081   21.8020 H   0  0  0  0  0  0
    7.6808    1.2840   20.3225 H   0  0  0  0  0  0
    5.9675    1.8142   20.4243 H   0  0  0  0  0  0
   10.4312    3.2993   18.3415 H   0  0  0  0  0  0
    9.5036    2.1620   19.3772 H   0  0  0  0  0  0
   11.2079    1.1047   17.8186 H   0  0  0  0  0  0
    9.5355    0.4621   17.6895 H   0  0  0  0  0  0
    8.9077    2.1769   14.5708 H   0  0  0  0  0  0
    8.1752    1.1623   15.8595 H   0  0  0  0  0  0
    7.3052    3.4536   16.0453 H   0  0  0  0  0  0
    8.9752    4.1143   16.0756 H   0  0  0  0  0  0
    8.8610    8.7511   22.7652 H   0  0  0  0  0  0
    8.4566    7.1239   23.4097 H   0  0  0  0  0  0
  1  2  1  0  0  0
  2  3  2  0  0  0
  2 27  1  0  0  0
  3  4  1  0  0  0
  3 29  1  0  0  0
  4  5  2  0  0  0
  4 30  1  0  0  0
  5  6  1  0  0  0
  5 27  1  0  0  0
  6 28  1  0  0  0
  6 31  1  0  0  0
  6 32  1  0  0  0
  7  8  2  0  0  0
  7  9  2  0  0  0
  7 10  1  0  0  0
  7 28  1  0  0  0
 10 11  1  0  0  0
 10 33  1  0  0  0
 11 12  1  0  0  0
 11 14  1  0  0  0
 11 34  1  0  0  0
 12 13  1  0  0  0
 12 35  1  0  0  0
 12 36  1  0  0  0
 13 16  1  0  0  0
 13 37  1  0  0  0
 13 38  1  0  0  0
 14 15  2  0  0  0
 14 16  1  0  0  0
 16 17  1  0  0  0
 17 18  1  0  0  0
 17 19  1  0  0  0
 17 39  1  0  0  0
 18 40  1  0  0  0
 18 41  1  0  0  0
 18 42  1  0  0  0
 19 20  2  0  0  0
 19 21  1  0  0  0
 21 22  1  0  0  0
 21 26  1  0  0  0
 22 23  1  0  0  0
 22 43  1  0  0  0
 22 44  1  0  0  0
 23 24  1  0  0  0
 23 45  1  0  0  0
 23 46  1  0  0  0
 24 25  1  0  0  0
 25 26  1  0  0  0
 25 47  1  0  0  0
 25 48  1  0  0  0
 26 49  1  0  0  0
 26 50  1  0  0  0
 28 51  1  0  0  0
 28 52  1  0  0  0
M  END
> <s_m_source_file>
../2uwp_ligand.sdf

> <i_m_source_file_index>
1

> <s_epik_input>
Q2xjMVtjSF1bY0hdYyhzMSlbQ0gyXVtDSDJdUyg9TykoPU8pW05IXVtDQEhdMltDSDJdW0NIMl1OKEMyPU8pW0NAQEhdKFtDSDNdKUMoPU8pTjNbQ0gyXVtDSDJdT1tDSDJdW0NIMl0z

> <s_epik_cmdline>
J2VwaWtfYXBwJywgJy1pbWFlJywgJ2xpZ2FuZF9wcm8ubWFlJywgJy1vbWFlJywgJ2xpZ2FuZF9wcmVwLm1hZScsICctbXMnLCAnMScsICctcGgnLCAnNycsICctcGh0JywgJzAuNScsICctbnQn

> <r_lp_tautomer_probability>
1

> <r_epik_Ionization_Penalty>
  0.0000

> <r_epik_Ionization_Penalty_Charging>
  0.0000

> <r_epik_Ionization_Penalty_Neutral>
  0.0000

> <r_epik_State_Penalty>
 -0.0000

> <r_epik_Charging_Adjusted_Penalty>
0

> <i_epik_Tot_Q>
0

> <i_epik_Tot_abs_Q>
0

$$$$
