2uxi_ligand
                    3D
 Schrodinger Suite 2020-3.
 33 34  0  0  1  0            999 V2000
   22.0700   37.5490   -4.4390 C   0  0  0  0  0  0
   22.2280   38.8360   -4.9340 C   0  0  0  0  0  0
   21.1540   39.6940   -5.0340 C   0  0  0  0  0  0
   19.8980   39.2480   -4.6430 C   0  0  0  0  0  0
   19.6980   37.9460   -4.1390 C   0  0  0  0  0  0
   20.8140   37.0930   -4.0360 C   0  0  0  0  0  0
   18.2600   37.5140   -3.7140 C   0  0  0  0  0  0
   17.6440   36.1170   -4.0290 C   0  0  0  0  0  0
   16.3330   35.8790   -3.1190 C   0  0  0  0  0  0
   20.7340   35.8220   -3.5610 O   0  5  0  0  0  0
   17.5670   38.3320   -3.1090 O   0  0  0  0  0  0
   15.6880   34.5080   -3.4520 C   0  0  0  0  0  0
   15.7370   34.0680   -4.7790 C   0  0  0  0  0  0
   15.2050   32.8380   -5.1300 C   0  0  0  0  0  0
   14.5930   32.0420   -4.1790 C   0  0  0  0  0  0
   14.5270   32.4680   -2.8400 C   0  0  0  0  0  0
   15.0800   33.7010   -2.4690 C   0  0  0  0  0  0
   14.0870   30.8460   -4.5950 O   0  0  0  0  0  0
   23.4320   39.2650   -5.3290 O   0  0  0  0  0  0
   18.8950   40.1380   -4.7770 O   0  0  0  0  0  0
   22.9341   36.8888   -4.3644 H   0  0  0  0  0  0
   21.2882   40.7068   -5.4140 H   0  0  0  0  0  0
   17.3621   36.0717   -5.0913 H   0  0  0  0  0  0
   18.3841   35.3326   -3.8123 H   0  0  0  0  0  0
   16.6167   35.8937   -2.0563 H   0  0  0  0  0  0
   15.6014   36.6769   -3.3142 H   0  0  0  0  0  0
   16.1966   34.6968   -5.5415 H   0  0  0  0  0  0
   15.2692   32.4953   -6.1627 H   0  0  0  0  0  0
   14.0457   31.8391   -2.0911 H   0  0  0  0  0  0
   15.0404   34.0325   -1.4314 H   0  0  0  0  0  0
   14.1619   30.5553   -5.6532 H   0  0  0  0  0  0
   24.3039   38.5980   -5.2586 H   0  0  0  0  0  0
   19.1006   41.1425   -5.1753 H   0  0  0  0  0  0
  1  2  2  0  0  0
  1  6  1  0  0  0
  1 21  1  0  0  0
  2  3  1  0  0  0
  2 19  1  0  0  0
  3  4  2  0  0  0
  3 22  1  0  0  0
  4  5  1  0  0  0
  4 20  1  0  0  0
  5  6  2  0  0  0
  5  7  1  0  0  0
  6 10  1  0  0  0
  7  8  1  0  0  0
  7 11  2  0  0  0
  8  9  1  0  0  0
  8 23  1  0  0  0
  8 24  1  0  0  0
  9 12  1  0  0  0
  9 25  1  0  0  0
  9 26  1  0  0  0
 12 13  2  0  0  0
 12 17  1  0  0  0
 13 14  1  0  0  0
 13 27  1  0  0  0
 14 15  2  0  0  0
 14 28  1  0  0  0
 15 16  1  0  0  0
 15 18  1  0  0  0
 16 17  2  0  0  0
 16 29  1  0  0  0
 17 30  1  0  0  0
 18 31  1  0  0  0
 19 32  1  0  0  0
 20 33  1  0  0  0
M  CHG  1  10  -1
M  END
> <s_m_source_file>
../2uxi_ligand.sdf

> <i_m_source_file_index>
1

> <s_epik_input>
W09IXWMxW2NIXWMoW09IXSljKGMoW2NIXTEpW09IXSlDKD1PKVtDSDJdW0NIMl1jMltjSF1bY0hdYyhbT0hdKVtjSF1bY0hdMg==

> <s_epik_cmdline>
J2VwaWtfYXBwJywgJy1pbWFlJywgJ2xpZ2FuZF9wcm8ubWFlJywgJy1vbWFlJywgJ2xpZ2FuZF9wcmVwLm1hZScsICctbXMnLCAnMScsICctcGgnLCAnNycsICctcGh0JywgJzAuNScsICctbnQn

> <r_lp_tautomer_probability>
0.999900004997115

> <r_epik_Ionization_Penalty>
  0.3790

> <r_epik_Ionization_Penalty_Charging>
  0.3760

> <r_epik_Ionization_Penalty_Neutral>
  0.0029

> <r_epik_State_Penalty>
  0.3979

> <r_epik_Charging_Adjusted_Penalty>
0.773872031908737

> <i_epik_Tot_Q>
-1

> <i_epik_Tot_abs_Q>
1

$$$$
