2uxx_ligand
                    3D
 Schrodinger Suite 2020-3.
106113  0  0  1  0            999 V2000
   70.0700   56.7020   35.3830 O   0  0  0  0  0  0
   69.3920   56.4680   30.9180 O   0  0  0  0  0  0
   69.2620   56.8020   34.4660 C   0  0  0  0  0  0
   69.6420   56.3450   33.1950 N   0  0  0  0  0  0
   69.0420   56.8590   32.0350 C   0  0  0  0  0  0
   68.0340   57.8230   32.1560 N   0  0  0  0  0  0
   67.6380   58.3000   33.4210 C   0  0  1  0  0  0
   67.8620   57.4310   34.6830 C   0  0  2  0  0  0
   67.7520   58.2310   35.9480 N   0  0  0  0  0  0
   67.3210   59.5630   35.9230 C   0  0  0  0  0  0
   67.2170   60.2210   37.1450 C   0  0  0  0  0  0
   66.7890   61.5380   37.2120 C   0  0  0  0  0  0
   66.7040   62.1980   38.5880 C   0  0  0  0  0  0
   66.4510   62.2140   36.0350 C   0  0  0  0  0  0
   65.9710   63.6660   36.0490 C   0  0  0  0  0  0
   66.5470   61.5550   34.8150 C   0  0  0  0  0  0
   66.9760   60.2270   34.7450 C   0  0  0  0  0  0
   67.0670   59.5720   33.5010 N   0  0  0  0  0  0
   66.6620   65.4290   26.8730 P   0  0  2  0  0  0
   67.6470   66.2030   26.0930 O   0  0  0  0  0  0
   65.5110   64.7880   26.2020 O   0  5  0  0  0  0
   66.0220   66.3900   27.9820 O   0  0  0  0  0  0
   66.6980   56.4170   34.9070 C   0  0  1  0  0  0
   66.8000   55.0700   34.1600 C   0  0  0  0  0  0
   67.5970   54.0250   34.6480 C   0  0  0  0  0  0
   67.6580   52.8090   33.9660 C   0  0  0  0  0  0
   66.9100   52.6310   32.8020 C   0  0  0  0  0  0
   66.1090   53.6640   32.3250 C   0  0  0  0  0  0
   66.0470   54.8810   33.0050 C   0  0  0  0  0  0
   66.7050   56.1200   36.4130 C   0  0  0  0  0  0
   67.4570   57.2830   37.0480 C   0  0  1  0  0  0
   68.6640   56.8050   37.6490 O   0  0  0  0  0  0
   66.4430   60.1620   32.2850 C   0  0  0  0  0  0
   67.4540   60.8750   31.3750 C   0  0  2  0  0  0
   68.3010   61.6940   32.1720 O   0  0  0  0  0  0
   66.7190   61.7470   30.3510 C   0  0  2  0  0  0
   65.8330   60.9200   29.6030 O   0  0  0  0  0  0
   67.6230   62.5030   29.3550 C   0  0  2  0  0  0
   68.8530   62.9440   29.9550 O   0  0  0  0  0  0
   66.8590   63.7260   28.8590 C   0  0  0  0  0  0
   67.4590   64.3110   27.7090 O   0  0  0  0  0  0
   66.8690   67.4080   28.8660 P   0  0  1  0  0  0
   66.0000   67.8650   29.9710 O   0  5  0  0  0  0
   68.1880   66.8170   29.1650 O   0  0  0  0  0  0
   67.0720   68.6230   27.8270 O   0  0  0  0  0  0
   66.1580   69.7250   27.7900 C   0  0  0  0  0  0
   66.9010   71.0490   27.9530 C   0  0  1  0  0  0
   65.9620   72.1420   27.7770 O   0  0  0  0  0  0
   67.4400   71.1950   29.3760 C   0  0  1  0  0  0
   68.8120   71.5570   29.2900 O   0  0  0  0  0  0
   66.6350   72.3550   29.9620 C   0  0  1  0  0  0
   67.4350   73.1110   30.8780 O   0  0  0  0  0  0
   66.3680   73.1600   28.7070 C   0  0  2  0  0  0
   65.2390   74.1030   28.8120 N   0  0  0  0  0  0
   64.1000   73.9340   29.4940 C   0  0  0  0  0  0
   63.3270   75.0120   29.3260 N   0  0  0  0  0  0
   63.9770   75.8610   28.5320 C   0  0  0  0  0  0
   65.1890   75.2820   28.2010 C   0  0  0  0  0  0
   66.0430   75.9350   27.3980 N   0  0  0  0  0  0
   65.7350   77.1270   26.9160 C   0  0  0  0  0  0
   64.5810   77.7110   27.2110 N   0  0  0  0  0  0
   63.6830   77.1120   28.0070 C   0  0  0  0  0  0
   62.5350   77.7140   28.2900 N   0  0  0  0  0  0
   70.4200   55.5735   33.0979 H   0  0  0  0  0  0
   67.5496   58.2082   31.2466 H   0  0  0  0  0  0
   66.6467   57.8437   33.2827 H   0  0  0  0  0  0
   67.4759   59.6931   38.0629 H   0  0  0  0  0  0
   67.0169   61.4790   39.3595 H   0  0  0  0  0  0
   65.6679   62.5139   38.7798 H   0  0  0  0  0  0
   67.3660   63.0761   38.6150 H   0  0  0  0  0  0
   65.9523   64.0360   37.0847 H   0  0  0  0  0  0
   64.9591   63.7218   35.6214 H   0  0  0  0  0  0
   66.6564   64.2845   35.4510 H   0  0  0  0  0  0
   66.2834   62.0825   33.8983 H   0  0  0  0  0  0
   65.7754   56.8736   34.5193 H   0  0  0  0  0  0
   68.1715   54.1629   35.5640 H   0  0  0  0  0  0
   68.2873   52.0019   34.3411 H   0  0  0  0  0  0
   66.9530   51.6828   32.2662 H   0  0  0  0  0  0
   65.5265   53.5217   31.4148 H   0  0  0  0  0  0
   65.4096   55.6826   32.6320 H   0  0  0  0  0  0
   65.6697   56.0604   36.7798 H   0  0  0  0  0  0
   67.2143   55.1622   36.5955 H   0  0  0  0  0  0
   66.9164   57.7825   37.8654 H   0  0  0  0  0  0
   69.3402   57.5072   38.1587 H   0  0  0  0  0  0
   65.9666   59.3657   31.6943 H   0  0  0  0  0  0
   65.6846   60.9007   32.5837 H   0  0  0  0  0  0
   68.1160   60.1548   30.8720 H   0  0  0  0  0  0
   68.9130   61.2428   32.9669 H   0  0  0  0  0  0
   66.1296   62.4852   30.9146 H   0  0  0  0  0  0
   65.0970   60.2900   30.1240 H   0  0  0  0  0  0
   67.9459   61.8336   28.5441 H   0  0  0  0  0  0
   69.5533   62.2086   30.3779 H   0  0  0  0  0  0
   65.8318   63.4343   28.5948 H   0  0  0  0  0  0
   66.8314   64.4877   29.6522 H   0  0  0  0  0  0
   65.6294   69.7307   26.8253 H   0  0  0  0  0  0
   65.4286   69.6240   28.6072 H   0  0  0  0  0  0
   67.6980   71.1083   27.1972 H   0  0  0  0  0  0
   67.4214   70.2816   29.9887 H   0  0  0  0  0  0
   69.5455   70.8418   28.8894 H   0  0  0  0  0  0
   65.7565   72.0917   30.5694 H   0  0  0  0  0  0
   67.7239   72.6747   31.8456 H   0  0  0  0  0  0
   67.2385   73.7642   28.4118 H   0  0  0  0  0  0
   63.8437   73.0584   30.0905 H   0  0  0  0  0  0
   66.4425   77.6394   26.2641 H   0  0  0  0  0  0
   61.8010   77.2195   28.9433 H   0  0  0  0  0  0
   62.3172   78.7076   27.8714 H   0  0  0  0  0  0
  1  3  2  0  0  0
  2  5  2  0  0  0
  3  4  1  0  0  0
  3  8  1  0  0  0
  4  5  1  0  0  0
  4 64  1  0  0  0
  5  6  1  0  0  0
  6  7  1  0  0  0
  6 65  1  0  0  0
  7  8  1  0  0  0
  7 18  1  0  0  0
  7 66  1  0  0  0
  8  9  1  0  0  0
  8 23  1  0  0  0
  9 10  1  0  0  0
  9 31  1  0  0  0
 10 11  2  0  0  0
 10 17  1  0  0  0
 11 12  1  0  0  0
 11 67  1  0  0  0
 12 13  1  0  0  0
 12 14  2  0  0  0
 13 68  1  0  0  0
 13 69  1  0  0  0
 13 70  1  0  0  0
 14 15  1  0  0  0
 14 16  1  0  0  0
 15 71  1  0  0  0
 15 72  1  0  0  0
 15 73  1  0  0  0
 16 17  2  0  0  0
 16 74  1  0  0  0
 17 18  1  0  0  0
 18 33  1  0  0  0
 19 20  2  0  0  0
 19 21  1  0  0  0
 19 22  1  0  0  0
 19 41  1  0  0  0
 22 42  1  0  0  0
 23 24  1  0  0  0
 23 30  1  0  0  0
 23 75  1  0  0  0
 24 25  2  0  0  0
 24 29  1  0  0  0
 25 26  1  0  0  0
 25 76  1  0  0  0
 26 27  2  0  0  0
 26 77  1  0  0  0
 27 28  1  0  0  0
 27 78  1  0  0  0
 28 29  2  0  0  0
 28 79  1  0  0  0
 29 80  1  0  0  0
 30 31  1  0  0  0
 30 81  1  0  0  0
 30 82  1  0  0  0
 31 32  1  0  0  0
 31 83  1  0  0  0
 32 84  1  0  0  0
 33 34  1  0  0  0
 33 85  1  0  0  0
 33 86  1  0  0  0
 34 35  1  0  0  0
 34 36  1  0  0  0
 34 87  1  0  0  0
 35 88  1  0  0  0
 36 37  1  0  0  0
 36 38  1  0  0  0
 36 89  1  0  0  0
 37 90  1  0  0  0
 38 39  1  0  0  0
 38 40  1  0  0  0
 38 91  1  0  0  0
 39 92  1  0  0  0
 40 41  1  0  0  0
 40 93  1  0  0  0
 40 94  1  0  0  0
 42 43  1  0  0  0
 42 44  2  0  0  0
 42 45  1  0  0  0
 45 46  1  0  0  0
 46 47  1  0  0  0
 46 95  1  0  0  0
 46 96  1  0  0  0
 47 48  1  0  0  0
 47 49  1  0  0  0
 47 97  1  0  0  0
 48 53  1  0  0  0
 49 50  1  0  0  0
 49 51  1  0  0  0
 49 98  1  0  0  0
 50 99  1  0  0  0
 51 52  1  0  0  0
 51 53  1  0  0  0
 51100  1  0  0  0
 52101  1  0  0  0
 53 54  1  0  0  0
 53102  1  0  0  0
 54 55  1  0  0  0
 54 58  1  0  0  0
 55 56  2  0  0  0
 55103  1  0  0  0
 56 57  1  0  0  0
 57 58  2  0  0  0
 57 62  1  0  0  0
 58 59  1  0  0  0
 59 60  2  0  0  0
 60 61  1  0  0  0
 60104  1  0  0  0
 61 62  2  0  0  0
 62 63  1  0  0  0
 63105  1  0  0  0
 63106  1  0  0  0
M  CHG  2  21  -1  43  -1
M  END
> <s_m_source_file>
../2uxx_ligand.sdf

> <i_m_source_file_index>
1

> <s_epik_input>
W2NIXTFbY0hdW2NIXVtjSF1bY0hdYzFbQ0BIXTJbQ0gyXVtDQEBIXShbT0hdKU4zYyhbY0hdYyhbQ0gzXSljKFtDSDNdKVtjSF00KWM0TihbQ0hdKFtDQF0yMzUpW05IXUMoPU8pW05IXUM1PU8pW0NIMl1bQ0BIXShbT0hdKVtDQEhdKFtPSF0pW0NASF0oW09IXSlbQ0gyXU9bUEBAXSg9TykoW09IXSlPW1BAXSg9TykoW09IXSlPW0NIMl1bQ0BIXTZPW0NASF0oW0NASF0oW09IXSlbQ0BASF02W09IXSluKFtjSF1uNyljKGM3OCluW2NIXW5jOFtOSDJd

> <s_epik_cmdline>
J2VwaWtfYXBwJywgJy1pbWFlJywgJ2xpZ2FuZF9wcm8ubWFlJywgJy1vbWFlJywgJ2xpZ2FuZF9wcmVwLm1hZScsICctbXMnLCAnMScsICctcGgnLCAnNycsICctcGh0JywgJzAuNScsICctbnQn

> <r_lp_tautomer_probability>
1

> <r_epik_Ionization_Penalty>
  0.0021

> <r_epik_Ionization_Penalty_Charging>
  0.0006

> <r_epik_Ionization_Penalty_Neutral>
  0.0015

> <r_epik_State_Penalty>
 -0.0000

> <r_epik_Charging_Adjusted_Penalty>
0.000586675472376959

> <i_epik_Tot_Q>
-2

> <i_epik_Tot_abs_Q>
2

> <s_epik_Chemistry_Notes>
This compound contains an acetal/aminal-like group ( X-CH(R)-Y where X, Y are N, S, or O) that may be acid/base labile, releasing an aldehyde.

$$$$
