2uxz_ligand
                    3D
 Schrodinger Suite 2020-3.
 92 95  0  0  1  0            999 V2000
   15.7540   22.3630    8.0910 C   0  0  0  0  0  0
   12.8380   23.2090    3.8820 C   0  0  0  0  0  0
   13.3760   23.7450    5.2380 C   0  0  0  0  0  0
   17.1530   22.6110    7.8560 C   0  0  0  0  0  0
   14.5670   22.9560    5.8420 C   0  0  2  0  0  0
   18.1480   21.8080    8.4960 C   0  0  0  0  0  0
   17.7520   20.7450    9.3700 C   0  0  0  0  0  0
   16.3600   20.4910    9.6140 C   0  0  0  0  0  0
   15.3610   21.2930    8.9760 C   0  0  0  0  0  0
    8.2410   24.1530    2.7100 C   0  0  0  0  0  0
    7.7800   23.1110    3.5820 C   0  0  0  0  0  0
    6.4090   23.0470    3.9510 C   0  0  0  0  0  0
    5.4960   24.0280    3.4520 C   0  0  0  0  0  0
    5.9410   25.0760    2.5760 C   0  0  0  0  0  0
    7.3300   25.1390    2.2030 C   0  0  0  0  0  0
    9.7300   24.2120    2.3400 C   0  0  0  0  0  0
    5.3530   27.7850    5.8960 C   0  0  0  0  0  0
   11.9590   24.2120    3.1340 C   0  0  0  0  0  0
    8.2340   28.0370    5.0920 O   0  0  0  0  0  0
    8.1990   26.0930    6.3170 N   0  0  0  0  0  0
   14.6430   23.1900    7.3900 C   0  0  0  0  0  0
   15.7070   23.5790    5.2600 O   0  0  0  0  0  0
    6.2900   26.8060    5.4230 O   0  0  0  0  0  0
   14.5790   21.4220    5.6040 C   0  0  0  0  0  0
   13.5820   20.7200    5.8270 O   0  0  0  0  0  0
   15.7660   20.9170    5.1820 N   0  0  0  0  0  0
   15.9670   19.4520    4.9410 C   0  0  1  0  0  0
   15.9850   19.0580    3.5020 C   0  0  0  0  0  0
   17.0370   18.1050    3.3470 C   0  0  0  0  0  0
   15.1600   19.4800    2.3890 C   0  0  0  0  0  0
   15.4390   18.9010    1.0800 C   0  0  0  0  0  0
   16.5160   17.9290    0.9250 C   0  0  0  0  0  0
   17.3650   19.1260    5.4990 C   0  0  2  0  0  0
   18.3440   20.1190    5.1510 O   0  0  0  0  0  0
    7.6650   27.0630    5.5810 C   0  0  0  0  0  0
   17.3290   17.5200    2.0630 C   0  0  0  0  0  0
   17.7290   17.8580    4.6870 C   0  0  0  0  0  0
    9.6230   26.0150    6.6930 C   0  0  1  0  0  0
    9.8480   26.0480    8.2470 C   0  0  0  0  0  0
    9.3780   27.3990    8.7970 C   0  0  0  0  0  0
    9.0270   24.9730    8.9510 C   0  0  0  0  0  0
    9.9780   24.8390    5.7930 C   0  0  0  0  0  0
   10.5880   24.0240    3.4930 N   0  0  1  0  0  0
   10.0170   23.6860    6.2600 O   0  0  0  0  0  0
   10.2330   25.1090    4.5020 N   0  0  0  0  0  0
    3.7300   23.9070    3.9650 Br  0  0  0  0  0  0
   11.3100   25.9400    8.6360 C   0  0  0  0  0  0
   13.6840   22.9590    3.2249 H   0  0  0  0  0  0
   12.2320   22.3081    4.0583 H   0  0  0  0  0  0
   13.7225   24.7812    5.1111 H   0  0  0  0  0  0
   12.5723   23.7165    5.9884 H   0  0  0  0  0  0
   17.4553   23.4159    7.1860 H   0  0  0  0  0  0
   19.2054   22.0045    8.3190 H   0  0  0  0  0  0
   18.5096   20.1268    9.8515 H   0  0  0  0  0  0
   16.0636   19.6859   10.2864 H   0  0  0  0  0  0
   14.3046   21.0959    9.1583 H   0  0  0  0  0  0
    8.4816   22.3682    3.9616 H   0  0  0  0  0  0
    6.0554   22.2546    4.6107 H   0  0  0  0  0  0
    5.2348   25.8152    2.1980 H   0  0  0  0  0  0
    7.6865   25.9285    1.5414 H   0  0  0  0  0  0
    9.9584   23.4203    1.6112 H   0  0  0  0  0  0
    9.9597   25.1933    1.8993 H   0  0  0  0  0  0
    4.3283   27.4368    5.6994 H   0  0  0  0  0  0
    5.5231   28.7378    5.3733 H   0  0  0  0  0  0
    5.4896   27.9306    6.9777 H   0  0  0  0  0  0
   12.2649   25.2353    3.3972 H   0  0  0  0  0  0
   12.0729   24.0626    2.0502 H   0  0  0  0  0  0
    7.4987   25.3127    6.6499 H   0  0  0  0  0  0
   13.6635   22.9192    7.8110 H   0  0  0  0  0  0
   14.8274   24.2624    7.5509 H   0  0  0  0  0  0
   15.8418   24.6675    5.3439 H   0  0  0  0  0  0
   16.5954   21.6204    5.0169 H   0  0  0  0  0  0
   15.1115   18.9275    5.3916 H   0  0  0  0  0  0
   14.3580   20.2055    2.5251 H   0  0  0  0  0  0
   14.8423   19.1947    0.2164 H   0  0  0  0  0  0
   16.7156   17.5020   -0.0578 H   0  0  0  0  0  0
   17.4002   19.0934    6.5980 H   0  0  0  0  0  0
   18.2974   21.1200    5.6047 H   0  0  0  0  0  0
   18.1334   16.7937    1.9465 H   0  0  0  0  0  0
   17.3342   16.9362    5.1391 H   0  0  0  0  0  0
   18.8121   17.7528    4.5265 H   0  0  0  0  0  0
   10.2923   26.8596    6.4725 H   0  0  0  0  0  0
    8.3163   27.5462    8.5498 H   0  0  0  0  0  0
    9.9747   28.2059    8.3465 H   0  0  0  0  0  0
    9.5057   27.4146    9.8895 H   0  0  0  0  0  0
    7.9711   25.0669    8.6572 H   0  0  0  0  0  0
    9.1170   25.0975   10.0402 H   0  0  0  0  0  0
    9.4007   23.9792    8.6634 H   0  0  0  0  0  0
   10.1778   26.1602    4.1827 H   0  0  0  0  0  0
   11.8856   26.7221    8.1193 H   0  0  0  0  0  0
   11.6942   24.9506    8.3470 H   0  0  0  0  0  0
   11.4105   26.0689    9.7238 H   0  0  0  0  0  0
  1  4  2  0  0  0
  1  9  1  0  0  0
  1 21  1  0  0  0
  2  3  1  0  0  0
  2 18  1  0  0  0
  2 48  1  0  0  0
  2 49  1  0  0  0
  3  5  1  0  0  0
  3 50  1  0  0  0
  3 51  1  0  0  0
  4  6  1  0  0  0
  4 52  1  0  0  0
  5 21  1  0  0  0
  5 22  1  0  0  0
  5 24  1  0  0  0
  6  7  2  0  0  0
  6 53  1  0  0  0
  7  8  1  0  0  0
  7 54  1  0  0  0
  8  9  2  0  0  0
  8 55  1  0  0  0
  9 56  1  0  0  0
 10 11  2  0  0  0
 10 15  1  0  0  0
 10 16  1  0  0  0
 11 12  1  0  0  0
 11 57  1  0  0  0
 12 13  2  0  0  0
 12 58  1  0  0  0
 13 14  1  0  0  0
 13 46  1  0  0  0
 14 15  2  0  0  0
 14 59  1  0  0  0
 15 60  1  0  0  0
 16 43  1  0  0  0
 16 61  1  0  0  0
 16 62  1  0  0  0
 17 23  1  0  0  0
 17 63  1  0  0  0
 17 64  1  0  0  0
 17 65  1  0  0  0
 18 43  1  0  0  0
 18 66  1  0  0  0
 18 67  1  0  0  0
 19 35  2  0  0  0
 20 35  1  0  0  0
 20 38  1  0  0  0
 20 68  1  0  0  0
 21 69  1  0  0  0
 21 70  1  0  0  0
 22 71  1  0  0  0
 23 35  1  0  0  0
 24 25  2  0  0  0
 24 26  1  0  0  0
 26 27  1  0  0  0
 26 72  1  0  0  0
 27 28  1  0  0  0
 27 33  1  0  0  0
 27 73  1  0  0  0
 28 29  2  0  0  0
 28 30  1  0  0  0
 29 36  1  0  0  0
 29 37  1  0  0  0
 30 31  2  0  0  0
 30 74  1  0  0  0
 31 32  1  0  0  0
 31 75  1  0  0  0
 32 36  2  0  0  0
 32 76  1  0  0  0
 33 34  1  0  0  0
 33 37  1  0  0  0
 33 77  1  0  0  0
 34 78  1  0  0  0
 36 79  1  0  0  0
 37 80  1  0  0  0
 37 81  1  0  0  0
 38 39  1  0  0  0
 38 42  1  0  0  0
 38 82  1  0  0  0
 39 40  1  0  0  0
 39 41  1  0  0  0
 39 47  1  0  0  0
 40 83  1  0  0  0
 40 84  1  0  0  0
 40 85  1  0  0  0
 41 86  1  0  0  0
 41 87  1  0  0  0
 41 88  1  0  0  0
 42 44  2  0  0  0
 42 45  1  0  0  0
 43 45  1  0  0  0
 45 89  1  0  0  0
 47 90  1  0  0  0
 47 91  1  0  0  0
 47 92  1  0  0  0
M  END
> <s_m_source_file>
../2uxz_ligand.sdf

> <i_m_source_file_index>
1

> <s_epik_input>
W2NIXTFbY0hdW2NIXVtjSF1jKGMxMilbQ0gyXVtDQEBIXShbT0hdKVtDQEhdMltOSF1DKD1PKVtDQF0oW09IXSkoW0NIMl1jM1tjSF1bY0hdW2NIXVtjSF1bY0hdMylbQ0gyXVtDSDJdW0NIMl1bTkBIK10oW0NIMl1jNFtjSF1bY0hdYyhCcilbY0hdW2NIXTQpW05IXUMoPU8pW0NASF0oQyhbQ0gzXSkoW0NIM10pW0NIM10pW05IXUMoPU8pT1tDSDNd

> <s_epik_cmdline>
J2VwaWtfYXBwJywgJy1pbWFlJywgJ2xpZ2FuZF9wcm8ubWFlJywgJy1vbWFlJywgJ2xpZ2FuZF9wcmVwLm1hZScsICctbXMnLCAnMScsICctcGgnLCAnNycsICctcGh0JywgJzAuNScsICctbnQn

> <r_lp_tautomer_probability>
1

> <r_epik_Ionization_Penalty>
  0.0000

> <r_epik_Ionization_Penalty_Charging>
  0.0000

> <r_epik_Ionization_Penalty_Neutral>
  0.0000

> <r_epik_State_Penalty>
 -0.0000

> <r_epik_Charging_Adjusted_Penalty>
0

> <i_epik_Tot_Q>
0

> <i_epik_Tot_abs_Q>
0

> <s_epik_Chemistry_Notes>
This compound has an ester and may undergo hydrolysis at high or low pH.

$$$$
