2uy0_ligand
                    3D
 Schrodinger Suite 2020-3.
 91 94  0  0  1  0            999 V2000
   13.6780   24.3350    4.9700 C   0  0  0  0  0  0
   13.7950   23.8280    6.4180 C   0  0  0  0  0  0
   11.2830   23.6870    4.5210 N   0  0  0  0  0  0
   10.7220   24.7460    5.0700 N   0  0  0  0  0  0
    8.0520   25.8580    6.3230 N   0  0  0  0  0  0
   13.1470   22.8010    3.3690 O   0  0  0  0  0  0
   12.6400   23.5620    4.2270 C   0  0  0  0  0  0
   10.0500   24.5350    6.2140 C   0  0  0  0  0  0
    5.2760   27.4690    5.9160 C   0  0  0  0  0  0
    6.2190   26.5850    5.2810 O   0  0  0  0  0  0
    7.5980   26.8000    5.4990 C   0  0  0  0  0  0
    8.2430   27.7180    4.9930 O   0  0  0  0  0  0
    9.4610   25.7770    6.7630 C   0  0  2  0  0  0
    9.3880   25.9320    8.3510 C   0  0  0  0  0  0
    8.5490   24.8600    9.0980 C   0  0  0  0  0  0
   10.8080   25.8860    8.8910 C   0  0  0  0  0  0
    8.7620   27.2960    8.7690 C   0  0  0  0  0  0
    9.9610   23.3970    6.7180 O   0  0  0  0  0  0
   10.6690   23.1740    3.2590 C   0  0  0  0  0  0
    9.4460   23.8260    2.7380 C   0  0  0  0  0  0
    8.1540   23.3900    3.1000 C   0  0  0  0  0  0
    7.0390   24.0450    2.5630 C   0  0  0  0  0  0
    7.2450   25.1170    1.6760 C   0  0  0  0  0  0
    5.8820   26.1050    0.8420 Br  0  0  0  0  0  0
    8.5650   25.5170    1.3470 C   0  0  0  0  0  0
    9.6630   24.8670    1.8820 C   0  0  0  0  0  0
   14.9370   22.7860    6.6080 C   0  0  1  0  0  0
   16.1120   23.4540    6.0610 O   0  0  0  0  0  0
   15.0810   22.6650    8.1390 C   0  0  0  0  0  0
   16.1600   21.7210    8.6310 C   0  0  0  0  0  0
   15.7500   20.5910    9.3940 C   0  0  0  0  0  0
   16.7340   19.7060    9.8480 C   0  0  0  0  0  0
   18.0760   19.9520    9.5440 C   0  0  0  0  0  0
   18.5000   21.0690    8.7910 C   0  0  0  0  0  0
   17.5250   21.9680    8.3270 C   0  0  0  0  0  0
   14.7320   21.3100    6.0660 C   0  0  0  0  0  0
   13.7970   20.5310    6.3020 O   0  0  0  0  0  0
   15.8850   20.9260    5.4290 N   0  0  0  0  0  0
   16.0780   19.4820    5.0110 C   0  0  1  0  0  0
   15.8420   19.1640    3.5900 C   0  0  0  0  0  0
   14.8580   19.6880    2.6320 C   0  0  0  0  0  0
   14.8860   19.1540    1.2620 C   0  0  0  0  0  0
   15.8770   18.1300    0.8880 C   0  0  0  0  0  0
   16.8520   17.6200    1.8700 C   0  0  0  0  0  0
   16.8100   18.1600    3.2270 C   0  0  0  0  0  0
   17.6960   17.8070    4.4290 C   0  0  0  0  0  0
   17.5110   19.0220    5.3790 C   0  0  1  0  0  0
   18.5390   19.9640    5.0140 O   0  0  0  0  0  0
   13.3956   25.3981    4.9755 H   0  0  0  0  0  0
   14.6454   24.2152    4.4602 H   0  0  0  0  0  0
   14.0017   24.6758    7.0877 H   0  0  0  0  0  0
   12.8514   23.3473    6.7156 H   0  0  0  0  0  0
   10.8195   25.7310    4.5902 H   0  0  0  0  0  0
    7.3213   25.1165    6.6784 H   0  0  0  0  0  0
    4.2528   27.1682    5.6468 H   0  0  0  0  0  0
    5.4557   28.5004    5.5786 H   0  0  0  0  0  0
    5.3993   27.4136    7.0077 H   0  0  0  0  0  0
   10.1281   26.5285    6.3155 H   0  0  0  0  0  0
    8.9321   23.8584    8.8530 H   0  0  0  0  0  0
    7.4965   24.9362    8.7874 H   0  0  0  0  0  0
    8.6241   25.0261   10.1828 H   0  0  0  0  0  0
   11.2763   24.9311    8.6102 H   0  0  0  0  0  0
   10.7865   25.9756    9.9871 H   0  0  0  0  0  0
   11.3889   26.7181    8.4664 H   0  0  0  0  0  0
    7.7310   27.3575    8.3906 H   0  0  0  0  0  0
    9.3577   28.1180    8.3454 H   0  0  0  0  0  0
    8.7554   27.3755    9.8661 H   0  0  0  0  0  0
   11.3961   23.2562    2.4377 H   0  0  0  0  0  0
   10.3838   22.1200    3.3920 H   0  0  0  0  0  0
    8.0255   22.5547    3.7883 H   0  0  0  0  0  0
    6.0297   23.7298    2.8276 H   0  0  0  0  0  0
    8.7172   26.3504    0.6612 H   0  0  0  0  0  0
   10.6758   25.1783    1.6264 H   0  0  0  0  0  0
   16.3523   24.4828    6.3674 H   0  0  0  0  0  0
   15.3203   23.6510    8.5638 H   0  0  0  0  0  0
   14.1363   22.3002    8.5685 H   0  0  0  0  0  0
   14.6972   20.4199    9.6185 H   0  0  0  0  0  0
   16.4560   18.8305   10.4348 H   0  0  0  0  0  0
   18.8286   19.2506    9.9041 H   0  0  0  0  0  0
   19.5563   21.2295    8.5754 H   0  0  0  0  0  0
   17.8121   22.8420    7.7424 H   0  0  0  0  0  0
   16.6700   21.6682    5.2218 H   0  0  0  0  0  0
   15.2671   18.9441    5.5239 H   0  0  0  0  0  0
   14.1326   20.4462    2.9268 H   0  0  0  0  0  0
   14.1724   19.5164    0.5221 H   0  0  0  0  0  0
   15.8898   17.7431   -0.1309 H   0  0  0  0  0  0
   17.5835   16.8615    1.5912 H   0  0  0  0  0  0
   17.3467   16.8656    4.8781 H   0  0  0  0  0  0
   18.7375   17.6896    4.0950 H   0  0  0  0  0  0
   17.6527   18.9015    6.4632 H   0  0  0  0  0  0
   18.6218   20.9221    5.5481 H   0  0  0  0  0  0
  1  2  1  0  0  0
  1  7  1  0  0  0
  1 49  1  0  0  0
  1 50  1  0  0  0
  2 27  1  0  0  0
  2 51  1  0  0  0
  2 52  1  0  0  0
  3  4  1  0  0  0
  3  7  1  0  0  0
  3 19  1  0  0  0
  4  8  1  0  0  0
  4 53  1  0  0  0
  5 11  1  0  0  0
  5 13  1  0  0  0
  5 54  1  0  0  0
  6  7  2  0  0  0
  8 13  1  0  0  0
  8 18  2  0  0  0
  9 10  1  0  0  0
  9 55  1  0  0  0
  9 56  1  0  0  0
  9 57  1  0  0  0
 10 11  1  0  0  0
 11 12  2  0  0  0
 13 14  1  0  0  0
 13 58  1  0  0  0
 14 15  1  0  0  0
 14 16  1  0  0  0
 14 17  1  0  0  0
 15 59  1  0  0  0
 15 60  1  0  0  0
 15 61  1  0  0  0
 16 62  1  0  0  0
 16 63  1  0  0  0
 16 64  1  0  0  0
 17 65  1  0  0  0
 17 66  1  0  0  0
 17 67  1  0  0  0
 19 20  1  0  0  0
 19 68  1  0  0  0
 19 69  1  0  0  0
 20 21  2  0  0  0
 20 26  1  0  0  0
 21 22  1  0  0  0
 21 70  1  0  0  0
 22 23  2  0  0  0
 22 71  1  0  0  0
 23 24  1  0  0  0
 23 25  1  0  0  0
 25 26  2  0  0  0
 25 72  1  0  0  0
 26 73  1  0  0  0
 27 28  1  0  0  0
 27 29  1  0  0  0
 27 36  1  0  0  0
 28 74  1  0  0  0
 29 30  1  0  0  0
 29 75  1  0  0  0
 29 76  1  0  0  0
 30 31  2  0  0  0
 30 35  1  0  0  0
 31 32  1  0  0  0
 31 77  1  0  0  0
 32 33  2  0  0  0
 32 78  1  0  0  0
 33 34  1  0  0  0
 33 79  1  0  0  0
 34 35  2  0  0  0
 34 80  1  0  0  0
 35 81  1  0  0  0
 36 37  2  0  0  0
 36 38  1  0  0  0
 38 39  1  0  0  0
 38 82  1  0  0  0
 39 40  1  0  0  0
 39 47  1  0  0  0
 39 83  1  0  0  0
 40 41  2  0  0  0
 40 45  1  0  0  0
 41 42  1  0  0  0
 41 84  1  0  0  0
 42 43  2  0  0  0
 42 85  1  0  0  0
 43 44  1  0  0  0
 43 86  1  0  0  0
 44 45  2  0  0  0
 44 87  1  0  0  0
 45 46  1  0  0  0
 46 47  1  0  0  0
 46 88  1  0  0  0
 46 89  1  0  0  0
 47 48  1  0  0  0
 47 90  1  0  0  0
 48 91  1  0  0  0
M  END
> <s_m_source_file>
../2uy0_ligand.sdf

> <i_m_source_file_index>
1

> <s_epik_input>
W0NIM11PQyg9TylbTkhdW0NAQEhdKEMoW0NIM10pKFtDSDNdKVtDSDNdKUMoPU8pW05IXU4oW0NIMl1jMVtjSF1bY0hdYyhCcilbY0hdW2NIXTEpQyg9TylbQ0gyXVtDSDJdW0NAQF0oW09IXSkoW0NIMl1jMltjSF1bY0hdW2NIXVtjSF1bY0hdMilDKD1PKVtOSF1bQ0BASF0zW0NASF0oW09IXSlbQ0gyXWMoYzM0KVtjSF1bY0hdW2NIXVtjSF00

> <s_epik_cmdline>
J2VwaWtfYXBwJywgJy1pbWFlJywgJ2xpZ2FuZF9wcm8ubWFlJywgJy1vbWFlJywgJ2xpZ2FuZF9wcmVwLm1hZScsICctbXMnLCAnMScsICctcGgnLCAnNycsICctcGh0JywgJzAuNScsICctbnQn

> <r_lp_tautomer_probability>
1

> <r_epik_Ionization_Penalty>
  0.0001

> <r_epik_Ionization_Penalty_Charging>
  0.0000

> <r_epik_Ionization_Penalty_Neutral>
  0.0001

> <r_epik_State_Penalty>
 -0.0000

> <r_epik_Charging_Adjusted_Penalty>
0

> <i_epik_Tot_Q>
0

> <i_epik_Tot_abs_Q>
0

> <s_epik_Chemistry_Notes>
This compound has an ester and may undergo hydrolysis at high or low pH.

$$$$
