2uy3_ligand
                    3D
 Schrodinger Suite 2020-3.
 21 22  0  0  1  0            999 V2000
   38.0740   20.5310   22.2120 N   0  0  0  0  0  0
   38.0800   20.3950   23.6110 C   0  0  0  0  0  0
   38.3160   21.5330   24.4230 C   0  0  0  0  0  0
   38.5410   22.7850   23.8480 C   0  0  0  0  0  0
   38.5160   22.9470   22.4450 N   0  0  0  0  0  0
   38.2900   21.8140   21.6190 C   0  0  0  0  0  0
   38.3750   21.7180   25.7600 N   0  3  0  0  0  0
   38.6340   23.0180   25.9920 C   0  0  0  0  0  0
   38.7210   23.6690   24.8450 N   0  0  0  0  0  0
   38.7420   24.2830   21.8250 C   0  0  0  0  0  0
   37.8330   19.3220   21.3800 C   0  0  0  0  0  0
   38.2790   21.9290   20.3930 O   0  0  0  0  0  0
   37.8800   19.2610   24.0680 O   0  0  0  0  0  0
   38.8080   23.6990   27.3560 Cl  0  0  0  0  0  0
   38.8977   25.0323   22.6152 H   0  0  0  0  0  0
   37.8641   24.5613   21.2235 H   0  0  0  0  0  0
   39.6311   24.2416   21.1786 H   0  0  0  0  0  0
   37.6927   18.4488   22.0341 H   0  0  0  0  0  0
   38.6975   19.1518   20.7215 H   0  0  0  0  0  0
   36.9305   19.4713   20.7691 H   0  0  0  0  0  0
   38.2197   20.8676   26.4403 H   0  0  0  0  0  0
  1  2  1  0  0  0
  1  6  1  0  0  0
  1 11  1  0  0  0
  2  3  1  0  0  0
  2 13  2  0  0  0
  3  4  2  0  0  0
  3  7  1  0  0  0
  4  5  1  0  0  0
  4  9  1  0  0  0
  5  6  1  0  0  0
  5 10  1  0  0  0
  6 12  2  0  0  0
  7  8  2  0  0  0
  7 21  1  0  0  0
  8  9  1  0  0  0
  8 14  1  0  0  0
 10 15  1  0  0  0
 10 16  1  0  0  0
 10 17  1  0  0  0
 11 18  1  0  0  0
 11 19  1  0  0  0
 11 20  1  0  0  0
M  CHG  1   7   1
M  END
> <s_m_source_file>
../2uy3_ligand.sdf

> <i_m_source_file_index>
1

> <s_epik_input>
Tz1jMW4oW0NIM10pYyg9TyluKFtDSDNdKWMoYzEyKVtuSF1jKG4yKUNs

> <s_epik_cmdline>
J2VwaWtfYXBwJywgJy1pbWFlJywgJ2xpZ2FuZF9wcm8ubWFlJywgJy1vbWFlJywgJ2xpZ2FuZF9wcmVwLm1hZScsICctbXMnLCAnMScsICctcGgnLCAnNycsICctcGh0JywgJzAuNScsICctbnQn

> <r_lp_tautomer_probability>
1

> <r_epik_Ionization_Penalty>
  0.0004

> <r_epik_Ionization_Penalty_Charging>
  0.0000

> <r_epik_Ionization_Penalty_Neutral>
  0.0004

> <r_epik_State_Penalty>
 -0.0000

> <r_epik_Charging_Adjusted_Penalty>
1.97580784895138e-11

> <i_epik_Tot_Q>
1

> <i_epik_Tot_abs_Q>
1

$$$$
