2uy4_ligand
                    3D
 Schrodinger Suite 2020-3.
 19 19  0  0  1  0            999 V2000
   38.1430   20.2690   22.3930 C   0  0  0  0  0  0
   38.2450   20.9340   24.6690 C   0  0  0  0  0  0
   38.7520   22.7650   26.0550 C   0  0  0  0  0  0
   38.8830   23.1260   27.5120 C   0  0  0  0  0  0
   36.5850   20.1440   20.2020 N   0  0  0  0  0  0
   37.9070   19.6430   24.4510 N   0  0  0  0  0  0
   37.8560   19.2870   23.2430 N   0  0  0  0  0  0
   38.3900   21.5060   25.8640 N   0  0  0  0  0  0
   38.7910   18.8180   20.2920 O   0  0  0  0  0  0
   38.8970   21.2590   20.0970 O   0  0  0  0  0  0
   38.9690   23.6020   25.1840 O   0  0  0  0  0  0
   38.1430   20.1190   20.6910 S   0  0  0  0  0  0
   38.5130   21.7020   23.2090 S   0  0  0  0  0  0
   38.6490   22.2467   28.1301 H   0  0  0  0  0  0
   38.1832   23.9399   27.7524 H   0  0  0  0  0  0
   39.9124   23.4549   27.7171 H   0  0  0  0  0  0
   36.5429   20.0493   19.1069 H   0  0  0  0  0  0
   36.1205   21.0936   20.5061 H   0  0  0  0  0  0
   38.2049   20.9236   26.7786 H   0  0  0  0  0  0
  1  7  2  0  0  0
  1 12  1  0  0  0
  1 13  1  0  0  0
  2  6  2  0  0  0
  2  8  1  0  0  0
  2 13  1  0  0  0
  3  4  1  0  0  0
  3  8  1  0  0  0
  3 11  2  0  0  0
  4 14  1  0  0  0
  4 15  1  0  0  0
  4 16  1  0  0  0
  5 12  1  0  0  0
  5 17  1  0  0  0
  5 18  1  0  0  0
  6  7  1  0  0  0
  8 19  1  0  0  0
  9 12  2  0  0  0
 10 12  2  0  0  0
M  END
> <s_m_source_file>
../2uy4_ligand.sdf

> <i_m_source_file_index>
1

> <s_epik_input>
W05IMl1TKD1PKSg9TyljMW5uYyhzMSlbTkhdQyg9TylbQ0gzXQ==

> <s_epik_cmdline>
J2VwaWtfYXBwJywgJy1pbWFlJywgJ2xpZ2FuZF9wcm8ubWFlJywgJy1vbWFlJywgJ2xpZ2FuZF9wcmVwLm1hZScsICctbXMnLCAnMScsICctcGgnLCAnNycsICctcGh0JywgJzAuNScsICctbnQn

> <r_lp_tautomer_probability>
1

> <r_epik_Ionization_Penalty>
  0.2847

> <r_epik_Ionization_Penalty_Charging>
  0.0000

> <r_epik_Ionization_Penalty_Neutral>
  0.2847

> <r_epik_State_Penalty>
 -0.0000

> <r_epik_Charging_Adjusted_Penalty>
0

> <i_epik_Tot_Q>
0

> <i_epik_Tot_abs_Q>
0

$$$$
