2uy5_ligand
                    3D
 Schrodinger Suite 2020-3.
 25 27  0  0  1  0            999 V2000
   39.8000   25.9940   28.7230 C   0  0  0  0  0  0
   40.6000   27.0690   28.6410 C   0  0  0  0  0  0
   41.4600   26.9030   27.6230 C   0  0  0  0  0  0
   41.1990   25.6780   27.0690 O   0  0  0  0  0  0
   40.1550   25.1380   27.7530 C   0  0  0  0  0  0
   39.5950   23.7640   27.3750 C   0  0  0  0  0  0
   39.1250   23.8690   25.9490 N   0  0  0  0  0  0
   38.7510   22.8210   25.2340 C   0  0  0  0  0  0
   38.5140   21.6520   25.8190 N   0  0  0  0  0  0
   38.1520   20.5790   25.1040 C   0  0  0  0  0  0
   38.0000   20.6090   23.7670 N   0  0  0  0  0  0
   38.2040   21.7630   23.1200 C   0  0  0  0  0  0
   38.5860   22.8960   23.8360 C   0  0  0  0  0  0
   38.7190   23.8750   22.9460 N   0  0  0  0  0  0
   38.4570   23.3940   21.7250 C   0  0  0  0  0  0
   38.1320   22.1000   21.8240 N   0  3  0  0  0  0
   39.0021   25.8432   29.4501 H   0  0  0  0  0  0
   40.5581   27.9387   29.2967 H   0  0  0  0  0  0
   42.2229   27.6107   27.2984 H   0  0  0  0  0  0
   40.3863   23.0061   27.4724 H   0  0  0  0  0  0
   38.7605   23.5111   28.0455 H   0  0  0  0  0  0
   39.0811   24.8510   25.4552 H   0  0  0  0  0  0
   37.9726   19.6401   25.6279 H   0  0  0  0  0  0
   38.5013   23.9653   20.7978 H   0  0  0  0  0  0
   37.8436   21.3475   21.0753 H   0  0  0  0  0  0
  1  2  1  0  0  0
  1  5  2  0  0  0
  1 17  1  0  0  0
  2  3  2  0  0  0
  2 18  1  0  0  0
  3  4  1  0  0  0
  3 19  1  0  0  0
  4  5  1  0  0  0
  5  6  1  0  0  0
  6  7  1  0  0  0
  6 20  1  0  0  0
  6 21  1  0  0  0
  7  8  1  0  0  0
  7 22  1  0  0  0
  8  9  2  0  0  0
  8 13  1  0  0  0
  9 10  1  0  0  0
 10 11  2  0  0  0
 10 23  1  0  0  0
 11 12  1  0  0  0
 12 13  2  0  0  0
 12 16  1  0  0  0
 13 14  1  0  0  0
 14 15  1  0  0  0
 15 16  2  0  0  0
 15 24  1  0  0  0
 16 25  1  0  0  0
M  CHG  1  16   1
M  END
> <s_m_source_file>
../2uy5_ligand.sdf

> <i_m_source_file_index>
1

> <s_epik_input>
bzFbY0hdW2NIXVtjSF1jMVtDSDJdW05IXWMobltjSF1uMiljKGMyMylbbkhdW2NIXW4z

> <s_epik_cmdline>
J2VwaWtfYXBwJywgJy1pbWFlJywgJ2xpZ2FuZF9wcm8ubWFlJywgJy1vbWFlJywgJ2xpZ2FuZF9wcmVwLm1hZScsICctbXMnLCAnMScsICctcGgnLCAnNycsICctcGh0JywgJzAuNScsICctbnQn

> <r_epik_Ionization_Penalty>
  0.0072

> <r_epik_Ionization_Penalty_Charging>
  0.0000

> <r_epik_Ionization_Penalty_Neutral>
  0.0072

> <r_epik_State_Penalty>
  0.1034

> <r_epik_Charging_Adjusted_Penalty>
0.103388340893157

> <i_epik_Tot_Q>
1

> <i_epik_Tot_abs_Q>
1

$$$$
