2uyi_ligand
                    3D
 Schrodinger Suite 2020-3.
 49 51  0  0  1  0            999 V2000
   20.1950   14.2710   32.2420 O   0  0  0  0  0  0
   19.1890   13.6690   31.8280 C   0  0  0  0  0  0
   18.1660   13.0830   32.7770 C   0  0  0  0  0  0
   18.5230   13.1810   34.4630 S   0  0  0  0  0  0
   17.1290   12.3700   35.0060 C   0  0  0  0  0  0
   16.4480   11.9850   33.8530 C   0  0  0  0  0  0
   17.0160   12.3470   32.6400 C   0  0  0  0  0  0
   19.0430   13.4500   30.5040 N   0  0  0  0  0  0
   19.7880   14.0760   29.5600 C   0  0  0  0  0  0
   21.3750   13.6300   29.2690 S   0  0  0  0  0  0
   21.5700   14.7720   28.0240 C   0  0  0  0  0  0
   20.4070   15.5060   27.8360 C   0  0  0  0  0  0
   20.3650   16.5920   26.7720 C   0  0  0  0  0  0
   21.7590   17.0090   26.3250 C   0  0  2  0  0  0
   21.5640   17.6830   24.9630 C   0  0  0  0  0  0
   22.8310   15.9090   26.1650 C   0  0  0  0  0  0
   22.9000   14.8640   27.2900 C   0  0  0  0  0  0
   19.3800   15.1060   28.7010 C   0  0  0  0  0  0
   18.0390   15.7960   28.6870 C   0  0  0  0  0  0
   17.3490   15.7420   27.7190 O   0  0  0  0  0  0
   17.5480   16.5000   29.7230 N   0  0  0  0  0  0
   16.1140   16.8740   29.7860 C   0  0  0  0  0  0
   15.4030   15.8340   30.6310 C   0  0  0  0  0  0
   18.3730   16.9170   30.8810 C   0  0  0  0  0  0
   18.5690   18.3970   30.8620 C   0  0  0  0  0  0
   16.8313   12.1896   36.0389 H   0  0  0  0  0  0
   15.5135   11.4260   33.9016 H   0  0  0  0  0  0
   16.5910   12.0739   31.6742 H   0  0  0  0  0  0
   18.2898   12.7333   30.1448 H   0  0  0  0  0  0
   19.8191   16.2219   25.8916 H   0  0  0  0  0  0
   19.8541   17.4794   27.1738 H   0  0  0  0  0  0
   22.1483   17.6438   27.1346 H   0  0  0  0  0  0
   20.8032   18.4726   25.0503 H   0  0  0  0  0  0
   21.2332   16.9348   24.2276 H   0  0  0  0  0  0
   22.5156   18.1255   24.6333 H   0  0  0  0  0  0
   22.6440   15.3468   25.2382 H   0  0  0  0  0  0
   23.8276   16.3723   26.1181 H   0  0  0  0  0  0
   23.6898   15.1563   27.9976 H   0  0  0  0  0  0
   23.1449   13.8857   26.8508 H   0  0  0  0  0  0
   16.0146   17.8702   30.2417 H   0  0  0  0  0  0
   15.6948   16.8924   28.7692 H   0  0  0  0  0  0
   14.3338   16.0839   30.6972 H   0  0  0  0  0  0
   15.8397   15.8209   31.6405 H   0  0  0  0  0  0
   15.5200   14.8431   30.1680 H   0  0  0  0  0  0
   17.8659   16.6311   31.8143 H   0  0  0  0  0  0
   19.3537   16.4215   30.8299 H   0  0  0  0  0  0
   19.1821   18.6968   31.7247 H   0  0  0  0  0  0
   17.5907   18.8971   30.9159 H   0  0  0  0  0  0
   19.0786   18.6874   29.9314 H   0  0  0  0  0  0
  1  2  2  0  0  0
  2  3  1  0  0  0
  2  8  1  0  0  0
  3  4  1  0  0  0
  3  7  2  0  0  0
  4  5  1  0  0  0
  5  6  2  0  0  0
  5 26  1  0  0  0
  6  7  1  0  0  0
  6 27  1  0  0  0
  7 28  1  0  0  0
  8  9  1  0  0  0
  8 29  1  0  0  0
  9 10  1  0  0  0
  9 18  2  0  0  0
 10 11  1  0  0  0
 11 12  2  0  0  0
 11 17  1  0  0  0
 12 13  1  0  0  0
 12 18  1  0  0  0
 13 14  1  0  0  0
 13 30  1  0  0  0
 13 31  1  0  0  0
 14 15  1  0  0  0
 14 16  1  0  0  0
 14 32  1  0  0  0
 15 33  1  0  0  0
 15 34  1  0  0  0
 15 35  1  0  0  0
 16 17  1  0  0  0
 16 36  1  0  0  0
 16 37  1  0  0  0
 17 38  1  0  0  0
 17 39  1  0  0  0
 18 19  1  0  0  0
 19 20  2  0  0  0
 19 21  1  0  0  0
 21 22  1  0  0  0
 21 24  1  0  0  0
 22 23  1  0  0  0
 22 40  1  0  0  0
 22 41  1  0  0  0
 23 42  1  0  0  0
 23 43  1  0  0  0
 23 44  1  0  0  0
 24 25  1  0  0  0
 24 45  1  0  0  0
 24 46  1  0  0  0
 25 47  1  0  0  0
 25 48  1  0  0  0
 25 49  1  0  0  0
M  END
> <s_m_source_file>
../2uyi_ligand.sdf

> <i_m_source_file_index>
1

> <s_epik_input>
W2NIXTFbY0hdW2NIXXNjMUMoPU8pW05IXWMoczIpYyhDKD1PKU4oW0NIMl1bQ0gzXSlbQ0gyXVtDSDNdKWMoYzIzKVtDSDJdW0NASF0oW0NIM10pW0NIMl1bQ0gyXTM=

> <s_epik_cmdline>
J2VwaWtfYXBwJywgJy1pbWFlJywgJ2xpZ2FuZF9wcm8ubWFlJywgJy1vbWFlJywgJ2xpZ2FuZF9wcmVwLm1hZScsICctbXMnLCAnMScsICctcGgnLCAnNycsICctcGh0JywgJzAuNScsICctbnQn

> <r_lp_tautomer_probability>
1

> <r_epik_Ionization_Penalty>
  0.0000

> <r_epik_Ionization_Penalty_Charging>
  0.0000

> <r_epik_Ionization_Penalty_Neutral>
  0.0000

> <r_epik_State_Penalty>
 -0.0000

> <r_epik_Charging_Adjusted_Penalty>
0

> <i_epik_Tot_Q>
0

> <i_epik_Tot_abs_Q>
0

$$$$
