2uym_ligand
                    3D
 Schrodinger Suite 2020-3.
 52 54  0  0  1  0            999 V2000
   31.1390   14.3270   12.6180 O   0  0  0  0  0  0
   30.6700   13.8940   13.6450 C   0  0  0  0  0  0
   31.5810   13.2950   14.6720 C   0  0  0  0  0  0
   33.3590   13.4870   14.5000 S   0  0  0  0  0  0
   33.6980   12.5870   15.9980 C   0  0  0  0  0  0
   32.4640   12.2050   16.5280 C   0  0  0  0  0  0
   31.3110   12.5740   15.8260 C   0  0  0  0  0  0
   29.3480   13.9360   13.8890 N   0  0  0  0  0  0
   28.4510   14.3570   12.9410 C   0  0  0  0  0  0
   28.3580   13.6670   11.3060 S   0  0  0  0  0  0
   27.0370   14.7930   10.9010 C   0  0  0  0  0  0
   26.7190   15.6320   11.9710 C   0  0  0  0  0  0
   25.6250   16.6670   11.7970 C   0  0  0  0  0  0
   25.2640   16.8910   10.3040 C   0  0  0  0  0  0
   26.2900   17.7950    9.6270 C   0  0  0  0  0  0
   23.9570   17.6560   10.2870 C   0  0  0  0  0  0
   25.1390   15.5680    9.5210 C   0  0  0  0  0  0
   26.4380   14.7300    9.5160 C   0  0  0  0  0  0
   27.5330   15.3930   13.1200 C   0  0  0  0  0  0
   27.3970   16.1320   14.4270 C   0  0  0  0  0  0
   26.3360   16.0160   15.0300 O   0  0  0  0  0  0
   28.3660   16.8550   15.0080 N   0  0  0  0  0  0
   29.6470   17.2030   14.4030 C   0  0  0  0  0  0
   29.6060   18.6120   13.8560 C   0  0  0  0  0  0
   28.1520   17.3220   16.3850 C   0  0  0  0  0  0
   29.2960   16.9990   17.3190 C   0  0  0  0  0  0
   34.6802   12.3749   16.4204 H   0  0  0  0  0  0
   32.4009   11.6385   17.4571 H   0  0  0  0  0  0
   30.3026   12.3205   16.1529 H   0  0  0  0  0  0
   28.9599   13.6275   14.8709 H   0  0  0  0  0  0
   24.7178   16.3334   12.3221 H   0  0  0  0  0  0
   25.9590   17.6276   12.2162 H   0  0  0  0  0  0
   26.3758   18.7370   10.1885 H   0  0  0  0  0  0
   25.9668   18.0098    8.5977 H   0  0  0  0  0  0
   27.2669   17.2899    9.6067 H   0  0  0  0  0  0
   24.0733   18.5932   10.8511 H   0  0  0  0  0  0
   23.1684   17.0448   10.7501 H   0  0  0  0  0  0
   23.6801   17.8857    9.2475 H   0  0  0  0  0  0
   24.3492   14.9487    9.9712 H   0  0  0  0  0  0
   24.8827   15.7847    8.4735 H   0  0  0  0  0  0
   27.1532   15.1409    8.7882 H   0  0  0  0  0  0
   26.2149   13.6837    9.2602 H   0  0  0  0  0  0
   30.4409   17.1361   15.1614 H   0  0  0  0  0  0
   29.8657   16.5057   13.5808 H   0  0  0  0  0  0
   30.5781   18.8583   13.4040 H   0  0  0  0  0  0
   29.3927   19.3166   14.6734 H   0  0  0  0  0  0
   28.8174   18.6862   13.0927 H   0  0  0  0  0  0
   28.0260   18.4148   16.3861 H   0  0  0  0  0  0
   27.2486   16.8483   16.7966 H   0  0  0  0  0  0
   29.0653   17.3773   18.3258 H   0  0  0  0  0  0
   30.2162   17.4756   16.9501 H   0  0  0  0  0  0
   29.4388   15.9091   17.3606 H   0  0  0  0  0  0
  1  2  2  0  0  0
  2  3  1  0  0  0
  2  8  1  0  0  0
  3  4  1  0  0  0
  3  7  2  0  0  0
  4  5  1  0  0  0
  5  6  2  0  0  0
  5 27  1  0  0  0
  6  7  1  0  0  0
  6 28  1  0  0  0
  7 29  1  0  0  0
  8  9  1  0  0  0
  8 30  1  0  0  0
  9 10  1  0  0  0
  9 19  2  0  0  0
 10 11  1  0  0  0
 11 12  2  0  0  0
 11 18  1  0  0  0
 12 13  1  0  0  0
 12 19  1  0  0  0
 13 14  1  0  0  0
 13 31  1  0  0  0
 13 32  1  0  0  0
 14 15  1  0  0  0
 14 16  1  0  0  0
 14 17  1  0  0  0
 15 33  1  0  0  0
 15 34  1  0  0  0
 15 35  1  0  0  0
 16 36  1  0  0  0
 16 37  1  0  0  0
 16 38  1  0  0  0
 17 18  1  0  0  0
 17 39  1  0  0  0
 17 40  1  0  0  0
 18 41  1  0  0  0
 18 42  1  0  0  0
 19 20  1  0  0  0
 20 21  2  0  0  0
 20 22  1  0  0  0
 22 23  1  0  0  0
 22 25  1  0  0  0
 23 24  1  0  0  0
 23 43  1  0  0  0
 23 44  1  0  0  0
 24 45  1  0  0  0
 24 46  1  0  0  0
 24 47  1  0  0  0
 25 26  1  0  0  0
 25 48  1  0  0  0
 25 49  1  0  0  0
 26 50  1  0  0  0
 26 51  1  0  0  0
 26 52  1  0  0  0
M  END
> <s_m_source_file>
../2uym_ligand.sdf

> <i_m_source_file_index>
1

> <s_epik_input>
W2NIXTFbY0hdW2NIXXNjMUMoPU8pW05IXWMoczIpYyhDKD1PKU4oW0NIMl1bQ0gzXSlbQ0gyXVtDSDNdKWMoYzIzKVtDSDJdQyhbQ0gzXSkoW0NIM10pW0NIMl1bQ0gyXTM=

> <s_epik_cmdline>
J2VwaWtfYXBwJywgJy1pbWFlJywgJ2xpZ2FuZF9wcm8ubWFlJywgJy1vbWFlJywgJ2xpZ2FuZF9wcmVwLm1hZScsICctbXMnLCAnMScsICctcGgnLCAnNycsICctcGh0JywgJzAuNScsICctbnQn

> <r_lp_tautomer_probability>
1

> <r_epik_Ionization_Penalty>
  0.0000

> <r_epik_Ionization_Penalty_Charging>
  0.0000

> <r_epik_Ionization_Penalty_Neutral>
  0.0000

> <r_epik_State_Penalty>
 -0.0000

> <r_epik_Charging_Adjusted_Penalty>
0

> <i_epik_Tot_Q>
0

> <i_epik_Tot_abs_Q>
0

$$$$
