2uyq_ligand
                    3D
 Schrodinger Suite 2020-3.
 28 30  0  0  1  0            999 V2000
   -9.4620  -26.8210   -3.5750 C   0  0  0  0  0  0
   -8.4550  -27.7650   -3.1920 O   0  0  0  0  0  0
   -8.8400  -25.4410   -3.3670 C   0  0  1  0  0  0
   -9.2770  -24.9060   -2.1380 O   0  0  0  0  0  0
   -7.3440  -25.6910   -3.2510 C   0  0  1  0  0  0
   -6.6570  -24.6720   -2.5170 O   0  0  0  0  0  0
   -7.4070  -27.0390   -2.5520 C   0  0  2  0  0  0
   -6.1070  -27.7180   -2.5790 N   0  0  0  0  0  0
   -5.5020  -28.2500   -3.6850 C   0  0  0  0  0  0
   -4.3120  -28.7550   -3.2890 N   0  0  0  0  0  0
   -4.1590  -28.5670   -1.9440 C   0  0  0  0  0  0
   -3.1390  -28.9000   -1.0450 C   0  0  0  0  0  0
   -2.0350  -29.5350   -1.4640 N   0  0  0  0  0  0
   -3.2860  -28.5700    0.2920 N   0  0  0  0  0  0
   -4.4150  -27.9040    0.7510 C   0  0  0  0  0  0
   -5.4180  -27.5860   -0.1490 N   0  0  0  0  0  0
   -5.2910  -27.9080   -1.4760 C   0  0  0  0  0  0
   -9.7333  -26.9816   -4.6289 H   0  0  0  0  0  0
  -10.3517  -26.9570   -2.9426 H   0  0  0  0  0  0
   -9.1335  -24.7056   -4.1306 H   0  0  0  0  0  0
  -10.3367  -24.6471   -1.9966 H   0  0  0  0  0  0
   -6.7375  -25.6361   -4.1670 H   0  0  0  0  0  0
   -6.5584  -23.6613   -2.9398 H   0  0  0  0  0  0
   -7.6540  -26.9943   -1.4810 H   0  0  0  0  0  0
   -5.9048  -28.2641   -4.6977 H   0  0  0  0  0  0
   -1.9204  -29.7961   -2.5264 H   0  0  0  0  0  0
   -1.2438  -29.7949   -0.7454 H   0  0  0  0  0  0
   -4.5100  -27.6359    1.8032 H   0  0  0  0  0  0
  1  2  1  0  0  0
  1  3  1  0  0  0
  1 18  1  0  0  0
  1 19  1  0  0  0
  2  7  1  0  0  0
  3  4  1  0  0  0
  3  5  1  0  0  0
  3 20  1  0  0  0
  4 21  1  0  0  0
  5  6  1  0  0  0
  5  7  1  0  0  0
  5 22  1  0  0  0
  6 23  1  0  0  0
  7  8  1  0  0  0
  7 24  1  0  0  0
  8  9  1  0  0  0
  8 17  1  0  0  0
  9 10  2  0  0  0
  9 25  1  0  0  0
 10 11  1  0  0  0
 11 12  2  0  0  0
 11 17  1  0  0  0
 12 13  1  0  0  0
 12 14  1  0  0  0
 13 26  1  0  0  0
 13 27  1  0  0  0
 14 15  2  0  0  0
 15 16  1  0  0  0
 15 28  1  0  0  0
 16 17  2  0  0  0
M  END
> <s_m_source_file>
../2uyq_ligand.sdf

> <i_m_source_file_index>
1

> <s_epik_input>
W09IXVtDQEBIXTFbQ0gyXU9bQ0BIXShbQ0BASF0xW09IXSluKFtjSF1uMiljKGMyMyluW2NIXW5jM1tOSDJd

> <s_epik_cmdline>
J2VwaWtfYXBwJywgJy1pbWFlJywgJ2xpZ2FuZF9wcm8ubWFlJywgJy1vbWFlJywgJ2xpZ2FuZF9wcmVwLm1hZScsICctbXMnLCAnMScsICctcGgnLCAnNycsICctcGh0JywgJzAuNScsICctbnQn

> <r_lp_tautomer_probability>
1

> <r_epik_Ionization_Penalty>
  0.0006

> <r_epik_Ionization_Penalty_Charging>
  0.0000

> <r_epik_Ionization_Penalty_Neutral>
  0.0006

> <r_epik_State_Penalty>
 -0.0000

> <r_epik_Charging_Adjusted_Penalty>
0

> <i_epik_Tot_Q>
0

> <i_epik_Tot_abs_Q>
0

> <s_epik_Chemistry_Notes>
This compound contains an acetal/aminal-like group ( X-CH(R)-Y where X, Y are N, S, or O) that may be acid/base labile, releasing an aldehyde.

$$$$
