2uyw_ligand
                    3D
 Schrodinger Suite 2020-3.
 31 32  0  0  1  0            999 V2000
    5.0870   35.2290   64.9790 C   0  0  0  0  0  0
    3.9130   35.4610   65.3690 O   0  0  0  0  0  0
    5.8660   36.2030   64.7920 O   0  5  0  0  0  0
    5.5620   33.8030   64.7880 C   0  0  0  0  0  0
    6.9520   33.6270   64.1850 C   0  0  0  0  0  0
    6.9030   33.5700   62.6440 C   0  0  0  0  0  0
    8.2790   33.4050   62.0230 C   0  0  0  0  0  0
    8.2790   33.1810   60.5070 C   0  0  2  0  0  0
    7.6530   31.6780   60.0190 S   0  0  0  0  0  0
    8.2530   31.9720   58.3370 C   0  0  0  0  0  0
    9.6140   32.6440   58.5050 C   0  0  2  0  0  0
   10.6330   31.6320   58.5340 N   0  0  0  0  0  0
   11.2530   31.6210   59.7220 C   0  0  0  0  0  0
   12.2740   30.7130   60.0050 O   0  0  0  0  0  0
   10.7480   32.5180   60.5490 N   0  0  0  0  0  0
    9.6830   33.2830   59.8820 C   0  0  2  0  0  0
    5.5885   33.2919   65.7617 H   0  0  0  0  0  0
    4.8717   33.2737   64.1147 H   0  0  0  0  0  0
    7.5894   34.4736   64.4798 H   0  0  0  0  0  0
    7.3949   32.6894   64.5520 H   0  0  0  0  0  0
    6.2849   32.7167   62.3281 H   0  0  0  0  0  0
    6.4666   34.5023   62.2563 H   0  0  0  0  0  0
    8.8761   34.3099   62.2091 H   0  0  0  0  0  0
    8.7817   32.5353   62.4713 H   0  0  0  0  0  0
    7.6958   34.0634   60.2049 H   0  0  0  0  0  0
    8.3400   31.0127   57.8059 H   0  0  0  0  0  0
    7.5450   32.6234   57.8037 H   0  0  0  0  0  0
    9.7968   33.3437   57.6761 H   0  0  0  0  0  0
   10.8064   31.0006   57.6501 H   0  0  0  0  0  0
   11.0123   32.7390   61.5937 H   0  0  0  0  0  0
    9.9702   34.3432   59.9418 H   0  0  0  0  0  0
  1  2  2  0  0  0
  1  3  1  0  0  0
  1  4  1  0  0  0
  4  5  1  0  0  0
  4 17  1  0  0  0
  4 18  1  0  0  0
  5  6  1  0  0  0
  5 19  1  0  0  0
  5 20  1  0  0  0
  6  7  1  0  0  0
  6 21  1  0  0  0
  6 22  1  0  0  0
  7  8  1  0  0  0
  7 23  1  0  0  0
  7 24  1  0  0  0
  8  9  1  0  0  0
  8 16  1  0  0  0
  8 25  1  0  0  0
  9 10  1  0  0  0
 10 11  1  0  0  0
 10 26  1  0  0  0
 10 27  1  0  0  0
 11 12  1  0  0  0
 11 16  1  0  0  0
 11 28  1  0  0  0
 12 13  1  0  0  0
 12 29  1  0  0  0
 13 14  2  0  0  0
 13 15  1  0  0  0
 15 16  1  0  0  0
 15 30  1  0  0  0
 16 31  1  0  0  0
M  CHG  1   3  -1
M  END
> <s_m_source_file>
../2uyw_ligand.sdf

> <i_m_source_file_index>
1

> <s_epik_input>
Tz1DKFtPSF0pW0NIMl1bQ0gyXVtDSDJdW0NIMl1bQ0BIXShTW0NIMl0xKVtDQEhdKFtDQEhdMTIpW05IXUMoPU8pW05IXTI=

> <s_epik_cmdline>
J2VwaWtfYXBwJywgJy1pbWFlJywgJ2xpZ2FuZF9wcm8ubWFlJywgJy1vbWFlJywgJ2xpZ2FuZF9wcmVwLm1hZScsICctbXMnLCAnMScsICctcGgnLCAnNycsICctcGh0JywgJzAuNScsICctbnQn

> <r_lp_tautomer_probability>
1

> <r_epik_Ionization_Penalty>
  0.0045

> <r_epik_Ionization_Penalty_Charging>
  0.0044

> <r_epik_Ionization_Penalty_Neutral>
  0.0000

> <r_epik_State_Penalty>
 -0.0000

> <r_epik_Charging_Adjusted_Penalty>
0.00443833021372702

> <i_epik_Tot_Q>
-1

> <i_epik_Tot_abs_Q>
1

$$$$
