2uz6_ligand
                    3D
 Schrodinger Suite 2020-3.
226230  0  0  1  0            999 V2000
   51.7130   35.3510   94.6530 N   0  3  0  0  0  0
   52.4800   36.0140   93.5590 C   0  0  0  0  0  0
   53.9710   35.7750   93.6820 C   0  0  0  0  0  0
   54.4520   35.3510   94.7340 O   0  0  0  0  0  0
   54.7000   36.0370   92.5980 N   0  0  0  0  0  0
   56.1530   35.8700   92.5800 C   0  0  2  0  0  0
   56.8100   36.5740   93.7600 C   0  0  0  0  0  0
   57.5820   35.9730   94.5080 O   0  0  0  0  0  0
   56.7420   36.4140   91.2780 C   0  0  0  0  0  0
   58.5530   36.4790   91.2710 S   0  0  0  0  0  0
   56.4730   37.8500   93.9210 N   0  0  0  0  0  0
   57.0340   38.6910   94.9730 C   0  0  2  0  0  0
   56.5790   38.3000   96.3790 C   0  0  0  0  0  0
   56.9930   38.9190   97.3620 O   0  0  0  0  0  0
   56.7230   40.1620   94.6890 C   0  0  0  0  0  0
   57.2320   40.7120   93.0410 S   0  0  0  0  0  0
   55.7300   37.2780   96.4720 N   0  0  0  0  0  0
   55.2820   36.7940   97.7720 C   0  0  2  0  0  0
   56.0470   35.5370   98.1910 C   0  0  0  0  0  0
   55.6980   34.8930   99.1840 O   0  0  0  0  0  0
   53.7600   36.5740   97.8170 C   0  0  0  0  0  0
   53.3660   35.4070   97.1180 O   0  0  0  0  0  0
   57.0860   35.1860   97.4330 N   0  0  0  0  0  0
   57.9090   34.0300   97.7850 C   0  0  2  0  0  0
   59.4060   34.2330   97.5370 C   0  0  0  0  0  0
   59.8120   34.6690   96.4590 O   0  0  0  0  0  0
   57.3920   32.7220   97.1650 C   0  0  0  0  0  0
   57.4780   32.6030   95.6600 C   0  0  0  0  0  0
   56.9950   31.2330   95.1970 C   0  0  0  0  0  0
   55.5500   31.0550   95.3590 N   0  0  0  0  0  0
   54.9580   30.4530   96.3890 C   0  0  0  0  0  0
   55.6740   29.9410   97.3800 N   0  0  0  0  0  0
   53.6360   30.3560   96.4230 N   0  0  0  0  0  0
   60.2240   33.9040   98.5530 N   0  0  0  0  0  0
   61.6800   34.0450   98.5730 C   0  0  2  0  0  0
   62.4420   33.5630   97.3220 C   0  0  0  0  0  0
   63.2620   34.3260   96.8070 O   0  0  0  0  0  0
   62.0900   33.2490   99.8160 C   0  0  0  0  0  0
   60.9190   33.3440  100.6970 C   0  0  0  0  0  0
   59.7210   33.3390   99.8200 C   0  0  0  0  0  0
   62.1860   32.3270   96.8290 N   0  0  0  0  0  0
   62.9740   31.9330   95.6570 C   0  0  2  0  0  0
   62.6720   32.7390   94.3910 C   0  0  0  0  0  0
   63.5480   32.8740   93.5360 O   0  0  0  0  0  0
   62.6050   30.4590   95.4600 C   0  0  0  0  0  0
   61.2730   30.3170   96.0750 C   0  0  0  0  0  0
   61.2590   31.2540   97.2410 C   0  0  0  0  0  0
   61.4560   33.2720   94.2750 N   0  0  0  0  0  0
   61.0900   34.0490   93.0940 C   0  0  2  0  0  0
   61.6800   35.4530   93.1560 C   0  0  0  0  0  0
   62.0340   36.0280   92.1230 O   0  0  0  0  0  0
   59.5750   34.1100   92.9070 C   0  0  0  0  0  0
   59.0960   34.5280   91.2120 S   0  0  0  0  0  0
   61.7790   35.9960   94.3700 N   0  0  0  0  0  0
   62.3580   37.3190   94.5910 C   0  0  2  0  0  0
   63.8630   37.2780   94.2600 C   0  0  0  0  0  0
   64.3890   38.2240   93.6700 O   0  0  0  0  0  0
   62.0580   37.8600   96.0230 C   0  0  2  0  0  0
   60.5450   37.8300   96.2930 C   0  0  0  0  0  0
   62.5900   39.2910   96.1910 C   0  0  0  0  0  0
   60.1460   38.1830   97.7150 C   0  0  0  0  0  0
   64.5390   36.1790   94.6130 N   0  0  0  0  0  0
   65.9610   36.0010   94.2700 C   0  0  2  0  0  0
   66.2100   35.9510   92.7710 C   0  0  0  0  0  0
   67.2590   36.3920   92.2980 O   0  0  0  0  0  0
   66.5640   34.7260   94.8690 C   0  0  0  0  0  0
   67.2390   34.6960   96.2380 C   0  0  0  0  0  0
   68.0690   33.4340   96.3140 C   0  0  0  0  0  0
   68.1430   35.9090   96.4450 C   0  0  0  0  0  0
   65.2540   35.3830   92.0410 N   0  0  0  0  0  0
   65.3430   35.2420   90.5910 C   0  0  2  0  0  0
   64.8400   36.4470   89.8090 C   0  0  0  0  0  0
   65.1790   36.6200   88.6360 O   0  0  0  0  0  0
   64.5980   33.9840   90.1410 C   0  0  0  0  0  0
   65.3620   32.7140   90.4570 C   0  0  0  0  0  0
   66.5880   32.6770   90.3630 O   0  0  0  0  0  0
   64.6390   31.6580   90.8100 N   0  0  0  0  0  0
   64.0350   37.2760   90.4660 N   0  0  0  0  0  0
   63.4540   38.4510   89.8290 C   0  0  2  0  0  0
   63.4810   39.6850   90.7400 C   0  0  0  0  0  0
   62.4280   40.1710   91.1610 O   0  0  0  0  0  0
   62.0320   38.1190   89.3680 C   0  0  0  0  0  0
   62.0030   36.9890   88.3510 C   0  0  0  0  0  0
   62.5950   37.0850   87.2770 O   0  0  0  0  0  0
   61.3050   35.9110   88.6880 N   0  0  0  0  0  0
   64.6950   40.1950   91.0430 N   0  0  0  0  0  0
   64.9070   41.3580   91.9190 C   0  0  2  0  0  0
   64.2050   42.6220   91.4320 C   0  0  0  0  0  0
   63.3030   43.1360   92.1000 O   0  0  0  0  0  0
   66.4250   41.5690   91.8610 C   0  0  0  0  0  0
   66.8850   40.8340   90.6350 C   0  0  0  0  0  0
   65.9740   39.6640   90.5320 C   0  0  0  0  0  0
   64.6470   43.1120   90.2790 N   0  0  0  0  0  0
   64.0850   44.2910   89.6390 C   0  0  2  0  0  0
   62.7160   43.9810   89.0460 C   0  0  0  0  0  0
   61.8240   44.8340   89.0330 O   0  0  0  0  0  0
   65.0570   44.8240   88.5770 C   0  0  0  0  0  0
   65.7470   43.7100   87.7870 C   0  0  0  0  0  0
   65.2190   42.5750   87.7240 O   0  0  0  0  0  0
   66.8260   43.9780   87.2210 O   0  0  0  0  0  0
   62.5520   42.7410   88.5860 N   0  0  0  0  0  0
   61.2950   42.2810   87.9930 C   0  0  2  0  0  0
   60.1700   42.1490   89.0410 C   0  0  0  0  0  0
   59.0690   41.6830   88.7290 O   0  0  0  0  0  0
   61.5110   40.9760   87.2060 C   0  0  0  0  0  0
   62.6550   40.9320   86.1720 C   0  0  0  0  0  0
   62.7060   39.5790   85.4760 C   0  0  0  0  0  0
   62.5520   42.0530   85.1290 C   0  0  0  0  0  0
   60.4670   42.5580   90.2770 N   0  0  0  0  0  0
   59.4920   42.5900   91.3750 C   0  0  2  0  0  0
   59.0730   44.0090   91.7360 C   0  0  0  0  0  0
   57.8710   44.1840   91.4930 O   0  0  0  0  0  0
   59.9890   41.8490   92.6250 C   0  0  0  0  0  0
   59.2100   40.2350   92.9090 S   0  0  0  0  0  0
   59.5680   44.8260   92.6100 N   0  0  0  0  0  0
   50.6395   35.5519   94.5220 H   0  0  0  0  0  0
   52.0441   35.7463   95.6246 H   0  0  0  0  0  0
   51.8898   34.2658   94.6192 H   0  0  0  0  0  0
   52.1489   35.6187   92.5874 H   0  0  0  0  0  0
   52.3032   37.0992   93.5928 H   0  0  0  0  0  0
   54.1756   36.3891   91.6974 H   0  0  0  0  0  0
   56.3118   34.7845   92.6598 H   0  0  0  0  0  0
   56.4336   35.7721   90.4397 H   0  0  0  0  0  0
   56.3764   37.4377   91.1097 H   0  0  0  0  0  0
   55.7371   38.2667   93.2176 H   0  0  0  0  0  0
   58.1151   38.4963   94.9160 H   0  0  0  0  0  0
   55.6387   40.3295   94.7685 H   0  0  0  0  0  0
   57.2464   40.7953   95.4204 H   0  0  0  0  0  0
   55.3666   36.7981   95.5513 H   0  0  0  0  0  0
   55.5367   37.6126   98.4612 H   0  0  0  0  0  0
   53.4352   36.4712   98.8629 H   0  0  0  0  0  0
   53.2514   37.4346   97.3580 H   0  0  0  0  0  0
   52.3032   35.1277   97.0690 H   0  0  0  0  0  0
   57.3216   35.7759   96.5349 H   0  0  0  0  0  0
   57.7687   33.9844   98.8751 H   0  0  0  0  0  0
   57.9675   31.8741   97.5649 H   0  0  0  0  0  0
   56.3284   32.5933   97.4143 H   0  0  0  0  0  0
   56.8495   33.3766   95.1945 H   0  0  0  0  0  0
   58.5220   32.7376   95.3406 H   0  0  0  0  0  0
   57.2319   31.1018   94.1309 H   0  0  0  0  0  0
   57.4975   30.4496   95.7834 H   0  0  0  0  0  0
   54.8596   31.4341   94.5911 H   0  0  0  0  0  0
   56.7713   30.0160   97.3616 H   0  0  0  0  0  0
   53.0324   30.7775   95.6057 H   0  0  0  0  0  0
   53.1429   29.8540   97.2685 H   0  0  0  0  0  0
   61.8958   35.1234   98.5943 H   0  0  0  0  0  0
   62.3114   32.2103   99.5296 H   0  0  0  0  0  0
   62.9853   33.7045  100.2643 H   0  0  0  0  0  0
   60.9050   32.4836  101.3823 H   0  0  0  0  0  0
   60.9728   34.2757  101.2793 H   0  0  0  0  0  0
   58.9126   33.9751  100.2098 H   0  0  0  0  0  0
   59.3355   32.3243   99.6415 H   0  0  0  0  0  0
   64.0349   32.1322   95.8686 H   0  0  0  0  0  0
   62.5839   30.2268   94.3850 H   0  0  0  0  0  0
   63.3529   29.8241   95.9576 H   0  0  0  0  0  0
   60.4994   30.5839   95.3399 H   0  0  0  0  0  0
   61.1276   29.2758   96.3986 H   0  0  0  0  0  0
   61.6306   30.7823   98.1626 H   0  0  0  0  0  0
   60.2619   31.6810   97.4240 H   0  0  0  0  0  0
   60.7243   33.1208   95.0823 H   0  0  0  0  0  0
   61.5360   33.5001   92.2515 H   0  0  0  0  0  0
   59.1360   33.1309   93.1492 H   0  0  0  0  0  0
   59.1537   34.8760   93.5746 H   0  0  0  0  0  0
   61.4052   35.4098   95.2225 H   0  0  0  0  0  0
   61.8509   37.9857   93.8781 H   0  0  0  0  0  0
   62.5640   37.2210   96.7616 H   0  0  0  0  0  0
   60.0405   38.5513   95.6333 H   0  0  0  0  0  0
   60.1573   36.8196   96.0960 H   0  0  0  0  0  0
   63.6726   39.3049   95.9964 H   0  0  0  0  0  0
   62.3975   39.6355   97.2178 H   0  0  0  0  0  0
   62.0809   39.9574   95.4791 H   0  0  0  0  0  0
   59.0513   38.1348   97.8113 H   0  0  0  0  0  0
   60.4904   39.2008   97.9505 H   0  0  0  0  0  0
   60.6073   37.4691   98.4132 H   0  0  0  0  0  0
   64.0063   35.3966   95.1734 H   0  0  0  0  0  0
   66.4099   36.9043   94.7087 H   0  0  0  0  0  0
   65.7784   33.9633   94.9744 H   0  0  0  0  0  0
   67.3555   34.3478   94.2053 H   0  0  0  0  0  0
   66.4711   34.7098   97.0255 H   0  0  0  0  0  0
   67.4197   32.5586   96.1651 H   0  0  0  0  0  0
   68.5498   33.3703   97.3013 H   0  0  0  0  0  0
   68.8411   33.4553   95.5308 H   0  0  0  0  0  0
   67.5414   36.8283   96.3901 H   0  0  0  0  0  0
   68.9151   35.9288   95.6618 H   0  0  0  0  0  0
   68.6237   35.8438   97.4322 H   0  0  0  0  0  0
   64.3679   35.0113   92.5764 H   0  0  0  0  0  0
   66.4264   35.1707   90.4144 H   0  0  0  0  0  0
   63.6257   33.9309   90.6527 H   0  0  0  0  0  0
   64.4383   34.0218   89.0533 H   0  0  0  0  0  0
   63.5443   31.7396   90.8805 H   0  0  0  0  0  0
   65.1346   30.7014   91.0320 H   0  0  0  0  0  0
   63.8111   37.0545   91.5199 H   0  0  0  0  0  0
   64.1004   38.6678   88.9658 H   0  0  0  0  0  0
   61.4278   37.8124   90.2346 H   0  0  0  0  0  0
   61.5807   39.0075   88.9023 H   0  0  0  0  0  0
   60.7916   35.8699   89.6600 H   0  0  0  0  0  0
   61.2401   35.0590   87.9952 H   0  0  0  0  0  0
   64.4852   41.1401   92.9113 H   0  0  0  0  0  0
   66.6432   42.6448   91.7902 H   0  0  0  0  0  0
   66.8871   41.1603   92.7717 H   0  0  0  0  0  0
   66.8024   41.4943   89.7591 H   0  0  0  0  0  0
   67.9329   40.5255   90.7640 H   0  0  0  0  0  0
   66.2970   38.8196   91.1587 H   0  0  0  0  0  0
   65.8407   39.3213   89.4953 H   0  0  0  0  0  0
   65.4836   42.5760   89.8069 H   0  0  0  0  0  0
   63.9557   45.0400   90.4342 H   0  0  0  0  0  0
   64.5081   45.4521   87.8599 H   0  0  0  0  0  0
   65.8403   45.4230   89.0645 H   0  0  0  0  0  0
   65.7106   41.7704   87.1575 H   0  0  0  0  0  0
   63.4070   42.0534   88.6649 H   0  0  0  0  0  0
   61.0101   43.0809   87.2938 H   0  0  0  0  0  0
   61.7291   40.1569   87.9071 H   0  0  0  0  0  0
   60.6016   40.7374   86.6349 H   0  0  0  0  0  0
   63.5940   41.0796   86.7255 H   0  0  0  0  0  0
   62.7797   38.7814   86.2299 H   0  0  0  0  0  0
   63.5836   39.5401   84.8140 H   0  0  0  0  0  0
   61.7915   39.4380   84.8812 H   0  0  0  0  0  0
   62.5157   43.0266   85.6396 H   0  0  0  0  0  0
   61.6372   41.9168   84.5335 H   0  0  0  0  0  0
   63.4293   42.0190   84.4663 H   0  0  0  0  0  0
   61.5035   42.8819   90.4522 H   0  0  0  0  0  0
   58.6261   42.0588   90.9531 H   0  0  0  0  0  0
   61.0708   41.6693   92.5388 H   0  0  0  0  0  0
   59.7888   42.4602   93.5174 H   0  0  0  0  0  0
   60.6281   44.7516   92.8939 H   0  0  0  0  0  0
   58.9284   45.5945   93.0686 H   0  0  0  0  0  0
  1  2  1  0  0  0
  1116  1  0  0  0
  1117  1  0  0  0
  1118  1  0  0  0
  2  3  1  0  0  0
  2119  1  0  0  0
  2120  1  0  0  0
  3  4  2  0  0  0
  3  5  1  0  0  0
  5  6  1  0  0  0
  5121  1  0  0  0
  6  7  1  0  0  0
  6  9  1  0  0  0
  6122  1  0  0  0
  7  8  2  0  0  0
  7 11  1  0  0  0
  9 10  1  0  0  0
  9123  1  0  0  0
  9124  1  0  0  0
 10 53  1  0  0  0
 11 12  1  0  0  0
 11125  1  0  0  0
 12 13  1  0  0  0
 12 15  1  0  0  0
 12126  1  0  0  0
 13 14  2  0  0  0
 13 17  1  0  0  0
 15 16  1  0  0  0
 15127  1  0  0  0
 15128  1  0  0  0
 16114  1  0  0  0
 17 18  1  0  0  0
 17129  1  0  0  0
 18 19  1  0  0  0
 18 21  1  0  0  0
 18130  1  0  0  0
 19 20  2  0  0  0
 19 23  1  0  0  0
 21 22  1  0  0  0
 21131  1  0  0  0
 21132  1  0  0  0
 22133  1  0  0  0
 23 24  1  0  0  0
 23134  1  0  0  0
 24 25  1  0  0  0
 24 27  1  0  0  0
 24135  1  0  0  0
 25 26  2  0  0  0
 25 34  1  0  0  0
 27 28  1  0  0  0
 27136  1  0  0  0
 27137  1  0  0  0
 28 29  1  0  0  0
 28138  1  0  0  0
 28139  1  0  0  0
 29 30  1  0  0  0
 29140  1  0  0  0
 29141  1  0  0  0
 30 31  1  0  0  0
 30142  1  0  0  0
 31 32  2  0  0  0
 31 33  1  0  0  0
 32143  1  0  0  0
 33144  1  0  0  0
 33145  1  0  0  0
 34 35  1  0  0  0
 34 40  1  0  0  0
 35 36  1  0  0  0
 35 38  1  0  0  0
 35146  1  0  0  0
 36 37  2  0  0  0
 36 41  1  0  0  0
 38 39  1  0  0  0
 38147  1  0  0  0
 38148  1  0  0  0
 39 40  1  0  0  0
 39149  1  0  0  0
 39150  1  0  0  0
 40151  1  0  0  0
 40152  1  0  0  0
 41 42  1  0  0  0
 41 47  1  0  0  0
 42 43  1  0  0  0
 42 45  1  0  0  0
 42153  1  0  0  0
 43 44  2  0  0  0
 43 48  1  0  0  0
 45 46  1  0  0  0
 45154  1  0  0  0
 45155  1  0  0  0
 46 47  1  0  0  0
 46156  1  0  0  0
 46157  1  0  0  0
 47158  1  0  0  0
 47159  1  0  0  0
 48 49  1  0  0  0
 48160  1  0  0  0
 49 50  1  0  0  0
 49 52  1  0  0  0
 49161  1  0  0  0
 50 51  2  0  0  0
 50 54  1  0  0  0
 52 53  1  0  0  0
 52162  1  0  0  0
 52163  1  0  0  0
 54 55  1  0  0  0
 54164  1  0  0  0
 55 56  1  0  0  0
 55 58  1  0  0  0
 55165  1  0  0  0
 56 57  2  0  0  0
 56 62  1  0  0  0
 58 59  1  0  0  0
 58 60  1  0  0  0
 58166  1  0  0  0
 59 61  1  0  0  0
 59167  1  0  0  0
 59168  1  0  0  0
 60169  1  0  0  0
 60170  1  0  0  0
 60171  1  0  0  0
 61172  1  0  0  0
 61173  1  0  0  0
 61174  1  0  0  0
 62 63  1  0  0  0
 62175  1  0  0  0
 63 64  1  0  0  0
 63 66  1  0  0  0
 63176  1  0  0  0
 64 65  2  0  0  0
 64 70  1  0  0  0
 66 67  1  0  0  0
 66177  1  0  0  0
 66178  1  0  0  0
 67 68  1  0  0  0
 67 69  1  0  0  0
 67179  1  0  0  0
 68180  1  0  0  0
 68181  1  0  0  0
 68182  1  0  0  0
 69183  1  0  0  0
 69184  1  0  0  0
 69185  1  0  0  0
 70 71  1  0  0  0
 70186  1  0  0  0
 71 72  1  0  0  0
 71 74  1  0  0  0
 71187  1  0  0  0
 72 73  2  0  0  0
 72 78  1  0  0  0
 74 75  1  0  0  0
 74188  1  0  0  0
 74189  1  0  0  0
 75 76  2  0  0  0
 75 77  1  0  0  0
 77190  1  0  0  0
 77191  1  0  0  0
 78 79  1  0  0  0
 78192  1  0  0  0
 79 80  1  0  0  0
 79 82  1  0  0  0
 79193  1  0  0  0
 80 81  2  0  0  0
 80 86  1  0  0  0
 82 83  1  0  0  0
 82194  1  0  0  0
 82195  1  0  0  0
 83 84  2  0  0  0
 83 85  1  0  0  0
 85196  1  0  0  0
 85197  1  0  0  0
 86 87  1  0  0  0
 86 92  1  0  0  0
 87 88  1  0  0  0
 87 90  1  0  0  0
 87198  1  0  0  0
 88 89  2  0  0  0
 88 93  1  0  0  0
 90 91  1  0  0  0
 90199  1  0  0  0
 90200  1  0  0  0
 91 92  1  0  0  0
 91201  1  0  0  0
 91202  1  0  0  0
 92203  1  0  0  0
 92204  1  0  0  0
 93 94  1  0  0  0
 93205  1  0  0  0
 94 95  1  0  0  0
 94 97  1  0  0  0
 94206  1  0  0  0
 95 96  2  0  0  0
 95101  1  0  0  0
 97 98  1  0  0  0
 97207  1  0  0  0
 97208  1  0  0  0
 98 99  1  0  0  0
 98100  2  0  0  0
 99209  1  0  0  0
101102  1  0  0  0
101210  1  0  0  0
102103  1  0  0  0
102105  1  0  0  0
102211  1  0  0  0
103104  2  0  0  0
103109  1  0  0  0
105106  1  0  0  0
105212  1  0  0  0
105213  1  0  0  0
106107  1  0  0  0
106108  1  0  0  0
106214  1  0  0  0
107215  1  0  0  0
107216  1  0  0  0
107217  1  0  0  0
108218  1  0  0  0
108219  1  0  0  0
108220  1  0  0  0
109110  1  0  0  0
109221  1  0  0  0
110111  1  0  0  0
110113  1  0  0  0
110222  1  0  0  0
111112  2  0  0  0
111115  1  0  0  0
113114  1  0  0  0
113223  1  0  0  0
113224  1  0  0  0
115225  1  0  0  0
115226  1  0  0  0
M  CHG  1   1   1
M  END
> <s_m_source_file>
../2uz6_ligand.sdf

> <i_m_source_file_index>
1

> <s_epik_input>
W0hdL049QyhbTkgyXSlcW05IXVtDSDJdW0NIMl1bQ0gyXVtDQEhdKFtOSF1DKD1PKVtDQEBIXShbTkhdQzE9TylbQ0gyXVtPSF0pQyg9TylOKFtDSDJdW0NIMl1bQ0gyXTIpW0NAQEhdMkMoPU8pTihbQ0gyXVtDSDJdW0NIMl0zKVtDQEBIXTNDKD1PKVtOSF1bQ0BASF0oW0NIMl1TU1tDSDJdW0NAQEhdKEMoPU8pW05IXVtDQEhdMTQpW05IXUMoPU8pW0NIMl1bTkgzK10pQyg9TylbTkhdW0NAQEhdKFtDQEBIXShbQ0gzXSlbQ0gyXVtDSDNdKUMoPU8pW05IXVtDQEBIXShbQ0gyXVtDSF0oW0NIM10pW0NIM10pQyg9TylbTkhdW0NAQEhdKFtDSDJdQyg9TylbTkgyXSlDKD1PKVtOSF1bQ0BASF0oW0NIMl1DKD1PKVtOSDJdKUMoPU8pTjVbQ0BASF0oW0NIMl1bQ0gyXVtDSDJdNSlDKD1PKVtOSF1bQ0BASF0oW0NIMl1DKD1PKVtPSF0pQyg9TylbTkhdW0NAQEhdKFtDSDJdW0NIXShbQ0gzXSlbQ0gzXSlDKD1PKVtOSF1bQ0BIXShDKD1PKVtOSDJdKVtDSDJdU1NbQ0gyXTQ=

> <s_epik_cmdline>
J2VwaWtfYXBwJywgJy1pbWFlJywgJ2xpZ2FuZF9wcm8ubWFlJywgJy1vbWFlJywgJ2xpZ2FuZF9wcmVwLm1hZScsICctbXMnLCAnMScsICctcGgnLCAnNycsICctcGh0JywgJzAuNScsICctbnQn

> <s_epik_pKa_notes>
Molecule size exceeds maximum supported for generating protonation states

> <s_epik_Chemistry_Notes>
This compound has an imine and may undergo hydrolysis.

$$$$
