2uzb_ligand
                    3D
 Schrodinger Suite 2020-3.
 37 39  0  0  1  0            999 V2000
   39.3900   22.0360   -6.6480 O   0  0  0  0  0  0
   40.3850   21.1280   -6.1480 S   0  0  0  0  0  0
   40.8560   20.2940   -7.2180 O   0  0  0  0  0  0
   41.6120   21.9580   -5.5390 N   0  0  3  0  0  0
   41.4710   23.2550   -4.9520 C   0  0  0  0  0  0
   39.6620   20.1280   -4.8950 C   0  0  0  0  0  0
   39.3440   18.7830   -5.0540 C   0  0  0  0  0  0
   38.7530   18.0840   -4.0050 C   0  0  0  0  0  0
   38.4680   18.7510   -2.8150 C   0  0  0  0  0  0
   38.7780   20.0990   -2.6770 C   0  0  0  0  0  0
   39.3740   20.8010   -3.7150 C   0  0  0  0  0  0
   37.7900   18.1650   -1.6130 C   0  0  0  0  0  0
   37.5200   18.9210   -0.5040 O   0  0  0  0  0  0
   37.2930   16.8850   -1.3980 C   0  0  0  0  0  0
   36.6990   16.8930   -0.1400 C   0  0  0  0  0  0
   36.8440   18.1640    0.4110 C   0  0  0  0  0  0
   36.3720   18.6330    1.7370 C   0  0  0  0  0  0
   36.5570   19.8860    2.1790 C   0  0  0  0  0  0
   37.3160   21.1160    1.3590 S   0  0  0  0  0  0
   37.1460   22.2620    2.5500 C   0  0  0  0  0  0
   37.5550   23.4630    2.5150 N   0  0  0  0  0  0
   36.4880   21.6990    3.5590 N   0  0  0  0  0  0
   36.1580   20.4200    3.4010 C   0  0  0  0  0  0
   35.5400   19.8280    4.2820 O   0  0  0  0  0  0
   42.6141   21.5507   -5.7389 H   0  0  0  0  0  0
   42.4538   23.6114   -4.6097 H   0  0  0  0  0  0
   40.7833   23.1970   -4.0954 H   0  0  0  0  0  0
   41.0675   23.9539   -5.6995 H   0  0  0  0  0  0
   39.5568   18.2783   -5.9964 H   0  0  0  0  0  0
   38.5156   17.0257   -4.1134 H   0  0  0  0  0  0
   38.5501   20.6108   -1.7420 H   0  0  0  0  0  0
   39.6113   21.8593   -3.6063 H   0  0  0  0  0  0
   37.3563   16.0389   -2.0823 H   0  0  0  0  0  0
   36.2032   16.0464    0.3349 H   0  0  0  0  0  0
   35.8488   17.8990    2.3675 H   0  0  0  0  0  0
   38.0923   23.8355    1.6304 H   0  0  0  0  0  0
   36.2481   22.2884    4.4563 H   0  0  0  0  0  0
  1  2  2  0  0  0
  2  3  2  0  0  0
  2  4  1  0  0  0
  2  6  1  0  0  0
  4  5  1  0  0  0
  4 25  1  0  0  0
  5 26  1  0  0  0
  5 27  1  0  0  0
  5 28  1  0  0  0
  6  7  2  0  0  0
  6 11  1  0  0  0
  7  8  1  0  0  0
  7 29  1  0  0  0
  8  9  2  0  0  0
  8 30  1  0  0  0
  9 10  1  0  0  0
  9 12  1  0  0  0
 10 11  2  0  0  0
 10 31  1  0  0  0
 11 32  1  0  0  0
 12 13  1  0  0  0
 12 14  2  0  0  0
 13 16  1  0  0  0
 14 15  1  0  0  0
 14 33  1  0  0  0
 15 16  2  0  0  0
 15 34  1  0  0  0
 16 17  1  0  0  0
 17 18  2  0  0  0
 17 35  1  0  0  0
 18 19  1  0  0  0
 18 23  1  0  0  0
 19 20  1  0  0  0
 20 21  2  0  0  0
 20 22  1  0  0  0
 21 36  1  0  0  0
 22 23  1  0  0  0
 22 37  1  0  0  0
 23 24  2  0  0  0
M  END
> <s_m_source_file>
../2uzb_ligand.sdf

> <i_m_source_file_index>
1

> <s_epik_input>
W0NIM11bTkhdUyg9TykoPU8pYzFbY0hdW2NIXWMoW2NIXVtjSF0xKS1jMm9jKFtjSF1bY0hdMikvW0NIXT1DM1xTL0MoPU5cW0hdKVtOSF1DMz1P

> <s_epik_cmdline>
J2VwaWtfYXBwJywgJy1pbWFlJywgJ2xpZ2FuZF9wcm8ubWFlJywgJy1vbWFlJywgJ2xpZ2FuZF9wcmVwLm1hZScsICctbXMnLCAnMScsICctcGgnLCAnNycsICctcGh0JywgJzAuNScsICctbnQn

> <r_lp_tautomer_probability>
1

> <r_epik_Ionization_Penalty>
  0.0005

> <r_epik_Ionization_Penalty_Charging>
  0.0000

> <r_epik_Ionization_Penalty_Neutral>
  0.0005

> <r_epik_State_Penalty>
 -0.0000

> <r_epik_Charging_Adjusted_Penalty>
0

> <i_epik_Tot_Q>
0

> <i_epik_Tot_abs_Q>
0

> <s_epik_Chemistry_Notes>
This compound has an imine and may undergo hydrolysis.

$$$$
