2uzd_ligand
                    3D
 Schrodinger Suite 2020-3.
 34 36  0  0  1  0            999 V2000
  126.1770  107.4780   37.1910 O   0  0  0  0  0  0
  125.6860  108.4660   36.1630 S   0  0  0  0  0  0
  126.8230  109.3590   35.7470 O   0  0  0  0  0  0
  124.4850  109.3770   36.8050 N   0  0  0  0  0  0
  125.0720  107.5930   34.7590 C   0  0  0  0  0  0
  125.5200  106.2940   34.4840 C   0  0  0  0  0  0
  125.0330  105.6110   33.3650 C   0  0  0  0  0  0
  124.0950  106.2230   32.5360 C   0  0  0  0  0  0
  123.6420  107.5130   32.8230 C   0  0  0  0  0  0
  124.1310  108.1960   33.9270 C   0  0  0  0  0  0
  123.5960  105.5640   31.4280 C   0  0  0  0  0  0
  122.5330  105.9560   30.7170 O   0  0  0  0  0  0
  124.0880  104.4570   30.8570 C   0  0  0  0  0  0
  123.3160  104.1610   29.7960 C   0  0  0  0  0  0
  122.3530  105.0900   29.7150 C   0  0  0  0  0  0
  121.2840  105.1710   28.7000 C   0  0  0  0  0  0
  120.6490  106.3570   28.4850 C   0  0  0  0  0  0
  120.5000  107.5870   29.6280 S   0  0  0  0  0  0
  119.6460  108.5660   28.5440 C   0  0  0  0  0  0
  119.1880  109.7740   28.8390 N   0  0  0  0  0  0
  119.4820  107.9730   27.3410 N   0  0  0  0  0  0
  120.0420  106.7190   27.2790 C   0  0  0  0  0  0
  120.0090  106.0000   26.2820 O   0  0  0  0  0  0
  124.8666  109.9222   37.6809 H   0  0  0  0  0  0
  123.6543  108.7247   37.1123 H   0  0  0  0  0  0
  126.2469  105.8167   35.1412 H   0  0  0  0  0  0
  125.3858  104.6040   33.1422 H   0  0  0  0  0  0
  122.9015  107.9846   32.1770 H   0  0  0  0  0  0
  123.7790  109.2046   34.1436 H   0  0  0  0  0  0
  124.9597  103.8953   31.1926 H   0  0  0  0  0  0
  123.4498  103.3153   29.1214 H   0  0  0  0  0  0
  120.9992  104.2814   28.1190 H   0  0  0  0  0  0
  119.3575  110.1971   29.8401 H   0  0  0  0  0  0
  118.9445  108.4981   26.5377 H   0  0  0  0  0  0
  1  2  2  0  0  0
  2  3  2  0  0  0
  2  4  1  0  0  0
  2  5  1  0  0  0
  4 24  1  0  0  0
  4 25  1  0  0  0
  5  6  2  0  0  0
  5 10  1  0  0  0
  6  7  1  0  0  0
  6 26  1  0  0  0
  7  8  2  0  0  0
  7 27  1  0  0  0
  8  9  1  0  0  0
  8 11  1  0  0  0
  9 10  2  0  0  0
  9 28  1  0  0  0
 10 29  1  0  0  0
 11 12  1  0  0  0
 11 13  2  0  0  0
 12 15  1  0  0  0
 13 14  1  0  0  0
 13 30  1  0  0  0
 14 15  2  0  0  0
 14 31  1  0  0  0
 15 16  1  0  0  0
 16 17  2  0  0  0
 16 32  1  0  0  0
 17 18  1  0  0  0
 17 22  1  0  0  0
 18 19  1  0  0  0
 19 20  2  0  0  0
 19 21  1  0  0  0
 20 33  1  0  0  0
 21 22  1  0  0  0
 21 34  1  0  0  0
 22 23  2  0  0  0
M  END
> <s_m_source_file>
../2uzd_ligand.sdf

> <i_m_source_file_index>
1

> <s_epik_input>
Tz1TKD1PKShbTkgyXSljMVtjSF1bY0hdYyhbY0hdW2NIXTEpLWMyb2MoW2NIXVtjSF0yKS9bQ0hdPUMzXFMvQyg9TlxbSF0pW05IXUMzPU8=

> <s_epik_cmdline>
J2VwaWtfYXBwJywgJy1pbWFlJywgJ2xpZ2FuZF9wcm8ubWFlJywgJy1vbWFlJywgJ2xpZ2FuZF9wcmVwLm1hZScsICctbXMnLCAnMScsICctcGgnLCAnNycsICctcGh0JywgJzAuNScsICctbnQn

> <r_lp_tautomer_probability>
1

> <r_epik_Ionization_Penalty>
  0.0010

> <r_epik_Ionization_Penalty_Charging>
  0.0000

> <r_epik_Ionization_Penalty_Neutral>
  0.0010

> <r_epik_State_Penalty>
 -0.0000

> <r_epik_Charging_Adjusted_Penalty>
0

> <i_epik_Tot_Q>
0

> <i_epik_Tot_abs_Q>
0

> <s_epik_Chemistry_Notes>
This compound has an imine and may undergo hydrolysis.

$$$$
