2uze_ligand
                    3D
 Schrodinger Suite 2020-3.
 31 33  0  0  1  0            999 V2000
   68.2170   63.5370   18.4020 O   0  0  0  0  0  0
   69.5540   64.5860   19.7460 O   0  5  0  0  0  0
   70.2350   62.3980   18.9630 C   0  0  0  0  0  0
   71.4600   62.4230   19.6560 C   0  0  0  0  0  0
   72.3450   61.3300   19.5570 C   0  0  0  0  0  0
   71.9760   60.2140   18.8030 C   0  0  0  0  0  0
   70.7530   60.2040   18.1240 C   0  0  0  0  0  0
   69.8990   61.2880   18.1970 C   0  0  0  0  0  0
   72.8850   59.0330   18.6660 C   0  0  0  0  0  0
   72.5470   57.8650   18.0710 O   0  0  0  0  0  0
   74.1760   58.9460   19.0320 C   0  0  0  0  0  0
   74.6260   57.7080   18.6750 C   0  0  0  0  0  0
   73.6080   57.0460   18.0870 C   0  0  0  0  0  0
   73.6350   55.6710   17.5130 C   0  0  0  0  0  0
   72.5750   55.2380   16.8470 C   0  0  0  0  0  0
   71.0780   55.9880   16.8920 S   0  0  0  0  0  0
   70.4090   54.8630   15.8410 C   0  0  0  0  0  0
   69.1320   54.8910   15.4370 N   0  0  0  0  0  0
   71.3130   53.9320   15.4390 N   0  0  0  0  0  0
   69.2760   63.5690   19.0360 C   0  0  0  0  0  0
   72.5520   54.1190   15.9800 C   0  0  0  0  0  0
   73.5260   53.3990   15.7290 O   0  0  0  0  0  0
   71.7238   63.2856   20.2679 H   0  0  0  0  0  0
   73.3092   61.3558   20.0647 H   0  0  0  0  0  0
   70.4711   59.3333   17.5320 H   0  0  0  0  0  0
   68.9561   61.2724   17.6505 H   0  0  0  0  0  0
   74.7584   59.7243   19.5251 H   0  0  0  0  0  0
   75.6323   57.3215   18.8367 H   0  0  0  0  0  0
   74.5128   55.0191   17.6337 H   0  0  0  0  0  0
   68.4558   55.6766   15.8051 H   0  0  0  0  0  0
   71.0094   53.1342   14.7452 H   0  0  0  0  0  0
  1 20  2  0  0  0
  2 20  1  0  0  0
  3  4  2  0  0  0
  3  8  1  0  0  0
  3 20  1  0  0  0
  4  5  1  0  0  0
  4 23  1  0  0  0
  5  6  2  0  0  0
  5 24  1  0  0  0
  6  7  1  0  0  0
  6  9  1  0  0  0
  7  8  2  0  0  0
  7 25  1  0  0  0
  8 26  1  0  0  0
  9 10  1  0  0  0
  9 11  2  0  0  0
 10 13  1  0  0  0
 11 12  1  0  0  0
 11 27  1  0  0  0
 12 13  2  0  0  0
 12 28  1  0  0  0
 13 14  1  0  0  0
 14 15  2  0  0  0
 14 29  1  0  0  0
 15 16  1  0  0  0
 15 21  1  0  0  0
 16 17  1  0  0  0
 17 18  2  0  0  0
 17 19  1  0  0  0
 18 30  1  0  0  0
 19 21  1  0  0  0
 19 31  1  0  0  0
 21 22  2  0  0  0
M  CHG  1   2  -1
M  END
> <s_m_source_file>
../2uze_ligand.sdf

> <i_m_source_file_index>
1

> <s_epik_input>
Tz1DKFtPSF0pYzFbY0hdW2NIXWMoW2NIXVtjSF0xKS1jMm9jKFtjSF1bY0hdMikvW0NIXT1DM1xTL0MoPU5cW0hdKVtOSF1DMz1P

> <s_epik_cmdline>
J2VwaWtfYXBwJywgJy1pbWFlJywgJ2xpZ2FuZF9wcm8ubWFlJywgJy1vbWFlJywgJ2xpZ2FuZF9wcmVwLm1hZScsICctbXMnLCAnMScsICctcGgnLCAnNycsICctcGh0JywgJzAuNScsICctbnQn

> <r_lp_tautomer_probability>
1

> <r_epik_Ionization_Penalty>
  0.0012

> <r_epik_Ionization_Penalty_Charging>
  0.0008

> <r_epik_Ionization_Penalty_Neutral>
  0.0004

> <r_epik_State_Penalty>
 -0.0000

> <r_epik_Charging_Adjusted_Penalty>
0.000798702719064766

> <i_epik_Tot_Q>
-1

> <i_epik_Tot_abs_Q>
1

> <s_epik_Chemistry_Notes>
This compound has an imine and may undergo hydrolysis.

$$$$
