2uzj_ligand
                    3D
 Schrodinger Suite 2020-3.
 54 53  0  0  1  0            999 V2000
   12.3660    7.4960   11.6140 C   0  0  0  0  0  0
   12.8680    8.6460   11.4410 O   0  5  0  0  0  0
   12.5430    6.5390   10.8260 O   0  0  0  0  0  0
   11.5370    7.2210   12.8600 C   0  0  0  0  0  0
   10.4330    8.2540   13.0320 C   0  0  2  0  0  0
   11.0380    9.5280   13.2050 O   0  0  0  0  0  0
    9.4910    8.0150   14.1920 C   0  0  0  0  0  0
    9.1790    6.8800   14.5810 O   0  0  0  0  0  0
    9.0200    9.1320   14.7540 N   0  0  0  0  0  0
    8.0510    9.1360   15.8470 C   0  0  1  0  0  0
    8.4330   10.3320   16.7050 C   0  0  0  0  0  0
    9.0940    9.9740   18.0180 C   0  0  0  0  0  0
    9.8870   11.1540   18.5720 C   0  0  0  0  0  0
    9.9230    8.6890   17.9490 C   0  0  0  0  0  0
    6.7030    9.4550   15.2740 C   0  0  0  0  0  0
    6.6180   10.3050   14.3890 O   0  0  0  0  0  0
    5.6410    8.7970   15.7260 N   0  0  0  0  0  0
    4.2750    9.0100   15.2520 C   0  0  0  0  0  0
    3.4120    8.0090   16.0240 C   0  0  0  0  0  0
    3.1500    6.6930   15.2870 C   0  0  0  0  0  0
    2.6750    6.8380   13.8330 C   0  0  0  0  0  0
    1.2590    6.4600   13.7050 N   0  0  0  0  0  0
    0.5330    5.4160   14.1550 C   0  0  0  0  0  0
    1.0640    4.4390   14.9040 N   0  0  0  0  0  0
   -0.7650    5.3370   13.8570 N   0  3  0  0  0  0
   11.0746    6.2261   12.7805 H   0  0  0  0  0  0
   12.1865    7.2536   13.7472 H   0  0  0  0  0  0
    9.8267    8.2524   12.1142 H   0  0  0  0  0  0
   11.7628    9.8978   12.4648 H   0  0  0  0  0  0
    9.3996   10.0830   14.3520 H   0  0  0  0  0  0
    8.0491    8.1660   16.3657 H   0  0  0  0  0  0
    9.1403   10.9683   16.1529 H   0  0  0  0  0  0
    7.5306   10.9121   16.9480 H   0  0  0  0  0  0
    8.2768    9.7588   18.7221 H   0  0  0  0  0  0
    9.2450   12.0468   18.5991 H   0  0  0  0  0  0
   10.7564   11.3470   17.9263 H   0  0  0  0  0  0
   10.2312   10.9188   19.5899 H   0  0  0  0  0  0
    9.3041    7.8747   17.5441 H   0  0  0  0  0  0
   10.2677    8.4204   18.9585 H   0  0  0  0  0  0
   10.7929    8.8485   17.2949 H   0  0  0  0  0  0
    5.8415    8.0502   16.5084 H   0  0  0  0  0  0
    3.9717   10.0464   15.4613 H   0  0  0  0  0  0
    4.2301    8.8265   14.1683 H   0  0  0  0  0  0
    3.9083    7.7510   16.9712 H   0  0  0  0  0  0
    2.4300    8.4576   16.2349 H   0  0  0  0  0  0
    4.0759    6.0999   15.2552 H   0  0  0  0  0  0
    2.3694    6.1260   15.8153 H   0  0  0  0  0  0
    2.7931    7.8832   13.5112 H   0  0  0  0  0  0
    3.2762    6.1844   13.1839 H   0  0  0  0  0  0
    0.5671    7.1025   13.1407 H   0  0  0  0  0  0
    2.1307    4.4686   15.1709 H   0  0  0  0  0  0
    0.4329    3.6078   15.2517 H   0  0  0  0  0  0
   -1.2373    6.1193   13.2447 H   0  0  0  0  0  0
   -1.3629    4.4896   14.2236 H   0  0  0  0  0  0
  1  2  1  0  0  0
  1  3  2  0  0  0
  1  4  1  0  0  0
  4  5  1  0  0  0
  4 26  1  0  0  0
  4 27  1  0  0  0
  5  6  1  0  0  0
  5  7  1  0  0  0
  5 28  1  0  0  0
  6 29  1  0  0  0
  7  8  2  0  0  0
  7  9  1  0  0  0
  9 10  1  0  0  0
  9 30  1  0  0  0
 10 11  1  0  0  0
 10 15  1  0  0  0
 10 31  1  0  0  0
 11 12  1  0  0  0
 11 32  1  0  0  0
 11 33  1  0  0  0
 12 13  1  0  0  0
 12 14  1  0  0  0
 12 34  1  0  0  0
 13 35  1  0  0  0
 13 36  1  0  0  0
 13 37  1  0  0  0
 14 38  1  0  0  0
 14 39  1  0  0  0
 14 40  1  0  0  0
 15 16  2  0  0  0
 15 17  1  0  0  0
 17 18  1  0  0  0
 17 41  1  0  0  0
 18 19  1  0  0  0
 18 42  1  0  0  0
 18 43  1  0  0  0
 19 20  1  0  0  0
 19 44  1  0  0  0
 19 45  1  0  0  0
 20 21  1  0  0  0
 20 46  1  0  0  0
 20 47  1  0  0  0
 21 22  1  0  0  0
 21 48  1  0  0  0
 21 49  1  0  0  0
 22 23  1  0  0  0
 22 50  1  0  0  0
 23 24  1  0  0  0
 23 25  2  0  0  0
 24 51  1  0  0  0
 24 52  1  0  0  0
 25 53  1  0  0  0
 25 54  1  0  0  0
M  CHG  2   2  -1  25   1
M  END
> <s_m_source_file>
../2uzj_ligand.sdf

> <i_m_source_file_index>
1

> <s_epik_input>
W09IXUMoPU8pW0NIMl1bQ0BIXShbT0hdKUMoPU8pW05IXVtDQEBIXShbQ0gyXVtDSF0oW0NIM10pW0NIM10pQyg9TylbTkhdW0NIMl1bQ0gyXVtDSDJdW0NIMl1bTkhdL0MoW05IMl0pPU5cW0hd

> <s_epik_cmdline>
J2VwaWtfYXBwJywgJy1pbWFlJywgJ2xpZ2FuZF9wcm8ubWFlJywgJy1vbWFlJywgJ2xpZ2FuZF9wcmVwLm1hZScsICctbXMnLCAnMScsICctcGgnLCAnNycsICctcGh0JywgJzAuNScsICctbnQn

> <r_lp_tautomer_probability>
1

> <r_epik_Ionization_Penalty>
  0.0056

> <r_epik_Ionization_Penalty_Charging>
  0.0056

> <r_epik_Ionization_Penalty_Neutral>
  0.0000

> <r_epik_State_Penalty>
 -0.0000

> <r_epik_Charging_Adjusted_Penalty>
0.00563603758834137

> <i_epik_Tot_Q>
0

> <i_epik_Tot_abs_Q>
2

> <s_epik_Chemistry_Notes>
This compound has an imine and may undergo hydrolysis.

$$$$
