2uzl_ligand
                    3D
 Schrodinger Suite 2020-3.
 37 39  0  0  1  0            999 V2000
   67.9450   64.3970   20.1450 O   0  0  0  0  0  0
   68.0780   63.8400   18.8480 S   0  0  0  0  0  0
   68.4840   64.8060   17.8890 O   0  0  0  0  0  0
   66.7510   63.0740   18.3970 N   0  0  0  0  0  0
   69.3310   62.6050   18.9210 C   0  0  0  0  0  0
   70.3740   62.6550   19.8540 C   0  0  0  0  0  0
   70.4910   63.8100   20.8450 C   0  0  0  0  0  0
   70.1170   64.9480   20.2710 F   0  0  0  0  0  0
   71.7530   63.9160   21.2410 F   0  0  0  0  0  0
   69.7190   63.5750   21.9010 F   0  0  0  0  0  0
   71.3340   61.6400   19.8720 C   0  0  0  0  0  0
   71.2370   60.5810   18.9770 C   0  0  0  0  0  0
   70.1840   60.5270   18.0760 C   0  0  0  0  0  0
   69.2370   61.5320   18.0470 C   0  0  0  0  0  0
   72.2240   59.4560   18.9720 C   0  0  0  0  0  0
   71.9790   58.2360   18.4190 O   0  0  0  0  0  0
   73.5250   59.4560   19.4600 C   0  0  0  0  0  0
   74.0640   58.1980   19.1950 C   0  0  0  0  0  0
   73.0820   57.4500   18.5520 C   0  0  0  0  0  0
   73.1860   56.0590   18.0580 C   0  0  0  0  0  0
   72.1800   55.5530   17.3180 C   0  0  0  0  0  0
   70.7640   56.3550   16.9770 S   0  0  0  0  0  0
   70.1780   55.0670   16.1060 C   0  0  0  0  0  0
   69.0400   55.0560   15.5410 N   0  0  0  0  0  0
   71.0460   54.0500   16.0570 N   0  0  0  0  0  0
   72.1830   54.2920   16.7280 C   0  0  0  0  0  0
   73.1120   53.4930   16.8100 O   0  0  0  0  0  0
   65.9190   63.7904   18.3298 H   0  0  0  0  0  0
   66.5070   62.2969   19.1363 H   0  0  0  0  0  0
   72.1567   61.6785   20.5859 H   0  0  0  0  0  0
   70.1033   59.6865   17.3867 H   0  0  0  0  0  0
   68.4132   61.4818   17.3350 H   0  0  0  0  0  0
   74.0296   60.2845   19.9570 H   0  0  0  0  0  0
   75.0701   57.8617   19.4455 H   0  0  0  0  0  0
   74.0663   55.4401   18.2859 H   0  0  0  0  0  0
   68.3765   55.9295   15.6235 H   0  0  0  0  0  0
   70.7898   53.1344   15.5037 H   0  0  0  0  0  0
  1  2  2  0  0  0
  2  3  2  0  0  0
  2  4  1  0  0  0
  2  5  1  0  0  0
  4 28  1  0  0  0
  4 29  1  0  0  0
  5  6  2  0  0  0
  5 14  1  0  0  0
  6  7  1  0  0  0
  6 11  1  0  0  0
  7  8  1  0  0  0
  7  9  1  0  0  0
  7 10  1  0  0  0
 11 12  2  0  0  0
 11 30  1  0  0  0
 12 13  1  0  0  0
 12 15  1  0  0  0
 13 14  2  0  0  0
 13 31  1  0  0  0
 14 32  1  0  0  0
 15 16  1  0  0  0
 15 17  2  0  0  0
 16 19  1  0  0  0
 17 18  1  0  0  0
 17 33  1  0  0  0
 18 19  2  0  0  0
 18 34  1  0  0  0
 19 20  1  0  0  0
 20 21  2  0  0  0
 20 35  1  0  0  0
 21 22  1  0  0  0
 21 26  1  0  0  0
 22 23  1  0  0  0
 23 24  2  0  0  0
 23 25  1  0  0  0
 24 36  1  0  0  0
 25 26  1  0  0  0
 25 37  1  0  0  0
 26 27  2  0  0  0
M  END
> <s_m_source_file>
../2uzl_ligand.sdf

> <i_m_source_file_index>
1

> <s_epik_input>
Tz1TKD1PKShbTkgyXSljMWMoQyhGKShGKUYpW2NIXWMoW2NIXVtjSF0xKS1jMm9jKFtjSF1bY0hdMikvW0NIXT1DM1xTL0MoPU5cW0hdKVtOSF1DMz1P

> <s_epik_cmdline>
J2VwaWtfYXBwJywgJy1pbWFlJywgJ2xpZ2FuZF9wcm8ubWFlJywgJy1vbWFlJywgJ2xpZ2FuZF9wcmVwLm1hZScsICctbXMnLCAnMScsICctcGgnLCAnNycsICctcGh0JywgJzAuNScsICctbnQn

> <r_lp_tautomer_probability>
1

> <r_epik_Ionization_Penalty>
  0.0043

> <r_epik_Ionization_Penalty_Charging>
  0.0000

> <r_epik_Ionization_Penalty_Neutral>
  0.0043

> <r_epik_State_Penalty>
 -0.0000

> <r_epik_Charging_Adjusted_Penalty>
0

> <i_epik_Tot_Q>
0

> <i_epik_Tot_abs_Q>
0

> <s_epik_Chemistry_Notes>
This compound has an imine and may undergo hydrolysis.

$$$$
