2uzn_ligand
                    3D
 Schrodinger Suite 2020-3.
 37 39  0  0  1  0            999 V2000
    7.1480   60.4530    6.6830 O   0  0  0  0  0  0
    6.0470   60.1670    7.5640 S   0  0  0  0  0  0
    5.3600   58.9900    7.1040 O   0  0  0  0  0  0
    6.5970   59.9180    9.0460 N   0  0  0  0  0  0
    4.9310   61.5280    7.5700 C   0  0  0  0  0  0
    3.8930   61.5590    8.4930 C   0  0  0  0  0  0
    2.9940   62.6130    8.4840 C   0  0  0  0  0  0
    3.1320   63.6430    7.5600 C   0  0  0  0  0  0
    4.1640   63.6120    6.6280 C   0  0  0  0  0  0
    5.0630   62.5480    6.6310 C   0  0  0  0  0  0
    2.1380   64.7620    7.5700 C   0  0  0  0  0  0
    1.0230   64.8010    8.3590 O   0  0  0  0  0  0
    2.1460   65.9030    6.7740 C   0  0  0  0  0  0
    1.0280   66.6570    7.1180 C   0  0  0  0  0  0
    0.3480   65.9650    8.1190 C   0  0  0  0  0  0
   -0.9170   66.3640    8.7800 C   0  0  0  0  0  0
   -1.3890   65.6360    9.8090 C   0  0  0  0  0  0
   -0.5580   64.3950   10.5270 S   0  0  0  0  0  0
   -1.7530   64.1700   11.6560 C   0  0  0  0  0  0
   -1.7060   63.2880   12.5690 N   0  0  0  0  0  0
   -2.7660   65.0290   11.4980 N   0  0  0  0  0  0
   -2.5900   65.8730   10.4730 C   0  0  0  0  0  0
   -1.5870   67.6560    8.3970 C   0  0  0  0  0  0
   -3.4000   66.7390   10.1550 O   0  0  0  0  0  0
    7.2942   59.0672    9.0402 H   0  0  0  0  0  0
    5.7543   59.6970    9.7175 H   0  0  0  0  0  0
    3.7863   60.7560    9.2224 H   0  0  0  0  0  0
    2.1757   62.6350    9.2037 H   0  0  0  0  0  0
    4.2687   64.4158    5.8993 H   0  0  0  0  0  0
    5.8696   62.5137    5.8986 H   0  0  0  0  0  0
    2.8904   66.1591    6.0201 H   0  0  0  0  0  0
    0.7372   67.6137    6.6841 H   0  0  0  0  0  0
   -0.8394   62.6141   12.6386 H   0  0  0  0  0  0
   -3.6296   64.9921   12.1783 H   0  0  0  0  0  0
   -1.0609   68.1018    7.5400 H   0  0  0  0  0  0
   -1.5559   68.3516    9.2486 H   0  0  0  0  0  0
   -2.6338   67.4589    8.1225 H   0  0  0  0  0  0
  1  2  2  0  0  0
  2  3  2  0  0  0
  2  4  1  0  0  0
  2  5  1  0  0  0
  4 25  1  0  0  0
  4 26  1  0  0  0
  5  6  2  0  0  0
  5 10  1  0  0  0
  6  7  1  0  0  0
  6 27  1  0  0  0
  7  8  2  0  0  0
  7 28  1  0  0  0
  8  9  1  0  0  0
  8 11  1  0  0  0
  9 10  2  0  0  0
  9 29  1  0  0  0
 10 30  1  0  0  0
 11 12  1  0  0  0
 11 13  2  0  0  0
 12 15  1  0  0  0
 13 14  1  0  0  0
 13 31  1  0  0  0
 14 15  2  0  0  0
 14 32  1  0  0  0
 15 16  1  0  0  0
 16 17  2  0  0  0
 16 23  1  0  0  0
 17 18  1  0  0  0
 17 22  1  0  0  0
 18 19  1  0  0  0
 19 20  2  0  0  0
 19 21  1  0  0  0
 20 33  1  0  0  0
 21 22  1  0  0  0
 21 34  1  0  0  0
 22 24  2  0  0  0
 23 35  1  0  0  0
 23 36  1  0  0  0
 23 37  1  0  0  0
M  END
> <s_m_source_file>
../2uzn_ligand.sdf

> <i_m_source_file_index>
1

> <s_epik_input>
Tz1TKD1PKShbTkgyXSljMVtjSF1bY0hdYyhbY0hdW2NIXTEpLWMyb2MoW2NIXVtjSF0yKS9DKFtDSDNdKT1DM1xTL0MoPU5cW0hdKVtOSF1DMz1P

> <s_epik_cmdline>
J2VwaWtfYXBwJywgJy1pbWFlJywgJ2xpZ2FuZF9wcm8ubWFlJywgJy1vbWFlJywgJ2xpZ2FuZF9wcmVwLm1hZScsICctbXMnLCAnMScsICctcGgnLCAnNycsICctcGh0JywgJzAuNScsICctbnQn

> <r_lp_tautomer_probability>
1

> <r_epik_Ionization_Penalty>
  0.0012

> <r_epik_Ionization_Penalty_Charging>
  0.0000

> <r_epik_Ionization_Penalty_Neutral>
  0.0012

> <r_epik_State_Penalty>
 -0.0000

> <r_epik_Charging_Adjusted_Penalty>
0

> <i_epik_Tot_Q>
0

> <i_epik_Tot_abs_Q>
0

> <s_epik_Chemistry_Notes>
This compound has an imine and may undergo hydrolysis.

$$$$
