2uzv_ligand
                    3D
 Schrodinger Suite 2020-3.
 69 73  0  0  1  0            999 V2000
   15.8390    7.8210    2.6620 C   0  0  0  0  0  0
   16.0990    6.5570    3.2560 C   0  0  0  0  0  0
   17.1640    6.4120    4.1710 C   0  0  0  0  0  0
   17.9860    7.5360    4.5020 C   0  0  0  0  0  0
   17.7320    8.8240    3.9050 C   0  0  0  0  0  0
   16.6610    8.9280    3.0000 C   0  0  0  0  0  0
   14.7300    8.0470    1.6700 C   0  0  0  0  0  0
   18.4530   10.0330    4.1220 O   0  0  0  0  0  0
   13.3670    8.3610    2.2770 C   0  0  1  0  0  0
   12.3820    8.6650    1.1510 C   0  0  0  0  0  0
   11.1130    9.0080    1.6850 O   0  0  0  0  0  0
   12.8660    7.2070    3.0130 N   0  3  0  0  0  0
   10.1090    9.3610    0.7670 C   0  0  0  0  0  0
   10.3140    9.6830   -0.6150 C   0  0  0  0  0  0
    9.2920   10.0160   -1.4290 N   0  0  0  0  0  0
    8.0170   10.0520   -0.9430 C   0  0  0  0  0  0
    7.7000    9.7550    0.4060 C   0  0  0  0  0  0
    8.7860    9.4100    1.2430 C   0  0  0  0  0  0
    5.1790    9.5660    0.0360 C   0  0  0  0  0  0
    3.8350    9.5690    0.4860 C   0  0  0  0  0  0
    3.5590    9.7880    1.8270 C   0  0  0  0  0  0
    4.6400   10.0180    2.7730 C   0  0  0  0  0  0
    5.9640   10.0140    2.3130 C   0  0  0  0  0  0
    6.2750    9.7850    0.9210 C   0  0  0  0  0  0
    2.4360    9.8550    2.5940 N   0  0  0  0  0  0
    2.7140   10.0970    3.8830 N   0  0  0  0  0  0
    4.0270   10.2120    4.0830 C   0  0  3  0  0  0
    4.6560   10.4840    5.4310 C   0  0  0  0  0  0
   19.5570   10.0170    5.0160 C   0  0  0  0  0  0
   20.2370   11.4000    5.1820 C   0  0  0  0  0  0
   21.5490   11.5040    4.3630 C   0  0  0  0  0  0
   22.2310   12.8840    4.5410 C   0  0  0  0  0  0
   21.2700   14.0560    4.2160 C   0  0  0  0  0  0
   19.9310   13.9550    4.9800 C   0  0  0  0  0  0
   19.2740   12.5690    4.8040 C   0  0  0  0  0  0
   15.4758    5.6987    3.0051 H   0  0  0  0  0  0
   17.3609    5.4416    4.6267 H   0  0  0  0  0  0
   18.8076    7.4180    5.2084 H   0  0  0  0  0  0
   16.4541    9.8947    2.5408 H   0  0  0  0  0  0
   14.9862    8.8975    1.0211 H   0  0  0  0  0  0
   14.5977    7.1440    1.0559 H   0  0  0  0  0  0
   13.4550    9.1938    2.9903 H   0  0  0  0  0  0
   12.7586    9.5071    0.5518 H   0  0  0  0  0  0
   12.2734    7.7781    0.5094 H   0  0  0  0  0  0
   13.5589    6.9658    3.8325 H   0  0  0  0  0  0
   12.7869    6.3452    2.3340 H   0  0  0  0  0  0
   11.8741    7.4392    3.4279 H   0  0  0  0  0  0
   11.3258    9.6579   -1.0195 H   0  0  0  0  0  0
    7.2076   10.3208   -1.6218 H   0  0  0  0  0  0
    8.5922    9.1747    2.2895 H   0  0  0  0  0  0
    5.3811    9.3906   -1.0206 H   0  0  0  0  0  0
    3.0215    9.3998   -0.2195 H   0  0  0  0  0  0
    6.7754   10.1872    3.0199 H   0  0  0  0  0  0
    5.7496   10.5321    5.3223 H   0  0  0  0  0  0
    4.3920    9.6755    6.1286 H   0  0  0  0  0  0
    4.2839   11.4422    5.8226 H   0  0  0  0  0  0
   19.2179    9.6948    6.0116 H   0  0  0  0  0  0
   20.3198    9.3171    4.6442 H   0  0  0  0  0  0
   20.4958   11.4860    6.2477 H   0  0  0  0  0  0
   22.2518   10.7261    4.6961 H   0  0  0  0  0  0
   21.3266   11.3641    3.2948 H   0  0  0  0  0  0
   22.5669   12.9954    5.5825 H   0  0  0  0  0  0
   23.0973   12.9546    3.8668 H   0  0  0  0  0  0
   21.7461   15.0081    4.4931 H   0  0  0  0  0  0
   21.0453   14.0581    3.1392 H   0  0  0  0  0  0
   20.1078   14.1197    6.0531 H   0  0  0  0  0  0
   19.2346   14.7179    4.6019 H   0  0  0  0  0  0
   18.9710   12.4686    3.7513 H   0  0  0  0  0  0
   18.3825   12.5322    5.4473 H   0  0  0  0  0  0
  1  2  2  0  0  0
  1  6  1  0  0  0
  1  7  1  0  0  0
  2  3  1  0  0  0
  2 36  1  0  0  0
  3  4  2  0  0  0
  3 37  1  0  0  0
  4  5  1  0  0  0
  4 38  1  0  0  0
  5  6  2  0  0  0
  5  8  1  0  0  0
  6 39  1  0  0  0
  7  9  1  0  0  0
  7 40  1  0  0  0
  7 41  1  0  0  0
  8 29  1  0  0  0
  9 10  1  0  0  0
  9 12  1  0  0  0
  9 42  1  0  0  0
 10 11  1  0  0  0
 10 43  1  0  0  0
 10 44  1  0  0  0
 11 13  1  0  0  0
 12 45  1  0  0  0
 12 46  1  0  0  0
 12 47  1  0  0  0
 13 14  2  0  0  0
 13 18  1  0  0  0
 14 15  1  0  0  0
 14 48  1  0  0  0
 15 16  2  0  0  0
 16 17  1  0  0  0
 16 49  1  0  0  0
 17 18  2  0  0  0
 17 24  1  0  0  0
 18 50  1  0  0  0
 19 20  2  0  0  0
 19 24  1  0  0  0
 19 51  1  0  0  0
 20 21  1  0  0  0
 20 52  1  0  0  0
 21 22  2  0  0  0
 21 25  1  0  0  0
 22 23  1  0  0  0
 22 27  1  0  0  0
 23 24  2  0  0  0
 23 53  1  0  0  0
 25 26  2  0  0  0
 26 27  1  0  0  0
 27 28  1  0  0  0
 28 54  1  0  0  0
 28 55  1  0  0  0
 28 56  1  0  0  0
 29 30  1  0  0  0
 29 57  1  0  0  0
 29 58  1  0  0  0
 30 31  1  0  0  0
 30 35  1  0  0  0
 30 59  1  0  0  0
 31 32  1  0  0  0
 31 60  1  0  0  0
 31 61  1  0  0  0
 32 33  1  0  0  0
 32 62  1  0  0  0
 32 63  1  0  0  0
 33 34  1  0  0  0
 33 64  1  0  0  0
 33 65  1  0  0  0
 34 35  1  0  0  0
 34 66  1  0  0  0
 34 67  1  0  0  0
 35 68  1  0  0  0
 35 69  1  0  0  0
M  CHG  1  12   1
M  END
> <s_m_source_file>
../2uzv_ligand.sdf

> <i_m_source_file_index>
1

> <s_epik_input>
W0NIMl0xW0NIMl1bQ0gyXVtDSDJdW0NIMl1bQ0hdMVtDSDJdT2MoW2NIXTIpW2NIXVtjSF1bY0hdYzJbQ0gyXVtDQEhdKFtOSDMrXSlbQ0gyXU9jM1tjSF1uW2NIXWMoW2NIXTMpLWMoW2NIXVtjSF00KVtjSF1jKGM0NSlbQ0hdKE49TjUpW0NIM10=

> <s_epik_cmdline>
J2VwaWtfYXBwJywgJy1pbWFlJywgJ2xpZ2FuZF9wcm8ubWFlJywgJy1vbWFlJywgJ2xpZ2FuZF9wcmVwLm1hZScsICctbXMnLCAnMScsICctcGgnLCAnNycsICctcGh0JywgJzAuNScsICctbnQn

> <r_epik_Ionization_Penalty>
  0.0156

> <r_epik_Ionization_Penalty_Charging>
  0.0151

> <r_epik_Ionization_Penalty_Neutral>
  0.0005

> <r_epik_State_Penalty>
  0.0119

> <r_epik_Charging_Adjusted_Penalty>
0.0270034540302394

> <i_epik_Tot_Q>
1

> <i_epik_Tot_abs_Q>
1

$$$$
