2v0c_ligand
                    3D
 Schrodinger Suite 2020-3.
 49 53  0  0  1  0            999 V2000
   56.9160  -26.1230   28.0670 C   0  0  0  0  0  0
   56.3700  -26.3920   26.6800 C   0  0  0  0  0  0
   57.0360  -27.0880   25.6720 C   0  0  0  0  0  0
   55.0770  -25.9270   26.5340 C   0  0  0  0  0  0
   56.3820  -27.2610   24.4340 C   0  0  0  0  0  0
   54.4220  -26.0840   25.2980 C   0  0  0  0  0  0
   55.0780  -26.7690   24.2590 C   0  0  0  0  0  0
   48.0320  -23.4780   29.3650 P   0  0  0  0  0  0
   47.7690  -22.8660   27.9910 O   0  5  0  0  0  0
   47.3710  -24.8530   29.4870 O   0  5  0  0  0  0
   47.9150  -22.4740   30.5030 O   0  0  0  0  0  0
   51.9410  -21.3750   29.1410 N   0  0  0  0  0  0
   51.7110  -21.6990   30.4430 C   0  0  0  0  0  0
   51.3330  -20.5900   31.1170 N   0  0  0  0  0  0
   51.3330  -19.5840   30.2190 C   0  0  0  0  0  0
   51.0420  -18.2390   30.3340 C   0  0  0  0  0  0
   50.6810  -17.7860   31.5600 N   0  0  0  0  0  0
   51.1340  -17.4220   29.2390 N   0  0  0  0  0  0
   51.5180  -17.9340   28.0330 C   0  0  0  0  0  0
   51.8020  -19.2460   27.8940 N   0  0  0  0  0  0
   51.7090  -20.0800   28.9740 C   0  0  0  0  0  0
   49.6140  -23.8590   29.2730 O   0  0  0  0  0  0
   50.0520  -24.7480   28.2440 C   0  0  0  0  0  0
   51.4300  -24.3530   27.7450 C   0  0  1  0  0  0
   51.3950  -22.9610   27.3790 O   0  0  0  0  0  0
   52.5070  -24.5650   28.8080 C   0  0  1  0  0  0
   53.3480  -25.6600   28.5160 O   0  0  0  0  0  0
   53.3370  -23.3140   28.6410 C   0  0  1  0  0  0
   54.3650  -23.6850   27.7310 O   0  0  0  0  0  0
   52.4180  -22.2580   28.0520 C   0  0  2  0  0  0
   57.0300  -27.9450   23.4670 F   0  0  0  0  0  0
   55.7980  -25.4200   28.6640 O   0  0  0  0  0  0
   54.5500  -25.1840   27.7390 B   0  0  0  0  0  0
   57.1514  -27.0778   28.5599 H   0  0  0  0  0  0
   57.8296  -25.5152   27.9899 H   0  0  0  0  0  0
   58.0365  -27.4882   25.8363 H   0  0  0  0  0  0
   53.4206  -25.6805   25.1480 H   0  0  0  0  0  0
   54.5685  -26.9197   23.3072 H   0  0  0  0  0  0
   51.8151  -22.6949   30.8737 H   0  0  0  0  0  0
   50.6218  -18.4834   32.4086 H   0  0  0  0  0  0
   50.4473  -16.7211   31.7060 H   0  0  0  0  0  0
   51.5964  -17.2733   27.1696 H   0  0  0  0  0  0
   50.0976  -25.7732   28.6401 H   0  0  0  0  0  0
   49.3449  -24.7113   27.4022 H   0  0  0  0  0  0
   51.6815  -24.9406   26.8498 H   0  0  0  0  0  0
   52.1168  -24.8067   29.8077 H   0  0  0  0  0  0
   53.8275  -22.9289   29.5472 H   0  0  0  0  0  0
   52.8575  -21.5954   27.2918 H   0  0  0  0  0  0
   55.8617  -25.0682   29.7043 H   0  0  0  0  0  0
  1  2  1  0  0  0
  1 32  1  0  0  0
  1 34  1  0  0  0
  1 35  1  0  0  0
  2  3  2  0  0  0
  2  4  1  0  0  0
  3  5  1  0  0  0
  3 36  1  0  0  0
  4  6  2  0  0  0
  4 33  1  0  0  0
  5  7  2  0  0  0
  5 31  1  0  0  0
  6  7  1  0  0  0
  6 37  1  0  0  0
  7 38  1  0  0  0
  8  9  1  0  0  0
  8 10  1  0  0  0
  8 11  2  0  0  0
  8 22  1  0  0  0
 12 13  1  0  0  0
 12 21  1  0  0  0
 12 30  1  0  0  0
 13 14  2  0  0  0
 13 39  1  0  0  0
 14 15  1  0  0  0
 15 16  2  0  0  0
 15 21  1  0  0  0
 16 17  1  0  0  0
 16 18  1  0  0  0
 17 40  1  0  0  0
 17 41  1  0  0  0
 18 19  2  0  0  0
 19 20  1  0  0  0
 19 42  1  0  0  0
 20 21  2  0  0  0
 22 23  1  0  0  0
 23 24  1  0  0  0
 23 43  1  0  0  0
 23 44  1  0  0  0
 24 25  1  0  0  0
 24 26  1  0  0  0
 24 45  1  0  0  0
 25 30  1  0  0  0
 26 27  1  0  0  0
 26 28  1  0  0  0
 26 46  1  0  0  0
 27 33  1  0  0  0
 28 29  1  0  0  0
 28 30  1  0  0  0
 28 47  1  0  0  0
 29 33  1  0  0  0
 30 48  1  0  0  0
 32 49  1  0  0  0
M  CHG  2   9  -1  10  -1
M  END
> <s_m_source_file>
../2v0c_ligand.sdf

> <i_m_source_file_index>
1

> <s_epik_input>
W09IXVtDSDJdYzFbY0hdYyhGKVtjSF1bY0hdYzFCKE8yKU9bQ0BIXShbQ0BIXTIzKVtDQEBIXShPW0NAQEhdM1tDSDJdT1AoPU8pKFtPSF0pW09IXSluKFtjSF1uNCljKGM0NSluW2NIXW5jNVtOSDJd

> <s_epik_cmdline>
J2VwaWtfYXBwJywgJy1pbWFlJywgJ2xpZ2FuZF9wcm8ubWFlJywgJy1vbWFlJywgJ2xpZ2FuZF9wcmVwLm1hZScsICctbXMnLCAnMScsICctcGgnLCAnNycsICctcGh0JywgJzAuNScsICctbnQn

> <r_lp_tautomer_probability>
0.999997216410988

> <r_epik_Ionization_Penalty>
  0.0965

> <r_epik_Ionization_Penalty_Charging>
  0.0959

> <r_epik_Ionization_Penalty_Neutral>
  0.0006

> <r_epik_State_Penalty>
  0.0861

> <r_epik_Charging_Adjusted_Penalty>
0.181965044896721

> <i_epik_Tot_Q>
-2

> <i_epik_Tot_abs_Q>
2

> <s_epik_Chemistry_Notes>
This compound contains an acetal/aminal-like group ( X-CH(R)-Y where X, Y are N, S, or O) that may be acid/base labile, releasing an aldehyde.

$$$$
