2v0n_ligand
                    3D
 Schrodinger Suite 2020-3.
 67 73  0  0  1  0            999 V2000
   76.9100   63.9880   70.3130 P   0  0  1  0  0  0
   76.9010   62.5230   70.6000 O   0  0  0  0  0  0
   76.6540   64.8850   71.4970 O   0  5  0  0  0  0
   78.3650   64.4790   69.8580 O   0  0  0  0  0  0
   78.6450   65.5900   68.9930 C   0  0  0  0  0  0
   79.7110   64.9470   68.1420 C   0  0  2  0  0  0
   81.0290   65.3080   68.5460 O   0  0  0  0  0  0
   79.6630   64.9200   66.6080 C   0  0  1  0  0  0
   78.8420   65.9170   65.9820 O   0  0  0  0  0  0
   81.1500   64.9680   66.2760 C   0  0  1  0  0  0
   81.5480   66.2640   65.8560 O   0  0  0  0  0  0
   81.8670   64.6640   67.5830 C   0  0  2  0  0  0
   81.9860   63.1890   67.8010 N   0  0  0  0  0  0
   81.3600   62.4520   68.7520 C   0  0  0  0  0  0
   81.6930   61.1550   68.6480 N   0  0  0  0  0  0
   82.5620   61.0730   67.6270 C   0  0  0  0  0  0
   83.2430   59.9990   67.0890 C   0  0  0  0  0  0
   83.1270   58.8430   67.5550 O   0  0  0  0  0  0
   84.0360   60.2120   66.0540 N   0  3  0  0  0  0
   84.1980   61.4270   65.5530 C   0  0  0  0  0  0
   85.0320   61.5330   64.5110 N   0  0  0  0  0  0
   83.5660   62.5110   66.0520 N   0  0  0  0  0  0
   82.7380   62.3460   67.0950 C   0  0  0  0  0  0
   78.0470   65.2590   64.7380 P   0  0  2  0  0  0
   79.0000   64.3730   63.9590 O   0  0  0  0  0  0
   77.2440   66.3470   64.0260 O   0  5  0  0  0  0
   76.8850   64.3300   65.3010 O   0  0  0  0  0  0
   75.9060   65.0160   66.0720 C   0  0  0  0  0  0
   75.0920   64.0580   66.9180 C   0  0  1  0  0  0
   74.3960   63.0720   66.1410 O   0  0  0  0  0  0
   75.8020   63.3900   68.1050 C   0  0  1  0  0  0
   75.8050   64.3480   69.1750 O   0  0  0  0  0  0
   74.8830   62.1840   68.2610 C   0  0  1  0  0  0
   73.7770   62.5530   69.0500 O   0  0  0  0  0  0
   74.3330   61.8600   66.8920 C   0  0  2  0  0  0
   75.1650   60.8890   66.1700 N   0  0  0  0  0  0
   76.1560   61.1790   65.3130 C   0  0  0  0  0  0
   76.6740   60.0350   64.8230 N   0  0  0  0  0  0
   75.9860   59.0100   65.3770 C   0  0  0  0  0  0
   76.0470   57.6120   65.2690 C   0  0  0  0  0  0
   76.8630   56.9910   64.5410 O   0  0  0  0  0  0
   75.2060   56.8850   65.9810 N   0  0  0  0  0  0
   74.3240   57.4440   66.7730 C   0  0  0  0  0  0
   73.5040   56.6520   67.4480 N   0  0  0  0  0  0
   74.2200   58.7670   66.9160 N   0  0  0  0  0  0
   75.0450   59.5720   66.2260 C   0  0  0  0  0  0
   77.7311   65.8705   68.4489 H   0  0  0  0  0  0
   78.9909   66.4442   69.5935 H   0  0  0  0  0  0
   79.4945   63.9100   68.4381 H   0  0  0  0  0  0
   79.1064   64.0842   66.1589 H   0  0  0  0  0  0
   81.4080   64.3133   65.4306 H   0  0  0  0  0  0
   81.1455   66.6880   64.9242 H   0  0  0  0  0  0
   82.8962   65.0417   67.6733 H   0  0  0  0  0  0
   80.6786   62.8576   69.4998 H   0  0  0  0  0  0
   85.5379   60.6387   64.1182 H   0  0  0  0  0  0
   76.4031   65.7340   66.7408 H   0  0  0  0  0  0
   75.2212   65.5543   65.4001 H   0  0  0  0  0  0
   74.3110   64.7145   67.3292 H   0  0  0  0  0  0
   76.8668   63.1150   68.0795 H   0  0  0  0  0  0
   75.3810   61.3386   68.7583 H   0  0  0  0  0  0
   73.9227   62.8376   70.1025 H   0  0  0  0  0  0
   73.3108   61.4603   66.9656 H   0  0  0  0  0  0
   76.4902   62.1835   65.0534 H   0  0  0  0  0  0
   73.5709   55.6397   67.3425 H   0  0  0  0  0  0
   73.4637   59.1891   67.5941 H   0  0  0  0  0  0
   85.2113   62.5144   64.0477 H   0  0  0  0  0  0
   84.5760   59.3719   65.5928 H   0  0  0  0  0  0
  1  2  2  0  0  0
  1  3  1  0  0  0
  1  4  1  0  0  0
  1 32  1  0  0  0
  4  5  1  0  0  0
  5  6  1  0  0  0
  5 47  1  0  0  0
  5 48  1  0  0  0
  6  7  1  0  0  0
  6  8  1  0  0  0
  6 49  1  0  0  0
  7 12  1  0  0  0
  8  9  1  0  0  0
  8 10  1  0  0  0
  8 50  1  0  0  0
  9 24  1  0  0  0
 10 11  1  0  0  0
 10 12  1  0  0  0
 10 51  1  0  0  0
 11 52  1  0  0  0
 12 13  1  0  0  0
 12 53  1  0  0  0
 13 14  1  0  0  0
 13 23  1  0  0  0
 14 15  2  0  0  0
 14 54  1  0  0  0
 15 16  1  0  0  0
 16 17  1  0  0  0
 16 23  2  0  0  0
 17 18  2  0  0  0
 17 19  1  0  0  0
 19 20  1  0  0  0
 19 67  1  0  0  0
 20 21  1  0  0  0
 20 22  2  0  0  0
 21 55  1  0  0  0
 21 66  1  0  0  0
 22 23  1  0  0  0
 24 25  2  0  0  0
 24 26  1  0  0  0
 24 27  1  0  0  0
 27 28  1  0  0  0
 28 29  1  0  0  0
 28 56  1  0  0  0
 28 57  1  0  0  0
 29 30  1  0  0  0
 29 31  1  0  0  0
 29 58  1  0  0  0
 30 35  1  0  0  0
 31 32  1  0  0  0
 31 33  1  0  0  0
 31 59  1  0  0  0
 33 34  1  0  0  0
 33 35  1  0  0  0
 33 60  1  0  0  0
 34 61  1  0  0  0
 35 36  1  0  0  0
 35 62  1  0  0  0
 36 37  1  0  0  0
 36 46  1  0  0  0
 37 38  2  0  0  0
 37 63  1  0  0  0
 38 39  1  0  0  0
 39 40  1  0  0  0
 39 46  2  0  0  0
 40 41  2  0  0  0
 40 42  1  0  0  0
 42 43  1  0  0  0
 43 44  2  0  0  0
 43 45  1  0  0  0
 44 64  1  0  0  0
 45 46  1  0  0  0
 45 65  1  0  0  0
M  CHG  3   3  -1  19   1  26  -1
M  END
> <s_m_source_file>
../2v0n_ligand.sdf

> <i_m_source_file_index>
1

> <s_epik_input>
Tz1jMVtuSF0vYyg9TlxbSF0pW25IXWMoYzEyKW4oW2NIXW4yKVtDQEhdKE8zKVtDQEhdKFtPSF0pW0NASF0oT1tQQF0oPU8pKFtPSF0pT1tDSDJdNClbQ0BIXTNbQ0gyXU9bUEBAXSg9TykoW09IXSlPW0NASF0oW0NASF00NSlbQ0BASF0oW09IXSlbQ0BASF0oTzUpbihbY0hdbjYpYyhjNjcpW25IXWMoPU5cW0hdKVxbbkhdYzc9Tw==

> <s_epik_cmdline>
J2VwaWtfYXBwJywgJy1pbWFlJywgJ2xpZ2FuZF9wcm8ubWFlJywgJy1vbWFlJywgJ2xpZ2FuZF9wcmVwLm1hZScsICctbXMnLCAnMScsICctcGgnLCAnNycsICctcGh0JywgJzAuNScsICctbnQn

> <r_epik_Ionization_Penalty>
  3.2341

> <r_epik_Ionization_Penalty_Charging>
  3.2333

> <r_epik_Ionization_Penalty_Neutral>
  0.0007

> <r_epik_State_Penalty>
  0.2212

> <r_epik_Charging_Adjusted_Penalty>
3.45456703105302

> <i_epik_Tot_Q>
-1

> <i_epik_Tot_abs_Q>
3

> <s_epik_Chemistry_Notes>
This compound has an imine and may undergo hydrolysis. This compound contains an acetal/aminal-like group ( X-CH(R)-Y where X, Y are N, S, or O) that may be acid/base labile, releasing an aldehyde.

$$$$
