2v0z_ligand
                    3D
 Schrodinger Suite 2020-3.
 93 93  0  0  1  0            999 V2000
   15.0150   42.2060   70.2320 C   0  0  0  0  0  0
   15.4670   43.5420   70.3270 O   0  0  0  0  0  0
   14.5690   44.3930   69.5720 C   0  0  0  0  0  0
   14.2460   45.6780   70.3420 C   0  0  0  0  0  0
   13.7670   45.3640   71.7650 C   0  0  0  0  0  0
   13.5730   46.5520   72.5430 O   0  0  0  0  0  0
   12.4480   47.3610   72.3100 C   0  0  0  0  0  0
   11.3440   46.9530   71.6000 C   0  0  0  0  0  0
   10.2990   47.8670   71.4030 C   0  0  0  0  0  0
   10.3860   49.1860   71.9330 C   0  0  0  0  0  0
   11.4920   49.5980   72.6540 C   0  0  0  0  0  0
   12.5320   48.6720   72.8450 C   0  0  0  0  0  0
   13.7160   48.9420   73.5900 O   0  0  0  0  0  0
   13.9310   50.2470   74.1580 C   0  0  0  0  0  0
    9.0560   47.4570   70.6110 C   0  0  0  0  0  0
    9.3830   46.9610   69.1900 C   0  0  2  0  0  0
   10.2440   48.0040   68.4170 C   0  0  0  0  0  0
   10.7340   47.4340   67.0790 C   0  0  0  0  0  0
    9.4810   49.3390   68.2340 C   0  0  0  0  0  0
    8.0620   46.6810   68.4600 C   0  0  0  0  0  0
    7.2830   45.4640   68.9730 C   0  0  2  0  0  0
    8.1090   44.2510   68.7700 N   0  3  0  0  0  0
    5.9490   45.3180   68.2140 C   0  0  1  0  0  0
    6.2230   44.8010   66.9080 O   0  0  0  0  0  0
    4.9930   44.3330   68.9230 C   0  0  0  0  0  0
    3.6730   44.0650   68.1510 C   0  0  1  0  0  0
    2.6600   43.2060   68.9760 C   0  0  0  0  0  0
    1.3860   42.9090   68.1490 C   0  0  0  0  0  0
    3.2960   41.8970   69.4400 C   0  0  0  0  0  0
    3.0420   45.3990   67.7650 C   0  0  0  0  0  0
    2.7040   46.2240   68.6280 O   0  0  0  0  0  0
    2.9320   45.6220   66.4630 N   0  0  0  0  0  0
    2.4060   46.8560   65.8820 C   0  0  0  0  0  0
    1.1490   46.6710   65.0450 C   0  0  0  0  0  0
    1.3890   45.6960   63.8770 C   0  0  0  0  0  0
    0.7810   48.0300   64.4790 C   0  0  0  0  0  0
    0.1120   46.2500   65.9150 C   0  0  0  0  0  0
   -0.3810   45.1300   65.7570 O   0  0  0  0  0  0
   -0.2300   47.0350   66.9330 N   0  0  0  0  0  0
   15.6891   41.5495   70.8016 H   0  0  0  0  0  0
   15.0065   41.8960   69.1766 H   0  0  0  0  0  0
   13.9976   42.1330   70.6438 H   0  0  0  0  0  0
   15.0395   44.6655   68.6158 H   0  0  0  0  0  0
   13.6297   43.8543   69.3781 H   0  0  0  0  0  0
   15.1481   46.3044   70.4048 H   0  0  0  0  0  0
   13.4521   46.2300   69.8175 H   0  0  0  0  0  0
   12.8095   44.8246   71.7189 H   0  0  0  0  0  0
   14.5155   44.7394   72.2744 H   0  0  0  0  0  0
   11.2822   45.9413   71.1990 H   0  0  0  0  0  0
    9.5654   49.8840   71.7673 H   0  0  0  0  0  0
   11.5550   50.6073   73.0606 H   0  0  0  0  0  0
   14.8925   50.2605   74.6921 H   0  0  0  0  0  0
   13.1176   50.4794   74.8612 H   0  0  0  0  0  0
   13.9471   50.9984   73.3548 H   0  0  0  0  0  0
    8.5378   46.6422   71.1378 H   0  0  0  0  0  0
    8.3806   48.3200   70.5160 H   0  0  0  0  0  0
    9.9652   46.0297   69.2507 H   0  0  0  0  0  0
   11.1436   48.2245   69.0104 H   0  0  0  0  0  0
   11.2684   46.4891   67.2567 H   0  0  0  0  0  0
   11.4130   48.1548   66.6000 H   0  0  0  0  0  0
    9.8718   47.2495   66.4213 H   0  0  0  0  0  0
    9.1496   49.7094   69.2153 H   0  0  0  0  0  0
    8.6051   49.1753   67.5890 H   0  0  0  0  0  0
   10.1463   50.0806   67.7677 H   0  0  0  0  0  0
    7.3944   47.5490   68.5642 H   0  0  0  0  0  0
    8.2635   46.4994   67.3940 H   0  0  0  0  0  0
    7.0851   45.5677   70.0501 H   0  0  0  0  0  0
    9.0594   44.3595   69.3131 H   0  0  0  0  0  0
    8.3126   44.1215   67.6968 H   0  0  0  0  0  0
    7.5682   43.3715   69.1494 H   0  0  0  0  0  0
    5.4751   46.3037   68.0962 H   0  0  0  0  0  0
    6.8889   45.3515   66.2271 H   0  0  0  0  0  0
    5.4955   43.3630   69.0518 H   0  0  0  0  0  0
    4.7158   44.7361   69.9082 H   0  0  0  0  0  0
    3.9176   43.5041   67.2369 H   0  0  0  0  0  0
    2.3760   43.7717   69.8756 H   0  0  0  0  0  0
    0.9342   43.8560   67.8188 H   0  0  0  0  0  0
    0.6661   42.3563   68.7704 H   0  0  0  0  0  0
    1.6523   42.3036   67.2700 H   0  0  0  0  0  0
    4.2002   42.1165   70.0267 H   0  0  0  0  0  0
    3.5660   41.2896   68.5635 H   0  0  0  0  0  0
    2.5797   41.3423   70.0639 H   0  0  0  0  0  0
    3.2674   44.8048   65.8075 H   0  0  0  0  0  0
    2.1542   47.5620   66.6870 H   0  0  0  0  0  0
    3.1655   47.3048   65.2250 H   0  0  0  0  0  0
    2.2018   46.0778   63.2418 H   0  0  0  0  0  0
    0.4693   45.6050   63.2804 H   0  0  0  0  0  0
    1.6672   44.7089   64.2747 H   0  0  0  0  0  0
    1.5764   48.3722   63.8005 H   0  0  0  0  0  0
    0.6656   48.7508   65.3018 H   0  0  0  0  0  0
   -0.1657   47.9520   63.9244 H   0  0  0  0  0  0
    0.2312   48.0278   67.0411 H   0  0  0  0  0  0
   -0.9740   46.6914   67.6667 H   0  0  0  0  0  0
  1  2  1  0  0  0
  1 40  1  0  0  0
  1 41  1  0  0  0
  1 42  1  0  0  0
  2  3  1  0  0  0
  3  4  1  0  0  0
  3 43  1  0  0  0
  3 44  1  0  0  0
  4  5  1  0  0  0
  4 45  1  0  0  0
  4 46  1  0  0  0
  5  6  1  0  0  0
  5 47  1  0  0  0
  5 48  1  0  0  0
  6  7  1  0  0  0
  7  8  2  0  0  0
  7 12  1  0  0  0
  8  9  1  0  0  0
  8 49  1  0  0  0
  9 10  2  0  0  0
  9 15  1  0  0  0
 10 11  1  0  0  0
 10 50  1  0  0  0
 11 12  2  0  0  0
 11 51  1  0  0  0
 12 13  1  0  0  0
 13 14  1  0  0  0
 14 52  1  0  0  0
 14 53  1  0  0  0
 14 54  1  0  0  0
 15 16  1  0  0  0
 15 55  1  0  0  0
 15 56  1  0  0  0
 16 17  1  0  0  0
 16 20  1  0  0  0
 16 57  1  0  0  0
 17 18  1  0  0  0
 17 19  1  0  0  0
 17 58  1  0  0  0
 18 59  1  0  0  0
 18 60  1  0  0  0
 18 61  1  0  0  0
 19 62  1  0  0  0
 19 63  1  0  0  0
 19 64  1  0  0  0
 20 21  1  0  0  0
 20 65  1  0  0  0
 20 66  1  0  0  0
 21 22  1  0  0  0
 21 23  1  0  0  0
 21 67  1  0  0  0
 22 68  1  0  0  0
 22 69  1  0  0  0
 22 70  1  0  0  0
 23 24  1  0  0  0
 23 25  1  0  0  0
 23 71  1  0  0  0
 24 72  1  0  0  0
 25 26  1  0  0  0
 25 73  1  0  0  0
 25 74  1  0  0  0
 26 27  1  0  0  0
 26 30  1  0  0  0
 26 75  1  0  0  0
 27 28  1  0  0  0
 27 29  1  0  0  0
 27 76  1  0  0  0
 28 77  1  0  0  0
 28 78  1  0  0  0
 28 79  1  0  0  0
 29 80  1  0  0  0
 29 81  1  0  0  0
 29 82  1  0  0  0
 30 31  2  0  0  0
 30 32  1  0  0  0
 32 33  1  0  0  0
 32 83  1  0  0  0
 33 34  1  0  0  0
 33 84  1  0  0  0
 33 85  1  0  0  0
 34 35  1  0  0  0
 34 36  1  0  0  0
 34 37  1  0  0  0
 35 86  1  0  0  0
 35 87  1  0  0  0
 35 88  1  0  0  0
 36 89  1  0  0  0
 36 90  1  0  0  0
 36 91  1  0  0  0
 37 38  2  0  0  0
 37 39  1  0  0  0
 39 92  1  0  0  0
 39 93  1  0  0  0
M  CHG  1  22   1
M  END
> <s_m_source_file>
../2v0z_ligand.sdf

> <i_m_source_file_index>
1

> <s_epik_input>
W0NIM11PW0NIMl1bQ0gyXVtDSDJdT2MxW2NIXWMoW2NIXVtjSF1jMU9bQ0gzXSlbQ0gyXVtDQEhdKFtDSF0oW0NIM10pW0NIM10pW0NIMl1bQ0BIXShbTkgzK10pW0NAQEhdKFtPSF0pW0NIMl1bQ0BASF0oW0NIXShbQ0gzXSlbQ0gzXSlDKD1PKVtOSF1bQ0gyXUMoW0NIM10pKFtDSDNdKUMoPU8pW05IMl0=

> <s_epik_cmdline>
J2VwaWtfYXBwJywgJy1pbWFlJywgJ2xpZ2FuZF9wcm8ubWFlJywgJy1vbWFlJywgJ2xpZ2FuZF9wcmVwLm1hZScsICctbXMnLCAnMScsICctcGgnLCAnNycsICctcGh0JywgJzAuNScsICctbnQn

> <r_lp_tautomer_probability>
1

> <r_epik_Ionization_Penalty>
  0.0069

> <r_epik_Ionization_Penalty_Charging>
  0.0069

> <r_epik_Ionization_Penalty_Neutral>
  0.0000

> <r_epik_State_Penalty>
 -0.0000

> <r_epik_Charging_Adjusted_Penalty>
0.00685113033411557

> <i_epik_Tot_Q>
1

> <i_epik_Tot_abs_Q>
1

$$$$
