2v10_ligand
                    3D
 Schrodinger Suite 2020-3.
 81 81  0  0  1  0            999 V2000
   15.8790   43.9080   69.8030 C   0  0  0  0  0  0
   15.9160   45.0720   70.5930 O   0  0  0  0  0  0
   14.5790   45.5250   70.7430 C   0  0  0  0  0  0
   14.4880   46.3440   72.0490 C   0  0  0  0  0  0
   13.2840   47.2610   71.9710 C   0  0  0  0  0  0
   13.2370   48.1260   73.0990 O   0  0  0  0  0  0
   13.2170   50.5430   74.6170 O   0  0  0  0  0  0
   12.9850   50.8150   76.0330 C   0  0  0  0  0  0
   11.1500   48.8150   72.0110 C   0  0  0  0  0  0
   12.1830   49.0900   72.9270 C   0  0  0  0  0  0
   12.1670   50.2660   73.6800 C   0  0  0  0  0  0
   11.1220   51.1730   73.5130 C   0  0  0  0  0  0
   10.0940   50.9030   72.5870 C   0  0  0  0  0  0
   10.1070   49.7130   71.8460 C   0  0  0  0  0  0
    9.0290   49.3830   70.8280 C   0  0  0  0  0  0
    9.7250   48.8990   69.5560 C   0  0  2  0  0  0
   10.1090   50.1360   68.7190 C   0  0  0  0  0  0
   10.7610   49.6390   67.6240 C   0  0  0  0  0  0
    8.8630   50.8840   68.3510 C   0  0  0  0  0  0
    8.7830   47.9670   68.8090 C   0  0  0  0  0  0
    7.9910   47.1110   69.8190 C   0  0  2  0  0  0
    8.8850   46.1350   70.4350 N   0  3  0  0  0  0
    6.8440   46.3770   69.0900 C   0  0  1  0  0  0
    7.3560   45.4270   68.1170 O   0  0  0  0  0  0
    5.9280   45.6420   70.0680 C   0  0  0  0  0  0
    5.0050   44.7760   69.2370 C   0  0  1  0  0  0
    4.2640   43.6990   70.1740 C   0  0  0  0  0  0
    3.8940   45.5660   68.5060 C   0  0  0  0  0  0
    3.0710   46.2540   69.1210 O   0  0  0  0  0  0
    3.8460   45.4150   67.1940 N   0  0  0  0  0  0
    2.8010   45.9830   66.3790 C   0  0  0  0  0  0
    2.6410   47.4500   66.3660 C   0  0  0  0  0  0
    1.5180   47.8620   65.3930 C   0  0  0  0  0  0
    1.8600   49.1950   64.6810 C   0  0  0  0  0  0
   16.9013   43.5263   69.6644 H   0  0  0  0  0  0
   15.4397   44.1441   68.8226 H   0  0  0  0  0  0
   15.2671   43.1438   70.3045 H   0  0  0  0  0  0
   14.3066   46.1547   69.8832 H   0  0  0  0  0  0
   13.9020   44.6595   70.7927 H   0  0  0  0  0  0
   14.3796   45.6602   72.9038 H   0  0  0  0  0  0
   15.4032   46.9418   72.1714 H   0  0  0  0  0  0
   13.3462   47.8709   71.0577 H   0  0  0  0  0  0
   12.3645   46.6577   71.9471 H   0  0  0  0  0  0
   13.9474   50.9955   76.5342 H   0  0  0  0  0  0
   12.4871   49.9501   76.4957 H   0  0  0  0  0  0
   12.3457   51.7043   76.1356 H   0  0  0  0  0  0
   11.1704   47.8931   71.4297 H   0  0  0  0  0  0
   11.0996   52.0919   74.0989 H   0  0  0  0  0  0
    9.2866   51.6216   72.4467 H   0  0  0  0  0  0
    8.3743   48.5955   71.2295 H   0  0  0  0  0  0
    8.4334   50.2840   70.6194 H   0  0  0  0  0  0
   10.6361   48.3258   69.7827 H   0  0  0  0  0  0
   10.8152   50.8480   69.1710 H   0  0  0  0  0  0
   11.6644   49.1014   67.9479 H   0  0  0  0  0  0
   11.0461   50.4679   66.9595 H   0  0  0  0  0  0
   10.0968   48.9480   67.0841 H   0  0  0  0  0  0
    8.3788   51.2613   69.2638 H   0  0  0  0  0  0
    8.1734   50.2098   67.8219 H   0  0  0  0  0  0
    9.1226   51.7297   67.6973 H   0  0  0  0  0  0
    8.0815   48.5615   68.2052 H   0  0  0  0  0  0
    9.3663   47.3073   68.1498 H   0  0  0  0  0  0
    7.5984   47.7330   70.6369 H   0  0  0  0  0  0
    9.7005   46.6607   70.9532 H   0  0  0  0  0  0
    9.3061   45.4813   69.6570 H   0  0  0  0  0  0
    8.3219   45.5277   71.1589 H   0  0  0  0  0  0
    6.2654   47.1176   68.5184 H   0  0  0  0  0  0
    8.0381   45.7661   67.3235 H   0  0  0  0  0  0
    6.5356   45.0255   70.7468 H   0  0  0  0  0  0
    5.3535   46.3748   70.6537 H   0  0  0  0  0  0
    5.6827   44.3536   68.4805 H   0  0  0  0  0  0
    5.0153   43.1083   70.7185 H   0  0  0  0  0  0
    3.6527   43.0298   69.5507 H   0  0  0  0  0  0
    3.6172   44.2224   70.8935 H   0  0  0  0  0  0
    4.6256   44.8351   66.6782 H   0  0  0  0  0  0
    2.1317   45.3514   65.7764 H   0  0  0  0  0  0
    3.2834   48.0790   66.9998 H   0  0  0  0  0  0
    1.3873   47.0792   64.6313 H   0  0  0  0  0  0
    0.5787   47.9914   65.9507 H   0  0  0  0  0  0
    1.0436   49.4641   63.9947 H   0  0  0  0  0  0
    2.7939   49.0775   64.1117 H   0  0  0  0  0  0
    1.9853   49.9897   65.4312 H   0  0  0  0  0  0
  1  2  1  0  0  0
  1 35  1  0  0  0
  1 36  1  0  0  0
  1 37  1  0  0  0
  2  3  1  0  0  0
  3  4  1  0  0  0
  3 38  1  0  0  0
  3 39  1  0  0  0
  4  5  1  0  0  0
  4 40  1  0  0  0
  4 41  1  0  0  0
  5  6  1  0  0  0
  5 42  1  0  0  0
  5 43  1  0  0  0
  6 10  1  0  0  0
  7  8  1  0  0  0
  7 11  1  0  0  0
  8 44  1  0  0  0
  8 45  1  0  0  0
  8 46  1  0  0  0
  9 10  2  0  0  0
  9 14  1  0  0  0
  9 47  1  0  0  0
 10 11  1  0  0  0
 11 12  2  0  0  0
 12 13  1  0  0  0
 12 48  1  0  0  0
 13 14  2  0  0  0
 13 49  1  0  0  0
 14 15  1  0  0  0
 15 16  1  0  0  0
 15 50  1  0  0  0
 15 51  1  0  0  0
 16 17  1  0  0  0
 16 20  1  0  0  0
 16 52  1  0  0  0
 17 18  1  0  0  0
 17 19  1  0  0  0
 17 53  1  0  0  0
 18 54  1  0  0  0
 18 55  1  0  0  0
 18 56  1  0  0  0
 19 57  1  0  0  0
 19 58  1  0  0  0
 19 59  1  0  0  0
 20 21  1  0  0  0
 20 60  1  0  0  0
 20 61  1  0  0  0
 21 22  1  0  0  0
 21 23  1  0  0  0
 21 62  1  0  0  0
 22 63  1  0  0  0
 22 64  1  0  0  0
 22 65  1  0  0  0
 23 24  1  0  0  0
 23 25  1  0  0  0
 23 66  1  0  0  0
 24 67  1  0  0  0
 25 26  1  0  0  0
 25 68  1  0  0  0
 25 69  1  0  0  0
 26 27  1  0  0  0
 26 28  1  0  0  0
 26 70  1  0  0  0
 27 71  1  0  0  0
 27 72  1  0  0  0
 27 73  1  0  0  0
 28 29  2  0  0  0
 28 30  1  0  0  0
 30 31  1  0  0  0
 30 74  1  0  0  0
 31 32  2  0  0  0
 31 75  1  0  0  0
 32 33  1  0  0  0
 32 76  1  0  0  0
 33 34  1  0  0  0
 33 77  1  0  0  0
 33 78  1  0  0  0
 34 79  1  0  0  0
 34 80  1  0  0  0
 34 81  1  0  0  0
M  CHG  1  22   1
M  END
> <s_m_source_file>
../2v10_ligand.sdf

> <i_m_source_file_index>
1

> <s_epik_input>
W0NIM11PW0NIMl1bQ0gyXVtDSDJdT2MxW2NIXWMoW2NIXVtjSF1jMU9bQ0gzXSlbQ0gyXVtDQEhdKFtDSF0oW0NIM10pW0NIM10pW0NIMl1bQ0BIXShbTkgzK10pW0NAQEhdKFtPSF0pW0NIMl1bQ0BASF0oW0NIM10pQyg9TylbTkhdL1tDSF09W0NIXS9bQ0gyXVtDSDNd

> <s_epik_cmdline>
J2VwaWtfYXBwJywgJy1pbWFlJywgJ2xpZ2FuZF9wcm8ubWFlJywgJy1vbWFlJywgJ2xpZ2FuZF9wcmVwLm1hZScsICctbXMnLCAnMScsICctcGgnLCAnNycsICctcGh0JywgJzAuNScsICctbnQn

> <r_lp_tautomer_probability>
1

> <r_epik_Ionization_Penalty>
  0.0075

> <r_epik_Ionization_Penalty_Charging>
  0.0075

> <r_epik_Ionization_Penalty_Neutral>
  0.0000

> <r_epik_State_Penalty>
 -0.0000

> <r_epik_Charging_Adjusted_Penalty>
0.00753397931893379

> <i_epik_Tot_Q>
1

> <i_epik_Tot_abs_Q>
1

$$$$
