2v11_ligand
                    3D
 Schrodinger Suite 2020-3.
 79 81  0  0  1  0            999 V2000
   15.0980   46.6280   70.8630 C   0  0  0  0  0  0
   15.6330   45.8010   69.8770 C   0  0  0  0  0  0
   15.3530   44.4480   69.8410 C   0  0  0  0  0  0
   14.5260   43.9220   70.8090 C   0  0  0  0  0  0
   13.9920   44.7510   71.7950 C   0  0  0  0  0  0
   14.2740   46.1030   71.8330 C   0  0  0  0  0  0
   13.7260   46.9640   72.9610 C   0  0  0  0  0  0
   12.8210   48.0430   72.5900 N   0  0  0  0  0  0
   11.8290   47.9420   71.7430 C   0  0  0  0  0  0
   12.8690   49.2940   73.1280 C   0  0  0  0  0  0
   11.6110   51.3680   73.0890 C   0  0  0  0  0  0
   11.7980   50.0680   72.6660 C   0  0  0  0  0  0
   11.2070   49.1690   71.8180 C   0  0  0  0  0  0
   13.7740   49.8320   74.0370 C   0  0  0  0  0  0
   13.5850   51.1360   74.4660 C   0  0  0  0  0  0
   12.5180   51.8890   73.9970 C   0  0  0  0  0  0
   10.0360   49.6460   71.1980 C   0  0  0  0  0  0
    9.1630   50.1370   71.9240 O   0  0  0  0  0  0
    9.8390   49.6510   69.9610 O   0  0  0  0  0  0
    9.7260   48.3690   69.3950 C   0  0  0  0  0  0
    8.3020   48.0460   69.3880 C   0  0  1  0  0  0
    8.0580   48.1910   67.9210 C   0  0  0  0  0  0
    8.2130   46.6440   69.9150 C   0  0  0  0  0  0
    6.8700   45.9430   70.0740 C   0  0  2  0  0  0
    7.0100   44.5790   70.5290 N   0  3  0  0  0  0
    6.1410   45.8060   68.8060 C   0  0  3  0  0  0
    6.9710   45.0670   67.9300 O   0  0  0  0  0  0
    4.7760   46.3900   68.5280 C   0  0  0  0  0  0
    3.6910   45.5860   67.8910 C   0  0  1  0  0  0
    3.3020   44.4370   68.7760 C   0  0  0  0  0  0
    2.5390   46.5610   67.8030 C   0  0  0  0  0  0
    1.8130   46.7350   68.7790 O   0  0  0  0  0  0
    2.3520   47.3480   66.7560 N   0  0  0  0  0  0
    1.7190   46.8670   65.5630 C   0  0  0  0  0  0
    1.0820   48.0260   64.8790 C   0  0  0  0  0  0
    2.1650   48.9200   64.3010 C   0  0  0  0  0  0
    2.8290   48.3390   63.0020 C   0  0  0  0  0  0
   15.3324   47.6925   70.8662 H   0  0  0  0  0  0
   16.2865   46.2306   69.1177 H   0  0  0  0  0  0
   15.7770   43.8116   69.0643 H   0  0  0  0  0  0
   14.2891   42.8581   70.8042 H   0  0  0  0  0  0
   13.3369   44.3224   72.5534 H   0  0  0  0  0  0
   13.1611   46.3328   73.6628 H   0  0  0  0  0  0
   14.5596   47.4470   73.4918 H   0  0  0  0  0  0
   11.5581   47.0873   71.1232 H   0  0  0  0  0  0
   10.7769   51.9653   72.7207 H   0  0  0  0  0  0
   14.6132   49.2410   74.4037 H   0  0  0  0  0  0
   14.2821   51.5750   75.1797 H   0  0  0  0  0  0
   12.3909   52.9122   74.3506 H   0  0  0  0  0  0
   10.1321   48.3824   68.3728 H   0  0  0  0  0  0
   10.2907   47.6480   70.0044 H   0  0  0  0  0  0
    7.6013   48.6459   69.9873 H   0  0  0  0  0  0
    8.1458   49.2502   67.6376 H   0  0  0  0  0  0
    7.0475   47.8295   67.6799 H   0  0  0  0  0  0
    8.8011   47.6000   67.3655 H   0  0  0  0  0  0
    8.7748   45.9675   69.2541 H   0  0  0  0  0  0
    8.6401   46.6052   70.9280 H   0  0  0  0  0  0
    6.3048   46.5427   70.8026 H   0  0  0  0  0  0
    7.5507   44.5657   71.4869 H   0  0  0  0  0  0
    7.5725   43.9993   69.7823 H   0  0  0  0  0  0
    6.0134   44.1335   70.6642 H   0  0  0  0  0  0
    6.5930   46.7416   68.4450 H   0  0  0  0  0  0
    7.9494   44.7024   68.2762 H   0  0  0  0  0  0
    4.3184   46.7185   69.4728 H   0  0  0  0  0  0
    4.8765   47.2508   67.8505 H   0  0  0  0  0  0
    3.9985   45.1612   66.9241 H   0  0  0  0  0  0
    4.1384   43.7256   68.8421 H   0  0  0  0  0  0
    2.4220   43.9301   68.3532 H   0  0  0  0  0  0
    3.0607   44.8136   69.7810 H   0  0  0  0  0  0
    2.6940   48.3918   66.8146 H   0  0  0  0  0  0
    2.4733   46.4074   64.9075 H   0  0  0  0  0  0
    0.9583   46.1180   65.8280 H   0  0  0  0  0  0
    0.4321   47.6621   64.0695 H   0  0  0  0  0  0
    0.4812   48.5947   65.6040 H   0  0  0  0  0  0
    1.7333   49.8978   64.0412 H   0  0  0  0  0  0
    2.9629   49.0576   65.0456 H   0  0  0  0  0  0
    3.5999   49.0358   62.6412 H   0  0  0  0  0  0
    2.0613   48.2072   62.2253 H   0  0  0  0  0  0
    3.2909   47.3670   63.2296 H   0  0  0  0  0  0
  1  2  2  0  0  0
  1  6  1  0  0  0
  1 38  1  0  0  0
  2  3  1  0  0  0
  2 39  1  0  0  0
  3  4  2  0  0  0
  3 40  1  0  0  0
  4  5  1  0  0  0
  4 41  1  0  0  0
  5  6  2  0  0  0
  5 42  1  0  0  0
  6  7  1  0  0  0
  7  8  1  0  0  0
  7 43  1  0  0  0
  7 44  1  0  0  0
  8  9  1  0  0  0
  8 10  1  0  0  0
  9 13  2  0  0  0
  9 45  1  0  0  0
 10 12  2  0  0  0
 10 14  1  0  0  0
 11 12  1  0  0  0
 11 16  2  0  0  0
 11 46  1  0  0  0
 12 13  1  0  0  0
 13 17  1  0  0  0
 14 15  2  0  0  0
 14 47  1  0  0  0
 15 16  1  0  0  0
 15 48  1  0  0  0
 16 49  1  0  0  0
 17 18  2  0  0  0
 17 19  1  0  0  0
 19 20  1  0  0  0
 20 21  1  0  0  0
 20 50  1  0  0  0
 20 51  1  0  0  0
 21 22  1  0  0  0
 21 23  1  0  0  0
 21 52  1  0  0  0
 22 53  1  0  0  0
 22 54  1  0  0  0
 22 55  1  0  0  0
 23 24  1  0  0  0
 23 56  1  0  0  0
 23 57  1  0  0  0
 24 25  1  0  0  0
 24 26  1  0  0  0
 24 58  1  0  0  0
 25 59  1  0  0  0
 25 60  1  0  0  0
 25 61  1  0  0  0
 26 27  1  0  0  0
 26 28  1  0  0  0
 26 62  1  0  0  0
 27 63  1  0  0  0
 28 29  1  0  0  0
 28 64  1  0  0  0
 28 65  1  0  0  0
 29 30  1  0  0  0
 29 31  1  0  0  0
 29 66  1  0  0  0
 30 67  1  0  0  0
 30 68  1  0  0  0
 30 69  1  0  0  0
 31 32  2  0  0  0
 31 33  1  0  0  0
 33 34  1  0  0  0
 33 70  1  0  0  0
 34 35  1  0  0  0
 34 71  1  0  0  0
 34 72  1  0  0  0
 35 36  1  0  0  0
 35 73  1  0  0  0
 35 74  1  0  0  0
 36 37  1  0  0  0
 36 75  1  0  0  0
 36 76  1  0  0  0
 37 77  1  0  0  0
 37 78  1  0  0  0
 37 79  1  0  0  0
M  CHG  1  25   1
M  END
> <s_m_source_file>
../2v11_ligand.sdf

> <i_m_source_file_index>
1

> <s_epik_input>
W2NIXTFbY0hdW2NIXVtjSF1bY0hdYzFbQ0gyXW4yW2NIXWMoYyhjMjMpW2NIXVtjSF1bY0hdW2NIXTMpQyg9TylPW0NIMl1bQ0BASF0oW0NIM10pW0NIMl1bQ0BIXShbTkgzK10pW0NIXShbT0hdKVtDSDJdW0NAQEhdKFtDSDNdKUMoPU8pW05IXVtDSDJdW0NIMl1bQ0gyXVtDSDNd

> <s_epik_cmdline>
J2VwaWtfYXBwJywgJy1pbWFlJywgJ2xpZ2FuZF9wcm8ubWFlJywgJy1vbWFlJywgJ2xpZ2FuZF9wcmVwLm1hZScsICctbXMnLCAnMScsICctcGgnLCAnNycsICctcGh0JywgJzAuNScsICctbnQn

> <r_lp_tautomer_probability>
1

> <r_epik_Ionization_Penalty>
  0.0092

> <r_epik_Ionization_Penalty_Charging>
  0.0092

> <r_epik_Ionization_Penalty_Neutral>
  0.0000

> <r_epik_State_Penalty>
 -0.0000

> <r_epik_Charging_Adjusted_Penalty>
0.00915277482822587

> <i_epik_Tot_Q>
1

> <i_epik_Tot_abs_Q>
1

> <s_epik_Chemistry_Notes>
This compound has an ester and may undergo hydrolysis at high or low pH.

$$$$
