2v12_ligand
                    3D
 Schrodinger Suite 2020-3.
 83 83  0  0  1  0            999 V2000
   15.5120   43.0430   70.2780 C   0  0  0  0  0  0
   15.7370   44.3980   70.6010 O   0  0  0  0  0  0
   14.5810   45.1530   70.2710 C   0  0  0  0  0  0
   13.8990   45.6740   71.5360 C   0  0  0  0  0  0
   13.6060   47.1680   71.4880 C   0  0  0  0  0  0
   12.7030   47.5570   72.5150 O   0  0  0  0  0  0
   12.6810   48.8420   73.0370 C   0  0  0  0  0  0
   13.8730   49.2170   73.5950 C   0  0  0  0  0  0
   14.0020   50.4830   74.0910 C   0  0  0  0  0  0
   12.9530   51.3700   74.0240 C   0  0  0  0  0  0
   11.7550   51.0270   73.4730 C   0  0  0  0  0  0
   11.6170   49.7630   72.9910 C   0  0  0  0  0  0
   10.4590   49.4420   72.3170 C   0  0  0  0  0  0
    9.3820   49.5780   72.8620 O   0  0  0  0  0  0
   10.5600   48.6870   71.2580 N   0  0  0  0  0  0
    9.4420   47.9010   70.8040 C   0  0  0  0  0  0
    9.3920   47.9170   69.3100 C   0  0  2  0  0  0
    9.8000   49.2600   68.6800 C   0  0  0  0  0  0
   11.2950   49.4220   68.4040 C   0  0  0  0  0  0
    9.1750   50.5110   69.2950 C   0  0  0  0  0  0
    8.0000   47.6100   68.8320 C   0  0  0  0  0  0
    7.1500   46.4770   69.3220 C   0  0  2  0  0  0
    7.9830   45.3270   69.5010 N   0  3  0  0  0  0
    6.0900   46.0550   68.3240 C   0  0  1  0  0  0
    6.7880   45.2180   67.4030 O   0  0  0  0  0  0
    4.9590   45.2790   68.9070 C   0  0  0  0  0  0
    3.7510   45.1450   68.0240 C   0  0  1  0  0  0
    2.8100   44.1580   68.6530 C   0  0  0  0  0  0
    3.0170   46.4290   67.8480 C   0  0  0  0  0  0
    3.1000   47.2770   68.7080 O   0  0  0  0  0  0
    2.2840   46.6730   66.8050 N   0  0  0  0  0  0
    2.4060   47.9420   66.1470 C   0  0  0  0  0  0
    2.0210   47.7670   64.7100 C   0  0  0  0  0  0
    2.4030   48.9950   63.8990 C   0  0  0  0  0  0
    2.8940   48.6200   62.4640 C   0  0  0  0  0  0
   16.4048   42.4525   70.5316 H   0  0  0  0  0  0
   15.3059   42.9521   69.2013 H   0  0  0  0  0  0
   14.6500   42.6681   70.8493 H   0  0  0  0  0  0
   14.8691   46.0091   69.6433 H   0  0  0  0  0  0
   13.8723   44.5168   69.7205 H   0  0  0  0  0  0
   12.9411   45.1521   71.6776 H   0  0  0  0  0  0
   14.5484   45.4906   72.4047 H   0  0  0  0  0  0
   14.5428   47.7297   71.6180 H   0  0  0  0  0  0
   13.1576   47.4227   70.5164 H   0  0  0  0  0  0
   14.7065   48.5162   73.6429 H   0  0  0  0  0  0
   14.9439   50.7929   74.5436 H   0  0  0  0  0  0
   13.0838   52.3759   74.4230 H   0  0  0  0  0  0
   10.9342   51.7423   73.4203 H   0  0  0  0  0  0
   11.5133   48.6551   70.7101 H   0  0  0  0  0  0
    9.5558   46.8647   71.1550 H   0  0  0  0  0  0
    8.5093   48.3238   71.2056 H   0  0  0  0  0  0
   10.1075   47.1356   69.0143 H   0  0  0  0  0  0
    9.3276   49.1884   67.6892 H   0  0  0  0  0  0
   11.6892   48.4943   67.9636 H   0  0  0  0  0  0
   11.8212   49.6328   69.3467 H   0  0  0  0  0  0
   11.4502   50.2555   67.7031 H   0  0  0  0  0  0
    8.1032   50.3368   69.4709 H   0  0  0  0  0  0
    9.3004   51.3598   68.6067 H   0  0  0  0  0  0
    9.6713   50.7371   70.2503 H   0  0  0  0  0  0
    7.3450   48.4704   69.0336 H   0  0  0  0  0  0
    8.0195   47.4095   67.7506 H   0  0  0  0  0  0
    6.6976   46.7958   70.2726 H   0  0  0  0  0  0
    8.7823   45.5615   70.2194 H   0  0  0  0  0  0
    8.4287   45.0434   68.5362 H   0  0  0  0  0  0
    7.3781   44.4923   69.8850 H   0  0  0  0  0  0
    5.6299   46.9289   67.8397 H   0  0  0  0  0  0
    7.6632   45.6062   66.8614 H   0  0  0  0  0  0
    5.2947   44.2565   69.1346 H   0  0  0  0  0  0
    4.6175   45.7671   69.8317 H   0  0  0  0  0  0
    4.0982   44.8245   67.0307 H   0  0  0  0  0  0
    3.3272   43.1976   68.7951 H   0  0  0  0  0  0
    1.9393   44.0120   67.9968 H   0  0  0  0  0  0
    2.4743   44.5414   69.6278 H   0  0  0  0  0  0
    1.5762   45.9219   66.4244 H   0  0  0  0  0  0
    1.7386   48.6710   66.6298 H   0  0  0  0  0  0
    3.4459   48.2936   66.2183 H   0  0  0  0  0  0
    2.5408   46.8908   64.2952 H   0  0  0  0  0  0
    0.9337   47.6166   64.6374 H   0  0  0  0  0  0
    1.5292   49.6560   63.8010 H   0  0  0  0  0  0
    3.2148   49.5337   64.4096 H   0  0  0  0  0  0
    3.1585   49.5363   61.9159 H   0  0  0  0  0  0
    2.0918   48.0910   61.9286 H   0  0  0  0  0  0
    3.7774   47.9687   62.5373 H   0  0  0  0  0  0
  1  2  1  0  0  0
  1 36  1  0  0  0
  1 37  1  0  0  0
  1 38  1  0  0  0
  2  3  1  0  0  0
  3  4  1  0  0  0
  3 39  1  0  0  0
  3 40  1  0  0  0
  4  5  1  0  0  0
  4 41  1  0  0  0
  4 42  1  0  0  0
  5  6  1  0  0  0
  5 43  1  0  0  0
  5 44  1  0  0  0
  6  7  1  0  0  0
  7  8  2  0  0  0
  7 12  1  0  0  0
  8  9  1  0  0  0
  8 45  1  0  0  0
  9 10  2  0  0  0
  9 46  1  0  0  0
 10 11  1  0  0  0
 10 47  1  0  0  0
 11 12  2  0  0  0
 11 48  1  0  0  0
 12 13  1  0  0  0
 13 14  2  0  0  0
 13 15  1  0  0  0
 15 16  1  0  0  0
 15 49  1  0  0  0
 16 17  1  0  0  0
 16 50  1  0  0  0
 16 51  1  0  0  0
 17 18  1  0  0  0
 17 21  1  0  0  0
 17 52  1  0  0  0
 18 19  1  0  0  0
 18 20  1  0  0  0
 18 53  1  0  0  0
 19 54  1  0  0  0
 19 55  1  0  0  0
 19 56  1  0  0  0
 20 57  1  0  0  0
 20 58  1  0  0  0
 20 59  1  0  0  0
 21 22  1  0  0  0
 21 60  1  0  0  0
 21 61  1  0  0  0
 22 23  1  0  0  0
 22 24  1  0  0  0
 22 62  1  0  0  0
 23 63  1  0  0  0
 23 64  1  0  0  0
 23 65  1  0  0  0
 24 25  1  0  0  0
 24 26  1  0  0  0
 24 66  1  0  0  0
 25 67  1  0  0  0
 26 27  1  0  0  0
 26 68  1  0  0  0
 26 69  1  0  0  0
 27 28  1  0  0  0
 27 29  1  0  0  0
 27 70  1  0  0  0
 28 71  1  0  0  0
 28 72  1  0  0  0
 28 73  1  0  0  0
 29 30  2  0  0  0
 29 31  1  0  0  0
 31 32  1  0  0  0
 31 74  1  0  0  0
 32 33  1  0  0  0
 32 75  1  0  0  0
 32 76  1  0  0  0
 33 34  1  0  0  0
 33 77  1  0  0  0
 33 78  1  0  0  0
 34 35  1  0  0  0
 34 79  1  0  0  0
 34 80  1  0  0  0
 35 81  1  0  0  0
 35 82  1  0  0  0
 35 83  1  0  0  0
M  CHG  1  23   1
M  END
> <s_m_source_file>
../2v12_ligand.sdf

> <i_m_source_file_index>
1

> <s_epik_input>
W0NIM11PW0NIMl1bQ0gyXVtDSDJdT2MxW2NIXVtjSF1bY0hdW2NIXWMxQyg9TylbTkhdW0NIMl1bQ0BIXShbQ0hdKFtDSDNdKVtDSDNdKVtDSDJdW0NASF0oW05IMytdKVtDQEBIXShbT0hdKVtDSDJdW0NAQEhdKFtDSDNdKUMoPU8pW05IXVtDSDJdW0NIMl1bQ0gyXVtDSDNd

> <s_epik_cmdline>
J2VwaWtfYXBwJywgJy1pbWFlJywgJ2xpZ2FuZF9wcm8ubWFlJywgJy1vbWFlJywgJ2xpZ2FuZF9wcmVwLm1hZScsICctbXMnLCAnMScsICctcGgnLCAnNycsICctcGh0JywgJzAuNScsICctbnQn

> <r_lp_tautomer_probability>
1

> <r_epik_Ionization_Penalty>
  0.0066

> <r_epik_Ionization_Penalty_Charging>
  0.0066

> <r_epik_Ionization_Penalty_Neutral>
  0.0000

> <r_epik_State_Penalty>
 -0.0000

> <r_epik_Charging_Adjusted_Penalty>
0.00658195089943578

> <i_epik_Tot_Q>
1

> <i_epik_Tot_abs_Q>
1

$$$$
