2v13_ligand
                    3D
 Schrodinger Suite 2020-3.
 77 77  0  0  1  0            999 V2000
   86.2930   25.6350  -37.1600 C   0  0  0  0  0  0
   85.7010   25.6730  -35.8710 O   0  0  0  0  0  0
   84.7080   24.6970  -36.0060 C   0  0  0  0  0  0
   85.0570   23.5580  -35.0820 C   0  0  0  0  0  0
   83.6860   22.9810  -34.8030 C   0  0  0  0  0  0
   83.7070   21.7090  -34.1790 O   0  0  0  0  0  0
   82.7110   21.3470  -33.2880 C   0  0  0  0  0  0
   82.6060   22.1810  -32.1870 C   0  0  0  0  0  0
   81.5840   22.0740  -31.2900 C   0  0  0  0  0  0
   80.6400   21.1290  -31.4950 C   0  0  0  0  0  0
   80.7150   20.2900  -32.5850 C   0  0  0  0  0  0
   81.7410   20.3720  -33.4870 C   0  0  0  0  0  0
   81.8070   19.4940  -34.5830 C   0  0  0  0  0  0
   81.8310   18.2950  -34.3790 O   0  0  0  0  0  0
   82.9160   18.9620  -36.6150 C   0  0  0  0  0  0
   82.2470   19.8980  -35.7450 N   0  0  0  0  0  0
   80.9610   19.8110  -38.0050 C   0  0  0  0  0  0
   82.4140   19.2530  -37.9850 C   0  0  2  0  0  0
   82.4300   17.9810  -38.7790 C   0  0  0  0  0  0
   84.7680   18.2490  -39.2870 N   0  3  0  0  0  0
   83.7330   17.3190  -38.9240 C   0  0  2  0  0  0
   83.5650   16.3020  -40.0360 C   0  0  1  0  0  0
   83.9430   17.1050  -41.1570 O   0  0  0  0  0  0
   84.4860   15.0650  -39.9620 C   0  0  0  0  0  0
   84.5070   14.2200  -41.2130 C   0  0  1  0  0  0
   85.6480   13.2880  -41.2340 C   0  0  0  0  0  0
   83.3200   13.3510  -41.4160 C   0  0  0  0  0  0
   82.6970   12.9220  -40.4510 O   0  0  0  0  0  0
   81.7740   12.3730  -42.9820 C   0  0  0  0  0  0
   83.0160   13.0480  -42.6590 N   0  0  0  0  0  0
   80.5630   13.2390  -42.6730 C   0  0  0  0  0  0
   79.2890   12.7330  -43.3300 C   0  0  0  0  0  0
   78.8740   11.3490  -42.7430 C   0  0  0  0  0  0
   87.1121   26.3675  -37.2090 H   0  0  0  0  0  0
   85.5355   25.8807  -37.9188 H   0  0  0  0  0  0
   86.6903   24.6273  -37.3514 H   0  0  0  0  0  0
   83.7326   25.1261  -35.7331 H   0  0  0  0  0  0
   84.6762   24.3480  -37.0487 H   0  0  0  0  0  0
   85.7302   22.8590  -35.5998 H   0  0  0  0  0  0
   85.5575   23.9531  -34.1857 H   0  0  0  0  0  0
   83.1319   23.6582  -34.1364 H   0  0  0  0  0  0
   83.1366   22.8672  -35.7491 H   0  0  0  0  0  0
   83.3650   22.9479  -32.0324 H   0  0  0  0  0  0
   81.5299   22.7366  -30.4262 H   0  0  0  0  0  0
   79.8127   21.0299  -30.7923 H   0  0  0  0  0  0
   79.9368   19.5412  -32.7329 H   0  0  0  0  0  0
   84.0036   19.1121  -36.5480 H   0  0  0  0  0  0
   82.6681   17.9350  -36.3087 H   0  0  0  0  0  0
   82.1107   20.9426  -36.0617 H   0  0  0  0  0  0
   80.9197   20.7468  -37.4284 H   0  0  0  0  0  0
   80.2789   19.0736  -37.5567 H   0  0  0  0  0  0
   80.6577   20.0068  -39.0441 H   0  0  0  0  0  0
   83.1085   19.9995  -38.3980 H   0  0  0  0  0  0
   81.7679   17.2430  -38.3025 H   0  0  0  0  0  0
   82.0785   18.1826  -39.8016 H   0  0  0  0  0  0
   84.8940   18.9894  -38.4833 H   0  0  0  0  0  0
   84.4888   18.7630  -40.2186 H   0  0  0  0  0  0
   85.7128   17.7060  -39.4368 H   0  0  0  0  0  0
   84.0500   16.9010  -37.9571 H   0  0  0  0  0  0
   82.5436   15.8961  -40.0813 H   0  0  0  0  0  0
   83.3985   18.0354  -41.3756 H   0  0  0  0  0  0
   85.5212   15.3890  -39.7792 H   0  0  0  0  0  0
   84.1562   14.4109  -39.1414 H   0  0  0  0  0  0
   84.5595   14.9686  -42.0172 H   0  0  0  0  0  0
   86.5828   13.8495  -41.0892 H   0  0  0  0  0  0
   85.6789   12.7681  -42.2029 H   0  0  0  0  0  0
   85.5341   12.5507  -40.4256 H   0  0  0  0  0  0
   81.7582   12.1276  -44.0542 H   0  0  0  0  0  0
   81.6957   11.4474  -42.3928 H   0  0  0  0  0  0
   83.7214   13.3148  -43.4598 H   0  0  0  0  0  0
   80.3939   13.2585  -41.5863 H   0  0  0  0  0  0
   80.7421   14.2623  -43.0346 H   0  0  0  0  0  0
   78.4749   13.4513  -43.1530 H   0  0  0  0  0  0
   79.4529   12.6240  -44.4122 H   0  0  0  0  0  0
   77.9515   11.0046  -43.2332 H   0  0  0  0  0  0
   78.6999   11.4468  -41.6613 H   0  0  0  0  0  0
   79.6779   10.6195  -42.9205 H   0  0  0  0  0  0
  1  2  1  0  0  0
  1 34  1  0  0  0
  1 35  1  0  0  0
  1 36  1  0  0  0
  2  3  1  0  0  0
  3  4  1  0  0  0
  3 37  1  0  0  0
  3 38  1  0  0  0
  4  5  1  0  0  0
  4 39  1  0  0  0
  4 40  1  0  0  0
  5  6  1  0  0  0
  5 41  1  0  0  0
  5 42  1  0  0  0
  6  7  1  0  0  0
  7  8  2  0  0  0
  7 12  1  0  0  0
  8  9  1  0  0  0
  8 43  1  0  0  0
  9 10  2  0  0  0
  9 44  1  0  0  0
 10 11  1  0  0  0
 10 45  1  0  0  0
 11 12  2  0  0  0
 11 46  1  0  0  0
 12 13  1  0  0  0
 13 14  2  0  0  0
 13 16  1  0  0  0
 15 16  1  0  0  0
 15 18  1  0  0  0
 15 47  1  0  0  0
 15 48  1  0  0  0
 16 49  1  0  0  0
 17 18  1  0  0  0
 17 50  1  0  0  0
 17 51  1  0  0  0
 17 52  1  0  0  0
 18 19  1  0  0  0
 18 53  1  0  0  0
 19 21  1  0  0  0
 19 54  1  0  0  0
 19 55  1  0  0  0
 20 21  1  0  0  0
 20 56  1  0  0  0
 20 57  1  0  0  0
 20 58  1  0  0  0
 21 22  1  0  0  0
 21 59  1  0  0  0
 22 23  1  0  0  0
 22 24  1  0  0  0
 22 60  1  0  0  0
 23 61  1  0  0  0
 24 25  1  0  0  0
 24 62  1  0  0  0
 24 63  1  0  0  0
 25 26  1  0  0  0
 25 27  1  0  0  0
 25 64  1  0  0  0
 26 65  1  0  0  0
 26 66  1  0  0  0
 26 67  1  0  0  0
 27 28  2  0  0  0
 27 30  1  0  0  0
 29 30  1  0  0  0
 29 31  1  0  0  0
 29 68  1  0  0  0
 29 69  1  0  0  0
 30 70  1  0  0  0
 31 32  1  0  0  0
 31 71  1  0  0  0
 31 72  1  0  0  0
 32 33  1  0  0  0
 32 73  1  0  0  0
 32 74  1  0  0  0
 33 75  1  0  0  0
 33 76  1  0  0  0
 33 77  1  0  0  0
M  CHG  1  20   1
M  END
> <s_m_source_file>
../2v13_ligand.sdf

> <i_m_source_file_index>
1

> <s_epik_input>
W0NIM11PW0NIMl1bQ0gyXVtDSDJdT2MxW2NIXVtjSF1bY0hdW2NIXWMxQyg9TylbTkhdW0NIMl1bQ0BIXShbQ0gzXSlbQ0gyXVtDQEhdKFtOSDMrXSlbQ0BASF0oW09IXSlbQ0gyXVtDQEBIXShbQ0gzXSlDKD1PKVtOSF1bQ0gyXVtDSDJdW0NIMl1bQ0gzXQ==

> <s_epik_cmdline>
J2VwaWtfYXBwJywgJy1pbWFlJywgJ2xpZ2FuZF9wcm8ubWFlJywgJy1vbWFlJywgJ2xpZ2FuZF9wcmVwLm1hZScsICctbXMnLCAnMScsICctcGgnLCAnNycsICctcGh0JywgJzAuNScsICctbnQn

> <r_lp_tautomer_probability>
1

> <r_epik_Ionization_Penalty>
  0.0077

> <r_epik_Ionization_Penalty_Charging>
  0.0077

> <r_epik_Ionization_Penalty_Neutral>
  0.0000

> <r_epik_State_Penalty>
 -0.0000

> <r_epik_Charging_Adjusted_Penalty>
0.00770167805063945

> <i_epik_Tot_Q>
1

> <i_epik_Tot_abs_Q>
1

$$$$
