2v16_ligand
                    3D
 Schrodinger Suite 2020-3.
 79 80  0  0  1  0            999 V2000
   15.0460   43.6410   70.8210 C   0  0  0  0  0  0
   15.0650   45.1600   70.7220 O   0  0  0  0  0  0
   14.0670   45.7280   71.5810 C   0  0  0  0  0  0
   13.5100   44.9490   72.3930 O   0  0  0  0  0  0
   13.6110   47.1370   71.5470 C   0  0  2  0  0  0
   14.0030   47.4790   72.9680 C   0  0  0  0  0  0
   13.5000   48.8170   73.3360 C   0  0  0  0  0  0
   14.2950   49.7790   74.0560 C   0  0  0  0  0  0
   13.6730   51.1380   74.3230 C   0  0  0  0  0  0
   12.4190   51.5220   73.8450 C   0  0  0  0  0  0
   11.6820   50.6160   73.0600 C   0  0  0  0  0  0
   12.2480   49.2420   72.7600 C   0  0  0  0  0  0
   11.5300   48.1680   71.9710 N   0  0  0  0  0  0
   12.1670   46.9630   71.6000 C   0  0  0  0  0  0
   10.1710   48.3200   71.6290 C   0  0  0  0  0  0
    9.5430   49.3240   72.0060 O   0  0  0  0  0  0
    9.4860   47.3020   70.7100 C   0  0  0  0  0  0
    8.9280   48.0840   69.6230 C   0  0  0  0  0  0
    9.9140   48.9720   68.9730 C   0  0  0  0  0  0
    7.7560   49.0040   70.0320 C   0  0  0  0  0  0
    8.4640   47.1550   68.6220 C   0  0  0  0  0  0
    7.4430   46.2430   69.2840 C   0  0  2  0  0  0
    8.2470   44.9030   69.5060 N   0  3  0  0  0  0
    6.2660   45.9000   68.3560 C   0  0  1  0  0  0
    6.9830   44.8730   67.5570 O   0  0  0  0  0  0
    5.1930   45.2640   69.3680 C   0  0  0  0  0  0
    4.0430   44.7720   68.4950 C   0  0  1  0  0  0
    3.2760   43.6620   69.2780 C   0  0  0  0  0  0
    3.3150   46.0400   67.9720 C   0  0  0  0  0  0
    3.5350   47.1020   68.4280 O   0  0  0  0  0  0
    2.5000   45.9940   66.9960 N   0  0  0  0  0  0
    1.9960   47.1240   66.2530 C   0  0  0  0  0  0
    3.1300   47.8680   65.8800 C   0  0  0  0  0  0
    2.7920   48.4560   64.5710 C   0  0  0  0  0  0
    1.6740   49.4960   65.0320 C   0  0  0  0  0  0
   15.8160   43.2207   70.1573 H   0  0  0  0  0  0
   14.0570   43.2662   70.5187 H   0  0  0  0  0  0
   15.2513   43.3386   71.8585 H   0  0  0  0  0  0
   13.9321   47.8055   70.7346 H   0  0  0  0  0  0
   13.5746   46.7350   73.6557 H   0  0  0  0  0  0
   15.0993   47.4727   73.0576 H   0  0  0  0  0  0
   15.3030   49.5406   74.3955 H   0  0  0  0  0  0
   14.2370   51.8536   74.9212 H   0  0  0  0  0  0
   12.0169   52.5084   74.0762 H   0  0  0  0  0  0
   10.7058   50.9017   72.6683 H   0  0  0  0  0  0
   11.7980   46.6570   70.6099 H   0  0  0  0  0  0
   11.9180   46.1879   72.3397 H   0  0  0  0  0  0
   10.2298   46.5779   70.3461 H   0  0  0  0  0  0
    8.7017   46.7719   71.2702 H   0  0  0  0  0  0
   10.2932   49.6983   69.7070 H   0  0  0  0  0  0
    9.4327   49.5080   68.1417 H   0  0  0  0  0  0
   10.7501   48.3707   68.5865 H   0  0  0  0  0  0
    8.0991   49.7173   70.7959 H   0  0  0  0  0  0
    6.9369   48.3944   70.4411 H   0  0  0  0  0  0
    7.3977   49.5553   69.1501 H   0  0  0  0  0  0
    8.0026   47.7104   67.7921 H   0  0  0  0  0  0
    9.3144   46.5692   68.2431 H   0  0  0  0  0  0
    7.0234   46.7422   70.1698 H   0  0  0  0  0  0
    9.1048   45.0953   70.1672 H   0  0  0  0  0  0
    8.6078   44.5271   68.5372 H   0  0  0  0  0  0
    7.5887   44.1527   69.9682 H   0  0  0  0  0  0
    5.7977   46.6530   67.7051 H   0  0  0  0  0  0
    7.7455   45.1788   66.8255 H   0  0  0  0  0  0
    5.6578   44.4349   69.9217 H   0  0  0  0  0  0
    4.8557   46.0347   70.0767 H   0  0  0  0  0  0
    4.3239   44.2428   67.5725 H   0  0  0  0  0  0
    3.9749   42.8587   69.5543 H   0  0  0  0  0  0
    2.4772   43.2509   68.6432 H   0  0  0  0  0  0
    2.8351   44.0937   70.1886 H   0  0  0  0  0  0
    2.1794   44.9753   66.7325 H   0  0  0  0  0  0
    1.4436   46.7663   65.3715 H   0  0  0  0  0  0
    1.3230   47.7131   66.8933 H   0  0  0  0  0  0
    3.3235   48.6446   66.6346 H   0  0  0  0  0  0
    4.0007   47.1994   65.8105 H   0  0  0  0  0  0
    3.6887   48.9209   64.1353 H   0  0  0  0  0  0
    2.4246   47.6669   63.8984 H   0  0  0  0  0  0
    1.2969   50.0419   64.1546 H   0  0  0  0  0  0
    2.1091   50.2087   65.7481 H   0  0  0  0  0  0
    0.8450   48.9547   65.5112 H   0  0  0  0  0  0
  1  2  1  0  0  0
  1 36  1  0  0  0
  1 37  1  0  0  0
  1 38  1  0  0  0
  2  3  1  0  0  0
  3  4  2  0  0  0
  3  5  1  0  0  0
  5  6  1  0  0  0
  5 14  1  0  0  0
  5 39  1  0  0  0
  6  7  1  0  0  0
  6 40  1  0  0  0
  6 41  1  0  0  0
  7  8  2  0  0  0
  7 12  1  0  0  0
  8  9  1  0  0  0
  8 42  1  0  0  0
  9 10  2  0  0  0
  9 43  1  0  0  0
 10 11  1  0  0  0
 10 44  1  0  0  0
 11 12  2  0  0  0
 11 45  1  0  0  0
 12 13  1  0  0  0
 13 14  1  0  0  0
 13 15  1  0  0  0
 14 46  1  0  0  0
 14 47  1  0  0  0
 15 16  2  0  0  0
 15 17  1  0  0  0
 17 18  1  0  0  0
 17 48  1  0  0  0
 17 49  1  0  0  0
 18 19  1  0  0  0
 18 20  1  0  0  0
 18 21  1  0  0  0
 19 50  1  0  0  0
 19 51  1  0  0  0
 19 52  1  0  0  0
 20 53  1  0  0  0
 20 54  1  0  0  0
 20 55  1  0  0  0
 21 22  1  0  0  0
 21 56  1  0  0  0
 21 57  1  0  0  0
 22 23  1  0  0  0
 22 24  1  0  0  0
 22 58  1  0  0  0
 23 59  1  0  0  0
 23 60  1  0  0  0
 23 61  1  0  0  0
 24 25  1  0  0  0
 24 26  1  0  0  0
 24 62  1  0  0  0
 25 63  1  0  0  0
 26 27  1  0  0  0
 26 64  1  0  0  0
 26 65  1  0  0  0
 27 28  1  0  0  0
 27 29  1  0  0  0
 27 66  1  0  0  0
 28 67  1  0  0  0
 28 68  1  0  0  0
 28 69  1  0  0  0
 29 30  2  0  0  0
 29 31  1  0  0  0
 31 32  1  0  0  0
 31 70  1  0  0  0
 32 33  1  0  0  0
 32 71  1  0  0  0
 32 72  1  0  0  0
 33 34  1  0  0  0
 33 73  1  0  0  0
 33 74  1  0  0  0
 34 35  1  0  0  0
 34 75  1  0  0  0
 34 76  1  0  0  0
 35 77  1  0  0  0
 35 78  1  0  0  0
 35 79  1  0  0  0
M  CHG  1  23   1
M  END
> <s_m_source_file>
../2v16_ligand.sdf

> <i_m_source_file_index>
1

> <s_epik_input>
W0NIM11PQyg9TylbQ0BIXShbQ0gyXTEpW0NIMl1OKGMoYzEyKVtjSF1bY0hdW2NIXVtjSF0yKUMoPU8pW0NIMl1DKFtDSDNdKShbQ0gzXSlbQ0gyXVtDQEhdKFtOSDMrXSlbQ0BASF0oW09IXSlbQ0gyXVtDQEBIXShbQ0gzXSlDKD1PKVtOSF1bQ0gyXVtDSDJdW0NIMl1bQ0gzXQ==

> <s_epik_cmdline>
J2VwaWtfYXBwJywgJy1pbWFlJywgJ2xpZ2FuZF9wcm8ubWFlJywgJy1vbWFlJywgJ2xpZ2FuZF9wcmVwLm1hZScsICctbXMnLCAnMScsICctcGgnLCAnNycsICctcGh0JywgJzAuNScsICctbnQn

> <r_lp_tautomer_probability>
1

> <r_epik_Ionization_Penalty>
  0.0092

> <r_epik_Ionization_Penalty_Charging>
  0.0091

> <r_epik_Ionization_Penalty_Neutral>
  0.0000

> <r_epik_State_Penalty>
 -0.0000

> <r_epik_Charging_Adjusted_Penalty>
0.00914972774664988

> <i_epik_Tot_Q>
1

> <i_epik_Tot_abs_Q>
1

> <s_epik_Chemistry_Notes>
This compound has an ester and may undergo hydrolysis at high or low pH.

$$$$
