2v22_ligand
                    3D
 Schrodinger Suite 2020-3.
107109  0  0  1  0            999 V2000
   36.1420   21.2960   -5.4880 C   0  0  0  0  0  0
   35.4780   21.4690   -6.6970 C   0  0  0  0  0  0
   34.1240   21.1580   -6.7880 C   0  0  0  0  0  0
   33.3050   21.3520   -8.2860 Cl  0  0  0  0  0  0
   33.3950   20.6560   -5.7180 C   0  0  0  0  0  0
   34.0670   20.4700   -4.5210 C   0  0  0  0  0  0
   35.4240   20.7640   -4.4250 C   0  0  0  0  0  0
   35.9810   20.6350   -3.2360 N   0  0  0  0  0  0
   36.7040   21.4980   -2.7350 N   0  0  0  0  0  0
   35.7220   19.6350   -2.3980 C   0  0  0  0  0  0
   34.8580   18.4040   -2.7130 C   0  0  0  0  0  0
   36.3750   19.9080   -1.2760 N   0  0  0  0  0  0
   36.9950   21.0710   -1.5080 C   0  0  0  0  0  0
   37.8890   21.8810   -0.5650 C   0  0  0  0  0  0
   38.0930   23.0760   -0.8060 O   0  0  0  0  0  0
   38.3720   21.2510    0.5140 N   0  0  0  0  0  0
   39.2170   21.9940    1.4600 C   0  0  1  0  0  0
   39.7390   21.0430    2.5430 C   0  0  0  0  0  0
   39.8030   21.6860    3.9340 C   0  0  0  0  0  0
   41.2240   21.5920    4.4920 C   0  0  0  0  0  0
   41.5400   20.2150    4.9330 N   0  0  0  0  0  0
   41.7290   19.9590    6.2320 C   0  0  0  0  0  0
   42.0040   18.7260    6.6510 N   0  3  0  0  0  0
   41.6160   20.9400    7.1270 N   0  0  0  0  0  0
   40.4020   22.5660    0.6780 C   0  0  0  0  0  0
   41.1470   21.8110    0.0560 O   0  0  0  0  0  0
   40.5590   23.8880    0.7200 N   0  0  0  0  0  0
   41.6750   24.5780    0.0560 C   0  0  1  0  0  0
   41.2350   25.9900   -0.3730 C   0  0  0  0  0  0
   40.2670   25.9170   -1.5720 C   0  0  0  0  0  0
   39.7010   27.2910   -1.9480 C   0  0  0  0  0  0
   40.8670   25.2410   -2.8050 C   0  0  0  0  0  0
   42.7880   24.7460    1.0840 C   0  0  0  0  0  0
   42.5730   25.4930    2.0330 O   0  0  0  0  0  0
   43.9320   24.0660    0.9220 N   0  0  0  0  0  0
   45.0210   24.2300    1.9130 C   0  0  1  0  0  0
   45.8910   22.9880    2.2120 C   0  0  1  0  0  0
   47.3560   23.4010    2.4570 C   0  0  0  0  0  0
   45.3980   22.2320    3.4590 C   0  0  0  0  0  0
   44.5120   21.0370    3.0890 C   0  0  0  0  0  0
   45.8940   25.3130    1.3190 C   0  0  0  0  0  0
   46.4080   25.0940    0.2250 O   0  0  0  0  0  0
   45.9740   26.4420    2.0220 N   0  0  0  0  0  0
   46.7070   27.6200    1.5360 C   0  0  2  0  0  0
   48.1780   27.5940    1.9360 C   0  0  0  0  0  0
   49.0400   27.6570    1.0590 O   0  0  0  0  0  0
   48.4410   27.5660    3.2440 N   0  0  0  0  0  0
   46.0800   28.9070    2.0760 C   0  0  0  0  0  0
   44.7560   29.1870    1.3760 C   0  0  0  0  0  0
   43.5350   29.1550    2.0420 C   0  0  0  0  0  0
   42.3790   29.4090    1.3020 C   0  0  0  0  0  0
   42.4370   29.7070   -0.0620 C   0  0  0  0  0  0
   41.3370   29.9330   -0.8100 F   0  0  0  0  0  0
   43.6580   29.7160   -0.7150 C   0  0  0  0  0  0
   44.8070   29.4210    0.0060 C   0  0  0  0  0  0
   37.1915   21.5689   -5.3780 H   0  0  0  0  0  0
   36.0140   21.8457   -7.5681 H   0  0  0  0  0  0
   32.3359   20.4177   -5.8161 H   0  0  0  0  0  0
   33.5308   20.0918   -3.6507 H   0  0  0  0  0  0
   34.4593   18.4877   -3.7348 H   0  0  0  0  0  0
   34.0244   18.3483   -1.9975 H   0  0  0  0  0  0
   35.4719   17.4948   -2.6322 H   0  0  0  0  0  0
   38.1433   20.1906    0.6965 H   0  0  0  0  0  0
   38.6072   22.7877    1.9163 H   0  0  0  0  0  0
   39.0766   20.1676    2.6125 H   0  0  0  0  0  0
   40.7558   20.7137    2.2828 H   0  0  0  0  0  0
   39.5128   22.7446    3.8623 H   0  0  0  0  0  0
   39.1136   21.1620    4.6123 H   0  0  0  0  0  0
   41.9439   21.8832    3.7129 H   0  0  0  0  0  0
   41.3245   22.2669    5.3548 H   0  0  0  0  0  0
   41.6189   19.4050    4.1930 H   0  0  0  0  0  0
   42.1001   17.9065    5.9235 H   0  0  0  0  0  0
   41.3890   21.9639    6.7951 H   0  0  0  0  0  0
   41.7497   20.7258    8.1976 H   0  0  0  0  0  0
   39.8101   24.4666    1.2807 H   0  0  0  0  0  0
   41.9782   23.9689   -0.8084 H   0  0  0  0  0  0
   40.7255   26.4861    0.4662 H   0  0  0  0  0  0
   42.1187   26.5769   -0.6640 H   0  0  0  0  0  0
   39.4377   25.2789   -1.2327 H   0  0  0  0  0  0
   39.2723   27.7680   -1.0543 H   0  0  0  0  0  0
   38.9172   27.1686   -2.7100 H   0  0  0  0  0  0
   40.5074   27.9223   -2.3495 H   0  0  0  0  0  0
   41.2698   24.2567   -2.5240 H   0  0  0  0  0  0
   41.6765   25.8668   -3.2088 H   0  0  0  0  0  0
   40.0864   25.1131   -3.5694 H   0  0  0  0  0  0
   44.0665   23.3914    0.0636 H   0  0  0  0  0  0
   44.5344   24.4703    2.8698 H   0  0  0  0  0  0
   45.8161   22.3275    1.3355 H   0  0  0  0  0  0
   47.7353   23.9448    1.5793 H   0  0  0  0  0  0
   47.9674   22.5019    2.6238 H   0  0  0  0  0  0
   47.4105   24.0510    3.3427 H   0  0  0  0  0  0
   46.2627   21.8574    4.0264 H   0  0  0  0  0  0
   44.8110   22.9132    4.0926 H   0  0  0  0  0  0
   44.1827   20.5268    4.0062 H   0  0  0  0  0  0
   45.0846   20.3355    2.4646 H   0  0  0  0  0  0
   43.6329   21.3913    2.5307 H   0  0  0  0  0  0
   45.4670   26.4736    2.9977 H   0  0  0  0  0  0
   46.6218   27.5563    0.4412 H   0  0  0  0  0  0
   47.6163   27.5091    3.9697 H   0  0  0  0  0  0
   49.4825   27.5998    3.5964 H   0  0  0  0  0  0
   45.8990   28.8016    3.1559 H   0  0  0  0  0  0
   46.7639   29.7502    1.8994 H   0  0  0  0  0  0
   43.4826   28.9382    3.1089 H   0  0  0  0  0  0
   41.4096   29.3741    1.7991 H   0  0  0  0  0  0
   43.7160   29.9509   -1.7778 H   0  0  0  0  0  0
   45.7656   29.3719   -0.5105 H   0  0  0  0  0  0
   42.1351   18.5264    7.7248 H   0  0  0  0  0  0
  1  2  2  0  0  0
  1  7  1  0  0  0
  1 56  1  0  0  0
  2  3  1  0  0  0
  2 57  1  0  0  0
  3  4  1  0  0  0
  3  5  2  0  0  0
  5  6  1  0  0  0
  5 58  1  0  0  0
  6  7  2  0  0  0
  6 59  1  0  0  0
  7  8  1  0  0  0
  8  9  1  0  0  0
  8 10  1  0  0  0
  9 13  2  0  0  0
 10 11  1  0  0  0
 10 12  2  0  0  0
 11 60  1  0  0  0
 11 61  1  0  0  0
 11 62  1  0  0  0
 12 13  1  0  0  0
 13 14  1  0  0  0
 14 15  2  0  0  0
 14 16  1  0  0  0
 16 17  1  0  0  0
 16 63  1  0  0  0
 17 18  1  0  0  0
 17 25  1  0  0  0
 17 64  1  0  0  0
 18 19  1  0  0  0
 18 65  1  0  0  0
 18 66  1  0  0  0
 19 20  1  0  0  0
 19 67  1  0  0  0
 19 68  1  0  0  0
 20 21  1  0  0  0
 20 69  1  0  0  0
 20 70  1  0  0  0
 21 22  1  0  0  0
 21 71  1  0  0  0
 22 23  2  0  0  0
 22 24  1  0  0  0
 23 72  1  0  0  0
 23107  1  0  0  0
 24 73  1  0  0  0
 24 74  1  0  0  0
 25 26  2  0  0  0
 25 27  1  0  0  0
 27 28  1  0  0  0
 27 75  1  0  0  0
 28 29  1  0  0  0
 28 33  1  0  0  0
 28 76  1  0  0  0
 29 30  1  0  0  0
 29 77  1  0  0  0
 29 78  1  0  0  0
 30 31  1  0  0  0
 30 32  1  0  0  0
 30 79  1  0  0  0
 31 80  1  0  0  0
 31 81  1  0  0  0
 31 82  1  0  0  0
 32 83  1  0  0  0
 32 84  1  0  0  0
 32 85  1  0  0  0
 33 34  2  0  0  0
 33 35  1  0  0  0
 35 36  1  0  0  0
 35 86  1  0  0  0
 36 37  1  0  0  0
 36 41  1  0  0  0
 36 87  1  0  0  0
 37 38  1  0  0  0
 37 39  1  0  0  0
 37 88  1  0  0  0
 38 89  1  0  0  0
 38 90  1  0  0  0
 38 91  1  0  0  0
 39 40  1  0  0  0
 39 92  1  0  0  0
 39 93  1  0  0  0
 40 94  1  0  0  0
 40 95  1  0  0  0
 40 96  1  0  0  0
 41 42  2  0  0  0
 41 43  1  0  0  0
 43 44  1  0  0  0
 43 97  1  0  0  0
 44 45  1  0  0  0
 44 48  1  0  0  0
 44 98  1  0  0  0
 45 46  2  0  0  0
 45 47  1  0  0  0
 47 99  1  0  0  0
 47100  1  0  0  0
 48 49  1  0  0  0
 48101  1  0  0  0
 48102  1  0  0  0
 49 50  2  0  0  0
 49 55  1  0  0  0
 50 51  1  0  0  0
 50103  1  0  0  0
 51 52  2  0  0  0
 51104  1  0  0  0
 52 53  1  0  0  0
 52 54  1  0  0  0
 54 55  2  0  0  0
 54105  1  0  0  0
 55106  1  0  0  0
M  CHG  1  23   1
M  END
> <s_m_source_file>
../2v22_ligand.sdf

> <i_m_source_file_index>
1

> <s_epik_input>
Q2xjMVtjSF1bY0hdYyhbY0hdW2NIXTEpLW4ybmMobmMyW0NIM10pQyg9TylbTkhdW0NAQEhdKFtDSDJdW0NIMl1bQ0gyXVtOSF0vQyg9TlxbSF0pW05IMl0pQyg9TylbTkhdW0NAQEhdKFtDSDJdW0NIXShbQ0gzXSlbQ0gzXSlDKD1PKVtOSF1bQ0BASF0oW0NAQEhdKFtDSDNdKVtDSDJdW0NIM10pQyg9TylbTkhdW0NASF0oQyg9TylbTkgyXSlbQ0gyXWMzW2NIXVtjSF1jKEYpW2NIXVtjSF0z

> <s_epik_cmdline>
J2VwaWtfYXBwJywgJy1pbWFlJywgJ2xpZ2FuZF9wcm8ubWFlJywgJy1vbWFlJywgJ2xpZ2FuZF9wcmVwLm1hZScsICctbXMnLCAnMScsICctcGgnLCAnNycsICctcGh0JywgJzAuNScsICctbnQn

> <r_lp_tautomer_probability>
1

> <r_epik_Ionization_Penalty>
  0.0000

> <r_epik_Ionization_Penalty_Charging>
  0.0000

> <r_epik_Ionization_Penalty_Neutral>
  0.0000

> <r_epik_State_Penalty>
 -0.0000

> <r_epik_Charging_Adjusted_Penalty>
1.54239390635445e-05

> <i_epik_Tot_Q>
1

> <i_epik_Tot_abs_Q>
1

> <s_epik_Chemistry_Notes>
This compound has an imine and may undergo hydrolysis.

$$$$
