2v25_ligand
                    3D
 Schrodinger Suite 2020-3.
 15 14  0  0  1  0            999 V2000
    8.0530   33.3800   60.2420 N   0  3  0  0  0  0
    9.0090   34.3110   60.8800 C   0  0  2  0  0  0
    8.3090   35.4180   61.6190 C   0  0  0  0  0  0
    8.9810   36.2350   62.2620 O   0  0  0  0  0  0
   10.0090   34.8740   59.8490 C   0  0  0  0  0  0
    9.3400   35.6100   58.6880 C   0  0  0  0  0  0
    8.1290   35.4850   58.5120 O   0  0  0  0  0  0
   10.0320   36.3260   57.9200 O   0  5  0  0  0  0
    7.0660   35.4740   61.5960 O   0  5  0  0  0  0
    7.3543   32.9957   60.9997 H   0  0  0  0  0  0
    8.6035   32.5409   59.7917 H   0  0  0  0  0  0
    7.4903   33.9111   59.4602 H   0  0  0  0  0  0
    9.5408   33.7119   61.6339 H   0  0  0  0  0  0
   10.6844   35.5868   60.3447 H   0  0  0  0  0  0
   10.5971   34.0492   59.4203 H   0  0  0  0  0  0
  1  2  1  0  0  0
  1 10  1  0  0  0
  1 11  1  0  0  0
  1 12  1  0  0  0
  2  3  1  0  0  0
  2  5  1  0  0  0
  2 13  1  0  0  0
  3  4  2  0  0  0
  3  9  1  0  0  0
  5  6  1  0  0  0
  5 14  1  0  0  0
  5 15  1  0  0  0
  6  7  2  0  0  0
  6  8  1  0  0  0
M  CHG  3   1   1   8  -1   9  -1
M  END
> <s_m_source_file>
../2v25_ligand.sdf

> <i_m_source_file_index>
1

> <s_epik_input>
Tz1DKFtPSF0pW0NAQEhdKFtOSDMrXSlbQ0gyXUMoPU8pW09IXQ==

> <s_epik_cmdline>
J2VwaWtfYXBwJywgJy1pbWFlJywgJ2xpZ2FuZF9wcm8ubWFlJywgJy1vbWFlJywgJ2xpZ2FuZF9wcmVwLm1hZScsICctbXMnLCAnMScsICctcGgnLCAnNycsICctcGh0JywgJzAuNScsICctbnQn

> <r_lp_tautomer_probability>
1

> <r_epik_Ionization_Penalty>
  0.0054

> <r_epik_Ionization_Penalty_Charging>
  0.0054

> <r_epik_Ionization_Penalty_Neutral>
  0.0000

> <r_epik_State_Penalty>
 -0.0000

> <r_epik_Charging_Adjusted_Penalty>
0.00544610570333974

> <i_epik_Tot_Q>
-1

> <i_epik_Tot_abs_Q>
3

$$$$
