2v2c_ligand
                    3D
 Schrodinger Suite 2020-3.
 11 10  0  0  1  0            999 V2000
   12.0650   15.8960   15.4530 P   0  0  0  0  0  0
   11.7780   14.3280   15.6450 O   0  0  0  0  0  0
   13.1490   15.9000   14.3700 O   0  5  0  0  0  0
   10.7410   16.4640   15.0340 O   0  5  0  0  0  0
   12.5070   16.5490   16.7240 O   0  0  0  0  0  0
   12.8660   13.4140   15.7810 C   0  0  0  0  0  0
   12.3250   11.9850   15.8680 C   0  0  0  0  0  0
   12.7150   11.0490   15.1230 O   0  5  0  0  0  0
   11.4370   11.7630   16.6950 O   0  0  0  0  0  0
   13.5300   13.5019   14.9084 H   0  0  0  0  0  0
   13.4299   13.6486   16.6959 H   0  0  0  0  0  0
  1  2  1  0  0  0
  1  3  1  0  0  0
  1  4  1  0  0  0
  1  5  2  0  0  0
  2  6  1  0  0  0
  6  7  1  0  0  0
  6 10  1  0  0  0
  6 11  1  0  0  0
  7  8  1  0  0  0
  7  9  2  0  0  0
M  CHG  3   3  -1   4  -1   8  -1
M  END
> <s_m_source_file>
../2v2c_ligand.sdf

> <i_m_source_file_index>
1

> <s_epik_input>
W09IXVAoPU8pKFtPSF0pT1tDSDJdQyg9TylbT0hd

> <s_epik_cmdline>
J2VwaWtfYXBwJywgJy1pbWFlJywgJ2xpZ2FuZF9wcm8ubWFlJywgJy1vbWFlJywgJ2xpZ2FuZF9wcmVwLm1hZScsICctbXMnLCAnMScsICctcGgnLCAnNycsICctcGh0JywgJzAuNScsICctbnQn

> <r_epik_Ionization_Penalty>
  0.1459

> <r_epik_Ionization_Penalty_Charging>
  0.1459

> <r_epik_Ionization_Penalty_Neutral>
  0.0000

> <r_epik_State_Penalty>
  0.1346

> <r_epik_Charging_Adjusted_Penalty>
0.280492608850728

> <i_epik_Tot_Q>
-3

> <i_epik_Tot_abs_Q>
3

$$$$
