2v2h_ligand
                    3D
 Schrodinger Suite 2020-3.
 11 10  0  0  1  0            999 V2000
  -17.8090   -6.3090  -12.8520 P   0  0  0  0  0  0
  -18.3560   -5.6970  -14.2470 O   0  0  0  0  0  0
  -17.2500   -7.6810  -13.1540 O   0  5  0  0  0  0
  -19.0670   -6.3180  -12.0410 O   0  0  0  0  0  0
  -16.7790   -5.3540  -12.3310 O   0  5  0  0  0  0
  -17.3650   -5.3440  -15.2630 C   0  0  0  0  0  0
  -18.0850   -4.6020  -16.3600 C   0  0  0  0  0  0
  -17.3210   -4.3400  -17.3530 O   0  5  0  0  0  0
  -19.2390   -4.2690  -16.3510 O   0  0  0  0  0  0
  -16.5895   -4.7068  -14.8129 H   0  0  0  0  0  0
  -16.9026   -6.2605  -15.6583 H   0  0  0  0  0  0
  1  2  1  0  0  0
  1  3  1  0  0  0
  1  4  2  0  0  0
  1  5  1  0  0  0
  2  6  1  0  0  0
  6  7  1  0  0  0
  6 10  1  0  0  0
  6 11  1  0  0  0
  7  8  1  0  0  0
  7  9  2  0  0  0
M  CHG  3   3  -1   5  -1   8  -1
M  END
> <s_m_source_file>
../2v2h_ligand.sdf

> <i_m_source_file_index>
1

> <s_epik_input>
W09IXVAoPU8pKFtPSF0pT1tDSDJdQyg9TylbT0hd

> <s_epik_cmdline>
J2VwaWtfYXBwJywgJy1pbWFlJywgJ2xpZ2FuZF9wcm8ubWFlJywgJy1vbWFlJywgJ2xpZ2FuZF9wcmVwLm1hZScsICctbXMnLCAnMScsICctcGgnLCAnNycsICctcGh0JywgJzAuNScsICctbnQn

> <r_epik_Ionization_Penalty>
  0.1459

> <r_epik_Ionization_Penalty_Charging>
  0.1459

> <r_epik_Ionization_Penalty_Neutral>
  0.0000

> <r_epik_State_Penalty>
  0.1346

> <r_epik_Charging_Adjusted_Penalty>
0.280492608850728

> <i_epik_Tot_Q>
-3

> <i_epik_Tot_abs_Q>
3

$$$$
