2v2q_ligand
                    3D
 Schrodinger Suite 2020-3.
 51 54  0  0  1  0            999 V2000
   12.9440   -9.9710   14.9610 O   0  0  0  0  0  0
   13.0410   -9.0370   15.7620 C   0  0  0  0  0  0
   12.3190   -7.9140   15.5500 N   0  0  0  0  0  0
   12.3730   -6.8650   16.3910 C   0  0  0  0  0  0
   11.6480   -5.7770   16.1530 N   0  0  0  0  0  0
   13.1900   -6.8970   17.5220 C   0  0  0  0  0  0
   13.9540   -8.0270   17.7840 C   0  0  0  0  0  0
   13.8960   -9.1240   16.9000 N   0  0  0  0  0  0
   14.7180  -10.3600   17.1830 C   0  0  2  0  0  0
   15.2460  -10.4160   18.5600 O   0  0  0  0  0  0
   15.9510  -10.4870   16.2580 C   0  0  2  0  0  0
   15.9890  -11.8010   15.6740 O   0  0  0  0  0  0
   17.1610  -10.2830   17.1680 C   0  0  2  0  0  0
   17.8180  -11.5390   17.2980 O   0  0  0  0  0  0
   16.5610   -9.8010   18.5160 C   0  0  2  0  0  0
   17.3020  -10.0920   19.8640 C   0  0  0  0  0  0
   18.2310  -11.2300   19.7370 N   0  0  0  0  0  0
   19.5410  -11.1410   19.9820 C   0  0  0  0  0  0
   20.1120  -10.1100   20.3370 O   0  0  0  0  0  0
   20.3390  -12.4420   19.7890 C   0  0  0  0  0  0
   19.5050  -13.7070   20.0450 C   0  0  0  0  0  0
   19.1260  -13.8430   21.5220 C   0  0  0  0  0  0
   18.2900  -13.0430   22.1840 N   0  0  0  0  0  0
   18.2060  -13.4680   23.4380 C   0  0  0  0  0  0
   17.4910  -13.0090   24.5430 C   0  0  0  0  0  0
   17.6050  -13.6780   25.7610 C   0  0  0  0  0  0
   18.4300  -14.7990   25.8700 C   0  0  0  0  0  0
   19.1460  -15.2540   24.7630 C   0  0  0  0  0  0
   19.0300  -14.5830   23.5470 C   0  0  0  0  0  0
   19.5760  -14.7840   22.3520 N   0  0  0  0  0  0
   10.9978   -5.7323   15.2668 H   0  0  0  0  0  0
   13.2283   -6.0407   18.1954 H   0  0  0  0  0  0
   14.5933   -8.0655   18.6660 H   0  0  0  0  0  0
   13.9911  -11.1752   17.0522 H   0  0  0  0  0  0
   15.9406   -9.8074   15.3931 H   0  0  0  0  0  0
   15.1911  -12.1212   14.9878 H   0  0  0  0  0  0
   17.9463   -9.6169   16.7811 H   0  0  0  0  0  0
   18.2919  -12.0051   16.4216 H   0  0  0  0  0  0
   16.5404   -8.7017   18.4812 H   0  0  0  0  0  0
   17.8785   -9.2046   20.1645 H   0  0  0  0  0  0
   16.5640  -10.3312   20.6439 H   0  0  0  0  0  0
   17.8542  -12.2156   19.4262 H   0  0  0  0  0  0
   20.7120  -12.4934   18.7555 H   0  0  0  0  0  0
   21.1892  -12.4576   20.4868 H   0  0  0  0  0  0
   19.1785  -14.4681   19.3211 H   0  0  0  0  0  0
   16.8428  -12.1251   24.4502 H   0  0  0  0  0  0
   17.0435  -13.3211   26.6370 H   0  0  0  0  0  0
   18.5169  -15.3265   26.8313 H   0  0  0  0  0  0
   19.7916  -16.1281   24.8483 H   0  0  0  0  0  0
   17.8091  -12.2002   21.6658 H   0  0  0  0  0  0
   11.6981   -4.9211   16.8422 H   0  0  0  0  0  0
  1  2  2  0  0  0
  2  3  1  0  0  0
  2  8  1  0  0  0
  3  4  2  0  0  0
  4  5  1  0  0  0
  4  6  1  0  0  0
  5 31  1  0  0  0
  5 51  1  0  0  0
  6  7  2  0  0  0
  6 32  1  0  0  0
  7  8  1  0  0  0
  7 33  1  0  0  0
  8  9  1  0  0  0
  9 10  1  0  0  0
  9 11  1  0  0  0
  9 34  1  0  0  0
 10 15  1  0  0  0
 11 12  1  0  0  0
 11 13  1  0  0  0
 11 35  1  0  0  0
 12 36  1  0  0  0
 13 14  1  0  0  0
 13 15  1  0  0  0
 13 37  1  0  0  0
 14 38  1  0  0  0
 15 16  1  0  0  0
 15 39  1  0  0  0
 16 17  1  0  0  0
 16 40  1  0  0  0
 16 41  1  0  0  0
 17 18  1  0  0  0
 17 42  1  0  0  0
 18 19  2  0  0  0
 18 20  1  0  0  0
 20 21  1  0  0  0
 20 43  1  0  0  0
 20 44  1  0  0  0
 21 22  2  0  0  0
 21 45  1  0  0  0
 22 23  1  0  0  0
 22 30  1  0  0  0
 23 24  1  0  0  0
 23 50  1  0  0  0
 24 25  2  0  0  0
 24 29  1  0  0  0
 25 26  1  0  0  0
 25 46  1  0  0  0
 26 27  2  0  0  0
 26 47  1  0  0  0
 27 28  1  0  0  0
 27 48  1  0  0  0
 28 29  1  0  0  0
 28 49  1  0  0  0
 29 30  2  0  0  0
M  END
> <s_m_source_file>
../2v2q_ligand.sdf

> <i_m_source_file_index>
1

> <s_epik_input>
Tz1jMVtuSF0vYyg9Ti9bSF0pW2NIXVtjSF1uMVtDQEBIXTJPW0NASF0oW0NAQEhdKFtPSF0pW0NASF0yW09IXSlbQ0gyXVtOSF1DKD1PKVtDSDJdW0NIMl1DKD1OMylOPUMoQzM9NClbQ0gyXVtDSF09W0NIXVtDSF00

> <s_epik_cmdline>
J2VwaWtfYXBwJywgJy1pbWFlJywgJ2xpZ2FuZF9wcm8ubWFlJywgJy1vbWFlJywgJ2xpZ2FuZF9wcmVwLm1hZScsICctbXMnLCAnMScsICctcGgnLCAnNycsICctcGh0JywgJzAuNScsICctbnQn

> <r_lp_tautomer_probability>
1

> <r_epik_Ionization_Penalty>
  0.0018

> <r_epik_Ionization_Penalty_Charging>
  0.0008

> <r_epik_Ionization_Penalty_Neutral>
  0.0010

> <r_epik_State_Penalty>
 -0.0000

> <r_epik_Charging_Adjusted_Penalty>
0.00077822151498848

> <i_epik_Tot_Q>
0

> <i_epik_Tot_abs_Q>
0

> <s_epik_Chemistry_Notes>
This compound has an imine and may undergo hydrolysis. This compound contains an acetal/aminal-like group ( X-CH(R)-Y where X, Y are N, S, or O) that may be acid/base labile, releasing an aldehyde.

$$$$
