2v2v_ligand
                    3D
 Schrodinger Suite 2020-3.
 48 51  0  0  1  0            999 V2000
   12.8760  -10.0680   14.8980 O   0  0  0  0  0  0
   12.9820   -9.1330   15.6950 C   0  0  0  0  0  0
   12.2620   -8.0190   15.4750 N   0  0  0  0  0  0
   12.3070   -6.9530   16.2930 C   0  0  0  0  0  0
   11.5750   -5.8730   16.0340 N   0  0  0  0  0  0
   13.1170   -6.9550   17.4210 C   0  0  0  0  0  0
   13.8800   -8.0780   17.6990 C   0  0  0  0  0  0
   13.8280   -9.1900   16.8310 N   0  0  0  0  0  0
   14.6770  -10.3720   17.1840 C   0  0  2  0  0  0
   15.1950  -10.0900   18.5380 O   0  0  0  0  0  0
   15.9030  -10.5500   16.2680 C   0  0  2  0  0  0
   15.9370  -11.8890   15.7270 O   0  0  0  0  0  0
   17.0970  -10.2900   17.1890 C   0  0  2  0  0  0
   18.1130  -11.2630   16.9490 O   0  0  0  0  0  0
   16.5590  -10.4900   18.5940 C   0  0  1  0  0  0
   17.2900   -9.4750   19.4790 C   0  0  0  0  0  0
   16.9700   -9.6620   20.9050 N   0  0  0  0  0  0
   17.7770  -10.2890   21.7650 C   0  0  0  0  0  0
   18.8660  -10.7830   21.4700 O   0  5  0  0  0  0
   17.2430  -10.3490   23.2020 C   0  0  0  0  0  0
   17.5970  -11.6650   23.9100 C   0  0  0  0  0  0
   17.3450  -11.9200   25.1940 N   0  0  0  0  0  0
   17.7790  -13.1430   25.4770 C   0  0  0  0  0  0
   17.7700  -13.9000   26.6480 C   0  0  0  0  0  0
   18.3100  -15.1860   26.6420 C   0  0  0  0  0  0
   18.8570  -15.7090   25.4690 C   0  0  0  0  0  0
   18.8640  -14.9480   24.3000 C   0  0  0  0  0  0
   18.3220  -13.6630   24.3080 C   0  0  0  0  0  0
   18.1930  -12.7300   23.3680 N   0  3  0  0  0  0
   10.9259   -5.8484   15.1463 H   0  0  0  0  0  0
   13.1521   -6.0860   18.0781 H   0  0  0  0  0  0
   14.5169   -8.1025   18.5832 H   0  0  0  0  0  0
   14.0496  -11.2735   17.1244 H   0  0  0  0  0  0
   15.9016   -9.9221   15.3648 H   0  0  0  0  0  0
   15.1429  -12.2270   15.0449 H   0  0  0  0  0  0
   17.5831   -9.3172   17.0234 H   0  0  0  0  0  0
   18.6331  -11.2876   15.9800 H   0  0  0  0  0  0
   16.6199  -11.5245   18.9630 H   0  0  0  0  0  0
   18.3762   -9.5919   19.3506 H   0  0  0  0  0  0
   16.9941   -8.4559   19.1894 H   0  0  0  0  0  0
   16.0237   -9.2756   21.3116 H   0  0  0  0  0  0
   16.6753   -9.5015   23.6136 H   0  0  0  0  0  0
   17.3386  -13.4823   27.5697 H   0  0  0  0  0  0
   18.3046  -15.7882   27.5625 H   0  0  0  0  0  0
   19.2835  -16.7229   25.4654 H   0  0  0  0  0  0
   19.2913  -15.3560   23.3840 H   0  0  0  0  0  0
   11.6188   -5.0044   16.7075 H   0  0  0  0  0  0
   18.5570  -12.9228   22.3481 H   0  0  0  0  0  0
  1  2  2  0  0  0
  2  3  1  0  0  0
  2  8  1  0  0  0
  3  4  2  0  0  0
  4  5  1  0  0  0
  4  6  1  0  0  0
  5 30  1  0  0  0
  5 47  1  0  0  0
  6  7  2  0  0  0
  6 31  1  0  0  0
  7  8  1  0  0  0
  7 32  1  0  0  0
  8  9  1  0  0  0
  9 10  1  0  0  0
  9 11  1  0  0  0
  9 33  1  0  0  0
 10 15  1  0  0  0
 11 12  1  0  0  0
 11 13  1  0  0  0
 11 34  1  0  0  0
 12 35  1  0  0  0
 13 14  1  0  0  0
 13 15  1  0  0  0
 13 36  1  0  0  0
 14 37  1  0  0  0
 15 16  1  0  0  0
 15 38  1  0  0  0
 16 17  1  0  0  0
 16 39  1  0  0  0
 16 40  1  0  0  0
 17 18  1  0  0  0
 17 41  1  0  0  0
 18 19  1  0  0  0
 18 20  2  0  0  0
 20 21  1  0  0  0
 20 42  1  0  0  0
 21 22  2  0  0  0
 21 29  1  0  0  0
 22 23  1  0  0  0
 23 24  2  0  0  0
 23 28  1  0  0  0
 24 25  1  0  0  0
 24 43  1  0  0  0
 25 26  2  0  0  0
 25 44  1  0  0  0
 26 27  1  0  0  0
 26 45  1  0  0  0
 27 28  1  0  0  0
 27 46  1  0  0  0
 28 29  2  0  0  0
 29 48  1  0  0  0
M  CHG  2  19  -1  29   1
M  END
> <s_m_source_file>
../2v2v_ligand.sdf

> <i_m_source_file_index>
1

> <s_epik_input>
Tz1jMVtuSF0vYyg9Ti9bSF0pW2NIXVtjSF1uMVtDQEBIXTJPW0NAQEhdKFtDQEBIXShbT0hdKVtDQEhdMltPSF0pW0NIMl1bTkhdQyg9TylbQ0gyXUMoPU4zKU49QyhDMz00KVtDSDJdW0NIXT1bQ0hdW0NIXTQ=

> <s_epik_cmdline>
J2VwaWtfYXBwJywgJy1pbWFlJywgJ2xpZ2FuZF9wcm8ubWFlJywgJy1vbWFlJywgJ2xpZ2FuZF9wcmVwLm1hZScsICctbXMnLCAnMScsICctcGgnLCAnNycsICctcGh0JywgJzAuNScsICctbnQn

> <r_epik_Ionization_Penalty>
  0.0272

> <r_epik_Ionization_Penalty_Charging>
  0.0261

> <r_epik_Ionization_Penalty_Neutral>
  0.0011

> <r_epik_State_Penalty>
  0.4032

> <r_epik_Charging_Adjusted_Penalty>
0.429218004610166

> <i_epik_Tot_Q>
0

> <i_epik_Tot_abs_Q>
2

> <s_epik_Chemistry_Notes>
This compound has an imine and may undergo hydrolysis. This compound contains an acetal/aminal-like group ( X-CH(R)-Y where X, Y are N, S, or O) that may be acid/base labile, releasing an aldehyde.

$$$$
