2v3d_ligand
                    3D
 Schrodinger Suite 2020-3.
 37 37  0  0  1  0            999 V2000
   34.6420   34.2760   -1.1950 O   0  0  0  0  0  0
   33.8390   33.4890   -0.2680 C   0  0  0  0  0  0
   34.6480   32.2880    0.3200 C   0  0  2  0  0  0
   35.8210   32.7510    1.1910 C   0  0  1  0  0  0
   35.4120   33.7460    2.1780 O   0  0  0  0  0  0
   36.5240   31.5590    1.8670 C   0  0  2  0  0  0
   37.7380   31.9710    2.5030 O   0  0  0  0  0  0
   36.9050   30.4670    0.8500 C   0  0  1  0  0  0
   37.1310   29.2710    1.6000 O   0  0  0  0  0  0
   35.2190   31.4520   -0.7420 N   0  3  1  0  0  0
   35.8120   30.2110   -0.1820 C   0  0  0  0  0  0
   34.2610   31.2750   -1.8520 C   0  0  0  0  0  0
   34.8060   30.3340   -2.9390 C   0  0  0  0  0  0
   34.1390   30.6730   -4.3020 C   0  0  0  0  0  0
   34.5900   29.7200   -5.4350 C   0  0  0  0  0  0
   34.2060   35.1564   -1.6898 H   0  0  0  0  0  0
   33.5107   34.1271    0.5657 H   0  0  0  0  0  0
   32.9586   33.0899   -0.7930 H   0  0  0  0  0  0
   33.9493   31.6692    0.9022 H   0  0  0  0  0  0
   36.5347   33.2869    0.5480 H   0  0  0  0  0  0
   34.8946   34.6612    1.8545 H   0  0  0  0  0  0
   35.8587   31.1771    2.6554 H   0  0  0  0  0  0
   37.7157   32.7522    3.2771 H   0  0  0  0  0  0
   37.8248   30.7323    0.3083 H   0  0  0  0  0  0
   37.8885   29.2568    2.3975 H   0  0  0  0  0  0
   36.0662   31.9788   -1.2054 H   0  0  0  0  0  0
   36.2291   29.6382   -1.0234 H   0  0  0  0  0  0
   34.9959   29.6383    0.2826 H   0  0  0  0  0  0
   33.3254   30.8459   -1.4640 H   0  0  0  0  0  0
   34.0524   32.2506   -2.3154 H   0  0  0  0  0  0
   35.8953   30.4622   -3.0225 H   0  0  0  0  0  0
   34.5791   29.2920   -2.6694 H   0  0  0  0  0  0
   33.0462   30.5917   -4.2057 H   0  0  0  0  0  0
   34.4059   31.6989   -4.5958 H   0  0  0  0  0  0
   34.0902   30.0033   -6.3731 H   0  0  0  0  0  0
   34.3203   28.6861   -5.1736 H   0  0  0  0  0  0
   35.6800   29.7933   -5.5636 H   0  0  0  0  0  0
  1  2  1  0  0  0
  1 16  1  0  0  0
  2  3  1  0  0  0
  2 17  1  0  0  0
  2 18  1  0  0  0
  3  4  1  0  0  0
  3 10  1  0  0  0
  3 19  1  0  0  0
  4  5  1  0  0  0
  4  6  1  0  0  0
  4 20  1  0  0  0
  5 21  1  0  0  0
  6  7  1  0  0  0
  6  8  1  0  0  0
  6 22  1  0  0  0
  7 23  1  0  0  0
  8  9  1  0  0  0
  8 11  1  0  0  0
  8 24  1  0  0  0
  9 25  1  0  0  0
 10 11  1  0  0  0
 10 12  1  0  0  0
 10 26  1  0  0  0
 11 27  1  0  0  0
 11 28  1  0  0  0
 12 13  1  0  0  0
 12 29  1  0  0  0
 12 30  1  0  0  0
 13 14  1  0  0  0
 13 31  1  0  0  0
 13 32  1  0  0  0
 14 15  1  0  0  0
 14 33  1  0  0  0
 14 34  1  0  0  0
 15 35  1  0  0  0
 15 36  1  0  0  0
 15 37  1  0  0  0
M  CHG  1  10   1
M  END
> <s_m_source_file>
../2v3d_ligand.sdf

> <i_m_source_file_index>
1

> <s_epik_input>
W09IXVtDSDJdW0NAQEhdMVtDQEBIXShbT0hdKVtDQEhdKFtPSF0pW0NAQEhdKFtPSF0pW0NIMl1bTkBIK10xW0NIMl1bQ0gyXVtDSDJdW0NIM10=

> <s_epik_cmdline>
J2VwaWtfYXBwJywgJy1pbWFlJywgJ2xpZ2FuZF9wcm8ubWFlJywgJy1vbWFlJywgJ2xpZ2FuZF9wcmVwLm1hZScsICctbXMnLCAnMScsICctcGgnLCAnNycsICctcGh0JywgJzAuNScsICctbnQn

> <r_lp_tautomer_probability>
1

> <r_epik_Ionization_Penalty>
  0.0079

> <r_epik_Ionization_Penalty_Charging>
  0.0079

> <r_epik_Ionization_Penalty_Neutral>
  0.0000

> <r_epik_State_Penalty>
 -0.0000

> <r_epik_Charging_Adjusted_Penalty>
0.0078904831807657

> <i_epik_Tot_Q>
1

> <i_epik_Tot_abs_Q>
1

$$$$
