2v3e_ligand
                    3D
 Schrodinger Suite 2020-3.
 52 52  0  0  1  0            999 V2000
   34.7260   34.3490   -1.1620 O   0  0  0  0  0  0
   33.9040   33.5170   -0.2920 C   0  0  0  0  0  0
   34.6920   32.3580    0.3880 C   0  0  2  0  0  0
   35.9070   32.8280    1.2120 C   0  0  1  0  0  0
   35.4740   33.8620    2.1000 O   0  0  0  0  0  0
   37.8040   32.0370    2.6250 O   0  0  0  0  0  0
   37.0430   30.5510    0.9240 C   0  0  1  0  0  0
   37.2110   29.3030    1.6290 O   0  0  0  0  0  0
   35.2970   31.5030   -0.6430 N   0  3  2  0  0  0
   34.4170   31.3610   -1.8130 C   0  0  0  0  0  0
   35.0870   30.4190   -2.7800 C   0  0  0  0  0  0
   35.9400   30.2900   -0.0960 C   0  0  0  0  0  0
   34.5410   30.7590   -4.1600 C   0  0  0  0  0  0
   35.1320   29.8940   -5.2710 C   0  0  0  0  0  0
   34.3960   30.3560   -6.5400 C   0  0  0  0  0  0
   35.2100   30.0240   -7.7850 C   0  0  0  0  0  0
   35.8160   31.2880   -8.3660 C   0  0  0  0  0  0
   38.1120   31.6660   -9.0960 C   0  0  0  0  0  0
   36.8370   30.9370   -9.4390 C   0  0  0  0  0  0
   36.6110   31.6420    1.9160 C   0  0  2  0  0  0
   34.2760   35.1990   -1.6959 H   0  0  0  0  0  0
   33.4744   34.1366    0.5090 H   0  0  0  0  0  0
   33.0924   33.0624   -0.8791 H   0  0  0  0  0  0
   33.9669   31.8142    1.0112 H   0  0  0  0  0  0
   36.6668   33.3286    0.5939 H   0  0  0  0  0  0
   34.9622   34.7504    1.7017 H   0  0  0  0  0  0
   37.7509   32.8162    3.3997 H   0  0  0  0  0  0
   37.9937   30.8417    0.4532 H   0  0  0  0  0  0
   37.5199   28.3998    1.0824 H   0  0  0  0  0  0
   36.1701   32.0214   -1.0661 H   0  0  0  0  0  0
   33.4459   30.9544   -1.4942 H   0  0  0  0  0  0
   34.2667   32.3453   -2.2804 H   0  0  0  0  0  0
   36.1764   30.5664   -2.7402 H   0  0  0  0  0  0
   34.8472   29.3809   -2.5064 H   0  0  0  0  0  0
   36.3558   29.7396   -0.9529 H   0  0  0  0  0  0
   35.1425   29.6934    0.3709 H   0  0  0  0  0  0
   33.4509   30.6124   -4.1693 H   0  0  0  0  0  0
   34.7719   31.8080   -4.3975 H   0  0  0  0  0  0
   36.2160   30.0698   -5.3352 H   0  0  0  0  0  0
   34.9452   28.8331   -5.0484 H   0  0  0  0  0  0
   33.4228   29.8474   -6.6051 H   0  0  0  0  0  0
   34.2390   31.4439   -6.4973 H   0  0  0  0  0  0
   36.0177   29.3260   -7.5196 H   0  0  0  0  0  0
   34.5561   29.5590   -8.5374 H   0  0  0  0  0  0
   35.0215   31.9036   -8.8129 H   0  0  0  0  0  0
   36.3146   31.8564   -7.5670 H   0  0  0  0  0  0
   38.8791   31.4380   -9.8507 H   0  0  0  0  0  0
   38.4644   31.3422   -8.1055 H   0  0  0  0  0  0
   37.9224   32.7494   -9.0816 H   0  0  0  0  0  0
   37.0026   29.8496   -9.4458 H   0  0  0  0  0  0
   36.4606   31.2567  -10.4219 H   0  0  0  0  0  0
   35.9056   31.2667    2.6720 H   0  0  0  0  0  0
  1  2  1  0  0  0
  1 21  1  0  0  0
  2  3  1  0  0  0
  2 22  1  0  0  0
  2 23  1  0  0  0
  3  4  1  0  0  0
  3  9  1  0  0  0
  3 24  1  0  0  0
  4  5  1  0  0  0
  4 20  1  0  0  0
  4 25  1  0  0  0
  5 26  1  0  0  0
  6 20  1  0  0  0
  6 27  1  0  0  0
  7  8  1  0  0  0
  7 12  1  0  0  0
  7 20  1  0  0  0
  7 28  1  0  0  0
  8 29  1  0  0  0
  9 10  1  0  0  0
  9 12  1  0  0  0
  9 30  1  0  0  0
 10 11  1  0  0  0
 10 31  1  0  0  0
 10 32  1  0  0  0
 11 13  1  0  0  0
 11 33  1  0  0  0
 11 34  1  0  0  0
 12 35  1  0  0  0
 12 36  1  0  0  0
 13 14  1  0  0  0
 13 37  1  0  0  0
 13 38  1  0  0  0
 14 15  1  0  0  0
 14 39  1  0  0  0
 14 40  1  0  0  0
 15 16  1  0  0  0
 15 41  1  0  0  0
 15 42  1  0  0  0
 16 17  1  0  0  0
 16 43  1  0  0  0
 16 44  1  0  0  0
 17 19  1  0  0  0
 17 45  1  0  0  0
 17 46  1  0  0  0
 18 19  1  0  0  0
 18 47  1  0  0  0
 18 48  1  0  0  0
 18 49  1  0  0  0
 19 50  1  0  0  0
 19 51  1  0  0  0
 20 52  1  0  0  0
M  CHG  1   9   1
M  END
> <s_m_source_file>
../2v3e_ligand.sdf

> <i_m_source_file_index>
1

> <s_epik_input>
W09IXVtDSDJdW0NAQEhdMVtDQEBIXShbT0hdKVtDQEhdKFtPSF0pW0NAQEhdKFtPSF0pW0NIMl1bTkBIK10xW0NIMl1bQ0gyXVtDSDJdW0NIMl1bQ0gyXVtDSDJdW0NIMl1bQ0gyXVtDSDNd

> <s_epik_cmdline>
J2VwaWtfYXBwJywgJy1pbWFlJywgJ2xpZ2FuZF9wcm8ubWFlJywgJy1vbWFlJywgJ2xpZ2FuZF9wcmVwLm1hZScsICctbXMnLCAnMScsICctcGgnLCAnNycsICctcGh0JywgJzAuNScsICctbnQn

> <r_lp_tautomer_probability>
1

> <r_epik_Ionization_Penalty>
  0.0075

> <r_epik_Ionization_Penalty_Charging>
  0.0075

> <r_epik_Ionization_Penalty_Neutral>
  0.0000

> <r_epik_State_Penalty>
 -0.0000

> <r_epik_Charging_Adjusted_Penalty>
0.00748629043406428

> <i_epik_Tot_Q>
1

> <i_epik_Tot_abs_Q>
1

$$$$
