2v57_ligand
                    3D
 Schrodinger Suite 2020-3.
 28 30  0  0  1  0            999 V2000
    5.7110   -3.8290    4.7020 C   0  0  0  0  0  0
    6.4370   -3.0180    3.8200 C   0  0  0  0  0  0
    7.8300   -2.9470    3.9400 C   0  0  0  0  0  0
    8.4930   -3.6860    4.9140 C   0  0  0  0  0  0
    8.5040   -6.6940    8.5770 C   0  0  0  0  0  0
    7.8300   -7.5120    9.4890 C   0  0  0  0  0  0
    6.4510   -7.6270    9.4210 C   0  0  0  0  0  0
    5.7400   -6.9250    8.4610 C   0  0  0  0  0  0
    5.6840   -5.3820    6.5860 C   0  0  0  0  0  0
    8.4280   -5.1940    6.7350 N   0  3  0  0  0  0
    7.7690   -4.4840    5.7940 C   0  0  0  0  0  0
    6.4010   -6.0980    7.5560 C   0  0  0  0  0  0
    6.3790   -4.5650    5.6890 C   0  0  0  0  0  0
    7.7810   -5.9940    7.6090 C   0  0  0  0  0  0
    8.5350   -2.1670    3.0930 N   0  0  0  0  0  0
    8.5080   -8.2100   10.4340 N   0  0  0  0  0  0
    4.6256   -3.8873    4.6201 H   0  0  0  0  0  0
    5.9219   -2.4474    3.0472 H   0  0  0  0  0  0
    9.5795   -3.6399    4.9878 H   0  0  0  0  0  0
    9.5893   -6.6031    8.6215 H   0  0  0  0  0  0
    5.9240   -8.2714   10.1246 H   0  0  0  0  0  0
    4.6552   -7.0207    8.4137 H   0  0  0  0  0  0
    4.5982   -5.4615    6.5322 H   0  0  0  0  0  0
    8.0135   -1.5813    2.3216 H   0  0  0  0  0  0
    9.6309   -2.1172    3.1743 H   0  0  0  0  0  0
    9.6030   -8.1276   10.4987 H   0  0  0  0  0  0
    7.9628   -8.8585   11.1356 H   0  0  0  0  0  0
    9.5239   -5.1301    6.8051 H   0  0  0  0  0  0
  1  2  2  0  0  0
  1 13  1  0  0  0
  1 17  1  0  0  0
  2  3  1  0  0  0
  2 18  1  0  0  0
  3  4  2  0  0  0
  3 15  1  0  0  0
  4 11  1  0  0  0
  4 19  1  0  0  0
  5  6  1  0  0  0
  5 14  2  0  0  0
  5 20  1  0  0  0
  6  7  2  0  0  0
  6 16  1  0  0  0
  7  8  1  0  0  0
  7 21  1  0  0  0
  8 12  2  0  0  0
  8 22  1  0  0  0
  9 12  1  0  0  0
  9 13  2  0  0  0
  9 23  1  0  0  0
 10 11  2  0  0  0
 10 14  1  0  0  0
 10 28  1  0  0  0
 11 13  1  0  0  0
 12 14  1  0  0  0
 15 24  1  0  0  0
 15 25  1  0  0  0
 16 26  1  0  0  0
 16 27  1  0  0  0
M  CHG  1  10   1
M  END
> <s_m_source_file>
../2v57_ligand.sdf

> <i_m_source_file_index>
1

> <s_epik_input>
W2NIXTFjKFtOSDJdKVtjSF1bY0hdYyhjMTIpW2NIXWMzYyhuMilbY0hdYyhbTkgyXSlbY0hdW2NIXTM=

> <s_epik_cmdline>
J2VwaWtfYXBwJywgJy1pbWFlJywgJ2xpZ2FuZF9wcm8ubWFlJywgJy1vbWFlJywgJ2xpZ2FuZF9wcmVwLm1hZScsICctbXMnLCAnMScsICctcGgnLCAnNycsICctcGh0JywgJzAuNScsICctbnQn

> <r_epik_Ionization_Penalty>
  0.0375

> <r_epik_Ionization_Penalty_Charging>
  0.0375

> <r_epik_Ionization_Penalty_Neutral>
  0.0000

> <r_epik_State_Penalty>
  0.0308

> <r_epik_Charging_Adjusted_Penalty>
0.068376616894715

> <i_epik_Tot_Q>
1

> <i_epik_Tot_abs_Q>
1

$$$$
