2v5a_ligand
                    3D
 Schrodinger Suite 2020-3.
 39 42  0  0  1  0            999 V2000
    1.7200  -27.6580   24.5340 N   0  0  0  0  0  0
    2.1640  -26.3900   24.6940 C   0  0  0  0  0  0
    1.4840  -25.5340   25.5070 N   0  0  0  0  0  0
    1.8740  -24.2630   25.7090 C   0  0  0  0  0  0
    3.0170  -23.8050   25.0650 C   0  0  0  0  0  0
    3.4930  -22.5100   25.2230 C   0  0  0  0  0  0
    3.2820  -26.0060   24.0340 N   0  0  0  0  0  0
    3.7490  -24.7490   24.1780 C   0  0  0  0  0  0
    4.8620  -24.3520   23.5300 N   0  0  0  0  0  0
    5.3590  -23.0970   23.6510 C   0  0  0  0  0  0
    6.5270  -22.8100   22.9040 N   0  0  0  0  0  0
    6.8340  -21.7940   21.9600 C   0  0  0  0  0  0
    8.1530  -22.0120   21.6090 C   0  0  0  0  0  0
    8.2920  -23.3580   21.7350 C   0  0  0  0  0  0
    7.6640  -23.6770   22.9380 C   0  0  0  0  0  0
    4.6420  -22.1170   24.5370 C   0  0  0  0  0  0
    5.1360  -20.7340   24.7420 C   0  0  0  0  0  0
    4.4470  -19.6250   24.2530 C   0  0  0  0  0  0
    4.9560  -18.3460   24.4780 C   0  0  0  0  0  0
    6.1410  -18.1860   25.1960 C   0  0  0  0  0  0
    6.8260  -19.2920   25.6930 C   0  0  0  0  0  0
    6.3180  -20.5700   25.4700 C   0  0  0  0  0  0
    0.8139  -27.9939   25.0595 H   0  0  0  0  0  0
    2.2651  -28.3530   23.8784 H   0  0  0  0  0  0
    1.3046  -23.6048   26.3652 H   0  0  0  0  0  0
    2.9742  -21.8083   25.8761 H   0  0  0  0  0  0
    6.1643  -21.8854   21.0922 H   0  0  0  0  0  0
    6.6975  -20.8070   22.4261 H   0  0  0  0  0  0
    8.3198  -21.6670   20.5779 H   0  0  0  0  0  0
    8.8111  -21.4558   22.2927 H   0  0  0  0  0  0
    7.8104  -23.8578   20.8816 H   0  0  0  0  0  0
    9.3611  -23.6159   21.7553 H   0  0  0  0  0  0
    8.2752  -23.4456   23.8228 H   0  0  0  0  0  0
    7.3264  -24.7227   22.9889 H   0  0  0  0  0  0
    3.5175  -19.7565   23.6990 H   0  0  0  0  0  0
    4.4286  -17.4731   24.0934 H   0  0  0  0  0  0
    6.5351  -17.1847   25.3700 H   0  0  0  0  0  0
    7.7522  -19.1589   26.2520 H   0  0  0  0  0  0
    6.8419  -21.4414   25.8629 H   0  0  0  0  0  0
  1  2  1  0  0  0
  1 23  1  0  0  0
  1 24  1  0  0  0
  2  3  2  0  0  0
  2  7  1  0  0  0
  3  4  1  0  0  0
  4  5  2  0  0  0
  4 25  1  0  0  0
  5  6  1  0  0  0
  5  8  1  0  0  0
  6 16  2  0  0  0
  6 26  1  0  0  0
  7  8  2  0  0  0
  8  9  1  0  0  0
  9 10  2  0  0  0
 10 11  1  0  0  0
 10 16  1  0  0  0
 11 12  1  0  0  0
 11 15  1  0  0  0
 12 13  1  0  0  0
 12 27  1  0  0  0
 12 28  1  0  0  0
 13 14  1  0  0  0
 13 29  1  0  0  0
 13 30  1  0  0  0
 14 15  1  0  0  0
 14 31  1  0  0  0
 14 32  1  0  0  0
 15 33  1  0  0  0
 15 34  1  0  0  0
 16 17  1  0  0  0
 17 18  2  0  0  0
 17 22  1  0  0  0
 18 19  1  0  0  0
 18 35  1  0  0  0
 19 20  2  0  0  0
 19 36  1  0  0  0
 20 21  1  0  0  0
 20 37  1  0  0  0
 21 22  2  0  0  0
 21 38  1  0  0  0
 22 39  1  0  0  0
M  END
> <s_m_source_file>
../2v5a_ligand.sdf

> <i_m_source_file_index>
1

> <s_epik_input>
W2NIXTFuYyhbTkgyXSluYyhjMTIpbmMoTjNbQ0gyXVtDSDJdW0NIMl1bQ0gyXTMpYyhbY0hdMiktYzRbY0hdW2NIXVtjSF1bY0hdW2NIXTQ=

> <s_epik_cmdline>
J2VwaWtfYXBwJywgJy1pbWFlJywgJ2xpZ2FuZF9wcm8ubWFlJywgJy1vbWFlJywgJ2xpZ2FuZF9wcmVwLm1hZScsICctbXMnLCAnMScsICctcGgnLCAnNycsICctcGh0JywgJzAuNScsICctbnQn

> <r_epik_Ionization_Penalty>
  0.0231

> <r_epik_Ionization_Penalty_Charging>
  0.0000

> <r_epik_Ionization_Penalty_Neutral>
  0.0231

> <r_epik_State_Penalty>
  0.0161

> <r_epik_Charging_Adjusted_Penalty>
0.0161241892576422

> <i_epik_Tot_Q>
0

> <i_epik_Tot_abs_Q>
0

$$$$
