2v5x_ligand
                    3D
 Schrodinger Suite 2020-3.
 85 89  0  0  1  0            999 V2000
   12.8710   10.8500   52.5410 C   0  0  0  0  0  0
   13.3400   11.1680   51.0980 C   0  0  0  0  0  0
   13.7750   12.3620   50.6780 N   0  0  0  0  0  0
   14.1020   12.2680   49.3900 C   0  0  0  0  0  0
   14.6020   13.2090   48.4780 C   0  0  0  0  0  0
   14.8600   12.8110   47.1600 C   0  0  0  0  0  0
   14.6240   11.4860   46.7570 C   0  0  0  0  0  0
   14.8820   11.0600   45.4830 O   0  0  0  0  0  0
   14.0240   11.6760   44.5110 C   0  0  0  0  0  0
   14.1310   10.5550   47.6720 C   0  0  0  0  0  0
   13.8690   10.9480   48.9830 C   0  0  0  0  0  0
   13.3930   10.2400   50.0720 C   0  0  0  0  0  0
   13.0080    8.7490   50.1170 C   0  0  0  0  0  0
   14.2620    7.8750   49.9790 C   0  0  0  0  0  0
   14.6390    7.4580   48.8820 O   0  0  0  0  0  0
   14.8500    7.6470   51.1510 N   0  0  0  0  0  0
   16.0760    6.8570   51.4960 C   0  0  2  0  0  0
   17.3990    7.5650   51.1300 C   0  0  0  0  0  0
   18.6020    6.6210   51.3370 C   0  0  0  0  0  0
   19.7730    7.2020   52.1240 C   0  0  0  0  0  0
   21.0910    6.4620   51.8400 C   0  0  0  0  0  0
   22.2620    7.0480   52.6290 C   0  0  0  0  0  0
   23.6310    6.8460   51.9410 C   0  0  0  0  0  0
   24.1670    5.7340   51.8260 O   0  0  0  0  0  0
   24.1910    7.9640   51.5220 N   0  0  0  0  0  0
   25.4090    7.9740   50.9050 O   0  0  0  0  0  0
   16.1010    5.3230   51.1720 C   0  0  0  0  0  0
   16.6290    4.8140   50.1810 O   0  0  0  0  0  0
   15.5710    4.5850   52.1180 N   0  0  0  0  0  0
   15.5330    3.1120   52.0510 C   0  0  0  0  0  0
   15.0790    2.4370   50.7300 C   0  0  0  0  0  0
   15.1580    0.9330   51.0480 C   0  0  0  0  0  0
   14.5320    0.4030   52.1720 C   0  0  0  0  0  0
   13.7410    1.0020   53.1640 C   0  0  0  0  0  0
   13.2170    0.2430   54.1990 C   0  0  0  0  0  0
   13.5100   -1.1140   54.2040 C   0  0  0  0  0  0
   14.2970   -1.7110   53.2160 C   0  0  0  0  0  0
   14.8160   -0.9550   52.1810 C   0  0  0  0  0  0
   15.5920   -1.2490   51.1220 N   0  0  0  0  0  0
   15.8540   -0.1240   50.4250 C   0  0  0  0  0  0
   16.5460    0.0000   49.2030 C   0  0  0  0  0  0
   16.6150   -1.1090   48.3580 C   0  0  0  0  0  0
   17.2180   -1.0330   47.1050 C   0  0  0  0  0  0
   17.7480    0.1730   46.6570 C   0  0  0  0  0  0
   17.6610    1.2980   47.4770 C   0  0  0  0  0  0
   17.0480    1.2130   48.7320 C   0  0  0  0  0  0
   12.9262   11.7618   53.1538 H   0  0  0  0  0  0
   13.5209   10.0762   52.9756 H   0  0  0  0  0  0
   11.8331   10.4864   52.5174 H   0  0  0  0  0  0
   14.7865   14.2441   48.8013 H   0  0  0  0  0  0
   15.2501   13.5441   46.4386 H   0  0  0  0  0  0
   14.2748   11.2982   43.5088 H   0  0  0  0  0  0
   14.1639   12.7668   44.5373 H   0  0  0  0  0  0
   12.9759   11.4350   44.7420 H   0  0  0  0  0  0
   13.9517    9.5253   47.3628 H   0  0  0  0  0  0
   12.5167    8.5260   51.0756 H   0  0  0  0  0  0
   12.3184    8.5232   49.2903 H   0  0  0  0  0  0
   14.2823    8.1557   51.9440 H   0  0  0  0  0  0
   15.9473    6.8950   52.5878 H   0  0  0  0  0  0
   17.3693    7.8750   50.0750 H   0  0  0  0  0  0
   17.5298    8.4509   51.7689 H   0  0  0  0  0  0
   18.2754    5.7261   51.8870 H   0  0  0  0  0  0
   19.0066    6.3227   50.3586 H   0  0  0  0  0  0
   19.9099    8.2588   51.8510 H   0  0  0  0  0  0
   19.5646    7.1256   53.2014 H   0  0  0  0  0  0
   20.9850    5.4036   52.1203 H   0  0  0  0  0  0
   21.3293    6.5355   50.7686 H   0  0  0  0  0  0
   22.1136    8.1306   52.7557 H   0  0  0  0  0  0
   22.3157    6.5672   53.6169 H   0  0  0  0  0  0
   23.6478    8.9070   51.6820 H   0  0  0  0  0  0
   25.8470    8.9251   50.5680 H   0  0  0  0  0  0
   15.1437    5.1073   52.9867 H   0  0  0  0  0  0
   16.5400    2.7104   52.2371 H   0  0  0  0  0  0
   14.8386    2.7281   52.8128 H   0  0  0  0  0  0
   14.0561    2.7598   50.4860 H   0  0  0  0  0  0
   15.7594    2.7288   49.9164 H   0  0  0  0  0  0
   13.5376    2.0820   53.1163 H   0  0  0  0  0  0
   12.5974    0.7206   54.9723 H   0  0  0  0  0  0
   13.1123   -1.7352   55.0065 H   0  0  0  0  0  0
   14.5028   -2.7904   53.2656 H   0  0  0  0  0  0
   16.1871   -2.0562   48.6865 H   0  0  0  0  0  0
   17.2749   -1.9200   46.4740 H   0  0  0  0  0  0
   18.2246    0.2377   45.6788 H   0  0  0  0  0  0
   18.0728    2.2487   47.1383 H   0  0  0  0  0  0
   16.9617    2.1068   49.3498 H   0  0  0  0  0  0
  1  2  1  0  0  0
  1 47  1  0  0  0
  1 48  1  0  0  0
  1 49  1  0  0  0
  2  3  2  0  0  0
  2 12  1  0  0  0
  3  4  1  0  0  0
  4  5  2  0  0  0
  4 11  1  0  0  0
  5  6  1  0  0  0
  5 50  1  0  0  0
  6  7  2  0  0  0
  6 51  1  0  0  0
  7  8  1  0  0  0
  7 10  1  0  0  0
  8  9  1  0  0  0
  9 52  1  0  0  0
  9 53  1  0  0  0
  9 54  1  0  0  0
 10 11  1  0  0  0
 10 55  1  0  0  0
 11 12  2  0  0  0
 12 13  1  0  0  0
 13 14  1  0  0  0
 13 56  1  0  0  0
 13 57  1  0  0  0
 14 15  2  0  0  0
 14 16  1  0  0  0
 16 17  1  0  0  0
 16 58  1  0  0  0
 17 18  1  0  0  0
 17 27  1  0  0  0
 17 59  1  0  0  0
 18 19  1  0  0  0
 18 60  1  0  0  0
 18 61  1  0  0  0
 19 20  1  0  0  0
 19 62  1  0  0  0
 19 63  1  0  0  0
 20 21  1  0  0  0
 20 64  1  0  0  0
 20 65  1  0  0  0
 21 22  1  0  0  0
 21 66  1  0  0  0
 21 67  1  0  0  0
 22 23  1  0  0  0
 22 68  1  0  0  0
 22 69  1  0  0  0
 23 24  2  0  0  0
 23 25  1  0  0  0
 25 26  1  0  0  0
 25 70  1  0  0  0
 26 71  1  0  0  0
 27 28  2  0  0  0
 27 29  1  0  0  0
 29 30  1  0  0  0
 29 72  1  0  0  0
 30 31  1  0  0  0
 30 73  1  0  0  0
 30 74  1  0  0  0
 31 32  1  0  0  0
 31 75  1  0  0  0
 31 76  1  0  0  0
 32 33  2  0  0  0
 32 40  1  0  0  0
 33 34  1  0  0  0
 33 38  1  0  0  0
 34 35  2  0  0  0
 34 77  1  0  0  0
 35 36  1  0  0  0
 35 78  1  0  0  0
 36 37  1  0  0  0
 36 79  1  0  0  0
 37 38  2  0  0  0
 37 80  1  0  0  0
 38 39  1  0  0  0
 39 40  2  0  0  0
 40 41  1  0  0  0
 41 42  2  0  0  0
 41 46  1  0  0  0
 42 43  1  0  0  0
 42 81  1  0  0  0
 43 44  2  0  0  0
 43 82  1  0  0  0
 44 45  1  0  0  0
 44 83  1  0  0  0
 45 46  2  0  0  0
 45 84  1  0  0  0
 46 85  1  0  0  0
M  END
> <s_m_source_file>
../2v5x_ligand.sdf

> <i_m_source_file_index>
1

> <s_epik_input>
W0NIXTFbQ0hdPUMoT1tDSDNdKVtDSDJdQyhDPTEyKT1DKEMoPU4yKVtDSDNdKVtDSDJdQyg9TylbTkhdW0NASF0oW0NIMl1bQ0gyXVtDSDJdW0NIMl1bQ0gyXUMoPU8pW05IXVtPSF0pQyg9TylbTkhdW0NIMl1bQ0gyXUM9M0MoPU5DKEMzNCk9W0NIXVtDSDJdW0NIXT1bQ0hdNCljNVtjSF1bY0hdW2NIXVtjSF1bY0hdNQ==

> <s_epik_cmdline>
J2VwaWtfYXBwJywgJy1pbWFlJywgJ2xpZ2FuZF9wcm8ubWFlJywgJy1vbWFlJywgJ2xpZ2FuZF9wcmVwLm1hZScsICctbXMnLCAnMScsICctcGgnLCAnNycsICctcGh0JywgJzAuNScsICctbnQn

> <r_lp_tautomer_probability>
1

> <r_epik_Ionization_Penalty>
  0.0037

> <r_epik_Ionization_Penalty_Charging>
  0.0000

> <r_epik_Ionization_Penalty_Neutral>
  0.0037

> <r_epik_State_Penalty>
 -0.0000

> <r_epik_Charging_Adjusted_Penalty>
0

> <i_epik_Tot_Q>
0

> <i_epik_Tot_abs_Q>
0

> <s_epik_Chemistry_Notes>
This compound has an imine and may undergo hydrolysis. This compound has a N-S or N-O group and may undergo hydrolysis at high or low pH.

$$$$
