2v6n_ligand
                    3D
 Schrodinger Suite 2020-3.
 22 22  0  0  1  0            999 V2000
  -19.2470  -40.3620  -20.4190 C   0  0  0  0  0  0
  -18.6060  -41.2770  -19.4380 N   0  0  0  0  0  0
  -18.8750  -41.0490  -18.0070 C   0  0  0  0  0  0
  -17.7690  -42.3060  -19.7860 C   0  0  0  0  0  0
  -17.4520  -42.5650  -21.1180 C   0  0  0  0  0  0
  -16.5990  -43.6260  -21.4510 C   0  0  0  0  0  0
  -16.0400  -44.4240  -20.4350 C   0  0  0  0  0  0
  -15.1010  -45.5650  -20.8110 C   0  0  0  0  0  0
  -14.6400  -46.3000  -19.9350 O   0  0  0  0  0  0
  -16.3300  -44.1800  -19.0840 C   0  0  0  0  0  0
  -17.2040  -43.1270  -18.7800 C   0  0  0  0  0  0
  -19.8673  -39.6276  -19.8843 H   0  0  0  0  0  0
  -19.8786  -40.9448  -21.1056 H   0  0  0  0  0  0
  -18.4693  -39.8367  -20.9928 H   0  0  0  0  0  0
  -19.5589  -40.1949  -17.8940 H   0  0  0  0  0  0
  -17.9304  -40.8338  -17.4861 H   0  0  0  0  0  0
  -19.3365  -41.9482  -17.5729 H   0  0  0  0  0  0
  -17.8701  -41.9385  -21.9059 H   0  0  0  0  0  0
  -16.3686  -43.8331  -22.4960 H   0  0  0  0  0  0
  -14.8350  -45.7320  -21.8652 H   0  0  0  0  0  0
  -15.8894  -44.7902  -18.2955 H   0  0  0  0  0  0
  -17.4564  -42.9343  -17.7373 H   0  0  0  0  0  0
  1  2  1  0  0  0
  1 12  1  0  0  0
  1 13  1  0  0  0
  1 14  1  0  0  0
  2  3  1  0  0  0
  2  4  1  0  0  0
  3 15  1  0  0  0
  3 16  1  0  0  0
  3 17  1  0  0  0
  4  5  2  0  0  0
  4 11  1  0  0  0
  5  6  1  0  0  0
  5 18  1  0  0  0
  6  7  2  0  0  0
  6 19  1  0  0  0
  7  8  1  0  0  0
  7 10  1  0  0  0
  8  9  2  0  0  0
  8 20  1  0  0  0
 10 11  2  0  0  0
 10 21  1  0  0  0
 11 22  1  0  0  0
M  END
> <s_m_source_file>
../2v6n_ligand.sdf

> <i_m_source_file_index>
1

> <s_epik_input>
W0NIM11OKFtDSDNdKWMxW2NIXVtjSF1jKFtDSF09TylbY0hdW2NIXTE=

> <s_epik_cmdline>
J2VwaWtfYXBwJywgJy1pbWFlJywgJ2xpZ2FuZF9wcm8ubWFlJywgJy1vbWFlJywgJ2xpZ2FuZF9wcmVwLm1hZScsICctbXMnLCAnMScsICctcGgnLCAnNycsICctcGh0JywgJzAuNScsICctbnQn

> <r_lp_tautomer_probability>
1

> <r_epik_Ionization_Penalty>
  0.0000

> <r_epik_Ionization_Penalty_Charging>
  0.0000

> <r_epik_Ionization_Penalty_Neutral>
  0.0000

> <r_epik_State_Penalty>
 -0.0000

> <r_epik_Charging_Adjusted_Penalty>
0

> <i_epik_Tot_Q>
0

> <i_epik_Tot_abs_Q>
0

$$$$
