2v77_ligand
                    3D
 Schrodinger Suite 2020-3.
 34 33  0  0  1  0            999 V2000
  115.0920   41.3610   43.7370 O   0  5  0  0  0  0
  114.1920   43.3080   44.2840 O   0  0  0  0  0  0
  115.1260   42.4690   44.3390 C   0  0  0  0  0  0
  116.3410   42.8290   45.1670 C   0  0  0  0  0  0
  116.7840   41.6810   46.1300 C   0  0  0  0  0  0
  115.8290   41.4420   47.3460 C   0  0  1  0  0  0
  116.1300   40.1030   48.0050 C   0  0  0  0  0  0
  116.8650   40.0480   49.0260 O   0  0  0  0  0  0
  115.6020   39.0830   47.4850 O   0  5  0  0  0  0
  115.8490   42.6700   48.3550 C   0  0  0  0  0  0
  114.9670   42.5080   49.6410 C   0  0  2  0  0  0
  113.5710   42.0430   49.3000 C   0  0  0  0  0  0
  112.7300   42.8520   48.8230 O   0  0  0  0  0  0
  113.3210   40.8160   49.5010 O   0  5  0  0  0  0
  115.0040   43.8260   50.5140 C   0  0  0  0  0  0
  114.0620   43.8150   51.7720 C   0  0  2  0  0  0
  114.0210   45.2180   52.4390 C   0  0  0  0  0  0
  114.5170   42.8040   52.8150 C   0  0  0  0  0  0
  115.4500   43.1130   53.6070 O   0  5  0  0  0  0
  113.9350   41.6880   52.8510 O   0  0  0  0  0  0
  117.1868   43.0509   44.4997 H   0  0  0  0  0  0
  116.1170   43.7134   45.7815 H   0  0  0  0  0  0
  116.8326   40.7336   45.5732 H   0  0  0  0  0  0
  117.7756   41.9132   46.5457 H   0  0  0  0  0  0
  114.7967   41.3385   46.9803 H   0  0  0  0  0  0
  116.8776   42.8393   48.7061 H   0  0  0  0  0  0
  115.4835   43.5719   47.8422 H   0  0  0  0  0  0
  115.3553   41.6818   50.2547 H   0  0  0  0  0  0
  116.0258   43.9904   50.8866 H   0  0  0  0  0  0
  114.6963   44.6832   49.8971 H   0  0  0  0  0  0
  113.0576   43.5165   51.4372 H   0  0  0  0  0  0
  113.6939   45.9654   51.7011 H   0  0  0  0  0  0
  115.0248   45.4793   52.8053 H   0  0  0  0  0  0
  113.3153   45.2024   53.2827 H   0  0  0  0  0  0
  1  3  1  0  0  0
  2  3  2  0  0  0
  3  4  1  0  0  0
  4  5  1  0  0  0
  4 21  1  0  0  0
  4 22  1  0  0  0
  5  6  1  0  0  0
  5 23  1  0  0  0
  5 24  1  0  0  0
  6  7  1  0  0  0
  6 10  1  0  0  0
  6 25  1  0  0  0
  7  8  2  0  0  0
  7  9  1  0  0  0
 10 11  1  0  0  0
 10 26  1  0  0  0
 10 27  1  0  0  0
 11 12  1  0  0  0
 11 15  1  0  0  0
 11 28  1  0  0  0
 12 13  2  0  0  0
 12 14  1  0  0  0
 15 16  1  0  0  0
 15 29  1  0  0  0
 15 30  1  0  0  0
 16 17  1  0  0  0
 16 18  1  0  0  0
 16 31  1  0  0  0
 17 32  1  0  0  0
 17 33  1  0  0  0
 17 34  1  0  0  0
 18 19  1  0  0  0
 18 20  2  0  0  0
M  CHG  4   1  -1   9  -1  14  -1  19  -1
M  END
> <s_m_source_file>
../2v77_ligand.sdf

> <i_m_source_file_index>
1

> <s_epik_input>
W09IXUMoPU8pW0NIMl1bQ0gyXVtDQEBIXShDKD1PKVtPSF0pW0NIMl1bQ0BIXShDKD1PKVtPSF0pW0NIMl1bQ0BIXShbQ0gzXSlDKD1PKVtPSF0=

> <s_epik_cmdline>
J2VwaWtfYXBwJywgJy1pbWFlJywgJ2xpZ2FuZF9wcm8ubWFlJywgJy1vbWFlJywgJ2xpZ2FuZF9wcmVwLm1hZScsICctbXMnLCAnMScsICctcGgnLCAnNycsICctcGh0JywgJzAuNScsICctbnQn

> <r_lp_tautomer_probability>
1

> <r_epik_Ionization_Penalty>
  0.0199

> <r_epik_Ionization_Penalty_Charging>
  0.0199

> <r_epik_Ionization_Penalty_Neutral>
  0.0000

> <r_epik_State_Penalty>
 -0.0000

> <r_epik_Charging_Adjusted_Penalty>
0.0198649161672547

> <i_epik_Tot_Q>
-4

> <i_epik_Tot_abs_Q>
4

$$$$
