2v7d_ligand
                    3D
 Schrodinger Suite 2020-3.
109108  0  0  1  0            999 V2000
   25.4590   13.1530   35.7410 N   0  3  0  0  0  0
   26.5500   14.0570   36.2160 C   0  0  2  0  0  0
   26.4410   15.4350   35.5290 C   0  0  0  0  0  0
   25.4970   15.6860   34.7690 O   0  0  0  0  0  0
   27.9200   13.4130   35.9280 C   0  0  0  0  0  0
   28.2960   13.3410   34.4460 C   0  0  0  0  0  0
   29.6800   12.7280   34.2420 C   0  0  0  0  0  0
   30.3620   13.3030   33.0120 C   0  0  0  0  0  0
   30.7720   14.7220   33.2210 N   0  3  0  0  0  0
   27.3970   16.3240   35.8030 N   0  0  0  0  0  0
   27.4050   17.6620   35.2110 C   0  0  2  0  0  0
   27.6890   17.5910   33.7070 C   0  0  0  0  0  0
   28.2490   16.6070   33.2270 O   0  0  0  0  0  0
   28.4550   18.5180   35.9110 C   0  0  0  0  0  0
   28.3090   18.4240   37.3210 O   0  0  0  0  0  0
   27.3140   18.6260   32.9620 N   0  0  0  0  0  0
   27.5250   18.6230   31.5190 C   0  0  2  0  0  0
   28.8760   19.1730   31.1450 C   0  0  0  0  0  0
   29.4990   19.8610   31.9420 O   0  0  0  0  0  0
   26.4530   19.4290   30.8410 C   0  0  0  0  0  0
   29.3140   18.8740   29.9230 N   0  0  0  0  0  0
   30.6040   19.3410   29.4030 C   0  0  1  0  0  0
   31.7690   18.4600   29.9070 C   0  0  1  0  0  0
   32.0310   18.6790   31.3980 C   0  0  0  0  0  0
   31.4610   17.0890   29.6470 O   0  0  0  0  0  0
   32.5610   15.9440   29.9090 P   0  0  0  0  0  0
   32.4160   15.2670   31.2180 O   0  0  0  0  0  0
   32.4340   14.9260   28.6680 O   0  5  0  0  0  0
   33.9910   16.6600   29.7380 O   0  5  0  0  0  0
   30.6150   19.3890   27.8560 C   0  0  0  0  0  0
   29.6950   18.8870   27.2120 O   0  0  0  0  0  0
   31.6480   19.9970   27.2680 N   0  0  0  0  0  0
   31.7590   20.1040   25.8100 C   0  0  2  0  0  0
   31.4260   18.7870   25.1260 C   0  0  0  0  0  0
   31.4770   17.7330   25.7530 O   0  0  0  0  0  0
   33.1790   20.5330   25.3870 C   0  0  2  0  0  0
   33.4500   21.8390   25.9090 O   0  0  0  0  0  0
   33.3130   20.5670   23.8630 C   0  0  0  0  0  0
   31.1010   18.8420   23.8370 N   0  0  0  0  0  0
   30.7430   17.6290   23.1050 C   0  0  2  0  0  0
   31.2590   17.5310   21.6680 C   0  0  0  0  0  0
   32.1980   16.7860   21.3740 O   0  0  0  0  0  0
   29.2200   17.4650   23.0510 C   0  0  2  0  0  0
   28.6460   18.6280   22.4450 O   0  0  0  0  0  0
   28.6520   17.2940   24.4420 C   0  0  0  0  0  0
   30.6130   18.2650   20.7690 N   0  0  0  0  0  0
   30.9900   18.2490   19.3630 C   0  0  2  0  0  0
   31.5230   19.6250   18.9600 C   0  0  0  0  0  0
   31.6050   20.5020   19.8500 O   0  0  0  0  0  0
   29.7680   17.8630   18.4750 C   0  0  0  0  0  0
   30.2140   17.5260   17.0590 C   0  0  0  0  0  0
   29.0490   16.6760   19.0860 C   0  0  0  0  0  0
   31.8640   19.8050   17.7700 N   0  0  0  0  0  0
   24.4829   13.6160   35.9483 H   0  0  0  0  0  0
   25.5266   12.1891   36.2666 H   0  0  0  0  0  0
   25.5644   12.9885   34.6585 H   0  0  0  0  0  0
   26.4228   14.1842   37.3012 H   0  0  0  0  0  0
   28.7100   13.9927   36.4279 H   0  0  0  0  0  0
   27.9269   12.3806   36.3075 H   0  0  0  0  0  0
   27.5613   12.7214   33.9110 H   0  0  0  0  0  0
   28.3007   14.3548   34.0192 H   0  0  0  0  0  0
   30.3074   12.9384   35.1207 H   0  0  0  0  0  0
   29.5836   11.6399   34.1124 H   0  0  0  0  0  0
   31.2615   12.7131   32.7821 H   0  0  0  0  0  0
   29.6702   13.2648   32.1576 H   0  0  0  0  0  0
   31.2603   15.1004   32.3109 H   0  0  0  0  0  0
   31.4747   14.7801   34.0653 H   0  0  0  0  0  0
   29.8833   15.3318   33.4409 H   0  0  0  0  0  0
   28.1960   16.0250   36.4974 H   0  0  0  0  0  0
   26.4006   18.0809   35.3716 H   0  0  0  0  0  0
   29.4595   18.1685   35.6303 H   0  0  0  0  0  0
   28.3340   19.5682   35.6071 H   0  0  0  0  0  0
   28.9884   18.9813   37.9827 H   0  0  0  0  0  0
   26.8393   19.4919   33.4466 H   0  0  0  0  0  0
   27.4722   17.5671   31.2152 H   0  0  0  0  0  0
   25.4655   19.0283   31.1134 H   0  0  0  0  0  0
   26.5845   19.3702   29.7505 H   0  0  0  0  0  0
   26.5244   20.4784   31.1629 H   0  0  0  0  0  0
   28.6621   18.2484   29.2956 H   0  0  0  0  0  0
   30.6932   20.3581   29.8122 H   0  0  0  0  0  0
   32.6952   18.6673   29.3510 H   0  0  0  0  0  0
   32.2659   19.7386   31.5772 H   0  0  0  0  0  0
   32.8800   18.0563   31.7164 H   0  0  0  0  0  0
   31.1355   18.3996   31.9725 H   0  0  0  0  0  0
   32.4304   20.4249   27.9120 H   0  0  0  0  0  0
   31.0120   20.8655   25.5414 H   0  0  0  0  0  0
   33.9325   19.8567   25.8168 H   0  0  0  0  0  0
   33.4036   22.0184   26.9933 H   0  0  0  0  0  0
   33.1062   19.5669   23.4544 H   0  0  0  0  0  0
   34.3350   20.8699   23.5915 H   0  0  0  0  0  0
   32.5941   21.2886   23.4477 H   0  0  0  0  0  0
   31.1037   19.8143   23.3225 H   0  0  0  0  0  0
   31.2607   16.8704   23.7104 H   0  0  0  0  0  0
   28.9365   16.6048   22.4267 H   0  0  0  0  0  0
   28.9384   18.9178   21.4250 H   0  0  0  0  0  0
   29.0914   16.4009   24.9102 H   0  0  0  0  0  0
   27.5601   17.1760   24.3802 H   0  0  0  0  0  0
   28.8914   18.1807   25.0473 H   0  0  0  0  0  0
   29.7767   18.8945   21.1070 H   0  0  0  0  0  0
   31.7876   17.4963   19.2770 H   0  0  0  0  0  0
   29.0646   18.7065   18.4135 H   0  0  0  0  0  0
   30.7344   18.3914   16.6228 H   0  0  0  0  0  0
   29.3342   17.2801   16.4462 H   0  0  0  0  0  0
   30.8956   16.6630   17.0849 H   0  0  0  0  0  0
   28.7301   16.9271   20.1084 H   0  0  0  0  0  0
   29.7284   15.8114   19.1158 H   0  0  0  0  0  0
   28.1670   16.4285   18.4771 H   0  0  0  0  0  0
   31.7644   18.9884   17.0398 H   0  0  0  0  0  0
   32.2635   20.7799   17.4538 H   0  0  0  0  0  0
  1  2  1  0  0  0
  1 54  1  0  0  0
  1 55  1  0  0  0
  1 56  1  0  0  0
  2  3  1  0  0  0
  2  5  1  0  0  0
  2 57  1  0  0  0
  3  4  2  0  0  0
  3 10  1  0  0  0
  5  6  1  0  0  0
  5 58  1  0  0  0
  5 59  1  0  0  0
  6  7  1  0  0  0
  6 60  1  0  0  0
  6 61  1  0  0  0
  7  8  1  0  0  0
  7 62  1  0  0  0
  7 63  1  0  0  0
  8  9  1  0  0  0
  8 64  1  0  0  0
  8 65  1  0  0  0
  9 66  1  0  0  0
  9 67  1  0  0  0
  9 68  1  0  0  0
 10 11  1  0  0  0
 10 69  1  0  0  0
 11 12  1  0  0  0
 11 14  1  0  0  0
 11 70  1  0  0  0
 12 13  2  0  0  0
 12 16  1  0  0  0
 14 15  1  0  0  0
 14 71  1  0  0  0
 14 72  1  0  0  0
 15 73  1  0  0  0
 16 17  1  0  0  0
 16 74  1  0  0  0
 17 18  1  0  0  0
 17 20  1  0  0  0
 17 75  1  0  0  0
 18 19  2  0  0  0
 18 21  1  0  0  0
 20 76  1  0  0  0
 20 77  1  0  0  0
 20 78  1  0  0  0
 21 22  1  0  0  0
 21 79  1  0  0  0
 22 23  1  0  0  0
 22 30  1  0  0  0
 22 80  1  0  0  0
 23 24  1  0  0  0
 23 25  1  0  0  0
 23 81  1  0  0  0
 24 82  1  0  0  0
 24 83  1  0  0  0
 24 84  1  0  0  0
 25 26  1  0  0  0
 26 27  2  0  0  0
 26 28  1  0  0  0
 26 29  1  0  0  0
 30 31  2  0  0  0
 30 32  1  0  0  0
 32 33  1  0  0  0
 32 85  1  0  0  0
 33 34  1  0  0  0
 33 36  1  0  0  0
 33 86  1  0  0  0
 34 35  2  0  0  0
 34 39  1  0  0  0
 36 37  1  0  0  0
 36 38  1  0  0  0
 36 87  1  0  0  0
 37 88  1  0  0  0
 38 89  1  0  0  0
 38 90  1  0  0  0
 38 91  1  0  0  0
 39 40  1  0  0  0
 39 92  1  0  0  0
 40 41  1  0  0  0
 40 43  1  0  0  0
 40 93  1  0  0  0
 41 42  2  0  0  0
 41 46  1  0  0  0
 43 44  1  0  0  0
 43 45  1  0  0  0
 43 94  1  0  0  0
 44 95  1  0  0  0
 45 96  1  0  0  0
 45 97  1  0  0  0
 45 98  1  0  0  0
 46 47  1  0  0  0
 46 99  1  0  0  0
 47 48  1  0  0  0
 47 50  1  0  0  0
 47100  1  0  0  0
 48 49  2  0  0  0
 48 53  1  0  0  0
 50 51  1  0  0  0
 50 52  1  0  0  0
 50101  1  0  0  0
 51102  1  0  0  0
 51103  1  0  0  0
 51104  1  0  0  0
 52105  1  0  0  0
 52106  1  0  0  0
 52107  1  0  0  0
 53108  1  0  0  0
 53109  1  0  0  0
M  CHG  4   1   1   9   1  28  -1  29  -1
M  END
> <s_m_source_file>
../2v7d_ligand.sdf

> <i_m_source_file_index>
1

> <s_epik_input>
W05IMytdW0NIMl1bQ0gyXVtDSDJdW0NIMl1bQ0BIXShbTkgzK10pQyg9TylbTkhdW0NAQEhdKFtDSDJdW09IXSlDKD1PKVtOSF1bQ0BASF0oW0NIM10pQyg9TylbTkhdW0NAQEhdKFtDQEBIXShbQ0gzXSlPUCg9TykoW09IXSlbT0hdKUMoPU8pW05IXVtDQEBIXShbQ0BIXShbT0hdKVtDSDNdKUMoPU8pW05IXVtDQEBIXShbQ0BIXShbT0hdKVtDSDNdKUMoPU8pW05IXVtDQEhdKEMoPU8pW05IMl0pW0NIXShbQ0gzXSlbQ0gzXQ==

> <s_epik_cmdline>
J2VwaWtfYXBwJywgJy1pbWFlJywgJ2xpZ2FuZF9wcm8ubWFlJywgJy1vbWFlJywgJ2xpZ2FuZF9wcmVwLm1hZScsICctbXMnLCAnMScsICctcGgnLCAnNycsICctcGh0JywgJzAuNScsICctbnQn

> <r_lp_tautomer_probability>
1

> <r_epik_Ionization_Penalty>
  0.2194

> <r_epik_Ionization_Penalty_Charging>
  0.2194

> <r_epik_Ionization_Penalty_Neutral>
  0.0000

> <r_epik_State_Penalty>
 -0.0000

> <r_epik_Charging_Adjusted_Penalty>
0.219402900907613

> <i_epik_Tot_Q>
0

> <i_epik_Tot_abs_Q>
4

$$$$
