2v83_ligand
                    3D
 Schrodinger Suite 2020-3.
168167  0  0  1  0            999 V2000
   13.4280   20.1910   34.9820 N   0  3  0  0  0  0
   12.6600   19.5020   33.8980 C   0  0  2  0  0  0
   12.4510   18.0410   34.2770 C   0  0  0  0  0  0
   13.2900   17.4350   34.9490 O   0  0  0  0  0  0
   13.4200   19.5920   32.5790 C   0  0  0  0  0  0
   11.3280   17.4680   33.8720 N   0  0  0  0  0  0
   11.0970   16.0740   34.1940 C   0  0  2  0  0  0
   11.7860   15.1920   33.1700 C   0  0  0  0  0  0
   11.7760   15.4760   31.9640 O   0  0  0  0  0  0
    9.6050   15.7810   34.2770 C   0  0  0  0  0  0
    8.9790   16.3000   35.5770 C   0  0  0  0  0  0
    9.7500   15.8120   36.8190 C   0  0  0  0  0  0
    8.9350   15.8860   38.0320 N   0  0  0  0  0  0
    8.6590   14.8460   38.8180 C   0  0  0  0  0  0
    9.1360   13.6400   38.5270 N   0  0  0  0  0  0
    7.8880   15.0050   39.8890 N   0  0  0  0  0  0
   12.4080   14.1290   33.6660 N   0  0  0  0  0  0
   13.1540   13.2160   32.8160 C   0  0  2  0  0  0
   12.8240   11.7630   33.1070 C   0  0  0  0  0  0
   12.1030   11.4520   34.0490 O   0  0  0  0  0  0
   14.6680   13.4160   33.0310 C   0  0  2  0  0  0
   14.9820   13.1580   34.4040 O   0  0  0  0  0  0
   15.0790   14.8530   32.7060 C   0  0  0  0  0  0
   13.3650   10.8810   32.2780 N   0  0  0  0  0  0
   13.1850    9.4440   32.4240 C   0  0  1  0  0  0
   12.2690    8.8850   31.3250 C   0  0  0  0  0  0
   10.8130    9.2970   31.4180 C   0  0  0  0  0  0
    9.9990    8.6780   30.2890 C   0  0  0  0  0  0
    8.5230    9.0900   30.3750 C   0  0  0  0  0  0
    7.5980    8.5330   29.3230 N   0  3  0  0  0  0
   14.5590    8.7930   32.3040 C   0  0  0  0  0  0
   15.4200    9.2610   31.5550 O   0  0  0  0  0  0
    7.6610    7.0340   29.3180 C   0  0  0  0  0  0
    6.2080    8.9660   29.6940 C   0  0  0  0  0  0
    7.9470    9.0370   27.9570 C   0  0  0  0  0  0
   14.7590    7.7160   33.0500 N   0  0  0  0  0  0
   16.0150    6.9860   33.0220 C   0  0  2  0  0  0
   17.2280    7.8600   33.3460 C   0  0  0  0  0  0
   18.3090    7.6620   32.8020 O   0  0  0  0  0  0
   16.1990    6.3340   31.6530 C   0  0  0  0  0  0
   15.0170    5.5030   31.2020 C   0  0  0  0  0  0
   14.6480    4.4000   32.1810 C   0  0  0  0  0  0
   15.4810    3.5670   32.5450 O   0  0  0  0  0  0
   13.3880    4.3820   32.6010 N   0  0  0  0  0  0
   17.0420    8.8310   34.2300 N   0  0  0  0  0  0
   18.1360    9.7010   34.6350 C   0  0  2  0  0  0
   18.5390    9.3250   36.0450 C   0  0  0  0  0  0
   19.4590    9.9060   36.6190 O   0  0  0  0  0  0
   17.7310   11.1770   34.6230 C   0  0  2  0  0  0
   16.3980   11.3140   35.1250 O   0  0  0  0  0  0
   17.8140   11.7290   33.2240 C   0  0  0  0  0  0
   17.8260    8.3520   36.6040 N   0  0  0  0  0  0
   18.1250    7.8860   37.9430 C   0  0  2  0  0  0
   19.4640    7.1680   37.9310 C   0  0  0  0  0  0
   19.7810    6.3680   37.0500 O   0  0  0  0  0  0
   17.0250    6.9610   38.4650 C   0  0  0  0  0  0
   20.2340    7.5190   38.9410 N   0  0  0  0  0  0
   21.5680    7.0450   39.2530 C   0  0  2  0  0  0
   21.5860    5.5850   39.7160 C   0  0  0  0  0  0
   21.0400    5.2700   40.7730 O   0  0  0  0  0  0
   22.0210    7.9130   40.3910 C   0  0  0  0  0  0
   20.7950    8.1950   41.2680 C   0  0  0  0  0  0
   20.3680    9.6220   41.1340 C   0  0  0  0  0  0
   21.3310   10.4010   41.8900 N   0  0  0  0  0  0
   21.7110   11.6390   41.6070 C   0  0  0  0  0  0
   22.6080   12.2290   42.3860 N   0  0  0  0  0  0
   21.2060   12.2820   40.5600 N   0  0  0  0  0  0
   22.2240    4.6980   38.9570 N   0  0  0  0  0  0
   22.3000    3.2920   39.3590 C   0  0  2  0  0  0
   23.4550    3.0840   40.3400 C   0  0  0  0  0  0
   24.4740    3.8020   40.2100 O   0  0  0  0  0  0
   22.4940    2.3930   38.1330 C   0  0  0  0  0  0
   23.2470    3.0680   36.9900 C   0  0  0  0  0  0
   24.2790    2.1440   36.3510 C   0  0  0  0  0  0
   23.7210    1.3620   35.1740 C   0  0  0  0  0  0
   23.7540    2.0990   33.8730 N   0  3  0  0  0  0
   23.3300    2.2000   41.2170 O   0  0  0  0  0  0
   12.8711   20.1199   35.9279 H   0  0  0  0  0  0
   13.5670   21.2495   34.7169 H   0  0  0  0  0  0
   14.4104   19.7100   35.0979 H   0  0  0  0  0  0
   11.6875   20.0049   33.7918 H   0  0  0  0  0  0
   13.5671   20.6489   32.3120 H   0  0  0  0  0  0
   12.8425   19.0909   31.7882 H   0  0  0  0  0  0
   14.3986   19.1011   32.6855 H   0  0  0  0  0  0
   10.5766   18.0322   33.3001 H   0  0  0  0  0  0
   11.5453   15.9024   35.1838 H   0  0  0  0  0  0
    9.0889   16.2648   33.4346 H   0  0  0  0  0  0
    9.4417   14.6941   34.2316 H   0  0  0  0  0  0
    8.9887   17.4000   35.5750 H   0  0  0  0  0  0
    7.9414   15.9426   35.6525 H   0  0  0  0  0  0
   10.0556   14.7654   36.6730 H   0  0  0  0  0  0
   10.6428   16.4376   36.9656 H   0  0  0  0  0  0
    8.5046   16.8478   38.3476 H   0  0  0  0  0  0
    9.7748   13.4999   37.6425 H   0  0  0  0  0  0
    7.4892   15.9998   40.1368 H   0  0  0  0  0  0
    7.6487   14.1418   40.5275 H   0  0  0  0  0  0
   12.3485   13.9474   34.7493 H   0  0  0  0  0  0
   12.8251   13.4713   31.7978 H   0  0  0  0  0  0
   15.2434   12.7020   32.4235 H   0  0  0  0  0  0
   14.7639   12.1730   34.8424 H   0  0  0  0  0  0
   14.8458   15.0719   31.6535 H   0  0  0  0  0  0
   16.1594   14.9724   32.8747 H   0  0  0  0  0  0
   14.5274   15.5481   33.3561 H   0  0  0  0  0  0
   13.9724   11.2780   31.4513 H   0  0  0  0  0  0
   12.7244    9.2801   33.4094 H   0  0  0  0  0  0
   12.6259    9.2256   30.3418 H   0  0  0  0  0  0
   12.2835    7.7856   31.3596 H   0  0  0  0  0  0
   10.3973    8.9601   32.3791 H   0  0  0  0  0  0
   10.7367   10.3922   31.3492 H   0  0  0  0  0  0
   10.4001    9.0134   29.3212 H   0  0  0  0  0  0
   10.0604    7.5815   30.3512 H   0  0  0  0  0  0
    8.1068    8.7634   31.3394 H   0  0  0  0  0  0
    8.4422   10.1839   30.2924 H   0  0  0  0  0  0
    7.4060    6.6530   30.3179 H   0  0  0  0  0  0
    8.6779    6.7107   29.0507 H   0  0  0  0  0  0
    6.9453    6.6394   28.5817 H   0  0  0  0  0  0
    5.9628    8.5904   30.6984 H   0  0  0  0  0  0
    5.4908    8.5600   28.9655 H   0  0  0  0  0  0
    6.1528   10.0646   29.6898 H   0  0  0  0  0  0
    8.9658    8.7142   27.6963 H   0  0  0  0  0  0
    7.8968   10.1358   27.9477 H   0  0  0  0  0  0
    7.2348    8.6312   27.2234 H   0  0  0  0  0  0
   13.9410    7.3783   33.7034 H   0  0  0  0  0  0
   15.9042    6.2381   33.8210 H   0  0  0  0  0  0
   16.3556    7.1141   30.8934 H   0  0  0  0  0  0
   17.0732    5.6669   31.6791 H   0  0  0  0  0  0
   14.1359    6.1513   31.0863 H   0  0  0  0  0  0
   15.2503    5.0261   30.2386 H   0  0  0  0  0  0
   12.6799    5.1465   32.2488 H   0  0  0  0  0  0
   13.0527    3.6026   33.3011 H   0  0  0  0  0  0
   16.0389    8.9728   34.6587 H   0  0  0  0  0  0
   18.9415    9.5320   33.9052 H   0  0  0  0  0  0
   18.3699   11.7720   35.2921 H   0  0  0  0  0  0
   16.1528   10.9619   36.1379 H   0  0  0  0  0  0
   18.8415   11.6193   32.8469 H   0  0  0  0  0  0
   17.5384   12.7939   33.2331 H   0  0  0  0  0  0
   17.1227   11.1769   32.5704 H   0  0  0  0  0  0
   16.9997    7.8998   36.0360 H   0  0  0  0  0  0
   18.1708    8.7845   38.5759 H   0  0  0  0  0  0
   16.0647    7.4976   38.4663 H   0  0  0  0  0  0
   17.2688    6.6431   39.4895 H   0  0  0  0  0  0
   16.9502    6.0769   37.8148 H   0  0  0  0  0  0
   19.7495    8.2642   39.5891 H   0  0  0  0  0  0
   22.1782    7.1284   38.3416 H   0  0  0  0  0  0
   22.7950    7.3862   40.9684 H   0  0  0  0  0  0
   22.4350    8.8516   39.9940 H   0  0  0  0  0  0
   19.9644    7.5442   40.9573 H   0  0  0  0  0  0
   21.0434    7.9951   42.3208 H   0  0  0  0  0  0
   20.3722    9.9078   40.0718 H   0  0  0  0  0  0
   19.3533    9.7409   41.5416 H   0  0  0  0  0  0
   21.8112    9.9682   42.7800 H   0  0  0  0  0  0
   23.0229   11.6919   43.2517 H   0  0  0  0  0  0
   20.4624   11.7879   39.9174 H   0  0  0  0  0  0
   21.5314   13.3085   40.3357 H   0  0  0  0  0  0
   22.6968    5.0286   38.0204 H   0  0  0  0  0  0
   21.3402    3.0666   39.8468 H   0  0  0  0  0  0
   25.3240    3.6802   40.8975 H   0  0  0  0  0  0
   23.0678    1.4997   38.4205 H   0  0  0  0  0  0
   21.5118    2.0880   37.7428 H   0  0  0  0  0  0
   22.5334    3.3725   36.2102 H   0  0  0  0  0  0
   23.7740    3.9550   37.3714 H   0  0  0  0  0  0
   25.1284    2.7399   35.9858 H   0  0  0  0  0  0
   24.6342    1.4187   37.0979 H   0  0  0  0  0  0
   24.3053    0.4403   35.0361 H   0  0  0  0  0  0
   22.6699    1.1038   35.3705 H   0  0  0  0  0  0
   23.3337    1.4626   33.0803 H   0  0  0  0  0  0
   24.7940    2.3564   33.6237 H   0  0  0  0  0  0
   23.1586    3.0200   33.9581 H   0  0  0  0  0  0
  1  2  1  0  0  0
  1 78  1  0  0  0
  1 79  1  0  0  0
  1 80  1  0  0  0
  2  3  1  0  0  0
  2  5  1  0  0  0
  2 81  1  0  0  0
  3  4  2  0  0  0
  3  6  1  0  0  0
  5 82  1  0  0  0
  5 83  1  0  0  0
  5 84  1  0  0  0
  6  7  1  0  0  0
  6 85  1  0  0  0
  7  8  1  0  0  0
  7 10  1  0  0  0
  7 86  1  0  0  0
  8  9  2  0  0  0
  8 17  1  0  0  0
 10 11  1  0  0  0
 10 87  1  0  0  0
 10 88  1  0  0  0
 11 12  1  0  0  0
 11 89  1  0  0  0
 11 90  1  0  0  0
 12 13  1  0  0  0
 12 91  1  0  0  0
 12 92  1  0  0  0
 13 14  1  0  0  0
 13 93  1  0  0  0
 14 15  2  0  0  0
 14 16  1  0  0  0
 15 94  1  0  0  0
 16 95  1  0  0  0
 16 96  1  0  0  0
 17 18  1  0  0  0
 17 97  1  0  0  0
 18 19  1  0  0  0
 18 21  1  0  0  0
 18 98  1  0  0  0
 19 20  2  0  0  0
 19 24  1  0  0  0
 21 22  1  0  0  0
 21 23  1  0  0  0
 21 99  1  0  0  0
 22100  1  0  0  0
 23101  1  0  0  0
 23102  1  0  0  0
 23103  1  0  0  0
 24 25  1  0  0  0
 24104  1  0  0  0
 25 26  1  0  0  0
 25 31  1  0  0  0
 25105  1  0  0  0
 26 27  1  0  0  0
 26106  1  0  0  0
 26107  1  0  0  0
 27 28  1  0  0  0
 27108  1  0  0  0
 27109  1  0  0  0
 28 29  1  0  0  0
 28110  1  0  0  0
 28111  1  0  0  0
 29 30  1  0  0  0
 29112  1  0  0  0
 29113  1  0  0  0
 30 33  1  0  0  0
 30 34  1  0  0  0
 30 35  1  0  0  0
 31 32  2  0  0  0
 31 36  1  0  0  0
 33114  1  0  0  0
 33115  1  0  0  0
 33116  1  0  0  0
 34117  1  0  0  0
 34118  1  0  0  0
 34119  1  0  0  0
 35120  1  0  0  0
 35121  1  0  0  0
 35122  1  0  0  0
 36 37  1  0  0  0
 36123  1  0  0  0
 37 38  1  0  0  0
 37 40  1  0  0  0
 37124  1  0  0  0
 38 39  2  0  0  0
 38 45  1  0  0  0
 40 41  1  0  0  0
 40125  1  0  0  0
 40126  1  0  0  0
 41 42  1  0  0  0
 41127  1  0  0  0
 41128  1  0  0  0
 42 43  2  0  0  0
 42 44  1  0  0  0
 44129  1  0  0  0
 44130  1  0  0  0
 45 46  1  0  0  0
 45131  1  0  0  0
 46 47  1  0  0  0
 46 49  1  0  0  0
 46132  1  0  0  0
 47 48  2  0  0  0
 47 52  1  0  0  0
 49 50  1  0  0  0
 49 51  1  0  0  0
 49133  1  0  0  0
 50134  1  0  0  0
 51135  1  0  0  0
 51136  1  0  0  0
 51137  1  0  0  0
 52 53  1  0  0  0
 52138  1  0  0  0
 53 54  1  0  0  0
 53 56  1  0  0  0
 53139  1  0  0  0
 54 55  2  0  0  0
 54 57  1  0  0  0
 56140  1  0  0  0
 56141  1  0  0  0
 56142  1  0  0  0
 57 58  1  0  0  0
 57143  1  0  0  0
 58 59  1  0  0  0
 58 61  1  0  0  0
 58144  1  0  0  0
 59 60  2  0  0  0
 59 68  1  0  0  0
 61 62  1  0  0  0
 61145  1  0  0  0
 61146  1  0  0  0
 62 63  1  0  0  0
 62147  1  0  0  0
 62148  1  0  0  0
 63 64  1  0  0  0
 63149  1  0  0  0
 63150  1  0  0  0
 64 65  1  0  0  0
 64151  1  0  0  0
 65 66  2  0  0  0
 65 67  1  0  0  0
 66152  1  0  0  0
 67153  1  0  0  0
 67154  1  0  0  0
 68 69  1  0  0  0
 68155  1  0  0  0
 69 70  1  0  0  0
 69 72  1  0  0  0
 69156  1  0  0  0
 70 71  1  0  0  0
 70 77  2  0  0  0
 71157  1  0  0  0
 72 73  1  0  0  0
 72158  1  0  0  0
 72159  1  0  0  0
 73 74  1  0  0  0
 73160  1  0  0  0
 73161  1  0  0  0
 74 75  1  0  0  0
 74162  1  0  0  0
 74163  1  0  0  0
 75 76  1  0  0  0
 75164  1  0  0  0
 75165  1  0  0  0
 76166  1  0  0  0
 76167  1  0  0  0
 76168  1  0  0  0
M  CHG  3   1   1  30   1  76   1
M  END
> <s_m_source_file>
../2v83_ligand.sdf

> <i_m_source_file_index>
1

> <s_epik_input>
W0hdL049QyhbTkgyXSlcW05IXVtDSDJdW0NIMl1bQ0gyXVtDQEhdKFtOSF1DKD1PKVtDQEBIXShbTkgzK10pW0NIM10pQyg9TylbTkhdW0NAQEhdKFtDQEhdKFtPSF0pW0NIM10pQyg9TylbTkhdW0NAQEhdKFtDSDJdW0NIMl1bQ0gyXVtDSDJdW04rXShbQ0gzXSkoW0NIM10pW0NIM10pQyg9TylbTkhdW0NAQEhdKFtDSDJdW0NIMl1DKD1PKVtOSDJdKUMoPU8pW05IXVtDQEBIXShbQ0BIXShbT0hdKVtDSDNdKUMoPU8pW05IXVtDQEBIXShbQ0gzXSlDKD1PKVtOSF1bQ0BASF0oW0NIMl1bQ0gyXVtDSDJdW05IXS9DKD1OXFtIXSlbTkgyXSlDKD1PKVtOSF1bQ0BIXShDKD1PKVtPSF0pW0NIMl1bQ0gyXVtDSDJdW0NIMl1bTkgzK10=

> <s_epik_cmdline>
J2VwaWtfYXBwJywgJy1pbWFlJywgJ2xpZ2FuZF9wcm8ubWFlJywgJy1vbWFlJywgJ2xpZ2FuZF9wcmVwLm1hZScsICctbXMnLCAnMScsICctcGgnLCAnNycsICctcGh0JywgJzAuNScsICctbnQn

> <s_epik_pKa_notes>
Molecule size exceeds maximum supported for generating protonation states

> <s_epik_Chemistry_Notes>
This compound has an imine and may undergo hydrolysis.

$$$$
