2v85_ligand
                    3D
 Schrodinger Suite 2020-3.
198197  0  0  1  0            999 V2000
  -34.5580   20.9420   34.5050 N   0  3  0  0  0  0
  -35.2380   20.3350   33.3210 C   0  0  2  0  0  0
  -35.5660   18.8660   33.5670 C   0  0  0  0  0  0
  -34.8370   18.1670   34.2610 O   0  0  0  0  0  0
  -34.3480   20.4700   32.0810 C   0  0  0  0  0  0
  -45.2340   19.3220   34.6340 C   0  0  0  0  0  0
  -43.8140   19.0210   34.8140 N   0  0  0  0  0  0
  -43.1060   18.4350   33.8770 C   0  0  0  0  0  0
  -43.6670   18.0860   32.7060 N   0  0  0  0  0  0
  -41.8020   18.1740   34.0820 N   0  0  0  0  0  0
  -40.9040   17.5180   33.1030 C   0  0  0  0  0  0
  -39.4700   17.7040   33.5390 C   0  0  0  0  0  0
  -38.5460   16.8430   32.6990 C   0  0  0  0  0  0
  -37.0970   17.0180   33.1400 C   0  0  1  0  0  0
  -36.1960   16.1400   32.2870 C   0  0  0  0  0  0
  -35.9110   16.4650   31.1460 O   0  0  0  0  0  0
  -36.6810   18.4130   32.9990 N   0  0  0  0  0  0
  -35.7580   15.0190   32.8540 N   0  0  0  0  0  0
  -34.8750   14.1070   32.1340 C   0  0  2  0  0  0
  -35.2070   12.6450   32.4060 C   0  0  0  0  0  0
  -36.0050   12.3350   33.2740 O   0  0  0  0  0  0
  -33.4030   14.3160   32.5500 C   0  0  2  0  0  0
  -33.2630   14.0080   33.9440 O   0  0  0  0  0  0
  -32.9620   15.7550   32.3070 C   0  0  0  0  0  0
  -34.5570   11.7650   31.6470 N   0  0  0  0  0  0
  -34.7030   10.3180   31.7800 C   0  0  1  0  0  0
  -35.5460    9.7390   30.6400 C   0  0  0  0  0  0
  -36.9940   10.1800   30.6290 C   0  0  0  0  0  0
  -37.7490    9.5070   29.4980 C   0  0  0  0  0  0
  -39.2100    9.9570   29.4550 C   0  0  0  0  0  0
  -40.0290    9.3310   28.3580 N   0  3  0  0  0  0
  -33.3190    9.6780   31.7320 C   0  0  0  0  0  0
  -32.4580   10.1150   30.9880 O   0  0  0  0  0  0
  -40.1080    7.8410   28.5570 C   0  0  0  0  0  0
  -41.4060    9.9230   28.4880 C   0  0  0  0  0  0
  -39.4790    9.6120   26.9900 C   0  0  0  0  0  0
  -33.1300    8.6320   32.5310 N   0  0  0  0  0  0
  -31.8650    7.9020   32.5940 C   0  0  2  0  0  0
  -30.6790    8.7860   32.9540 C   0  0  0  0  0  0
  -29.6190    8.6590   32.3730 O   0  0  0  0  0  0
  -31.5850    7.2070   31.2550 C   0  0  0  0  0  0
  -32.6910    6.2720   30.7840 C   0  0  0  0  0  0
  -32.9820    5.1690   31.7790 C   0  0  0  0  0  0
  -32.0800    4.5000   32.2500 O   0  0  0  0  0  0
  -34.2580    4.9710   32.0900 N   0  0  0  0  0  0
  -30.8670    9.6930   33.9040 N   0  0  0  0  0  0
  -29.7740   10.5630   34.3240 C   0  0  2  0  0  0
  -29.3970   10.2410   35.7590 C   0  0  0  0  0  0
  -28.6080   10.9320   36.3700 O   0  0  0  0  0  0
  -30.1390   12.0590   34.2190 C   0  0  2  0  0  0
  -31.4300   12.2800   34.7910 O   0  0  0  0  0  0
  -30.1330   12.5120   32.7700 C   0  0  0  0  0  0
  -29.9850    9.1730   36.2850 N   0  0  0  0  0  0
  -29.6940    8.7510   37.6400 C   0  0  2  0  0  0
  -28.5020    7.8120   37.6240 C   0  0  0  0  0  0
  -28.4200    6.8770   36.8490 O   0  0  0  0  0  0
  -30.9000    8.0660   38.2640 C   0  0  0  0  0  0
  -27.5800    8.1130   38.5160 N   0  0  0  0  0  0
  -26.3410    7.3910   38.7090 C   0  0  2  0  0  0
  -26.6680    5.9760   39.2760 C   0  0  0  0  0  0
  -27.3180    5.8750   40.2990 O   0  0  0  0  0  0
  -25.5230    8.2770   39.6640 C   0  0  0  0  0  0
  -26.1880    9.7160   39.8850 C   0  0  0  0  0  0
  -25.9040   10.7770   38.7590 C   0  0  0  0  0  0
  -27.0620   11.5780   38.3010 N   0  0  0  0  0  0
  -27.4790   12.7410   38.8160 C   0  0  0  0  0  0
  -26.8500   13.2980   39.8420 N   0  0  0  0  0  0
  -28.5280   13.3650   38.2830 N   0  0  0  0  0  0
  -26.2480    4.8960   38.5930 N   0  0  0  0  0  0
  -26.5320    3.5120   39.0500 C   0  0  2  0  0  0
  -25.6510    3.0520   40.2100 C   0  0  0  0  0  0
  -24.4590    3.2960   40.2320 O   0  0  0  0  0  0
  -26.4160    2.4870   37.8900 C   0  0  0  0  0  0
  -26.3380    0.9920   38.3410 C   0  0  0  0  0  0
  -26.4860   -0.0430   37.1900 C   0  0  0  0  0  0
  -26.1640   -1.4760   37.6740 C   0  0  0  0  0  0
  -26.7130   -2.5950   36.8370 N   0  3  0  0  0  0
  -26.2650    2.3500   41.1560 N   0  0  0  0  0  0
  -25.5720    1.8710   42.3490 C   0  0  2  0  0  0
  -24.5210    0.7760   42.1960 C   0  0  0  0  0  0
  -24.7460   -0.2610   41.6140 O   0  0  0  0  0  0
  -26.5910    1.4330   43.3980 C   0  0  0  0  0  0
  -23.3750    1.0720   42.7820 N   0  0  0  0  0  0
  -22.2090    0.2320   42.8590 C   0  0  2  0  0  0
  -21.0260    1.1520   42.8970 C   0  0  0  0  0  0
  -20.3440    1.4800   41.9070 O   0  0  0  0  0  0
  -22.1290   -0.7480   41.7440 C   0  0  0  0  0  0
  -20.9640    1.6150   44.1310 N   0  0  0  0  0  0
  -20.0290    2.5260   44.6950 C   0  0  0  0  0  0
  -20.3720    2.1970   46.1470 C   0  0  0  0  0  0
  -21.5590    1.8860   46.4310 O   0  0  0  0  0  0
  -19.4740    2.2500   47.0190 O   0  0  0  0  0  0
  -35.2032   20.8409   35.3901 H   0  0  0  0  0  0
  -34.3659   22.0076   34.3111 H   0  0  0  0  0  0
  -33.6043   20.4244   34.6854 H   0  0  0  0  0  0
  -36.1792   20.8859   33.1770 H   0  0  0  0  0  0
  -34.1158   21.5316   31.9101 H   0  0  0  0  0  0
  -34.8756   20.0644   31.2051 H   0  0  0  0  0  0
  -33.4137   19.9109   32.2376 H   0  0  0  0  0  0
  -45.6230   19.8100   35.5398 H   0  0  0  0  0  0
  -45.7868   18.3881   34.4544 H   0  0  0  0  0  0
  -45.3600   19.9942   33.7725 H   0  0  0  0  0  0
  -43.3104   19.2868   35.7552 H   0  0  0  0  0  0
  -43.0611   17.5939   31.9309 H   0  0  0  0  0  0
  -41.4125   18.4867   35.0621 H   0  0  0  0  0  0
  -41.1376   16.4442   33.0533 H   0  0  0  0  0  0
  -41.0492   17.9711   32.1112 H   0  0  0  0  0  0
  -39.1841   18.7593   33.4186 H   0  0  0  0  0  0
  -39.3674   17.4146   34.5953 H   0  0  0  0  0  0
  -38.8267   15.7855   32.8122 H   0  0  0  0  0  0
  -38.6335   17.1345   31.6419 H   0  0  0  0  0  0
  -36.9990   16.7640   34.2058 H   0  0  0  0  0  0
  -37.2944   19.1133   32.4132 H   0  0  0  0  0  0
  -36.0715   14.7841   33.8819 H   0  0  0  0  0  0
  -35.0671   14.3619   31.0813 H   0  0  0  0  0  0
  -32.7398   13.6298   32.0029 H   0  0  0  0  0  0
  -33.5336   13.0090   34.3164 H   0  0  0  0  0  0
  -33.0678   15.9955   31.2388 H   0  0  0  0  0  0
  -31.9101   15.8717   32.6067 H   0  0  0  0  0  0
  -33.5900   16.4361   32.9001 H   0  0  0  0  0  0
  -33.8800   12.1819   30.8868 H   0  0  0  0  0  0
  -35.2047   10.1515   32.7447 H   0  0  0  0  0  0
  -35.1160   10.0440   29.6746 H   0  0  0  0  0  0
  -35.5511    8.6412   30.7087 H   0  0  0  0  0  0
  -37.4672    9.9086   31.5842 H   0  0  0  0  0  0
  -37.0442   11.2702   30.4916 H   0  0  0  0  0  0
  -37.2769    9.7637   28.5382 H   0  0  0  0  0  0
  -37.7243    8.4163   29.6386 H   0  0  0  0  0  0
  -39.7011    9.6993   30.4049 H   0  0  0  0  0  0
  -39.2541   11.0455   29.3029 H   0  0  0  0  0  0
  -40.5104    7.6256   29.5578 H   0  0  0  0  0  0
  -39.1024    7.4049   28.4644 H   0  0  0  0  0  0
  -40.7690    7.4037   27.7941 H   0  0  0  0  0  0
  -41.8020    9.7130   29.4925 H   0  0  0  0  0  0
  -42.0694    9.4778   27.7319 H   0  0  0  0  0  0
  -41.3533   11.0110   28.3347 H   0  0  0  0  0  0
  -38.4727    9.1763   26.9028 H   0  0  0  0  0  0
  -39.4226   10.6994   26.8338 H   0  0  0  0  0  0
  -40.1386    9.1662   26.2309 H   0  0  0  0  0  0
  -33.9761    8.3217   33.1618 H   0  0  0  0  0  0
  -32.0225    7.1819   33.4105 H   0  0  0  0  0  0
  -31.4516    7.9651   30.4692 H   0  0  0  0  0  0
  -30.6702    6.6022   31.3400 H   0  0  0  0  0  0
  -33.6175    6.8459   30.6348 H   0  0  0  0  0  0
  -32.3942    5.8017   29.8350 H   0  0  0  0  0  0
  -35.0383    5.6013   31.6385 H   0  0  0  0  0  0
  -34.5344    4.1767   32.7990 H   0  0  0  0  0  0
  -31.8564    9.7860   34.3757 H   0  0  0  0  0  0
  -28.9513   10.3316   33.6314 H   0  0  0  0  0  0
  -29.4436   12.6803   34.8025 H   0  0  0  0  0  0
  -31.6203   12.0097   35.8402 H   0  0  0  0  0  0
  -29.1371   12.3393   32.3360 H   0  0  0  0  0  0
  -30.3738   13.5842   32.7200 H   0  0  0  0  0  0
  -30.8837   11.9408   32.2042 H   0  0  0  0  0  0
  -30.7031    8.6059   35.6746 H   0  0  0  0  0  0
  -29.4623    9.6643   38.2076 H   0  0  0  0  0  0
  -31.7541    8.7592   38.2679 H   0  0  0  0  0  0
  -30.6612    7.7725   39.2969 H   0  0  0  0  0  0
  -31.1569    7.1709   37.6785 H   0  0  0  0  0  0
  -27.8099    8.9880   39.1417 H   0  0  0  0  0  0
  -25.8057    7.2529   37.7580 H   0  0  0  0  0  0
  -25.4459    7.7851   40.6449 H   0  0  0  0  0  0
  -24.5153    8.4294   39.2501 H   0  0  0  0  0  0
  -27.2814    9.6099   39.9408 H   0  0  0  0  0  0
  -25.8137   10.1528   40.8226 H   0  0  0  0  0  0
  -25.1592   11.5024   39.1182 H   0  0  0  0  0  0
  -25.5175   10.2674   37.8641 H   0  0  0  0  0  0
  -27.6741   11.2272   37.4570 H   0  0  0  0  0  0
  -25.9819   12.7954   40.2935 H   0  0  0  0  0  0
  -29.0606   12.9163   37.4316 H   0  0  0  0  0  0
  -28.8617   14.3291   38.6942 H   0  0  0  0  0  0
  -25.6768    5.0634   37.6679 H   0  0  0  0  0  0
  -27.5652    3.5935   39.4186 H   0  0  0  0  0  0
  -27.2946    2.5747   37.2340 H   0  0  0  0  0  0
  -25.5038    2.6911   37.3102 H   0  0  0  0  0  0
  -25.3638    0.8025   38.8154 H   0  0  0  0  0  0
  -27.1431    0.7837   39.0610 H   0  0  0  0  0  0
  -27.5190   -0.0263   36.8125 H   0  0  0  0  0  0
  -25.7935    0.2136   36.3748 H   0  0  0  0  0  0
  -25.0736   -1.6192   37.6961 H   0  0  0  0  0  0
  -26.5736   -1.6225   38.6843 H   0  0  0  0  0  0
  -26.4208   -3.5597   37.2774 H   0  0  0  0  0  0
  -26.3102   -2.5209   35.8161 H   0  0  0  0  0  0
  -27.8102   -2.5242   36.8043 H   0  0  0  0  0  0
  -27.3342    2.1324   41.0164 H   0  0  0  0  0  0
  -25.0035    2.7774   42.6044 H   0  0  0  0  0  0
  -27.3546    2.2159   43.5168 H   0  0  0  0  0  0
  -26.0809    1.2695   44.3588 H   0  0  0  0  0  0
  -27.0717    0.4980   43.0743 H   0  0  0  0  0  0
  -23.3641    2.0716   43.2411 H   0  0  0  0  0  0
  -22.2854   -0.3825   43.7681 H   0  0  0  0  0  0
  -23.0175   -1.3963   41.7612 H   0  0  0  0  0  0
  -21.2242   -1.3627   41.8604 H   0  0  0  0  0  0
  -22.0861   -0.2101   40.7855 H   0  0  0  0  0  0
  -21.7718    1.2009   44.7523 H   0  0  0  0  0  0
  -19.0136    2.2596   44.3664 H   0  0  0  0  0  0
  -20.2658    3.5474   44.3624 H   0  0  0  0  0  0
  -21.8310    1.6449   47.4692 H   0  0  0  0  0  0
  1  2  1  0  0  0
  1 93  1  0  0  0
  1 94  1  0  0  0
  1 95  1  0  0  0
  2  3  1  0  0  0
  2  5  1  0  0  0
  2 96  1  0  0  0
  3  4  2  0  0  0
  3 17  1  0  0  0
  5 97  1  0  0  0
  5 98  1  0  0  0
  5 99  1  0  0  0
  6  7  1  0  0  0
  6100  1  0  0  0
  6101  1  0  0  0
  6102  1  0  0  0
  7  8  1  0  0  0
  7103  1  0  0  0
  8  9  2  0  0  0
  8 10  1  0  0  0
  9104  1  0  0  0
 10 11  1  0  0  0
 10105  1  0  0  0
 11 12  1  0  0  0
 11106  1  0  0  0
 11107  1  0  0  0
 12 13  1  0  0  0
 12108  1  0  0  0
 12109  1  0  0  0
 13 14  1  0  0  0
 13110  1  0  0  0
 13111  1  0  0  0
 14 15  1  0  0  0
 14 17  1  0  0  0
 14112  1  0  0  0
 15 16  2  0  0  0
 15 18  1  0  0  0
 17113  1  0  0  0
 18 19  1  0  0  0
 18114  1  0  0  0
 19 20  1  0  0  0
 19 22  1  0  0  0
 19115  1  0  0  0
 20 21  2  0  0  0
 20 25  1  0  0  0
 22 23  1  0  0  0
 22 24  1  0  0  0
 22116  1  0  0  0
 23117  1  0  0  0
 24118  1  0  0  0
 24119  1  0  0  0
 24120  1  0  0  0
 25 26  1  0  0  0
 25121  1  0  0  0
 26 27  1  0  0  0
 26 32  1  0  0  0
 26122  1  0  0  0
 27 28  1  0  0  0
 27123  1  0  0  0
 27124  1  0  0  0
 28 29  1  0  0  0
 28125  1  0  0  0
 28126  1  0  0  0
 29 30  1  0  0  0
 29127  1  0  0  0
 29128  1  0  0  0
 30 31  1  0  0  0
 30129  1  0  0  0
 30130  1  0  0  0
 31 34  1  0  0  0
 31 35  1  0  0  0
 31 36  1  0  0  0
 32 33  2  0  0  0
 32 37  1  0  0  0
 34131  1  0  0  0
 34132  1  0  0  0
 34133  1  0  0  0
 35134  1  0  0  0
 35135  1  0  0  0
 35136  1  0  0  0
 36137  1  0  0  0
 36138  1  0  0  0
 36139  1  0  0  0
 37 38  1  0  0  0
 37140  1  0  0  0
 38 39  1  0  0  0
 38 41  1  0  0  0
 38141  1  0  0  0
 39 40  2  0  0  0
 39 46  1  0  0  0
 41 42  1  0  0  0
 41142  1  0  0  0
 41143  1  0  0  0
 42 43  1  0  0  0
 42144  1  0  0  0
 42145  1  0  0  0
 43 44  2  0  0  0
 43 45  1  0  0  0
 45146  1  0  0  0
 45147  1  0  0  0
 46 47  1  0  0  0
 46148  1  0  0  0
 47 48  1  0  0  0
 47 50  1  0  0  0
 47149  1  0  0  0
 48 49  2  0  0  0
 48 53  1  0  0  0
 50 51  1  0  0  0
 50 52  1  0  0  0
 50150  1  0  0  0
 51151  1  0  0  0
 52152  1  0  0  0
 52153  1  0  0  0
 52154  1  0  0  0
 53 54  1  0  0  0
 53155  1  0  0  0
 54 55  1  0  0  0
 54 57  1  0  0  0
 54156  1  0  0  0
 55 56  2  0  0  0
 55 58  1  0  0  0
 57157  1  0  0  0
 57158  1  0  0  0
 57159  1  0  0  0
 58 59  1  0  0  0
 58160  1  0  0  0
 59 60  1  0  0  0
 59 62  1  0  0  0
 59161  1  0  0  0
 60 61  2  0  0  0
 60 69  1  0  0  0
 62 63  1  0  0  0
 62162  1  0  0  0
 62163  1  0  0  0
 63 64  1  0  0  0
 63164  1  0  0  0
 63165  1  0  0  0
 64 65  1  0  0  0
 64166  1  0  0  0
 64167  1  0  0  0
 65 66  1  0  0  0
 65168  1  0  0  0
 66 67  2  0  0  0
 66 68  1  0  0  0
 67169  1  0  0  0
 68170  1  0  0  0
 68171  1  0  0  0
 69 70  1  0  0  0
 69172  1  0  0  0
 70 71  1  0  0  0
 70 73  1  0  0  0
 70173  1  0  0  0
 71 72  2  0  0  0
 71 78  1  0  0  0
 73 74  1  0  0  0
 73174  1  0  0  0
 73175  1  0  0  0
 74 75  1  0  0  0
 74176  1  0  0  0
 74177  1  0  0  0
 75 76  1  0  0  0
 75178  1  0  0  0
 75179  1  0  0  0
 76 77  1  0  0  0
 76180  1  0  0  0
 76181  1  0  0  0
 77182  1  0  0  0
 77183  1  0  0  0
 77184  1  0  0  0
 78 79  1  0  0  0
 78185  1  0  0  0
 79 80  1  0  0  0
 79 82  1  0  0  0
 79186  1  0  0  0
 80 81  2  0  0  0
 80 83  1  0  0  0
 82187  1  0  0  0
 82188  1  0  0  0
 82189  1  0  0  0
 83 84  1  0  0  0
 83190  1  0  0  0
 84 85  1  0  0  0
 84 87  1  0  0  0
 84191  1  0  0  0
 85 86  2  0  0  0
 85 88  1  0  0  0
 87192  1  0  0  0
 87193  1  0  0  0
 87194  1  0  0  0
 88 89  1  0  0  0
 88195  1  0  0  0
 89 90  1  0  0  0
 89196  1  0  0  0
 89197  1  0  0  0
 90 91  1  0  0  0
 90 92  2  0  0  0
 91198  1  0  0  0
M  CHG  3   1   1  31   1  77   1
M  END
> <s_m_source_file>
../2v85_ligand.sdf

> <i_m_source_file_index>
1

> <s_epik_input>
W0NIM11bTkhdL0MoPU4vW0hdKVtOSF1bQ0gyXVtDSDJdW0NIMl1bQ0BIXShbTkhdQyg9TylbQ0BASF0oW05IMytdKVtDSDNdKUMoPU8pW05IXVtDQEBIXShbQ0BIXShbT0hdKVtDSDNdKUMoPU8pW05IXVtDQEBIXShbQ0gyXVtDSDJdW0NIMl1bQ0gyXVtOK10oW0NIM10pKFtDSDNdKVtDSDNdKUMoPU8pW05IXVtDQEBIXShbQ0gyXVtDSDJdQyg9TylbTkgyXSlDKD1PKVtOSF1bQ0BASF0oW0NASF0oW09IXSlbQ0gzXSlDKD1PKVtOSF1bQ0BASF0oW0NIM10pQyg9TylbTkhdW0NAQEhdKFtDSDJdW0NIMl1bQ0gyXVtOSF0vQyg9TlxbSF0pW05IMl0pQyg9TylbTkhdW0NAQEhdKFtDSDJdW0NIMl1bQ0gyXVtDSDJdW05IMytdKUMoPU8pW05IXVtDQEBIXShbQ0gzXSlDKD1PKVtOSF1bQ0BASF0oW0NIM10pQyg9TylbTkhdW0NIMl1DKD1PKVtPSF0=

> <s_epik_cmdline>
J2VwaWtfYXBwJywgJy1pbWFlJywgJ2xpZ2FuZF9wcm8ubWFlJywgJy1vbWFlJywgJ2xpZ2FuZF9wcmVwLm1hZScsICctbXMnLCAnMScsICctcGgnLCAnNycsICctcGh0JywgJzAuNScsICctbnQn

> <s_epik_pKa_notes>
Molecule size exceeds maximum supported for generating protonation states

> <s_epik_Chemistry_Notes>
This compound has an imine and may undergo hydrolysis.

$$$$
