2v86_ligand
                    3D
 Schrodinger Suite 2020-3.
153152  0  0  1  0            999 V2000
   -0.0640  -15.3170   -0.3190 N   0  3  0  0  0  0
    1.2320  -14.5850   -0.4130 C   0  0  2  0  0  0
    2.3730  -15.5470   -0.7150 C   0  0  0  0  0  0
    2.2560  -16.7360   -0.4840 O   0  0  0  0  0  0
    1.5100  -13.8540    0.8990 C   0  0  0  0  0  0
   10.8600  -15.3250   -5.7730 C   0  0  0  0  0  0
    9.1730  -17.0390   -5.0080 C   0  0  0  0  0  0
    3.4740  -15.0200   -1.2380 N   0  0  0  0  0  0
    4.6300  -15.8570   -1.5350 C   0  0  1  0  0  0
    5.6820  -15.0540   -2.3050 C   0  0  0  0  0  0
    5.1460  -14.5370   -3.6350 C   0  0  0  0  0  0
    6.2710  -13.9560   -4.4790 C   0  0  0  0  0  0
    7.3480  -14.9640   -4.6950 N   0  0  0  0  0  0
    8.6000  -14.6840   -5.1310 C   0  0  0  0  0  0
    8.9130  -13.4050   -5.3970 N   0  0  0  0  0  0
    9.5060  -15.6420   -5.2980 N   0  0  0  0  0  0
    5.2220  -16.3580   -0.2200 C   0  0  0  0  0  0
    5.3960  -15.5890    0.7140 O   0  0  0  0  0  0
    5.5160  -17.6530   -0.1520 N   0  0  0  0  0  0
    6.0950  -18.2300    1.0590 C   0  0  2  0  0  0
    7.1980  -19.2240    0.7140 C   0  0  0  0  0  0
    7.3650  -19.5920   -0.4310 O   0  0  0  0  0  0
    5.0330  -18.9770    1.9120 C   0  0  2  0  0  0
    4.4790  -20.0610    1.1550 O   0  0  0  0  0  0
    3.9200  -18.0370    2.3320 C   0  0  0  0  0  0
    7.9580  -19.6290    1.7290 N   0  0  0  0  0  0
    9.0210  -20.6110    1.5580 C   0  0  1  0  0  0
   10.4030  -19.9860    1.7560 C   0  0  0  0  0  0
   10.7870  -18.9190    0.7550 C   0  0  0  0  0  0
   12.2680  -18.6050    0.8840 C   0  0  0  0  0  0
   12.6510  -17.3240    0.1510 C   0  0  0  0  0  0
   14.1250  -17.0190    0.1670 N   0  3  0  0  0  0
    8.8350  -21.7060    2.5980 C   0  0  0  0  0  0
    8.4420  -21.4340    3.7160 O   0  0  0  0  0  0
   14.8640  -18.0480   -0.6290 C   0  0  0  0  0  0
   14.2550  -15.6900   -0.5140 C   0  0  0  0  0  0
   14.7340  -16.9500    1.5420 C   0  0  0  0  0  0
    9.1230  -22.9420    2.2080 N   0  0  0  0  0  0
    9.0050  -24.0800    3.1060 C   0  0  2  0  0  0
    7.6110  -24.2380    3.7100 C   0  0  0  0  0  0
    7.4740  -24.4690    4.9000 O   0  0  0  0  0  0
   10.0390  -23.9630    4.2310 C   0  0  0  0  0  0
   11.4780  -23.8230    3.7460 C   0  0  0  0  0  0
   11.9180  -24.9810    2.8640 C   0  0  0  0  0  0
   11.8530  -26.1300    3.2590 O   0  0  0  0  0  0
   12.3740  -24.6660    1.6590 N   0  0  0  0  0  0
    6.5810  -24.1090    2.8790 N   0  0  0  0  0  0
    5.2020  -24.2670    3.3450 C   0  0  2  0  0  0
    4.5240  -25.4120    2.6030 C   0  0  0  0  0  0
    3.3600  -25.6800    2.7990 O   0  0  0  0  0  0
    4.3660  -22.9880    3.1280 C   0  0  2  0  0  0
    4.4030  -22.6160    1.7460 O   0  0  0  0  0  0
    4.9030  -21.8500    3.9760 C   0  0  0  0  0  0
    5.2810  -26.0800    1.7420 N   0  0  0  0  0  0
    4.7540  -27.1980    0.9750 C   0  0  2  0  0  0
    4.4160  -28.3680    1.8950 C   0  0  0  0  0  0
    5.2140  -28.7540    2.7300 O   0  0  0  0  0  0
    5.7740  -27.6360   -0.0700 C   0  0  0  0  0  0
    3.2210  -28.9210    1.7320 N   0  0  0  0  0  0
    2.7880  -30.0570    2.5360 C   0  0  2  0  0  0
    2.7050  -31.3050    1.6710 C   0  0  0  0  0  0
    3.4370  -32.2720    1.9630 O   0  0  0  0  0  0
    1.4220  -29.7780    3.1560 C   0  0  0  0  0  0
    1.4510  -28.8310    4.3410 C   0  0  0  0  0  0
    0.0490  -28.3540    4.6510 C   0  0  0  0  0  0
   -0.4840  -27.5940    3.5240 N   0  0  0  0  0  0
   -1.7710  -27.3150    3.3420 C   0  0  0  0  0  0
   -2.1520  -26.6120    2.2810 N   0  0  0  0  0  0
   -2.6780  -27.7440    4.2110 N   0  0  0  0  0  0
    1.9080  -31.2950    0.7100 N   0  0  0  0  0  0
   -0.2586  -15.8412   -1.2663 H   0  0  0  0  0  0
   -0.8759  -14.6013   -0.1224 H   0  0  0  0  0  0
   -0.0133  -16.0484    0.5011 H   0  0  0  0  0  0
    1.1400  -13.8645   -1.2390 H   0  0  0  0  0  0
    0.6841  -13.1600    1.1142 H   0  0  0  0  0  0
    2.4501  -13.2895    0.8121 H   0  0  0  0  0  0
    1.5960  -14.5861    1.7155 H   0  0  0  0  0  0
   11.4501  -16.2507   -5.8429 H   0  0  0  0  0  0
   11.3439  -14.6341   -5.0669 H   0  0  0  0  0  0
   10.7995  -14.8530   -6.7647 H   0  0  0  0  0  0
   10.0489  -17.6737   -5.2076 H   0  0  0  0  0  0
    8.3364  -17.3569   -5.6476 H   0  0  0  0  0  0
    8.8836  -17.1351   -3.9511 H   0  0  0  0  0  0
    3.5083  -13.9406   -1.4470 H   0  0  0  0  0  0
    4.2717  -16.6933   -2.1532 H   0  0  0  0  0  0
    5.9967  -14.1892   -1.7024 H   0  0  0  0  0  0
    6.5529  -15.6935   -2.5113 H   0  0  0  0  0  0
    4.6776  -15.3645   -4.1881 H   0  0  0  0  0  0
    4.3991  -13.7512   -3.4488 H   0  0  0  0  0  0
    5.8737  -13.6475   -5.4572 H   0  0  0  0  0  0
    6.7010  -13.0831   -3.9661 H   0  0  0  0  0  0
    7.1529  -16.0283   -4.4971 H   0  0  0  0  0  0
    8.1610  -12.6144   -5.2578 H   0  0  0  0  0  0
    5.3171  -18.2920   -1.0250 H   0  0  0  0  0  0
    6.4997  -17.3544    1.5878 H   0  0  0  0  0  0
    5.4873  -19.4298    2.8056 H   0  0  0  0  0  0
    5.1370  -20.8499    0.7616 H   0  0  0  0  0  0
    4.3431  -17.2043    2.9131 H   0  0  0  0  0  0
    3.1925  -18.5833    2.9503 H   0  0  0  0  0  0
    3.4170  -17.6414    1.4373 H   0  0  0  0  0  0
    7.7625  -19.1973    2.7217 H   0  0  0  0  0  0
    8.9238  -20.9852    0.5282 H   0  0  0  0  0  0
   10.4525  -19.5121    2.7475 H   0  0  0  0  0  0
   11.1729  -20.7684    1.6847 H   0  0  0  0  0  0
   10.5780  -19.2792   -0.2631 H   0  0  0  0  0  0
   10.2028  -18.0073    0.9486 H   0  0  0  0  0  0
   12.5253  -18.4808    1.9463 H   0  0  0  0  0  0
   12.8564  -19.4312    0.4584 H   0  0  0  0  0  0
   12.3496  -17.4012   -0.9041 H   0  0  0  0  0  0
   12.1401  -16.4683    0.6166 H   0  0  0  0  0  0
   14.4310  -18.1114   -1.6382 H   0  0  0  0  0  0
   14.7802  -19.0257   -0.1320 H   0  0  0  0  0  0
   15.9240  -17.7634   -0.7020 H   0  0  0  0  0  0
   13.8084  -15.7470   -1.5176 H   0  0  0  0  0  0
   15.3191  -15.4250   -0.6007 H   0  0  0  0  0  0
   13.7330  -14.9228    0.0766 H   0  0  0  0  0  0
   14.6354  -17.9278    2.0362 H   0  0  0  0  0  0
   14.2127  -16.1848    2.1359 H   0  0  0  0  0  0
   15.7988  -16.6870    1.4586 H   0  0  0  0  0  0
    9.4594  -23.0919    1.1715 H   0  0  0  0  0  0
    9.1955  -24.9436    2.4518 H   0  0  0  0  0  0
    9.8169  -23.0759    4.8423 H   0  0  0  0  0  0
    9.9975  -24.8629    4.8622 H   0  0  0  0  0  0
   11.5791  -22.8974    3.1603 H   0  0  0  0  0  0
   12.1548  -23.7845    4.6123 H   0  0  0  0  0  0
   12.4146  -23.6128    1.3443 H   0  0  0  0  0  0
   12.7115  -25.4580    0.9743 H   0  0  0  0  0  0
    6.7815  -23.8788    1.8222 H   0  0  0  0  0  0
    5.3037  -24.4869    4.4180 H   0  0  0  0  0  0
    3.3062  -23.1616    3.3663 H   0  0  0  0  0  0
    4.0506  -23.3196    0.9774 H   0  0  0  0  0  0
    4.8736  -22.1380    5.0372 H   0  0  0  0  0  0
    4.2837  -20.9541    3.8219 H   0  0  0  0  0  0
    5.9410  -21.6330    3.6836 H   0  0  0  0  0  0
    6.3291  -25.7712    1.6148 H   0  0  0  0  0  0
    3.8393  -26.8273    0.4893 H   0  0  0  0  0  0
    6.0118  -26.7875   -0.7284 H   0  0  0  0  0  0
    5.3555  -28.4585   -0.6686 H   0  0  0  0  0  0
    6.6905  -27.9780    0.4330 H   0  0  0  0  0  0
    2.5510  -28.5012    0.9673 H   0  0  0  0  0  0
    3.5483  -30.1820    3.3210 H   0  0  0  0  0  0
    0.7621  -29.3257    2.4010 H   0  0  0  0  0  0
    0.9808  -30.7211    3.5108 H   0  0  0  0  0  0
    1.8594  -29.3540    5.2184 H   0  0  0  0  0  0
    2.0853  -27.9645    4.1025 H   0  0  0  0  0  0
   -0.6001  -29.2217    4.8401 H   0  0  0  0  0  0
    0.0695  -27.7102    5.5427 H   0  0  0  0  0  0
    0.1959  -27.2082    2.7501 H   0  0  0  0  0  0
   -1.4023  -26.2553    1.5594 H   0  0  0  0  0  0
   -3.2172  -26.3866    2.1241 H   0  0  0  0  0  0
   -2.3651  -28.3262    5.0903 H   0  0  0  0  0  0
    1.2937  -30.4038    0.5142 H   0  0  0  0  0  0
    1.8201  -32.1774    0.0592 H   0  0  0  0  0  0
  1  2  1  0  0  0
  1 71  1  0  0  0
  1 72  1  0  0  0
  1 73  1  0  0  0
  2  3  1  0  0  0
  2  5  1  0  0  0
  2 74  1  0  0  0
  3  4  2  0  0  0
  3  8  1  0  0  0
  5 75  1  0  0  0
  5 76  1  0  0  0
  5 77  1  0  0  0
  6 16  1  0  0  0
  6 78  1  0  0  0
  6 79  1  0  0  0
  6 80  1  0  0  0
  7 16  1  0  0  0
  7 81  1  0  0  0
  7 82  1  0  0  0
  7 83  1  0  0  0
  8  9  1  0  0  0
  8 84  1  0  0  0
  9 10  1  0  0  0
  9 17  1  0  0  0
  9 85  1  0  0  0
 10 11  1  0  0  0
 10 86  1  0  0  0
 10 87  1  0  0  0
 11 12  1  0  0  0
 11 88  1  0  0  0
 11 89  1  0  0  0
 12 13  1  0  0  0
 12 90  1  0  0  0
 12 91  1  0  0  0
 13 14  1  0  0  0
 13 92  1  0  0  0
 14 15  2  0  0  0
 14 16  1  0  0  0
 15 93  1  0  0  0
 17 18  2  0  0  0
 17 19  1  0  0  0
 19 20  1  0  0  0
 19 94  1  0  0  0
 20 21  1  0  0  0
 20 23  1  0  0  0
 20 95  1  0  0  0
 21 22  2  0  0  0
 21 26  1  0  0  0
 23 24  1  0  0  0
 23 25  1  0  0  0
 23 96  1  0  0  0
 24 97  1  0  0  0
 25 98  1  0  0  0
 25 99  1  0  0  0
 25100  1  0  0  0
 26 27  1  0  0  0
 26101  1  0  0  0
 27 28  1  0  0  0
 27 33  1  0  0  0
 27102  1  0  0  0
 28 29  1  0  0  0
 28103  1  0  0  0
 28104  1  0  0  0
 29 30  1  0  0  0
 29105  1  0  0  0
 29106  1  0  0  0
 30 31  1  0  0  0
 30107  1  0  0  0
 30108  1  0  0  0
 31 32  1  0  0  0
 31109  1  0  0  0
 31110  1  0  0  0
 32 35  1  0  0  0
 32 36  1  0  0  0
 32 37  1  0  0  0
 33 34  2  0  0  0
 33 38  1  0  0  0
 35111  1  0  0  0
 35112  1  0  0  0
 35113  1  0  0  0
 36114  1  0  0  0
 36115  1  0  0  0
 36116  1  0  0  0
 37117  1  0  0  0
 37118  1  0  0  0
 37119  1  0  0  0
 38 39  1  0  0  0
 38120  1  0  0  0
 39 40  1  0  0  0
 39 42  1  0  0  0
 39121  1  0  0  0
 40 41  2  0  0  0
 40 47  1  0  0  0
 42 43  1  0  0  0
 42122  1  0  0  0
 42123  1  0  0  0
 43 44  1  0  0  0
 43124  1  0  0  0
 43125  1  0  0  0
 44 45  2  0  0  0
 44 46  1  0  0  0
 46126  1  0  0  0
 46127  1  0  0  0
 47 48  1  0  0  0
 47128  1  0  0  0
 48 49  1  0  0  0
 48 51  1  0  0  0
 48129  1  0  0  0
 49 50  2  0  0  0
 49 54  1  0  0  0
 51 52  1  0  0  0
 51 53  1  0  0  0
 51130  1  0  0  0
 52131  1  0  0  0
 53132  1  0  0  0
 53133  1  0  0  0
 53134  1  0  0  0
 54 55  1  0  0  0
 54135  1  0  0  0
 55 56  1  0  0  0
 55 58  1  0  0  0
 55136  1  0  0  0
 56 57  2  0  0  0
 56 59  1  0  0  0
 58137  1  0  0  0
 58138  1  0  0  0
 58139  1  0  0  0
 59 60  1  0  0  0
 59140  1  0  0  0
 60 61  1  0  0  0
 60 63  1  0  0  0
 60141  1  0  0  0
 61 62  2  0  0  0
 61 70  1  0  0  0
 63 64  1  0  0  0
 63142  1  0  0  0
 63143  1  0  0  0
 64 65  1  0  0  0
 64144  1  0  0  0
 64145  1  0  0  0
 65 66  1  0  0  0
 65146  1  0  0  0
 65147  1  0  0  0
 66 67  1  0  0  0
 66148  1  0  0  0
 67 68  1  0  0  0
 67 69  2  0  0  0
 68149  1  0  0  0
 68150  1  0  0  0
 69151  1  0  0  0
 70152  1  0  0  0
 70153  1  0  0  0
M  CHG  2   1   1  32   1
M  END
> <s_m_source_file>
../2v86_ligand.sdf

> <i_m_source_file_index>
1

> <s_epik_input>
W0NIM11OKFtDSDNdKUMoPU5cW0hdKVxbTkhdW0NIMl1bQ0gyXVtDSDJdW0NASF0oW05IXUMoPU8pW0NAQEhdKFtOSDMrXSlbQ0gzXSlDKD1PKVtOSF1bQ0BASF0oW0NASF0oW09IXSlbQ0gzXSlDKD1PKVtOSF1bQ0BASF0oW0NIMl1bQ0gyXVtDSDJdW0NIMl1bTitdKFtDSDNdKShbQ0gzXSlbQ0gzXSlDKD1PKVtOSF1bQ0BASF0oW0NIMl1bQ0gyXUMoPU8pW05IMl0pQyg9TylbTkhdW0NAQEhdKFtDQEhdKFtPSF0pW0NIM10pQyg9TylbTkhdW0NAQEhdKFtDSDNdKUMoPU8pW05IXVtDQEhdKEMoPU8pW05IMl0pW0NIMl1bQ0gyXVtDSDJdW05IXS9DKFtOSDJdKT1OXFtIXQ==

> <s_epik_cmdline>
J2VwaWtfYXBwJywgJy1pbWFlJywgJ2xpZ2FuZF9wcm8ubWFlJywgJy1vbWFlJywgJ2xpZ2FuZF9wcmVwLm1hZScsICctbXMnLCAnMScsICctcGgnLCAnNycsICctcGh0JywgJzAuNScsICctbnQn

> <s_epik_pKa_notes>
Molecule size exceeds maximum supported for generating protonation states

> <s_epik_Chemistry_Notes>
This compound has an imine and may undergo hydrolysis.

$$$$
