2v87_ligand
                    3D
 Schrodinger Suite 2020-3.
152151  0  0  1  0            999 V2000
    9.9000   20.8400  -36.4590 N   0  3  0  0  0  0
   10.8250   20.2650  -35.4420 C   0  0  2  0  0  0
   11.0910   18.8020  -35.7510 C   0  0  0  0  0  0
   10.2310   18.1090  -36.2830 O   0  0  0  0  0  0
   10.2200   20.3980  -34.0400 C   0  0  0  0  0  0
   12.2930   18.3390  -35.4240 N   0  0  0  0  0  0
   12.6460   16.9490  -35.6610 C   0  0  1  0  0  0
   14.1570   16.7600  -35.6050 C   0  0  0  0  0  0
   14.8750   17.0010  -36.9180 C   0  0  0  0  0  0
   16.3050   17.4810  -36.6670 C   0  0  0  0  0  0
   17.0870   16.5680  -35.8190 N   0  0  2  0  0  0
   18.2380   16.7920  -35.0950 C   0  0  0  0  0  0
   18.6750   15.7520  -34.3810 N   0  0  2  0  0  0
   19.8550   15.9050  -33.4850 C   0  0  0  0  0  0
   18.9490   17.9750  -35.0050 N   0  0  2  0  0  0
   18.7160   19.1980  -35.7470 C   0  0  0  0  0  0
   11.9440   16.0790  -34.6230 C   0  0  0  0  0  0
   11.8990   16.4200  -33.4480 O   0  0  0  0  0  0
   11.3960   14.9560  -35.0750 N   0  0  0  0  0  0
   10.6730   14.0490  -34.1950 C   0  0  2  0  0  0
   10.9570   12.5840  -34.5090 C   0  0  0  0  0  0
   11.6300   12.2640  -35.4840 O   0  0  0  0  0  0
    9.1510   14.2500  -34.3270 C   0  0  2  0  0  0
    8.7520   13.9390  -35.6660 O   0  0  0  0  0  0
    8.7600   15.6900  -34.0070 C   0  0  0  0  0  0
   10.4160   11.7110  -33.6630 N   0  0  0  0  0  0
   10.5450   10.2710  -33.8070 C   0  0  1  0  0  0
   11.5670    9.7080  -32.8180 C   0  0  0  0  0  0
   12.9670   10.2790  -32.9310 C   0  0  0  0  0  0
   13.9010    9.5240  -32.0060 C   0  0  0  0  0  0
   15.3100   10.1040  -32.0150 C   0  0  0  0  0  0
   16.3230    9.2420  -31.3170 N   0  3  0  0  0  0
    9.1870    9.6450  -33.5040 C   0  0  0  0  0  0
    8.4790   10.0930  -32.6060 O   0  0  0  0  0  0
   16.4740    7.9400  -32.0560 C   0  0  0  0  0  0
   17.6130   10.0070  -31.3930 C   0  0  0  0  0  0
   15.9880    8.9470  -29.8810 C   0  0  0  0  0  0
    8.8450    8.6090  -34.2630 N   0  0  0  0  0  0
    7.5910    7.8830  -34.0990 C   0  0  2  0  0  0
    6.3610    8.7690  -34.2660 C   0  0  0  0  0  0
    5.4060    8.6670  -33.5000 O   0  0  0  0  0  0
    7.5510    7.2080  -32.7250 C   0  0  0  0  0  0
    8.7620    6.3270  -32.4130 C   0  0  0  0  0  0
    8.9550    5.2040  -33.4160 C   0  0  0  0  0  0
    8.0150    4.5070  -33.7670 O   0  0  0  0  0  0
   10.1910    5.0180  -33.8680 N   0  0  0  0  0  0
    6.3880    9.6340  -35.2760 N   0  0  0  0  0  0
    5.2650   10.5250  -35.5510 C   0  0  2  0  0  0
    4.6700   10.2380  -36.9240 C   0  0  0  0  0  0
    3.7300   10.9020  -37.3530 O   0  0  0  0  0  0
    5.6890   12.0040  -35.4950 C   0  0  2  0  0  0
    6.8650   12.1980  -36.2940 O   0  0  0  0  0  0
    5.9650   12.4190  -34.0580 C   0  0  0  0  0  0
    5.2280    9.2440  -37.6060 N   0  0  0  0  0  0
    4.7400    8.8620  -38.9270 C   0  0  2  0  0  0
    3.4740    8.0370  -38.7530 C   0  0  0  0  0  0
    3.4040    7.1870  -37.8770 O   0  0  0  0  0  0
    5.7990    8.0490  -39.6620 C   0  0  0  0  0  0
    2.4730    8.3000  -39.5870 N   0  0  0  0  0  0
    1.2160    7.5660  -39.5130 C   0  0  2  0  0  0
    1.4560    6.1090  -39.8980 C   0  0  0  0  0  0
    2.3280    5.8120  -40.7040 O   0  0  0  0  0  0
    0.1840    8.1960  -40.4400 C   0  0  0  0  0  0
    0.6740    5.2060  -39.3150 N   0  0  0  0  0  0
    0.8160    3.7790  -39.5830 C   0  0  2  0  0  0
   -0.0920    3.2750  -40.7020 C   0  0  0  0  0  0
   -0.7650    4.1010  -41.3540 O   0  0  0  0  0  0
    0.5560    2.9870  -38.3050 C   0  0  0  0  0  0
   -0.1090    2.0460  -40.9150 N   0  0  0  0  0  0
   10.3459   20.7381  -37.4594 H   0  0  0  0  0  0
    9.7302   21.9045  -36.2399 H   0  0  0  0  0  0
    8.9411   20.3018  -36.4284 H   0  0  0  0  0  0
   11.7681   20.8283  -35.4987 H   0  0  0  0  0  0
   10.0296   21.4592  -33.8220 H   0  0  0  0  0  0
   10.9224   19.9914  -33.2975 H   0  0  0  0  0  0
    9.2738   19.8388  -33.9944 H   0  0  0  0  0  0
   13.0248   19.0224  -34.9686 H   0  0  0  0  0  0
   12.2990   16.6971  -36.6740 H   0  0  0  0  0  0
   14.5873   17.4606  -34.8743 H   0  0  0  0  0  0
   14.3864   15.7277  -35.3022 H   0  0  0  0  0  0
   14.9086   16.0649  -37.4947 H   0  0  0  0  0  0
   14.3371   17.7678  -37.4947 H   0  0  0  0  0  0
   16.8340   17.5750  -37.6269 H   0  0  0  0  0  0
   16.2806   18.4592  -36.1645 H   0  0  0  0  0  0
   16.4540   16.1956  -35.0001 H   0  0  0  0  0  0
   18.2670   17.5744  -35.8677 H   0  0  0  0  0  0
   17.8753   15.4063  -33.7095 H   0  0  0  0  0  0
   20.0621   14.9475  -32.9847 H   0  0  0  0  0  0
   19.6438   16.6756  -32.7290 H   0  0  0  0  0  0
   20.7305   16.2049  -34.0797 H   0  0  0  0  0  0
   18.8889   18.3616  -33.9769 H   0  0  0  0  0  0
   19.4540   19.9559  -35.4456 H   0  0  0  0  0  0
   17.7023   19.5684  -35.5344 H   0  0  0  0  0  0
   18.8148   18.9978  -36.8241 H   0  0  0  0  0  0
   11.4996   14.7190  -36.1441 H   0  0  0  0  0  0
   11.0593   14.3168  -33.2005 H   0  0  0  0  0  0
    8.6061   13.5592  -33.6667 H   0  0  0  0  0  0
    8.9500   12.9396  -36.0808 H   0  0  0  0  0  0
    9.0651   15.9328  -32.9784 H   0  0  0  0  0  0
    7.6701   15.8039  -34.1028 H   0  0  0  0  0  0
    9.2630   16.3712  -34.7092 H   0  0  0  0  0  0
    9.8471   12.1307  -32.8203 H   0  0  0  0  0  0
   10.8793   10.0906  -34.8393 H   0  0  0  0  0  0
   11.2317    9.9093  -31.7899 H   0  0  0  0  0  0
   11.6617    8.6222  -32.9668 H   0  0  0  0  0  0
   13.3208   10.1799  -33.9678 H   0  0  0  0  0  0
   12.9534   11.3420  -32.6483 H   0  0  0  0  0  0
   13.5168    9.5739  -30.9765 H   0  0  0  0  0  0
   13.9615    8.4728  -32.3242 H   0  0  0  0  0  0
   15.6480   10.2299  -33.0542 H   0  0  0  0  0  0
   15.3077   11.0809  -31.5093 H   0  0  0  0  0  0
   16.7194    8.1424  -33.1090 H   0  0  0  0  0  0
   15.5313    7.3758  -32.0011 H   0  0  0  0  0  0
   17.2816    7.3500  -31.5981 H   0  0  0  0  0  0
   17.8519   10.2193  -32.4455 H   0  0  0  0  0  0
   18.4210    9.4085  -30.9471 H   0  0  0  0  0  0
   17.5109   10.9536  -30.8420 H   0  0  0  0  0  0
   15.0426    8.3868  -29.8327 H   0  0  0  0  0  0
   15.8832    9.8918  -29.3274 H   0  0  0  0  0  0
   16.7933    8.3466  -29.4325 H   0  0  0  0  0  0
    9.5583    8.3054  -35.0435 H   0  0  0  0  0  0
    7.6036    7.1479  -34.9172 H   0  0  0  0  0  0
    7.5054    7.9771  -31.9399 H   0  0  0  0  0  0
    6.6621    6.5634  -32.6589 H   0  0  0  0  0  0
    9.6743    6.9416  -32.4210 H   0  0  0  0  0  0
    8.6367    5.8696  -31.4205 H   0  0  0  0  0  0
   11.0066    5.6708  -33.5236 H   0  0  0  0  0  0
   10.3983    4.2112  -34.5864 H   0  0  0  0  0  0
    7.2853    9.6677  -35.9114 H   0  0  0  0  0  0
    4.5394   10.2956  -34.7568 H   0  0  0  0  0  0
    4.9182   12.6563  -35.9314 H   0  0  0  0  0  0
    6.8492   11.9493  -37.3654 H   0  0  0  0  0  0
    5.0594   12.2674  -33.4522 H   0  0  0  0  0  0
    6.2504   13.4810  -34.0315 H   0  0  0  0  0  0
    6.7847   11.8087  -33.6511 H   0  0  0  0  0  0
    6.0746    8.7052  -37.1554 H   0  0  0  0  0  0
    4.5332    9.7863  -39.4863 H   0  0  0  0  0  0
    6.7090    8.6553  -39.7818 H   0  0  0  0  0  0
    5.4176    7.7604  -40.6526 H   0  0  0  0  0  0
    6.0348    7.1445  -39.0821 H   0  0  0  0  0  0
    2.6062    9.0879  -40.3430 H   0  0  0  0  0  0
    0.8668    7.6358  -38.4722 H   0  0  0  0  0  0
    0.0223    9.2447  -40.1499 H   0  0  0  0  0  0
   -0.7641    7.6437  -40.3624 H   0  0  0  0  0  0
    0.5488    8.1545  -41.4769 H   0  0  0  0  0  0
   -0.0963    5.5600  -38.6140 H   0  0  0  0  0  0
    1.8571    3.6749  -39.9224 H   0  0  0  0  0  0
    1.2139    3.3563  -37.5045 H   0  0  0  0  0  0
    0.7611    1.9215  -38.4858 H   0  0  0  0  0  0
   -0.4944    3.1122  -38.0034 H   0  0  0  0  0  0
    0.5092    1.3731  -40.3026 H   0  0  0  0  0  0
   -0.7422    1.6352  -41.7152 H   0  0  0  0  0  0
  1  2  1  0  0  0
  1 70  1  0  0  0
  1 71  1  0  0  0
  1 72  1  0  0  0
  2  3  1  0  0  0
  2  5  1  0  0  0
  2 73  1  0  0  0
  3  4  2  0  0  0
  3  6  1  0  0  0
  5 74  1  0  0  0
  5 75  1  0  0  0
  5 76  1  0  0  0
  6  7  1  0  0  0
  6 77  1  0  0  0
  7  8  1  0  0  0
  7 17  1  0  0  0
  7 78  1  0  0  0
  8  9  1  0  0  0
  8 79  1  0  0  0
  8 80  1  0  0  0
  9 10  1  0  0  0
  9 81  1  0  0  0
  9 82  1  0  0  0
 10 11  1  0  0  0
 10 83  1  0  0  0
 10 84  1  0  0  0
 11 12  1  0  0  0
 11 85  1  0  0  0
 12 13  1  0  0  0
 12 15  1  0  0  0
 12 86  1  0  0  0
 13 14  1  0  0  0
 13 87  1  0  0  0
 14 88  1  0  0  0
 14 89  1  0  0  0
 14 90  1  0  0  0
 15 16  1  0  0  0
 15 91  1  0  0  0
 16 92  1  0  0  0
 16 93  1  0  0  0
 16 94  1  0  0  0
 17 18  2  0  0  0
 17 19  1  0  0  0
 19 20  1  0  0  0
 19 95  1  0  0  0
 20 21  1  0  0  0
 20 23  1  0  0  0
 20 96  1  0  0  0
 21 22  2  0  0  0
 21 26  1  0  0  0
 23 24  1  0  0  0
 23 25  1  0  0  0
 23 97  1  0  0  0
 24 98  1  0  0  0
 25 99  1  0  0  0
 25100  1  0  0  0
 25101  1  0  0  0
 26 27  1  0  0  0
 26102  1  0  0  0
 27 28  1  0  0  0
 27 33  1  0  0  0
 27103  1  0  0  0
 28 29  1  0  0  0
 28104  1  0  0  0
 28105  1  0  0  0
 29 30  1  0  0  0
 29106  1  0  0  0
 29107  1  0  0  0
 30 31  1  0  0  0
 30108  1  0  0  0
 30109  1  0  0  0
 31 32  1  0  0  0
 31110  1  0  0  0
 31111  1  0  0  0
 32 35  1  0  0  0
 32 36  1  0  0  0
 32 37  1  0  0  0
 33 34  2  0  0  0
 33 38  1  0  0  0
 35112  1  0  0  0
 35113  1  0  0  0
 35114  1  0  0  0
 36115  1  0  0  0
 36116  1  0  0  0
 36117  1  0  0  0
 37118  1  0  0  0
 37119  1  0  0  0
 37120  1  0  0  0
 38 39  1  0  0  0
 38121  1  0  0  0
 39 40  1  0  0  0
 39 42  1  0  0  0
 39122  1  0  0  0
 40 41  2  0  0  0
 40 47  1  0  0  0
 42 43  1  0  0  0
 42123  1  0  0  0
 42124  1  0  0  0
 43 44  1  0  0  0
 43125  1  0  0  0
 43126  1  0  0  0
 44 45  2  0  0  0
 44 46  1  0  0  0
 46127  1  0  0  0
 46128  1  0  0  0
 47 48  1  0  0  0
 47129  1  0  0  0
 48 49  1  0  0  0
 48 51  1  0  0  0
 48130  1  0  0  0
 49 50  2  0  0  0
 49 54  1  0  0  0
 51 52  1  0  0  0
 51 53  1  0  0  0
 51131  1  0  0  0
 52132  1  0  0  0
 53133  1  0  0  0
 53134  1  0  0  0
 53135  1  0  0  0
 54 55  1  0  0  0
 54136  1  0  0  0
 55 56  1  0  0  0
 55 58  1  0  0  0
 55137  1  0  0  0
 56 57  2  0  0  0
 56 59  1  0  0  0
 58138  1  0  0  0
 58139  1  0  0  0
 58140  1  0  0  0
 59 60  1  0  0  0
 59141  1  0  0  0
 60 61  1  0  0  0
 60 63  1  0  0  0
 60142  1  0  0  0
 61 62  2  0  0  0
 61 64  1  0  0  0
 63143  1  0  0  0
 63144  1  0  0  0
 63145  1  0  0  0
 64 65  1  0  0  0
 64146  1  0  0  0
 65 66  1  0  0  0
 65 68  1  0  0  0
 65147  1  0  0  0
 66 67  2  0  0  0
 66 69  1  0  0  0
 68148  1  0  0  0
 68149  1  0  0  0
 68150  1  0  0  0
 69151  1  0  0  0
 69152  1  0  0  0
M  CHG  2   1   1  32   1
M  END
> <s_m_source_file>
../2v87_ligand.sdf

> <i_m_source_file_index>
1

> <s_epik_input>
W0NIM11bTkhdW0NIXShbTkhdW0NIM10pW05IXVtDSDJdW0NIMl1bQ0gyXVtDQEhdKFtOSF1DKD1PKVtDQEBIXShbTkgzK10pW0NIM10pQyg9TylbTkhdW0NAQEhdKFtDQEhdKFtPSF0pW0NIM10pQyg9TylbTkhdW0NAQEhdKFtDSDJdW0NIMl1bQ0gyXVtDSDJdW04rXShbQ0gzXSkoW0NIM10pW0NIM10pQyg9TylbTkhdW0NAQEhdKFtDSDJdW0NIMl1DKD1PKVtOSDJdKUMoPU8pW05IXVtDQEBIXShbQ0BIXShbT0hdKVtDSDNdKUMoPU8pW05IXVtDQEBIXShbQ0gzXSlDKD1PKVtOSF1bQ0BASF0oW0NIM10pQyg9TylbTkhdW0NAQEhdKFtDSDNdKUMoPU8pW05IMl0=

> <s_epik_cmdline>
J2VwaWtfYXBwJywgJy1pbWFlJywgJ2xpZ2FuZF9wcm8ubWFlJywgJy1vbWFlJywgJ2xpZ2FuZF9wcmVwLm1hZScsICctbXMnLCAnMScsICctcGgnLCAnNycsICctcGh0JywgJzAuNScsICctbnQn

> <s_epik_pKa_notes>
Molecule size exceeds maximum supported for generating protonation states

> <s_epik_Chemistry_Notes>
This compound contains an acetal/aminal-like group ( X-CH(R)-Y where X, Y are N, S, or O) that may be acid/base labile, releasing an aldehyde.

$$$$
