2v95_ligand
                    3D
 Schrodinger Suite 2020-3.
 56 59  0  0  1  0            999 V2000
   48.5820  -15.4490   11.6480 C   0  0  0  0  0  0
   48.2050  -15.9160   13.0530 C   0  0  0  0  0  0
   47.8450  -14.7420   13.9420 C   0  0  0  0  0  0
   47.3990  -13.4700   13.3570 C   0  0  0  0  0  0
   47.3320  -13.2770   12.0330 C   0  0  0  0  0  0
   46.7390  -11.9790   11.5620 C   0  0  0  0  0  0
   47.6030  -11.3300   10.5020 C   0  0  0  0  0  0
   48.0930  -12.3230    9.4500 C   0  0  2  0  0  0
   48.7210  -13.5920   10.0340 C   0  0  1  0  0  0
   47.7780  -14.3270   11.0190 C   0  0  1  0  0  0
   49.3900  -14.5050    8.9670 C   0  0  2  0  0  0
   50.3200  -13.7150    8.0270 C   0  0  0  0  0  0
   49.7030  -12.4310    7.4760 C   0  0  1  0  0  0
   49.1530  -11.6100    8.6350 C   0  0  1  0  0  0
   48.7450  -10.3160    7.9860 C   0  0  0  0  0  0
   49.7270  -10.1140    6.8430 C   0  0  0  0  0  0
   50.5870  -11.3490    6.8060 C   0  0  2  0  0  0
   48.5830  -12.8420    6.5250 C   0  0  0  0  0  0
   46.5210  -14.8610   10.3270 C   0  0  0  0  0  0
   51.0570  -11.6140    5.3870 C   0  0  0  0  0  0
   52.0670  -12.6910    5.1590 C   0  0  0  0  0  0
   47.9230  -14.8280   15.1580 O   0  0  0  0  0  0
   48.4470  -15.2560    8.1840 O   0  0  0  0  0  0
   51.7500  -11.0380    7.6050 O   0  0  0  0  0  0
   50.6650  -10.9400    4.4420 O   0  0  0  0  0  0
   52.3370  -12.8140    3.7610 O   0  0  0  0  0  0
   49.6199  -15.0848   11.6489 H   0  0  0  0  0  0
   48.4891  -16.2898   10.9449 H   0  0  0  0  0  0
   47.3385  -16.5911   12.9948 H   0  0  0  0  0  0
   49.0556  -16.4492   13.5028 H   0  0  0  0  0  0
   47.1147  -12.6609   14.0458 H   0  0  0  0  0  0
   45.7426  -12.1648   11.1347 H   0  0  0  0  0  0
   46.6501  -11.2866   12.4121 H   0  0  0  0  0  0
   47.0250  -10.5499    9.9849 H   0  0  0  0  0  0
   48.4870  -10.8781   10.9756 H   0  0  0  0  0  0
   47.2241  -12.6399    8.8545 H   0  0  0  0  0  0
   49.5593  -13.2398   10.6530 H   0  0  0  0  0  0
   49.9489  -15.2852    9.5046 H   0  0  0  0  0  0
   51.2330  -13.4290    8.5698 H   0  0  0  0  0  0
   50.5879  -14.3423    7.1640 H   0  0  0  0  0  0
   49.8882  -11.4178    9.4303 H   0  0  0  0  0  0
   47.7111  -10.3995    7.6198 H   0  0  0  0  0  0
   48.8087   -9.5007    8.7217 H   0  0  0  0  0  0
   49.1727   -9.9892    5.9011 H   0  0  0  0  0  0
   50.3323   -9.2156    7.0340 H   0  0  0  0  0  0
   47.9582  -13.6099    7.0045 H   0  0  0  0  0  0
   49.0181  -13.2483    5.6000 H   0  0  0  0  0  0
   47.9653  -11.9641    6.2849 H   0  0  0  0  0  0
   45.8856  -15.3727   11.0649 H   0  0  0  0  0  0
   46.8103  -15.5703    9.5376 H   0  0  0  0  0  0
   45.9640  -14.0236    9.8814 H   0  0  0  0  0  0
   52.9978  -12.4388    5.6882 H   0  0  0  0  0  0
   51.6764  -13.6464    5.5392 H   0  0  0  0  0  0
   47.6962  -15.8863    8.6830 H   0  0  0  0  0  0
   51.6372  -10.8107    8.6753 H   0  0  0  0  0  0
   53.0606  -13.5618    3.4043 H   0  0  0  0  0  0
  1  2  1  0  0  0
  1 10  1  0  0  0
  1 27  1  0  0  0
  1 28  1  0  0  0
  2  3  1  0  0  0
  2 29  1  0  0  0
  2 30  1  0  0  0
  3  4  1  0  0  0
  3 22  2  0  0  0
  4  5  2  0  0  0
  4 31  1  0  0  0
  5  6  1  0  0  0
  5 10  1  0  0  0
  6  7  1  0  0  0
  6 32  1  0  0  0
  6 33  1  0  0  0
  7  8  1  0  0  0
  7 34  1  0  0  0
  7 35  1  0  0  0
  8  9  1  0  0  0
  8 14  1  0  0  0
  8 36  1  0  0  0
  9 10  1  0  0  0
  9 11  1  0  0  0
  9 37  1  0  0  0
 10 19  1  0  0  0
 11 12  1  0  0  0
 11 23  1  0  0  0
 11 38  1  0  0  0
 12 13  1  0  0  0
 12 39  1  0  0  0
 12 40  1  0  0  0
 13 14  1  0  0  0
 13 17  1  0  0  0
 13 18  1  0  0  0
 14 15  1  0  0  0
 14 41  1  0  0  0
 15 16  1  0  0  0
 15 42  1  0  0  0
 15 43  1  0  0  0
 16 17  1  0  0  0
 16 44  1  0  0  0
 16 45  1  0  0  0
 17 20  1  0  0  0
 17 24  1  0  0  0
 18 46  1  0  0  0
 18 47  1  0  0  0
 18 48  1  0  0  0
 19 49  1  0  0  0
 19 50  1  0  0  0
 19 51  1  0  0  0
 20 21  1  0  0  0
 20 25  2  0  0  0
 21 26  1  0  0  0
 21 52  1  0  0  0
 21 53  1  0  0  0
 23 54  1  0  0  0
 24 55  1  0  0  0
 26 56  1  0  0  0
M  END
> <s_m_source_file>
../2v95_ligand.sdf

> <i_m_source_file_index>
1

> <s_epik_input>
W0NIMl0xW0NIMl1DKD1PKVtDSF09QyhbQ0BdMTJbQ0gzXSlbQ0gyXVtDSDJdW0NAQEhdM1tDQEBIXTJbQ0BASF0oW09IXSlbQ0gyXVtDQEBdNChbQ0gzXSlbQ0BIXTNbQ0gyXVtDSDJdW0NAXTQoW09IXSlDKD1PKVtDSDJdW09IXQ==

> <s_epik_cmdline>
J2VwaWtfYXBwJywgJy1pbWFlJywgJ2xpZ2FuZF9wcm8ubWFlJywgJy1vbWFlJywgJ2xpZ2FuZF9wcmVwLm1hZScsICctbXMnLCAnMScsICctcGgnLCAnNycsICctcGh0JywgJzAuNScsICctbnQn

> <r_lp_tautomer_probability>
1

> <r_epik_Ionization_Penalty>
  0.0000

> <r_epik_Ionization_Penalty_Charging>
  0.0000

> <r_epik_Ionization_Penalty_Neutral>
  0.0000

> <r_epik_State_Penalty>
 -0.0000

> <r_epik_Charging_Adjusted_Penalty>
0

> <i_epik_Tot_Q>
0

> <i_epik_Tot_abs_Q>
0

$$$$
