2v96_ligand
                    3D
 Schrodinger Suite 2020-3.
 39 39  0  0  1  0            999 V2000
  101.6580   57.0820   22.4980 As  0  0  0  0  0  0
  103.0660   55.5790   23.3630 C   0  0  0  0  0  0
  100.6950   56.1470   20.7010 C   0  0  0  0  0  0
  102.7840   58.9110   21.8690 C   0  0  0  0  0  0
  100.1400   57.6590   24.0460 C   0  0  0  0  0  0
   99.2630   56.4830   24.5370 C   0  0  0  0  0  0
   99.9650   55.2190   24.4510 O   0  0  0  0  0  0
   99.3510   54.0910   25.0940 C   0  0  2  0  0  0
  100.4350   53.1850   25.7230 C   0  0  0  0  0  0
   98.3700   53.4650   24.0170 C   0  0  0  0  0  0
   96.9700   53.1920   24.3020 C   0  0  0  0  0  0
   96.1650   52.6430   23.2710 C   0  0  0  0  0  0
   96.6930   52.3660   22.0140 C   0  0  0  0  0  0
   98.0290   52.6170   21.7410 C   0  0  0  0  0  0
   98.8640   53.1590   22.7260 C   0  0  0  0  0  0
   96.2530   53.4410   25.6180 N   0  3  0  0  0  0
   95.0700   53.1940   25.7620 O   0  0  0  0  0  0
   96.8190   53.9070   26.5950 O   0  5  0  0  0  0
   99.9300   52.0790   26.2590 F   0  0  0  0  0  0
  101.3470   52.8000   24.8460 F   0  0  0  0  0  0
  101.0760   53.7950   26.7140 F   0  0  0  0  0  0
  103.8108   55.2954   22.6048 H   0  0  0  0  0  0
  102.5033   54.6871   23.6759 H   0  0  0  0  0  0
  103.5772   56.0144   24.2342 H   0  0  0  0  0  0
  101.4698   55.8790   19.9676 H   0  0  0  0  0  0
   99.9926   56.8620   20.2477 H   0  0  0  0  0  0
  100.1503   55.2414   21.0064 H   0  0  0  0  0  0
  103.5314   58.6383   21.1094 H   0  0  0  0  0  0
  103.2910   59.3478   22.7420 H   0  0  0  0  0  0
  102.0830   59.6459   21.4464 H   0  0  0  0  0  0
  100.6534   58.0708   24.9274 H   0  0  0  0  0  0
   99.4614   58.4178   23.6292 H   0  0  0  0  0  0
   98.9790   56.6506   25.5864 H   0  0  0  0  0  0
   98.3562   56.4183   23.9177 H   0  0  0  0  0  0
   98.7739   54.4162   25.9722 H   0  0  0  0  0  0
   95.1133   52.4343   23.4673 H   0  0  0  0  0  0
   96.0515   51.9485   21.2379 H   0  0  0  0  0  0
   98.4318   52.3911   20.7537 H   0  0  0  0  0  0
   99.9122   53.3485   22.4947 H   0  0  0  0  0  0
  1  2  1  0  0  0
  1  3  1  0  0  0
  1  4  1  0  0  0
  1  5  1  0  0  0
  2 22  1  0  0  0
  2 23  1  0  0  0
  2 24  1  0  0  0
  3 25  1  0  0  0
  3 26  1  0  0  0
  3 27  1  0  0  0
  4 28  1  0  0  0
  4 29  1  0  0  0
  4 30  1  0  0  0
  5  6  1  0  0  0
  5 31  1  0  0  0
  5 32  1  0  0  0
  6  7  1  0  0  0
  6 33  1  0  0  0
  6 34  1  0  0  0
  7  8  1  0  0  0
  8  9  1  0  0  0
  8 10  1  0  0  0
  8 35  1  0  0  0
  9 19  1  0  0  0
  9 20  1  0  0  0
  9 21  1  0  0  0
 10 11  2  0  0  0
 10 15  1  0  0  0
 11 12  1  0  0  0
 11 16  1  0  0  0
 12 13  2  0  0  0
 12 36  1  0  0  0
 13 14  1  0  0  0
 13 37  1  0  0  0
 14 15  2  0  0  0
 14 38  1  0  0  0
 15 39  1  0  0  0
 16 17  2  0  0  0
 16 18  1  0  0  0
M  CHG  2  16   1  18  -1
M  END
> <s_m_source_file>
../2v96_ligand.sdf

> <i_m_source_file_index>
1

> <s_epik_input>
W0NIM11bQXNIXShbQ0gzXSkoW0NIM10pW0NIMl1bQ0gyXU9bQ0BIXShDKEYpKEYpRiljMWMoW04rXSg9TylbTy1dKVtjSF1bY0hdW2NIXVtjSF0x

> <s_epik_cmdline>
J2VwaWtfYXBwJywgJy1pbWFlJywgJ2xpZ2FuZF9wcm8ubWFlJywgJy1vbWFlJywgJ2xpZ2FuZF9wcmVwLm1hZScsICctbXMnLCAnMScsICctcGgnLCAnNycsICctcGh0JywgJzAuNScsICctbnQn

> <r_lp_tautomer_probability>
1

> <r_epik_Ionization_Penalty>
  0.0000

> <r_epik_Ionization_Penalty_Charging>
  0.0000

> <r_epik_Ionization_Penalty_Neutral>
  0.0000

> <r_epik_State_Penalty>
 -0.0000

> <r_epik_Charging_Adjusted_Penalty>
0

> <i_epik_Tot_Q>
0

> <i_epik_Tot_abs_Q>
2

$$$$
