2va5_ligand
                    3D
 Schrodinger Suite 2020-3.
 33 35  0  0  1  0            999 V2000
   66.8150   49.0860    5.6170 N   0  0  0  0  0  0
   67.6180   48.9380    6.6930 C   0  0  0  0  0  0
   68.1700   47.7090    8.5350 C   0  0  0  0  0  0
   69.1850   48.6060    8.8140 C   0  0  0  0  0  0
   69.3650   49.6820    7.9650 C   0  0  0  0  0  0
   70.4490   50.6960    8.2230 C   0  0  0  0  0  0
   71.3950   50.8690    7.0530 C   0  0  0  0  0  0
   72.2010   49.6380    6.7190 C   0  0  0  0  0  0
   73.1700   49.1700    7.6010 C   0  0  0  0  0  0
   73.9390   48.0610    7.2970 C   0  0  0  0  0  0
   73.7530   47.4270    6.0760 C   0  0  0  0  0  0
   74.3400   46.3100    5.4600 C   0  0  0  0  0  0
   73.7310   46.1380    4.2190 C   0  0  0  0  0  0
   72.8110   47.1010    4.0620 N   0  3  0  0  0  0
   72.8030   47.9030    5.1820 C   0  0  0  0  0  0
   72.0260   49.0090    5.4910 C   0  0  0  0  0  0
   68.5780   49.8700    6.8950 N   0  0  0  0  0  0
   67.3780   47.8660    7.4680 N   0  0  0  0  0  0
   67.9590   46.6400    9.3490 O   0  0  0  0  0  0
   66.9553   49.9412    4.9395 H   0  0  0  0  0  0
   66.0208   48.3514    5.4182 H   0  0  0  0  0  0
   69.8281   48.4678    9.6831 H   0  0  0  0  0  0
   69.9931   51.6756    8.4292 H   0  0  0  0  0  0
   71.0476   50.3803    9.0902 H   0  0  0  0  0  0
   70.8203   51.1314    6.1525 H   0  0  0  0  0  0
   72.1123   51.6722    7.2771 H   0  0  0  0  0  0
   73.3259   49.6863    8.5482 H   0  0  0  0  0  0
   74.6799   47.6905    8.0055 H   0  0  0  0  0  0
   75.1328   45.6197    5.7840 H   0  0  0  0  0  0
   74.0408   45.3101    3.5643 H   0  0  0  0  0  0
   71.2875   49.3807    4.7806 H   0  0  0  0  0  0
   66.5641   47.1722    7.2104 H   0  0  0  0  0  0
   72.2135   47.1457    3.1395 H   0  0  0  0  0  0
  1  2  1  0  0  0
  1 20  1  0  0  0
  1 21  1  0  0  0
  2 17  2  0  0  0
  2 18  1  0  0  0
  3  4  1  0  0  0
  3 18  1  0  0  0
  3 19  2  0  0  0
  4  5  2  0  0  0
  4 22  1  0  0  0
  5  6  1  0  0  0
  5 17  1  0  0  0
  6  7  1  0  0  0
  6 23  1  0  0  0
  6 24  1  0  0  0
  7  8  1  0  0  0
  7 25  1  0  0  0
  7 26  1  0  0  0
  8  9  2  0  0  0
  8 16  1  0  0  0
  9 10  1  0  0  0
  9 27  1  0  0  0
 10 11  2  0  0  0
 10 28  1  0  0  0
 11 12  1  0  0  0
 11 15  1  0  0  0
 12 13  2  0  0  0
 12 29  1  0  0  0
 13 14  1  0  0  0
 13 30  1  0  0  0
 14 15  1  0  0  0
 14 33  1  0  0  0
 15 16  2  0  0  0
 16 31  1  0  0  0
 18 32  1  0  0  0
M  CHG  1  14   1
M  END
> <s_m_source_file>
../2va5_ligand.sdf

> <i_m_source_file_index>
1

> <s_epik_input>
W05IMl1jMW5jKFtjSF1jKD1PKVtuSF0xKVtDSDJdW0NIMl1jKFtjSF1bY0hdMilbY0hdYyhjMjMpW25IXVtjSF1bY0hdMw==

> <s_epik_cmdline>
J2VwaWtfYXBwJywgJy1pbWFlJywgJ2xpZ2FuZF9wcm8ubWFlJywgJy1vbWFlJywgJ2xpZ2FuZF9wcmVwLm1hZScsICctbXMnLCAnMScsICctcGgnLCAnNycsICctcGh0JywgJzAuNScsICctbnQn

> <r_lp_tautomer_probability>
1

> <r_epik_Ionization_Penalty>
  0.0006

> <r_epik_Ionization_Penalty_Charging>
  0.0001

> <r_epik_Ionization_Penalty_Neutral>
  0.0005

> <r_epik_State_Penalty>
 -0.0000

> <r_epik_Charging_Adjusted_Penalty>
7.60966086055693e-05

> <i_epik_Tot_Q>
1

> <i_epik_Tot_abs_Q>
1

$$$$
