2va6_ligand
                    3D
 Schrodinger Suite 2020-3.
 46 48  0  0  1  0            999 V2000
   71.3950   46.1950    1.0770 C   0  0  0  0  0  0
   71.2020   47.1960    2.0940 O   0  0  0  0  0  0
   71.9160   47.0710    3.2590 C   0  0  0  0  0  0
   72.9540   46.1640    3.4370 C   0  0  0  0  0  0
   73.6110   46.0870    4.6440 C   0  0  0  0  0  0
   73.2240   46.8950    5.6950 C   0  0  0  0  0  0
   72.1820   47.8100    5.5450 C   0  0  0  0  0  0
   71.5200   47.8750    4.3220 C   0  0  0  0  0  0
   71.7470   48.6410    6.7040 C   0  0  0  0  0  0
   72.6880   49.1000    7.6140 C   0  0  0  0  0  0
   72.2980   49.8250    8.7160 C   0  0  0  0  0  0
   70.9650   50.0730    8.9460 C   0  0  0  0  0  0
   69.9970   49.6180    8.0630 C   0  0  0  0  0  0
   68.5260   49.9240    8.3880 C   0  0  2  0  0  0
   68.3640   51.4040    8.7510 C   0  0  0  0  0  0
   68.0830   49.0930    9.5980 C   0  0  0  0  0  0
   67.7070   47.6880    9.2360 C   0  0  0  0  0  0
   68.1030   46.7320    9.8790 O   0  0  0  0  0  0
   66.9550   47.5510    8.1180 N   0  0  0  0  0  0
   66.4060   46.2200    7.8170 C   0  0  0  0  0  0
   66.8320   48.6430    7.2040 C   0  0  0  0  0  0
   65.8730   48.6290    6.2740 N   0  0  0  0  0  0
   67.6470   49.6740    7.2170 N   0  3  0  0  0  0
   70.3970   48.8890    6.9490 C   0  0  0  0  0  0
   70.7606   46.4273    0.2089 H   0  0  0  0  0  0
   71.1212   45.2078    1.4776 H   0  0  0  0  0  0
   72.4506   46.1853    0.7677 H   0  0  0  0  0  0
   73.2493   45.5102    2.6164 H   0  0  0  0  0  0
   74.4375   45.3877    4.7705 H   0  0  0  0  0  0
   73.7387   46.8168    6.6526 H   0  0  0  0  0  0
   70.6835   48.5625    4.1966 H   0  0  0  0  0  0
   73.7445   48.8845    7.4546 H   0  0  0  0  0  0
   73.0484   50.2044    9.4096 H   0  0  0  0  0  0
   70.6659   50.6332    9.8319 H   0  0  0  0  0  0
   68.9987   51.6405    9.6177 H   0  0  0  0  0  0
   67.3121   51.6073    9.0004 H   0  0  0  0  0  0
   68.6649   52.0264    7.8954 H   0  0  0  0  0  0
   68.9041   49.0420   10.3282 H   0  0  0  0  0  0
   67.2057   49.5643   10.0651 H   0  0  0  0  0  0
   66.6152   45.5390    8.6552 H   0  0  0  0  0  0
   66.8737   45.8290    6.9014 H   0  0  0  0  0  0
   65.3186   46.2967    7.6694 H   0  0  0  0  0  0
   65.1673   47.7867    6.2243 H   0  0  0  0  0  0
   67.6814   50.3588    6.3568 H   0  0  0  0  0  0
   69.6457   48.5064    6.2582 H   0  0  0  0  0  0
   65.7891   49.4598    5.5580 H   0  0  0  0  0  0
  1  2  1  0  0  0
  1 25  1  0  0  0
  1 26  1  0  0  0
  1 27  1  0  0  0
  2  3  1  0  0  0
  3  4  2  0  0  0
  3  8  1  0  0  0
  4  5  1  0  0  0
  4 28  1  0  0  0
  5  6  2  0  0  0
  5 29  1  0  0  0
  6  7  1  0  0  0
  6 30  1  0  0  0
  7  8  2  0  0  0
  7  9  1  0  0  0
  8 31  1  0  0  0
  9 10  2  0  0  0
  9 24  1  0  0  0
 10 11  1  0  0  0
 10 32  1  0  0  0
 11 12  2  0  0  0
 11 33  1  0  0  0
 12 13  1  0  0  0
 12 34  1  0  0  0
 13 14  1  0  0  0
 13 24  2  0  0  0
 14 15  1  0  0  0
 14 16  1  0  0  0
 14 23  1  0  0  0
 15 35  1  0  0  0
 15 36  1  0  0  0
 15 37  1  0  0  0
 16 17  1  0  0  0
 16 38  1  0  0  0
 16 39  1  0  0  0
 17 18  2  0  0  0
 17 19  1  0  0  0
 19 20  1  0  0  0
 19 21  1  0  0  0
 20 40  1  0  0  0
 20 41  1  0  0  0
 20 42  1  0  0  0
 21 22  1  0  0  0
 21 23  2  0  0  0
 22 43  1  0  0  0
 22 46  1  0  0  0
 23 44  1  0  0  0
 24 45  1  0  0  0
M  CHG  1  23   1
M  END
> <s_m_source_file>
../2va6_ligand.sdf

> <i_m_source_file_index>
1

> <s_epik_input>
W0NIM11PYzFbY0hdW2NIXVtjSF1jKFtjSF0xKS1jMltjSF1bY0hdW2NIXWMoW2NIXTIpW0NAXTMoW0NIM10pW0NIMl1DKD1PKU4oW0NIM10pL0MoPU5cW0hdKVtOSF0z

> <s_epik_cmdline>
J2VwaWtfYXBwJywgJy1pbWFlJywgJ2xpZ2FuZF9wcm8ubWFlJywgJy1vbWFlJywgJ2xpZ2FuZF9wcmVwLm1hZScsICctbXMnLCAnMScsICctcGgnLCAnNycsICctcGh0JywgJzAuNScsICctbnQn

> <r_lp_tautomer_probability>
1

> <r_epik_Ionization_Penalty>
  0.0013

> <r_epik_Ionization_Penalty_Charging>
  0.0013

> <r_epik_Ionization_Penalty_Neutral>
  0.0000

> <r_epik_State_Penalty>
 -0.0000

> <r_epik_Charging_Adjusted_Penalty>
0.00131919318209531

> <i_epik_Tot_Q>
1

> <i_epik_Tot_abs_Q>
1

> <s_epik_Chemistry_Notes>
This compound has an imine and may undergo hydrolysis.

$$$$
