2va7_ligand
                    3D
 Schrodinger Suite 2020-3.
 52 54  0  0  1  0            999 V2000
   70.7570   46.1140    0.7280 C   0  0  0  0  0  0
   70.8660   46.8500    1.9530 O   0  0  0  0  0  0
   71.7430   46.3930    2.9030 C   0  0  0  0  0  0
   72.6030   45.3040    2.9600 C   0  0  0  0  0  0
   73.3800   45.0890    4.0740 C   0  0  0  0  0  0
   73.3040   45.9500    5.1480 C   0  0  0  0  0  0
   72.4450   47.0470    5.1190 C   0  0  0  0  0  0
   71.6730   47.2550    3.9800 C   0  0  0  0  0  0
   72.3680   47.9900    6.2730 C   0  0  0  0  0  0
   73.4870   48.2410    7.0660 C   0  0  0  0  0  0
   73.4010   49.0940    8.1500 C   0  0  0  0  0  0
   72.2130   49.7290    8.4410 C   0  0  0  0  0  0
   71.0800   49.4940    7.6690 C   0  0  0  0  0  0
   69.7800   50.1910    7.9790 C   0  0  0  0  0  0
   68.9200   49.4170    8.9590 C   0  0  0  0  0  0
   67.4550   49.9190    9.1190 C   0  0  2  0  0  0
   67.4330   51.4000    9.5280 C   0  0  0  0  0  0
   66.7620   49.0590   10.1800 C   0  0  0  0  0  0
   66.5340   47.6540    9.7110 C   0  0  0  0  0  0
   66.5570   46.7110   10.4760 O   0  0  0  0  0  0
   66.2730   47.4990    8.3750 N   0  0  0  0  0  0
   66.1580   46.1340    7.8410 C   0  0  0  0  0  0
   66.1720   48.6270    7.5270 C   0  0  0  0  0  0
   66.7210   49.7830    7.8310 N   0  3  0  0  0  0
   65.5550   48.4870    6.3540 N   0  0  0  0  0  0
   71.1710   48.6210    6.5930 C   0  0  0  0  0  0
   70.0198   46.6005    0.0723 H   0  0  0  0  0  0
   70.4321   45.0859    0.9457 H   0  0  0  0  0  0
   71.7354   46.0908    0.2259 H   0  0  0  0  0  0
   72.6624   44.6158    2.1169 H   0  0  0  0  0  0
   74.0576   44.2359    4.1079 H   0  0  0  0  0  0
   73.9216   45.7710    6.0281 H   0  0  0  0  0  0
   71.0017   48.1127    3.9370 H   0  0  0  0  0  0
   74.4365   47.7610    6.8293 H   0  0  0  0  0  0
   74.2760   49.2651    8.7771 H   0  0  0  0  0  0
   72.1608   50.4203    9.2821 H   0  0  0  0  0  0
   69.9886   51.1770    8.4197 H   0  0  0  0  0  0
   69.2022   50.3187    7.0517 H   0  0  0  0  0  0
   68.8515   48.3674    8.6372 H   0  0  0  0  0  0
   69.3721   49.4646    9.9607 H   0  0  0  0  0  0
   67.9707   51.5257   10.4794 H   0  0  0  0  0  0
   66.3911   51.7315    9.6491 H   0  0  0  0  0  0
   67.9214   52.0030    8.7483 H   0  0  0  0  0  0
   67.3861   49.0196   11.0849 H   0  0  0  0  0  0
   65.7847   49.4989   10.4275 H   0  0  0  0  0  0
   66.2648   45.4091    8.6615 H   0  0  0  0  0  0
   66.9493   45.9639    7.0961 H   0  0  0  0  0  0
   65.1739   46.0078    7.3660 H   0  0  0  0  0  0
   66.6342   50.6324    7.1375 H   0  0  0  0  0  0
   65.0918   47.5255    6.0875 H   0  0  0  0  0  0
   70.2862   48.4264    5.9869 H   0  0  0  0  0  0
   65.5090   49.3329    5.6523 H   0  0  0  0  0  0
  1  2  1  0  0  0
  1 27  1  0  0  0
  1 28  1  0  0  0
  1 29  1  0  0  0
  2  3  1  0  0  0
  3  4  2  0  0  0
  3  8  1  0  0  0
  4  5  1  0  0  0
  4 30  1  0  0  0
  5  6  2  0  0  0
  5 31  1  0  0  0
  6  7  1  0  0  0
  6 32  1  0  0  0
  7  8  2  0  0  0
  7  9  1  0  0  0
  8 33  1  0  0  0
  9 10  2  0  0  0
  9 26  1  0  0  0
 10 11  1  0  0  0
 10 34  1  0  0  0
 11 12  2  0  0  0
 11 35  1  0  0  0
 12 13  1  0  0  0
 12 36  1  0  0  0
 13 14  1  0  0  0
 13 26  2  0  0  0
 14 15  1  0  0  0
 14 37  1  0  0  0
 14 38  1  0  0  0
 15 16  1  0  0  0
 15 39  1  0  0  0
 15 40  1  0  0  0
 16 17  1  0  0  0
 16 18  1  0  0  0
 16 24  1  0  0  0
 17 41  1  0  0  0
 17 42  1  0  0  0
 17 43  1  0  0  0
 18 19  1  0  0  0
 18 44  1  0  0  0
 18 45  1  0  0  0
 19 20  2  0  0  0
 19 21  1  0  0  0
 21 22  1  0  0  0
 21 23  1  0  0  0
 22 46  1  0  0  0
 22 47  1  0  0  0
 22 48  1  0  0  0
 23 24  2  0  0  0
 23 25  1  0  0  0
 24 49  1  0  0  0
 25 50  1  0  0  0
 25 52  1  0  0  0
 26 51  1  0  0  0
M  CHG  1  24   1
M  END
> <s_m_source_file>
../2va7_ligand.sdf

> <i_m_source_file_index>
1

> <s_epik_input>
W0NIM11PYzFbY0hdW2NIXVtjSF1jKFtjSF0xKS1jMltjSF1bY0hdW2NIXWMoW2NIXTIpW0NIMl1bQ0gyXVtDQF0zKFtDSDNdKVtDSDJdQyg9TylOKFtDSDNdKS9DKFtOSF0zKT1OXFtIXQ==

> <s_epik_cmdline>
J2VwaWtfYXBwJywgJy1pbWFlJywgJ2xpZ2FuZF9wcm8ubWFlJywgJy1vbWFlJywgJ2xpZ2FuZF9wcmVwLm1hZScsICctbXMnLCAnMScsICctcGgnLCAnNycsICctcGh0JywgJzAuNScsICctbnQn

> <r_lp_tautomer_probability>
1

> <r_epik_Ionization_Penalty>
  0.0001

> <r_epik_Ionization_Penalty_Charging>
  0.0001

> <r_epik_Ionization_Penalty_Neutral>
  0.0000

> <r_epik_State_Penalty>
 -0.0000

> <r_epik_Charging_Adjusted_Penalty>
0.000146156290403707

> <i_epik_Tot_Q>
1

> <i_epik_Tot_abs_Q>
1

> <s_epik_Chemistry_Notes>
This compound has an imine and may undergo hydrolysis.

$$$$
