2vba_ligand
                    3D
 Schrodinger Suite 2020-3.
 28 29  0  0  1  0            999 V2000
   41.8960   69.6860   64.7120 N   0  0  0  0  0  0
   40.5730   69.9040   64.5970 C   0  0  0  0  0  0
   39.5920   69.0510   65.0340 N   0  0  0  0  0  0
   42.6290   70.7010   64.1770 C   0  0  0  0  0  0
   41.7210   71.7270   63.5900 C   0  0  0  0  0  0
   42.0220   73.0310   62.8980 C   0  0  0  0  0  0
   44.1270   70.7420   64.1830 C   0  0  0  0  0  0
   39.6590   67.8230   65.7050 C   0  0  0  0  0  0
   38.5050   67.3760   66.3720 C   0  0  0  0  0  0
   38.5070   66.1550   67.0750 C   0  0  0  0  0  0
   39.6590   65.3730   67.0820 C   0  0  0  0  0  0
   40.7940   65.8160   66.4030 C   0  0  0  0  0  0
   40.8070   67.0340   65.7090 C   0  0  0  0  0  0
   40.0450   71.3360   63.7750 S   0  0  0  0  0  0
   43.4480   73.4440   62.7320 C   0  0  0  0  0  0
   41.1070   73.7350   62.4680 O   0  0  0  0  0  0
   38.5333   69.2995   64.8686 H   0  0  0  0  0  0
   44.5163   69.8457   64.6880 H   0  0  0  0  0  0
   44.4670   71.6411   64.7178 H   0  0  0  0  0  0
   44.4972   70.7693   63.1475 H   0  0  0  0  0  0
   37.5986   67.9808   66.3450 H   0  0  0  0  0  0
   37.6152   65.8257   67.6083 H   0  0  0  0  0  0
   39.6738   64.4218   67.6141 H   0  0  0  0  0  0
   41.6931   65.1999   66.4122 H   0  0  0  0  0  0
   41.7028   67.3591   65.1800 H   0  0  0  0  0  0
   44.1044   72.6843   63.1815 H   0  0  0  0  0  0
   43.6103   74.4106   63.2313 H   0  0  0  0  0  0
   43.6793   73.5411   61.6610 H   0  0  0  0  0  0
  1  2  2  0  0  0
  1  4  1  0  0  0
  2  3  1  0  0  0
  2 14  1  0  0  0
  3  8  1  0  0  0
  3 17  1  0  0  0
  4  5  2  0  0  0
  4  7  1  0  0  0
  5  6  1  0  0  0
  5 14  1  0  0  0
  6 15  1  0  0  0
  6 16  2  0  0  0
  7 18  1  0  0  0
  7 19  1  0  0  0
  7 20  1  0  0  0
  8  9  2  0  0  0
  8 13  1  0  0  0
  9 10  1  0  0  0
  9 21  1  0  0  0
 10 11  2  0  0  0
 10 22  1  0  0  0
 11 12  1  0  0  0
 11 23  1  0  0  0
 12 13  2  0  0  0
 12 24  1  0  0  0
 13 25  1  0  0  0
 15 26  1  0  0  0
 15 27  1  0  0  0
 15 28  1  0  0  0
M  END
> <s_m_source_file>
../2vba_ligand.sdf

> <i_m_source_file_index>
1

> <s_epik_input>
W0NIM11DKD1PKWMoczEpYyhbQ0gzXSluYzFbTkhdYzJbY0hdW2NIXVtjSF1bY0hdW2NIXTI=

> <s_epik_cmdline>
J2VwaWtfYXBwJywgJy1pbWFlJywgJ2xpZ2FuZF9wcm8ubWFlJywgJy1vbWFlJywgJ2xpZ2FuZF9wcmVwLm1hZScsICctbXMnLCAnMScsICctcGgnLCAnNycsICctcGh0JywgJzAuNScsICctbnQn

> <r_lp_tautomer_probability>
1

> <r_epik_Ionization_Penalty>
  0.0000

> <r_epik_Ionization_Penalty_Charging>
  0.0000

> <r_epik_Ionization_Penalty_Neutral>
  0.0000

> <r_epik_State_Penalty>
 -0.0000

> <r_epik_Charging_Adjusted_Penalty>
0

> <i_epik_Tot_Q>
0

> <i_epik_Tot_abs_Q>
0

$$$$
