2vcb_ligand
                    3D
 Schrodinger Suite 2020-3.
 44 45  0  0  1  0            999 V2000
   12.3370  -10.0420   -9.0340 C   0  0  0  0  0  0
   12.6830  -11.3980   -8.4270 C   0  0  0  0  0  0
   13.4360  -11.4470   -7.4470 O   0  0  0  0  0  0
   12.1170  -12.4630   -9.0340 N   0  0  0  0  0  0
   12.3560  -13.8500   -8.5660 C   0  0  2  0  0  0
   13.4360  -14.5470   -9.3820 C   0  0  1  0  0  0
   14.6360  -13.7710   -9.3550 O   0  0  0  0  0  0
   13.6830  -15.9410   -8.7830 C   0  0  2  0  0  0
   14.6850  -16.6270   -9.5140 O   0  0  0  0  0  0
   12.4060  -16.7930   -8.7790 C   0  0  1  0  0  0
   12.6330  -18.0320   -7.8980 C   0  0  0  0  0  0
   12.5050  -17.6800   -6.5130 O   0  0  0  0  0  0
   11.2520  -16.0910   -8.2460 O   0  0  0  0  0  0
   11.1230  -14.7750   -8.6070 C   0  0  0  0  0  0
    9.9160  -14.3730   -8.9560 N   0  0  0  0  0  0
    8.9580  -15.3360   -8.9250 O   0  0  0  0  0  0
    7.7260  -14.7910   -8.8220 C   0  0  0  0  0  0
    7.2850  -14.3720   -7.7500 O   0  0  0  0  0  0
    7.0250  -14.7440   -9.9520 N   0  0  0  0  0  0
    7.0680  -14.6290  -10.9310 C   0  0  0  0  0  0
    8.0800  -15.3940  -11.4970 C   0  0  0  0  0  0
    8.1650  -15.5080  -12.8850 C   0  0  0  0  0  0
    7.2510  -14.8630  -13.7170 C   0  0  0  0  0  0
    6.2370  -14.0900  -13.1720 C   0  0  0  0  0  0
    6.1560  -13.9780  -11.7820 C   0  0  0  0  0  0
   12.8458   -9.2469   -8.4692 H   0  0  0  0  0  0
   11.2491   -9.8863   -8.9873 H   0  0  0  0  0  0
   12.6666  -10.0151  -10.0831 H   0  0  0  0  0  0
   11.4626  -12.2794   -9.8989 H   0  0  0  0  0  0
   12.6636  -13.6656   -7.5261 H   0  0  0  0  0  0
   13.1651  -14.6053  -10.4465 H   0  0  0  0  0  0
   14.6355  -12.7435   -9.7476 H   0  0  0  0  0  0
   14.0839  -15.8304   -7.7646 H   0  0  0  0  0  0
   15.6824  -16.1788   -9.6339 H   0  0  0  0  0  0
   12.1470  -17.0261   -9.8224 H   0  0  0  0  0  0
   11.8861  -18.8004   -8.1464 H   0  0  0  0  0  0
   13.6425  -18.4301   -8.0782 H   0  0  0  0  0  0
   12.6366  -18.4475   -5.7360 H   0  0  0  0  0  0
    5.9327  -14.8715   -9.9273 H   0  0  0  0  0  0
    8.8038  -15.9025  -10.8602 H   0  0  0  0  0  0
    8.9588  -16.1110  -13.3259 H   0  0  0  0  0  0
    7.3337  -14.9666  -14.7989 H   0  0  0  0  0  0
    5.5186  -13.5807  -13.8144 H   0  0  0  0  0  0
    5.3645  -13.3695  -11.3446 H   0  0  0  0  0  0
  1  2  1  0  0  0
  1 26  1  0  0  0
  1 27  1  0  0  0
  1 28  1  0  0  0
  2  3  2  0  0  0
  2  4  1  0  0  0
  4  5  1  0  0  0
  4 29  1  0  0  0
  5  6  1  0  0  0
  5 14  1  0  0  0
  5 30  1  0  0  0
  6  7  1  0  0  0
  6  8  1  0  0  0
  6 31  1  0  0  0
  7 32  1  0  0  0
  8  9  1  0  0  0
  8 10  1  0  0  0
  8 33  1  0  0  0
  9 34  1  0  0  0
 10 11  1  0  0  0
 10 13  1  0  0  0
 10 35  1  0  0  0
 11 12  1  0  0  0
 11 36  1  0  0  0
 11 37  1  0  0  0
 12 38  1  0  0  0
 13 14  1  0  0  0
 14 15  2  0  0  0
 15 16  1  0  0  0
 16 17  1  0  0  0
 17 18  2  0  0  0
 17 19  1  0  0  0
 19 20  1  0  0  0
 19 39  1  0  0  0
 20 21  2  0  0  0
 20 25  1  0  0  0
 21 22  1  0  0  0
 21 40  1  0  0  0
 22 23  2  0  0  0
 22 41  1  0  0  0
 23 24  1  0  0  0
 23 42  1  0  0  0
 24 25  2  0  0  0
 24 43  1  0  0  0
 25 44  1  0  0  0
M  END
> <s_m_source_file>
../2vcb_ligand.sdf

> <i_m_source_file_index>
1

> <s_epik_input>
W0NIM11DKD1PKVtOSF1bQ0BASF0xW0NAQEhdKFtPSF0pW0NASF0oW09IXSlbQ0BASF0oW0NIMl1bT0hdKU9DXDE9Ti9PQyg9TylbTkhdYzJbY0hdW2NIXVtjSF1bY0hdW2NIXTI=

> <s_epik_cmdline>
J2VwaWtfYXBwJywgJy1pbWFlJywgJ2xpZ2FuZF9wcm8ubWFlJywgJy1vbWFlJywgJ2xpZ2FuZF9wcmVwLm1hZScsICctbXMnLCAnMScsICctcGgnLCAnNycsICctcGh0JywgJzAuNScsICctbnQn

> <r_lp_tautomer_probability>
1

> <r_epik_Ionization_Penalty>
  0.0000

> <r_epik_Ionization_Penalty_Charging>
  0.0000

> <r_epik_Ionization_Penalty_Neutral>
  0.0000

> <r_epik_State_Penalty>
 -0.0000

> <r_epik_Charging_Adjusted_Penalty>
0

> <i_epik_Tot_Q>
0

> <i_epik_Tot_abs_Q>
0

> <s_epik_Chemistry_Notes>
This compound has an imine and may undergo hydrolysis.

$$$$
