2vcg_ligand
                    3D
 Schrodinger Suite 2020-3.
 51 51  0  0  1  0            999 V2000
   -7.9200   -4.7190   34.1180 C   0  0  0  0  0  0
   -8.3870   -3.7720   35.0200 C   0  0  0  0  0  0
   -8.7080   -4.1520   36.3220 C   0  0  0  0  0  0
   -9.3360   -2.8370   37.5290 Br  0  0  0  0  0  0
   -8.5750   -5.4820   36.7280 C   0  0  0  0  0  0
   -8.1130   -6.4330   35.8200 C   0  0  0  0  0  0
   -7.7750   -6.0440   34.5190 C   0  0  0  0  0  0
   -7.2810   -7.0610   33.4940 C   0  0  0  0  0  0
   -5.7900   -7.4490   33.5930 C   0  0  1  0  0  0
   -4.8750   -6.2760   33.1670 C   0  0  0  0  0  0
   -3.7930   -6.0940   33.7240 O   0  0  0  0  0  0
   -5.2510   -5.4330   32.1560 O   0  0  0  0  0  0
   -4.1740   -5.1190   31.2530 C   0  0  0  0  0  0
   -5.4240   -7.9620   34.9410 N   0  0  0  0  0  0
   -5.9390   -9.0580   35.5270 C   0  0  0  0  0  0
   -6.8040   -9.7900   35.0440 O   0  0  0  0  0  0
   -5.3710   -9.3640   36.9180 C   0  0  0  0  0  0
   -5.1270  -10.8560   37.1570 C   0  0  0  0  0  0
   -3.7690  -11.0820   37.8280 C   0  0  0  0  0  0
   -3.8200  -10.9460   39.3570 C   0  0  0  0  0  0
   -4.3170  -12.2160   40.0610 C   0  0  0  0  0  0
   -3.2630  -13.3130   40.0540 C   0  0  0  0  0  0
   -3.0110  -13.9380   41.4360 C   0  0  0  0  0  0
   -1.8990  -14.3290   41.7500 O   0  0  0  0  0  0
   -4.0460  -14.0240   42.2470 N   0  0  0  0  0  0
   -3.8690  -14.5640   43.4570 O   0  0  0  0  0  0
   -7.6677   -4.4256   33.0990 H   0  0  0  0  0  0
   -8.5023   -2.7333   34.7103 H   0  0  0  0  0  0
   -8.8305   -5.7736   37.7467 H   0  0  0  0  0  0
   -8.0153   -7.4757   36.1221 H   0  0  0  0  0  0
   -7.8488   -7.9968   33.6030 H   0  0  0  0  0  0
   -7.4263   -6.6599   32.4801 H   0  0  0  0  0  0
   -5.6188   -8.3036   32.9219 H   0  0  0  0  0  0
   -4.5398   -4.4412   30.4676 H   0  0  0  0  0  0
   -3.7995   -6.0453   30.7928 H   0  0  0  0  0  0
   -3.3600   -4.6307   31.8089 H   0  0  0  0  0  0
   -4.6731   -7.4324   35.5458 H   0  0  0  0  0  0
   -4.4084   -8.8466   37.0429 H   0  0  0  0  0  0
   -6.0766   -9.0163   37.6869 H   0  0  0  0  0  0
   -5.9168  -11.2568   37.8093 H   0  0  0  0  0  0
   -5.1409  -11.3886   36.1946 H   0  0  0  0  0  0
   -3.4097  -12.0955   37.5963 H   0  0  0  0  0  0
   -3.0468  -10.3422   37.4524 H   0  0  0  0  0  0
   -2.8121  -10.7271   39.7394 H   0  0  0  0  0  0
   -4.5016  -10.1268   39.6297 H   0  0  0  0  0  0
   -4.5659  -11.9821   41.1066 H   0  0  0  0  0  0
   -5.2129  -12.5937   39.5465 H   0  0  0  0  0  0
   -3.5816  -14.1233   39.3817 H   0  0  0  0  0  0
   -2.3061  -12.8999   39.7024 H   0  0  0  0  0  0
   -5.0404  -13.6624   41.9462 H   0  0  0  0  0  0
   -4.7177  -14.6468   44.1518 H   0  0  0  0  0  0
  1  2  2  0  0  0
  1  7  1  0  0  0
  1 27  1  0  0  0
  2  3  1  0  0  0
  2 28  1  0  0  0
  3  4  1  0  0  0
  3  5  2  0  0  0
  5  6  1  0  0  0
  5 29  1  0  0  0
  6  7  2  0  0  0
  6 30  1  0  0  0
  7  8  1  0  0  0
  8  9  1  0  0  0
  8 31  1  0  0  0
  8 32  1  0  0  0
  9 10  1  0  0  0
  9 14  1  0  0  0
  9 33  1  0  0  0
 10 11  2  0  0  0
 10 12  1  0  0  0
 12 13  1  0  0  0
 13 34  1  0  0  0
 13 35  1  0  0  0
 13 36  1  0  0  0
 14 15  1  0  0  0
 14 37  1  0  0  0
 15 16  2  0  0  0
 15 17  1  0  0  0
 17 18  1  0  0  0
 17 38  1  0  0  0
 17 39  1  0  0  0
 18 19  1  0  0  0
 18 40  1  0  0  0
 18 41  1  0  0  0
 19 20  1  0  0  0
 19 42  1  0  0  0
 19 43  1  0  0  0
 20 21  1  0  0  0
 20 44  1  0  0  0
 20 45  1  0  0  0
 21 22  1  0  0  0
 21 46  1  0  0  0
 21 47  1  0  0  0
 22 23  1  0  0  0
 22 48  1  0  0  0
 22 49  1  0  0  0
 23 24  2  0  0  0
 23 25  1  0  0  0
 25 26  1  0  0  0
 25 50  1  0  0  0
 26 51  1  0  0  0
M  END
> <s_m_source_file>
../2vcg_ligand.sdf

> <i_m_source_file_index>
1

> <s_epik_input>
QnJjMVtjSF1bY0hdYyhbY0hdW2NIXTEpW0NIMl1bQ0BASF0oQyg9TylPW0NIM10pW05IXUMoPU8pW0NIMl1bQ0gyXVtDSDJdW0NIMl1bQ0gyXVtDSDJdQyg9TylbTkhdW09IXQ==

> <s_epik_cmdline>
J2VwaWtfYXBwJywgJy1pbWFlJywgJ2xpZ2FuZF9wcm8ubWFlJywgJy1vbWFlJywgJ2xpZ2FuZF9wcmVwLm1hZScsICctbXMnLCAnMScsICctcGgnLCAnNycsICctcGh0JywgJzAuNScsICctbnQn

> <r_lp_tautomer_probability>
1

> <r_epik_Ionization_Penalty>
  0.0036

> <r_epik_Ionization_Penalty_Charging>
  0.0000

> <r_epik_Ionization_Penalty_Neutral>
  0.0036

> <r_epik_State_Penalty>
 -0.0000

> <r_epik_Charging_Adjusted_Penalty>
0

> <i_epik_Tot_Q>
0

> <i_epik_Tot_abs_Q>
0

> <s_epik_Chemistry_Notes>
This compound has an ester and may undergo hydrolysis at high or low pH. This compound has a N-S or N-O group and may undergo hydrolysis at high or low pH.

$$$$
