2vci_ligand
                    3D
 Schrodinger Suite 2020-3.
 65 68  0  0  1  0            999 V2000
   35.4870    4.9960   21.3240 C   0  0  0  0  0  0
   35.9860    3.5600   21.0790 C   0  0  0  0  0  0
   36.8710    3.2020   22.1750 O   0  0  0  0  0  0
   36.1890    3.1500   23.4720 C   0  0  0  0  0  0
   35.6590    4.5420   23.8420 C   0  0  0  0  0  0
   34.9570    5.2020   22.7050 N   0  0  0  0  0  0
   35.1460    6.6380   22.9490 C   0  0  0  0  0  0
   34.0970    7.1990   23.8990 C   0  0  0  0  0  0
   32.7330    7.0520   23.5820 C   0  0  0  0  0  0
   31.7720    7.5550   24.4550 C   0  0  0  0  0  0
   34.5160    7.8380   25.0770 C   0  0  0  0  0  0
   33.5580    8.3410   25.9530 C   0  0  0  0  0  0
   32.1880    8.2030   25.6380 C   0  0  0  0  0  0
   31.1920    8.7610   26.4740 C   0  0  0  0  0  0
   30.8160    8.3590   27.7390 C   0  0  0  0  0  0
   31.4670    7.2140   28.5180 C   0  0  0  0  0  0
   32.0850    6.3470   27.8920 O   0  0  0  0  0  0
   31.3180    7.3320   29.8730 N   0  0  0  0  0  0
   31.8070    6.4480   30.9560 C   0  0  0  0  0  0
   33.0170    5.6360   30.4970 C   0  0  0  0  0  0
   29.8220    9.1600   28.1590 N   0  0  0  0  0  0
   29.5230   10.1560   27.1500 O   0  0  0  0  0  0
   30.3810    9.8760   26.1290 C   0  0  0  0  0  0
   30.4470   10.5530   24.9090 C   0  0  0  0  0  0
   31.7250   10.8640   24.5100 C   0  0  0  0  0  0
   31.9690   11.5150   23.3220 C   0  0  0  0  0  0
   33.3810   11.9070   22.9720 C   0  0  0  0  0  0
   33.4370   13.2730   23.6870 C   0  0  0  0  0  0
   34.4610   10.9450   23.4980 C   0  0  0  0  0  0
   30.8980   11.8950   22.5190 C   0  0  0  0  0  0
   31.1360   12.5340   21.3480 O   0  0  0  0  0  0
   29.5950   11.5770   22.9210 C   0  0  0  0  0  0
   29.3470   10.9020   24.1020 C   0  0  0  0  0  0
   28.0580   10.6360   24.4290 O   0  0  0  0  0  0
   36.3167    5.7028   21.1757 H   0  0  0  0  0  0
   34.6768    5.2283   20.6172 H   0  0  0  0  0  0
   35.1266    2.8742   21.0437 H   0  0  0  0  0  0
   36.5279    3.5183   20.1226 H   0  0  0  0  0  0
   35.3464    2.4451   23.4152 H   0  0  0  0  0  0
   36.8962    2.8146   24.2449 H   0  0  0  0  0  0
   34.9472    4.4535   24.6759 H   0  0  0  0  0  0
   36.4985    5.1859   24.1432 H   0  0  0  0  0  0
   36.1375    6.8068   23.3944 H   0  0  0  0  0  0
   35.0739    7.1843   21.9970 H   0  0  0  0  0  0
   32.4325    6.5496   22.6626 H   0  0  0  0  0  0
   30.7112    7.4496   24.2276 H   0  0  0  0  0  0
   35.5776    7.9389   25.3027 H   0  0  0  0  0  0
   33.8626    8.8373   26.8744 H   0  0  0  0  0  0
   30.7421    8.2364   30.1190 H   0  0  0  0  0  0
   32.1005    7.0582   31.8229 H   0  0  0  0  0  0
   31.0073    5.7526   31.2509 H   0  0  0  0  0  0
   33.3583    4.9899   31.3193 H   0  0  0  0  0  0
   33.8285    6.3195   30.2067 H   0  0  0  0  0  0
   32.7354    5.0140   29.6346 H   0  0  0  0  0  0
   32.5643   10.5889   25.1488 H   0  0  0  0  0  0
   33.5690   11.8988   21.8882 H   0  0  0  0  0  0
   32.6521   13.9301   23.2843 H   0  0  0  0  0  0
   34.4219   13.7338   23.5207 H   0  0  0  0  0  0
   33.2769   13.1290   24.7657 H   0  0  0  0  0  0
   34.3883    9.9855   22.9651 H   0  0  0  0  0  0
   34.3108   10.7786   24.5749 H   0  0  0  0  0  0
   35.4558   11.3834   23.3299 H   0  0  0  0  0  0
   32.1680   12.7739   21.0522 H   0  0  0  0  0  0
   28.7567   11.8683   22.2882 H   0  0  0  0  0  0
   27.8264   10.1006   25.3616 H   0  0  0  0  0  0
  1  2  1  0  0  0
  1  6  1  0  0  0
  1 35  1  0  0  0
  1 36  1  0  0  0
  2  3  1  0  0  0
  2 37  1  0  0  0
  2 38  1  0  0  0
  3  4  1  0  0  0
  4  5  1  0  0  0
  4 39  1  0  0  0
  4 40  1  0  0  0
  5  6  1  0  0  0
  5 41  1  0  0  0
  5 42  1  0  0  0
  6  7  1  0  0  0
  7  8  1  0  0  0
  7 43  1  0  0  0
  7 44  1  0  0  0
  8  9  2  0  0  0
  8 11  1  0  0  0
  9 10  1  0  0  0
  9 45  1  0  0  0
 10 13  2  0  0  0
 10 46  1  0  0  0
 11 12  2  0  0  0
 11 47  1  0  0  0
 12 13  1  0  0  0
 12 48  1  0  0  0
 13 14  1  0  0  0
 14 15  1  0  0  0
 14 23  2  0  0  0
 15 16  1  0  0  0
 15 21  2  0  0  0
 16 17  2  0  0  0
 16 18  1  0  0  0
 18 19  1  0  0  0
 18 49  1  0  0  0
 19 20  1  0  0  0
 19 50  1  0  0  0
 19 51  1  0  0  0
 20 52  1  0  0  0
 20 53  1  0  0  0
 20 54  1  0  0  0
 21 22  1  0  0  0
 22 23  1  0  0  0
 23 24  1  0  0  0
 24 25  2  0  0  0
 24 33  1  0  0  0
 25 26  1  0  0  0
 25 55  1  0  0  0
 26 27  1  0  0  0
 26 30  2  0  0  0
 27 28  1  0  0  0
 27 29  1  0  0  0
 27 56  1  0  0  0
 28 57  1  0  0  0
 28 58  1  0  0  0
 28 59  1  0  0  0
 29 60  1  0  0  0
 29 61  1  0  0  0
 29 62  1  0  0  0
 30 31  1  0  0  0
 30 32  1  0  0  0
 31 63  1  0  0  0
 32 33  2  0  0  0
 32 64  1  0  0  0
 33 34  1  0  0  0
 34 65  1  0  0  0
M  END
> <s_m_source_file>
../2vci_ligand.sdf

> <i_m_source_file_index>
1

> <s_epik_input>
W0NIMl0xW0NIMl1PW0NIMl1bQ0gyXVtOSCtdMVtDSDJdYzJbY0hdW2NIXWMoW2NIXVtjSF0yKS1jM2MoQyg9TylbTkhdW0NIMl1bQ0gzXSlub2MzLWM0W2NIXWMoW0NIXShbQ0gzXSlbQ0gzXSljKFtPSF0pW2NIXWM0W09IXQ==

> <s_epik_cmdline>
J2VwaWtfYXBwJywgJy1pbWFlJywgJ2xpZ2FuZF9wcm8ubWFlJywgJy1vbWFlJywgJ2xpZ2FuZF9wcmVwLm1hZScsICctbXMnLCAnMScsICctcGgnLCAnNycsICctcGh0JywgJzAuNScsICctbnQn

> <r_lp_tautomer_probability>
0.999999999898

> <r_epik_Ionization_Penalty>
  0.4057

> <r_epik_Ionization_Penalty_Charging>
  0.0000

> <r_epik_Ionization_Penalty_Neutral>
  0.4057

> <r_epik_State_Penalty>
  0.2773

> <r_epik_Charging_Adjusted_Penalty>
0.277327297006007

> <i_epik_Tot_Q>
0

> <i_epik_Tot_abs_Q>
0

$$$$
