2vcj_ligand
                    3D
 Schrodinger Suite 2020-3.
 55 58  0  0  1  0            999 V2000
   36.0920    4.7760   23.9480 C   0  0  0  0  0  0
   37.0300    3.6260   23.6890 C   0  0  0  0  0  0
   37.4070    3.7880   22.3460 O   0  0  0  0  0  0
   36.4110    3.3290   21.5060 C   0  0  0  0  0  0
   35.4780    4.5100   21.4960 C   0  0  0  0  0  0
   35.7050    5.3550   22.6660 N   0  0  0  0  0  0
   35.5330    6.7900   22.5390 C   0  0  0  0  0  0
   34.5530    7.2940   23.5700 C   0  0  0  0  0  0
   35.0100    7.9950   24.6650 C   0  0  0  0  0  0
   34.1330    8.4620   25.6150 C   0  0  0  0  0  0
   33.2110    7.0600   23.4110 C   0  0  0  0  0  0
   32.3300    7.5250   24.3630 C   0  0  0  0  0  0
   32.7890    8.2220   25.4630 C   0  0  0  0  0  0
   31.8790    8.7000   26.3770 C   0  0  0  0  0  0
   31.5530    8.2050   27.6140 C   0  0  0  0  0  0
   32.1590    7.0110   28.3040 C   0  0  0  0  0  0
   32.8350    6.1970   27.7070 O   0  0  0  0  0  0
   32.0040    7.0180   29.6070 N   0  0  0  0  0  0
   32.5270    5.9630   30.4700 C   0  0  0  0  0  0
   34.0280    6.1100   30.6460 C   0  0  0  0  0  0
   30.6360    8.9740   28.1520 N   0  0  0  0  0  0
   30.3430    9.9890   27.2470 O   0  0  0  0  0  0
   31.1120    9.8140   26.1610 C   0  0  0  0  0  0
   31.1350   10.6160   25.0320 C   0  0  0  0  0  0
   32.3420   11.0120   24.4870 C   0  0  0  0  0  0
   32.3680   11.8170   23.3560 C   0  0  0  0  0  0
   33.8320   12.3300   22.6330 Cl  0  0  0  0  0  0
   31.1910   12.2230   22.7830 C   0  0  0  0  0  0
   31.2280   12.9990   21.6910 O   0  5  0  0  0  0
   29.9880   11.8280   23.3320 C   0  0  0  0  0  0
   29.9670   11.0340   24.4550 C   0  0  0  0  0  0
   28.8030   10.6630   24.9840 O   0  0  0  0  0  0
   35.2009    4.4099   24.4790 H   0  0  0  0  0  0
   36.6006    5.5326   24.5636 H   0  0  0  0  0  0
   37.8903    3.6937   24.3712 H   0  0  0  0  0  0
   36.5014    2.6763   23.8586 H   0  0  0  0  0  0
   36.8401    3.0998   20.5194 H   0  0  0  0  0  0
   35.9631    2.4188   21.9314 H   0  0  0  0  0  0
   35.6504    5.1058   20.5875 H   0  0  0  0  0  0
   34.4369    4.1550   21.5096 H   0  0  0  0  0  0
   36.5011    7.2901   22.6896 H   0  0  0  0  0  0
   35.1506    7.0260   21.5350 H   0  0  0  0  0  0
   36.0779    8.1811   24.7790 H   0  0  0  0  0  0
   34.4998    9.0163   26.4789 H   0  0  0  0  0  0
   32.8457    6.5128   22.5420 H   0  0  0  0  0  0
   31.2619    7.3411   24.2467 H   0  0  0  0  0  0
   31.4538    7.8641   30.0444 H   0  0  0  0  0  0
   32.0452    6.0242   31.4570 H   0  0  0  0  0  0
   32.3159    4.9821   30.0191 H   0  0  0  0  0  0
   34.4011    5.3067   31.2984 H   0  0  0  0  0  0
   34.2498    7.0859   31.1025 H   0  0  0  0  0  0
   34.5204    6.0439   29.6646 H   0  0  0  0  0  0
   33.2768   10.6912   24.9468 H   0  0  0  0  0  0
   29.0514   12.1463   22.8742 H   0  0  0  0  0  0
   28.7845   10.0281   25.8821 H   0  0  0  0  0  0
  1  2  1  0  0  0
  1  6  1  0  0  0
  1 33  1  0  0  0
  1 34  1  0  0  0
  2  3  1  0  0  0
  2 35  1  0  0  0
  2 36  1  0  0  0
  3  4  1  0  0  0
  4  5  1  0  0  0
  4 37  1  0  0  0
  4 38  1  0  0  0
  5  6  1  0  0  0
  5 39  1  0  0  0
  5 40  1  0  0  0
  6  7  1  0  0  0
  7  8  1  0  0  0
  7 41  1  0  0  0
  7 42  1  0  0  0
  8  9  2  0  0  0
  8 11  1  0  0  0
  9 10  1  0  0  0
  9 43  1  0  0  0
 10 13  2  0  0  0
 10 44  1  0  0  0
 11 12  2  0  0  0
 11 45  1  0  0  0
 12 13  1  0  0  0
 12 46  1  0  0  0
 13 14  1  0  0  0
 14 15  1  0  0  0
 14 23  2  0  0  0
 15 16  1  0  0  0
 15 21  2  0  0  0
 16 17  2  0  0  0
 16 18  1  0  0  0
 18 19  1  0  0  0
 18 47  1  0  0  0
 19 20  1  0  0  0
 19 48  1  0  0  0
 19 49  1  0  0  0
 20 50  1  0  0  0
 20 51  1  0  0  0
 20 52  1  0  0  0
 21 22  1  0  0  0
 22 23  1  0  0  0
 23 24  1  0  0  0
 24 25  2  0  0  0
 24 31  1  0  0  0
 25 26  1  0  0  0
 25 53  1  0  0  0
 26 27  1  0  0  0
 26 28  2  0  0  0
 28 29  1  0  0  0
 28 30  1  0  0  0
 30 31  2  0  0  0
 30 54  1  0  0  0
 31 32  1  0  0  0
 32 55  1  0  0  0
M  CHG  1  29  -1
M  END
> <s_m_source_file>
../2vcj_ligand.sdf

> <i_m_source_file_index>
1

> <s_epik_input>
W0NIMl0xW0NIMl1PW0NIMl1bQ0gyXVtOSCtdMVtDSDJdYzJbY0hdW2NIXWMoW2NIXVtjSF0yKS1jM2MoQyg9TylbTkhdW0NIMl1bQ0gzXSlub2MzLWM0W2NIXWMoQ2wpYyhbT0hdKVtjSF1jNFtPSF0=

> <s_epik_cmdline>
J2VwaWtfYXBwJywgJy1pbWFlJywgJ2xpZ2FuZF9wcm8ubWFlJywgJy1vbWFlJywgJ2xpZ2FuZF9wcmVwLm1hZScsICctbXMnLCAnMScsICctcGgnLCAnNycsICctcGh0JywgJzAuNScsICctbnQn

> <r_epik_Ionization_Penalty>
  0.4168

> <r_epik_Ionization_Penalty_Charging>
  0.1237

> <r_epik_Ionization_Penalty_Neutral>
  0.2931

> <r_epik_State_Penalty>
  0.2773

> <r_epik_Charging_Adjusted_Penalty>
0.401023036462558

> <i_epik_Tot_Q>
-1

> <i_epik_Tot_abs_Q>
1

$$$$
