2vcq_ligand
                    3D
 Schrodinger Suite 2020-3.
 25 27  0  0  1  0            999 V2000
  -49.3520   -4.8210   27.4710 C   0  0  0  0  0  0
  -47.9820   -4.7140   27.1550 C   0  0  0  0  0  0
  -47.3850   -4.8110   25.8090 C   0  0  0  0  0  0
  -46.1390   -4.3860   25.4400 C   0  0  0  0  0  0
  -49.4850   -4.6710   28.8100 C   0  0  0  0  0  0
  -47.9520   -5.3080   24.6940 O   0  0  0  0  0  0
  -47.1910   -5.2300   23.7280 N   0  0  0  0  0  0
  -46.0470   -4.6760   24.0530 C   0  0  0  0  0  0
  -44.8530   -4.4140   23.2040 C   0  0  0  0  0  0
  -44.5510   -5.2340   22.1140 C   0  0  0  0  0  0
  -43.4100   -4.9780   21.3760 C   0  0  0  0  0  0
  -42.5630   -3.9230   21.7110 C   0  0  0  0  0  0
  -42.8540   -3.1130   22.7900 C   0  0  0  0  0  0
  -43.9920   -3.3570   23.5350 C   0  0  0  0  0  0
  -47.3260   -4.4890   28.2730 N   0  0  0  0  0  0
  -48.2500   -4.4620   29.3260 N   0  3  0  0  0  0
  -50.1616   -4.9940   26.7620 H   0  0  0  0  0  0
  -45.3809   -3.9248   26.0730 H   0  0  0  0  0  0
  -50.4182   -4.7112   29.3719 H   0  0  0  0  0  0
  -45.2058   -6.0641   21.8490 H   0  0  0  0  0  0
  -43.1698   -5.6097   20.5208 H   0  0  0  0  0  0
  -41.6672   -3.7369   21.1185 H   0  0  0  0  0  0
  -42.1918   -2.2879   23.0522 H   0  0  0  0  0  0
  -44.2233   -2.7210   24.3895 H   0  0  0  0  0  0
  -48.1246   -4.3096   30.4081 H   0  0  0  0  0  0
  1  2  2  0  0  0
  1  5  1  0  0  0
  1 17  1  0  0  0
  2  3  1  0  0  0
  2 15  1  0  0  0
  3  4  2  0  0  0
  3  6  1  0  0  0
  4  8  1  0  0  0
  4 18  1  0  0  0
  5 16  2  0  0  0
  5 19  1  0  0  0
  6  7  1  0  0  0
  7  8  2  0  0  0
  8  9  1  0  0  0
  9 10  2  0  0  0
  9 14  1  0  0  0
 10 11  1  0  0  0
 10 20  1  0  0  0
 11 12  2  0  0  0
 11 21  1  0  0  0
 12 13  1  0  0  0
 12 22  1  0  0  0
 13 14  2  0  0  0
 13 23  1  0  0  0
 14 24  1  0  0  0
 15 16  1  0  0  0
 16 25  1  0  0  0
M  CHG  1  16   1
M  END
> <s_m_source_file>
../2vcq_ligand.sdf

> <i_m_source_file_index>
1

> <s_epik_input>
W25IXTFuW2NIXVtjSF1jMS1jMltjSF1jKG5vMiktYzNbY0hdW2NIXVtjSF1bY0hdW2NIXTM=

> <s_epik_cmdline>
J2VwaWtfYXBwJywgJy1pbWFlJywgJ2xpZ2FuZF9wcm8ubWFlJywgJy1vbWFlJywgJ2xpZ2FuZF9wcmVwLm1hZScsICctbXMnLCAnMScsICctcGgnLCAnNycsICctcGh0JywgJzAuNScsICctbnQn

> <r_epik_Ionization_Penalty>
  0.0000

> <r_epik_Ionization_Penalty_Charging>
  0.0000

> <r_epik_Ionization_Penalty_Neutral>
  0.0000

> <r_epik_State_Penalty>
  0.0486

> <r_epik_Charging_Adjusted_Penalty>
0.0486211018269981

> <i_epik_Tot_Q>
1

> <i_epik_Tot_abs_Q>
1

$$$$
