2vcw_ligand
                    3D
 Schrodinger Suite 2020-3.
 21 22  0  0  1  0            999 V2000
    4.6820   12.1750    4.9050 O   0  5  0  0  0  0
    4.3740   13.4150    4.4810 C   0  0  0  0  0  0
    3.9540   14.2240    5.2830 O   0  0  0  0  0  0
    4.5440   13.7930    3.0610 C   0  0  0  0  0  0
    5.0770   12.9880    2.0230 C   0  0  0  0  0  0
    5.0630   13.6930    0.9160 N   0  0  0  0  0  0
    4.5230   14.9660    1.1840 N   0  0  0  0  0  0
    4.2210   15.0180    2.4980 C   0  0  0  0  0  0
    4.3520   16.0200    0.2550 C   0  0  0  0  0  0
    3.3860   17.0100    0.4670 C   0  0  0  0  0  0
    3.2450   18.0460   -0.4400 C   0  0  0  0  0  0
    4.0530   18.1100   -1.5670 C   0  0  0  0  0  0
    5.0100   17.1320   -1.7910 C   0  0  0  0  0  0
    5.1620   16.0940   -0.8800 C   0  0  0  0  0  0
    5.4354   11.9638    2.1261 H   0  0  0  0  0  0
    3.7974   15.8732    3.0245 H   0  0  0  0  0  0
    2.7442   16.9653    1.3469 H   0  0  0  0  0  0
    2.4941   18.8172   -0.2681 H   0  0  0  0  0  0
    3.9351   18.9294   -2.2761 H   0  0  0  0  0  0
    5.6409   17.1773   -2.6787 H   0  0  0  0  0  0
    5.9205   15.3305   -1.0529 H   0  0  0  0  0  0
  1  2  1  0  0  0
  2  3  2  0  0  0
  2  4  1  0  0  0
  4  5  1  0  0  0
  4  8  2  0  0  0
  5  6  2  0  0  0
  5 15  1  0  0  0
  6  7  1  0  0  0
  7  8  1  0  0  0
  7  9  1  0  0  0
  8 16  1  0  0  0
  9 10  2  0  0  0
  9 14  1  0  0  0
 10 11  1  0  0  0
 10 17  1  0  0  0
 11 12  2  0  0  0
 11 18  1  0  0  0
 12 13  1  0  0  0
 12 19  1  0  0  0
 13 14  2  0  0  0
 13 20  1  0  0  0
 14 21  1  0  0  0
M  CHG  1   1  -1
M  END
> <s_m_source_file>
../2vcw_ligand.sdf

> <i_m_source_file_index>
1

> <s_epik_input>
W09IXUMoPU8pYzFbY0hdbm4oW2NIXTEpLWMyW2NIXVtjSF1bY0hdW2NIXVtjSF0y

> <s_epik_cmdline>
J2VwaWtfYXBwJywgJy1pbWFlJywgJ2xpZ2FuZF9wcm8ubWFlJywgJy1vbWFlJywgJ2xpZ2FuZF9wcmVwLm1hZScsICctbXMnLCAnMScsICctcGgnLCAnNycsICctcGh0JywgJzAuNScsICctbnQn

> <r_lp_tautomer_probability>
1

> <r_epik_Ionization_Penalty>
  0.0015

> <r_epik_Ionization_Penalty_Charging>
  0.0015

> <r_epik_Ionization_Penalty_Neutral>
  0.0000

> <r_epik_State_Penalty>
 -0.0000

> <r_epik_Charging_Adjusted_Penalty>
0.00148440965088163

> <i_epik_Tot_Q>
-1

> <i_epik_Tot_abs_Q>
1

$$$$
