2vd0_ligand
                    3D
 Schrodinger Suite 2020-3.
 40 41  0  0  1  0            999 V2000
  127.6440   17.1120   -4.1000 C   0  0  0  0  0  0
  128.4440   15.9430   -4.1890 C   0  0  0  0  0  0
  126.7620   17.3720   -2.9450 C   0  0  0  0  0  0
  128.5030   15.0220   -3.1240 N   0  0  0  0  0  0
  129.1950   13.8360   -3.1030 C   0  0  0  0  0  0
  129.2280   13.0100   -1.8970 C   0  0  0  0  0  0
  128.3330   12.8030    2.8950 C   0  0  0  0  0  0
  128.5960   13.4150   -0.7750 C   0  0  0  0  0  0
  128.5360   11.4150    3.0060 C   0  0  0  0  0  0
  128.3710   13.4130    1.6550 C   0  0  0  0  0  0
  126.6760   16.5770   -2.0340 O   0  0  0  0  0  0
  129.8130   13.4120   -4.0640 O   0  0  0  0  0  0
  128.5980   12.6640    0.4930 C   0  0  0  0  0  0
  128.7790   10.6580    1.8410 C   0  0  0  0  0  0
  126.0130   18.4920   -2.9050 O   0  5  0  0  0  0
  128.8080   11.2670    0.5900 C   0  0  0  0  0  0
  128.1150   13.5690    4.0050 O   0  0  0  0  0  0
  127.6500   18.0400   -5.1450 C   0  0  0  0  0  0
  128.5230   10.8450    4.2600 O   0  0  0  0  0  0
  129.2380   15.7860   -5.3330 C   0  0  0  0  0  0
  126.7770   14.0940    3.9840 C   0  0  0  0  0  0
  127.5950    9.7480    4.3480 C   0  0  0  0  0  0
  128.4370   17.8440   -6.2680 C   0  0  0  0  0  0
  129.2330   16.7130   -6.3680 C   0  0  0  0  0  0
  127.9573   15.2247   -2.1907 H   0  0  0  0  0  0
  129.7717   12.0538   -1.9073 H   0  0  0  0  0  0
  128.0342   14.3607   -0.7711 H   0  0  0  0  0  0
  128.2225   14.4903    1.5804 H   0  0  0  0  0  0
  128.9460    9.5839    1.9214 H   0  0  0  0  0  0
  128.9906   10.6744   -0.3064 H   0  0  0  0  0  0
  127.0262   18.9311   -5.0753 H   0  0  0  0  0  0
  129.8799   14.9088   -5.4134 H   0  0  0  0  0  0
  126.6103   14.7090    4.8807 H   0  0  0  0  0  0
  126.0570   13.2625    3.9707 H   0  0  0  0  0  0
  126.6398   14.7123    3.0846 H   0  0  0  0  0  0
  127.6202    9.3270    5.3639 H   0  0  0  0  0  0
  127.8760    8.9709    3.6220 H   0  0  0  0  0  0
  126.5797   10.1079    4.1253 H   0  0  0  0  0  0
  128.4305   18.5788   -7.0730 H   0  0  0  0  0  0
  129.8502   16.5524   -7.2520 H   0  0  0  0  0  0
  1  2  2  0  0  0
  1  3  1  0  0  0
  1 18  1  0  0  0
  2  4  1  0  0  0
  2 20  1  0  0  0
  3 11  2  0  0  0
  3 15  1  0  0  0
  4  5  1  0  0  0
  4 25  1  0  0  0
  5  6  1  0  0  0
  5 12  2  0  0  0
  6  8  2  0  0  0
  6 26  1  0  0  0
  7  9  2  0  0  0
  7 10  1  0  0  0
  7 17  1  0  0  0
  8 13  1  0  0  0
  8 27  1  0  0  0
  9 14  1  0  0  0
  9 19  1  0  0  0
 10 13  2  0  0  0
 10 28  1  0  0  0
 13 16  1  0  0  0
 14 16  2  0  0  0
 14 29  1  0  0  0
 16 30  1  0  0  0
 17 21  1  0  0  0
 18 23  2  0  0  0
 18 31  1  0  0  0
 19 22  1  0  0  0
 20 24  2  0  0  0
 20 32  1  0  0  0
 21 33  1  0  0  0
 21 34  1  0  0  0
 21 35  1  0  0  0
 22 36  1  0  0  0
 22 37  1  0  0  0
 22 38  1  0  0  0
 23 24  1  0  0  0
 23 39  1  0  0  0
 24 40  1  0  0  0
M  CHG  1  15  -1
M  END
> <s_m_source_file>
../2vd0_ligand.sdf

> <i_m_source_file_index>
1

> <s_epik_input>
W2NIXTFbY0hdW2NIXVtjSF1jKGMxQyg9TylbT0hdKVtOSF1DKD1PKS9bQ0hdPVtDSF0vYyhbY0hdMilbY0hdW2NIXWMoT1tDSDNdKWMyT1tDSDNd

> <s_epik_cmdline>
J2VwaWtfYXBwJywgJy1pbWFlJywgJ2xpZ2FuZF9wcm8ubWFlJywgJy1vbWFlJywgJ2xpZ2FuZF9wcmVwLm1hZScsICctbXMnLCAnMScsICctcGgnLCAnNycsICctcGh0JywgJzAuNScsICctbnQn

> <r_lp_tautomer_probability>
1

> <r_epik_Ionization_Penalty>
  0.0019

> <r_epik_Ionization_Penalty_Charging>
  0.0006

> <r_epik_Ionization_Penalty_Neutral>
  0.0013

> <r_epik_State_Penalty>
 -0.0000

> <r_epik_Charging_Adjusted_Penalty>
0.000587295418704455

> <i_epik_Tot_Q>
-1

> <i_epik_Tot_abs_Q>
1

$$$$
