2vd1_ligand
                    3D
 Schrodinger Suite 2020-3.
 36 38  0  0  1  0            999 V2000
   14.7390    4.6710   -1.4930 C   0  0  0  0  0  0
   15.8880    4.3030   -0.6330 C   0  0  0  0  0  0
   14.8590    4.5200   -2.8080 N   0  0  0  0  0  0
   13.5770    5.1600   -0.9770 C   0  0  0  0  0  0
   16.2260    5.0590    0.4910 C   0  0  0  0  0  0
   16.6530    3.1900   -0.9770 C   0  0  0  0  0  0
   13.8870    4.8170   -3.6490 C   0  0  0  0  0  0
   12.6560    5.3960   -2.4900 S   0  0  0  0  0  0
   17.3070    4.7170    1.2680 C   0  0  0  0  0  0
   17.7340    2.8520   -0.1920 C   0  0  0  0  0  0
   13.9100    4.6900   -5.0410 N   0  0  0  0  0  0
   18.0590    3.6110    0.9200 C   0  0  0  0  0  0
   17.6610    5.5360    2.4800 C   0  0  0  0  0  0
   12.8480    4.6520   -5.9580 C   0  0  0  0  0  0
   19.1160    3.2450    1.6680 F   0  0  0  0  0  0
   13.2070    4.7840   -7.2980 C   0  0  0  0  0  0
   11.4960    4.4950   -5.6150 C   0  0  0  0  0  0
   12.2500    4.7660   -8.2970 C   0  0  0  0  0  0
   10.5310    4.4760   -6.5940 C   0  0  0  0  0  0
   10.8900    4.6090   -7.9560 C   0  0  0  0  0  0
   12.6260    4.9010   -9.5980 O   0  0  0  0  0  0
    9.8830    4.5890   -9.0440 C   0  0  0  0  0  0
    9.3660    3.5390   -9.4000 O   0  0  0  0  0  0
    9.5450    5.7440   -9.6630 O   0  5  0  0  0  0
   13.2920    5.3515    0.0575 H   0  0  0  0  0  0
   15.6261    5.9299    0.7552 H   0  0  0  0  0  0
   16.3998    2.5952   -1.8546 H   0  0  0  0  0  0
   18.3375    1.9812   -0.4480 H   0  0  0  0  0  0
   14.8707    4.6014   -5.5694 H   0  0  0  0  0  0
   16.9463    6.3658    2.5833 H   0  0  0  0  0  0
   18.6777    5.9399    2.3654 H   0  0  0  0  0  0
   17.6177    4.9009    3.3771 H   0  0  0  0  0  0
   14.2575    4.9032   -7.5631 H   0  0  0  0  0  0
   11.2102    4.3878   -4.5686 H   0  0  0  0  0  0
    9.4829    4.3577   -6.3192 H   0  0  0  0  0  0
   13.6890    5.0229   -9.8535 H   0  0  0  0  0  0
  1  2  1  0  0  0
  1  3  1  0  0  0
  1  4  2  0  0  0
  2  5  2  0  0  0
  2  6  1  0  0  0
  3  7  2  0  0  0
  4  8  1  0  0  0
  4 25  1  0  0  0
  5  9  1  0  0  0
  5 26  1  0  0  0
  6 10  2  0  0  0
  6 27  1  0  0  0
  7  8  1  0  0  0
  7 11  1  0  0  0
  9 12  2  0  0  0
  9 13  1  0  0  0
 10 12  1  0  0  0
 10 28  1  0  0  0
 11 14  1  0  0  0
 11 29  1  0  0  0
 12 15  1  0  0  0
 13 30  1  0  0  0
 13 31  1  0  0  0
 13 32  1  0  0  0
 14 16  2  0  0  0
 14 17  1  0  0  0
 16 18  1  0  0  0
 16 33  1  0  0  0
 17 19  2  0  0  0
 17 34  1  0  0  0
 18 20  2  0  0  0
 18 21  1  0  0  0
 19 20  1  0  0  0
 19 35  1  0  0  0
 20 22  1  0  0  0
 21 36  1  0  0  0
 22 23  2  0  0  0
 22 24  1  0  0  0
M  CHG  1  24  -1
M  END
> <s_m_source_file>
../2vd1_ligand.sdf

> <i_m_source_file_index>
1

> <s_epik_input>
W2NIXTFbY0hdYyhGKWMoW0NIM10pW2NIXWMxLWMybmMoc1tjSF0yKVtOSF1jM1tjSF1jKFtPSF0pYyhbY0hdW2NIXTMpQyg9TylbT0hd

> <s_epik_cmdline>
J2VwaWtfYXBwJywgJy1pbWFlJywgJ2xpZ2FuZF9wcm8ubWFlJywgJy1vbWFlJywgJ2xpZ2FuZF9wcmVwLm1hZScsICctbXMnLCAnMScsICctcGgnLCAnNycsICctcGh0JywgJzAuNScsICctbnQn

> <r_lp_tautomer_probability>
1

> <r_epik_Ionization_Penalty>
  0.0001

> <r_epik_Ionization_Penalty_Charging>
  0.0001

> <r_epik_Ionization_Penalty_Neutral>
  0.0000

> <r_epik_State_Penalty>
 -0.0000

> <r_epik_Charging_Adjusted_Penalty>
8.54941871909554e-05

> <i_epik_Tot_Q>
-1

> <i_epik_Tot_abs_Q>
1

$$$$
