2veu_ligand
                    3D
 Schrodinger Suite 2020-3.
 64 68  0  0  1  0            999 V2000
   19.6070   16.5600   82.4170 C   0  0  2  0  0  0
   20.8990   17.1630   81.9250 C   0  0  0  0  0  0
   22.0520   16.3560   82.4130 C   0  0  0  0  0  0
   21.7440   15.1130   82.8060 N   0  0  0  0  0  0
   19.9470   14.8030   82.6190 S   0  0  0  0  0  0
   19.2480   14.2870   84.0430 O   0  0  0  0  0  0
   19.5220   13.8490   81.2690 O   0  0  0  0  0  0
   23.2080   16.7650   82.4430 O   0  5  0  0  0  0
   18.4300   16.8130   81.4950 C   0  0  0  0  0  0
   18.6250   16.8220   80.0360 C   0  0  0  0  0  0
   17.4920   17.0970   79.1490 C   0  0  0  0  0  0
   16.1650   17.3590   79.7200 C   0  0  0  0  0  0
   15.9690   17.3470   81.1800 C   0  0  0  0  0  0
   17.0990   17.0740   82.0610 C   0  0  0  0  0  0
   15.0020   17.6260   78.8160 C   0  0  0  0  0  0
   16.5960   21.9220   78.5440 C   0  0  0  0  0  0
   16.2420   21.5520   77.1850 C   0  0  0  0  0  0
   15.9360   21.0130   79.4010 N   0  3  0  0  0  0
   15.2060   20.1200   78.5920 C   0  0  0  0  0  0
   15.3840   20.4310   77.2240 N   0  3  0  0  0  0
   19.2000   25.1960   79.9770 C   0  0  0  0  0  0
   18.4970   24.3200   80.9390 C   0  0  0  0  0  0
   17.6320   23.2300   80.4480 C   0  0  0  0  0  0
   17.4660   23.0140   78.9940 C   0  0  0  0  0  0
   18.1680   23.8930   78.0340 C   0  0  0  0  0  0
   19.0340   24.9810   78.5270 C   0  0  0  0  0  0
   14.3290   18.9650   79.0930 C   0  0  1  0  0  0
   13.0520   18.9480   78.3830 N   0  0  3  0  0  0
   11.8560   20.1030   78.7390 S   0  0  0  0  0  0
   10.4860   19.1320   78.2710 O   0  0  0  0  0  0
   11.8180   20.4810   80.4180 O   0  0  0  0  0  0
   11.5220   21.6980   73.7480 C   0  0  0  0  0  0
   11.9550   22.0180   75.1140 C   0  0  0  0  0  0
   12.7120   23.2520   75.3750 C   0  0  0  0  0  0
   11.6290   21.1120   76.2150 C   0  0  0  0  0  0
   12.0580   21.4370   77.5760 C   0  0  0  0  0  0
   12.8100   22.6660   77.8410 C   0  0  0  0  0  0
   13.1380   23.5730   76.7390 C   0  0  0  0  0  0
   10.7380   20.4390   73.5620 F   0  0  0  0  0  0
   12.7000   21.5640   72.8280 F   0  0  0  0  0  0
   10.5630   22.7330   73.2100 F   0  0  0  0  0  0
   19.2897   17.1884   83.2623 H   0  0  0  0  0  0
   20.9030   17.1740   80.8251 H   0  0  0  0  0  0
   20.9904   18.1922   82.3023 H   0  0  0  0  0  0
   19.6112   16.6243   79.6161 H   0  0  0  0  0  0
   17.6337   17.1071   78.0683 H   0  0  0  0  0  0
   14.9825   17.5416   81.6007 H   0  0  0  0  0  0
   16.9560   17.0635   83.1415 H   0  0  0  0  0  0
   15.3443   17.6336   77.7707 H   0  0  0  0  0  0
   14.2461   16.8380   78.9485 H   0  0  0  0  0  0
   16.6402   22.1281   76.3367 H   0  0  0  0  0  0
   19.8405   26.0002   80.3392 H   0  0  0  0  0  0
   18.6178   24.4795   82.0105 H   0  0  0  0  0  0
   17.1150   22.5835   81.1572 H   0  0  0  0  0  0
   18.0456   23.7371   76.9622 H   0  0  0  0  0  0
   19.5522   25.6272   77.8185 H   0  0  0  0  0  0
   14.1322   19.1099   80.1655 H   0  0  0  0  0  0
   12.9189   18.2974   77.5061 H   0  0  0  0  0  0
   12.9556   23.9266   74.5543 H   0  0  0  0  0  0
   11.0682   20.1974   76.0224 H   0  0  0  0  0  0
   13.1249   22.9050   78.8568 H   0  0  0  0  0  0
   13.6991   24.4869   76.9339 H   0  0  0  0  0  0
   15.9104   20.9098   80.4958 H   0  0  0  0  0  0
   15.0073   19.9939   76.2875 H   0  0  0  0  0  0
  1  2  1  0  0  0
  1  5  1  0  0  0
  1  9  1  0  0  0
  1 42  1  0  0  0
  2  3  1  0  0  0
  2 43  1  0  0  0
  2 44  1  0  0  0
  3  4  2  0  0  0
  3  8  1  0  0  0
  4  5  1  0  0  0
  5  6  2  0  0  0
  5  7  2  0  0  0
  9 10  2  0  0  0
  9 14  1  0  0  0
 10 11  1  0  0  0
 10 45  1  0  0  0
 11 12  2  0  0  0
 11 46  1  0  0  0
 12 13  1  0  0  0
 12 15  1  0  0  0
 13 14  2  0  0  0
 13 47  1  0  0  0
 14 48  1  0  0  0
 15 27  1  0  0  0
 15 49  1  0  0  0
 15 50  1  0  0  0
 16 17  2  0  0  0
 16 18  1  0  0  0
 16 24  1  0  0  0
 17 20  1  0  0  0
 17 51  1  0  0  0
 18 19  2  0  0  0
 18 63  1  0  0  0
 19 20  1  0  0  0
 19 27  1  0  0  0
 20 64  1  0  0  0
 21 22  2  0  0  0
 21 26  1  0  0  0
 21 52  1  0  0  0
 22 23  1  0  0  0
 22 53  1  0  0  0
 23 24  2  0  0  0
 23 54  1  0  0  0
 24 25  1  0  0  0
 25 26  2  0  0  0
 25 55  1  0  0  0
 26 56  1  0  0  0
 27 28  1  0  0  0
 27 57  1  0  0  0
 28 29  1  0  0  0
 28 58  1  0  0  0
 29 30  2  0  0  0
 29 31  2  0  0  0
 29 36  1  0  0  0
 32 33  1  0  0  0
 32 39  1  0  0  0
 32 40  1  0  0  0
 32 41  1  0  0  0
 33 34  2  0  0  0
 33 35  1  0  0  0
 34 38  1  0  0  0
 34 59  1  0  0  0
 35 36  2  0  0  0
 35 60  1  0  0  0
 36 37  1  0  0  0
 37 38  2  0  0  0
 37 61  1  0  0  0
 38 62  1  0  0  0
M  CHG  3   8  -1  18   1  20   1
M  END
> <s_m_source_file>
../2veu_ligand.sdf

> <i_m_source_file_index>
1

> <s_epik_input>
W05IXTFDKD1PKVtDSDJdW0NASF0oUzEoPU8pPU8pYzJbY0hdW2NIXWMoW2NIXVtjSF0yKVtDSDJdW0NASF0oW05IXVMoPU8pKD1PKWMoW2NIXTMpW2NIXVtjSF1bY0hdYzNDKEYpKEYpRiljKG40KVtuSF1bY0hdYzQtYzVbY0hdW2NIXVtjSF1bY0hdW2NIXTU=

> <s_epik_cmdline>
J2VwaWtfYXBwJywgJy1pbWFlJywgJ2xpZ2FuZF9wcm8ubWFlJywgJy1vbWFlJywgJ2xpZ2FuZF9wcmVwLm1hZScsICctbXMnLCAnMScsICctcGgnLCAnNycsICctcGh0JywgJzAuNScsICctbnQn

> <r_lp_tautomer_probability>
1

> <r_epik_Ionization_Penalty>
 22.3944

> <r_epik_Ionization_Penalty_Charging>
 22.3676

> <r_epik_Ionization_Penalty_Neutral>
  0.0268

> <r_epik_State_Penalty>
 -0.0000

> <r_epik_Charging_Adjusted_Penalty>
22.3676152797787

> <i_epik_Tot_Q>
1

> <i_epik_Tot_abs_Q>
3

> <s_epik_Chemistry_Notes>
This compound has an imine and may undergo hydrolysis.

$$$$
