2vew_ligand
                    3D
 Schrodinger Suite 2020-3.
 66 70  0  0  1  0            999 V2000
   19.1370   16.6130   82.1960 C   0  0  2  0  0  0
   20.4410   17.1320   81.6550 C   0  0  0  0  0  0
   21.5630   16.3940   82.3110 C   0  0  0  0  0  0
   21.2310   15.1920   82.7950 N   0  0  0  0  0  0
   19.4830   14.8760   82.5060 S   0  0  0  0  0  0
   18.5160   14.3070   83.6830 O   0  0  0  0  0  0
   19.2770   14.0180   81.0720 O   0  0  0  0  0  0
   22.6950   16.8270   82.4460 O   0  5  0  0  0  0
   17.9060   16.8140   81.3310 C   0  0  0  0  0  0
   17.9990   16.6790   79.8800 C   0  0  0  0  0  0
   16.8120   16.8920   79.0520 C   0  0  0  0  0  0
   15.5270   17.2110   79.6830 C   0  0  0  0  0  0
   15.4360   17.3450   81.1400 C   0  0  0  0  0  0
   16.6170   17.1470   81.9620 C   0  0  0  0  0  0
   14.3020   17.3980   78.8370 C   0  0  0  0  0  0
   13.7170   18.8170   78.9010 C   0  0  2  0  0  0
   12.3840   18.7570   78.2870 N   0  0  3  0  0  0
   11.2740   20.0560   78.6210 S   0  0  0  0  0  0
    9.8210   19.3480   78.1340 O   0  0  0  0  0  0
   11.4830   20.4810   80.2350 O   0  0  0  0  0  0
   15.8110   20.7330   76.5480 C   0  0  2  0  0  0
   16.2530   21.2700   77.8860 C   0  0  0  0  0  0
   14.6540   19.8820   76.8530 N   0  3  0  0  0  0
   14.6360   19.8300   78.1960 C   0  0  0  0  0  0
   15.4550   20.6040   78.9290 N   0  0  0  0  0  0
   11.7310   22.6060   74.2210 F   0  0  0  0  0  0
   12.1200   22.7090   75.6160 C   0  0  0  0  0  0
   12.9210   23.7570   76.2630 C   0  0  0  0  0  0
   11.6080   21.5910   76.3970 C   0  0  0  0  0  0
   11.9140   21.4970   77.8190 C   0  0  0  0  0  0
   12.7000   22.5500   78.4780 C   0  0  0  0  0  0
   13.2040   23.6800   77.6990 C   0  0  0  0  0  0
   15.4980   17.9880   72.1130 C   0  0  0  0  0  0
   15.8630   19.4130   72.1380 C   0  0  0  0  0  0
   16.3390   20.0270   73.3830 C   0  0  0  0  0  0
   16.4440   19.2180   74.6040 C   0  0  0  0  0  0
   16.1040   17.7900   74.5700 C   0  0  0  0  0  0
   15.6300   17.1750   73.3290 C   0  0  0  0  0  0
   16.9000   19.8590   75.9040 C   0  0  0  0  0  0
   16.2530   17.0290   75.7940 F   0  0  0  0  0  0
   18.8402   17.3335   82.9724 H   0  0  0  0  0  0
   20.4760   16.9727   80.5672 H   0  0  0  0  0  0
   20.5256   18.2072   81.8710 H   0  0  0  0  0  0
   18.9503   16.4202   79.4151 H   0  0  0  0  0  0
   16.8825   16.8137   77.9671 H   0  0  0  0  0  0
   14.4825   17.5931   81.6062 H   0  0  0  0  0  0
   16.5496   17.2448   83.0455 H   0  0  0  0  0  0
   14.5483   17.1929   77.7847 H   0  0  0  0  0  0
   13.5161   16.7048   79.1714 H   0  0  0  0  0  0
   13.5890   19.1659   79.9363 H   0  0  0  0  0  0
   12.1678   18.0047   77.5142 H   0  0  0  0  0  0
   15.5533   21.5515   75.8597 H   0  0  0  0  0  0
   17.3223   21.0570   78.0315 H   0  0  0  0  0  0
   16.0881   22.3571   77.9174 H   0  0  0  0  0  0
   15.6420   20.8256   79.9901 H   0  0  0  0  0  0
   13.3045   24.5912   75.6755 H   0  0  0  0  0  0
   10.9968   20.8257   75.9186 H   0  0  0  0  0  0
   12.9069   22.4884   79.5464 H   0  0  0  0  0  0
   13.7879   24.4621   78.1843 H   0  0  0  0  0  0
   15.1297   17.5357   71.1922 H   0  0  0  0  0  0
   15.7799   20.0128   71.2317 H   0  0  0  0  0  0
   16.6141   21.0816   73.4014 H   0  0  0  0  0  0
   15.3754   16.1154   73.3075 H   0  0  0  0  0  0
   17.7831   20.4767   75.6837 H   0  0  0  0  0  0
   17.1804   19.0524   76.5974 H   0  0  0  0  0  0
   13.8912   19.3436   76.2715 H   0  0  0  0  0  0
  1  2  1  0  0  0
  1  5  1  0  0  0
  1  9  1  0  0  0
  1 41  1  0  0  0
  2  3  1  0  0  0
  2 42  1  0  0  0
  2 43  1  0  0  0
  3  4  2  0  0  0
  3  8  1  0  0  0
  4  5  1  0  0  0
  5  6  2  0  0  0
  5  7  2  0  0  0
  9 10  2  0  0  0
  9 14  1  0  0  0
 10 11  1  0  0  0
 10 44  1  0  0  0
 11 12  2  0  0  0
 11 45  1  0  0  0
 12 13  1  0  0  0
 12 15  1  0  0  0
 13 14  2  0  0  0
 13 46  1  0  0  0
 14 47  1  0  0  0
 15 16  1  0  0  0
 15 48  1  0  0  0
 15 49  1  0  0  0
 16 17  1  0  0  0
 16 24  1  0  0  0
 16 50  1  0  0  0
 17 18  1  0  0  0
 17 51  1  0  0  0
 18 19  2  0  0  0
 18 20  2  0  0  0
 18 30  1  0  0  0
 21 22  1  0  0  0
 21 23  1  0  0  0
 21 39  1  0  0  0
 21 52  1  0  0  0
 22 25  1  0  0  0
 22 53  1  0  0  0
 22 54  1  0  0  0
 23 24  2  0  0  0
 23 66  1  0  0  0
 24 25  1  0  0  0
 25 55  1  0  0  0
 26 27  1  0  0  0
 27 28  2  0  0  0
 27 29  1  0  0  0
 28 32  1  0  0  0
 28 56  1  0  0  0
 29 30  2  0  0  0
 29 57  1  0  0  0
 30 31  1  0  0  0
 31 32  2  0  0  0
 31 58  1  0  0  0
 32 59  1  0  0  0
 33 34  2  0  0  0
 33 38  1  0  0  0
 33 60  1  0  0  0
 34 35  1  0  0  0
 34 61  1  0  0  0
 35 36  2  0  0  0
 35 62  1  0  0  0
 36 37  1  0  0  0
 36 39  1  0  0  0
 37 38  2  0  0  0
 37 40  1  0  0  0
 38 63  1  0  0  0
 39 64  1  0  0  0
 39 65  1  0  0  0
M  CHG  2   8  -1  23   1
M  END
> <s_m_source_file>
../2vew_ligand.sdf

> <i_m_source_file_index>
1

> <s_epik_input>
W05IXTFDKD1PKVtDSDJdW0NASF0oUzEoPU8pPU8pYzJbY0hdW2NIXWMoW2NIXVtjSF0yKVtDSDJdW0NASF0oW05IXVMoPU8pKD1PKWMoW2NIXTMpW2NIXVtjSF1bY0hdYzNGKUMoPU40KVtOSF1bQ0gyXVtDQEhdNFtDSDJdYzVbY0hdW2NIXVtjSF1bY0hdYzVG

> <s_epik_cmdline>
J2VwaWtfYXBwJywgJy1pbWFlJywgJ2xpZ2FuZF9wcm8ubWFlJywgJy1vbWFlJywgJ2xpZ2FuZF9wcmVwLm1hZScsICctbXMnLCAnMScsICctcGgnLCAnNycsICctcGh0JywgJzAuNScsICctbnQn

> <r_lp_tautomer_probability>
1

> <r_epik_Ionization_Penalty>
  0.0053

> <r_epik_Ionization_Penalty_Charging>
  0.0030

> <r_epik_Ionization_Penalty_Neutral>
  0.0024

> <r_epik_State_Penalty>
 -0.0000

> <r_epik_Charging_Adjusted_Penalty>
0.00295893092315358

> <i_epik_Tot_Q>
0

> <i_epik_Tot_abs_Q>
2

> <s_epik_Chemistry_Notes>
This compound has an imine and may undergo hydrolysis.

$$$$
