2vex_ligand
                    3D
 Schrodinger Suite 2020-3.
 69 73  0  0  1  0            999 V2000
   18.9950   16.6810   82.1540 C   0  0  2  0  0  0
   20.2680   17.3030   81.6540 C   0  0  0  0  0  0
   21.4180   16.6200   82.3030 C   0  0  0  0  0  0
   21.1440   15.3820   82.7140 N   0  0  0  0  0  0
   19.4000   14.9480   82.4380 S   0  0  0  0  0  0
   18.4540   14.5750   83.7760 O   0  0  0  0  0  0
   18.9890   14.1490   81.0150 O   0  0  0  0  0  0
   22.5230   17.1250   82.4980 O   0  5  0  0  0  0
   17.7650   16.8560   81.3000 C   0  0  0  0  0  0
   17.8460   16.6820   79.8450 C   0  0  0  0  0  0
   16.6380   16.8570   79.0200 C   0  0  0  0  0  0
   15.3600   17.2080   79.6630 C   0  0  0  0  0  0
   15.2900   17.3790   81.1110 C   0  0  0  0  0  0
   16.4930   17.2040   81.9310 C   0  0  0  0  0  0
   14.1240   17.3920   78.8300 C   0  0  0  0  0  0
   13.5670   18.8290   78.8950 C   0  0  2  0  0  0
   12.2370   18.8140   78.2660 N   0  0  3  0  0  0
   11.1250   20.1440   78.5230 S   0  0  0  0  0  0
    9.6070   19.4500   78.1370 O   0  0  0  0  0  0
   11.2840   20.6440   80.1270 O   0  0  0  0  0  0
   15.5360   20.5450   76.2350 C   0  0  2  0  0  0
   16.1730   21.1390   77.4810 C   0  0  0  0  0  0
   14.4770   19.6530   76.7170 N   0  3  0  0  0  0
   14.5280   19.7400   78.1270 C   0  0  0  0  0  0
   15.4680   20.6390   78.6820 N   0  0  0  0  0  0
   11.1460   22.3710   73.6980 F   0  0  0  0  0  0
   11.6060   22.4070   75.0680 C   0  0  0  0  0  0
   12.5110   23.4750   75.5080 C   0  0  0  0  0  0
   11.1750   21.3770   76.0070 C   0  0  0  0  0  0
   11.6440   21.4060   77.3840 C   0  0  0  0  0  0
   12.5510   22.4710   77.8310 C   0  0  0  0  0  0
   12.9830   23.5060   76.8910 C   0  0  0  0  0  0
   15.9070   19.0830   74.1930 C   0  0  0  0  0  0
   16.5360   19.6800   75.4400 C   0  0  0  0  0  0
   17.7290   17.6670   73.0160 C   0  0  0  0  0  0
   16.4500   17.7370   73.7390 C   0  0  0  0  0  0
   15.6860   16.5060   74.0060 C   0  0  0  0  0  0
   16.2010   15.2110   73.5460 C   0  0  0  0  0  0
   17.4800   15.1470   72.8190 C   0  0  0  0  0  0
   18.2420   16.3720   72.5560 C   0  0  0  0  0  0
   18.6644   17.3718   82.9436 H   0  0  0  0  0  0
   20.3300   17.1841   80.5622 H   0  0  0  0  0  0
   20.2773   18.3734   81.9073 H   0  0  0  0  0  0
   18.7960   16.4244   79.3767 H   0  0  0  0  0  0
   16.6897   16.7274   77.9390 H   0  0  0  0  0  0
   14.3422   17.6371   81.5834 H   0  0  0  0  0  0
   16.4388   17.3335   83.0119 H   0  0  0  0  0  0
   14.3543   17.1685   77.7779 H   0  0  0  0  0  0
   13.3372   16.7106   79.1858 H   0  0  0  0  0  0
   13.4353   19.2080   79.9192 H   0  0  0  0  0  0
   11.9967   18.0563   77.5056 H   0  0  0  0  0  0
   15.1384   21.3450   75.5932 H   0  0  0  0  0  0
   17.2316   20.8438   77.5279 H   0  0  0  0  0  0
   16.0996   22.2359   77.4430 H   0  0  0  0  0  0
   15.7551   21.0028   79.6796 H   0  0  0  0  0  0
   12.8307   24.2439   74.8047 H   0  0  0  0  0  0
   10.5017   20.5858   75.6770 H   0  0  0  0  0  0
   12.9023   22.4905   78.8626 H   0  0  0  0  0  0
   13.6551   24.2980   77.2213 H   0  0  0  0  0  0
   14.8305   18.9321   74.3616 H   0  0  0  0  0  0
   16.0527   19.7681   73.3448 H   0  0  0  0  0  0
   17.3910   20.2990   75.1304 H   0  0  0  0  0  0
   16.8916   18.8544   76.0740 H   0  0  0  0  0  0
   18.2958   18.5776   72.8220 H   0  0  0  0  0  0
   14.7396   16.5569   74.5444 H   0  0  0  0  0  0
   15.6380   14.2985   73.7421 H   0  0  0  0  0  0
   17.8617   14.1857   72.4751 H   0  0  0  0  0  0
   19.1891   16.3203   72.0190 H   0  0  0  0  0  0
   13.7342   19.0021   76.2326 H   0  0  0  0  0  0
  1  2  1  0  0  0
  1  5  1  0  0  0
  1  9  1  0  0  0
  1 41  1  0  0  0
  2  3  1  0  0  0
  2 42  1  0  0  0
  2 43  1  0  0  0
  3  4  2  0  0  0
  3  8  1  0  0  0
  4  5  1  0  0  0
  5  6  2  0  0  0
  5  7  2  0  0  0
  9 10  2  0  0  0
  9 14  1  0  0  0
 10 11  1  0  0  0
 10 44  1  0  0  0
 11 12  2  0  0  0
 11 45  1  0  0  0
 12 13  1  0  0  0
 12 15  1  0  0  0
 13 14  2  0  0  0
 13 46  1  0  0  0
 14 47  1  0  0  0
 15 16  1  0  0  0
 15 48  1  0  0  0
 15 49  1  0  0  0
 16 17  1  0  0  0
 16 24  1  0  0  0
 16 50  1  0  0  0
 17 18  1  0  0  0
 17 51  1  0  0  0
 18 19  2  0  0  0
 18 20  2  0  0  0
 18 30  1  0  0  0
 21 22  1  0  0  0
 21 23  1  0  0  0
 21 34  1  0  0  0
 21 52  1  0  0  0
 22 25  1  0  0  0
 22 53  1  0  0  0
 22 54  1  0  0  0
 23 24  2  0  0  0
 23 69  1  0  0  0
 24 25  1  0  0  0
 25 55  1  0  0  0
 26 27  1  0  0  0
 27 28  2  0  0  0
 27 29  1  0  0  0
 28 32  1  0  0  0
 28 56  1  0  0  0
 29 30  2  0  0  0
 29 57  1  0  0  0
 30 31  1  0  0  0
 31 32  2  0  0  0
 31 58  1  0  0  0
 32 59  1  0  0  0
 33 34  1  0  0  0
 33 36  1  0  0  0
 33 60  1  0  0  0
 33 61  1  0  0  0
 34 62  1  0  0  0
 34 63  1  0  0  0
 35 36  2  0  0  0
 35 40  1  0  0  0
 35 64  1  0  0  0
 36 37  1  0  0  0
 37 38  2  0  0  0
 37 65  1  0  0  0
 38 39  1  0  0  0
 38 66  1  0  0  0
 39 40  2  0  0  0
 39 67  1  0  0  0
 40 68  1  0  0  0
M  CHG  2   8  -1  23   1
M  END
> <s_m_source_file>
../2vex_ligand.sdf

> <i_m_source_file_index>
1

> <s_epik_input>
W05IXTFDKD1PKVtDSDJdW0NASF0oUzEoPU8pPU8pYzJbY0hdW2NIXWMoW2NIXVtjSF0yKVtDSDJdW0NASF0oW05IXVMoPU8pKD1PKWMoW2NIXTMpW2NIXVtjSF1bY0hdYzNGKUMoPU40KVtOSF1bQ0gyXVtDQEhdNFtDSDJdW0NIMl1jNVtjSF1bY0hdW2NIXVtjSF1bY0hdNQ==

> <s_epik_cmdline>
J2VwaWtfYXBwJywgJy1pbWFlJywgJ2xpZ2FuZF9wcm8ubWFlJywgJy1vbWFlJywgJ2xpZ2FuZF9wcmVwLm1hZScsICctbXMnLCAnMScsICctcGgnLCAnNycsICctcGh0JywgJzAuNScsICctbnQn

> <r_lp_tautomer_probability>
1

> <r_epik_Ionization_Penalty>
  0.0028

> <r_epik_Ionization_Penalty_Charging>
  0.0014

> <r_epik_Ionization_Penalty_Neutral>
  0.0014

> <r_epik_State_Penalty>
 -0.0000

> <r_epik_Charging_Adjusted_Penalty>
0.0013746577835539

> <i_epik_Tot_Q>
0

> <i_epik_Tot_abs_Q>
2

> <s_epik_Chemistry_Notes>
This compound has an imine and may undergo hydrolysis.

$$$$
