2vey_ligand
                    3D
 Schrodinger Suite 2020-3.
 69 73  0  0  1  0            999 V2000
   19.2350   16.5500   81.9160 C   0  0  2  0  0  0
   20.5300   17.1030   81.3930 C   0  0  0  0  0  0
   21.6510   16.3950   82.0470 C   0  0  0  0  0  0
   21.3110   15.2340   82.6110 N   0  0  0  0  0  0
   19.5700   14.8270   82.2380 S   0  0  0  0  0  0
   18.7340   14.2620   83.5700 O   0  0  0  0  0  0
   19.3330   14.0460   80.7340 O   0  0  0  0  0  0
   22.8030   16.8010   82.0830 O   0  5  0  0  0  0
   18.0080   16.7670   81.0460 C   0  0  0  0  0  0
   18.1310   16.7450   79.5810 C   0  0  0  0  0  0
   16.9410   16.9860   78.7500 C   0  0  0  0  0  0
   15.6470   17.2350   79.3970 C   0  0  0  0  0  0
   15.5240   17.2560   80.8560 C   0  0  0  0  0  0
   16.7050   17.0240   81.6790 C   0  0  0  0  0  0
   14.4030   17.4610   78.5760 C   0  0  0  0  0  0
   13.8710   18.8860   78.7280 C   0  0  2  0  0  0
   12.5530   18.9410   78.1120 N   0  0  3  0  0  0
   11.5960   20.3590   78.3320 S   0  0  0  0  0  0
   10.0510   19.6560   77.9470 O   0  0  0  0  0  0
   11.8490   20.8170   79.9400 O   0  0  0  0  0  0
   15.8710   20.8140   76.2950 C   0  0  0  0  0  0
   16.3340   21.4530   77.5030 C   0  0  0  0  0  0
   14.9170   19.8300   76.6230 N   0  3  0  0  0  0
   14.7940   19.8620   78.0270 C   0  0  0  0  0  0
   15.6420   20.8420   78.5750 N   0  0  0  0  0  0
   13.3160   23.4660   76.1530 C   0  0  0  0  0  0
   12.6720   23.2980   74.8440 C   0  0  0  0  0  0
   12.9670   22.5530   77.2500 C   0  0  0  0  0  0
   11.9900   21.4890   77.0280 C   0  0  0  0  0  0
   11.3460   21.3230   75.7290 C   0  0  0  0  0  0
   11.6930   22.2290   74.6390 C   0  0  0  0  0  0
   16.3100   21.1220   74.8780 C   0  0  0  0  0  0
   16.6210   15.2970   73.2150 C   0  0  0  0  0  0
   17.6250   15.2020   72.1460 C   0  0  0  0  0  0
   18.5730   16.3030   71.8950 C   0  0  0  0  0  0
   18.5110   17.5100   72.7200 C   0  0  0  0  0  0
   17.5020   17.6050   73.7860 C   0  0  0  0  0  0
   16.5590   16.5040   74.0410 C   0  0  0  0  0  0
   11.0750   22.0470   73.3370 F   0  0  0  0  0  0
   16.4210   19.8630   74.0140 C   0  0  0  0  0  0
   17.4120   18.8570   74.6060 C   0  0  0  0  0  0
   18.9373   17.2539   82.7071 H   0  0  0  0  0  0
   20.5797   16.9531   80.3044 H   0  0  0  0  0  0
   20.5871   18.1782   81.6180 H   0  0  0  0  0  0
   19.0967   16.5516   79.1140 H   0  0  0  0  0  0
   17.0196   16.9797   77.6629 H   0  0  0  0  0  0
   14.5572   17.4436   81.3231 H   0  0  0  0  0  0
   16.6223   17.0410   82.7657 H   0  0  0  0  0  0
   14.6288   17.2891   77.5132 H   0  0  0  0  0  0
   13.6172   16.7634   78.9013 H   0  0  0  0  0  0
   13.7723   19.1698   79.7862 H   0  0  0  0  0  0
   12.2508   18.1683   77.3898 H   0  0  0  0  0  0
   17.0730   22.2510   77.5755 H   0  0  0  0  0  0
   14.0459   24.2603   76.3093 H   0  0  0  0  0  0
   12.9233   23.9703   74.0237 H   0  0  0  0  0  0
   13.4357   22.6690   78.2272 H   0  0  0  0  0  0
   10.6136   20.5307   75.5746 H   0  0  0  0  0  0
   15.5788   21.7944   74.4056 H   0  0  0  0  0  0
   17.2964   21.6084   74.8973 H   0  0  0  0  0  0
   15.9276   14.4747   73.3915 H   0  0  0  0  0  0
   17.6695   14.3042   71.5295 H   0  0  0  0  0  0
   19.3146   16.2185   71.1007 H   0  0  0  0  0  0
   19.2063   18.3313   72.5461 H   0  0  0  0  0  0
   15.8205   16.5867   74.8384 H   0  0  0  0  0  0
   15.4359   19.3787   73.9435 H   0  0  0  0  0  0
   16.7669   20.1387   73.0069 H   0  0  0  0  0  0
   17.0783   18.6056   75.6236 H   0  0  0  0  0  0
   18.4007   19.3368   74.6524 H   0  0  0  0  0  0
   14.4467   19.2332   75.8276 H   0  0  0  0  0  0
  1  2  1  0  0  0
  1  5  1  0  0  0
  1  9  1  0  0  0
  1 42  1  0  0  0
  2  3  1  0  0  0
  2 43  1  0  0  0
  2 44  1  0  0  0
  3  4  2  0  0  0
  3  8  1  0  0  0
  4  5  1  0  0  0
  5  6  2  0  0  0
  5  7  2  0  0  0
  9 10  2  0  0  0
  9 14  1  0  0  0
 10 11  1  0  0  0
 10 45  1  0  0  0
 11 12  2  0  0  0
 11 46  1  0  0  0
 12 13  1  0  0  0
 12 15  1  0  0  0
 13 14  2  0  0  0
 13 47  1  0  0  0
 14 48  1  0  0  0
 15 16  1  0  0  0
 15 49  1  0  0  0
 15 50  1  0  0  0
 16 17  1  0  0  0
 16 24  1  0  0  0
 16 51  1  0  0  0
 17 18  1  0  0  0
 17 52  1  0  0  0
 18 19  2  0  0  0
 18 20  2  0  0  0
 18 29  1  0  0  0
 21 22  2  0  0  0
 21 23  1  0  0  0
 21 32  1  0  0  0
 22 25  1  0  0  0
 22 53  1  0  0  0
 23 24  2  0  0  0
 23 69  1  0  0  0
 24 25  1  0  0  0
 26 27  2  0  0  0
 26 28  1  0  0  0
 26 54  1  0  0  0
 27 31  1  0  0  0
 27 55  1  0  0  0
 28 29  2  0  0  0
 28 56  1  0  0  0
 29 30  1  0  0  0
 30 31  2  0  0  0
 30 57  1  0  0  0
 31 39  1  0  0  0
 32 40  1  0  0  0
 32 58  1  0  0  0
 32 59  1  0  0  0
 33 34  2  0  0  0
 33 38  1  0  0  0
 33 60  1  0  0  0
 34 35  1  0  0  0
 34 61  1  0  0  0
 35 36  2  0  0  0
 35 62  1  0  0  0
 36 37  1  0  0  0
 36 63  1  0  0  0
 37 38  2  0  0  0
 37 41  1  0  0  0
 38 64  1  0  0  0
 40 41  1  0  0  0
 40 65  1  0  0  0
 40 66  1  0  0  0
 41 67  1  0  0  0
 41 68  1  0  0  0
M  CHG  2   8  -1  23   1
M  END
> <s_m_source_file>
../2vey_ligand.sdf

> <i_m_source_file_index>
1

> <s_epik_input>
W05IXTFDKD1PKVtDSDJdW0NASF0oUzEoPU8pPU8pYzJbY0hdW2NIXWMoW2NIXVtjSF0yKVtDSDJdW0NASF0oW05IXVMoPU8pKD1PKWMzW2NIXVtjSF1bY0hdYyhGKVtjSF0zKWMobjQpW25IXVtjSF1jNFtDSDJdW0NIMl1bQ0gyXWM1W2NIXVtjSF1bY0hdW2NIXVtjSF01

> <s_epik_cmdline>
J2VwaWtfYXBwJywgJy1pbWFlJywgJ2xpZ2FuZF9wcm8ubWFlJywgJy1vbWFlJywgJ2xpZ2FuZF9wcmVwLm1hZScsICctbXMnLCAnMScsICctcGgnLCAnNycsICctcGh0JywgJzAuNScsICctbnQn

> <r_lp_tautomer_probability>
1

> <r_epik_Ionization_Penalty>
  2.0218

> <r_epik_Ionization_Penalty_Charging>
  0.0000

> <r_epik_Ionization_Penalty_Neutral>
  2.0218

> <r_epik_State_Penalty>
 -0.0000

> <r_epik_Charging_Adjusted_Penalty>
7.54010937420747e-07

> <i_epik_Tot_Q>
0

> <i_epik_Tot_abs_Q>
2

$$$$
