2vfz_ligand
                    3D
 Schrodinger Suite 2020-3.
 57 59  0  0  1  0            999 V2000
   -4.4610    9.1130  -10.8310 N   0  0  0  0  0  0
   -4.4020    8.9640  -12.2560 C   0  0  0  0  0  0
   -4.5300   10.0790  -13.1020 N   0  0  0  0  0  0
   -4.7400   11.3640  -12.5440 C   0  0  0  0  0  0
   -4.8090   11.5540  -11.1450 C   0  0  0  0  0  0
   -4.6780   10.4380  -10.3000 C   0  0  0  0  0  0
   -4.2140    7.8420  -12.7680 O   0  0  0  0  0  0
   -4.8580   12.3260  -13.2940 O   0  0  0  0  0  0
   -4.3100    7.9020   -9.8870 C   0  0  1  0  0  0
   -2.8590    7.4480   -9.9090 C   0  0  2  0  0  0
   -2.7760    6.0120   -9.8960 O   0  0  0  0  0  0
   -2.2740    8.0440   -8.6560 C   0  0  1  0  0  0
   -3.4480    7.9830   -7.6640 C   0  0  2  0  0  0
   -4.6530    8.2230   -8.4910 O   0  0  0  0  0  0
   -1.1080    7.3560   -8.2390 O   0  0  0  0  0  0
   -3.3730    9.0670   -6.5610 C   0  0  0  0  0  0
   -3.3110   10.4070   -7.1180 O   0  0  0  0  0  0
   -2.0460   11.3530   -6.8790 P   0  0  1  0  0  0
   -0.8080   10.6010   -7.0400 O   0  0  0  0  0  0
   -2.2290   12.5380   -7.7720 O   0  5  0  0  0  0
   -2.2490   11.7860   -5.3480 O   0  0  0  0  0  0
   -1.1490   11.9490   -4.1550 P   0  0  1  0  0  0
    0.2500   11.6880   -4.5370 O   0  0  0  0  0  0
   -1.4810   13.2560   -3.5200 O   0  5  0  0  0  0
   -1.5300   10.6840   -3.2520 O   0  0  0  0  0  0
   -2.1370   10.5990   -1.9420 C   0  0  2  0  0  0
   -2.2440    9.0730   -1.7010 C   0  0  1  0  0  0
   -3.2800    8.4630   -2.7170 C   0  0  2  0  0  0
   -4.6630    9.1600   -2.5600 C   0  0  2  0  0  0
   -4.4820   10.7030   -2.7530 C   0  0  1  0  0  0
   -5.7900   11.5030   -2.5690 C   0  0  0  0  0  0
   -1.0100    8.4720   -1.8080 F   0  0  0  0  0  0
   -3.4110    7.0570   -2.5510 O   0  0  0  0  0  0
   -5.2160    8.8470   -1.2830 O   0  0  0  0  0  0
   -3.4460   11.2610   -1.8390 O   0  0  0  0  0  0
   -5.5040   12.9030   -2.7560 O   0  0  0  0  0  0
   -4.4670    9.9519  -14.1928 H   0  0  0  0  0  0
   -4.9613   12.5495  -10.7281 H   0  0  0  0  0  0
   -4.7416   10.5761   -9.2207 H   0  0  0  0  0  0
   -5.0098    7.1137  -10.2014 H   0  0  0  0  0  0
   -2.3055    7.7209  -10.8196 H   0  0  0  0  0  0
   -3.1634    5.4310  -10.7459 H   0  0  0  0  0  0
   -1.8327    9.0449   -8.7721 H   0  0  0  0  0  0
   -3.4790    7.0062   -7.1590 H   0  0  0  0  0  0
   -0.2164    7.3441   -8.8832 H   0  0  0  0  0  0
   -4.2657    9.0019   -5.9216 H   0  0  0  0  0  0
   -2.4722    8.9070   -5.9503 H   0  0  0  0  0  0
   -1.5363   11.1774   -1.2247 H   0  0  0  0  0  0
   -2.4782    8.8312   -0.6538 H   0  0  0  0  0  0
   -2.9111    8.5394   -3.7505 H   0  0  0  0  0  0
   -5.4187    8.7616   -3.2529 H   0  0  0  0  0  0
   -4.1211   10.8504   -3.7816 H   0  0  0  0  0  0
   -6.5308   11.1701   -3.3109 H   0  0  0  0  0  0
   -6.1840   11.3337   -1.5560 H   0  0  0  0  0  0
   -2.5258    6.4089   -2.6308 H   0  0  0  0  0  0
   -5.4001    7.7987   -1.0053 H   0  0  0  0  0  0
   -6.3102   13.6459   -2.6659 H   0  0  0  0  0  0
  1  2  1  0  0  0
  1  6  1  0  0  0
  1  9  1  0  0  0
  2  3  1  0  0  0
  2  7  2  0  0  0
  3  4  1  0  0  0
  3 37  1  0  0  0
  4  5  1  0  0  0
  4  8  2  0  0  0
  5  6  2  0  0  0
  5 38  1  0  0  0
  6 39  1  0  0  0
  9 10  1  0  0  0
  9 14  1  0  0  0
  9 40  1  0  0  0
 10 11  1  0  0  0
 10 12  1  0  0  0
 10 41  1  0  0  0
 11 42  1  0  0  0
 12 13  1  0  0  0
 12 15  1  0  0  0
 12 43  1  0  0  0
 13 14  1  0  0  0
 13 16  1  0  0  0
 13 44  1  0  0  0
 15 45  1  0  0  0
 16 17  1  0  0  0
 16 46  1  0  0  0
 16 47  1  0  0  0
 17 18  1  0  0  0
 18 19  2  0  0  0
 18 20  1  0  0  0
 18 21  1  0  0  0
 21 22  1  0  0  0
 22 23  2  0  0  0
 22 24  1  0  0  0
 22 25  1  0  0  0
 25 26  1  0  0  0
 26 27  1  0  0  0
 26 35  1  0  0  0
 26 48  1  0  0  0
 27 28  1  0  0  0
 27 32  1  0  0  0
 27 49  1  0  0  0
 28 29  1  0  0  0
 28 33  1  0  0  0
 28 50  1  0  0  0
 29 30  1  0  0  0
 29 34  1  0  0  0
 29 51  1  0  0  0
 30 31  1  0  0  0
 30 35  1  0  0  0
 30 52  1  0  0  0
 31 36  1  0  0  0
 31 53  1  0  0  0
 31 54  1  0  0  0
 33 55  1  0  0  0
 34 56  1  0  0  0
 36 57  1  0  0  0
M  CHG  2  20  -1  24  -1
M  END
> <s_m_source_file>
../2vfz_ligand.sdf

> <i_m_source_file_index>
1

> <s_epik_input>
W2NIXTFbY0hdYyg9TylbbkhdYyg9TyluMVtDQEhdMltDQEhdKFtPSF0pW0NASF0oW09IXSlbQ0BIXShPMilbQ0gyXU9bUEBAXSg9TykoW09IXSlPW1BAQF0oPU8pKFtPSF0pT1tDQEBIXTNbQ0BIXShGKVtDQEBIXShbT0hdKVtDQEBIXShbT0hdKVtDQEhdKE8zKVtDSDJdW09IXQ==

> <s_epik_cmdline>
J2VwaWtfYXBwJywgJy1pbWFlJywgJ2xpZ2FuZF9wcm8ubWFlJywgJy1vbWFlJywgJ2xpZ2FuZF9wcmVwLm1hZScsICctbXMnLCAnMScsICctcGgnLCAnNycsICctcGh0JywgJzAuNScsICctbnQn

> <r_lp_tautomer_probability>
1

> <r_epik_Ionization_Penalty>
  0.0030

> <r_epik_Ionization_Penalty_Charging>
  0.0030

> <r_epik_Ionization_Penalty_Neutral>
  0.0000

> <r_epik_State_Penalty>
 -0.0000

> <r_epik_Charging_Adjusted_Penalty>
0.00302439829653824

> <i_epik_Tot_Q>
-2

> <i_epik_Tot_abs_Q>
2

> <s_epik_Chemistry_Notes>
This compound contains an acetal/aminal-like group ( X-CH(R)-Y where X, Y are N, S, or O) that may be acid/base labile, releasing an aldehyde.

$$$$
