2vgc_ligand
                    3D
 Schrodinger Suite 2020-3.
 27 27  0  0  1  0            999 V2000
   27.4960    2.9610   39.9210 C   0  0  0  0  0  0
   27.9050    2.3540   41.1090 C   0  0  0  0  0  0
   27.6380    2.9430   42.3410 C   0  0  0  0  0  0
   26.9580    4.1490   42.3770 C   0  0  0  0  0  0
   26.5560    4.7720   41.2110 C   0  0  0  0  0  0
   26.8250    4.1790   39.9980 C   0  0  0  0  0  0
   27.7010    2.2850   38.5910 C   0  0  0  0  0  0
   29.0930    2.4580   37.9830 C   0  0  1  0  0  0
   32.3350    0.4890   38.1780 C   0  0  0  0  0  0
   31.3960    1.6830   38.2660 C   0  0  0  0  0  0
   30.0900    1.4540   38.3230 N   0  0  0  0  0  0
   31.8630    2.8300   38.3330 O   0  0  0  0  0  0
   28.8750    1.0330   35.9220 O   0  0  0  0  0  0
   28.8960    2.4400   36.3550 B   0  0  0  0  0  0
   26.5290    4.9630   43.8510 Cl  0  0  0  0  0  0
   28.4409    1.4056   41.0714 H   0  0  0  0  0  0
   27.9595    2.4620   43.2648 H   0  0  0  0  0  0
   26.0299    5.7258   41.2513 H   0  0  0  0  0  0
   26.5065    4.6725   39.0798 H   0  0  0  0  0  0
   27.5388    1.2026   38.7010 H   0  0  0  0  0  0
   26.9864    2.6904   37.8596 H   0  0  0  0  0  0
   29.5280    3.3361   38.4827 H   0  0  0  0  0  0
   31.7453   -0.4382   38.1266 H   0  0  0  0  0  0
   32.9807    0.4640   39.0682 H   0  0  0  0  0  0
   32.9578    0.5780   37.2756 H   0  0  0  0  0  0
   29.7730    0.4511   38.6450 H   0  0  0  0  0  0
   28.7514    0.7871   34.8570 H   0  0  0  0  0  0
  1  2  2  0  0  0
  1  6  1  0  0  0
  1  7  1  0  0  0
  2  3  1  0  0  0
  2 16  1  0  0  0
  3  4  2  0  0  0
  3 17  1  0  0  0
  4  5  1  0  0  0
  4 15  1  0  0  0
  5  6  2  0  0  0
  5 18  1  0  0  0
  6 19  1  0  0  0
  7  8  1  0  0  0
  7 20  1  0  0  0
  7 21  1  0  0  0
  8 11  1  0  0  0
  8 14  1  0  0  0
  8 22  1  0  0  0
  9 10  1  0  0  0
  9 23  1  0  0  0
  9 24  1  0  0  0
  9 25  1  0  0  0
 10 11  1  0  0  0
 10 12  2  0  0  0
 11 26  1  0  0  0
 13 14  1  0  0  0
 13 27  1  0  0  0
M  END
> <s_m_source_file>
../2vgc_ligand.sdf

> <i_m_source_file_index>
1

> <s_epik_input>
W0NIM11DKD1PKVtOSF1bQ0BASF0oW0JIXVtPSF0pW0NIMl1jMVtjSF1bY0hdYyhDbClbY0hdW2NIXTE=

> <s_epik_cmdline>
J2VwaWtfYXBwJywgJy1pbWFlJywgJ2xpZ2FuZF9wcm8ubWFlJywgJy1vbWFlJywgJ2xpZ2FuZF9wcmVwLm1hZScsICctbXMnLCAnMScsICctcGgnLCAnNycsICctcGh0JywgJzAuNScsICctbnQn

> <r_lp_tautomer_probability>
1

> <r_epik_Ionization_Penalty>
  0.0000

> <r_epik_Ionization_Penalty_Charging>
  0.0000

> <r_epik_Ionization_Penalty_Neutral>
  0.0000

> <r_epik_State_Penalty>
 -0.0000

> <r_epik_Charging_Adjusted_Penalty>
0

> <i_epik_Tot_Q>
0

> <i_epik_Tot_abs_Q>
0

$$$$
