2vgo_ligand
                    3D
 Schrodinger Suite 2020-3.
 56 60  0  0  1  0            999 V2000
    7.4330    0.4430    2.4390 C   0  0  0  0  0  0
    6.2010    1.2800    2.0640 C   0  0  0  0  0  0
    5.0300    1.0330    3.0310 C   0  0  0  0  0  0
    5.5070    0.4120    4.3540 C   0  0  0  0  0  0
    6.8000    1.0790    4.8350 C   0  0  0  0  0  0
    7.9550    0.8340    3.8350 C   0  0  0  0  0  0
    8.7770    2.0490    3.7300 N   0  0  0  0  0  0
    9.9290    2.1840    4.4000 C   0  0  0  0  0  0
   10.8870    1.2450    4.3620 N   0  0  0  0  0  0
   10.0780    3.2980    5.1130 C   0  0  0  0  0  0
    9.2900    4.3510    5.3070 N   0  0  0  0  0  0
    9.9270    5.1930    6.1150 C   0  0  0  0  0  0
   11.1070    4.6580    6.4190 N   0  3  0  0  0  0
   11.2040    3.4870    5.8020 C   0  0  0  0  0  0
   12.1770    2.5600    5.7730 N   0  0  0  0  0  0
   12.0290    1.4300    5.0480 C   0  0  0  0  0  0
   13.0270    0.5220    5.0650 N   0  0  0  0  0  0
   13.2180   -0.4310    4.1230 C   0  0  0  0  0  0
   14.5080   -0.9480    4.0140 C   0  0  0  0  0  0
   14.8090   -1.9400    3.0920 C   0  0  0  0  0  0
   12.2140   -0.9380    3.2900 C   0  0  0  0  0  0
   12.5110   -1.9290    2.3510 C   0  0  0  0  0  0
   13.8110   -2.4370    2.2540 C   0  0  0  0  0  0
   14.1310   -3.3890    1.3550 N   0  0  0  0  0  0
   13.4760   -4.7300    1.3930 C   0  0  0  0  0  0
   14.4290   -5.8380    0.9340 C   0  0  0  0  0  0
   15.1330   -5.4230   -0.2650 O   0  0  0  0  0  0
   16.0110   -4.3030   -0.0030 C   0  0  0  0  0  0
   15.1600   -3.0750    0.3180 C   0  0  0  0  0  0
    7.1632   -0.6234    2.4469 H   0  0  0  0  0  0
    8.2308    0.6139    1.7012 H   0  0  0  0  0  0
    6.4594    2.3487    2.0988 H   0  0  0  0  0  0
    5.8730    1.0149    1.0480 H   0  0  0  0  0  0
    4.5327    1.9880    3.2561 H   0  0  0  0  0  0
    4.3090    0.3449    2.5655 H   0  0  0  0  0  0
    4.7319    0.5469    5.1228 H   0  0  0  0  0  0
    5.6957   -0.6618    4.2080 H   0  0  0  0  0  0
    6.6398    2.1631    4.9304 H   0  0  0  0  0  0
    7.0854    0.6632    5.8125 H   0  0  0  0  0  0
    8.6002    0.0273    4.2131 H   0  0  0  0  0  0
    8.4508    2.8799    3.0872 H   0  0  0  0  0  0
    9.5491    6.1530    6.4667 H   0  0  0  0  0  0
   13.7583    0.5238    5.8867 H   0  0  0  0  0  0
   15.2944   -0.5660    4.6649 H   0  0  0  0  0  0
   15.8243   -2.3305    3.0226 H   0  0  0  0  0  0
   11.1959   -0.5580    3.3742 H   0  0  0  0  0  0
   11.7286   -2.3070    1.6929 H   0  0  0  0  0  0
   13.1556   -4.9525    2.4215 H   0  0  0  0  0  0
   12.5997   -4.7291    0.7281 H   0  0  0  0  0  0
   15.1602   -6.0453    1.7292 H   0  0  0  0  0  0
   13.8537   -6.7503    0.7180 H   0  0  0  0  0  0
   16.6618   -4.5394    0.8518 H   0  0  0  0  0  0
   16.6294   -4.1062   -0.8912 H   0  0  0  0  0  0
   14.6614   -2.7420   -0.6042 H   0  0  0  0  0  0
   15.8204   -2.2763    0.6867 H   0  0  0  0  0  0
   11.9333    5.0173    7.0500 H   0  0  0  0  0  0
  1  2  1  0  0  0
  1  6  1  0  0  0
  1 30  1  0  0  0
  1 31  1  0  0  0
  2  3  1  0  0  0
  2 32  1  0  0  0
  2 33  1  0  0  0
  3  4  1  0  0  0
  3 34  1  0  0  0
  3 35  1  0  0  0
  4  5  1  0  0  0
  4 36  1  0  0  0
  4 37  1  0  0  0
  5  6  1  0  0  0
  5 38  1  0  0  0
  5 39  1  0  0  0
  6  7  1  0  0  0
  6 40  1  0  0  0
  7  8  1  0  0  0
  7 41  1  0  0  0
  8  9  2  0  0  0
  8 10  1  0  0  0
  9 16  1  0  0  0
 10 11  2  0  0  0
 10 14  1  0  0  0
 11 12  1  0  0  0
 12 13  1  0  0  0
 12 42  1  0  0  0
 13 14  2  0  0  0
 13 56  1  0  0  0
 14 15  1  0  0  0
 15 16  2  0  0  0
 16 17  1  0  0  0
 17 18  1  0  0  0
 17 43  1  0  0  0
 18 19  2  0  0  0
 18 21  1  0  0  0
 19 20  1  0  0  0
 19 44  1  0  0  0
 20 23  2  0  0  0
 20 45  1  0  0  0
 21 22  2  0  0  0
 21 46  1  0  0  0
 22 23  1  0  0  0
 22 47  1  0  0  0
 23 24  1  0  0  0
 24 25  1  0  0  0
 24 29  1  0  0  0
 25 26  1  0  0  0
 25 48  1  0  0  0
 25 49  1  0  0  0
 26 27  1  0  0  0
 26 50  1  0  0  0
 26 51  1  0  0  0
 27 28  1  0  0  0
 28 29  1  0  0  0
 28 52  1  0  0  0
 28 53  1  0  0  0
 29 54  1  0  0  0
 29 55  1  0  0  0
M  CHG  1  13   1
M  END
> <s_m_source_file>
../2vgo_ligand.sdf

> <i_m_source_file_index>
1

> <s_epik_input>
W0NIMl0xW0NIMl1bQ0gyXVtDSDJdW0NIMl1bQ0hdMVtOSF1jMm5jKG5jKGMyPTMpPU5bQ0gyXU4zKVtOSF1jNFtjSF1bY0hdYyhbY0hdW2NIXTQpTjVbQ0gyXVtDSDJdT1tDSDJdW0NIMl01

> <s_epik_cmdline>
J2VwaWtfYXBwJywgJy1pbWFlJywgJ2xpZ2FuZF9wcm8ubWFlJywgJy1vbWFlJywgJ2xpZ2FuZF9wcmVwLm1hZScsICctbXMnLCAnMScsICctcGgnLCAnNycsICctcGh0JywgJzAuNScsICctbnQn

> <r_lp_tautomer_probability>
1

> <r_epik_Ionization_Penalty>
  0.0004

> <r_epik_Ionization_Penalty_Charging>
  0.0000

> <r_epik_Ionization_Penalty_Neutral>
  0.0004

> <r_epik_State_Penalty>
 -0.0000

> <r_epik_Charging_Adjusted_Penalty>
3.94674804204964e-16

> <i_epik_Tot_Q>
1

> <i_epik_Tot_abs_Q>
1

> <s_epik_Chemistry_Notes>
This compound has an imine and may undergo hydrolysis.

$$$$
