2vh0_ligand
                    3D
 Schrodinger Suite 2020-3.
 58 61  0  0  1  0            999 V2000
   13.8220    7.2750   26.2150 Cl  0  0  0  0  0  0
   12.0990    7.5040   26.2290 C   0  0  0  0  0  0
   11.2500    7.0320   27.2940 C   0  0  0  0  0  0
    9.8870    7.3570   26.9870 C   0  0  0  0  0  0
   11.2770    8.2770   24.9550 S   0  0  0  0  0  0
    9.7590    8.0390   25.7290 C   0  0  0  0  0  0
    8.4560    8.4510   25.2120 C   0  0  0  0  0  0
    8.2340    8.9080   23.9620 C   0  0  0  0  0  0
    6.5700    9.3200   23.6640 S   0  0  0  0  0  0
    6.5740   10.5810   23.0020 O   0  0  0  0  0  0
    5.8520    9.0250   24.8490 O   0  0  0  0  0  0
    6.0100    8.3860   22.4760 N   0  0  3  0  0  0
    5.9270    6.9520   22.6020 C   0  0  1  0  0  0
    4.5830    6.4590   22.0640 C   0  0  0  0  0  0
    4.9730    5.1140   21.4430 C   0  0  0  0  0  0
    6.9650    6.2580   21.7380 C   0  0  0  0  0  0
    8.1330    6.5980   21.5950 O   0  0  0  0  0  0
    6.3930    5.2080   21.1390 N   0  0  0  0  0  0
    7.0570    4.3150   20.3450 C   0  0  0  0  0  0
    6.9650    2.9290   20.6350 C   0  0  0  0  0  0
    7.6610    2.0260   19.8050 C   0  0  0  0  0  0
    8.4110    2.4810   18.7050 C   0  0  0  0  0  0
    8.5050    3.8650   18.4230 C   0  0  0  0  0  0
    7.8250    4.7560   19.2610 C   0  0  0  0  0  0
    7.8870    6.0780   19.0150 F   0  0  0  0  0  0
    9.1000    1.5920   17.8680 N   0  0  0  0  0  0
   10.2050    0.8970   18.2840 C   0  0  0  0  0  0
   10.6520    0.1200   17.1880 C   0  0  0  0  0  0
    9.7910    0.3760   16.1670 N   0  0  0  0  0  0
    8.8540    1.2630   16.5750 C   0  0  0  0  0  0
    7.7370    1.7940   15.6870 C   0  0  0  0  0  0
    7.1110    0.7450   14.8510 N   0  3  0  0  0  0
    6.4140   -0.2540   15.6790 C   0  0  0  0  0  0
    6.1700    1.3710   13.9110 C   0  0  0  0  0  0
   11.5894    6.5114   28.1894 H   0  0  0  0  0  0
    9.0444    7.1142   27.6344 H   0  0  0  0  0  0
    7.6213    8.3678   25.9235 H   0  0  0  0  0  0
    9.0681    8.9878   23.2494 H   0  0  0  0  0  0
    5.8437    8.8628   21.4988 H   0  0  0  0  0  0
    6.0839    6.7783   23.6768 H   0  0  0  0  0  0
    3.8686    6.3624   22.8949 H   0  0  0  0  0  0
    4.1954    7.1800   21.3292 H   0  0  0  0  0  0
    4.7737    4.3063   22.1627 H   0  0  0  0  0  0
    4.3819    4.9462   20.5306 H   0  0  0  0  0  0
    6.3721    2.5718   21.4770 H   0  0  0  0  0  0
    7.6172    0.9581   20.0192 H   0  0  0  0  0  0
    9.0902    4.2264   17.5774 H   0  0  0  0  0  0
   10.6565    0.9352   19.2754 H   0  0  0  0  0  0
   11.5127   -0.5485   17.1669 H   0  0  0  0  0  0
    6.9482    2.2348   16.3142 H   0  0  0  0  0  0
    8.1400    2.5623   15.0108 H   0  0  0  0  0  0
    7.8971    0.2199   14.2886 H   0  0  0  0  0  0
    7.1285   -0.7144   16.3772 H   0  0  0  0  0  0
    5.9825   -1.0308   15.0307 H   0  0  0  0  0  0
    5.6105    0.2372   16.2475 H   0  0  0  0  0  0
    6.7026    2.1141   13.2994 H   0  0  0  0  0  0
    5.3657    1.8676   14.4735 H   0  0  0  0  0  0
    5.7376    0.5996   13.2568 H   0  0  0  0  0  0
  1  2  1  0  0  0
  2  3  2  0  0  0
  2  5  1  0  0  0
  3  4  1  0  0  0
  3 35  1  0  0  0
  4  6  2  0  0  0
  4 36  1  0  0  0
  5  6  1  0  0  0
  6  7  1  0  0  0
  7  8  2  0  0  0
  7 37  1  0  0  0
  8  9  1  0  0  0
  8 38  1  0  0  0
  9 10  2  0  0  0
  9 11  2  0  0  0
  9 12  1  0  0  0
 12 13  1  0  0  0
 12 39  1  0  0  0
 13 14  1  0  0  0
 13 16  1  0  0  0
 13 40  1  0  0  0
 14 15  1  0  0  0
 14 41  1  0  0  0
 14 42  1  0  0  0
 15 18  1  0  0  0
 15 43  1  0  0  0
 15 44  1  0  0  0
 16 17  2  0  0  0
 16 18  1  0  0  0
 18 19  1  0  0  0
 19 20  2  0  0  0
 19 24  1  0  0  0
 20 21  1  0  0  0
 20 45  1  0  0  0
 21 22  2  0  0  0
 21 46  1  0  0  0
 22 23  1  0  0  0
 22 26  1  0  0  0
 23 24  2  0  0  0
 23 47  1  0  0  0
 24 25  1  0  0  0
 26 27  1  0  0  0
 26 30  1  0  0  0
 27 28  2  0  0  0
 27 48  1  0  0  0
 28 29  1  0  0  0
 28 49  1  0  0  0
 29 30  2  0  0  0
 30 31  1  0  0  0
 31 32  1  0  0  0
 31 50  1  0  0  0
 31 51  1  0  0  0
 32 33  1  0  0  0
 32 34  1  0  0  0
 32 52  1  0  0  0
 33 53  1  0  0  0
 33 54  1  0  0  0
 33 55  1  0  0  0
 34 56  1  0  0  0
 34 57  1  0  0  0
 34 58  1  0  0  0
M  CHG  1  32   1
M  END
> <s_m_source_file>
../2vh0_ligand.sdf

> <i_m_source_file_index>
1

> <s_epik_input>
Q2xjMVtjSF1bY0hdYyhzMSkvW0NIXT1bQ0hdL1MoPU8pKD1PKVtOSF1bQ0BIXTJbQ0gyXVtDSDJdTihDMj1PKWMzW2NIXVtjSF1jKFtjSF1jM0YpLW40W2NIXVtjSF1uYzRbQ0gyXVtOSCtdKFtDSDNdKVtDSDNd

> <s_epik_cmdline>
J2VwaWtfYXBwJywgJy1pbWFlJywgJ2xpZ2FuZF9wcm8ubWFlJywgJy1vbWFlJywgJ2xpZ2FuZF9wcmVwLm1hZScsICctbXMnLCAnMScsICctcGgnLCAnNycsICctcGh0JywgJzAuNScsICctbnQn

> <r_lp_tautomer_probability>
1

> <r_epik_Ionization_Penalty>
  0.3118

> <r_epik_Ionization_Penalty_Charging>
  0.3117

> <r_epik_Ionization_Penalty_Neutral>
  0.0001

> <r_epik_State_Penalty>
  0.3056

> <r_epik_Charging_Adjusted_Penalty>
0.617286638841727

> <i_epik_Tot_Q>
1

> <i_epik_Tot_abs_Q>
1

$$$$
