2vhj_ligand
                    3D
 Schrodinger Suite 2020-3.
 39 41  0  0  1  0            999 V2000
   82.3950   49.4680    4.9070 P   0  0  0  0  0  0
   81.8260   48.0800    4.7170 O   0  5  0  0  0  0
   83.4800   49.5640    5.9450 O   0  0  0  0  0  0
   81.3470   50.5540    5.0370 O   0  5  0  0  0  0
   84.6730   49.1350    3.3000 P   0  0  2  0  0  0
   85.1380   49.4540    1.8960 O   0  5  0  0  0  0
   84.5900   47.6880    3.7090 O   0  0  0  0  0  0
   83.2090   49.7790    3.5450 O   0  0  0  0  0  0
   85.6080   49.9260    4.3450 O   0  0  0  0  0  0
   86.7460   50.6650    3.9040 C   0  0  0  0  0  0
   86.2890   52.0300    3.4160 C   0  0  1  0  0  0
   87.0630   53.0710    4.0200 O   0  0  0  0  0  0
   86.3770   52.2070    1.9050 C   0  0  1  0  0  0
   85.0590   52.3500    1.3820 O   0  0  0  0  0  0
   87.2040   53.4550    1.6550 C   0  0  1  0  0  0
   86.5040   54.4360    0.8700 O   0  0  0  0  0  0
   87.5480   53.9950    3.0400 C   0  0  2  0  0  0
   89.0110   54.1150    3.2030 N   0  0  0  0  0  0
   89.8700   53.0820    3.1570 C   0  0  0  0  0  0
   91.1410   53.5190    3.3440 N   0  0  0  0  0  0
   91.1010   54.8500    3.5240 C   0  0  0  0  0  0
   92.0930   55.9190    3.7740 C   0  0  0  0  0  0
   93.4080   55.6140    3.8690 N   0  0  0  0  0  0
   91.6380   57.1900    3.9000 N   0  0  0  0  0  0
   90.3230   57.4910    3.8050 C   0  0  0  0  0  0
   89.3690   56.5600    3.5780 N   0  0  0  0  0  0
   89.6890   55.2460    3.4300 C   0  0  0  0  0  0
   87.4509   50.7861    4.7397 H   0  0  0  0  0  0
   87.2396   50.1233    3.0837 H   0  0  0  0  0  0
   85.2465   52.1462    3.7472 H   0  0  0  0  0  0
   86.7921   51.3366    1.3759 H   0  0  0  0  0  0
   84.3348   51.5283    1.4837 H   0  0  0  0  0  0
   88.0820   53.2524    1.0241 H   0  0  0  0  0  0
   86.1868   54.1955   -0.1554 H   0  0  0  0  0  0
   87.0848   54.9769    3.2168 H   0  0  0  0  0  0
   89.5863   52.0424    2.9930 H   0  0  0  0  0  0
   93.7398   54.5708    3.7613 H   0  0  0  0  0  0
   94.1451   56.4093    4.0540 H   0  0  0  0  0  0
   90.0182   58.5316    3.9165 H   0  0  0  0  0  0
  1  2  1  0  0  0
  1  3  2  0  0  0
  1  4  1  0  0  0
  1  8  1  0  0  0
  5  6  1  0  0  0
  5  7  2  0  0  0
  5  8  1  0  0  0
  5  9  1  0  0  0
  9 10  1  0  0  0
 10 11  1  0  0  0
 10 28  1  0  0  0
 10 29  1  0  0  0
 11 12  1  0  0  0
 11 13  1  0  0  0
 11 30  1  0  0  0
 12 17  1  0  0  0
 13 14  1  0  0  0
 13 15  1  0  0  0
 13 31  1  0  0  0
 14 32  1  0  0  0
 15 16  1  0  0  0
 15 17  1  0  0  0
 15 33  1  0  0  0
 16 34  1  0  0  0
 17 18  1  0  0  0
 17 35  1  0  0  0
 18 19  1  0  0  0
 18 27  1  0  0  0
 19 20  2  0  0  0
 19 36  1  0  0  0
 20 21  1  0  0  0
 21 22  2  0  0  0
 21 27  1  0  0  0
 22 23  1  0  0  0
 22 24  1  0  0  0
 23 37  1  0  0  0
 23 38  1  0  0  0
 24 25  2  0  0  0
 25 26  1  0  0  0
 25 39  1  0  0  0
 26 27  2  0  0  0
M  CHG  3   2  -1   4  -1   6  -1
M  END
> <s_m_source_file>
../2vhj_ligand.sdf

> <i_m_source_file_index>
1

> <s_epik_input>
W09IXVAoPU8pKFtPSF0pT1tQQEBdKD1PKShbT0hdKU9bQ0gyXVtDQEhdMU9bQ0BIXShbQ0BIXShbT0hdKVtDQEBIXTFbT0hdKW4oW2NIXW4yKWMoYzIzKW5bY0hdbmMzW05IMl0=

> <s_epik_cmdline>
J2VwaWtfYXBwJywgJy1pbWFlJywgJ2xpZ2FuZF9wcm8ubWFlJywgJy1vbWFlJywgJ2xpZ2FuZF9wcmVwLm1hZScsICctbXMnLCAnMScsICctcGgnLCAnNycsICctcGh0JywgJzAuNScsICctbnQn

> <r_lp_tautomer_probability>
0.999997216410988

> <r_epik_Ionization_Penalty>
  0.1037

> <r_epik_Ionization_Penalty_Charging>
  0.1033

> <r_epik_Ionization_Penalty_Neutral>
  0.0004

> <r_epik_State_Penalty>
  0.0922

> <r_epik_Charging_Adjusted_Penalty>
0.19546844050481

> <i_epik_Tot_Q>
-3

> <i_epik_Tot_abs_Q>
3

> <s_epik_Chemistry_Notes>
This compound contains an acetal/aminal-like group ( X-CH(R)-Y where X, Y are N, S, or O) that may be acid/base labile, releasing an aldehyde.

$$$$
