2vhq_ligand
                    3D
 Schrodinger Suite 2020-3.
 43 45  0  0  1  0            999 V2000
   80.7790   48.7600    2.9690 P   0  0  0  0  0  0
   81.8470   47.6980    2.8590 O   0  0  0  0  0  0
   80.6720   49.6650    1.7570 O   0  5  0  0  0  0
   79.4890   48.1180    3.4240 O   0  5  0  0  0  0
   82.6080   50.3480    4.6640 P   0  0  1  0  0  0
   82.5020   51.8250    4.9520 O   0  5  0  0  0  0
   83.1540   49.4450    5.7370 O   0  0  0  0  0  0
   81.1340   49.8260    4.1780 O   0  0  0  0  0  0
   84.6650   49.0590    3.2810 P   0  0  2  0  0  0
   85.3560   49.2300    1.9480 O   0  0  0  0  0  0
   84.2050   47.6670    3.6580 O   0  5  0  0  0  0
   83.4530   50.0930    3.3290 O   0  0  0  0  0  0
   85.5930   49.6980    4.4310 O   0  0  0  0  0  0
   86.7440   50.4680    4.0960 C   0  0  0  0  0  0
   86.3780   51.9450    4.0590 C   0  0  1  0  0  0
   87.0520   52.6430    5.1200 O   0  0  0  0  0  0
   86.8060   52.6400    2.7700 C   0  0  1  0  0  0
   85.8450   52.5040    1.7150 O   0  0  0  0  0  0
   86.9980   54.0630    3.2350 C   0  0  1  0  0  0
   85.7250   54.7050    3.3000 O   0  0  0  0  0  0
   87.5470   53.8950    4.6420 C   0  0  2  0  0  0
   89.0210   53.8510    4.5890 N   0  0  0  0  0  0
   89.7630   52.7600    4.3450 C   0  0  0  0  0  0
   91.0790   53.0610    4.3680 N   0  0  0  0  0  0
   91.1840   54.3670    4.6150 C   0  0  0  0  0  0
   92.2930   55.3180    4.7620 C   0  0  0  0  0  0
   93.5560   54.8750    4.6340 N   0  0  0  0  0  0
   92.0040   56.6040    5.0340 N   0  0  0  0  0  0
   90.7300   57.0330    5.1580 C   0  0  0  0  0  0
   89.6570   56.2140    5.0270 N   0  0  0  0  0  0
   89.8270   54.8930    4.7610 C   0  0  0  0  0  0
   87.5270   50.3045    4.8511 H   0  0  0  0  0  0
   87.1170   50.1593    3.1083 H   0  0  0  0  0  0
   85.2889   52.0073    4.2007 H   0  0  0  0  0  0
   87.6796   52.2080    2.2599 H   0  0  0  0  0  0
   85.6239   51.5108    1.2971 H   0  0  0  0  0  0
   87.6052   54.6921    2.5675 H   0  0  0  0  0  0
   85.1667   54.9143    2.3756 H   0  0  0  0  0  0
   87.2430   54.6924    5.3361 H   0  0  0  0  0  0
   89.3584   51.7660    4.1542 H   0  0  0  0  0  0
   93.7471   53.8149    4.4112 H   0  0  0  0  0  0
   94.3982   55.5727    4.7521 H   0  0  0  0  0  0
   90.5556   58.0871    5.3735 H   0  0  0  0  0  0
  1  2  2  0  0  0
  1  3  1  0  0  0
  1  4  1  0  0  0
  1  8  1  0  0  0
  5  6  1  0  0  0
  5  7  2  0  0  0
  5  8  1  0  0  0
  5 12  1  0  0  0
  9 10  2  0  0  0
  9 11  1  0  0  0
  9 12  1  0  0  0
  9 13  1  0  0  0
 13 14  1  0  0  0
 14 15  1  0  0  0
 14 32  1  0  0  0
 14 33  1  0  0  0
 15 16  1  0  0  0
 15 17  1  0  0  0
 15 34  1  0  0  0
 16 21  1  0  0  0
 17 18  1  0  0  0
 17 19  1  0  0  0
 17 35  1  0  0  0
 18 36  1  0  0  0
 19 20  1  0  0  0
 19 21  1  0  0  0
 19 37  1  0  0  0
 20 38  1  0  0  0
 21 22  1  0  0  0
 21 39  1  0  0  0
 22 23  1  0  0  0
 22 31  1  0  0  0
 23 24  2  0  0  0
 23 40  1  0  0  0
 24 25  1  0  0  0
 25 26  2  0  0  0
 25 31  1  0  0  0
 26 27  1  0  0  0
 26 28  1  0  0  0
 27 41  1  0  0  0
 27 42  1  0  0  0
 28 29  2  0  0  0
 29 30  1  0  0  0
 29 43  1  0  0  0
 30 31  2  0  0  0
M  CHG  4   3  -1   4  -1   6  -1  11  -1
M  END
> <s_m_source_file>
../2vhq_ligand.sdf

> <i_m_source_file_index>
1

> <s_epik_input>
Tz1QKFtPSF0pKFtPSF0pT1tQQF0oPU8pKFtPSF0pT1tQQF0oPU8pKFtPSF0pT1tDSDJdW0NASF0xT1tDQEhdKFtDQEhdKFtPSF0pW0NAQEhdMVtPSF0pbihbY0hdbjIpYyhjMjMpbltjSF1uYzNbTkgyXQ==

> <s_epik_cmdline>
J2VwaWtfYXBwJywgJy1pbWFlJywgJ2xpZ2FuZF9wcm8ubWFlJywgJy1vbWFlJywgJ2xpZ2FuZF9wcmVwLm1hZScsICctbXMnLCAnMScsICctcGgnLCAnNycsICctcGh0JywgJzAuNScsICctbnQn

> <r_lp_tautomer_probability>
0.999997216410988

> <r_epik_Ionization_Penalty>
  0.0818

> <r_epik_Ionization_Penalty_Charging>
  0.0813

> <r_epik_Ionization_Penalty_Neutral>
  0.0004

> <r_epik_State_Penalty>
  0.0708

> <r_epik_Charging_Adjusted_Penalty>
0.152157994418768

> <i_epik_Tot_Q>
-4

> <i_epik_Tot_abs_Q>
4

> <s_epik_Chemistry_Notes>
This compound contains an acetal/aminal-like group ( X-CH(R)-Y where X, Y are N, S, or O) that may be acid/base labile, releasing an aldehyde.

$$$$
