2vi5_ligand
                    3D
 Schrodinger Suite 2020-3.
 43 43  0  0  1  0            999 V2000
   10.1130   10.0660  -15.1780 O   0  0  0  0  0  0
   10.0010    8.9590  -15.7480 C   0  0  0  0  0  0
    8.9900    8.7480  -16.6240 N   0  0  0  0  0  0
    8.8320    7.5730  -17.2710 C   0  0  0  0  0  0
    7.8770    7.4210  -18.0650 O   0  0  0  0  0  0
   10.9030    7.9910  -15.4820 N   0  0  0  0  0  0
   10.8500    6.7680  -16.0670 C   0  0  0  0  0  0
    9.7490    6.4350  -17.0130 C   0  0  2  0  0  0
   10.1990    5.7750  -18.2340 N   0  0  0  0  0  0
    9.7830    4.5470  -18.5710 C   0  0  0  0  0  0
    8.8240    3.8310  -17.6400 C   0  0  0  0  0  0
    7.4430    3.6950  -18.2480 C   0  0  0  0  0  0
   10.1620    3.9920  -19.5880 O   0  0  0  0  0  0
   11.7790    5.8320  -15.7370 N   0  0  0  0  0  0
   12.8640    6.1340  -14.8120 C   0  0  0  0  0  0
   12.4450    5.9120  -13.3620 C   0  0  2  0  0  0
   11.6230    6.9950  -12.9160 O   0  0  0  0  0  0
   13.6870    5.8490  -12.4760 C   0  0  2  0  0  0
   14.5910    6.9060  -12.8280 O   0  0  0  0  0  0
   14.3880    4.4930  -12.5900 C   0  0  2  0  0  0
   13.5200    3.4550  -12.1140 O   0  0  0  0  0  0
   15.7070    4.4590  -11.8220 C   0  0  0  0  0  0
   15.4770    4.6080  -10.4170 O   0  0  0  0  0  0
    9.1474    5.6654  -16.5072 H   0  0  0  0  0  0
   10.9006    6.2866  -18.9092 H   0  0  0  0  0  0
    9.2065    2.8224  -17.4245 H   0  0  0  0  0  0
    8.7330    4.3970  -16.7012 H   0  0  0  0  0  0
    6.7814    3.1718  -17.5419 H   0  0  0  0  0  0
    7.5092    3.1199  -19.1834 H   0  0  0  0  0  0
    7.0357    4.6946  -18.4601 H   0  0  0  0  0  0
   13.7228    5.4817  -15.0287 H   0  0  0  0  0  0
   13.1638    7.1858  -14.9293 H   0  0  0  0  0  0
   11.8312    5.0033  -13.2757 H   0  0  0  0  0  0
   10.6732    7.2112  -13.4270 H   0  0  0  0  0  0
   13.4057    6.0319  -11.4284 H   0  0  0  0  0  0
   14.2514    7.9519  -12.8012 H   0  0  0  0  0  0
   14.5831    4.2714  -13.6496 H   0  0  0  0  0  0
   12.5203    3.3286  -12.5552 H   0  0  0  0  0  0
   16.2104    3.4973  -12.0003 H   0  0  0  0  0  0
   16.3529    5.2803  -12.1660 H   0  0  0  0  0  0
   16.3258    4.6052   -9.7174 H   0  0  0  0  0  0
   11.7183    8.1801  -14.7682 H   0  0  0  0  0  0
    8.2634    9.5482  -16.8284 H   0  0  0  0  0  0
  1  2  2  0  0  0
  2  3  1  0  0  0
  2  6  1  0  0  0
  3  4  1  0  0  0
  3 43  1  0  0  0
  4  5  2  0  0  0
  4  8  1  0  0  0
  6  7  1  0  0  0
  6 42  1  0  0  0
  7  8  1  0  0  0
  7 14  2  0  0  0
  8  9  1  0  0  0
  8 24  1  0  0  0
  9 10  1  0  0  0
  9 25  1  0  0  0
 10 11  1  0  0  0
 10 13  2  0  0  0
 11 12  1  0  0  0
 11 26  1  0  0  0
 11 27  1  0  0  0
 12 28  1  0  0  0
 12 29  1  0  0  0
 12 30  1  0  0  0
 14 15  1  0  0  0
 15 16  1  0  0  0
 15 31  1  0  0  0
 15 32  1  0  0  0
 16 17  1  0  0  0
 16 18  1  0  0  0
 16 33  1  0  0  0
 17 34  1  0  0  0
 18 19  1  0  0  0
 18 20  1  0  0  0
 18 35  1  0  0  0
 19 36  1  0  0  0
 20 21  1  0  0  0
 20 22  1  0  0  0
 20 37  1  0  0  0
 21 38  1  0  0  0
 22 23  1  0  0  0
 22 39  1  0  0  0
 22 40  1  0  0  0
 23 41  1  0  0  0
M  END
> <s_m_source_file>
../2vi5_ligand.sdf

> <i_m_source_file_index>
1

> <s_epik_input>
Tz1DMVtOSF1DKD1PKVtDQEBIXShbTkhdQyg9TylbQ0gyXVtDSDNdKUMoPU4xKVtOSF1bQ0gyXVtDQEhdKFtPSF0pW0NASF0oW09IXSlbQ0BIXShbT0hdKVtDSDJdW09IXQ==

> <s_epik_cmdline>
J2VwaWtfYXBwJywgJy1pbWFlJywgJ2xpZ2FuZF9wcm8ubWFlJywgJy1vbWFlJywgJ2xpZ2FuZF9wcmVwLm1hZScsICctbXMnLCAnMScsICctcGgnLCAnNycsICctcGh0JywgJzAuNScsICctbnQn

> <r_lp_tautomer_probability>
5.83461370164253e-05

> <r_epik_Ionization_Penalty>
  4.0881

> <r_epik_Ionization_Penalty_Charging>
  0.0000

> <r_epik_Ionization_Penalty_Neutral>
  4.0881

> <r_epik_State_Penalty>
  0.0162

> <r_epik_Charging_Adjusted_Penalty>
0.0161915854251829

> <i_epik_Tot_Q>
0

> <i_epik_Tot_abs_Q>
0

> <s_epik_Chemistry_Notes>
This compound has an imine and may undergo hydrolysis.

$$$$
