2vie_ligand
                    3D
 Schrodinger Suite 2020-3.
 88 90  0  0  1  0            999 V2000
   30.2790    1.1150   34.4740 C   0  0  0  0  0  0
   29.1200    1.2170   33.7580 N   0  0  0  0  0  0
   28.8550    2.2250   32.7220 C   0  0  2  0  0  0
   28.0190    3.3310   33.3620 C   0  0  1  0  0  0
   28.1940    1.4800   31.5300 C   0  0  0  0  0  0
   28.7940    4.2260   34.3130 C   0  0  0  0  0  0
   31.2190    1.8920   34.3140 O   0  0  0  0  0  0
   30.3540    0.0080   35.4220 C   0  0  0  0  0  0
   30.9220    0.1570   36.7070 C   0  0  0  0  0  0
   30.9930   -0.9330   37.5980 C   0  0  0  0  0  0
   30.4800   -2.2020   37.1840 C   0  0  0  0  0  0
   29.9040   -2.3840   35.9040 C   0  0  0  0  0  0
   29.8440   -1.2630   35.0180 C   0  0  0  0  0  0
   28.8490    0.1540   31.2130 C   0  0  0  0  0  0
   30.2530    0.0640   30.9870 C   0  0  0  0  0  0
   30.8600   -1.1780   30.7020 C   0  0  0  0  0  0
   30.0720   -2.3500   30.6330 C   0  0  0  0  0  0
   28.6780   -2.2740   30.8550 C   0  0  0  0  0  0
   28.0690   -1.0260   31.1440 C   0  0  0  0  0  0
   27.9880    5.3780   34.7240 N   0  3  0  0  0  0
   27.4970    4.1580   32.3360 O   0  0  0  0  0  0
   29.4120   -3.6240   35.5230 N   0  0  0  0  0  0
   28.7940   -3.9450   34.2270 C   0  0  0  0  0  0
   27.2710   -3.9270   34.3460 C   0  0  0  0  0  0
   31.5640   -0.7590   38.8520 N   0  0  0  0  0  0
   32.8600   -0.0840   39.0580 C   0  0  0  0  0  0
   33.2480   -0.4180   40.4940 C   0  0  0  0  0  0
   31.9410   -0.7980   41.1910 C   0  0  0  0  0  0
   31.0140   -1.1720   40.0330 C   0  0  0  0  0  0
   29.9470   -1.7550   40.1890 O   0  0  0  0  0  0
   28.6540    6.5500   35.3500 C   0  0  0  0  0  0
   29.3290    6.0510   36.6520 C   0  0  0  0  0  0
   27.6200    7.6390   35.7150 C   0  0  0  0  0  0
   29.7290    7.1100   34.3670 C   0  0  0  0  0  0
   29.1920    7.6280   33.0190 C   0  0  0  0  0  0
   30.3070    8.1770   32.1200 C   0  0  0  0  0  0
   29.8180    8.7140   30.7630 C   0  0  0  0  0  0
   30.9960    9.3440   30.0130 C   0  0  0  0  0  0
   28.7040    9.7680   30.9170 C   0  0  0  0  0  0
   28.3528    0.4689   34.0066 H   0  0  0  0  0  0
   29.7748    2.7081   32.3606 H   0  0  0  0  0  0
   27.1877    2.8608   33.9078 H   0  0  0  0  0  0
   27.1379    1.2794   31.7632 H   0  0  0  0  0  0
   28.2578    2.1043   30.6266 H   0  0  0  0  0  0
   29.0736    3.6533   35.2096 H   0  0  0  0  0  0
   29.7031    4.5919   33.8133 H   0  0  0  0  0  0
   31.3106    1.1281   37.0136 H   0  0  0  0  0  0
   30.5337   -3.0479   37.8694 H   0  0  0  0  0  0
   29.4057   -1.3797   34.0269 H   0  0  0  0  0  0
   30.8652    0.9646   31.0348 H   0  0  0  0  0  0
   31.9357   -1.2336   30.5352 H   0  0  0  0  0  0
   30.5382   -3.3095   30.4092 H   0  0  0  0  0  0
   28.0695   -3.1769   30.8040 H   0  0  0  0  0  0
   26.9936   -0.9748   31.3141 H   0  0  0  0  0  0
   27.4717    5.7958   33.8471 H   0  0  0  0  0  0
   27.2448    5.0584   35.4693 H   0  0  0  0  0  0
   26.8945    3.7177   31.5278 H   0  0  0  0  0  0
   29.5155   -4.4044   36.2913 H   0  0  0  0  0  0
   29.1042   -3.2010   33.4786 H   0  0  0  0  0  0
   29.1169   -4.9459   33.9047 H   0  0  0  0  0  0
   26.8241   -4.1685   33.3703 H   0  0  0  0  0  0
   26.9398   -2.9273   34.6636 H   0  0  0  0  0  0
   26.9525   -4.6722   35.0898 H   0  0  0  0  0  0
   33.5941   -0.4717   38.3363 H   0  0  0  0  0  0
   32.7370    0.9990   38.9100 H   0  0  0  0  0  0
   33.9626   -1.2543   40.4957 H   0  0  0  0  0  0
   33.7125    0.4622   40.9625 H   0  0  0  0  0  0
   32.1210   -1.6425   41.8725 H   0  0  0  0  0  0
   31.5676    0.0630   41.7647 H   0  0  0  0  0  0
   28.5617    5.6592   37.3359 H   0  0  0  0  0  0
   29.8579    6.8863   37.1342 H   0  0  0  0  0  0
   30.0467    5.2532   36.4104 H   0  0  0  0  0  0
   26.8750    7.2199   36.4073 H   0  0  0  0  0  0
   27.1163    7.9873   34.8012 H   0  0  0  0  0  0
   28.1328    8.4849   36.1962 H   0  0  0  0  0  0
   30.2511    7.9560   34.8378 H   0  0  0  0  0  0
   30.4546    6.3187   34.1276 H   0  0  0  0  0  0
   28.6953    6.8064   32.4821 H   0  0  0  0  0  0
   28.4698    8.4380   33.1988 H   0  0  0  0  0  0
   30.8146    9.0081   32.6315 H   0  0  0  0  0  0
   31.0334    7.3787   31.9078 H   0  0  0  0  0  0
   29.4079    7.8635   30.1987 H   0  0  0  0  0  0
   31.7975    8.5995   29.8975 H   0  0  0  0  0  0
   31.3749   10.2053   30.5827 H   0  0  0  0  0  0
   30.6614    9.6795   29.0203 H   0  0  0  0  0  0
   27.8525    9.3256   31.4548 H   0  0  0  0  0  0
   28.3755   10.1024   29.9219 H   0  0  0  0  0  0
   29.0890   10.6282   31.4843 H   0  0  0  0  0  0
  1  2  1  0  0  0
  1  7  2  0  0  0
  1  8  1  0  0  0
  2  3  1  0  0  0
  2 40  1  0  0  0
  3  4  1  0  0  0
  3  5  1  0  0  0
  3 41  1  0  0  0
  4  6  1  0  0  0
  4 21  1  0  0  0
  4 42  1  0  0  0
  5 14  1  0  0  0
  5 43  1  0  0  0
  5 44  1  0  0  0
  6 20  1  0  0  0
  6 45  1  0  0  0
  6 46  1  0  0  0
  8  9  2  0  0  0
  8 13  1  0  0  0
  9 10  1  0  0  0
  9 47  1  0  0  0
 10 11  2  0  0  0
 10 25  1  0  0  0
 11 12  1  0  0  0
 11 48  1  0  0  0
 12 13  2  0  0  0
 12 22  1  0  0  0
 13 49  1  0  0  0
 14 15  2  0  0  0
 14 19  1  0  0  0
 15 16  1  0  0  0
 15 50  1  0  0  0
 16 17  2  0  0  0
 16 51  1  0  0  0
 17 18  1  0  0  0
 17 52  1  0  0  0
 18 19  2  0  0  0
 18 53  1  0  0  0
 19 54  1  0  0  0
 20 31  1  0  0  0
 20 55  1  0  0  0
 20 56  1  0  0  0
 21 57  1  0  0  0
 22 23  1  0  0  0
 22 58  1  0  0  0
 23 24  1  0  0  0
 23 59  1  0  0  0
 23 60  1  0  0  0
 24 61  1  0  0  0
 24 62  1  0  0  0
 24 63  1  0  0  0
 25 26  1  0  0  0
 25 29  1  0  0  0
 26 27  1  0  0  0
 26 64  1  0  0  0
 26 65  1  0  0  0
 27 28  1  0  0  0
 27 66  1  0  0  0
 27 67  1  0  0  0
 28 29  1  0  0  0
 28 68  1  0  0  0
 28 69  1  0  0  0
 29 30  2  0  0  0
 31 32  1  0  0  0
 31 33  1  0  0  0
 31 34  1  0  0  0
 32 70  1  0  0  0
 32 71  1  0  0  0
 32 72  1  0  0  0
 33 73  1  0  0  0
 33 74  1  0  0  0
 33 75  1  0  0  0
 34 35  1  0  0  0
 34 76  1  0  0  0
 34 77  1  0  0  0
 35 36  1  0  0  0
 35 78  1  0  0  0
 35 79  1  0  0  0
 36 37  1  0  0  0
 36 80  1  0  0  0
 36 81  1  0  0  0
 37 38  1  0  0  0
 37 39  1  0  0  0
 37 82  1  0  0  0
 38 83  1  0  0  0
 38 84  1  0  0  0
 38 85  1  0  0  0
 39 86  1  0  0  0
 39 87  1  0  0  0
 39 88  1  0  0  0
M  CHG  1  20   1
M  END
> <s_m_source_file>
../2vie_ligand.sdf

> <i_m_source_file_index>
1

> <s_epik_input>
Tz1DMVtDSDJdW0NIMl1bQ0gyXU4xYyhbY0hdYyhbY0hdMilbTkhdW0NIMl1bQ0gzXSlbY0hdYzJDKD1PKVtOSF1bQ0BASF0oW0NIMl1jM1tjSF1bY0hdW2NIXVtjSF1bY0hdMylbQ0BIXShbT0hdKVtDSDJdW05IMitdQyhbQ0gzXSkoW0NIM10pW0NIMl1bQ0gyXVtDSDJdW0NIXShbQ0gzXSlbQ0gzXQ==

> <s_epik_cmdline>
J2VwaWtfYXBwJywgJy1pbWFlJywgJ2xpZ2FuZF9wcm8ubWFlJywgJy1vbWFlJywgJ2xpZ2FuZF9wcmVwLm1hZScsICctbXMnLCAnMScsICctcGgnLCAnNycsICctcGh0JywgJzAuNScsICctbnQn

> <r_lp_tautomer_probability>
1

> <r_epik_Ionization_Penalty>
  0.0026

> <r_epik_Ionization_Penalty_Charging>
  0.0023

> <r_epik_Ionization_Penalty_Neutral>
  0.0003

> <r_epik_State_Penalty>
 -0.0000

> <r_epik_Charging_Adjusted_Penalty>
0.00230348830678879

> <i_epik_Tot_Q>
1

> <i_epik_Tot_abs_Q>
1

$$$$
