2vin_ligand
                    3D
 Schrodinger Suite 2020-3.
 31 31  0  0  1  0            999 V2000
   31.5240    3.8010   28.2230 C   0  0  0  0  0  0
   32.6170    4.7730   27.8010 C   0  0  1  0  0  0
   33.0070    4.3980   26.4000 N   0  3  0  0  0  0
   32.1320    6.2200   27.8620 C   0  0  0  0  0  0
   30.9340    6.3530   27.0450 O   0  0  0  0  0  0
   30.0970    7.4110   27.3030 C   0  0  0  0  0  0
   28.9130    7.1980   28.0380 C   0  0  0  0  0  0
   28.5620    5.8270   28.5530 C   0  0  0  0  0  0
   28.0790    8.2770   28.2890 C   0  0  0  0  0  0
   28.3930    9.5360   27.8170 C   0  0  0  0  0  0
   29.5500    9.7460   27.0920 C   0  0  0  0  0  0
   30.4180    8.6960   26.8250 C   0  0  0  0  0  0
   31.6810    8.9340   26.0370 C   0  0  0  0  0  0
   31.9073    2.7715   28.1671 H   0  0  0  0  0  0
   30.6594    3.9073   27.5513 H   0  0  0  0  0  0
   31.2155    4.0219   29.2555 H   0  0  0  0  0  0
   33.4855    4.6999   28.4721 H   0  0  0  0  0  0
   33.3520    3.3536   26.3825 H   0  0  0  0  0  0
   33.8173    5.0576   26.0560 H   0  0  0  0  0  0
   32.1374    4.5081   25.7354 H   0  0  0  0  0  0
   31.9017    6.4859   28.9042 H   0  0  0  0  0  0
   32.9184    6.8868   27.4787 H   0  0  0  0  0  0
   29.3418    5.1117   28.2525 H   0  0  0  0  0  0
   27.5952    5.5137   28.1322 H   0  0  0  0  0  0
   28.4927    5.8542   29.6505 H   0  0  0  0  0  0
   27.1656    8.1297   28.8652 H   0  0  0  0  0  0
   27.7223   10.3713   28.0182 H   0  0  0  0  0  0
   29.7836   10.7458   26.7261 H   0  0  0  0  0  0
   32.2311    7.9873   25.9314 H   0  0  0  0  0  0
   32.3096    9.6666   26.5644 H   0  0  0  0  0  0
   31.4237    9.3218   25.0403 H   0  0  0  0  0  0
  1  2  1  0  0  0
  1 14  1  0  0  0
  1 15  1  0  0  0
  1 16  1  0  0  0
  2  3  1  0  0  0
  2  4  1  0  0  0
  2 17  1  0  0  0
  3 18  1  0  0  0
  3 19  1  0  0  0
  3 20  1  0  0  0
  4  5  1  0  0  0
  4 21  1  0  0  0
  4 22  1  0  0  0
  5  6  1  0  0  0
  6  7  2  0  0  0
  6 12  1  0  0  0
  7  8  1  0  0  0
  7  9  1  0  0  0
  8 23  1  0  0  0
  8 24  1  0  0  0
  8 25  1  0  0  0
  9 10  2  0  0  0
  9 26  1  0  0  0
 10 11  1  0  0  0
 10 27  1  0  0  0
 11 12  2  0  0  0
 11 28  1  0  0  0
 12 13  1  0  0  0
 13 29  1  0  0  0
 13 30  1  0  0  0
 13 31  1  0  0  0
M  CHG  1   3   1
M  END
> <s_m_source_file>
../2vin_ligand.sdf

> <i_m_source_file_index>
1

> <s_epik_input>
W0NIM11bQ0BASF0oW05IMytdKVtDSDJdT2MxYyhbQ0gzXSlbY0hdW2NIXVtjSF1jMVtDSDNd

> <s_epik_cmdline>
J2VwaWtfYXBwJywgJy1pbWFlJywgJ2xpZ2FuZF9wcm8ubWFlJywgJy1vbWFlJywgJ2xpZ2FuZF9wcmVwLm1hZScsICctbXMnLCAnMScsICctcGgnLCAnNycsICctcGh0JywgJzAuNScsICctbnQn

> <r_lp_tautomer_probability>
1

> <r_epik_Ionization_Penalty>
  0.0069

> <r_epik_Ionization_Penalty_Charging>
  0.0069

> <r_epik_Ionization_Penalty_Neutral>
  0.0000

> <r_epik_State_Penalty>
 -0.0000

> <r_epik_Charging_Adjusted_Penalty>
0.00689082510937115

> <i_epik_Tot_Q>
1

> <i_epik_Tot_abs_Q>
1

$$$$
