2vio_ligand
                    3D
 Schrodinger Suite 2020-3.
 24 24  0  0  1  0            999 V2000
   32.9440    4.6260   26.4540 N   0  3  0  0  0  0
   32.2610    4.7900   27.7650 C   0  0  0  0  0  0
   31.7220    6.1920   27.9750 C   0  0  0  0  0  0
   30.5740    6.3930   27.1050 O   0  0  0  0  0  0
   29.6610    7.3400   27.4920 C   0  0  0  0  0  0
   29.6120    8.6200   26.9170 C   0  0  0  0  0  0
   30.6850    9.0490   25.6210 Cl  0  0  0  0  0  0
   28.6780    9.5430   27.3700 C   0  0  0  0  0  0
   27.8040    9.2200   28.4030 C   0  0  0  0  0  0
   27.8720    7.9570   28.9810 C   0  0  0  0  0  0
   28.7870    7.0180   28.5270 C   0  0  0  0  0  0
   28.8440    5.4450   29.2570 Cl  0  0  0  0  0  0
   26.8180   10.2330   28.9010 C   0  0  0  0  0  0
   26.3070   10.1600   30.0020 O   0  0  0  0  0  0
   26.5880   11.2220   28.0750 O   0  5  0  0  0  0
   33.3121    3.5938   26.3590 H   0  0  0  0  0  0
   33.7914    5.3247   26.3921 H   0  0  0  0  0  0
   32.2336    4.8382   25.6414 H   0  0  0  0  0  0
   31.4136    4.0913   27.8269 H   0  0  0  0  0  0
   32.9713    4.5777   28.5776 H   0  0  0  0  0  0
   31.4177    6.3144   29.0250 H   0  0  0  0  0  0
   32.5046    6.9259   27.7321 H   0  0  0  0  0  0
   28.6294   10.5306   26.9113 H   0  0  0  0  0  0
   27.1991    7.7019   29.7997 H   0  0  0  0  0  0
  1  2  1  0  0  0
  1 16  1  0  0  0
  1 17  1  0  0  0
  1 18  1  0  0  0
  2  3  1  0  0  0
  2 19  1  0  0  0
  2 20  1  0  0  0
  3  4  1  0  0  0
  3 21  1  0  0  0
  3 22  1  0  0  0
  4  5  1  0  0  0
  5  6  2  0  0  0
  5 11  1  0  0  0
  6  7  1  0  0  0
  6  8  1  0  0  0
  8  9  2  0  0  0
  8 23  1  0  0  0
  9 10  1  0  0  0
  9 13  1  0  0  0
 10 11  2  0  0  0
 10 24  1  0  0  0
 11 12  1  0  0  0
 13 14  2  0  0  0
 13 15  1  0  0  0
M  CHG  2   1   1  15  -1
M  END
> <s_m_source_file>
../2vio_ligand.sdf

> <i_m_source_file_index>
1

> <s_epik_input>
W05IMytdW0NIMl1bQ0gyXU9jMWMoQ2wpW2NIXWMoW2NIXWMxQ2wpQyg9TylbT0hd

> <s_epik_cmdline>
J2VwaWtfYXBwJywgJy1pbWFlJywgJ2xpZ2FuZF9wcm8ubWFlJywgJy1vbWFlJywgJ2xpZ2FuZF9wcmVwLm1hZScsICctbXMnLCAnMScsICctcGgnLCAnNycsICctcGh0JywgJzAuNScsICctbnQn

> <r_lp_tautomer_probability>
1

> <r_epik_Ionization_Penalty>
  0.0071

> <r_epik_Ionization_Penalty_Charging>
  0.0071

> <r_epik_Ionization_Penalty_Neutral>
  0.0000

> <r_epik_State_Penalty>
 -0.0000

> <r_epik_Charging_Adjusted_Penalty>
0.00712824817203526

> <i_epik_Tot_Q>
0

> <i_epik_Tot_abs_Q>
2

$$$$
