2vip_ligand
                    3D
 Schrodinger Suite 2020-3.
 46 47  0  0  1  0            999 V2000
   21.7770   10.7610   29.7930 C   0  0  0  0  0  0
   21.6240   12.1830   29.2780 C   0  0  0  0  0  0
   20.2380   12.6980   29.6220 C   0  0  0  0  0  0
   22.5180   13.0810   29.9860 O   0  0  0  0  0  0
   23.7870   12.6660   30.3040 C   0  0  0  0  0  0
   24.2050   13.3960   31.4110 C   0  0  0  0  0  0
   25.4480   13.1740   31.9670 C   0  0  0  0  0  0
   26.3030   12.2460   31.4060 C   0  0  0  0  0  0
   25.9140   11.5150   30.2910 C   0  0  0  0  0  0
   26.8030   10.5670   29.7310 N   0  0  0  0  0  0
   27.0210   10.3670   28.4210 C   0  0  0  0  0  0
   26.5120   11.0390   27.5520 O   0  0  0  0  0  0
   27.9750    9.2760   28.0520 C   0  0  0  0  0  0
   28.7900    9.5230   26.9540 C   0  0  0  0  0  0
   29.7070    8.5740   26.5430 C   0  0  0  0  0  0
   30.7190    8.8960   25.1680 Cl  0  0  0  0  0  0
   29.8050    7.3560   27.2410 C   0  0  0  0  0  0
   30.6980    6.3760   26.9120 O   0  0  0  0  0  0
   31.8140    6.1920   27.8050 C   0  0  0  0  0  0
   32.3920    4.8070   27.5900 C   0  0  0  0  0  0
   33.1240    4.6980   26.2990 N   0  3  0  0  0  0
   28.9960    7.1170   28.3470 C   0  0  0  0  0  0
   29.1410    5.6270   29.2200 Cl  0  0  0  0  0  0
   28.0810    8.0790   28.7570 C   0  0  0  0  0  0
   24.6570   11.7380   29.7380 C   0  0  0  0  0  0
   21.0924   10.0969   29.2450 H   0  0  0  0  0  0
   21.5358   10.7317   30.8658 H   0  0  0  0  0  0
   22.8135   10.4255   29.6409 H   0  0  0  0  0  0
   21.8566   12.1892   28.2029 H   0  0  0  0  0  0
   19.4810   12.0734   29.1251 H   0  0  0  0  0  0
   20.1378   13.7383   29.2788 H   0  0  0  0  0  0
   20.0910   12.6555   30.7113 H   0  0  0  0  0  0
   23.5459   14.1492   31.8427 H   0  0  0  0  0  0
   25.7558   13.7324   32.8511 H   0  0  0  0  0  0
   27.2895   12.0862   31.8411 H   0  0  0  0  0  0
   27.3921    9.9103   30.3880 H   0  0  0  0  0  0
   28.7060   10.4671   26.4157 H   0  0  0  0  0  0
   32.5811    6.9518   27.5946 H   0  0  0  0  0  0
   31.4719    6.2947   28.8454 H   0  0  0  0  0  0
   33.0955    4.5731   28.4026 H   0  0  0  0  0  0
   31.5783    4.0668   27.5851 H   0  0  0  0  0  0
   33.5234    3.6790   26.1889 H   0  0  0  0  0  0
   33.9535    5.4204   26.2857 H   0  0  0  0  0  0
   32.4362    4.9141   25.4682 H   0  0  0  0  0  0
   27.4489    7.8979   29.6264 H   0  0  0  0  0  0
   24.3503   11.1807   28.8529 H   0  0  0  0  0  0
  1  2  1  0  0  0
  1 26  1  0  0  0
  1 27  1  0  0  0
  1 28  1  0  0  0
  2  3  1  0  0  0
  2  4  1  0  0  0
  2 29  1  0  0  0
  3 30  1  0  0  0
  3 31  1  0  0  0
  3 32  1  0  0  0
  4  5  1  0  0  0
  5  6  2  0  0  0
  5 25  1  0  0  0
  6  7  1  0  0  0
  6 33  1  0  0  0
  7  8  2  0  0  0
  7 34  1  0  0  0
  8  9  1  0  0  0
  8 35  1  0  0  0
  9 10  1  0  0  0
  9 25  2  0  0  0
 10 11  1  0  0  0
 10 36  1  0  0  0
 11 12  2  0  0  0
 11 13  1  0  0  0
 13 14  2  0  0  0
 13 24  1  0  0  0
 14 15  1  0  0  0
 14 37  1  0  0  0
 15 16  1  0  0  0
 15 17  2  0  0  0
 17 18  1  0  0  0
 17 22  1  0  0  0
 18 19  1  0  0  0
 19 20  1  0  0  0
 19 38  1  0  0  0
 19 39  1  0  0  0
 20 21  1  0  0  0
 20 40  1  0  0  0
 20 41  1  0  0  0
 21 42  1  0  0  0
 21 43  1  0  0  0
 21 44  1  0  0  0
 22 23  1  0  0  0
 22 24  2  0  0  0
 24 45  1  0  0  0
 25 46  1  0  0  0
M  CHG  1  21   1
M  END
> <s_m_source_file>
../2vip_ligand.sdf

> <i_m_source_file_index>
1

> <s_epik_input>
W0NIM11bQ0hdKFtDSDNdKU9jMVtjSF1bY0hdW2NIXWMoW2NIXTEpW05IXUMoPU8pYzJbY0hdYyhDbCljKGMoQ2wpW2NIXTIpT1tDSDJdW0NIMl1bTkgzK10=

> <s_epik_cmdline>
J2VwaWtfYXBwJywgJy1pbWFlJywgJ2xpZ2FuZF9wcm8ubWFlJywgJy1vbWFlJywgJ2xpZ2FuZF9wcmVwLm1hZScsICctbXMnLCAnMScsICctcGgnLCAnNycsICctcGh0JywgJzAuNScsICctbnQn

> <r_lp_tautomer_probability>
1

> <r_epik_Ionization_Penalty>
  0.0069

> <r_epik_Ionization_Penalty_Charging>
  0.0069

> <r_epik_Ionization_Penalty_Neutral>
  0.0000

> <r_epik_State_Penalty>
 -0.0000

> <r_epik_Charging_Adjusted_Penalty>
0.00689082510937115

> <i_epik_Tot_Q>
1

> <i_epik_Tot_abs_Q>
1

$$$$
