2viq_ligand
                    3D
 Schrodinger Suite 2020-3.
 56 57  0  0  1  0            999 V2000
   28.2120   13.5920   32.1640 C   0  0  0  0  0  0
   29.4890   13.2290   32.8760 C   0  0  0  0  0  0
   21.6030   11.6100   29.5870 C   0  0  0  0  0  0
   20.0960   11.6150   29.6850 C   0  0  0  0  0  0
   25.2580   13.4490   32.1480 C   0  0  0  0  0  0
   23.9380   13.5030   31.7460 C   0  0  0  0  0  0
   23.4550   12.6240   30.7840 C   0  0  0  0  0  0
   24.3260   11.6990   30.2170 C   0  0  0  0  0  0
   25.6550   11.6270   30.6150 C   0  0  0  0  0  0
   26.5450   10.6840   30.0530 N   0  0  0  0  0  0
   26.9450   10.6390   28.7700 C   0  0  0  0  0  0
   26.5510   11.4340   27.9530 O   0  0  0  0  0  0
   27.8950    9.5370   28.3950 C   0  0  0  0  0  0
   29.0130    9.7940   27.6080 C   0  0  0  0  0  0
   29.8980    8.7830   27.2490 C   0  0  0  0  0  0
   31.1010    9.0880   26.3950 C   0  0  0  0  0  0
   29.6430    7.4730   27.6970 C   0  0  0  0  0  0
   30.4700    6.4250   27.3710 O   0  0  0  0  0  0
   31.6520    6.2260   28.1760 C   0  0  0  0  0  0
   32.1140    4.7920   27.9960 C   0  0  0  0  0  0
   32.8370    4.5820   26.7140 N   0  3  0  0  0  0
   28.5140    7.2000   28.4890 C   0  0  0  0  0  0
   28.2420    5.7980   28.9690 C   0  0  0  0  0  0
   22.1350   12.6920   30.4070 O   0  0  0  0  0  0
   27.6590    8.2390   28.8250 C   0  0  0  0  0  0
   27.4570   12.3870   31.9140 O   0  0  0  0  0  0
   26.1280   12.5140   31.5980 C   0  0  0  0  0  0
   27.6232   14.2759   32.7930 H   0  0  0  0  0  0
   28.4513   14.0853   31.2104 H   0  0  0  0  0  0
   30.0720   14.1412   33.0712 H   0  0  0  0  0  0
   30.0778   12.5451   32.2470 H   0  0  0  0  0  0
   29.2496   12.7357   33.8296 H   0  0  0  0  0  0
   21.9907   10.6458   29.9477 H   0  0  0  0  0  0
   21.9028   11.7567   28.5389 H   0  0  0  0  0  0
   19.6858   10.8012   29.0689 H   0  0  0  0  0  0
   19.7083   12.5792   29.3243 H   0  0  0  0  0  0
   19.7963   11.4682   30.7331 H   0  0  0  0  0  0
   25.6213   14.1457   32.9034 H   0  0  0  0  0  0
   23.2689   14.2417   32.1872 H   0  0  0  0  0  0
   23.9595   11.0194   29.4476 H   0  0  0  0  0  0
   26.9781    9.8930   30.6829 H   0  0  0  0  0  0
   29.1997   10.8115   27.2647 H   0  0  0  0  0  0
   31.1172   10.1612   26.1543 H   0  0  0  0  0  0
   31.0474    8.5042   25.4642 H   0  0  0  0  0  0
   32.0168    8.8212   26.9429 H   0  0  0  0  0  0
   32.4398    6.9204   27.8485 H   0  0  0  0  0  0
   31.4122    6.4156   29.2327 H   0  0  0  0  0  0
   32.7946    4.5203   28.8164 H   0  0  0  0  0  0
   31.2418    4.1218   28.0060 H   0  0  0  0  0  0
   33.1476    3.5296   26.6364 H   0  0  0  0  0  0
   33.7255    5.2298   26.6838 H   0  0  0  0  0  0
   32.1728    4.8312   25.8734 H   0  0  0  0  0  0
   29.0290    5.1245   28.5988 H   0  0  0  0  0  0
   27.2650    5.4637   28.5898 H   0  0  0  0  0  0
   28.2334    5.7822   30.0689 H   0  0  0  0  0  0
   26.7832    8.0316   29.4398 H   0  0  0  0  0  0
  1  2  1  0  0  0
  1 26  1  0  0  0
  1 28  1  0  0  0
  1 29  1  0  0  0
  2 30  1  0  0  0
  2 31  1  0  0  0
  2 32  1  0  0  0
  3  4  1  0  0  0
  3 24  1  0  0  0
  3 33  1  0  0  0
  3 34  1  0  0  0
  4 35  1  0  0  0
  4 36  1  0  0  0
  4 37  1  0  0  0
  5  6  2  0  0  0
  5 27  1  0  0  0
  5 38  1  0  0  0
  6  7  1  0  0  0
  6 39  1  0  0  0
  7  8  2  0  0  0
  7 24  1  0  0  0
  8  9  1  0  0  0
  8 40  1  0  0  0
  9 10  1  0  0  0
  9 27  2  0  0  0
 10 11  1  0  0  0
 10 41  1  0  0  0
 11 12  2  0  0  0
 11 13  1  0  0  0
 13 14  2  0  0  0
 13 25  1  0  0  0
 14 15  1  0  0  0
 14 42  1  0  0  0
 15 16  1  0  0  0
 15 17  2  0  0  0
 16 43  1  0  0  0
 16 44  1  0  0  0
 16 45  1  0  0  0
 17 18  1  0  0  0
 17 22  1  0  0  0
 18 19  1  0  0  0
 19 20  1  0  0  0
 19 46  1  0  0  0
 19 47  1  0  0  0
 20 21  1  0  0  0
 20 48  1  0  0  0
 20 49  1  0  0  0
 21 50  1  0  0  0
 21 51  1  0  0  0
 21 52  1  0  0  0
 22 23  1  0  0  0
 22 25  2  0  0  0
 23 53  1  0  0  0
 23 54  1  0  0  0
 23 55  1  0  0  0
 25 56  1  0  0  0
 26 27  1  0  0  0
M  CHG  1  21   1
M  END
> <s_m_source_file>
../2viq_ligand.sdf

> <i_m_source_file_index>
1

> <s_epik_input>
W0NIM11bQ0gyXU9jMVtjSF1bY0hdYyhPW0NIMl1bQ0gzXSljKFtjSF0xKVtOSF1DKD1PKWMyW2NIXWMoW0NIM10pYyhjKFtDSDNdKVtjSF0yKU9bQ0gyXVtDSDJdW05IMytd

> <s_epik_cmdline>
J2VwaWtfYXBwJywgJy1pbWFlJywgJ2xpZ2FuZF9wcm8ubWFlJywgJy1vbWFlJywgJ2xpZ2FuZF9wcmVwLm1hZScsICctbXMnLCAnMScsICctcGgnLCAnNycsICctcGh0JywgJzAuNScsICctbnQn

> <r_lp_tautomer_probability>
1

> <r_epik_Ionization_Penalty>
  0.0069

> <r_epik_Ionization_Penalty_Charging>
  0.0069

> <r_epik_Ionization_Penalty_Neutral>
  0.0000

> <r_epik_State_Penalty>
 -0.0000

> <r_epik_Charging_Adjusted_Penalty>
0.00689082510937115

> <i_epik_Tot_Q>
1

> <i_epik_Tot_abs_Q>
1

$$$$
