2viv_ligand
                    3D
 Schrodinger Suite 2020-3.
 57 59  0  0  1  0            999 V2000
   22.9540   13.6740   28.9440 N   0  0  0  0  0  0
   23.6010   14.2240   27.7480 C   0  0  0  0  0  0
   22.5750   14.5100   26.6650 C   0  0  0  0  0  0
   21.5050   15.4620   27.1710 C   0  0  0  0  0  0
   20.9080   14.9570   28.4730 C   0  0  0  0  0  0
   21.9980   14.6470   29.4870 C   0  0  0  0  0  0
   23.8630   13.1370   29.8630 C   0  0  0  0  0  0
   23.8760   13.5680   31.1820 C   0  0  0  0  0  0
   24.7920   13.0350   32.0740 C   0  0  0  0  0  0
   24.8050   13.5740   33.7120 Cl  0  0  0  0  0  0
   25.7120   12.0810   31.6680 C   0  0  0  0  0  0
   25.7010   11.6410   30.3570 C   0  0  0  0  0  0
   26.6200   10.6660   29.9140 N   0  0  0  0  0  0
   27.1440   10.6310   28.6830 C   0  0  0  0  0  0
   26.8720   11.4450   27.8340 O   0  0  0  0  0  0
   28.0640    9.4980   28.3750 C   0  0  0  0  0  0
   27.8230    8.2310   28.8890 C   0  0  0  0  0  0
   28.6480    7.1650   28.5730 C   0  0  0  0  0  0
   28.3650    5.7890   29.1170 C   0  0  0  0  0  0
   29.7420    7.3850   27.7470 C   0  0  0  0  0  0
   30.5530    6.3150   27.4810 O   0  0  0  0  0  0
   31.7010    6.1290   28.3510 C   0  0  0  0  0  0
   32.2710    4.7470   28.1020 C   0  0  0  0  0  0
   32.9250    4.6830   26.7690 N   0  3  0  0  0  0
   30.0170    8.6640   27.2330 C   0  0  0  0  0  0
   31.2150    8.9030   26.3510 C   0  0  0  0  0  0
   29.1610    9.7070   27.5510 C   0  0  0  0  0  0
   24.7850   12.1780   29.4640 C   0  0  0  0  0  0
   24.1145   15.1616   28.0073 H   0  0  0  0  0  0
   24.3331   13.4998   27.3613 H   0  0  0  0  0  0
   23.0745   14.9675   25.7983 H   0  0  0  0  0  0
   22.0949   13.5694   26.3571 H   0  0  0  0  0  0
   21.9488   16.4534   27.3447 H   0  0  0  0  0  0
   20.7040   15.5451   26.4217 H   0  0  0  0  0  0
   20.2426   15.7253   28.8936 H   0  0  0  0  0  0
   20.3329   14.0392   28.2810 H   0  0  0  0  0  0
   21.5315   14.2356   30.3943 H   0  0  0  0  0  0
   22.5256   15.5794   29.7365 H   0  0  0  0  0  0
   23.1663   14.3250   31.5157 H   0  0  0  0  0  0
   26.4379   11.6811   32.3760 H   0  0  0  0  0  0
   26.9486    9.8692   30.5974 H   0  0  0  0  0  0
   26.9717    8.0732   29.5511 H   0  0  0  0  0  0
   27.4624    5.8215   29.7449 H   0  0  0  0  0  0
   29.2198    5.4505   29.7209 H   0  0  0  0  0  0
   28.2061    5.0903   28.2824 H   0  0  0  0  0  0
   32.4586    6.8945   28.1271 H   0  0  0  0  0  0
   31.3847    6.2221   29.4004 H   0  0  0  0  0  0
   33.0166    4.5129   28.8762 H   0  0  0  0  0  0
   31.4604    4.0042   28.1371 H   0  0  0  0  0  0
   33.3314    3.6736   26.6081 H   0  0  0  0  0  0
   33.7419    5.4184   26.7257 H   0  0  0  0  0  0
   32.1857    4.9097   25.9866 H   0  0  0  0  0  0
   31.7653    7.9601   26.2166 H   0  0  0  0  0  0
   31.8736    9.6481   26.8211 H   0  0  0  0  0  0
   30.8807    9.2752   25.3714 H   0  0  0  0  0  0
   29.3516   10.7022   27.1494 H   0  0  0  0  0  0
   24.7890   11.8402   28.4277 H   0  0  0  0  0  0
  1  2  1  0  0  0
  1  6  1  0  0  0
  1  7  1  0  0  0
  2  3  1  0  0  0
  2 29  1  0  0  0
  2 30  1  0  0  0
  3  4  1  0  0  0
  3 31  1  0  0  0
  3 32  1  0  0  0
  4  5  1  0  0  0
  4 33  1  0  0  0
  4 34  1  0  0  0
  5  6  1  0  0  0
  5 35  1  0  0  0
  5 36  1  0  0  0
  6 37  1  0  0  0
  6 38  1  0  0  0
  7  8  2  0  0  0
  7 28  1  0  0  0
  8  9  1  0  0  0
  8 39  1  0  0  0
  9 10  1  0  0  0
  9 11  2  0  0  0
 11 12  1  0  0  0
 11 40  1  0  0  0
 12 13  1  0  0  0
 12 28  2  0  0  0
 13 14  1  0  0  0
 13 41  1  0  0  0
 14 15  2  0  0  0
 14 16  1  0  0  0
 16 17  2  0  0  0
 16 27  1  0  0  0
 17 18  1  0  0  0
 17 42  1  0  0  0
 18 19  1  0  0  0
 18 20  2  0  0  0
 19 43  1  0  0  0
 19 44  1  0  0  0
 19 45  1  0  0  0
 20 21  1  0  0  0
 20 25  1  0  0  0
 21 22  1  0  0  0
 22 23  1  0  0  0
 22 46  1  0  0  0
 22 47  1  0  0  0
 23 24  1  0  0  0
 23 48  1  0  0  0
 23 49  1  0  0  0
 24 50  1  0  0  0
 24 51  1  0  0  0
 24 52  1  0  0  0
 25 26  1  0  0  0
 25 27  2  0  0  0
 26 53  1  0  0  0
 26 54  1  0  0  0
 26 55  1  0  0  0
 27 56  1  0  0  0
 28 57  1  0  0  0
M  CHG  1  24   1
M  END
> <s_m_source_file>
../2viv_ligand.sdf

> <i_m_source_file_index>
1

> <s_epik_input>
W0NIMl0xW0NIMl1bQ0gyXVtDSDJdW0NIMl1OMWMyW2NIXWMoQ2wpW2NIXWMoW2NIXTIpW05IXUMoPU8pYzNbY0hdYyhbQ0gzXSljKGMoW0NIM10pW2NIXTMpT1tDSDJdW0NIMl1bTkgzK10=

> <s_epik_cmdline>
J2VwaWtfYXBwJywgJy1pbWFlJywgJ2xpZ2FuZF9wcm8ubWFlJywgJy1vbWFlJywgJ2xpZ2FuZF9wcmVwLm1hZScsICctbXMnLCAnMScsICctcGgnLCAnNycsICctcGh0JywgJzAuNScsICctbnQn

> <r_lp_tautomer_probability>
1

> <r_epik_Ionization_Penalty>
  0.0091

> <r_epik_Ionization_Penalty_Charging>
  0.0069

> <r_epik_Ionization_Penalty_Neutral>
  0.0022

> <r_epik_State_Penalty>
 -0.0000

> <r_epik_Charging_Adjusted_Penalty>
0.00689082510937115

> <i_epik_Tot_Q>
1

> <i_epik_Tot_abs_Q>
1

$$$$
