2viw_ligand
                    3D
 Schrodinger Suite 2020-3.
 64 66  0  0  1  0            999 V2000
   22.3980   12.5370   29.2640 N   0  0  0  0  0  0
   21.6380   13.7920   29.2710 C   0  0  0  0  0  0
   20.5380   13.7550   28.2210 C   0  0  0  0  0  0
   19.6090   12.5740   28.4470 C   0  0  0  0  0  0
   20.3980   11.2830   28.5750 C   0  0  0  0  0  0
   21.5070   11.4220   29.6070 C   0  0  0  0  0  0
   23.6920   12.4940   29.8640 C   0  0  0  0  0  0
   23.9320   13.1210   31.0800 C   0  0  0  0  0  0
   25.1860   13.0570   31.6720 C   0  0  0  0  0  0
   25.4520   13.8390   33.1940 Cl  0  0  0  0  0  0
   26.2190   12.3390   31.0560 C   0  0  0  0  0  0
   25.9880   11.7180   29.8320 C   0  0  0  0  0  0
   27.0480   11.0010   29.2510 N   0  0  0  0  0  0
   27.2980   10.8090   27.9530 C   0  0  0  0  0  0
   26.7970   11.4760   27.0800 O   0  0  0  0  0  0
   28.2220    9.6830   27.6380 C   0  0  0  0  0  0
   27.9790    8.4350   28.2040 C   0  0  0  0  0  0
   28.7950    7.3490   27.9200 C   0  0  0  0  0  0
   29.6670   13.2840   31.9400 C   0  0  0  0  0  0
   28.5230    6.0020   28.5350 C   0  0  0  0  0  0
   29.8760    7.5340   27.0490 C   0  0  0  0  0  0
   30.7020    6.4720   26.7840 O   0  0  0  0  0  0
   31.6910    6.1440   27.7720 C   0  0  0  0  0  0
   31.8350    4.6350   27.8070 C   0  0  0  0  0  0
   33.1180    4.2180   27.1750 N   0  3  0  0  0  0
   30.1380    8.7930   26.4730 C   0  0  0  0  0  0
   31.3080    8.9850   25.5460 C   0  0  0  0  0  0
   29.2980    9.8570   26.7760 C   0  0  0  0  0  0
   24.7260   11.7880   29.2590 C   0  0  0  0  0  0
   27.4860   12.2800   31.5860 O   0  0  0  0  0  0
   28.4710   13.2160   31.0450 C   0  0  0  0  0  0
   21.1818   13.9389   30.2611 H   0  0  0  0  0  0
   22.3140   14.6313   29.0506 H   0  0  0  0  0  0
   19.9489   14.6824   28.2743 H   0  0  0  0  0  0
   20.9881   13.6635   27.2215 H   0  0  0  0  0  0
   19.0344   12.7312   29.3718 H   0  0  0  0  0  0
   18.9173   12.4836   27.5965 H   0  0  0  0  0  0
   19.7247   10.4713   28.8878 H   0  0  0  0  0  0
   20.8493   11.0313   27.6039 H   0  0  0  0  0  0
   22.0849   10.4865   29.6361 H   0  0  0  0  0  0
   21.0544   11.6042   30.5929 H   0  0  0  0  0  0
   23.1288   13.6680   31.5737 H   0  0  0  0  0  0
   27.7986   10.5140   29.8909 H   0  0  0  0  0  0
   27.1343    8.3085   28.8812 H   0  0  0  0  0  0
   30.3985   13.9908   31.5213 H   0  0  0  0  0  0
   30.1239   12.2864   32.0178 H   0  0  0  0  0  0
   29.3583   13.6248   32.9393 H   0  0  0  0  0  0
   27.6366    6.0671   29.1832 H   0  0  0  0  0  0
   29.3921    5.6895   29.1325 H   0  0  0  0  0  0
   28.3416    5.2652   27.7386 H   0  0  0  0  0  0
   32.6493    6.6111   27.5007 H   0  0  0  0  0  0
   31.3661    6.5177   28.7542 H   0  0  0  0  0  0
   31.8225    4.2896   28.8513 H   0  0  0  0  0  0
   31.0003    4.1742   27.2584 H   0  0  0  0  0  0
   33.2046    3.1220   27.2097 H   0  0  0  0  0  0
   33.9594    4.6698   27.7208 H   0  0  0  0  0  0
   33.1372    4.5544   26.1279 H   0  0  0  0  0  0
   31.8466    8.0325   25.4332 H   0  0  0  0  0  0
   31.9868    9.7428   25.9644 H   0  0  0  0  0  0
   30.9457    9.3200   24.5629 H   0  0  0  0  0  0
   29.4843   10.8359   26.3342 H   0  0  0  0  0  0
   24.5411   11.2781   28.3135 H   0  0  0  0  0  0
   28.0141   14.2136   30.9672 H   0  0  0  0  0  0
   28.7797   12.8752   30.0457 H   0  0  0  0  0  0
  1  2  1  0  0  0
  1  6  1  0  0  0
  1  7  1  0  0  0
  2  3  1  0  0  0
  2 32  1  0  0  0
  2 33  1  0  0  0
  3  4  1  0  0  0
  3 34  1  0  0  0
  3 35  1  0  0  0
  4  5  1  0  0  0
  4 36  1  0  0  0
  4 37  1  0  0  0
  5  6  1  0  0  0
  5 38  1  0  0  0
  5 39  1  0  0  0
  6 40  1  0  0  0
  6 41  1  0  0  0
  7  8  2  0  0  0
  7 29  1  0  0  0
  8  9  1  0  0  0
  8 42  1  0  0  0
  9 10  1  0  0  0
  9 11  2  0  0  0
 11 12  1  0  0  0
 11 30  1  0  0  0
 12 13  1  0  0  0
 12 29  2  0  0  0
 13 14  1  0  0  0
 13 43  1  0  0  0
 14 15  2  0  0  0
 14 16  1  0  0  0
 16 17  2  0  0  0
 16 28  1  0  0  0
 17 18  1  0  0  0
 17 44  1  0  0  0
 18 20  1  0  0  0
 18 21  2  0  0  0
 19 31  1  0  0  0
 19 45  1  0  0  0
 19 46  1  0  0  0
 19 47  1  0  0  0
 20 48  1  0  0  0
 20 49  1  0  0  0
 20 50  1  0  0  0
 21 22  1  0  0  0
 21 26  1  0  0  0
 22 23  1  0  0  0
 23 24  1  0  0  0
 23 51  1  0  0  0
 23 52  1  0  0  0
 24 25  1  0  0  0
 24 53  1  0  0  0
 24 54  1  0  0  0
 25 55  1  0  0  0
 25 56  1  0  0  0
 25 57  1  0  0  0
 26 27  1  0  0  0
 26 28  2  0  0  0
 27 58  1  0  0  0
 27 59  1  0  0  0
 27 60  1  0  0  0
 28 61  1  0  0  0
 29 62  1  0  0  0
 30 31  1  0  0  0
 31 63  1  0  0  0
 31 64  1  0  0  0
M  CHG  1  25   1
M  END
> <s_m_source_file>
../2viw_ligand.sdf

> <i_m_source_file_index>
1

> <s_epik_input>
W0NIMl0xW0NIMl1bQ0gyXVtDSDJdW0NIMl1OMWMyW2NIXWMoQ2wpYyhPW0NIMl1bQ0gzXSljKFtjSF0yKVtOSF1DKD1PKWMzW2NIXWMoW0NIM10pYyhjKFtDSDNdKVtjSF0zKU9bQ0gyXVtDSDJdW05IMytd

> <s_epik_cmdline>
J2VwaWtfYXBwJywgJy1pbWFlJywgJ2xpZ2FuZF9wcm8ubWFlJywgJy1vbWFlJywgJ2xpZ2FuZF9wcmVwLm1hZScsICctbXMnLCAnMScsICctcGgnLCAnNycsICctcGh0JywgJzAuNScsICctbnQn

> <r_lp_tautomer_probability>
1

> <r_epik_Ionization_Penalty>
  0.0171

> <r_epik_Ionization_Penalty_Charging>
  0.0069

> <r_epik_Ionization_Penalty_Neutral>
  0.0102

> <r_epik_State_Penalty>
  0.0078

> <r_epik_Charging_Adjusted_Penalty>
0.0147015676730689

> <i_epik_Tot_Q>
1

> <i_epik_Tot_abs_Q>
1

$$$$
