2viy_ligand
                    3D
 Schrodinger Suite 2020-3.
 86 88  0  0  1  0            999 V2000
   30.5470    1.2450   34.3590 C   0  0  0  0  0  0
   29.3600    1.4560   33.7170 N   0  0  0  0  0  0
   29.2020    2.3450   32.5500 C   0  0  2  0  0  0
   28.3370    3.5240   33.0190 C   0  0  2  0  0  0
   28.5600    1.5640   31.3760 C   0  0  0  0  0  0
   31.5040    2.0170   34.2240 O   0  0  0  0  0  0
   30.5720    0.0470   35.2150 C   0  0  0  0  0  0
   30.1530   -1.2290   34.7310 C   0  0  0  0  0  0
   30.1760   -2.3610   35.5830 C   0  0  0  0  0  0
   30.6110   -2.2340   36.9210 C   0  0  0  0  0  0
   31.0290   -0.9730   37.4100 C   0  0  0  0  0  0
   31.0110    0.1680   36.5650 C   0  0  0  0  0  0
   29.2090    0.2240   31.1020 C   0  0  0  0  0  0
   28.4280   -0.9650   31.0890 C   0  0  0  0  0  0
   29.0350   -2.2200   30.8350 C   0  0  0  0  0  0
   30.4270   -2.2960   30.5930 C   0  0  0  0  0  0
   31.2140   -1.1170   30.6050 C   0  0  0  0  0  0
   30.6090    0.1360   30.8570 C   0  0  0  0  0  0
   28.0980    4.4500   31.9870 O   0  0  0  0  0  0
   28.9560    6.7450   34.8900 C   0  0  1  0  0  0
   28.9930    4.2820   34.1860 C   0  0  0  0  0  0
   28.2730    5.5240   34.4250 N   0  3  0  0  0  0
   31.5550   -0.8330   39.1000 S   0  0  0  0  0  0
   29.5260    6.5250   36.3070 C   0  0  0  0  0  0
   30.0910    7.1540   33.9040 C   0  0  0  0  0  0
   29.6350    7.9310   32.9040 N   0  0  0  0  0  0
   30.4790    8.4020   31.8030 C   0  0  0  0  0  0
   31.2560    6.7770   34.0420 O   0  0  0  0  0  0
   30.8950    9.8650   32.0780 C   0  0  0  0  0  0
   31.7800   10.4030   30.8840 C   0  0  0  0  0  0
   31.0860   10.2440   29.5070 C   0  0  0  0  0  0
   30.5680    8.7980   29.2790 C   0  0  0  0  0  0
   29.7070    8.2950   30.4680 C   0  0  0  0  0  0
   32.9950   -1.8910   39.1700 C   0  0  0  0  0  0
   33.5530   -1.8840   40.6000 C   0  0  0  0  0  0
   34.7870   -2.7790   40.7760 C   0  0  0  0  0  0
   35.3160   -2.7550   42.2180 C   0  0  0  0  0  0
   36.5490   -3.6500   42.4020 C   0  0  0  0  0  0
   30.5300   -1.4170   39.9240 O   0  0  0  0  0  0
   31.9300    0.5250   39.3430 O   0  0  0  0  0  0
   28.4900    0.9161   34.1189 H   0  0  0  0  0  0
   30.1860    2.7031   32.2130 H   0  0  0  0  0  0
   27.3423    3.1322   33.2781 H   0  0  0  0  0  0
   27.5001    1.3724   31.5992 H   0  0  0  0  0  0
   28.6389    2.1582   30.4537 H   0  0  0  0  0  0
   29.8135   -1.3331   33.7004 H   0  0  0  0  0  0
   29.8572   -3.3324   35.2050 H   0  0  0  0  0  0
   30.6248   -3.1054   37.5757 H   0  0  0  0  0  0
   31.3329    1.1360   36.9490 H   0  0  0  0  0  0
   27.3555   -0.9103   31.2757 H   0  0  0  0  0  0
   28.4298   -3.1265   30.8261 H   0  0  0  0  0  0
   30.8942   -3.2611   30.3973 H   0  0  0  0  0  0
   32.2865   -1.1764   30.4198 H   0  0  0  0  0  0
   31.2180    1.0400   30.8638 H   0  0  0  0  0  0
   27.6298    4.1187   31.0483 H   0  0  0  0  0  0
   28.1822    7.5264   34.9157 H   0  0  0  0  0  0
   28.9601    3.6594   35.0922 H   0  0  0  0  0  0
   30.0397    4.5080   33.9342 H   0  0  0  0  0  0
   27.5099    5.2283   35.1600 H   0  0  0  0  0  0
   27.7918    5.7197   33.4554 H   0  0  0  0  0  0
   28.7123    6.2373   36.9889 H   0  0  0  0  0  0
   29.9914    7.4557   36.6635 H   0  0  0  0  0  0
   30.2806    5.7251   36.2785 H   0  0  0  0  0  0
   28.5719    8.2110   32.9406 H   0  0  0  0  0  0
   31.3639    7.7493   31.7728 H   0  0  0  0  0  0
   29.9951   10.4902   32.1743 H   0  0  0  0  0  0
   31.4756    9.9119   33.0111 H   0  0  0  0  0  0
   31.9884   11.4725   31.0350 H   0  0  0  0  0  0
   32.7279    9.8459   30.8502 H   0  0  0  0  0  0
   30.2276   10.9292   29.4478 H   0  0  0  0  0  0
   31.8014   10.4824   28.7061 H   0  0  0  0  0  0
   29.9489    8.7693   28.3702 H   0  0  0  0  0  0
   31.4233    8.1163   29.1616 H   0  0  0  0  0  0
   29.4354    7.2449   30.2846 H   0  0  0  0  0  0
   28.7937    8.9057   30.5226 H   0  0  0  0  0  0
   32.7112   -2.9157   38.8881 H   0  0  0  0  0  0
   33.7590   -1.5171   38.4724 H   0  0  0  0  0  0
   33.8455   -0.8597   40.8744 H   0  0  0  0  0  0
   32.7814   -2.2440   41.2965 H   0  0  0  0  0  0
   34.5258   -3.8173   40.5238 H   0  0  0  0  0  0
   35.5904   -2.4309   40.1101 H   0  0  0  0  0  0
   35.5986   -1.7267   42.4878 H   0  0  0  0  0  0
   34.5318   -3.1112   42.9022 H   0  0  0  0  0  0
   36.8873   -3.5977   43.4474 H   0  0  0  0  0  0
   37.3551   -3.3046   41.7380 H   0  0  0  0  0  0
   36.2883   -4.6891   42.1524 H   0  0  0  0  0  0
  1  2  1  0  0  0
  1  6  2  0  0  0
  1  7  1  0  0  0
  2  3  1  0  0  0
  2 41  1  0  0  0
  3  4  1  0  0  0
  3  5  1  0  0  0
  3 42  1  0  0  0
  4 19  1  0  0  0
  4 21  1  0  0  0
  4 43  1  0  0  0
  5 13  1  0  0  0
  5 44  1  0  0  0
  5 45  1  0  0  0
  7  8  2  0  0  0
  7 12  1  0  0  0
  8  9  1  0  0  0
  8 46  1  0  0  0
  9 10  2  0  0  0
  9 47  1  0  0  0
 10 11  1  0  0  0
 10 48  1  0  0  0
 11 12  2  0  0  0
 11 23  1  0  0  0
 12 49  1  0  0  0
 13 14  2  0  0  0
 13 18  1  0  0  0
 14 15  1  0  0  0
 14 50  1  0  0  0
 15 16  2  0  0  0
 15 51  1  0  0  0
 16 17  1  0  0  0
 16 52  1  0  0  0
 17 18  2  0  0  0
 17 53  1  0  0  0
 18 54  1  0  0  0
 19 55  1  0  0  0
 20 22  1  0  0  0
 20 24  1  0  0  0
 20 25  1  0  0  0
 20 56  1  0  0  0
 21 22  1  0  0  0
 21 57  1  0  0  0
 21 58  1  0  0  0
 22 59  1  0  0  0
 22 60  1  0  0  0
 23 34  1  0  0  0
 23 39  2  0  0  0
 23 40  2  0  0  0
 24 61  1  0  0  0
 24 62  1  0  0  0
 24 63  1  0  0  0
 25 26  1  0  0  0
 25 28  2  0  0  0
 26 27  1  0  0  0
 26 64  1  0  0  0
 27 29  1  0  0  0
 27 33  1  0  0  0
 27 65  1  0  0  0
 29 30  1  0  0  0
 29 66  1  0  0  0
 29 67  1  0  0  0
 30 31  1  0  0  0
 30 68  1  0  0  0
 30 69  1  0  0  0
 31 32  1  0  0  0
 31 70  1  0  0  0
 31 71  1  0  0  0
 32 33  1  0  0  0
 32 72  1  0  0  0
 32 73  1  0  0  0
 33 74  1  0  0  0
 33 75  1  0  0  0
 34 35  1  0  0  0
 34 76  1  0  0  0
 34 77  1  0  0  0
 35 36  1  0  0  0
 35 78  1  0  0  0
 35 79  1  0  0  0
 36 37  1  0  0  0
 36 80  1  0  0  0
 36 81  1  0  0  0
 37 38  1  0  0  0
 37 82  1  0  0  0
 37 83  1  0  0  0
 38 84  1  0  0  0
 38 85  1  0  0  0
 38 86  1  0  0  0
M  CHG  1  22   1
M  END
> <s_m_source_file>
../2viy_ligand.sdf

> <i_m_source_file_index>
1

> <s_epik_input>
W0NIM11bQ0gyXVtDSDJdW0NIMl1bQ0gyXVMoPU8pKD1PKWMoW2NIXTEpW2NIXVtjSF1bY0hdYzFDKD1PKVtOSF1bQ0BASF0oW0NIMl1jMltjSF1bY0hdW2NIXVtjSF1bY0hdMilbQ0BIXShbT0hdKVtDSDJdW05IMitdW0NAQEhdKFtDSDNdKUMoPU8pW05IXVtDSF0zW0NIMl1bQ0gyXVtDSDJdW0NIMl1bQ0gyXTM=

> <s_epik_cmdline>
J2VwaWtfYXBwJywgJy1pbWFlJywgJ2xpZ2FuZF9wcm8ubWFlJywgJy1vbWFlJywgJ2xpZ2FuZF9wcmVwLm1hZScsICctbXMnLCAnMScsICctcGgnLCAnNycsICctcGh0JywgJzAuNScsICctbnQn

> <r_epik_Ionization_Penalty>
  0.0373

> <r_epik_Ionization_Penalty_Charging>
  0.0373

> <r_epik_Ionization_Penalty_Neutral>
  0.0000

> <r_epik_State_Penalty>
  0.0312

> <r_epik_Charging_Adjusted_Penalty>
0.0685705159613123

> <i_epik_Tot_Q>
1

> <i_epik_Tot_abs_Q>
1

$$$$
