2viz_ligand
                    3D
 Schrodinger Suite 2020-3.
 89 92  0  0  1  0            999 V2000
   31.5100   -0.9090   37.2850 C   0  0  0  0  0  0
   31.3940    0.2350   36.4430 C   0  0  0  0  0  0
   30.8080    0.1230   35.1650 C   0  0  0  0  0  0
   30.3370   -1.1480   34.7260 C   0  0  0  0  0  0
   30.4410   -2.3070   35.5580 C   0  0  0  0  0  0
   31.0320   -2.1620   36.8280 C   0  0  0  0  0  0
   30.6730    1.2520   34.2370 C   0  0  0  0  0  0
   29.4940    1.3460   33.5510 N   0  0  0  0  0  0
   31.5890    2.0580   34.0460 O   0  0  0  0  0  0
   29.2670    2.3960   32.5350 C   0  0  1  0  0  0
   28.6550    1.7260   31.2730 C   0  0  0  0  0  0
   28.3700    3.5250   33.0850 C   0  0  2  0  0  0
   28.0910    4.4570   32.0560 O   0  0  0  0  0  0
   29.2650    0.3720   30.9310 C   0  0  0  0  0  0
   29.0500    4.2820   34.2300 C   0  0  0  0  0  0
   28.3790    5.5520   34.4680 N   0  3  0  0  0  0
   29.0770    6.7470   34.9730 C   0  0  2  0  0  0
   30.1520    7.1400   33.9370 C   0  0  0  0  0  0
   29.6650    7.8810   32.9270 N   0  0  0  0  0  0
   31.3230    6.7800   34.0550 O   0  0  0  0  0  0
   30.5040    8.3530   31.8250 C   0  0  0  0  0  0
   29.7210    6.4610   36.3500 C   0  0  0  0  0  0
   30.9800    9.8000   32.1030 C   0  0  0  0  0  0
   31.8630   10.3140   30.9390 C   0  0  0  0  0  0
   31.1300   10.2120   29.5710 C   0  0  0  0  0  0
   30.5810    8.7850   29.3120 C   0  0  0  0  0  0
   29.7130    8.2840   30.4930 C   0  0  0  0  0  0
   28.4140   -0.7390   30.7090 C   0  0  0  0  0  0
   28.9530   -2.0140   30.3910 C   0  0  0  0  0  0
   30.3560   -2.1900   30.2930 C   0  0  0  0  0  0
   31.2180   -1.0890   30.5100 C   0  0  0  0  0  0
   30.6750    0.1830   30.8250 C   0  0  0  0  0  0
   29.9560   -3.5530   35.0730 O   0  0  0  0  0  0
   29.0920   -3.5810   33.9340 C   0  0  0  0  0  0
   27.6400   -3.4750   34.4080 C   0  0  0  0  0  0
   26.6630   -3.4700   33.2430 C   0  0  0  0  0  0
   32.0900   -0.8130   38.5260 N   0  0  0  0  0  0
   33.4440   -0.2710   38.6680 C   0  0  0  0  0  0
   33.7540   -0.3290   40.1530 C   0  0  0  0  0  0
   32.5450   -0.9630   40.8390 C   0  0  0  0  0  0
   31.5470   -1.2080   39.7110 C   0  0  0  0  0  0
   30.4390   -1.6990   39.8990 O   0  0  0  0  0  0
   31.7601    1.2018   36.7886 H   0  0  0  0  0  0
   29.8886   -1.2390   33.7367 H   0  0  0  0  0  0
   31.1239   -3.0345   37.4748 H   0  0  0  0  0  0
   28.7031    0.6141   33.7717 H   0  0  0  0  0  0
   30.2436    2.8462   32.3034 H   0  0  0  0  0  0
   27.5779    1.5662   31.4286 H   0  0  0  0  0  0
   28.8065    2.3793   30.4011 H   0  0  0  0  0  0
   27.4045    3.1084   33.4078 H   0  0  0  0  0  0
   27.5987    4.1235   31.1305 H   0  0  0  0  0  0
   29.0060    3.6763   35.1471 H   0  0  0  0  0  0
   30.1008    4.4756   33.9685 H   0  0  0  0  0  0
   27.9398    5.9165   33.5277 H   0  0  0  0  0  0
   27.5832    5.4120   35.2144 H   0  0  0  0  0  0
   28.3288    7.5443   35.0932 H   0  0  0  0  0  0
   28.5939    8.1306   32.9488 H   0  0  0  0  0  0
   31.3687    7.6741   31.7890 H   0  0  0  0  0  0
   28.9376    6.1836   37.0706 H   0  0  0  0  0  0
   30.2432    7.3618   36.7047 H   0  0  0  0  0  0
   30.4402    5.6342   36.2538 H   0  0  0  0  0  0
   30.1061   10.4599   32.2067 H   0  0  0  0  0  0
   31.5673    9.8205   33.0329 H   0  0  0  0  0  0
   32.1232   11.3683   31.1141 H   0  0  0  0  0  0
   32.7830    9.7136   30.8839 H   0  0  0  0  0  0
   30.2834   10.9141   29.5554 H   0  0  0  0  0  0
   31.8298   10.4635   28.7604 H   0  0  0  0  0  0
   29.9609    8.7900   28.4035 H   0  0  0  0  0  0
   31.4211    8.0875   29.1787 H   0  0  0  0  0  0
   29.4143    7.2435   30.2974 H   0  0  0  0  0  0
   28.8153    8.9155   30.5665 H   0  0  0  0  0  0
   27.3338   -0.6138   30.7831 H   0  0  0  0  0  0
   28.2860   -2.8593   30.2219 H   0  0  0  0  0  0
   30.7692   -3.1693   30.0515 H   0  0  0  0  0  0
   32.2977   -1.2182   30.4352 H   0  0  0  0  0  0
   31.3443    1.0277   30.9883 H   0  0  0  0  0  0
   29.3294   -2.7345   33.2728 H   0  0  0  0  0  0
   29.2361   -4.5247   33.3875 H   0  0  0  0  0  0
   27.4017   -4.3328   35.0541 H   0  0  0  0  0  0
   27.5063   -2.5413   34.9740 H   0  0  0  0  0  0
   25.6351   -3.3928   33.6269 H   0  0  0  0  0  0
   26.7713   -4.4025   32.6697 H   0  0  0  0  0  0
   26.8759   -2.6111   32.5896 H   0  0  0  0  0  0
   34.1477   -0.8857   38.0875 H   0  0  0  0  0  0
   33.4660    0.7633   38.2942 H   0  0  0  0  0  0
   34.6559   -0.9374   40.3158 H   0  0  0  0  0  0
   33.9254    0.6894   40.5319 H   0  0  0  0  0  0
   32.8500   -1.9007   41.3265 H   0  0  0  0  0  0
   32.1467   -0.2697   41.5945 H   0  0  0  0  0  0
  1  2  2  0  0  0
  1  6  1  0  0  0
  1 37  1  0  0  0
  2  3  1  0  0  0
  2 43  1  0  0  0
  3  4  2  0  0  0
  3  7  1  0  0  0
  4  5  1  0  0  0
  4 44  1  0  0  0
  5  6  2  0  0  0
  5 33  1  0  0  0
  6 45  1  0  0  0
  7  8  1  0  0  0
  7  9  2  0  0  0
  8 10  1  0  0  0
  8 46  1  0  0  0
 10 11  1  0  0  0
 10 12  1  0  0  0
 10 47  1  0  0  0
 11 14  1  0  0  0
 11 48  1  0  0  0
 11 49  1  0  0  0
 12 13  1  0  0  0
 12 15  1  0  0  0
 12 50  1  0  0  0
 13 51  1  0  0  0
 14 28  2  0  0  0
 14 32  1  0  0  0
 15 16  1  0  0  0
 15 52  1  0  0  0
 15 53  1  0  0  0
 16 17  1  0  0  0
 16 54  1  0  0  0
 16 55  1  0  0  0
 17 18  1  0  0  0
 17 22  1  0  0  0
 17 56  1  0  0  0
 18 19  1  0  0  0
 18 20  2  0  0  0
 19 21  1  0  0  0
 19 57  1  0  0  0
 21 23  1  0  0  0
 21 27  1  0  0  0
 21 58  1  0  0  0
 22 59  1  0  0  0
 22 60  1  0  0  0
 22 61  1  0  0  0
 23 24  1  0  0  0
 23 62  1  0  0  0
 23 63  1  0  0  0
 24 25  1  0  0  0
 24 64  1  0  0  0
 24 65  1  0  0  0
 25 26  1  0  0  0
 25 66  1  0  0  0
 25 67  1  0  0  0
 26 27  1  0  0  0
 26 68  1  0  0  0
 26 69  1  0  0  0
 27 70  1  0  0  0
 27 71  1  0  0  0
 28 29  1  0  0  0
 28 72  1  0  0  0
 29 30  2  0  0  0
 29 73  1  0  0  0
 30 31  1  0  0  0
 30 74  1  0  0  0
 31 32  2  0  0  0
 31 75  1  0  0  0
 32 76  1  0  0  0
 33 34  1  0  0  0
 34 35  1  0  0  0
 34 77  1  0  0  0
 34 78  1  0  0  0
 35 36  1  0  0  0
 35 79  1  0  0  0
 35 80  1  0  0  0
 36 81  1  0  0  0
 36 82  1  0  0  0
 36 83  1  0  0  0
 37 38  1  0  0  0
 37 41  1  0  0  0
 38 39  1  0  0  0
 38 84  1  0  0  0
 38 85  1  0  0  0
 39 40  1  0  0  0
 39 86  1  0  0  0
 39 87  1  0  0  0
 40 41  1  0  0  0
 40 88  1  0  0  0
 40 89  1  0  0  0
 41 42  2  0  0  0
M  CHG  1  16   1
M  END
> <s_m_source_file>
../2viz_ligand.sdf

> <i_m_source_file_index>
1

> <s_epik_input>
Tz1DMVtDSDJdW0NIMl1bQ0gyXU4xYzJbY0hdYyhbY0hdYyhbY0hdMilPW0NIMl1bQ0gyXVtDSDNdKUMoPU8pW05IXVtDQEBIXShbQ0gyXWMzW2NIXVtjSF1bY0hdW2NIXVtjSF0zKVtDQEhdKFtPSF0pW0NIMl1bTkgyK11bQ0BASF0oW0NIM10pQyg9TylbTkhdW0NIXTRbQ0gyXVtDSDJdW0NIMl1bQ0gyXVtDSDJdNA==

> <s_epik_cmdline>
J2VwaWtfYXBwJywgJy1pbWFlJywgJ2xpZ2FuZF9wcm8ubWFlJywgJy1vbWFlJywgJ2xpZ2FuZF9wcmVwLm1hZScsICctbXMnLCAnMScsICctcGgnLCAnNycsICctcGh0JywgJzAuNScsICctbnQn

> <r_lp_tautomer_probability>
1

> <r_epik_Ionization_Penalty>
  0.0374

> <r_epik_Ionization_Penalty_Charging>
  0.0373

> <r_epik_Ionization_Penalty_Neutral>
  0.0000

> <r_epik_State_Penalty>
  0.0312

> <r_epik_Charging_Adjusted_Penalty>
0.0685705159613123

> <i_epik_Tot_Q>
1

> <i_epik_Tot_abs_Q>
1

$$$$
