2vj1_ligand
                    3D
 Schrodinger Suite 2020-3.
 14 14  0  0  1  0            999 V2000
  -20.9390  -12.8770   37.2080 C   0  0  0  0  0  0
  -22.0050  -12.2300   36.5750 C   0  0  0  0  0  0
  -22.7660  -11.2920   37.2550 C   0  0  0  0  0  0
  -22.4650  -10.9790   38.5790 C   0  0  0  0  0  0
  -23.2790   -9.9720   39.3050 C   0  0  0  0  0  0
  -22.6980   -9.2270   40.0710 O   0  0  0  0  0  0
  -21.3910  -11.6130   39.2180 C   0  0  0  0  0  0
  -20.6240  -12.5620   38.5320 C   0  0  0  0  0  0
  -20.3559  -13.6245   36.6701 H   0  0  0  0  0  0
  -22.2397  -12.4656   35.5370 H   0  0  0  0  0  0
  -23.5995  -10.7995   36.7542 H   0  0  0  0  0  0
  -24.3673   -9.8840   39.1716 H   0  0  0  0  0  0
  -21.1521  -11.3664   40.2525 H   0  0  0  0  0  0
  -19.7862  -13.0521   39.0279 H   0  0  0  0  0  0
  1  2  2  0  0  0
  1  8  1  0  0  0
  1  9  1  0  0  0
  2  3  1  0  0  0
  2 10  1  0  0  0
  3  4  2  0  0  0
  3 11  1  0  0  0
  4  5  1  0  0  0
  4  7  1  0  0  0
  5  6  2  0  0  0
  5 12  1  0  0  0
  7  8  2  0  0  0
  7 13  1  0  0  0
  8 14  1  0  0  0
M  END
> <s_m_source_file>
../2vj1_ligand.sdf

> <i_m_source_file_index>
1

> <s_epik_input>
W2NIXTFbY0hdW2NIXVtjSF1bY0hdYzFbQ0hdPU8=

> <s_epik_cmdline>
J2VwaWtfYXBwJywgJy1pbWFlJywgJ2xpZ2FuZF9wcm8ubWFlJywgJy1vbWFlJywgJ2xpZ2FuZF9wcmVwLm1hZScsICctbXMnLCAnMScsICctcGgnLCAnNycsICctcGh0JywgJzAuNScsICctbnQn

> <r_lp_tautomer_probability>
1

> <r_epik_Ionization_Penalty>
  0.0000

> <r_epik_Ionization_Penalty_Charging>
  0.0000

> <r_epik_Ionization_Penalty_Neutral>
  0.0000

> <r_epik_State_Penalty>
 -0.0000

> <r_epik_Charging_Adjusted_Penalty>
0

> <i_epik_Tot_Q>
0

> <i_epik_Tot_abs_Q>
0

$$$$
