2vj6_ligand
                    3D
 Schrodinger Suite 2020-3.
 87 90  0  0  1  0            999 V2000
   31.2710   -0.8080   37.3920 C   0  0  0  0  0  0
   31.1650    0.3600   36.5140 C   0  0  0  0  0  0
   30.5390    0.2240   35.2520 C   0  0  0  0  0  0
   29.9990   -1.0800   34.8260 C   0  0  0  0  0  0
   30.0940   -2.2490   35.6910 C   0  0  0  0  0  0
   30.7280   -2.0860   36.9500 C   0  0  0  0  0  0
   30.4120    1.3270   34.3220 C   0  0  0  0  0  0
   29.2160    1.4250   33.6650 N   0  0  0  0  0  0
   31.3420    2.1110   34.1130 O   0  0  0  0  0  0
   28.9190    2.4470   32.6270 C   0  0  1  0  0  0
   28.2300    1.6730   31.4520 C   0  0  0  0  0  0
   28.0280    3.5920   33.1590 C   0  0  2  0  0  0
   27.7760    4.5170   32.1050 O   0  0  0  0  0  0
   28.9120    0.3460   31.1300 C   0  0  0  0  0  0
   28.7210    4.3580   34.2960 C   0  0  0  0  0  0
   28.0830    5.6590   34.5450 N   0  3  0  0  0  0
   28.8170    6.8380   35.0720 C   0  0  2  0  0  0
   29.8780    7.2620   34.0130 C   0  0  0  0  0  0
   29.3410    7.9110   32.9590 N   0  0  0  0  0  0
   31.0790    7.0110   34.1540 O   0  0  0  0  0  0
   30.1510    8.4020   31.8360 C   0  0  0  0  0  0
   29.4890    6.5020   36.4340 C   0  0  0  0  0  0
   30.6100    9.8720   32.1020 C   0  0  0  0  0  0
   31.4680   10.4010   30.9080 C   0  0  0  0  0  0
   30.7140   10.2680   29.5350 C   0  0  0  0  0  0
   30.1520    8.8270   29.2950 C   0  0  0  0  0  0
   29.3300    8.3100   30.5150 C   0  0  0  0  0  0
   28.1200   -0.8470   31.0530 C   0  0  0  0  0  0
   28.7400   -2.1130   30.7580 C   0  0  0  0  0  0
   30.1590   -2.1940   30.5430 C   0  0  0  0  0  0
   30.9640   -1.0080   30.6180 C   0  0  0  0  0  0
   30.3460    0.2540   30.9080 C   0  0  0  0  0  0
   29.5790   -3.5360   35.3110 N   0  0  0  0  0  0
   29.0220   -3.8230   34.0000 C   0  0  0  0  0  0
   27.4870   -3.7680   34.0760 C   0  0  0  0  0  0
   31.8740   -0.7040   38.6120 N   0  0  0  0  0  0
   33.2150   -0.1180   38.7180 C   0  0  0  0  0  0
   33.5640   -0.1690   40.1970 C   0  0  0  0  0  0
   32.3800   -0.8000   40.9220 C   0  0  0  0  0  0
   31.3660   -1.1000   39.8130 C   0  0  0  0  0  0
   30.2780   -1.6220   40.0320 O   0  0  0  0  0  0
   31.5642    1.3239   36.8295 H   0  0  0  0  0  0
   29.5219   -1.1711   33.8502 H   0  0  0  0  0  0
   30.8119   -2.9487   37.6109 H   0  0  0  0  0  0
   28.4497    0.6875   33.9458 H   0  0  0  0  0  0
   29.8649    2.9270   32.3358 H   0  0  0  0  0  0
   27.1854    1.4552   31.7191 H   0  0  0  0  0  0
   28.2546    2.2904   30.5419 H   0  0  0  0  0  0
   27.0564    3.1937   33.4865 H   0  0  0  0  0  0
   27.2814    4.1784   31.1827 H   0  0  0  0  0  0
   28.6704    3.7655   35.2214 H   0  0  0  0  0  0
   29.7739    4.5345   34.0308 H   0  0  0  0  0  0
   27.6629    6.0472   33.6054 H   0  0  0  0  0  0
   27.2774    5.5369   35.2840 H   0  0  0  0  0  0
   28.0825    7.6401   35.2367 H   0  0  0  0  0  0
   28.2522    8.0675   32.9616 H   0  0  0  0  0  0
   31.0272    7.7389   31.7852 H   0  0  0  0  0  0
   28.7176    6.2067   37.1605 H   0  0  0  0  0  0
   30.0242    7.3876   36.8071 H   0  0  0  0  0  0
   30.2003    5.6741   36.2975 H   0  0  0  0  0  0
   29.7263   10.5163   32.2205 H   0  0  0  0  0  0
   31.2149    9.9068   33.0201 H   0  0  0  0  0  0
   31.7038   11.4634   31.0683 H   0  0  0  0  0  0
   32.4022    9.8237   30.8436 H   0  0  0  0  0  0
   29.8668   10.9693   29.5125 H   0  0  0  0  0  0
   31.4058   10.5023   28.7125 H   0  0  0  0  0  0
   29.4930    8.8325   28.4143 H   0  0  0  0  0  0
   30.9869    8.1316   29.1239 H   0  0  0  0  0  0
   29.0515    7.2623   30.3286 H   0  0  0  0  0  0
   28.4197    8.9208   30.6057 H   0  0  0  0  0  0
   27.0439   -0.7954   31.2185 H   0  0  0  0  0  0
   28.1301   -3.0144   30.6974 H   0  0  0  0  0  0
   30.6233   -3.1553   30.3232 H   0  0  0  0  0  0
   32.0402   -1.0658   30.4553 H   0  0  0  0  0  0
   30.9585    1.1540   30.9625 H   0  0  0  0  0  0
   29.6225   -4.3261   36.0751 H   0  0  0  0  0  0
   29.3817   -3.0758   33.2773 H   0  0  0  0  0  0
   29.3388   -4.8262   33.6786 H   0  0  0  0  0  0
   27.0628   -3.9850   33.0845 H   0  0  0  0  0  0
   27.1716   -2.7647   34.3982 H   0  0  0  0  0  0
   27.1287   -4.5150   34.7996 H   0  0  0  0  0  0
   33.9220   -0.7092   38.1175 H   0  0  0  0  0  0
   33.1935    0.9168   38.3455 H   0  0  0  0  0  0
   34.4708   -0.7752   40.3390 H   0  0  0  0  0  0
   33.7434    0.8513   40.5668 H   0  0  0  0  0  0
   32.7097   -1.7156   41.4348 H   0  0  0  0  0  0
   31.9813   -0.0893   41.6609 H   0  0  0  0  0  0
  1  2  2  0  0  0
  1  6  1  0  0  0
  1 36  1  0  0  0
  2  3  1  0  0  0
  2 42  1  0  0  0
  3  4  2  0  0  0
  3  7  1  0  0  0
  4  5  1  0  0  0
  4 43  1  0  0  0
  5  6  2  0  0  0
  5 33  1  0  0  0
  6 44  1  0  0  0
  7  8  1  0  0  0
  7  9  2  0  0  0
  8 10  1  0  0  0
  8 45  1  0  0  0
 10 11  1  0  0  0
 10 12  1  0  0  0
 10 46  1  0  0  0
 11 14  1  0  0  0
 11 47  1  0  0  0
 11 48  1  0  0  0
 12 13  1  0  0  0
 12 15  1  0  0  0
 12 49  1  0  0  0
 13 50  1  0  0  0
 14 28  2  0  0  0
 14 32  1  0  0  0
 15 16  1  0  0  0
 15 51  1  0  0  0
 15 52  1  0  0  0
 16 17  1  0  0  0
 16 53  1  0  0  0
 16 54  1  0  0  0
 17 18  1  0  0  0
 17 22  1  0  0  0
 17 55  1  0  0  0
 18 19  1  0  0  0
 18 20  2  0  0  0
 19 21  1  0  0  0
 19 56  1  0  0  0
 21 23  1  0  0  0
 21 27  1  0  0  0
 21 57  1  0  0  0
 22 58  1  0  0  0
 22 59  1  0  0  0
 22 60  1  0  0  0
 23 24  1  0  0  0
 23 61  1  0  0  0
 23 62  1  0  0  0
 24 25  1  0  0  0
 24 63  1  0  0  0
 24 64  1  0  0  0
 25 26  1  0  0  0
 25 65  1  0  0  0
 25 66  1  0  0  0
 26 27  1  0  0  0
 26 67  1  0  0  0
 26 68  1  0  0  0
 27 69  1  0  0  0
 27 70  1  0  0  0
 28 29  1  0  0  0
 28 71  1  0  0  0
 29 30  2  0  0  0
 29 72  1  0  0  0
 30 31  1  0  0  0
 30 73  1  0  0  0
 31 32  2  0  0  0
 31 74  1  0  0  0
 32 75  1  0  0  0
 33 34  1  0  0  0
 33 76  1  0  0  0
 34 35  1  0  0  0
 34 77  1  0  0  0
 34 78  1  0  0  0
 35 79  1  0  0  0
 35 80  1  0  0  0
 35 81  1  0  0  0
 36 37  1  0  0  0
 36 40  1  0  0  0
 37 38  1  0  0  0
 37 82  1  0  0  0
 37 83  1  0  0  0
 38 39  1  0  0  0
 38 84  1  0  0  0
 38 85  1  0  0  0
 39 40  1  0  0  0
 39 86  1  0  0  0
 39 87  1  0  0  0
 40 41  2  0  0  0
M  CHG  1  16   1
M  END
> <s_m_source_file>
../2vj6_ligand.sdf

> <i_m_source_file_index>
1

> <s_epik_input>
Tz1DMVtDSDJdW0NIMl1bQ0gyXU4xYzJbY0hdYyhbY0hdYyhbY0hdMilbTkhdW0NIMl1bQ0gzXSlDKD1PKVtOSF1bQ0BASF0oW0NIMl1jM1tjSF1bY0hdW2NIXVtjSF1bY0hdMylbQ0BIXShbT0hdKVtDSDJdW05IMitdW0NAQEhdKFtDSDNdKUMoPU8pW05IXVtDSF00W0NIMl1bQ0gyXVtDSDJdW0NIMl1bQ0gyXTQ=

> <s_epik_cmdline>
J2VwaWtfYXBwJywgJy1pbWFlJywgJ2xpZ2FuZF9wcm8ubWFlJywgJy1vbWFlJywgJ2xpZ2FuZF9wcmVwLm1hZScsICctbXMnLCAnMScsICctcGgnLCAnNycsICctcGh0JywgJzAuNScsICctbnQn

> <r_epik_Ionization_Penalty>
  0.0376

> <r_epik_Ionization_Penalty_Charging>
  0.0373

> <r_epik_Ionization_Penalty_Neutral>
  0.0003

> <r_epik_State_Penalty>
  0.0312

> <r_epik_Charging_Adjusted_Penalty>
0.0685705159613123

> <i_epik_Tot_Q>
1

> <i_epik_Tot_abs_Q>
1

$$$$
