2vj9_ligand
                    3D
 Schrodinger Suite 2020-3.
 77 80  0  0  1  0            999 V2000
   30.4160   -2.0680   35.6070 C   0  0  0  0  0  0
   30.3500   -0.9060   34.7600 C   0  0  0  0  0  0
   30.9270    0.3560   35.1590 C   0  0  0  0  0  0
   31.5850    0.4630   36.4240 C   0  0  0  0  0  0
   31.6690   -0.6870   37.2960 C   0  0  0  0  0  0
   31.0750   -1.9470   36.8630 C   0  0  0  0  0  0
   30.8390    1.4850   34.2560 C   0  0  0  0  0  0
   29.6270    1.6330   33.6520 N   0  0  0  0  0  0
   31.7920    2.2360   34.0140 O   0  0  0  0  0  0
   29.3300    2.6770   32.6430 C   0  0  1  0  0  0
   28.5830    1.9580   31.4630 C   0  0  0  0  0  0
   28.5240    3.8590   33.2420 C   0  0  2  0  0  0
   28.2410    4.8090   32.2340 O   0  0  0  0  0  0
   29.2160    0.6140   31.0950 C   0  0  0  0  0  0
   29.3280    4.6090   34.2810 C   0  0  0  0  0  0
   28.4020   -0.5810   31.0510 C   0  0  0  0  0  0
   28.9820   -1.8580   30.7130 C   0  0  0  0  0  0
   30.3840   -1.9580   30.4180 C   0  0  0  0  0  0
   31.2030   -0.7790   30.4580 C   0  0  0  0  0  0
   30.6270    0.4960   30.7930 C   0  0  0  0  0  0
   29.8780   -3.3040   35.2640 N   0  0  0  0  0  0
   29.3400   -3.6850   33.9500 C   0  0  0  0  0  0
   27.8110   -3.5610   33.9370 C   0  0  0  0  0  0
   32.3160   -0.5860   38.5220 N   0  0  0  0  0  0
   31.8190   -1.0230   39.7150 C   0  0  0  0  0  0
   32.8260   -0.7430   40.8260 C   0  0  0  0  0  0
   34.0990   -0.3550   40.0630 C   0  0  0  0  0  0
   33.6510    0.0210   38.6630 C   0  0  0  0  0  0
   30.7390   -1.5660   39.9160 O   0  0  0  0  0  0
   28.6010    5.7460   34.8660 N   0  3  0  0  0  0
   29.5290    6.7230   35.4960 C   0  0  0  0  0  0
   30.0620    6.1540   36.8580 C   0  0  0  0  0  0
   31.0550    7.1740   37.5690 C   0  0  0  0  0  0
   31.2610    8.5010   36.7230 C   0  0  0  0  0  0
   29.8260    9.1080   36.4330 C   0  0  0  0  0  0
   28.8330    8.0940   35.7380 C   0  0  0  0  0  0
   29.8520   -0.9807   33.7933 H   0  0  0  0  0  0
   32.0236    1.4124   36.7311 H   0  0  0  0  0  0
   31.1372   -2.8168   37.5169 H   0  0  0  0  0  0
   28.8449    0.9204   33.9527 H   0  0  0  0  0  0
   30.2838    3.1182   32.3180 H   0  0  0  0  0  0
   27.5379    1.7707   31.7507 H   0  0  0  0  0  0
   28.6081    2.5983   30.5689 H   0  0  0  0  0  0
   27.5722    3.4875   33.6494 H   0  0  0  0  0  0
   27.6581    4.5146   31.3488 H   0  0  0  0  0  0
   29.5936    3.9266   35.1018 H   0  0  0  0  0  0
   30.2458    5.0030   33.8202 H   0  0  0  0  0  0
   27.3375   -0.5158   31.2760 H   0  0  0  0  0  0
   28.3548   -2.7489   30.6815 H   0  0  0  0  0  0
   30.8237   -2.9228   30.1653 H   0  0  0  0  0  0
   32.2672   -0.8506   30.2332 H   0  0  0  0  0  0
   31.2599    1.3830   30.8197 H   0  0  0  0  0  0
   29.8782   -4.0306   36.0899 H   0  0  0  0  0  0
   29.7581   -3.0236   33.1769 H   0  0  0  0  0  0
   29.6152   -4.7269   33.7292 H   0  0  0  0  0  0
   27.4281   -3.8499   32.9471 H   0  0  0  0  0  0
   27.5257   -2.5204   34.1511 H   0  0  0  0  0  0
   27.3829   -4.2237   34.7035 H   0  0  0  0  0  0
   32.4529    0.0734   41.4618 H   0  0  0  0  0  0
   32.9617   -1.6491   41.4348 H   0  0  0  0  0  0
   34.5835    0.4947   40.5663 H   0  0  0  0  0  0
   34.7894   -1.2111   40.0423 H   0  0  0  0  0  0
   34.3232   -0.3892   37.8950 H   0  0  0  0  0  0
   33.5732    1.1111   38.5379 H   0  0  0  0  0  0
   28.0344    6.2635   34.0779 H   0  0  0  0  0  0
   27.9066    5.3799   35.6365 H   0  0  0  0  0  0
   30.3438    6.8537   34.7686 H   0  0  0  0  0  0
   29.2145    5.9659   37.5335 H   0  0  0  0  0  0
   30.6018    5.2130   36.6761 H   0  0  0  0  0  0
   30.6494    7.4557   38.5519 H   0  0  0  0  0  0
   32.0377    6.6975   37.7007 H   0  0  0  0  0  0
   31.8702    9.2126   37.2997 H   0  0  0  0  0  0
   31.7738    8.2590   35.7804 H   0  0  0  0  0  0
   29.3624    9.4217   37.3799 H   0  0  0  0  0  0
   29.9236    9.9778   35.7667 H   0  0  0  0  0  0
   28.5095    8.5160   34.7750 H   0  0  0  0  0  0
   27.9574    7.9510   36.3883 H   0  0  0  0  0  0
  1  2  2  0  0  0
  1  6  1  0  0  0
  1 21  1  0  0  0
  2  3  1  0  0  0
  2 37  1  0  0  0
  3  4  2  0  0  0
  3  7  1  0  0  0
  4  5  1  0  0  0
  4 38  1  0  0  0
  5  6  2  0  0  0
  5 24  1  0  0  0
  6 39  1  0  0  0
  7  8  1  0  0  0
  7  9  2  0  0  0
  8 10  1  0  0  0
  8 40  1  0  0  0
 10 11  1  0  0  0
 10 12  1  0  0  0
 10 41  1  0  0  0
 11 14  1  0  0  0
 11 42  1  0  0  0
 11 43  1  0  0  0
 12 13  1  0  0  0
 12 15  1  0  0  0
 12 44  1  0  0  0
 13 45  1  0  0  0
 14 16  2  0  0  0
 14 20  1  0  0  0
 15 30  1  0  0  0
 15 46  1  0  0  0
 15 47  1  0  0  0
 16 17  1  0  0  0
 16 48  1  0  0  0
 17 18  2  0  0  0
 17 49  1  0  0  0
 18 19  1  0  0  0
 18 50  1  0  0  0
 19 20  2  0  0  0
 19 51  1  0  0  0
 20 52  1  0  0  0
 21 22  1  0  0  0
 21 53  1  0  0  0
 22 23  1  0  0  0
 22 54  1  0  0  0
 22 55  1  0  0  0
 23 56  1  0  0  0
 23 57  1  0  0  0
 23 58  1  0  0  0
 24 25  1  0  0  0
 24 28  1  0  0  0
 25 26  1  0  0  0
 25 29  2  0  0  0
 26 27  1  0  0  0
 26 59  1  0  0  0
 26 60  1  0  0  0
 27 28  1  0  0  0
 27 61  1  0  0  0
 27 62  1  0  0  0
 28 63  1  0  0  0
 28 64  1  0  0  0
 30 31  1  0  0  0
 30 65  1  0  0  0
 30 66  1  0  0  0
 31 32  1  0  0  0
 31 36  1  0  0  0
 31 67  1  0  0  0
 32 33  1  0  0  0
 32 68  1  0  0  0
 32 69  1  0  0  0
 33 34  1  0  0  0
 33 70  1  0  0  0
 33 71  1  0  0  0
 34 35  1  0  0  0
 34 72  1  0  0  0
 34 73  1  0  0  0
 35 36  1  0  0  0
 35 74  1  0  0  0
 35 75  1  0  0  0
 36 76  1  0  0  0
 36 77  1  0  0  0
M  CHG  1  30   1
M  END
> <s_m_source_file>
../2vj9_ligand.sdf

> <i_m_source_file_index>
1

> <s_epik_input>
W0NIMl0xW0NIMl1bQ0gyXUMoPU8pTjFjKFtjSF0yKVtjSF1jKFtjSF1jMltOSF1bQ0gyXVtDSDNdKUMoPU8pW05IXVtDQEBIXShbQ0gyXWMzW2NIXVtjSF1bY0hdW2NIXVtjSF0zKVtDQEhdKFtPSF0pW0NIMl1bTkgyK11bQ0hdNFtDSDJdW0NIMl1bQ0gyXVtDSDJdW0NIMl00

> <s_epik_cmdline>
J2VwaWtfYXBwJywgJy1pbWFlJywgJ2xpZ2FuZF9wcm8ubWFlJywgJy1vbWFlJywgJ2xpZ2FuZF9wcmVwLm1hZScsICctbXMnLCAnMScsICctcGgnLCAnNycsICctcGh0JywgJzAuNScsICctbnQn

> <r_lp_tautomer_probability>
1

> <r_epik_Ionization_Penalty>
  0.0031

> <r_epik_Ionization_Penalty_Charging>
  0.0028

> <r_epik_Ionization_Penalty_Neutral>
  0.0003

> <r_epik_State_Penalty>
 -0.0000

> <r_epik_Charging_Adjusted_Penalty>
0.0028070380609069

> <i_epik_Tot_Q>
1

> <i_epik_Tot_abs_Q>
1

$$$$
