2vjx_ligand
                    3D
 Schrodinger Suite 2020-3.
 22 22  0  0  1  0            999 V2000
   27.4990   49.6760    0.1600 O   0  0  0  0  0  0
   27.8660   48.5600   -0.6650 C   0  0  1  0  0  0
   28.0820   47.3490    0.2770 C   0  0  2  0  0  0
   29.4370   47.3890    0.7070 O   0  0  0  0  0  0
   27.8500   45.9500   -0.3650 C   0  0  0  0  0  0
   27.4610   45.9060   -1.6550 N   0  0  0  0  0  0
   27.1430   47.0500   -2.5230 C   0  0  0  0  0  0
   26.7460   48.2780   -1.6720 C   0  0  2  0  0  0
   26.3930   49.5350   -2.5100 C   0  0  0  0  0  0
   27.4550   49.8620   -3.3990 O   0  0  0  0  0  0
   28.0350   44.9030    0.2690 O   0  0  0  0  0  0
   28.1833   50.0272    0.9463 H   0  0  0  0  0  0
   28.7809   48.8314   -1.2121 H   0  0  0  0  0  0
   27.4057   47.4594    1.1375 H   0  0  0  0  0  0
   29.8324   48.2914    1.1962 H   0  0  0  0  0  0
   27.3909   44.8811   -2.0482 H   0  0  0  0  0  0
   28.0236   47.3049   -3.1309 H   0  0  0  0  0  0
   26.3046   46.7864   -3.1846 H   0  0  0  0  0  0
   25.8212   48.0309   -1.1301 H   0  0  0  0  0  0
   25.4843   49.3400   -3.0985 H   0  0  0  0  0  0
   26.2180   50.3872   -1.8369 H   0  0  0  0  0  0
   27.3648   50.7308   -4.0676 H   0  0  0  0  0  0
  1  2  1  0  0  0
  1 12  1  0  0  0
  2  3  1  0  0  0
  2  8  1  0  0  0
  2 13  1  0  0  0
  3  4  1  0  0  0
  3  5  1  0  0  0
  3 14  1  0  0  0
  4 15  1  0  0  0
  5  6  1  0  0  0
  5 11  2  0  0  0
  6  7  1  0  0  0
  6 16  1  0  0  0
  7  8  1  0  0  0
  7 17  1  0  0  0
  7 18  1  0  0  0
  8  9  1  0  0  0
  8 19  1  0  0  0
  9 10  1  0  0  0
  9 20  1  0  0  0
  9 21  1  0  0  0
 10 22  1  0  0  0
M  END
> <s_m_source_file>
../2vjx_ligand.sdf

> <i_m_source_file_index>
1

> <s_epik_input>
W09IXVtDQEhdMVtDQEhdKFtPSF0pQyg9TylbTkhdW0NIMl1bQ0BASF0xW0NIMl1bT0hd

> <s_epik_cmdline>
J2VwaWtfYXBwJywgJy1pbWFlJywgJ2xpZ2FuZF9wcm8ubWFlJywgJy1vbWFlJywgJ2xpZ2FuZF9wcmVwLm1hZScsICctbXMnLCAnMScsICctcGgnLCAnNycsICctcGh0JywgJzAuNScsICctbnQn

> <r_lp_tautomer_probability>
1

> <r_epik_Ionization_Penalty>
  0.0000

> <r_epik_Ionization_Penalty_Charging>
  0.0000

> <r_epik_Ionization_Penalty_Neutral>
  0.0000

> <r_epik_State_Penalty>
 -0.0000

> <r_epik_Charging_Adjusted_Penalty>
0

> <i_epik_Tot_Q>
0

> <i_epik_Tot_abs_Q>
0

$$$$
