2vmf_ligand
                    3D
 Schrodinger Suite 2020-3.
 27 28  0  0  1  0            999 V2000
   27.3100   45.7400   -1.8390 C   0  0  0  0  0  0
   26.8680   46.8430   -2.4160 N   0  0  0  0  0  0
   27.7980   46.8180    0.3060 C   0  0  2  0  0  0
   27.5200   48.1230   -0.4960 C   0  0  1  0  0  0
   26.4450   47.9680   -1.5690 C   0  0  1  0  0  0
   26.1240   49.2410   -2.3540 C   0  0  0  0  0  0
   27.6120   45.5840   -4.0000 C   0  0  0  0  0  0
   27.1560   46.8310   -3.7520 C   0  0  0  0  0  0
   27.7460   44.9390   -2.8210 N   0  3  0  0  0  0
   29.2060   46.6590    0.4770 O   0  0  0  0  0  0
   27.9790   44.3630    0.0130 O   0  0  0  0  0  0
   27.1230   49.2020    0.3640 O   0  0  0  0  0  0
   27.2640   45.5360   -0.3630 C   0  0  2  0  0  0
   27.1890   49.5940   -3.2240 O   0  0  0  0  0  0
   27.3416   46.9221    1.3014 H   0  0  0  0  0  0
   28.4684   48.4256   -0.9639 H   0  0  0  0  0  0
   25.4772   47.7189   -1.1094 H   0  0  0  0  0  0
   25.2182   49.0811   -2.9573 H   0  0  0  0  0  0
   25.9556   50.0716   -1.6527 H   0  0  0  0  0  0
   27.8338   45.1693   -4.9833 H   0  0  0  0  0  0
   27.0424   47.6496   -4.4627 H   0  0  0  0  0  0
   29.7979   47.4620    0.9404 H   0  0  0  0  0  0
   27.6891   43.3859   -0.4007 H   0  0  0  0  0  0
   27.7583   49.4895    1.2147 H   0  0  0  0  0  0
   26.2467   45.2901   -0.0244 H   0  0  0  0  0  0
   27.1077   50.4894   -3.8578 H   0  0  0  0  0  0
   28.1302   43.9361   -2.5830 H   0  0  0  0  0  0
  1  2  1  0  0  0
  1  9  2  0  0  0
  1 13  1  0  0  0
  2  5  1  0  0  0
  2  8  1  0  0  0
  3  4  1  0  0  0
  3 10  1  0  0  0
  3 13  1  0  0  0
  3 15  1  0  0  0
  4  5  1  0  0  0
  4 12  1  0  0  0
  4 16  1  0  0  0
  5  6  1  0  0  0
  5 17  1  0  0  0
  6 14  1  0  0  0
  6 18  1  0  0  0
  6 19  1  0  0  0
  7  8  2  0  0  0
  7  9  1  0  0  0
  7 20  1  0  0  0
  8 21  1  0  0  0
  9 27  1  0  0  0
 10 22  1  0  0  0
 11 13  1  0  0  0
 11 23  1  0  0  0
 12 24  1  0  0  0
 13 25  1  0  0  0
 14 26  1  0  0  0
M  CHG  1   9   1
M  END
> <s_m_source_file>
../2vmf_ligand.sdf

> <i_m_source_file_index>
1

> <s_epik_input>
bjFbY0hdW2NIXW4oYzEyKVtDQEhdKFtDSDJdW09IXSlbQ0BASF0oW09IXSlbQ0BIXShbT0hdKVtDQEBIXTJbT0hd

> <s_epik_cmdline>
J2VwaWtfYXBwJywgJy1pbWFlJywgJ2xpZ2FuZF9wcm8ubWFlJywgJy1vbWFlJywgJ2xpZ2FuZF9wcmVwLm1hZScsICctbXMnLCAnMScsICctcGgnLCAnNycsICctcGh0JywgJzAuNScsICctbnQn

> <r_lp_tautomer_probability>
1

> <r_epik_Ionization_Penalty>
  0.2921

> <r_epik_Ionization_Penalty_Charging>
  0.0000

> <r_epik_Ionization_Penalty_Neutral>
  0.2921

> <r_epik_State_Penalty>
  0.2847

> <r_epik_Charging_Adjusted_Penalty>
0.284745957002556

> <i_epik_Tot_Q>
1

> <i_epik_Tot_abs_Q>
1

$$$$
