2vnf_ligand
                    3D
 Schrodinger Suite 2020-3.
 51 50  0  0  1  0            999 V2000
   -2.7400  -16.7790   15.5900 N   0  3  0  0  0  0
   -2.3720  -16.7760   14.1400 C   0  0  2  0  0  0
   -1.9840  -18.1580   13.6070 C   0  0  0  0  0  0
   -1.5400  -19.0460   14.3580 O   0  0  0  0  0  0
   -1.2720  -15.7460   13.8650 C   0  0  0  0  0  0
   -2.1720  -18.3650   12.3150 N   0  0  0  0  0  0
   -1.8100  -19.6410   11.7230 C   0  0  2  0  0  0
   -0.3780  -19.6010   11.2080 C   0  0  0  0  0  0
   -0.0160  -18.7210   10.4100 O   0  0  0  0  0  0
   -2.7640  -19.9760   10.5720 C   0  0  0  0  0  0
   -4.2100  -20.0640   11.0490 C   0  0  0  0  0  0
   -5.1590  -20.1790    9.8840 C   0  0  0  0  0  0
   -5.1170  -18.9470    9.1030 N   0  0  0  0  0  0
   -4.5450  -18.8560    7.9010 C   0  0  0  0  0  0
   -3.9710  -19.9150    7.3370 N   0  0  0  0  0  0
   -4.5490  -17.6920    7.2710 N   0  3  0  0  0  0
    0.4360  -20.5580   11.6630 N   0  0  0  0  0  0
    1.8340  -20.5740   11.2730 C   0  0  2  0  0  0
    2.2260  -22.0010   10.9350 C   0  0  0  0  0  0
    1.5410  -22.9550   11.3320 O   0  0  0  0  0  0
    2.7190  -20.0590   12.4110 C   0  0  2  0  0  0
    2.6990  -21.0120   13.4860 O   0  0  0  0  0  0
    2.1840  -18.7030   12.9080 C   0  0  0  0  0  0
    3.3146  -22.2300   10.2061 O   0  5  0  0  0  0
   -3.0060  -15.7585   15.9029 H   0  0  0  0  0  0
   -1.8852  -17.1337   16.1845 H   0  0  0  0  0  0
   -3.5994  -17.4470   15.7488 H   0  0  0  0  0  0
   -3.2922  -16.4843   13.6125 H   0  0  0  0  0  0
   -1.5803  -14.7663   14.2589 H   0  0  0  0  0  0
   -1.1046  -15.6690   12.7805 H   0  0  0  0  0  0
   -0.3412  -16.0631   14.3581 H   0  0  0  0  0  0
   -2.6028  -17.5703   11.6882 H   0  0  0  0  0  0
   -1.8974  -20.3805   12.5326 H   0  0  0  0  0  0
   -2.6993  -19.1927    9.8024 H   0  0  0  0  0  0
   -2.4835  -20.9450   10.1334 H   0  0  0  0  0  0
   -4.3312  -20.9493   11.6905 H   0  0  0  0  0  0
   -4.4631  -19.1592   11.6212 H   0  0  0  0  0  0
   -4.8602  -21.0268    9.2500 H   0  0  0  0  0  0
   -6.1804  -20.3429   10.2579 H   0  0  0  0  0  0
   -5.5728  -18.0281    9.5003 H   0  0  0  0  0  0
   -3.9675  -20.8826    7.8603 H   0  0  0  0  0  0
   -3.4998  -19.8233    6.3473 H   0  0  0  0  0  0
   -5.0236  -16.8160    7.7371 H   0  0  0  0  0  0
    0.0436  -21.3353   12.3352 H   0  0  0  0  0  0
    1.9231  -19.9145   10.3971 H   0  0  0  0  0  0
    3.7693  -19.9773   12.0945 H   0  0  0  0  0  0
    3.0477  -22.0412   13.3152 H   0  0  0  0  0  0
    2.2012  -17.9770   12.0818 H   0  0  0  0  0  0
    2.8172  -18.3381   13.7301 H   0  0  0  0  0  0
    1.1515  -18.8255   13.2670 H   0  0  0  0  0  0
   -4.0777  -17.6007    6.2813 H   0  0  0  0  0  0
  1  2  1  0  0  0
  1 25  1  0  0  0
  1 26  1  0  0  0
  1 27  1  0  0  0
  2  5  1  0  0  0
  2  3  1  0  0  0
  2 28  1  0  0  0
  3  4  2  0  0  0
  3  6  1  0  0  0
  5 29  1  0  0  0
  5 30  1  0  0  0
  5 31  1  0  0  0
  6  7  1  0  0  0
  6 32  1  0  0  0
  7 10  1  0  0  0
  7  8  1  0  0  0
  7 33  1  0  0  0
  8  9  2  0  0  0
  8 17  1  0  0  0
 10 11  1  0  0  0
 10 34  1  0  0  0
 10 35  1  0  0  0
 11 12  1  0  0  0
 11 36  1  0  0  0
 11 37  1  0  0  0
 12 13  1  0  0  0
 12 38  1  0  0  0
 12 39  1  0  0  0
 13 14  1  0  0  0
 13 40  1  0  0  0
 14 16  2  0  0  0
 14 15  1  0  0  0
 15 41  1  0  0  0
 15 42  1  0  0  0
 16 43  1  0  0  0
 16 51  1  0  0  0
 17 18  1  0  0  0
 17 44  1  0  0  0
 18 21  1  0  0  0
 18 19  1  0  0  0
 18 45  1  0  0  0
 19 20  2  0  0  0
 19 24  1  0  0  0
 21 23  1  0  0  0
 21 22  1  0  0  0
 21 46  1  0  0  0
 22 47  1  0  0  0
 23 48  1  0  0  0
 23 49  1  0  0  0
 23 50  1  0  0  0
M  CHG  3   1   1  16   1  24  -1
M  END
> <s_m_source_file>
../2vnf_ligand.sdf

> <i_m_source_file_index>
1

> <s_epik_input>
Tz1DKFtPSF0pW0NASF0oW0NASF0oW09IXSlbQ0gzXSlbTkhdQyg9TylbQ0BASF0oW05IXUMoPU8pW0NAQEhdKFtOSDMrXSlbQ0gzXSlbQ0gyXVtDSDJdW0NIMl1bTkhdL0MoW05IMl0pPU5cW0hd

> <s_epik_cmdline>
J2VwaWtfYXBwJywgJy1pbWFlJywgJ2xpZ2FuZF9wcm8ubWFlJywgJy1vbWFlJywgJ2xpZ2FuZF9wcmVwLm1hZScsICctbXMnLCAnMScsICctcGgnLCAnNycsICctcGh0JywgJzAuNScsICctbnQn

> <r_epik_Ionization_Penalty>
  0.1232

> <r_epik_Ionization_Penalty_Charging>
  0.1232

> <r_epik_Ionization_Penalty_Neutral>
  0.0000

> <r_epik_State_Penalty>
  0.1126

> <r_epik_Charging_Adjusted_Penalty>
0.235791661329389

> <i_epik_Tot_Q>
1

> <i_epik_Tot_abs_Q>
3

> <s_epik_Chemistry_Notes>
This compound has an imine and may undergo hydrolysis.

$$$$
