2vnm_ligand
                    3D
 Schrodinger Suite 2020-3.
 81 84  0  0  1  0            999 V2000
   27.5940   -3.7460   34.1580 C   0  0  0  0  0  0
   29.0930   -3.7890   34.1330 C   0  0  0  0  0  0
   33.8450   -2.2450   40.1660 C   0  0  0  0  0  0
   32.3550   -2.7130   40.3140 C   0  0  0  0  0  0
   31.2970   -1.2030   40.0730 S   0  0  0  0  0  0
   31.5210   -0.3330   41.2100 O   0  0  0  0  0  0
   29.9080   -1.6170   39.9730 O   0  0  0  0  0  0
   31.7580   -0.4480   38.7880 N   0  0  0  0  0  0
   33.2070   -0.1180   38.7200 C   0  0  0  0  0  0
   31.1040   -0.7520   37.5360 C   0  0  0  0  0  0
   30.9570    0.3880   36.6520 C   0  0  0  0  0  0
   30.3550    0.2100   35.3790 C   0  0  0  0  0  0
   29.9020   -1.0700   34.9410 C   0  0  0  0  0  0
   30.0920   -2.2120   35.8170 C   0  0  0  0  0  0
   30.7130   -2.0430   37.1350 C   0  0  0  0  0  0
   30.1590    1.4160   34.4960 C   0  0  0  0  0  0
   31.0480    2.1890   34.2710 O   0  0  0  0  0  0
   28.9100    1.4440   33.7650 N   0  0  0  0  0  0
   28.7090    2.4070   32.6750 C   0  0  1  0  0  0
   28.0620    1.6300   31.5080 C   0  0  0  0  0  0
   28.7830    0.2860   31.2290 C   0  0  0  0  0  0
   30.2370    0.2220   31.1100 C   0  0  0  0  0  0
   30.8960   -1.0350   30.8630 C   0  0  0  0  0  0
   30.0670   -2.2180   30.7060 C   0  0  0  0  0  0
   28.6330   -2.1640   30.8210 C   0  0  0  0  0  0
   27.9540   -0.9060   31.0760 C   0  0  0  0  0  0
   27.7450    3.5220   33.1810 C   0  0  2  0  0  0
   27.4050    4.3810   32.0630 O   0  0  0  0  0  0
   28.5220    4.4310   34.1680 C   0  0  0  0  0  0
   27.6380    5.5780   34.5200 N   0  3  0  0  0  0
   28.4170    6.6630   35.1540 C   0  0  0  0  0  0
   29.4250    7.2870   34.1560 C   0  0  0  0  0  0
   30.8230    7.3540   34.5250 C   0  0  0  0  0  0
   31.7980    7.9330   33.6260 C   0  0  0  0  0  0
   31.3850    8.4430   32.3470 C   0  0  0  0  0  0
   29.9870    8.3600   31.9800 C   0  0  0  0  0  0
   34.0590   -1.4330   38.8260 C   0  0  0  0  0  0
   29.0030    7.7940   32.8750 C   0  0  0  0  0  0
   29.5480    8.9010   30.6400 C   0  0  0  0  0  0
   30.5910    9.4780   29.9790 F   0  0  0  0  0  0
   29.0130    7.9130   29.8910 F   0  0  0  0  0  0
   29.6870   -3.5480   35.4140 N   0  0  0  0  0  0
   28.6240    9.8490   30.8620 F   0  0  0  0  0  0
   27.2048   -3.9382   33.1473 H   0  0  0  0  0  0
   27.2613   -2.7537   34.4965 H   0  0  0  0  0  0
   27.2166   -4.5146   34.8485 H   0  0  0  0  0  0
   29.4257   -4.7813   33.7945 H   0  0  0  0  0  0
   29.4704   -3.0204   33.4425 H   0  0  0  0  0  0
   34.1122   -1.5982   41.0147 H   0  0  0  0  0  0
   34.5059   -3.1242   40.1528 H   0  0  0  0  0  0
   32.1321   -3.4737   39.5513 H   0  0  0  0  0  0
   32.2032   -3.1423   41.3153 H   0  0  0  0  0  0
   33.4251    0.3800   37.7638 H   0  0  0  0  0  0
   33.4697    0.5530   39.5511 H   0  0  0  0  0  0
   31.3057    1.3730   36.9624 H   0  0  0  0  0  0
   29.4232   -1.1880   33.9689 H   0  0  0  0  0  0
   30.8685   -2.8999   37.7905 H   0  0  0  0  0  0
   28.1089    0.7384   34.0302 H   0  0  0  0  0  0
   29.6779    2.8365   32.3802 H   0  0  0  0  0  0
   27.0119    1.4106   31.7512 H   0  0  0  0  0  0
   28.1070    2.2385   30.5927 H   0  0  0  0  0  0
   30.8283    1.1323   31.2088 H   0  0  0  0  0  0
   31.9822   -1.0967   30.7960 H   0  0  0  0  0  0
   30.5450   -3.1746   30.4949 H   0  0  0  0  0  0
   28.0497   -3.0787   30.7154 H   0  0  0  0  0  0
   26.8678   -0.8537   31.1503 H   0  0  0  0  0  0
   26.8232    3.0923   33.6001 H   0  0  0  0  0  0
   26.8419    3.9757   31.2094 H   0  0  0  0  0  0
   28.7803    3.8565   35.0698 H   0  0  0  0  0  0
   29.4430    4.7917   33.6868 H   0  0  0  0  0  0
   27.1626    5.9679   33.6079 H   0  0  0  0  0  0
   26.8617    5.2405   35.2225 H   0  0  0  0  0  0
   27.7327    7.4515   35.5003 H   0  0  0  0  0  0
   28.9762    6.2602   36.0114 H   0  0  0  0  0  0
   31.1449    6.9641   35.4906 H   0  0  0  0  0  0
   32.8467    7.9825   33.9190 H   0  0  0  0  0  0
   32.1119    8.8846   31.6653 H   0  0  0  0  0  0
   35.1153   -1.1381   38.7407 H   0  0  0  0  0  0
   33.7838   -2.0632   37.9674 H   0  0  0  0  0  0
   27.9534    7.7512   32.5840 H   0  0  0  0  0  0
   29.8440   -4.3825   36.1132 H   0  0  0  0  0  0
  1  2  1  0  0  0
  1 44  1  0  0  0
  1 45  1  0  0  0
  1 46  1  0  0  0
  2 42  1  0  0  0
  2 47  1  0  0  0
  2 48  1  0  0  0
  3  4  1  0  0  0
  3 37  1  0  0  0
  3 49  1  0  0  0
  3 50  1  0  0  0
  4  5  1  0  0  0
  4 51  1  0  0  0
  4 52  1  0  0  0
  5  6  2  0  0  0
  5  7  2  0  0  0
  5  8  1  0  0  0
  8  9  1  0  0  0
  8 10  1  0  0  0
  9 37  1  0  0  0
  9 53  1  0  0  0
  9 54  1  0  0  0
 10 11  2  0  0  0
 10 15  1  0  0  0
 11 12  1  0  0  0
 11 55  1  0  0  0
 12 13  2  0  0  0
 12 16  1  0  0  0
 13 14  1  0  0  0
 13 56  1  0  0  0
 14 15  2  0  0  0
 14 42  1  0  0  0
 15 57  1  0  0  0
 16 17  2  0  0  0
 16 18  1  0  0  0
 18 19  1  0  0  0
 18 58  1  0  0  0
 19 20  1  0  0  0
 19 27  1  0  0  0
 19 59  1  0  0  0
 20 21  1  0  0  0
 20 60  1  0  0  0
 20 61  1  0  0  0
 21 22  2  0  0  0
 21 26  1  0  0  0
 22 23  1  0  0  0
 22 62  1  0  0  0
 23 24  2  0  0  0
 23 63  1  0  0  0
 24 25  1  0  0  0
 24 64  1  0  0  0
 25 26  2  0  0  0
 25 65  1  0  0  0
 26 66  1  0  0  0
 27 28  1  0  0  0
 27 29  1  0  0  0
 27 67  1  0  0  0
 28 68  1  0  0  0
 29 30  1  0  0  0
 29 69  1  0  0  0
 29 70  1  0  0  0
 30 31  1  0  0  0
 30 71  1  0  0  0
 30 72  1  0  0  0
 31 32  1  0  0  0
 31 73  1  0  0  0
 31 74  1  0  0  0
 32 33  2  0  0  0
 32 38  1  0  0  0
 33 34  1  0  0  0
 33 75  1  0  0  0
 34 35  2  0  0  0
 34 76  1  0  0  0
 35 36  1  0  0  0
 35 77  1  0  0  0
 36 38  2  0  0  0
 36 39  1  0  0  0
 37 78  1  0  0  0
 37 79  1  0  0  0
 38 80  1  0  0  0
 39 40  1  0  0  0
 39 41  1  0  0  0
 39 43  1  0  0  0
 42 81  1  0  0  0
M  CHG  1  30   1
M  END
> <s_m_source_file>
../2vnm_ligand.sdf

> <i_m_source_file_index>
1

> <s_epik_input>
Tz1TMSg9TylbQ0gyXVtDSDJdW0NIMl1bQ0gyXU4xYzJbY0hdYyhbY0hdYyhbY0hdMilbTkhdW0NIMl1bQ0gzXSlDKD1PKVtOSF1bQ0BASF0oW0NIMl1jM1tjSF1bY0hdW2NIXVtjSF1bY0hdMylbQ0BIXShbT0hdKVtDSDJdW05IMitdW0NIMl1jNFtjSF1bY0hdW2NIXWMoW2NIXTQpQyhGKShGKUY=

> <s_epik_cmdline>
J2VwaWtfYXBwJywgJy1pbWFlJywgJ2xpZ2FuZF9wcm8ubWFlJywgJy1vbWFlJywgJ2xpZ2FuZF9wcmVwLm1hZScsICctbXMnLCAnMScsICctcGgnLCAnNycsICctcGh0JywgJzAuNScsICctbnQn

> <r_epik_Ionization_Penalty>
  0.0244

> <r_epik_Ionization_Penalty_Charging>
  0.0243

> <r_epik_Ionization_Penalty_Neutral>
  0.0001

> <r_epik_State_Penalty>
  0.0197

> <r_epik_Charging_Adjusted_Penalty>
0.0440130403077586

> <i_epik_Tot_Q>
1

> <i_epik_Tot_abs_Q>
1

$$$$
