2vnp_ligand
                    3D
 Schrodinger Suite 2020-3.
 25 24  0  0  1  0            999 V2000
   -1.6720    0.6250   21.3870 O   0  5  0  0  0  0
   -3.7210    1.0690   19.9630 O   0  5  0  0  0  0
   -1.5470    0.2950   18.9090 O   0  0  0  0  0  0
   -2.4380    0.2670   20.0930 P   0  0  0  0  0  0
   -2.7330   -1.3280   20.2100 O   0  0  0  0  0  0
   -5.0170   -1.5140   19.2030 O   0  5  0  0  0  0
   -3.0500   -2.9650   18.2660 O   0  0  0  0  0  0
   -3.7260   -2.3000   19.3890 P   0  0  1  0  0  0
   -4.0540   -3.5270   20.4160 O   0  0  0  0  0  0
   -4.4590   -3.4010   21.8150 C   0  0  0  0  0  0
   -4.4040   -4.7010   22.6530 C   0  0  0  0  0  0
   -4.6100   -5.9260   21.8220 N   0  3  0  0  0  0
   -5.8970   -6.5730   22.1070 C   0  0  0  0  0  0
   -4.3750   -5.9280   20.3750 C   0  0  0  0  0  0
   -3.8019   -2.6801   22.3234 H   0  0  0  0  0  0
   -5.4994   -3.0474   21.8651 H   0  0  0  0  0  0
   -3.4205   -4.7826   23.1390 H   0  0  0  0  0  0
   -5.1914   -4.6760   23.4207 H   0  0  0  0  0  0
   -3.7449   -6.5150   22.1605 H   0  0  0  0  0  0
   -6.0752   -6.5725   23.1925 H   0  0  0  0  0  0
   -5.8756   -7.6095   21.7394 H   0  0  0  0  0  0
   -6.7042   -6.0216   21.6026 H   0  0  0  0  0  0
   -3.4112   -5.4437   20.1594 H   0  0  0  0  0  0
   -5.1830   -5.3770   19.8716 H   0  0  0  0  0  0
   -4.3545   -6.9649   20.0083 H   0  0  0  0  0  0
  1  4  1  0  0  0
  2  4  1  0  0  0
  3  4  2  0  0  0
  4  5  1  0  0  0
  5  8  1  0  0  0
  6  8  1  0  0  0
  7  8  2  0  0  0
  8  9  1  0  0  0
  9 10  1  0  0  0
 10 11  1  0  0  0
 10 15  1  0  0  0
 10 16  1  0  0  0
 11 12  1  0  0  0
 11 17  1  0  0  0
 11 18  1  0  0  0
 12 13  1  0  0  0
 12 14  1  0  0  0
 12 19  1  0  0  0
 13 20  1  0  0  0
 13 21  1  0  0  0
 13 22  1  0  0  0
 14 23  1  0  0  0
 14 24  1  0  0  0
 14 25  1  0  0  0
M  CHG  4   1  -1   2  -1   6  -1  12   1
M  END
> <s_m_source_file>
../2vnp_ligand.sdf

> <i_m_source_file_index>
1

> <s_epik_input>
W09IXVAoPU8pKFtPSF0pT1tQQF0oPU8pKFtPSF0pT1tDSDJdW0NIMl1bTkgrXShbQ0gzXSlbQ0gzXQ==

> <s_epik_cmdline>
J2VwaWtfYXBwJywgJy1pbWFlJywgJ2xpZ2FuZF9wcm8ubWFlJywgJy1vbWFlJywgJ2xpZ2FuZF9wcmVwLm1hZScsICctbXMnLCAnMScsICctcGgnLCAnNycsICctcGh0JywgJzAuNScsICctbnQn

> <r_epik_Ionization_Penalty>
  0.0810

> <r_epik_Ionization_Penalty_Charging>
  0.0810

> <r_epik_Ionization_Penalty_Neutral>
  0.0000

> <r_epik_State_Penalty>
  0.0708

> <r_epik_Charging_Adjusted_Penalty>
0.151812055076881

> <i_epik_Tot_Q>
-2

> <i_epik_Tot_abs_Q>
4

$$$$
