2vo7_ligand
                    3D
 Schrodinger Suite 2020-3.
 44 47  0  0  1  0            999 V2000
   -6.8090   -8.3940   -8.2000 N   0  0  0  0  0  0
   -8.0300   -8.8050   -7.4940 C   0  0  0  0  0  0
  -10.2160   -7.1850   -9.1930 C   0  0  0  0  0  0
   -9.3830   -8.4080   -9.6390 C   0  0  0  0  0  0
  -10.0730   -9.2030  -10.7130 N   0  3  0  0  0  0
   -7.1240   -7.3290   -9.1570 C   0  0  0  0  0  0
  -11.5230   -7.4600   -8.4960 C   0  0  0  0  0  0
  -12.5540   -8.1380   -9.1480 C   0  0  0  0  0  0
  -13.7510   -8.3720   -8.5030 C   0  0  0  0  0  0
  -13.9420   -7.9130   -7.2090 C   0  0  0  0  0  0
  -15.4510   -8.1970   -6.4020 Cl  0  0  0  0  0  0
  -12.9280   -7.2230   -6.5610 C   0  0  0  0  0  0
  -11.7290   -6.9940   -7.2010 C   0  0  0  0  0  0
   -5.6360   -9.1770   -8.3300 C   0  0  0  0  0  0
   -5.7040  -10.4630   -7.9200 N   0  0  0  0  0  0
   -4.6020  -11.2180   -8.0320 C   0  0  0  0  0  0
   -3.3900  -10.8700   -8.4690 N   0  0  0  0  0  0
   -3.3460   -9.5690   -8.8440 C   0  0  0  0  0  0
   -2.2580   -8.8920   -9.3220 N   0  0  0  0  0  0
   -2.6080   -7.6060   -9.5710 C   0  0  0  0  0  0
   -3.9280   -7.4410   -9.2500 C   0  0  0  0  0  0
   -9.0580   -9.3560   -8.4710 C   0  0  0  0  0  0
   -8.0710   -7.8590  -10.2180 C   0  0  0  0  0  0
   -4.4100   -8.6710   -8.7890 C   0  0  0  0  0  0
   -7.7837   -9.5862   -6.7598 H   0  0  0  0  0  0
   -8.4631   -7.9373   -6.9748 H   0  0  0  0  0  0
   -9.6286   -6.5788   -8.4876 H   0  0  0  0  0  0
  -10.4742   -6.5768  -10.0724 H   0  0  0  0  0  0
  -11.0177   -9.6072  -10.3203 H   0  0  0  0  0  0
   -9.4232  -10.0320  -11.0302 H   0  0  0  0  0  0
  -10.2828   -8.5513  -11.5740 H   0  0  0  0  0  0
   -7.6008   -6.4904   -8.6285 H   0  0  0  0  0  0
   -6.1972   -6.9808   -9.6363 H   0  0  0  0  0  0
  -12.4129   -8.4844  -10.1718 H   0  0  0  0  0  0
  -14.5463   -8.9177   -9.0108 H   0  0  0  0  0  0
  -13.0797   -6.8613   -5.5440 H   0  0  0  0  0  0
  -10.9380   -6.4450   -6.6901 H   0  0  0  0  0  0
   -4.7107  -12.2580   -7.7242 H   0  0  0  0  0  0
   -1.8631   -6.9001   -9.9670 H   0  0  0  0  0  0
   -4.5007   -6.5177   -9.3377 H   0  0  0  0  0  0
   -8.6828  -10.2930   -8.9084 H   0  0  0  0  0  0
  -10.0011   -9.5513   -7.9396 H   0  0  0  0  0  0
   -7.5467   -8.6591  -10.7611 H   0  0  0  0  0  0
   -8.2926   -7.0317  -10.9082 H   0  0  0  0  0  0
  1  2  1  0  0  0
  1  6  1  0  0  0
  1 14  1  0  0  0
  2 22  1  0  0  0
  2 25  1  0  0  0
  2 26  1  0  0  0
  3  4  1  0  0  0
  3  7  1  0  0  0
  3 27  1  0  0  0
  3 28  1  0  0  0
  4  5  1  0  0  0
  4 22  1  0  0  0
  4 23  1  0  0  0
  5 29  1  0  0  0
  5 30  1  0  0  0
  5 31  1  0  0  0
  6 23  1  0  0  0
  6 32  1  0  0  0
  6 33  1  0  0  0
  7  8  2  0  0  0
  7 13  1  0  0  0
  8  9  1  0  0  0
  8 34  1  0  0  0
  9 10  2  0  0  0
  9 35  1  0  0  0
 10 11  1  0  0  0
 10 12  1  0  0  0
 12 13  2  0  0  0
 12 36  1  0  0  0
 13 37  1  0  0  0
 14 15  2  0  0  0
 14 24  1  0  0  0
 15 16  1  0  0  0
 16 17  2  0  0  0
 16 38  1  0  0  0
 17 18  1  0  0  0
 18 19  1  0  0  0
 18 24  2  0  0  0
 19 20  2  0  0  0
 20 21  1  0  0  0
 20 39  1  0  0  0
 21 24  1  0  0  0
 21 40  1  0  0  0
 22 41  1  0  0  0
 22 42  1  0  0  0
 23 43  1  0  0  0
 23 44  1  0  0  0
M  CHG  1   5   1
M  END
> <s_m_source_file>
../2vo7_ligand.sdf

> <i_m_source_file_index>
1

> <s_epik_input>
TjE9W0NIXVtDSDJdYyhjMTIpYyhuW2NIXW4yKU4oW0NIMl1bQ0gyXTMpW0NIMl1bQ0gyXUMzKFtOSDMrXSlbQ0gyXWM0W2NIXVtjSF1jKENsKVtjSF1bY0hdNA==

> <s_epik_cmdline>
J2VwaWtfYXBwJywgJy1pbWFlJywgJ2xpZ2FuZF9wcm8ubWFlJywgJy1vbWFlJywgJ2xpZ2FuZF9wcmVwLm1hZScsICctbXMnLCAnMScsICctcGgnLCAnNycsICctcGh0JywgJzAuNScsICctbnQn

> <r_lp_tautomer_probability>
1

> <r_epik_Ionization_Penalty>
  0.0463

> <r_epik_Ionization_Penalty_Charging>
  0.0150

> <r_epik_Ionization_Penalty_Neutral>
  0.0314

> <r_epik_State_Penalty>
 -0.0000

> <r_epik_Charging_Adjusted_Penalty>
0.0149735049055098

> <i_epik_Tot_Q>
1

> <i_epik_Tot_abs_Q>
1

> <s_epik_Chemistry_Notes>
This compound has an imine and may undergo hydrolysis.

$$$$
