2vpe_ligand
                    3D
 Schrodinger Suite 2020-3.
120119  0  0  1  0            999 V2000
  -23.4050  -21.3110   14.5260 N   0  3  0  0  0  0
  -22.2250  -20.8350   15.3170 C   0  0  2  0  0  0
  -22.3030  -19.3340   15.4860 C   0  0  0  0  0  0
  -22.7720  -18.6300   14.5980 O   0  0  0  0  0  0
  -20.9160  -21.2010   14.6390 C   0  0  0  0  0  0
  -21.8270  -18.8460   16.6290 N   0  0  0  0  0  0
  -21.8310  -17.4230   16.9330 C   0  0  2  0  0  0
  -20.7240  -16.6720   16.1700 C   0  0  0  0  0  0
  -19.5320  -16.8500   16.4380 O   0  0  0  0  0  0
  -21.6700  -17.2320   18.4520 C   0  0  0  0  0  0
  -21.4290  -15.8070   18.9010 C   0  0  0  0  0  0
  -22.6180  -15.2580   19.6740 C   0  0  0  0  0  0
  -22.1580  -14.3940   20.7530 N   0  0  0  0  0  0
  -22.1320  -14.7270   22.0450 C   0  0  0  0  0  0
  -22.5690  -15.9130   22.4780 N   0  0  0  0  0  0
  -21.6700  -13.8540   22.9090 N   0  3  0  0  0  0
  -21.1280  -15.8230   15.2290 N   0  0  0  0  0  0
  -20.1650  -14.9780   14.4980 C   0  0  2  0  0  0
  -20.6100  -13.5350   14.5560 C   0  0  0  0  0  0
  -21.6450  -13.2340   15.1280 O   0  0  0  0  0  0
  -20.0550  -15.4120   13.0010 C   0  0  2  0  0  0
  -21.2450  -15.0140   12.3080 O   0  0  0  0  0  0
  -19.8360  -16.9200   12.9040 C   0  0  0  0  0  0
  -19.8550  -12.6430   13.9190 N   0  0  0  0  0  0
  -20.2800  -11.2650   13.7610 C   0  0  1  0  0  0
  -19.0820  -10.3680   13.4450 C   0  0  0  0  0  0
  -18.0760  -10.3060   14.6000 C   0  0  0  0  0  0
  -18.7090   -9.7630   15.9010 C   0  0  0  0  0  0
  -17.7070   -9.7450   17.0710 C   0  0  0  0  0  0
  -18.1720   -8.9890   18.2720 N   0  3  0  0  0  0
  -17.0530   -8.8730   19.2200 C   0  0  0  0  0  0
  -19.3220   -9.6330   18.9510 C   0  0  0  0  0  0
  -21.3780  -11.1130   12.7200 C   0  0  0  0  0  0
  -21.9900  -10.0470   12.6280 O   0  0  0  0  0  0
  -21.6340  -12.1720   11.9480 N   0  0  0  0  0  0
  -22.6970  -12.1700   10.9340 C   0  0  2  0  0  0
  -24.0320  -12.6270   11.5730 C   0  0  0  0  0  0
  -25.0970  -12.4440   10.9880 O   0  0  0  0  0  0
  -22.2900  -13.0590    9.7340 C   0  0  0  0  0  0
  -23.1210  -12.8850    8.4180 C   0  0  0  0  0  0
  -22.5690  -13.7100    7.2260 C   0  0  0  0  0  0
  -23.1950  -14.6890    6.7750 O   0  0  0  0  0  0
  -21.3950  -13.3260    6.7320 N   0  0  0  0  0  0
  -23.9560  -13.2000   12.7780 N   0  0  0  0  0  0
  -25.1230  -13.7000   13.5290 C   0  0  2  0  0  0
  -26.1780  -12.6100   13.7310 C   0  0  0  0  0  0
  -25.8540  -11.5170   14.1850 O   0  0  0  0  0  0
  -24.6880  -14.2930   14.8850 C   0  0  2  0  0  0
  -23.8970  -15.4560   14.6410 O   0  0  0  0  0  0
  -25.9000  -14.7100   15.7570 C   0  0  0  0  0  0
  -27.4350  -12.9280   13.3940 N   0  0  0  0  0  0
  -28.5340  -11.9580   13.4370 C   0  0  2  0  0  0
  -28.8260  -11.4710   14.8610 C   0  0  0  0  0  0
  -28.5829  -12.2012   15.8587 O   0  5  0  0  0  0
  -29.7950  -12.5550   12.8100 C   0  0  0  0  0  0
  -29.3162  -10.3236   15.0364 O   0  0  0  0  0  0
  -24.3326  -21.0291   15.0457 H   0  0  0  0  0  0
  -23.3603  -22.4053   14.4233 H   0  0  0  0  0  0
  -23.3884  -20.8481   13.5283 H   0  0  0  0  0  0
  -22.2635  -21.3321   16.2975 H   0  0  0  0  0  0
  -20.8594  -22.2927   14.5162 H   0  0  0  0  0  0
  -20.0740  -20.8575   15.2579 H   0  0  0  0  0  0
  -20.8667  -20.7179   13.6520 H   0  0  0  0  0  0
  -21.4199  -19.5629   17.3573 H   0  0  0  0  0  0
  -22.8074  -17.0538   16.5860 H   0  0  0  0  0  0
  -22.5833  -17.5707   18.9630 H   0  0  0  0  0  0
  -20.8115  -17.8212   18.8067 H   0  0  0  0  0  0
  -20.5438  -15.7728   19.5531 H   0  0  0  0  0  0
  -21.2610  -15.1687   18.0210 H   0  0  0  0  0  0
  -23.2600  -14.6773   18.9953 H   0  0  0  0  0  0
  -23.1949  -16.0919   20.1004 H   0  0  0  0  0  0
  -21.7955  -13.3799   20.5290 H   0  0  0  0  0  0
  -22.9580  -16.6510   21.7610 H   0  0  0  0  0  0
  -22.5398  -16.1514   23.5515 H   0  0  0  0  0  0
  -21.3081  -12.8750   22.5617 H   0  0  0  0  0  0
  -22.2018  -15.7577   14.9996 H   0  0  0  0  0  0
  -19.2052  -15.0993   15.0215 H   0  0  0  0  0  0
  -19.2394  -14.9019   12.4676 H   0  0  0  0  0  0
  -21.5405  -13.9547   12.2862 H   0  0  0  0  0  0
  -18.9175  -17.1926   13.4443 H   0  0  0  0  0  0
  -19.7392  -17.2092   11.8471 H   0  0  0  0  0  0
  -20.6935  -17.4445   13.3507 H   0  0  0  0  0  0
  -18.8890  -12.9712   13.5077 H   0  0  0  0  0  0
  -20.7079  -10.9969   14.7382 H   0  0  0  0  0  0
  -18.5576  -10.7553   12.5590 H   0  0  0  0  0  0
  -19.4327   -9.3447   13.2454 H   0  0  0  0  0  0
  -17.6901  -11.3155   14.8047 H   0  0  0  0  0  0
  -17.2421   -9.6435   14.3248 H   0  0  0  0  0  0
  -19.0606   -8.7339   15.7359 H   0  0  0  0  0  0
  -19.5591  -10.3992   16.1885 H   0  0  0  0  0  0
  -17.5078  -10.7759   17.3990 H   0  0  0  0  0  0
  -16.7675   -9.2769   16.7420 H   0  0  0  0  0  0
  -18.5080   -7.9949   17.9422 H   0  0  0  0  0  0
  -16.1972   -8.3955   18.7204 H   0  0  0  0  0  0
  -16.7620   -9.8751   19.5681 H   0  0  0  0  0  0
  -17.3632   -8.2617   20.0803 H   0  0  0  0  0  0
  -20.1614   -9.7219   18.2457 H   0  0  0  0  0  0
  -19.6294   -9.0208   19.8116 H   0  0  0  0  0  0
  -19.0283  -10.6342   19.2995 H   0  0  0  0  0  0
  -21.0140  -13.0690   12.0931 H   0  0  0  0  0  0
  -22.8010  -11.1320   10.5852 H   0  0  0  0  0  0
  -21.2461  -12.8480    9.4588 H   0  0  0  0  0  0
  -22.3888  -14.1186   10.0125 H   0  0  0  0  0  0
  -24.1571  -13.2106    8.5929 H   0  0  0  0  0  0
  -23.1149  -11.8268    8.1177 H   0  0  0  0  0  0
  -20.8762  -12.4557    7.1602 H   0  0  0  0  0  0
  -20.9430  -13.8788    5.8953 H   0  0  0  0  0  0
  -22.9469  -13.2884   13.2069 H   0  0  0  0  0  0
  -25.5545  -14.4865   12.8924 H   0  0  0  0  0  0
  -24.0584  -13.5671   15.4204 H   0  0  0  0  0  0
  -22.9811  -15.3813   14.0365 H   0  0  0  0  0  0
  -26.5266  -13.8288   15.9593 H   0  0  0  0  0  0
  -25.5403  -15.1303   16.7078 H   0  0  0  0  0  0
  -26.4931  -15.4667   15.2226 H   0  0  0  0  0  0
  -27.6272  -13.9632   13.0756 H   0  0  0  0  0  0
  -28.1755  -11.1053   12.8417 H   0  0  0  0  0  0
  -29.5695  -12.8994   11.7899 H   0  0  0  0  0  0
  -30.5837  -11.7891   12.7725 H   0  0  0  0  0  0
  -30.1386  -13.4058   13.4167 H   0  0  0  0  0  0
  -21.6446  -14.1012   23.9806 H   0  0  0  0  0  0
  1  2  1  0  0  0
  1 57  1  0  0  0
  1 58  1  0  0  0
  1 59  1  0  0  0
  2  3  1  0  0  0
  2  5  1  0  0  0
  2 60  1  0  0  0
  3  4  2  0  0  0
  3  6  1  0  0  0
  5 61  1  0  0  0
  5 62  1  0  0  0
  5 63  1  0  0  0
  6  7  1  0  0  0
  6 64  1  0  0  0
  7  8  1  0  0  0
  7 10  1  0  0  0
  7 65  1  0  0  0
  8  9  2  0  0  0
  8 17  1  0  0  0
 10 11  1  0  0  0
 10 66  1  0  0  0
 10 67  1  0  0  0
 11 12  1  0  0  0
 11 68  1  0  0  0
 11 69  1  0  0  0
 12 13  1  0  0  0
 12 70  1  0  0  0
 12 71  1  0  0  0
 13 14  1  0  0  0
 13 72  1  0  0  0
 14 15  1  0  0  0
 14 16  2  0  0  0
 15 73  1  0  0  0
 15 74  1  0  0  0
 16 75  1  0  0  0
 16120  1  0  0  0
 17 18  1  0  0  0
 17 76  1  0  0  0
 18 19  1  0  0  0
 18 21  1  0  0  0
 18 77  1  0  0  0
 19 20  2  0  0  0
 19 24  1  0  0  0
 21 22  1  0  0  0
 21 23  1  0  0  0
 21 78  1  0  0  0
 22 79  1  0  0  0
 23 80  1  0  0  0
 23 81  1  0  0  0
 23 82  1  0  0  0
 24 25  1  0  0  0
 24 83  1  0  0  0
 25 26  1  0  0  0
 25 33  1  0  0  0
 25 84  1  0  0  0
 26 27  1  0  0  0
 26 85  1  0  0  0
 26 86  1  0  0  0
 27 28  1  0  0  0
 27 87  1  0  0  0
 27 88  1  0  0  0
 28 29  1  0  0  0
 28 89  1  0  0  0
 28 90  1  0  0  0
 29 30  1  0  0  0
 29 91  1  0  0  0
 29 92  1  0  0  0
 30 31  1  0  0  0
 30 32  1  0  0  0
 30 93  1  0  0  0
 31 94  1  0  0  0
 31 95  1  0  0  0
 31 96  1  0  0  0
 32 97  1  0  0  0
 32 98  1  0  0  0
 32 99  1  0  0  0
 33 34  2  0  0  0
 33 35  1  0  0  0
 35 36  1  0  0  0
 35100  1  0  0  0
 36 37  1  0  0  0
 36 39  1  0  0  0
 36101  1  0  0  0
 37 38  2  0  0  0
 37 44  1  0  0  0
 39 40  1  0  0  0
 39102  1  0  0  0
 39103  1  0  0  0
 40 41  1  0  0  0
 40104  1  0  0  0
 40105  1  0  0  0
 41 42  2  0  0  0
 41 43  1  0  0  0
 43106  1  0  0  0
 43107  1  0  0  0
 44 45  1  0  0  0
 44108  1  0  0  0
 45 46  1  0  0  0
 45 48  1  0  0  0
 45109  1  0  0  0
 46 47  2  0  0  0
 46 51  1  0  0  0
 48 49  1  0  0  0
 48 50  1  0  0  0
 48110  1  0  0  0
 49111  1  0  0  0
 50112  1  0  0  0
 50113  1  0  0  0
 50114  1  0  0  0
 51 52  1  0  0  0
 51115  1  0  0  0
 52 53  1  0  0  0
 52 55  1  0  0  0
 52116  1  0  0  0
 53 54  1  0  0  0
 53 56  2  0  0  0
 55117  1  0  0  0
 55118  1  0  0  0
 55119  1  0  0  0
M  CHG  4   1   1  16   1  30   1  54  -1
M  END
> <s_m_source_file>
../2vpe_ligand.sdf

> <i_m_source_file_index>
1

> <s_epik_input>
W0hdL049QyhbTkgyXSlcW05IXVtDSDJdW0NIMl1bQ0gyXVtDQEhdKFtOSF1DKD1PKVtDQEBIXShbTkgzK10pW0NIM10pQyg9TylbTkhdW0NAQEhdKFtDQEhdKFtPSF0pW0NIM10pQyg9TylbTkhdW0NAQEhdKFtDSDJdW0NIMl1bQ0gyXVtDSDJdW05IK10oW0NIM10pW0NIM10pQyg9TylbTkhdW0NAQEhdKFtDSDJdW0NIMl1DKD1PKVtOSDJdKUMoPU8pW05IXVtDQEBIXShbQ0BIXShbT0hdKVtDSDNdKUMoPU8pW05IXVtDQEBIXShbQ0gzXSlDKD1PKVtPSF0=

> <s_epik_cmdline>
J2VwaWtfYXBwJywgJy1pbWFlJywgJ2xpZ2FuZF9wcm8ubWFlJywgJy1vbWFlJywgJ2xpZ2FuZF9wcmVwLm1hZScsICctbXMnLCAnMScsICctcGgnLCAnNycsICctcGh0JywgJzAuNScsICctbnQn

> <r_epik_Ionization_Penalty>
  0.1268

> <r_epik_Ionization_Penalty_Charging>
  0.1268

> <r_epik_Ionization_Penalty_Neutral>
  0.0000

> <r_epik_State_Penalty>
  0.1145

> <r_epik_Charging_Adjusted_Penalty>
0.24137879208736

> <i_epik_Tot_Q>
2

> <i_epik_Tot_abs_Q>
4

> <s_epik_Chemistry_Notes>
This compound has an imine and may undergo hydrolysis.

$$$$
