2vpg_ligand
                    3D
 Schrodinger Suite 2020-3.
126125  0  0  1  0            999 V2000
  -23.2560  -21.2180   14.5300 N   0  3  0  0  0  0
  -22.1000  -20.6870   15.3070 C   0  0  2  0  0  0
  -22.2010  -19.1750   15.4580 C   0  0  0  0  0  0
  -22.7210  -18.4720   14.5680 O   0  0  0  0  0  0
  -20.7870  -21.0750   14.6510 C   0  0  0  0  0  0
  -22.4330  -11.0190   20.2310 C   0  0  0  0  0  0
  -22.5410  -11.1550   22.6890 C   0  0  0  0  0  0
  -21.7210  -18.6750   16.5970 N   0  0  0  0  0  0
  -21.7510  -17.2490   16.8640 C   0  0  1  0  0  0
  -21.6360  -16.9980   18.3670 C   0  0  0  0  0  0
  -21.8070  -15.5060   18.6140 C   0  0  0  0  0  0
  -22.0280  -15.2520   20.0860 C   0  0  0  0  0  0
  -22.1810  -13.8130   20.1970 N   0  0  0  0  0  0
  -22.2870  -13.1860   21.3620 C   0  0  0  0  0  0
  -22.2530  -13.9200   22.4700 N   0  3  0  0  0  0
  -22.4100  -11.8640   21.4230 N   0  0  0  0  0  0
  -20.6350  -16.5340   16.1330 C   0  0  0  0  0  0
  -19.4600  -16.7660   16.4040 O   0  0  0  0  0  0
  -21.0110  -15.6350   15.2300 N   0  0  0  0  0  0
  -20.0460  -14.7910   14.5030 C   0  0  2  0  0  0
  -20.5010  -13.3510   14.5240 C   0  0  0  0  0  0
  -21.5510  -13.0380   15.0590 O   0  0  0  0  0  0
  -19.9460  -15.1960   13.0090 C   0  0  2  0  0  0
  -21.1720  -14.8810   12.3440 O   0  0  0  0  0  0
  -19.6510  -16.6730   12.8500 C   0  0  0  0  0  0
  -19.7230  -12.4620   13.9050 N   0  0  0  0  0  0
  -20.1540  -11.0770   13.7430 C   0  0  1  0  0  0
  -18.9500  -10.1490   13.4800 C   0  0  0  0  0  0
  -17.9450  -10.1890   14.6270 C   0  0  0  0  0  0
  -18.4880   -9.5830   15.9220 C   0  0  0  0  0  0
  -17.4560   -9.6400   17.0490 C   0  0  0  0  0  0
  -17.8870   -8.8860   18.2570 N   0  3  0  0  0  0
  -16.7490   -8.8940   19.1920 C   0  0  0  0  0  0
  -19.0400   -9.5250   18.9030 C   0  0  0  0  0  0
  -21.2530  -10.9230   12.7140 C   0  0  0  0  0  0
  -21.8900   -9.8600   12.6180 O   0  0  0  0  0  0
  -21.5000  -11.9790   11.9450 N   0  0  0  0  0  0
  -22.5410  -11.9780   10.9130 C   0  0  2  0  0  0
  -23.8930  -12.4000   11.5250 C   0  0  0  0  0  0
  -24.9480  -12.1510   10.9380 O   0  0  0  0  0  0
  -22.1280  -12.8880    9.7340 C   0  0  0  0  0  0
  -23.0190  -12.8010    8.4560 C   0  0  0  0  0  0
  -22.4990  -13.6340    7.2580 C   0  0  0  0  0  0
  -23.1570  -14.5880    6.8100 O   0  0  0  0  0  0
  -21.3240  -13.2770    6.7420 N   0  0  0  0  0  0
  -23.8510  -13.0220   12.7030 N   0  0  0  0  0  0
  -25.0590  -13.4800   13.4150 C   0  0  2  0  0  0
  -26.0260  -12.3200   13.6560 C   0  0  0  0  0  0
  -25.6070  -11.2650   14.1180 O   0  0  0  0  0  0
  -24.6870  -14.1570   14.7620 C   0  0  2  0  0  0
  -23.9130  -15.3270   14.5040 O   0  0  0  0  0  0
  -25.9320  -14.5610   15.5470 C   0  0  0  0  0  0
  -27.3070  -12.5180   13.3320 N   0  0  0  0  0  0
  -28.3090  -11.4420   13.3800 C   0  0  2  0  0  0
  -28.5080  -10.8640   14.7840 C   0  0  0  0  0  0
  -28.5970  -11.6090   15.7680 O   0  0  0  0  0  0
  -29.6470  -11.9250   12.8010 C   0  0  0  0  0  0
  -28.5830   -9.6410   14.9600 O   0  5  0  0  0  0
  -24.1947  -20.9251   15.0230 H   0  0  0  0  0  0
  -23.1933  -22.3152   14.4831 H   0  0  0  0  0  0
  -23.2330  -20.8055   13.5105 H   0  0  0  0  0  0
  -22.1436  -21.1484   16.3046 H   0  0  0  0  0  0
  -20.7358  -22.1694   14.5522 H   0  0  0  0  0  0
  -19.9493  -20.7232   15.2711 H   0  0  0  0  0  0
  -20.7246  -20.6135   13.6544 H   0  0  0  0  0  0
  -22.5423   -9.9661   20.5300 H   0  0  0  0  0  0
  -23.2806  -11.3087   19.5925 H   0  0  0  0  0  0
  -21.4935  -11.1462   19.6732 H   0  0  0  0  0  0
  -22.6287  -10.0754   22.4972 H   0  0  0  0  0  0
  -21.6533  -11.3462   23.3099 H   0  0  0  0  0  0
  -23.4399  -11.5081   23.2157 H   0  0  0  0  0  0
  -21.2967  -19.3651   17.3411 H   0  0  0  0  0  0
  -22.7182  -16.8962   16.4767 H   0  0  0  0  0  0
  -22.4206  -17.5609   18.8938 H   0  0  0  0  0  0
  -20.6479  -17.3289   18.7195 H   0  0  0  0  0  0
  -20.9021  -14.9739   18.2854 H   0  0  0  0  0  0
  -22.6750  -15.1376   18.0475 H   0  0  0  0  0  0
  -22.9315  -15.7842   20.4183 H   0  0  0  0  0  0
  -21.1591  -15.6140   20.6551 H   0  0  0  0  0  0
  -22.2134  -13.1917   19.2898 H   0  0  0  0  0  0
  -22.1508  -15.0132   22.4026 H   0  0  0  0  0  0
  -22.0884  -15.5332   15.0330 H   0  0  0  0  0  0
  -19.0959  -14.9285   15.0400 H   0  0  0  0  0  0
  -19.1606  -14.6193   12.4986 H   0  0  0  0  0  0
  -21.5519  -13.8487   12.3507 H   0  0  0  0  0  0
  -18.7079  -16.9157   13.3615 H   0  0  0  0  0  0
  -19.5614  -16.9160   11.7809 H   0  0  0  0  0  0
  -20.4695  -17.2600   13.2921 H   0  0  0  0  0  0
  -18.7462  -12.7833   13.5144 H   0  0  0  0  0  0
  -20.6122  -10.8180   14.7089 H   0  0  0  0  0  0
  -18.4374  -10.4654   12.5596 H   0  0  0  0  0  0
  -19.3032   -9.1136   13.3655 H   0  0  0  0  0  0
  -17.6702  -11.2331   14.8374 H   0  0  0  0  0  0
  -17.0450   -9.6225   14.3459 H   0  0  0  0  0  0
  -18.7553   -8.5299   15.7501 H   0  0  0  0  0  0
  -19.3808  -10.1404   16.2415 H   0  0  0  0  0  0
  -17.2931  -10.6870   17.3443 H   0  0  0  0  0  0
  -16.5075   -9.2057   16.7000 H   0  0  0  0  0  0
  -18.1904   -7.8643   17.9850 H   0  0  0  0  0  0
  -15.8799   -8.4167   18.7158 H   0  0  0  0  0  0
  -16.4985   -9.9321   19.4558 H   0  0  0  0  0  0
  -17.0188   -8.3392   20.1027 H   0  0  0  0  0  0
  -19.8953   -9.5234   18.2112 H   0  0  0  0  0  0
  -19.3045   -8.9687   19.8144 H   0  0  0  0  0  0
  -18.7842  -10.5616   19.1674 H   0  0  0  0  0  0
  -20.8870  -12.8779   12.1070 H   0  0  0  0  0  0
  -22.6203  -10.9421   10.5516 H   0  0  0  0  0  0
  -21.1079  -12.6310    9.4124 H   0  0  0  0  0  0
  -22.1573  -13.9398   10.0548 H   0  0  0  0  0  0
  -24.0298  -13.1677    8.6881 H   0  0  0  0  0  0
  -23.0766  -11.7553    8.1197 H   0  0  0  0  0  0
  -20.7722  -12.4259    7.1676 H   0  0  0  0  0  0
  -20.9055  -13.8333    5.8903 H   0  0  0  0  0  0
  -22.8567  -13.1892   13.1429 H   0  0  0  0  0  0
  -25.5324  -14.2067   12.7385 H   0  0  0  0  0  0
  -24.0601  -13.4899   15.3718 H   0  0  0  0  0  0
  -22.9685  -15.2495   13.9455 H   0  0  0  0  0  0
  -26.5405  -13.6684   15.7542 H   0  0  0  0  0  0
  -25.6313  -15.0283   16.4963 H   0  0  0  0  0  0
  -26.5215  -15.2775   14.9562 H   0  0  0  0  0  0
  -27.6021  -13.5309   13.0205 H   0  0  0  0  0  0
  -27.8766  -10.6491   12.7520 H   0  0  0  0  0  0
  -29.4836  -12.3361   11.7939 H   0  0  0  0  0  0
  -30.3479  -11.0792   12.7426 H   0  0  0  0  0  0
  -30.0677  -12.7056   13.4519 H   0  0  0  0  0  0
  -22.3271  -13.4341   23.4541 H   0  0  0  0  0  0
  1  2  1  0  0  0
  1 59  1  0  0  0
  1 60  1  0  0  0
  1 61  1  0  0  0
  2  3  1  0  0  0
  2  5  1  0  0  0
  2 62  1  0  0  0
  3  4  2  0  0  0
  3  8  1  0  0  0
  5 63  1  0  0  0
  5 64  1  0  0  0
  5 65  1  0  0  0
  6 16  1  0  0  0
  6 66  1  0  0  0
  6 67  1  0  0  0
  6 68  1  0  0  0
  7 16  1  0  0  0
  7 69  1  0  0  0
  7 70  1  0  0  0
  7 71  1  0  0  0
  8  9  1  0  0  0
  8 72  1  0  0  0
  9 10  1  0  0  0
  9 17  1  0  0  0
  9 73  1  0  0  0
 10 11  1  0  0  0
 10 74  1  0  0  0
 10 75  1  0  0  0
 11 12  1  0  0  0
 11 76  1  0  0  0
 11 77  1  0  0  0
 12 13  1  0  0  0
 12 78  1  0  0  0
 12 79  1  0  0  0
 13 14  1  0  0  0
 13 80  1  0  0  0
 14 15  2  0  0  0
 14 16  1  0  0  0
 15 81  1  0  0  0
 15126  1  0  0  0
 17 18  2  0  0  0
 17 19  1  0  0  0
 19 20  1  0  0  0
 19 82  1  0  0  0
 20 21  1  0  0  0
 20 23  1  0  0  0
 20 83  1  0  0  0
 21 22  2  0  0  0
 21 26  1  0  0  0
 23 24  1  0  0  0
 23 25  1  0  0  0
 23 84  1  0  0  0
 24 85  1  0  0  0
 25 86  1  0  0  0
 25 87  1  0  0  0
 25 88  1  0  0  0
 26 27  1  0  0  0
 26 89  1  0  0  0
 27 28  1  0  0  0
 27 35  1  0  0  0
 27 90  1  0  0  0
 28 29  1  0  0  0
 28 91  1  0  0  0
 28 92  1  0  0  0
 29 30  1  0  0  0
 29 93  1  0  0  0
 29 94  1  0  0  0
 30 31  1  0  0  0
 30 95  1  0  0  0
 30 96  1  0  0  0
 31 32  1  0  0  0
 31 97  1  0  0  0
 31 98  1  0  0  0
 32 33  1  0  0  0
 32 34  1  0  0  0
 32 99  1  0  0  0
 33100  1  0  0  0
 33101  1  0  0  0
 33102  1  0  0  0
 34103  1  0  0  0
 34104  1  0  0  0
 34105  1  0  0  0
 35 36  2  0  0  0
 35 37  1  0  0  0
 37 38  1  0  0  0
 37106  1  0  0  0
 38 39  1  0  0  0
 38 41  1  0  0  0
 38107  1  0  0  0
 39 40  2  0  0  0
 39 46  1  0  0  0
 41 42  1  0  0  0
 41108  1  0  0  0
 41109  1  0  0  0
 42 43  1  0  0  0
 42110  1  0  0  0
 42111  1  0  0  0
 43 44  2  0  0  0
 43 45  1  0  0  0
 45112  1  0  0  0
 45113  1  0  0  0
 46 47  1  0  0  0
 46114  1  0  0  0
 47 48  1  0  0  0
 47 50  1  0  0  0
 47115  1  0  0  0
 48 49  2  0  0  0
 48 53  1  0  0  0
 50 51  1  0  0  0
 50 52  1  0  0  0
 50116  1  0  0  0
 51117  1  0  0  0
 52118  1  0  0  0
 52119  1  0  0  0
 52120  1  0  0  0
 53 54  1  0  0  0
 53121  1  0  0  0
 54 55  1  0  0  0
 54 57  1  0  0  0
 54122  1  0  0  0
 55 56  2  0  0  0
 55 58  1  0  0  0
 57123  1  0  0  0
 57124  1  0  0  0
 57125  1  0  0  0
M  CHG  4   1   1  15   1  32   1  58  -1
M  END
> <s_m_source_file>
../2vpg_ligand.sdf

> <i_m_source_file_index>
1

> <s_epik_input>
W0NIM11OKFtDSDNdKUMoPU5cW0hdKVxbTkhdW0NIMl1bQ0gyXVtDSDJdW0NASF0oW05IXUMoPU8pW0NAQEhdKFtOSDMrXSlbQ0gzXSlDKD1PKVtOSF1bQ0BASF0oW0NASF0oW09IXSlbQ0gzXSlDKD1PKVtOSF1bQ0BASF0oW0NIMl1bQ0gyXVtDSDJdW0NIMl1bTkgrXShbQ0gzXSlbQ0gzXSlDKD1PKVtOSF1bQ0BASF0oW0NIMl1bQ0gyXUMoPU8pW05IMl0pQyg9TylbTkhdW0NAQEhdKFtDQEhdKFtPSF0pW0NIM10pQyg9TylbTkhdW0NAQEhdKFtDSDNdKUMoPU8pW09IXQ==

> <s_epik_cmdline>
J2VwaWtfYXBwJywgJy1pbWFlJywgJ2xpZ2FuZF9wcm8ubWFlJywgJy1vbWFlJywgJ2xpZ2FuZF9wcmVwLm1hZScsICctbXMnLCAnMScsICctcGgnLCAnNycsICctcGh0JywgJzAuNScsICctbnQn

> <r_epik_Ionization_Penalty>
  0.1268

> <r_epik_Ionization_Penalty_Charging>
  0.1268

> <r_epik_Ionization_Penalty_Neutral>
  0.0000

> <r_epik_State_Penalty>
  0.1145

> <r_epik_Charging_Adjusted_Penalty>
0.241378706014326

> <i_epik_Tot_Q>
2

> <i_epik_Tot_abs_Q>
4

> <s_epik_Chemistry_Notes>
This compound has an imine and may undergo hydrolysis.

$$$$
