2vpo_ligand
                    3D
 Schrodinger Suite 2020-3.
 21 21  0  0  1  0            999 V2000
   43.5300   29.8500   33.4510 O   0  0  0  0  0  0
   43.6750   31.0110   33.8780 C   0  0  0  0  0  0
   44.0070   31.2240   35.0690 O   0  5  0  0  0  0
   43.5020   32.1680   32.9050 C   0  0  1  0  0  0
   42.8700   31.7640   31.6420 N   0  3  0  0  0  0
   42.1840   32.5680   30.9210 C   0  0  0  0  0  0
   41.5790   32.0840   29.6210 C   0  0  0  0  0  0
   41.9840   33.8400   31.2840 N   0  0  0  0  0  0
   42.4050   34.4470   32.5450 C   0  0  0  0  0  0
   42.6500   33.2880   33.5100 C   0  0  2  0  0  0
   43.2810   33.8230   34.6840 O   0  0  0  0  0  0
   44.5186   32.5100   32.6607 H   0  0  0  0  0  0
   41.8341   31.0247   29.4698 H   0  0  0  0  0  0
   41.9777   32.6799   28.7868 H   0  0  0  0  0  0
   40.4854   32.1956   29.6616 H   0  0  0  0  0  0
   41.4514   34.4432   30.5340 H   0  0  0  0  0  0
   43.3238   35.0297   32.3827 H   0  0  0  0  0  0
   41.6103   35.1112   32.9156 H   0  0  0  0  0  0
   41.6916   32.8436   33.8166 H   0  0  0  0  0  0
   43.5494   33.1560   35.5165 H   0  0  0  0  0  0
   43.0068   30.7200   31.3236 H   0  0  0  0  0  0
  1  2  2  0  0  0
  2  3  1  0  0  0
  2  4  1  0  0  0
  4  5  1  0  0  0
  4 10  1  0  0  0
  4 12  1  0  0  0
  5  6  2  0  0  0
  5 21  1  0  0  0
  6  7  1  0  0  0
  6  8  1  0  0  0
  7 13  1  0  0  0
  7 14  1  0  0  0
  7 15  1  0  0  0
  8  9  1  0  0  0
  8 16  1  0  0  0
  9 10  1  0  0  0
  9 17  1  0  0  0
  9 18  1  0  0  0
 10 11  1  0  0  0
 10 19  1  0  0  0
 11 20  1  0  0  0
M  CHG  2   3  -1   5   1
M  END
> <s_m_source_file>
../2vpo_ligand.sdf

> <i_m_source_file_index>
1

> <s_epik_input>
Tz1DKFtPSF0pW0NASF0xTj1DKFtDSDNdKVtOSF1bQ0gyXVtDQEBIXTFbT0hd

> <s_epik_cmdline>
J2VwaWtfYXBwJywgJy1pbWFlJywgJ2xpZ2FuZF9wcm8ubWFlJywgJy1vbWFlJywgJ2xpZ2FuZF9wcmVwLm1hZScsICctbXMnLCAnMScsICctcGgnLCAnNycsICctcGh0JywgJzAuNScsICctbnQn

> <r_lp_tautomer_probability>
1

> <r_epik_Ionization_Penalty>
  0.0001

> <r_epik_Ionization_Penalty_Charging>
  0.0001

> <r_epik_Ionization_Penalty_Neutral>
  0.0000

> <r_epik_State_Penalty>
 -0.0000

> <r_epik_Charging_Adjusted_Penalty>
5.20696879978772e-05

> <i_epik_Tot_Q>
0

> <i_epik_Tot_abs_Q>
2

> <s_epik_Chemistry_Notes>
This compound has an imine and may undergo hydrolysis.

$$$$
