2vqj_ligand
                    3D
 Schrodinger Suite 2020-3.
 45 48  0  0  1  0            999 V2000
   17.4590   74.0380   43.3590 C   0  0  0  0  0  0
   17.1750   74.2930   44.6940 C   0  0  0  0  0  0
   17.1960   75.5990   45.1830 C   0  0  0  0  0  0
   17.5070   76.6620   44.3370 C   0  0  0  0  0  0
   17.7910   76.4020   42.9980 C   0  0  0  0  0  0
   17.7600   75.0950   42.5000 C   0  0  0  0  0  0
   18.0830   74.8260   41.1680 C   0  0  0  0  0  0
   17.6760   73.8730   40.3310 C   0  0  0  0  0  0
   18.3120   74.0180   39.1600 N   0  0  0  0  0  0
   19.1490   75.0510   39.2300 C   0  0  0  0  0  0
   20.1030   75.6110   38.1580 C   0  0  0  0  0  0
   19.0310   75.5890   40.5150 N   0  0  0  0  0  0
   19.7830   76.7560   40.9870 C   0  0  0  0  0  0
   20.9710   76.9710   40.1040 C   0  0  0  0  0  0
   20.5870   76.8860   38.6760 N   0  0  0  0  0  0
   20.6840   78.0160   37.9880 C   0  0  0  0  0  0
   21.1230   78.9710   38.6340 O   0  0  0  0  0  0
   20.4730   78.2510   36.4970 C   0  0  0  0  0  0
   20.1870   79.7750   35.8800 S   0  0  0  0  0  0
   20.6420   77.4050   35.4750 C   0  0  0  0  0  0
   20.4860   77.9730   34.2490 C   0  0  0  0  0  0
   20.2200   79.2970   34.2650 C   0  0  0  0  0  0
   20.0180   80.2860   33.0780 C   0  0  0  0  0  0
   19.6110   79.6320   31.7570 C   0  0  0  0  0  0
   20.4430   78.6420   31.4460 F   0  0  0  0  0  0
   18.3690   79.2160   31.8450 F   0  0  0  0  0  0
   19.6670   80.5430   30.8120 F   0  0  0  0  0  0
   19.0660   81.3140   33.4170 O   0  0  0  0  0  0
   21.2750   80.9910   32.8330 O   0  0  0  0  0  0
   17.4468   73.0149   42.9833 H   0  0  0  0  0  0
   16.9342   73.4675   45.3639 H   0  0  0  0  0  0
   16.9681   75.7892   46.2318 H   0  0  0  0  0  0
   17.5278   77.6831   44.7178 H   0  0  0  0  0  0
   18.0403   77.2268   42.3304 H   0  0  0  0  0  0
   16.9434   73.0995   40.5613 H   0  0  0  0  0  0
   20.9323   74.9057   38.0007 H   0  0  0  0  0  0
   19.5544   75.7481   37.2145 H   0  0  0  0  0  0
   19.1366   77.6455   40.9566 H   0  0  0  0  0  0
   20.1193   76.5823   42.0198 H   0  0  0  0  0  0
   21.3967   77.9665   40.2981 H   0  0  0  0  0  0
   21.7281   76.2012   40.3141 H   0  0  0  0  0  0
   20.8839   76.3511   35.6127 H   0  0  0  0  0  0
   20.5693   77.4028   33.3238 H   0  0  0  0  0  0
   18.0254   81.0445   33.6507 H   0  0  0  0  0  0
   22.1765   80.4266   32.5522 H   0  0  0  0  0  0
  1  2  2  0  0  0
  1  6  1  0  0  0
  1 30  1  0  0  0
  2  3  1  0  0  0
  2 31  1  0  0  0
  3  4  2  0  0  0
  3 32  1  0  0  0
  4  5  1  0  0  0
  4 33  1  0  0  0
  5  6  2  0  0  0
  5 34  1  0  0  0
  6  7  1  0  0  0
  7  8  2  0  0  0
  7 12  1  0  0  0
  8  9  1  0  0  0
  8 35  1  0  0  0
  9 10  2  0  0  0
 10 11  1  0  0  0
 10 12  1  0  0  0
 11 15  1  0  0  0
 11 36  1  0  0  0
 11 37  1  0  0  0
 12 13  1  0  0  0
 13 14  1  0  0  0
 13 38  1  0  0  0
 13 39  1  0  0  0
 14 15  1  0  0  0
 14 40  1  0  0  0
 14 41  1  0  0  0
 15 16  1  0  0  0
 16 17  2  0  0  0
 16 18  1  0  0  0
 18 19  1  0  0  0
 18 20  2  0  0  0
 19 22  1  0  0  0
 20 21  1  0  0  0
 20 42  1  0  0  0
 21 22  2  0  0  0
 21 43  1  0  0  0
 22 23  1  0  0  0
 23 24  1  0  0  0
 23 28  1  0  0  0
 23 29  1  0  0  0
 24 25  1  0  0  0
 24 26  1  0  0  0
 24 27  1  0  0  0
 28 44  1  0  0  0
 29 45  1  0  0  0
M  END
> <s_m_source_file>
../2vqj_ligand.sdf

> <i_m_source_file_index>
1

> <s_epik_input>
W2NIXTFbY0hdW2NIXVtjSF1bY0hdYzEtYyhbY0hdbjIpbihjMjMpW0NIMl1bQ0gyXU4oW0NIMl0zKUMoPU8pYzRzYyhbY0hdW2NIXTQpQyhDKEYpKEYpRikoW09IXSlbT0hd

> <s_epik_cmdline>
J2VwaWtfYXBwJywgJy1pbWFlJywgJ2xpZ2FuZF9wcm8ubWFlJywgJy1vbWFlJywgJ2xpZ2FuZF9wcmVwLm1hZScsICctbXMnLCAnMScsICctcGgnLCAnNycsICctcGh0JywgJzAuNScsICctbnQn

> <r_lp_tautomer_probability>
1

> <r_epik_Ionization_Penalty>
  0.3009

> <r_epik_Ionization_Penalty_Charging>
  0.2558

> <r_epik_Ionization_Penalty_Neutral>
  0.0451

> <r_epik_State_Penalty>
  0.2473

> <r_epik_Charging_Adjusted_Penalty>
0.503078616759537

> <i_epik_Tot_Q>
0

> <i_epik_Tot_abs_Q>
0

$$$$
