2vqm_ligand
                    3D
 Schrodinger Suite 2020-3.
 42 45  0  0  1  0            999 V2000
   17.3680   -5.0840   -9.3040 C   0  0  0  0  0  0
   17.0230   -5.2880  -10.6380 C   0  0  0  0  0  0
   17.0750   -6.5700  -11.1940 C   0  0  0  0  0  0
   17.4880   -7.6460  -10.4020 C   0  0  0  0  0  0
   17.8380   -7.4380   -9.0710 C   0  0  0  0  0  0
   17.7780   -6.1520   -8.5000 C   0  0  0  0  0  0
   18.1470   -5.9070   -7.1670 C   0  0  0  0  0  0
   17.7870   -4.9090   -6.3450 C   0  0  0  0  0  0
   18.4090   -5.0470   -5.1610 N   0  0  0  0  0  0
   19.1990   -6.1210   -5.1680 C   0  0  0  0  0  0
   20.1230   -6.6990   -4.0480 C   0  0  0  0  0  0
   19.0580   -6.7030   -6.4590 N   0  0  0  0  0  0
   19.7760   -7.9120   -6.8620 C   0  0  0  0  0  0
   21.0040   -8.0170   -6.0080 C   0  0  0  0  0  0
   20.6060   -7.9870   -4.5940 N   0  0  0  0  0  0
   20.6270   -9.1590   -3.9700 C   0  0  0  0  0  0
   21.0230  -10.1520   -4.6000 O   0  0  0  0  0  0
   20.3530   -9.3820   -2.5220 C   0  0  0  0  0  0
   19.8070  -10.8420   -1.9240 S   0  0  0  0  0  0
   20.6990   -8.5630   -1.5270 C   0  0  0  0  0  0
   20.4490   -9.0700   -0.3000 C   0  0  0  0  0  0
   19.9460  -10.3070   -0.3350 C   0  0  0  0  0  0
   19.5660  -11.1530    0.8670 C   0  0  0  0  0  0
   19.3640  -12.3580    0.7130 O   0  0  0  0  0  0
   19.5020  -10.5070    2.0410 N   0  0  0  0  0  0
   19.1660  -11.2050    3.1600 O   0  0  0  0  0  0
   17.3178   -4.0803   -8.8820 H   0  0  0  0  0  0
   16.7107   -4.4434  -11.2521 H   0  0  0  0  0  0
   16.7961   -6.7292  -12.2356 H   0  0  0  0  0  0
   17.5359   -8.6484  -10.8274 H   0  0  0  0  0  0
   18.1629   -8.2818   -8.4624 H   0  0  0  0  0  0
   17.0942   -4.1068   -6.5992 H   0  0  0  0  0  0
   20.9495   -5.9987   -3.8569 H   0  0  0  0  0  0
   19.5391   -6.8374   -3.1261 H   0  0  0  0  0  0
   19.1294   -8.7893   -6.7128 H   0  0  0  0  0  0
   20.0531   -7.8371   -7.9239 H   0  0  0  0  0  0
   21.5236   -8.9614   -6.2275 H   0  0  0  0  0  0
   21.6737   -7.1714   -6.2233 H   0  0  0  0  0  0
   21.1408   -7.5797   -1.6886 H   0  0  0  0  0  0
   20.6385   -8.5250    0.6247 H   0  0  0  0  0  0
   19.7160   -9.4301    2.1081 H   0  0  0  0  0  0
   19.1085  -10.6923    4.1315 H   0  0  0  0  0  0
  1  2  2  0  0  0
  1  6  1  0  0  0
  1 27  1  0  0  0
  2  3  1  0  0  0
  2 28  1  0  0  0
  3  4  2  0  0  0
  3 29  1  0  0  0
  4  5  1  0  0  0
  4 30  1  0  0  0
  5  6  2  0  0  0
  5 31  1  0  0  0
  6  7  1  0  0  0
  7  8  2  0  0  0
  7 12  1  0  0  0
  8  9  1  0  0  0
  8 32  1  0  0  0
  9 10  2  0  0  0
 10 11  1  0  0  0
 10 12  1  0  0  0
 11 15  1  0  0  0
 11 33  1  0  0  0
 11 34  1  0  0  0
 12 13  1  0  0  0
 13 14  1  0  0  0
 13 35  1  0  0  0
 13 36  1  0  0  0
 14 15  1  0  0  0
 14 37  1  0  0  0
 14 38  1  0  0  0
 15 16  1  0  0  0
 16 17  2  0  0  0
 16 18  1  0  0  0
 18 19  1  0  0  0
 18 20  2  0  0  0
 19 22  1  0  0  0
 20 21  1  0  0  0
 20 39  1  0  0  0
 21 22  2  0  0  0
 21 40  1  0  0  0
 22 23  1  0  0  0
 23 24  2  0  0  0
 23 25  1  0  0  0
 25 26  1  0  0  0
 25 41  1  0  0  0
 26 42  1  0  0  0
M  END
> <s_m_source_file>
../2vqm_ligand.sdf

> <i_m_source_file_index>
1

> <s_epik_input>
W2NIXTFbY0hdW2NIXVtjSF1bY0hdYzEtYyhbY0hdbjIpbihjMjMpW0NIMl1bQ0gyXU4oW0NIMl0zKUMoPU8pYzRzYyhbY0hdW2NIXTQpQyg9TylbTkhdW09IXQ==

> <s_epik_cmdline>
J2VwaWtfYXBwJywgJy1pbWFlJywgJ2xpZ2FuZF9wcm8ubWFlJywgJy1vbWFlJywgJ2xpZ2FuZF9wcmVwLm1hZScsICctbXMnLCAnMScsICctcGgnLCAnNycsICctcGh0JywgJzAuNScsICctbnQn

> <r_lp_tautomer_probability>
1

> <r_epik_Ionization_Penalty>
  0.2905

> <r_epik_Ionization_Penalty_Charging>
  0.2558

> <r_epik_Ionization_Penalty_Neutral>
  0.0347

> <r_epik_State_Penalty>
  0.2473

> <r_epik_Charging_Adjusted_Penalty>
0.503078616759537

> <i_epik_Tot_Q>
0

> <i_epik_Tot_abs_Q>
0

> <s_epik_Chemistry_Notes>
This compound has a N-S or N-O group and may undergo hydrolysis at high or low pH.

$$$$
