2vr0_ligand
                    3D
 Schrodinger Suite 2020-3.
 39 40  0  0  1  0            999 V2000
   38.1030    5.1430  -13.4720 C   0  0  0  0  0  0
   38.8430    6.2990  -13.5190 O   0  0  0  0  0  0
   38.3740    4.0680  -14.3300 C   0  0  0  0  0  0
   37.6170    2.8820  -14.2810 C   0  0  0  0  0  0
   36.6020    2.7420  -13.3940 N   0  0  0  0  0  0
   35.9510    1.6840  -13.3700 O   0  5  0  0  0  0
   36.2630    3.7910  -12.4860 C   0  0  0  0  0  0
   35.2100    3.6440  -11.5760 C   0  0  0  0  0  0
   34.8810    4.6750  -10.6930 C   0  0  0  0  0  0
   35.5950    5.8710  -10.7090 C   0  0  0  0  0  0
   36.6450    6.0250  -11.6150 C   0  0  0  0  0  0
   36.9810    4.9920  -12.4960 C   0  0  0  0  0  0
   37.9560    1.7500  -15.2470 C   0  0  0  0  0  0
   37.8000    1.1400  -17.7430 C   0  0  0  0  0  0
   37.1630    1.8770  -16.5620 C   0  0  0  0  0  0
   36.7740    0.4090  -18.6220 C   0  0  0  0  0  0
   36.6860   -1.0890  -18.2950 C   0  0  0  0  0  0
   36.3950   -1.9900  -19.5030 C   0  0  0  0  0  0
   37.2390   -3.2590  -19.5240 C   0  0  0  0  0  0
   39.1879    4.1522  -15.0502 H   0  0  0  0  0  0
   34.6404    2.7149  -11.5561 H   0  0  0  0  0  0
   34.0608    4.5430   -9.9873 H   0  0  0  0  0  0
   35.3366    6.6769  -10.0220 H   0  0  0  0  0  0
   37.2080    6.9581  -11.6363 H   0  0  0  0  0  0
   39.0300    1.7786  -15.4829 H   0  0  0  0  0  0
   37.7083    0.7845  -14.7818 H   0  0  0  0  0  0
   38.3318    1.8609  -18.3814 H   0  0  0  0  0  0
   38.5108    0.3895  -17.3666 H   0  0  0  0  0  0
   36.1544    1.4604  -16.4236 H   0  0  0  0  0  0
   37.0862    2.9377  -16.8429 H   0  0  0  0  0  0
   35.7782    0.8499  -18.4671 H   0  0  0  0  0  0
   37.0591    0.5099  -19.6796 H   0  0  0  0  0  0
   37.6411   -1.4276  -17.8671 H   0  0  0  0  0  0
   35.8779   -1.2588  -17.5682 H   0  0  0  0  0  0
   35.3382   -2.2947  -19.4870 H   0  0  0  0  0  0
   36.6033   -1.4376  -20.4311 H   0  0  0  0  0  0
   36.9814   -3.8560  -20.4113 H   0  0  0  0  0  0
   37.0397   -3.8469  -18.6159 H   0  0  0  0  0  0
   38.3049   -2.9898  -19.5600 H   0  0  0  0  0  0
  1  2  2  0  0  0
  1  3  1  0  0  0
  1 12  1  0  0  0
  3  4  2  0  0  0
  3 20  1  0  0  0
  4  5  1  0  0  0
  4 13  1  0  0  0
  5  6  1  0  0  0
  5  7  1  0  0  0
  7  8  2  0  0  0
  7 12  1  0  0  0
  8  9  1  0  0  0
  8 21  1  0  0  0
  9 10  2  0  0  0
  9 22  1  0  0  0
 10 11  1  0  0  0
 10 23  1  0  0  0
 11 12  2  0  0  0
 11 24  1  0  0  0
 13 15  1  0  0  0
 13 25  1  0  0  0
 13 26  1  0  0  0
 14 15  1  0  0  0
 14 16  1  0  0  0
 14 27  1  0  0  0
 14 28  1  0  0  0
 15 29  1  0  0  0
 15 30  1  0  0  0
 16 17  1  0  0  0
 16 31  1  0  0  0
 16 32  1  0  0  0
 17 18  1  0  0  0
 17 33  1  0  0  0
 17 34  1  0  0  0
 18 19  1  0  0  0
 18 35  1  0  0  0
 18 36  1  0  0  0
 19 37  1  0  0  0
 19 38  1  0  0  0
 19 39  1  0  0  0
M  CHG  1   6  -1
M  END
> <s_m_source_file>
../2vr0_ligand.sdf

> <i_m_source_file_index>
1

> <s_epik_input>
W2NIXTFbY0hdW2NIXVtjSF1jKGMxMiljKFtPSF0pW2NIXWMoW24rXTJbTy1dKVtDSDJdW0NIMl1bQ0gyXVtDSDJdW0NIMl1bQ0gyXVtDSDNd

> <s_epik_cmdline>
J2VwaWtfYXBwJywgJy1pbWFlJywgJ2xpZ2FuZF9wcm8ubWFlJywgJy1vbWFlJywgJ2xpZ2FuZF9wcmVwLm1hZScsICctbXMnLCAnMScsICctcGgnLCAnNycsICctcGh0JywgJzAuNScsICctbnQn

> <r_lp_tautomer_probability>
1

> <r_epik_Ionization_Penalty>
  0.0000

> <r_epik_Ionization_Penalty_Charging>
  0.0000

> <r_epik_Ionization_Penalty_Neutral>
  0.0000

> <r_epik_State_Penalty>
 -0.0000

> <r_epik_Charging_Adjusted_Penalty>
1.72979574443072e-06

> <i_epik_Tot_Q>
-1

> <i_epik_Tot_abs_Q>
1

$$$$
