2vr3_ligand
                    3D
 Schrodinger Suite 2020-3.
145144  0  0  1  0            999 V2000
   45.4640   43.1780   44.1950 N   0  3  0  0  0  0
   44.6350   43.5280   43.0020 C   0  0  0  0  0  0
   45.3760   43.2500   41.7090 C   0  0  0  0  0  0
   46.5270   43.6440   41.5560 O   0  0  0  0  0  0
   44.7150   42.5500   40.7900 N   0  0  0  0  0  0
   45.3040   42.1890   39.4940 C   0  0  2  0  0  0
   44.2480   42.1620   38.3830 C   0  0  0  0  0  0
   43.0320   42.2220   38.6580 O   0  0  0  0  0  0
   46.0130   40.8380   39.5870 C   0  0  0  0  0  0
   44.7060   42.0610   37.1370 N   0  0  0  0  0  0
   43.8500   42.2790   35.9510 C   0  0  2  0  0  0
   44.1730   41.4890   34.6790 C   0  0  0  0  0  0
   45.2660   41.6080   34.1490 O   0  0  0  0  0  0
   43.8140   43.7640   35.6030 C   0  0  0  0  0  0
   42.9200   44.1940   34.4370 C   0  0  0  0  0  0
   41.4170   43.8650   34.6720 C   0  0  0  0  0  0
   43.1170   45.6730   34.2670 C   0  0  0  0  0  0
   43.2000   40.7230   34.1770 N   0  0  0  0  0  0
   43.2530   40.1630   32.8130 C   0  0  0  0  0  0
   42.0970   40.6430   31.9380 C   0  0  0  0  0  0
   41.3890   41.5720   32.2900 O   0  0  0  0  0  0
   41.8780   40.0050   30.7970 N   0  0  0  0  0  0
   40.7720   40.4210   29.9480 C   0  0  0  0  0  0
   40.5650   39.4690   28.8110 C   0  0  0  0  0  0
   41.4680   38.7130   28.4710 O   0  0  0  0  0  0
   39.3690   39.5190   28.2220 N   0  0  0  0  0  0
   39.1120   38.9900   26.9070 C   0  0  2  0  0  0
   38.5640   40.0400   25.9350 C   0  0  0  0  0  0
   37.9630   41.0750   26.3190 O   0  0  0  0  0  0
   38.1620   37.8040   26.9960 C   0  0  0  0  0  0
   38.7740   39.7740   24.6560 N   0  0  0  0  0  0
   38.1120   40.5460   23.6130 C   0  0  2  0  0  0
   37.4430   39.5850   22.6180 C   0  0  0  0  0  0
   37.9880   38.5460   22.2670 O   0  0  0  0  0  0
   39.1010   41.4900   22.9310 C   0  0  0  0  0  0
   38.4530   42.6510   22.1640 C   0  0  0  0  0  0
   39.4920   43.6060   21.5640 C   0  0  0  0  0  0
   39.7360   44.8640   22.4120 C   0  0  0  0  0  0
   38.9500   46.0940   21.9700 N   0  3  0  0  0  0
   36.2550   39.9410   22.1530 N   0  0  0  0  0  0
   35.5090   39.0590   21.2830 C   0  0  2  0  0  0
   35.0260   39.8080   20.0640 C   0  0  0  0  0  0
   34.7220   40.9790   20.1590 O   0  0  0  0  0  0
   34.2980   38.4990   22.0180 C   0  0  0  0  0  0
   34.6310   37.5710   23.1890 C   0  0  0  0  0  0
   33.3880   37.2910   24.0330 C   0  0  0  0  0  0
   33.1730   37.9370   25.0390 O   0  0  0  0  0  0
   32.5850   36.3200   23.6280 N   0  0  0  0  0  0
   34.9410   39.0940   18.9430 N   0  0  0  0  0  0
   34.6790   39.6290   17.6390 C   0  0  2  0  0  0
   33.2990   39.2200   17.2700 C   0  0  0  0  0  0
   32.8260   38.2090   17.7680 O   0  0  0  0  0  0
   35.6220   39.0670   16.6300 C   0  0  0  0  0  0
   32.7020   39.9600   16.3480 N   0  0  0  0  0  0
   31.2850   39.7760   15.9660 C   0  0  0  0  0  0
   30.9540   40.6130   14.7780 C   0  0  0  0  0  0
   31.7600   41.4580   14.3460 O   0  0  0  0  0  0
   29.7380   40.4100   14.2800 N   0  0  0  0  0  0
   29.3400   40.8950   12.9890 C   0  0  2  0  0  0
   28.9080   42.3150   13.2710 C   0  0  0  0  0  0
   28.5050   42.6050   14.3760 O   0  0  0  0  0  0
   28.1330   40.0110   12.4600 C   0  0  0  0  0  0
   29.0540   43.2250   12.3180 N   0  0  0  0  0  0
   28.6510   44.6110   12.5870 C   0  0  2  0  0  0
   27.1710   44.6170   12.8350 C   0  0  0  0  0  0
   26.6580   45.3160   13.7010 O   0  5  0  0  0  0
   28.9500   45.5780   11.4110 C   0  0  0  0  0  0
   28.4410   46.9840   11.7400 C   0  0  0  0  0  0
   30.4270   45.6290   11.1250 C   0  0  0  0  0  0
   26.4710   43.9030   12.1500 O   0  0  0  0  0  0
   44.8956   43.3923   45.1121 H   0  0  0  0  0  0
   46.3875   43.7756   44.1878 H   0  0  0  0  0  0
   45.7191   42.1085   44.1632 H   0  0  0  0  0  0
   43.7115   42.9304   43.0092 H   0  0  0  0  0  0
   44.3799   44.5975   43.0338 H   0  0  0  0  0  0
   43.6878   42.2402   41.0327 H   0  0  0  0  0  0
   46.0343   42.9825   39.2771 H   0  0  0  0  0  0
   46.7665   40.8737   40.3876 H   0  0  0  0  0  0
   46.5060   40.6160   38.6291 H   0  0  0  0  0  0
   45.2767   40.0522   39.8113 H   0  0  0  0  0  0
   45.7679   41.8039   37.0091 H   0  0  0  0  0  0
   42.8920   41.8792   36.3148 H   0  0  0  0  0  0
   43.4548   44.3355   36.4715 H   0  0  0  0  0  0
   44.8256   44.1023   35.3344 H   0  0  0  0  0  0
   43.2253   43.6605   33.5248 H   0  0  0  0  0  0
   41.2942   42.7787   34.7939 H   0  0  0  0  0  0
   40.8276   44.2060   33.8081 H   0  0  0  0  0  0
   41.0671   44.3778   35.5801 H   0  0  0  0  0  0
   44.1839   45.8842   34.1023 H   0  0  0  0  0  0
   42.7754   46.1949   35.1731 H   0  0  0  0  0  0
   42.5360   46.0231   33.4011 H   0  0  0  0  0  0
   42.3350   40.5148   34.8238 H   0  0  0  0  0  0
   44.1928   40.4662   32.3284 H   0  0  0  0  0  0
   43.2049   39.0653   32.8652 H   0  0  0  0  0  0
   42.5228   39.1684   30.4897 H   0  0  0  0  0  0
   39.8475   40.4592   30.5428 H   0  0  0  0  0  0
   40.9828   41.4179   29.5334 H   0  0  0  0  0  0
   38.5569   39.9936   28.7923 H   0  0  0  0  0  0
   40.1073   38.6748   26.5605 H   0  0  0  0  0  0
   38.5689   37.0601   27.6967 H   0  0  0  0  0  0
   38.0504   37.3481   26.0011 H   0  0  0  0  0  0
   37.1802   38.1468   27.3545 H   0  0  0  0  0  0
   39.4592   38.9573   24.3848 H   0  0  0  0  0  0
   37.3460   41.1614   24.1075 H   0  0  0  0  0  0
   39.7618   41.9379   23.6878 H   0  0  0  0  0  0
   39.7047   40.9262   22.2046 H   0  0  0  0  0  0
   37.8430   42.2513   21.3405 H   0  0  0  0  0  0
   37.8134   43.2298   22.8466 H   0  0  0  0  0  0
   40.4557   43.0848   21.4661 H   0  0  0  0  0  0
   39.1534   43.9400   20.5721 H   0  0  0  0  0  0
   39.4516   44.6636   23.4555 H   0  0  0  0  0  0
   40.8012   45.1351   22.3678 H   0  0  0  0  0  0
   39.1886   46.9392   22.6324 H   0  0  0  0  0  0
   37.8725   45.8792   22.0233 H   0  0  0  0  0  0
   39.2220   46.3507   20.9355 H   0  0  0  0  0  0
   35.8367   40.9186   22.4348 H   0  0  0  0  0  0
   36.2129   38.2638   20.9964 H   0  0  0  0  0  0
   33.7032   39.3279   22.4294 H   0  0  0  0  0  0
   33.6808   37.9171   21.3177 H   0  0  0  0  0  0
   35.0181   36.6168   22.8021 H   0  0  0  0  0  0
   35.3924   38.0440   23.8267 H   0  0  0  0  0  0
   32.8182   35.7603   22.7102 H   0  0  0  0  0  0
   31.6844   36.0727   24.2092 H   0  0  0  0  0  0
   35.0901   38.0120   19.0738 H   0  0  0  0  0  0
   34.8058   40.7203   17.6926 H   0  0  0  0  0  0
   36.6508   39.3597   16.8867 H   0  0  0  0  0  0
   35.3677   39.4569   15.6334 H   0  0  0  0  0  0
   35.5431   37.9698   16.6256 H   0  0  0  0  0  0
   33.3067   40.7383   15.8596 H   0  0  0  0  0  0
   31.1058   38.7188   15.7204 H   0  0  0  0  0  0
   30.6377   40.0725   16.8045 H   0  0  0  0  0  0
   29.0252   39.8456   14.8992 H   0  0  0  0  0  0
   30.1813   40.8604   12.2812 H   0  0  0  0  0  0
   28.4856   38.9872   12.2665 H   0  0  0  0  0  0
   27.7406   40.4458   11.5289 H   0  0  0  0  0  0
   27.3361   39.9873   13.2179 H   0  0  0  0  0  0
   29.4704   42.9539   11.3366 H   0  0  0  0  0  0
   29.2268   44.9167   13.4730 H   0  0  0  0  0  0
   28.4509   45.2124   10.5015 H   0  0  0  0  0  0
   27.3617   46.9437   11.9485 H   0  0  0  0  0  0
   28.6245   47.6500   10.8840 H   0  0  0  0  0  0
   28.9711   47.3684   12.6239 H   0  0  0  0  0  0
   30.7899   44.6178   10.8890 H   0  0  0  0  0  0
   30.9585   46.0124   12.0085 H   0  0  0  0  0  0
   30.6119   46.2941   10.2686 H   0  0  0  0  0  0
  1  2  1  0  0  0
  1 71  1  0  0  0
  1 72  1  0  0  0
  1 73  1  0  0  0
  2  3  1  0  0  0
  2 74  1  0  0  0
  2 75  1  0  0  0
  3  4  2  0  0  0
  3  5  1  0  0  0
  5  6  1  0  0  0
  5 76  1  0  0  0
  6  7  1  0  0  0
  6  9  1  0  0  0
  6 77  1  0  0  0
  7  8  2  0  0  0
  7 10  1  0  0  0
  9 78  1  0  0  0
  9 79  1  0  0  0
  9 80  1  0  0  0
 10 11  1  0  0  0
 10 81  1  0  0  0
 11 12  1  0  0  0
 11 14  1  0  0  0
 11 82  1  0  0  0
 12 13  2  0  0  0
 12 18  1  0  0  0
 14 15  1  0  0  0
 14 83  1  0  0  0
 14 84  1  0  0  0
 15 16  1  0  0  0
 15 17  1  0  0  0
 15 85  1  0  0  0
 16 86  1  0  0  0
 16 87  1  0  0  0
 16 88  1  0  0  0
 17 89  1  0  0  0
 17 90  1  0  0  0
 17 91  1  0  0  0
 18 19  1  0  0  0
 18 92  1  0  0  0
 19 20  1  0  0  0
 19 93  1  0  0  0
 19 94  1  0  0  0
 20 21  2  0  0  0
 20 22  1  0  0  0
 22 23  1  0  0  0
 22 95  1  0  0  0
 23 24  1  0  0  0
 23 96  1  0  0  0
 23 97  1  0  0  0
 24 25  2  0  0  0
 24 26  1  0  0  0
 26 27  1  0  0  0
 26 98  1  0  0  0
 27 28  1  0  0  0
 27 30  1  0  0  0
 27 99  1  0  0  0
 28 29  2  0  0  0
 28 31  1  0  0  0
 30100  1  0  0  0
 30101  1  0  0  0
 30102  1  0  0  0
 31 32  1  0  0  0
 31103  1  0  0  0
 32 33  1  0  0  0
 32 35  1  0  0  0
 32104  1  0  0  0
 33 34  2  0  0  0
 33 40  1  0  0  0
 35 36  1  0  0  0
 35105  1  0  0  0
 35106  1  0  0  0
 36 37  1  0  0  0
 36107  1  0  0  0
 36108  1  0  0  0
 37 38  1  0  0  0
 37109  1  0  0  0
 37110  1  0  0  0
 38 39  1  0  0  0
 38111  1  0  0  0
 38112  1  0  0  0
 39113  1  0  0  0
 39114  1  0  0  0
 39115  1  0  0  0
 40 41  1  0  0  0
 40116  1  0  0  0
 41 42  1  0  0  0
 41 44  1  0  0  0
 41117  1  0  0  0
 42 43  2  0  0  0
 42 49  1  0  0  0
 44 45  1  0  0  0
 44118  1  0  0  0
 44119  1  0  0  0
 45 46  1  0  0  0
 45120  1  0  0  0
 45121  1  0  0  0
 46 47  2  0  0  0
 46 48  1  0  0  0
 48122  1  0  0  0
 48123  1  0  0  0
 49 50  1  0  0  0
 49124  1  0  0  0
 50 51  1  0  0  0
 50 53  1  0  0  0
 50125  1  0  0  0
 51 52  2  0  0  0
 51 54  1  0  0  0
 53126  1  0  0  0
 53127  1  0  0  0
 53128  1  0  0  0
 54 55  1  0  0  0
 54129  1  0  0  0
 55 56  1  0  0  0
 55130  1  0  0  0
 55131  1  0  0  0
 56 57  2  0  0  0
 56 58  1  0  0  0
 58 59  1  0  0  0
 58132  1  0  0  0
 59 60  1  0  0  0
 59 62  1  0  0  0
 59133  1  0  0  0
 60 61  2  0  0  0
 60 63  1  0  0  0
 62134  1  0  0  0
 62135  1  0  0  0
 62136  1  0  0  0
 63 64  1  0  0  0
 63137  1  0  0  0
 64 65  1  0  0  0
 64 67  1  0  0  0
 64138  1  0  0  0
 65 66  1  0  0  0
 65 70  2  0  0  0
 67 68  1  0  0  0
 67 69  1  0  0  0
 67139  1  0  0  0
 68140  1  0  0  0
 68141  1  0  0  0
 68142  1  0  0  0
 69143  1  0  0  0
 69144  1  0  0  0
 69145  1  0  0  0
M  CHG  3   1   1  39   1  66  -1
M  END
> <s_m_source_file>
../2vr3_ligand.sdf

> <i_m_source_file_index>
1

> <s_epik_input>
W05IMytdW0NIMl1DKD1PKVtOSF1bQ0BASF0oW0NIM10pQyg9TylbTkhdW0NAQEhdKFtDSDJdW0NIXShbQ0gzXSlbQ0gzXSlDKD1PKVtOSF1bQ0gyXUMoPU8pW05IXVtDSDJdQyg9TylbTkhdW0NAQEhdKFtDSDNdKUMoPU8pW05IXVtDQEBIXShbQ0gyXVtDSDJdW0NIMl1bQ0gyXVtOSDMrXSlDKD1PKVtOSF1bQ0BASF0oW0NIMl1bQ0gyXUMoPU8pW05IMl0pQyg9TylbTkhdW0NAQEhdKFtDSDNdKUMoPU8pW05IXVtDSDJdQyg9TylbTkhdW0NAQEhdKFtDSDNdKUMoPU8pW05IXVtDQEhdKEMoPU8pW09IXSlbQ0hdKFtDSDNdKVtDSDNd

> <s_epik_cmdline>
J2VwaWtfYXBwJywgJy1pbWFlJywgJ2xpZ2FuZF9wcm8ubWFlJywgJy1vbWFlJywgJ2xpZ2FuZF9wcmVwLm1hZScsICctbXMnLCAnMScsICctcGgnLCAnNycsICctcGh0JywgJzAuNScsICctbnQn

> <r_epik_Ionization_Penalty>
  0.1246

> <r_epik_Ionization_Penalty_Charging>
  0.1246

> <r_epik_Ionization_Penalty_Neutral>
  0.0000

> <r_epik_State_Penalty>
  0.1134

> <r_epik_Charging_Adjusted_Penalty>
0.238004372764387

> <i_epik_Tot_Q>
1

> <i_epik_Tot_abs_Q>
3

$$$$
