2vr4_ligand
                    3D
 Schrodinger Suite 2020-3.
 40 40  0  0  1  0            999 V2000
   29.5950   46.6310   -6.3240 C   0  0  0  0  0  0
   27.4400   45.8710   -0.5910 C   0  0  2  0  0  0
   27.8810   47.1310    0.2300 C   0  0  2  0  0  0
   27.5730   48.4660   -0.5100 C   0  0  1  0  0  0
   26.4470   48.2670   -1.5740 C   0  0  1  0  0  0
   26.0000   49.5260   -2.3360 C   0  0  0  0  0  0
   28.0900   44.6220   -0.3750 O   0  0  0  0  0  0
   29.2770   47.0030    0.4690 O   0  0  0  0  0  0
   27.2360   49.5130    0.4040 O   0  0  0  0  0  0
   26.8710   47.2740   -2.5080 N   0  3  0  0  0  0
   27.0450   49.9150   -3.2470 O   0  0  0  0  0  0
   31.8730   46.8640   -7.3280 N   0  3  0  0  0  0
   30.7030   47.5930   -6.8020 C   0  0  0  0  0  0
   28.3310   45.5570   -4.3910 C   0  0  0  0  0  0
   29.5140   46.4600   -4.8000 C   0  0  0  0  0  0
   28.1720   45.3870   -2.9500 N   0  0  0  0  0  0
   27.5150   46.1980   -2.1250 C   0  0  0  0  0  0
   28.6156   47.0057   -6.6563 H   0  0  0  0  0  0
   29.7686   45.6315   -6.7492 H   0  0  0  0  0  0
   26.4623   45.5876   -0.1742 H   0  0  0  0  0  0
   27.3978   47.1706    1.2174 H   0  0  0  0  0  0
   28.4901   48.8527   -0.9785 H   0  0  0  0  0  0
   25.5507   47.8891   -1.0604 H   0  0  0  0  0  0
   25.0796   49.3074   -2.8973 H   0  0  0  0  0  0
   25.8087   50.3392   -1.6204 H   0  0  0  0  0  0
   28.1519   44.2025    0.6400 H   0  0  0  0  0  0
   29.6674   46.1134    0.9849 H   0  0  0  0  0  0
   27.9284   49.7776    1.2167 H   0  0  0  0  0  0
   26.9150   50.7997   -3.8876 H   0  0  0  0  0  0
   32.6365   47.5844   -7.6567 H   0  0  0  0  0  0
   31.5643   46.2421   -8.1812 H   0  0  0  0  0  0
   32.2904   46.2220   -6.5383 H   0  0  0  0  0  0
   30.3093   48.2370   -7.6022 H   0  0  0  0  0  0
   31.0355   48.2170   -5.9593 H   0  0  0  0  0  0
   27.3924   45.9890   -4.7685 H   0  0  0  0  0  0
   28.4708   44.5533   -4.8188 H   0  0  0  0  0  0
   30.4438   46.0012   -4.4326 H   0  0  0  0  0  0
   29.3789   47.4440   -4.3273 H   0  0  0  0  0  0
   28.6206   44.5183   -2.4459 H   0  0  0  0  0  0
   26.6444   47.4294   -3.5731 H   0  0  0  0  0  0
  1 13  1  0  0  0
  1 15  1  0  0  0
  1 18  1  0  0  0
  1 19  1  0  0  0
  2  3  1  0  0  0
  2  7  1  0  0  0
  2 17  1  0  0  0
  2 20  1  0  0  0
  3  4  1  0  0  0
  3  8  1  0  0  0
  3 21  1  0  0  0
  4  5  1  0  0  0
  4  9  1  0  0  0
  4 22  1  0  0  0
  5  6  1  0  0  0
  5 10  1  0  0  0
  5 23  1  0  0  0
  6 11  1  0  0  0
  6 24  1  0  0  0
  6 25  1  0  0  0
  7 26  1  0  0  0
  8 27  1  0  0  0
  9 28  1  0  0  0
 10 17  2  0  0  0
 10 40  1  0  0  0
 11 29  1  0  0  0
 12 13  1  0  0  0
 12 30  1  0  0  0
 12 31  1  0  0  0
 12 32  1  0  0  0
 13 33  1  0  0  0
 13 34  1  0  0  0
 14 15  1  0  0  0
 14 16  1  0  0  0
 14 35  1  0  0  0
 14 36  1  0  0  0
 15 37  1  0  0  0
 15 38  1  0  0  0
 16 17  1  0  0  0
 16 39  1  0  0  0
M  CHG  2  10   1  12   1
M  END
> <s_m_source_file>
../2vr4_ligand.sdf

> <i_m_source_file_index>
1

> <s_epik_input>
W05IMytdW0NIMl1bQ0gyXVtDSDJdW0NIMl1bTkhdQzE9TltDQEhdKFtDSDJdW09IXSlbQ0BASF0oW09IXSlbQ0BIXShbT0hdKVtDQEBIXTFbT0hd

> <s_epik_cmdline>
J2VwaWtfYXBwJywgJy1pbWFlJywgJ2xpZ2FuZF9wcm8ubWFlJywgJy1vbWFlJywgJ2xpZ2FuZF9wcmVwLm1hZScsICctbXMnLCAnMScsICctcGgnLCAnNycsICctcGh0JywgJzAuNScsICctbnQn

> <r_lp_tautomer_probability>
1

> <r_epik_Ionization_Penalty>
  0.0010

> <r_epik_Ionization_Penalty_Charging>
  0.0010

> <r_epik_Ionization_Penalty_Neutral>
  0.0000

> <r_epik_State_Penalty>
 -0.0000

> <r_epik_Charging_Adjusted_Penalty>
0.00100693624529667

> <i_epik_Tot_Q>
2

> <i_epik_Tot_abs_Q>
2

> <s_epik_Chemistry_Notes>
This compound has an imine and may undergo hydrolysis.

$$$$
