2vrj_ligand
                    3D
 Schrodinger Suite 2020-3.
 50 51  0  0  1  0            999 V2000
    0.2420    7.8640   11.4280 S   0  0  0  0  0  0
   -0.6110    7.9650   10.0870 C   0  0  0  0  0  0
   -1.2620    9.0930    9.7300 N   0  0  0  0  0  0
   -2.0640    9.2390    8.5310 C   0  0  2  0  0  0
   -1.1450   10.0620    7.6440 C   0  0  1  0  0  0
   -1.9100   10.3860    6.4730 O   0  0  0  0  0  0
   -0.5970   11.3480    8.3160 C   0  0  2  0  0  0
    0.5910   11.8390    7.6950 O   0  0  0  0  0  0
   -0.2190   11.1670    9.7920 C   0  0  1  0  0  0
    0.0160   12.4530   10.4040 O   0  0  0  0  0  0
   -3.1740   10.1240    9.0590 C   0  0  0  0  0  0
   -2.6060   10.8130   10.1920 O   0  0  0  0  0  0
   -1.2890   10.3230   10.4910 C   0  0  1  0  0  0
   -0.6770    6.8830    9.3030 N   0  0  0  0  0  0
    0.3010    5.8010    9.3510 C   0  0  0  0  0  0
   -0.2490    4.5530    8.6730 C   0  0  0  0  0  0
   -0.8990    4.8970    7.3310 C   0  0  0  0  0  0
   -0.3780    4.0570    6.1870 C   0  0  0  0  0  0
    1.1570    4.2110    6.1560 C   0  0  0  0  0  0
    1.7700    2.9700    6.5910 C   0  0  0  0  0  0
    0.6890    1.8730    6.4360 C   0  0  0  0  0  0
    1.0310    0.7550    7.3610 C   0  0  0  0  0  0
   -2.4223    8.3230    8.0384 H   0  0  0  0  0  0
   -0.2744    9.4589    7.3467 H   0  0  0  0  0  0
   -2.3706    9.5839    5.8776 H   0  0  0  0  0  0
   -1.3844   12.1029    8.1744 H   0  0  0  0  0  0
    0.5978   12.0583    6.6171 H   0  0  0  0  0  0
    0.7524   10.6681    9.9241 H   0  0  0  0  0  0
    0.7657   13.1361    9.9781 H   0  0  0  0  0  0
   -3.4862   10.8283    8.2739 H   0  0  0  0  0  0
   -4.0309    9.5007    9.3543 H   0  0  0  0  0  0
   -1.1527   10.2586   11.5806 H   0  0  0  0  0  0
   -1.5193    6.8321    8.5974 H   0  0  0  0  0  0
    1.2194    6.1136    8.8324 H   0  0  0  0  0  0
    0.5345    5.5641   10.3995 H   0  0  0  0  0  0
    0.5705    3.8411    8.4950 H   0  0  0  0  0  0
   -1.0055    4.0867    9.3213 H   0  0  0  0  0  0
   -1.9848    4.7334    7.3969 H   0  0  0  0  0  0
   -0.7011    5.9513    7.0873 H   0  0  0  0  0  0
   -0.6545    3.0047    6.3492 H   0  0  0  0  0  0
   -0.8178    4.4103    5.2427 H   0  0  0  0  0  0
    1.4815    4.4435    5.1310 H   0  0  0  0  0  0
    1.4573    5.0270    6.8297 H   0  0  0  0  0  0
    2.6454    2.7531    5.9613 H   0  0  0  0  0  0
    2.0875    3.0657    7.6398 H   0  0  0  0  0  0
   -0.2961    2.2901    6.6922 H   0  0  0  0  0  0
    0.6763    1.5151    5.3959 H   0  0  0  0  0  0
    0.2762   -0.0400    7.2701 H   0  0  0  0  0  0
    1.0484    1.1276    8.3958 H   0  0  0  0  0  0
    2.0208    0.3525    7.0995 H   0  0  0  0  0  0
  1  2  2  0  0  0
  2  3  1  0  0  0
  2 14  1  0  0  0
  3  4  1  0  0  0
  3 13  1  0  0  0
  4  5  1  0  0  0
  4 11  1  0  0  0
  4 23  1  0  0  0
  5  6  1  0  0  0
  5  7  1  0  0  0
  5 24  1  0  0  0
  6 25  1  0  0  0
  7  8  1  0  0  0
  7  9  1  0  0  0
  7 26  1  0  0  0
  8 27  1  0  0  0
  9 10  1  0  0  0
  9 13  1  0  0  0
  9 28  1  0  0  0
 10 29  1  0  0  0
 11 12  1  0  0  0
 11 30  1  0  0  0
 11 31  1  0  0  0
 12 13  1  0  0  0
 13 32  1  0  0  0
 14 15  1  0  0  0
 14 33  1  0  0  0
 15 16  1  0  0  0
 15 34  1  0  0  0
 15 35  1  0  0  0
 16 17  1  0  0  0
 16 36  1  0  0  0
 16 37  1  0  0  0
 17 18  1  0  0  0
 17 38  1  0  0  0
 17 39  1  0  0  0
 18 19  1  0  0  0
 18 40  1  0  0  0
 18 41  1  0  0  0
 19 20  1  0  0  0
 19 42  1  0  0  0
 19 43  1  0  0  0
 20 21  1  0  0  0
 20 44  1  0  0  0
 20 45  1  0  0  0
 21 22  1  0  0  0
 21 46  1  0  0  0
 21 47  1  0  0  0
 22 48  1  0  0  0
 22 49  1  0  0  0
 22 50  1  0  0  0
M  END
> <s_m_source_file>
../2vrj_ligand.sdf

> <i_m_source_file_index>
1

> <s_epik_input>
W09IXVtDQEhdMVtDQEhdKFtPSF0pW0NAQEhdKFtPSF0pW0NAQEhdKE9bQ0gyXTIpTihbQ0BIXTEyKUMoPVMpW05IXVtDSDJdW0NIMl1bQ0gyXVtDSDJdW0NIMl1bQ0gyXVtDSDJdW0NIM10=

> <s_epik_cmdline>
J2VwaWtfYXBwJywgJy1pbWFlJywgJ2xpZ2FuZF9wcm8ubWFlJywgJy1vbWFlJywgJ2xpZ2FuZF9wcmVwLm1hZScsICctbXMnLCAnMScsICctcGgnLCAnNycsICctcGh0JywgJzAuNScsICctbnQn

> <r_lp_tautomer_probability>
1

> <r_epik_Ionization_Penalty>
  0.0000

> <r_epik_Ionization_Penalty_Charging>
  0.0000

> <r_epik_Ionization_Penalty_Neutral>
  0.0000

> <r_epik_State_Penalty>
 -0.0000

> <r_epik_Charging_Adjusted_Penalty>
0

> <i_epik_Tot_Q>
0

> <i_epik_Tot_abs_Q>
0

> <s_epik_Chemistry_Notes>
This compound contains an acetal/aminal-like group ( X-CH(R)-Y where X, Y are N, S, or O) that may be acid/base labile, releasing an aldehyde.

$$$$
