2vrx_ligand
                    3D
 Schrodinger Suite 2020-3.
 69 73  0  0  1  0            999 V2000
   16.9480   -4.8250    2.4360 C   0  0  0  0  0  0
   17.3820   -6.2530    2.0430 C   0  0  0  0  0  0
   16.5960   -7.2470    2.7910 O   0  0  0  0  0  0
   15.1470   -7.1230    2.5830 C   0  0  0  0  0  0
   14.6970   -5.6620    2.7900 C   0  0  0  0  0  0
   15.8080   -4.8830    3.3800 N   0  0  0  0  0  0
   15.3820   -3.5720    3.9270 C   0  0  0  0  0  0
   15.0790   -2.4420    2.9320 C   0  0  0  0  0  0
   14.4450   -1.2650    3.6960 C   0  0  0  0  0  0
   13.0060   -1.3450    3.5830 O   0  0  0  0  0  0
   12.2380   -0.2830    3.9940 C   0  0  0  0  0  0
   12.7310    0.7920    4.7430 C   0  0  0  0  0  0
   10.8780   -0.3020    3.6260 C   0  0  0  0  0  0
   10.3890   -1.3700    2.9090 O   0  0  0  0  0  0
   10.9840   -1.6140    1.6320 C   0  0  0  0  0  0
   10.0240    0.7310    4.0110 C   0  0  0  0  0  0
   10.5130    1.8090    4.7560 C   0  0  0  0  0  0
   11.8710    1.8320    5.1180 C   0  0  0  0  0  0
   12.3590    2.8570    5.8350 N   0  0  0  0  0  0
   11.5260    3.9110    6.2290 C   0  0  0  0  0  0
   10.1700    3.8940    5.8630 N   0  0  0  0  0  0
    9.6760    2.8680    5.1470 C   0  0  0  0  0  0
    8.3690    2.7990    4.7810 N   0  0  0  0  0  0
    7.4690    3.7150    5.2320 C   0  0  0  0  0  0
    6.5350    4.2520    4.3440 C   0  0  0  0  0  0
    5.5910    5.1880    4.7760 C   0  0  0  0  0  0
    7.4250    4.1240    6.5690 C   0  0  0  0  0  0
    6.4830    5.0570    7.0060 C   0  0  0  0  0  0
    5.5490    5.5900    6.1190 C   0  0  0  0  0  0
    4.6720    6.5130    6.5840 N   0  0  0  0  0  0
    3.4990    6.7670    5.9550 C   0  0  0  0  0  0
    3.1050    6.1950    4.9340 O   0  0  0  0  0  0
    2.7220    7.7630    6.5530 C   0  0  0  0  0  0
    1.4280    8.0110    6.0900 C   0  0  0  0  0  0
    0.6540    9.0080    6.6780 C   0  0  0  0  0  0
    1.1690    9.7650    7.7290 C   0  0  0  0  0  0
    2.4560    9.5160    8.1970 C   0  0  0  0  0  0
    3.2330    8.5240    7.6040 C   0  0  0  0  0  0
   17.7897   -4.3053    2.9170 H   0  0  0  0  0  0
   16.6433   -4.2732    1.5345 H   0  0  0  0  0  0
   17.2192   -6.4022    0.9654 H   0  0  0  0  0  0
   18.4486   -6.3890    2.2749 H   0  0  0  0  0  0
   14.8958   -7.4333    1.5580 H   0  0  0  0  0  0
   14.6171   -7.7661    3.3010 H   0  0  0  0  0  0
   14.4161   -5.2241    1.8208 H   0  0  0  0  0  0
   13.8312   -5.6376    3.4681 H   0  0  0  0  0  0
   14.4556   -3.6999    4.5062 H   0  0  0  0  0  0
   16.1714   -3.1737    4.5813 H   0  0  0  0  0  0
   16.0136   -2.1151    2.4527 H   0  0  0  0  0  0
   14.3812   -2.8070    2.1640 H   0  0  0  0  0  0
   14.7355   -1.3167    4.7557 H   0  0  0  0  0  0
   14.7970   -0.3160    3.2652 H   0  0  0  0  0  0
   13.7812    0.8196    5.0336 H   0  0  0  0  0  0
   10.5065   -2.4886    1.1661 H   0  0  0  0  0  0
   12.0593   -1.8078    1.7595 H   0  0  0  0  0  0
   10.8439   -0.7333    0.9880 H   0  0  0  0  0  0
    8.9713    0.6982    3.7302 H   0  0  0  0  0  0
   11.9265    4.7382    6.8151 H   0  0  0  0  0  0
    8.0268    1.9956    4.1121 H   0  0  0  0  0  0
    6.5420    3.9373    3.3004 H   0  0  0  0  0  0
    4.8817    5.6089    4.0633 H   0  0  0  0  0  0
    8.1376    3.7076    7.2810 H   0  0  0  0  0  0
    6.4778    5.3714    8.0497 H   0  0  0  0  0  0
    4.9038    7.0810    7.4970 H   0  0  0  0  0  0
    1.0230    7.4228    5.2665 H   0  0  0  0  0  0
   -0.3565    9.1969    6.3157 H   0  0  0  0  0  0
    0.5651   10.5504    8.1835 H   0  0  0  0  0  0
    2.8558   10.0975    9.0277 H   0  0  0  0  0  0
    4.2458    8.3414    7.9632 H   0  0  0  0  0  0
  1  2  1  0  0  0
  1  6  1  0  0  0
  1 39  1  0  0  0
  1 40  1  0  0  0
  2  3  1  0  0  0
  2 41  1  0  0  0
  2 42  1  0  0  0
  3  4  1  0  0  0
  4  5  1  0  0  0
  4 43  1  0  0  0
  4 44  1  0  0  0
  5  6  1  0  0  0
  5 45  1  0  0  0
  5 46  1  0  0  0
  6  7  1  0  0  0
  7  8  1  0  0  0
  7 47  1  0  0  0
  7 48  1  0  0  0
  8  9  1  0  0  0
  8 49  1  0  0  0
  8 50  1  0  0  0
  9 10  1  0  0  0
  9 51  1  0  0  0
  9 52  1  0  0  0
 10 11  1  0  0  0
 11 12  2  0  0  0
 11 13  1  0  0  0
 12 18  1  0  0  0
 12 53  1  0  0  0
 13 14  1  0  0  0
 13 16  2  0  0  0
 14 15  1  0  0  0
 15 54  1  0  0  0
 15 55  1  0  0  0
 15 56  1  0  0  0
 16 17  1  0  0  0
 16 57  1  0  0  0
 17 18  2  0  0  0
 17 22  1  0  0  0
 18 19  1  0  0  0
 19 20  2  0  0  0
 20 21  1  0  0  0
 20 58  1  0  0  0
 21 22  2  0  0  0
 22 23  1  0  0  0
 23 24  1  0  0  0
 23 59  1  0  0  0
 24 25  2  0  0  0
 24 27  1  0  0  0
 25 26  1  0  0  0
 25 60  1  0  0  0
 26 29  2  0  0  0
 26 61  1  0  0  0
 27 28  2  0  0  0
 27 62  1  0  0  0
 28 29  1  0  0  0
 28 63  1  0  0  0
 29 30  1  0  0  0
 30 31  1  0  0  0
 30 64  1  0  0  0
 31 32  2  0  0  0
 31 33  1  0  0  0
 33 34  2  0  0  0
 33 38  1  0  0  0
 34 35  1  0  0  0
 34 65  1  0  0  0
 35 36  2  0  0  0
 35 66  1  0  0  0
 36 37  1  0  0  0
 36 67  1  0  0  0
 37 38  2  0  0  0
 37 68  1  0  0  0
 38 69  1  0  0  0
M  END
> <s_m_source_file>
../2vrx_ligand.sdf

> <i_m_source_file_index>
1

> <s_epik_input>
W0NIMl0xW0NIMl1PW0NIMl1bQ0gyXVtOSCtdMVtDSDJdW0NIMl1bQ0gyXU9jKGMoW2NIXTIpT1tDSDNdKVtjSF1jKGMyMyluW2NIXW5jM1tOSF1jNFtjSF1bY0hdYyhbY0hdW2NIXTQpW05IXUMoPU8pYzVbY0hdW2NIXVtjSF1bY0hdW2NIXTU=

> <s_epik_cmdline>
J2VwaWtfYXBwJywgJy1pbWFlJywgJ2xpZ2FuZF9wcm8ubWFlJywgJy1vbWFlJywgJ2xpZ2FuZF9wcmVwLm1hZScsICctbXMnLCAnMScsICctcGgnLCAnNycsICctcGh0JywgJzAuNScsICctbnQn

> <r_lp_tautomer_probability>
0.999978000241998

> <r_epik_Ionization_Penalty>
  0.4084

> <r_epik_Ionization_Penalty_Charging>
  0.0000

> <r_epik_Ionization_Penalty_Neutral>
  0.4084

> <r_epik_State_Penalty>
  0.4064

> <r_epik_Charging_Adjusted_Penalty>
0.406387605570154

> <i_epik_Tot_Q>
0

> <i_epik_Tot_abs_Q>
0

$$$$
