2vt3_ligand
                    3D
 Schrodinger Suite 2020-3.
 43 45  0  0  1  0            999 V2000
   16.9100    7.4790  -34.1450 P   0  0  0  0  0  0
   15.4530    7.2910  -34.5290 O   0  5  0  0  0  0
   17.7200    8.3600  -35.0790 O   0  5  0  0  0  0
   17.5560    6.1910  -33.7250 O   0  0  0  0  0  0
   17.7470    9.0430  -31.7640 P   0  0  1  0  0  0
   16.8600    9.6000  -30.6750 O   0  0  0  0  0  0
   18.8010    8.0740  -31.2800 O   0  5  0  0  0  0
   16.7040    8.2930  -32.7560 O   0  0  0  0  0  0
   19.3350   11.4060  -32.2720 P   0  0  1  0  0  0
   19.4560   11.4330  -30.7710 O   0  5  0  0  0  0
   20.6030   11.4560  -33.0560 O   0  0  0  0  0  0
   18.3690   10.1860  -32.7220 O   0  0  0  0  0  0
   18.4860   12.7040  -32.6870 O   0  0  0  0  0  0
   17.1930   12.8630  -32.1230 C   0  0  0  0  0  0
   16.2380   13.1700  -33.2640 C   0  0  1  0  0  0
   16.5880   14.4700  -33.6960 O   0  0  0  0  0  0
   16.2820   12.2670  -34.5140 C   0  0  1  0  0  0
   14.9550   12.0050  -35.0170 O   0  0  0  0  0  0
   17.0160   13.0880  -35.5380 C   0  0  1  0  0  0
   16.6580   12.8160  -36.8860 O   0  0  0  0  0  0
   16.6080   14.4980  -35.1300 C   0  0  2  0  0  0
   17.5270   15.5320  -35.5880 N   0  0  0  0  0  0
   18.8650   15.4650  -35.6030 C   0  0  0  0  0  0
   19.3650   16.6220  -36.0580 N   0  0  0  0  0  0
   18.3430   17.4460  -36.3350 C   0  0  0  0  0  0
   18.1680   18.8080  -36.8660 C   0  0  0  0  0  0
   19.2300   19.5700  -37.1930 N   0  0  0  0  0  0
   16.9220   19.2930  -36.9830 N   0  0  0  0  0  0
   15.8450   18.5590  -36.6700 C   0  0  0  0  0  0
   15.9360   17.3100  -36.2150 N   0  0  0  0  0  0
   17.1280   16.7150  -36.0350 C   0  0  0  0  0  0
   16.8990   11.9341  -31.6124 H   0  0  0  0  0  0
   17.2082   13.6906  -31.3986 H   0  0  0  0  0  0
   15.2190   13.1020  -32.8553 H   0  0  0  0  0  0
   16.7149   11.2734  -34.3258 H   0  0  0  0  0  0
   14.2463   11.4145  -34.4178 H   0  0  0  0  0  0
   18.0906   12.8609  -35.5982 H   0  0  0  0  0  0
   16.8870   11.8354  -37.3288 H   0  0  0  0  0  0
   15.6374   14.7980  -35.5518 H   0  0  0  0  0  0
   19.4555   14.6028  -35.2931 H   0  0  0  0  0  0
   20.2482   19.1657  -37.0945 H   0  0  0  0  0  0
   19.0788   20.5964  -37.5585 H   0  0  0  0  0  0
   14.8562   19.0011  -36.7925 H   0  0  0  0  0  0
  1  2  1  0  0  0
  1  3  1  0  0  0
  1  4  2  0  0  0
  1  8  1  0  0  0
  5  6  2  0  0  0
  5  7  1  0  0  0
  5  8  1  0  0  0
  5 12  1  0  0  0
  9 10  1  0  0  0
  9 11  2  0  0  0
  9 12  1  0  0  0
  9 13  1  0  0  0
 13 14  1  0  0  0
 14 15  1  0  0  0
 14 32  1  0  0  0
 14 33  1  0  0  0
 15 16  1  0  0  0
 15 17  1  0  0  0
 15 34  1  0  0  0
 16 21  1  0  0  0
 17 18  1  0  0  0
 17 19  1  0  0  0
 17 35  1  0  0  0
 18 36  1  0  0  0
 19 20  1  0  0  0
 19 21  1  0  0  0
 19 37  1  0  0  0
 20 38  1  0  0  0
 21 22  1  0  0  0
 21 39  1  0  0  0
 22 23  1  0  0  0
 22 31  1  0  0  0
 23 24  2  0  0  0
 23 40  1  0  0  0
 24 25  1  0  0  0
 25 26  2  0  0  0
 25 31  1  0  0  0
 26 27  1  0  0  0
 26 28  1  0  0  0
 27 41  1  0  0  0
 27 42  1  0  0  0
 28 29  2  0  0  0
 29 30  1  0  0  0
 29 43  1  0  0  0
 30 31  2  0  0  0
M  CHG  4   2  -1   3  -1   7  -1  10  -1
M  END
> <s_m_source_file>
../2vt3_ligand.sdf

> <i_m_source_file_index>
1

> <s_epik_input>
W09IXVAoPU8pKFtPSF0pT1tQQEBdKD1PKShbT0hdKU9bUEBdKD1PKShbT0hdKU9bQ0gyXVtDQEhdMU9bQ0BIXShbQ0BIXShbT0hdKVtDQEBIXTFbT0hdKW4oW2NIXW4yKWMoYzIzKW5bY0hdbmMzW05IMl0=

> <s_epik_cmdline>
J2VwaWtfYXBwJywgJy1pbWFlJywgJ2xpZ2FuZF9wcm8ubWFlJywgJy1vbWFlJywgJ2xpZ2FuZF9wcmVwLm1hZScsICctbXMnLCAnMScsICctcGgnLCAnNycsICctcGh0JywgJzAuNScsICctbnQn

> <r_lp_tautomer_probability>
0.999997216410988

> <r_epik_Ionization_Penalty>
  0.0818

> <r_epik_Ionization_Penalty_Charging>
  0.0813

> <r_epik_Ionization_Penalty_Neutral>
  0.0004

> <r_epik_State_Penalty>
  0.0708

> <r_epik_Charging_Adjusted_Penalty>
0.152157994418768

> <i_epik_Tot_Q>
-4

> <i_epik_Tot_abs_Q>
4

> <s_epik_Chemistry_Notes>
This compound contains an acetal/aminal-like group ( X-CH(R)-Y where X, Y are N, S, or O) that may be acid/base labile, releasing an aldehyde.

$$$$
