2vta_ligand
                    3D
 Schrodinger Suite 2020-3.
 14 15  0  0  1  0            999 V2000
   26.6470    4.4300   64.2630 C   0  0  0  0  0  0
   27.3290    5.6500   64.3750 C   0  0  0  0  0  0
   26.8640    6.7380   63.6400 C   0  0  0  0  0  0
   25.7620    6.6120   62.8130 C   0  0  0  0  0  0
   25.1030    5.4010   62.7060 C   0  0  0  0  0  0
   25.5450    4.3090   63.4260 C   0  0  0  0  0  0
   27.3080    3.5470   65.0780 N   0  0  0  0  0  0
   28.3840    5.4130   65.2900 C   0  0  0  0  0  0
   28.3640    4.1370   65.6980 N   0  0  0  0  0  0
   27.3735    7.6985   63.7172 H   0  0  0  0  0  0
   25.4113    7.4721   62.2426 H   0  0  0  0  0  0
   24.2348    5.3086   62.0534 H   0  0  0  0  0  0
   25.0296    3.3526   63.3377 H   0  0  0  0  0  0
   29.1075    6.1606   65.6152 H   0  0  0  0  0  0
  1  2  2  0  0  0
  1  6  1  0  0  0
  1  7  1  0  0  0
  2  3  1  0  0  0
  2  8  1  0  0  0
  3  4  2  0  0  0
  3 10  1  0  0  0
  4  5  1  0  0  0
  4 11  1  0  0  0
  5  6  2  0  0  0
  5 12  1  0  0  0
  6 13  1  0  0  0
  7  9  2  0  0  0
  8  9  1  0  0  0
  8 14  1  0  0  0
M  END
> <s_m_source_file>
../2vta_ligand.sdf

> <i_m_source_file_index>
1

> <s_epik_input>
TjE9TltDSDJdYyhjMTIpW2NIXVtjSF1bY0hdW2NIXTI=

> <s_epik_cmdline>
J2VwaWtfYXBwJywgJy1pbWFlJywgJ2xpZ2FuZF9wcm8ubWFlJywgJy1vbWFlJywgJ2xpZ2FuZF9wcmVwLm1hZScsICctbXMnLCAnMScsICctcGgnLCAnNycsICctcGh0JywgJzAuNScsICctbnQn

> <r_lp_tautomer_probability>
1

> <r_epik_Ionization_Penalty>
  0.0000

> <r_epik_Ionization_Penalty_Charging>
  0.0000

> <r_epik_Ionization_Penalty_Neutral>
  0.0000

> <r_epik_State_Penalty>
 -0.0000

> <r_epik_Charging_Adjusted_Penalty>
0

> <i_epik_Tot_Q>
0

> <i_epik_Tot_abs_Q>
0

$$$$
