2vtn_ligand
                    3D
 Schrodinger Suite 2020-3.
 30 31  0  0  1  0            999 V2000
   24.2750    6.0400   61.0510 C   0  0  0  0  0  0
   24.8560    4.9370   61.8700 C   0  0  0  0  0  0
   24.3790    3.8160   61.8750 O   0  0  0  0  0  0
   25.9500    5.2560   62.5890 N   0  0  0  0  0  0
   26.6360    4.4170   63.4520 C   0  0  0  0  0  0
   26.3900    3.1130   63.7670 C   0  0  0  0  0  0
   27.3230    2.7500   64.6350 N   0  3  0  0  0  0
   28.1660    3.7680   64.9080 N   0  0  0  0  0  0
   27.7600    4.7770   64.1830 C   0  0  0  0  0  0
   28.4830    6.0710   64.2200 C   0  0  0  0  0  0
   28.0460    7.0580   63.6490 O   0  0  0  0  0  0
   29.6540    6.0800   64.8810 N   0  0  0  0  0  0
   30.5230    7.1520   65.0130 C   0  0  0  0  0  0
   31.1450    7.4050   66.2340 C   0  0  0  0  0  0
   32.0030    8.4790   66.3690 C   0  0  0  0  0  0
   32.2420    9.2910   65.2830 C   0  0  0  0  0  0
   33.0790   10.3340   65.4190 F   0  0  0  0  0  0
   31.6430    9.0590   64.0580 C   0  0  0  0  0  0
   30.7810    7.9880   63.9230 C   0  0  0  0  0  0
   23.3921    5.6689   60.5098 H   0  0  0  0  0  0
   25.0252    6.3950   60.3291 H   0  0  0  0  0  0
   23.9792    6.8695   61.7102 H   0  0  0  0  0  0
   26.3785    6.2667   62.5193 H   0  0  0  0  0  0
   25.5394    2.5874   63.3085 H   0  0  0  0  0  0
   30.0067    5.1694   65.3874 H   0  0  0  0  0  0
   30.9537    6.7527   67.0861 H   0  0  0  0  0  0
   32.4857    8.6816   67.3251 H   0  0  0  0  0  0
   31.8484    9.7127   63.2103 H   0  0  0  0  0  0
   30.3007    7.7944   62.9639 H   0  0  0  0  0  0
   27.4664    1.7724   65.1185 H   0  0  0  0  0  0
  1  2  1  0  0  0
  1 20  1  0  0  0
  1 21  1  0  0  0
  1 22  1  0  0  0
  2  3  2  0  0  0
  2  4  1  0  0  0
  4  5  1  0  0  0
  4 23  1  0  0  0
  5  6  2  0  0  0
  5  9  1  0  0  0
  6  7  1  0  0  0
  6 24  1  0  0  0
  7  8  1  0  0  0
  7 30  1  0  0  0
  8  9  2  0  0  0
  9 10  1  0  0  0
 10 11  2  0  0  0
 10 12  1  0  0  0
 12 13  1  0  0  0
 12 25  1  0  0  0
 13 14  2  0  0  0
 13 19  1  0  0  0
 14 15  1  0  0  0
 14 26  1  0  0  0
 15 16  2  0  0  0
 15 27  1  0  0  0
 16 17  1  0  0  0
 16 18  1  0  0  0
 18 19  2  0  0  0
 18 28  1  0  0  0
 19 29  1  0  0  0
M  CHG  1   7   1
M  END
> <s_m_source_file>
../2vtn_ligand.sdf

> <i_m_source_file_index>
1

> <s_epik_input>
W0NIM11DKD1PKVtOSF1jMVtjSF1bbkhdbmMxQyg9TylbTkhdYzJbY0hdW2NIXWMoRilbY0hdW2NIXTI=

> <s_epik_cmdline>
J2VwaWtfYXBwJywgJy1pbWFlJywgJ2xpZ2FuZF9wcm8ubWFlJywgJy1vbWFlJywgJ2xpZ2FuZF9wcmVwLm1hZScsICctbXMnLCAnMScsICctcGgnLCAnNycsICctcGh0JywgJzAuNScsICctbnQn

> <r_epik_Ionization_Penalty>
  0.0002

> <r_epik_Ionization_Penalty_Charging>
  0.0000

> <r_epik_Ionization_Penalty_Neutral>
  0.0002

> <r_epik_State_Penalty>
  0.0304

> <r_epik_Charging_Adjusted_Penalty>
0.0303881277861077

> <i_epik_Tot_Q>
1

> <i_epik_Tot_abs_Q>
1

> <s_epik_Chemistry_Notes>
This compound has an imine and may undergo hydrolysis.

$$$$
