2vto_ligand
                    3D
 Schrodinger Suite 2020-3.
 37 39  0  0  1  0            999 V2000
   33.5770   10.5780   66.5070 F   0  0  0  0  0  0
   32.7220    9.5520   66.3340 C   0  0  0  0  0  0
   32.2580    9.2660   65.0640 C   0  0  0  0  0  0
   31.3900    8.2020   64.8890 C   0  0  0  0  0  0
   31.0030    7.4230   65.9860 C   0  0  0  0  0  0
   30.1130    6.3450   65.8150 N   0  0  0  0  0  0
   28.9890    6.4120   65.0920 C   0  0  0  0  0  0
   28.6320    7.4480   64.5320 O   0  0  0  0  0  0
   28.1920    5.1680   64.9940 C   0  0  0  0  0  0
   28.5150    4.1060   65.7230 N   0  0  0  0  0  0
   27.6060    3.1490   65.4010 N   0  3  0  0  0  0
   26.7240    3.5790   64.5040 C   0  0  0  0  0  0
   27.0630    4.8880   64.2070 C   0  0  0  0  0  0
   26.4680    5.7830   63.3360 N   0  0  0  0  0  0
   25.3430    5.5830   62.6120 C   0  0  0  0  0  0
   24.6900    4.5400   62.6630 O   0  0  0  0  0  0
   24.9210    6.7240   61.7420 C   0  0  0  0  0  0
   23.5840    7.0940   61.6650 C   0  0  0  0  0  0
   23.1990    8.1590   60.8710 C   0  0  0  0  0  0
   24.1430    8.8610   60.1470 C   0  0  0  0  0  0
   25.4750    8.5040   60.2190 C   0  0  0  0  0  0
   25.8650    7.4410   61.0130 C   0  0  0  0  0  0
   31.4860    7.7390   67.2580 C   0  0  0  0  0  0
   32.3440    8.8070   67.4320 C   0  0  0  0  0  0
   32.5711    9.8697   64.2122 H   0  0  0  0  0  0
   31.0071    7.9702   63.8952 H   0  0  0  0  0  0
   30.3249    5.3761   66.2907 H   0  0  0  0  0  0
   25.8591    3.1097   64.0123 H   0  0  0  0  0  0
   26.9144    6.7758   63.1777 H   0  0  0  0  0  0
   22.8350    6.5423   62.2330 H   0  0  0  0  0  0
   22.1486    8.4450   60.8164 H   0  0  0  0  0  0
   23.8363    9.6971   59.5186 H   0  0  0  0  0  0
   26.2195    9.0604   59.6496 H   0  0  0  0  0  0
   26.9176    7.1632   61.0681 H   0  0  0  0  0  0
   31.1843    7.1399   68.1172 H   0  0  0  0  0  0
   32.7180    9.0583   68.4245 H   0  0  0  0  0  0
   27.6615    2.1568   65.8727 H   0  0  0  0  0  0
  1  2  1  0  0  0
  2  3  2  0  0  0
  2 24  1  0  0  0
  3  4  1  0  0  0
  3 25  1  0  0  0
  4  5  2  0  0  0
  4 26  1  0  0  0
  5  6  1  0  0  0
  5 23  1  0  0  0
  6  7  1  0  0  0
  6 27  1  0  0  0
  7  8  2  0  0  0
  7  9  1  0  0  0
  9 10  2  0  0  0
  9 13  1  0  0  0
 10 11  1  0  0  0
 11 12  1  0  0  0
 11 37  1  0  0  0
 12 13  2  0  0  0
 12 28  1  0  0  0
 13 14  1  0  0  0
 14 15  1  0  0  0
 14 29  1  0  0  0
 15 16  2  0  0  0
 15 17  1  0  0  0
 17 18  2  0  0  0
 17 22  1  0  0  0
 18 19  1  0  0  0
 18 30  1  0  0  0
 19 20  2  0  0  0
 19 31  1  0  0  0
 20 21  1  0  0  0
 20 32  1  0  0  0
 21 22  2  0  0  0
 21 33  1  0  0  0
 22 34  1  0  0  0
 23 24  2  0  0  0
 23 35  1  0  0  0
 24 36  1  0  0  0
M  CHG  1  11   1
M  END
> <s_m_source_file>
../2vto_ligand.sdf

> <i_m_source_file_index>
1

> <s_epik_input>
RmMxW2NIXVtjSF1jKFtjSF1bY0hdMSlbTkhdQyg9TyljMm5bbkhdW2NIXWMyW05IXUMoPU8pYzNbY0hdW2NIXVtjSF1bY0hdW2NIXTM=

> <s_epik_cmdline>
J2VwaWtfYXBwJywgJy1pbWFlJywgJ2xpZ2FuZF9wcm8ubWFlJywgJy1vbWFlJywgJ2xpZ2FuZF9wcmVwLm1hZScsICctbXMnLCAnMScsICctcGgnLCAnNycsICctcGh0JywgJzAuNScsICctbnQn

> <r_epik_Ionization_Penalty>
  0.0020

> <r_epik_Ionization_Penalty_Charging>
  0.0000

> <r_epik_Ionization_Penalty_Neutral>
  0.0020

> <r_epik_State_Penalty>
  0.0304

> <r_epik_Charging_Adjusted_Penalty>
0.0303881277861077

> <i_epik_Tot_Q>
1

> <i_epik_Tot_abs_Q>
1

> <s_epik_Chemistry_Notes>
This compound has an imine and may undergo hydrolysis.

$$$$
