2vtq_ligand
                    3D
 Schrodinger Suite 2020-3.
 43 45  0  0  1  0            999 V2000
   31.8560    9.4090   67.1270 C   0  0  0  0  0  0
   31.1010    8.0860   67.0230 C   0  0  0  0  0  0
   30.5150    7.9240   65.6190 C   0  0  0  0  0  0
   29.7660    6.6740   65.4970 N   0  0  0  0  0  0
   28.5880    6.6340   64.8530 C   0  0  0  0  0  0
   28.0860    7.6380   64.3640 O   0  0  0  0  0  0
   27.9030    5.3150   64.7520 C   0  0  0  0  0  0
   28.2710    4.2270   65.4540 N   0  3  0  0  0  0
   27.4230    3.2450   65.0730 N   0  0  0  0  0  0
   26.5320    3.6940   64.1610 C   0  0  0  0  0  0
   26.8130    5.0110   63.9350 C   0  0  0  0  0  0
   26.2120    5.9150   63.0750 N   0  0  0  0  0  0
   25.2660    5.6240   62.1680 C   0  0  0  0  0  0
   24.7640    4.4810   62.0410 O   0  0  0  0  0  0
   24.8600    6.7660   61.2850 C   0  0  0  0  0  0
   25.7840    7.3770   60.4320 C   0  0  0  0  0  0
   27.0470    6.9110   60.4250 F   0  0  0  0  0  0
   25.4330    8.4480   59.6180 C   0  0  0  0  0  0
   24.1320    8.9190   59.6350 C   0  0  0  0  0  0
   23.1910    8.3250   60.4710 C   0  0  0  0  0  0
   23.5690    7.2630   61.2930 C   0  0  0  0  0  0
   22.6580    6.6780   62.0950 F   0  0  0  0  0  0
   31.6260    8.0240   64.5650 C   0  0  0  0  0  0
   32.9580    9.4510   66.1220 N   0  3  0  0  0  0
   32.4380    9.3220   64.7310 C   0  0  0  0  0  0
   31.1633   10.2423   66.9381 H   0  0  0  0  0  0
   32.2834    9.5090   68.1356 H   0  0  0  0  0  0
   31.7909    7.2533   67.2245 H   0  0  0  0  0  0
   30.2838    8.0713   67.7591 H   0  0  0  0  0  0
   29.7638    8.7069   65.4383 H   0  0  0  0  0  0
   30.1659    5.7481   65.9361 H   0  0  0  0  0  0
   25.7373    3.1130   63.6931 H   0  0  0  0  0  0
   26.5029    6.9755   63.1008 H   0  0  0  0  0  0
   26.1770    8.9131   58.9713 H   0  0  0  0  0  0
   23.8447    9.7533   58.9951 H   0  0  0  0  0  0
   22.1633    8.6879   60.4834 H   0  0  0  0  0  0
   32.3087    7.1679   64.6696 H   0  0  0  0  0  0
   31.1795    8.0162   63.5597 H   0  0  0  0  0  0
   33.4935   10.4083   66.2049 H   0  0  0  0  0  0
   33.6569    8.6225   66.3094 H   0  0  0  0  0  0
   33.2897    9.3132   64.0349 H   0  0  0  0  0  0
   31.7949   10.1873   64.5126 H   0  0  0  0  0  0
   29.1142    4.2859   66.1580 H   0  0  0  0  0  0
  1  2  1  0  0  0
  1 24  1  0  0  0
  1 26  1  0  0  0
  1 27  1  0  0  0
  2  3  1  0  0  0
  2 28  1  0  0  0
  2 29  1  0  0  0
  3  4  1  0  0  0
  3 23  1  0  0  0
  3 30  1  0  0  0
  4  5  1  0  0  0
  4 31  1  0  0  0
  5  6  2  0  0  0
  5  7  1  0  0  0
  7  8  2  0  0  0
  7 11  1  0  0  0
  8  9  1  0  0  0
  8 43  1  0  0  0
  9 10  1  0  0  0
 10 11  2  0  0  0
 10 32  1  0  0  0
 11 12  1  0  0  0
 12 13  1  0  0  0
 12 33  1  0  0  0
 13 14  2  0  0  0
 13 15  1  0  0  0
 15 16  2  0  0  0
 15 21  1  0  0  0
 16 17  1  0  0  0
 16 18  1  0  0  0
 18 19  2  0  0  0
 18 34  1  0  0  0
 19 20  1  0  0  0
 19 35  1  0  0  0
 20 21  2  0  0  0
 20 36  1  0  0  0
 21 22  1  0  0  0
 23 25  1  0  0  0
 23 37  1  0  0  0
 23 38  1  0  0  0
 24 25  1  0  0  0
 24 39  1  0  0  0
 24 40  1  0  0  0
 25 41  1  0  0  0
 25 42  1  0  0  0
M  CHG  2   8   1  24   1
M  END
> <s_m_source_file>
../2vtq_ligand.sdf

> <i_m_source_file_index>
1

> <s_epik_input>
W0NIMl0xW0NIMl1bTkgyK11bQ0gyXVtDSDJdW0NIXTFbTkhdQyg9TyljMm5bbkhdW2NIXWMyW05IXUMoPU8pYzNjKEYpW2NIXVtjSF1bY0hdYzNG

> <s_epik_cmdline>
J2VwaWtfYXBwJywgJy1pbWFlJywgJ2xpZ2FuZF9wcm8ubWFlJywgJy1vbWFlJywgJ2xpZ2FuZF9wcmVwLm1hZScsICctbXMnLCAnMScsICctcGgnLCAnNycsICctcGh0JywgJzAuNScsICctbnQn

> <r_epik_Ionization_Penalty>
  0.0022

> <r_epik_Ionization_Penalty_Charging>
  0.0001

> <r_epik_Ionization_Penalty_Neutral>
  0.0021

> <r_epik_State_Penalty>
  0.2316

> <r_epik_Charging_Adjusted_Penalty>
0.231720858598778

> <i_epik_Tot_Q>
2

> <i_epik_Tot_abs_Q>
2

$$$$
