2vtr_ligand
                    3D
 Schrodinger Suite 2020-3.
 26 27  0  0  1  0            999 V2000
   31.5080    8.0800   66.5280 C   0  0  0  0  0  0
   30.6410    8.1280   65.2800 C   0  0  0  0  0  0
   31.4750    8.2890   64.0120 C   0  0  0  0  0  0
   29.8220    6.9220   65.1870 N   0  0  0  0  0  0
   28.7000    6.8590   64.3420 C   0  0  0  0  0  0
   28.2330    7.9800   63.6610 C   0  0  0  0  0  0
   27.1300    7.8160   62.8280 C   0  0  0  0  0  0
   26.4960    9.1700   61.9610 Cl  0  0  0  0  0  0
   26.4940    6.6610   62.6220 N   0  0  0  0  0  0
   26.9350    5.5870   63.2940 C   0  0  0  0  0  0
   26.4980    4.2820   63.3230 C   0  0  0  0  0  0
   25.3960    3.7750   62.5820 C   0  0  0  0  0  0
   24.5150    3.3680   61.9800 N   0  0  0  0  0  0
   27.3630    3.5990   64.1650 C   0  0  0  0  0  0
   28.3160    4.4390   64.6770 N   0  0  0  0  0  0
   28.0150    5.6630   64.1490 N   0  0  0  0  0  0
   32.1188    8.9931   66.5855 H   0  0  0  0  0  0
   32.1669    7.2003   66.4831 H   0  0  0  0  0  0
   30.8656    8.0119   67.4183 H   0  0  0  0  0  0
   29.9524    8.9813   65.3682 H   0  0  0  0  0  0
   32.0885    9.1987   64.0897 H   0  0  0  0  0  0
   30.8071    8.3704   63.1418 H   0  0  0  0  0  0
   32.1304    7.4140   63.8907 H   0  0  0  0  0  0
   30.0779    6.0358   65.7863 H   0  0  0  0  0  0
   28.7140    8.9513   63.7761 H   0  0  0  0  0  0
   27.2936    2.5346   64.3895 H   0  0  0  0  0  0
  1  2  1  0  0  0
  1 17  1  0  0  0
  1 18  1  0  0  0
  1 19  1  0  0  0
  2  3  1  0  0  0
  2  4  1  0  0  0
  2 20  1  0  0  0
  3 21  1  0  0  0
  3 22  1  0  0  0
  3 23  1  0  0  0
  4  5  1  0  0  0
  4 24  1  0  0  0
  5  6  2  0  0  0
  5 16  1  0  0  0
  6  7  1  0  0  0
  6 25  1  0  0  0
  7  8  1  0  0  0
  7  9  2  0  0  0
  9 10  1  0  0  0
 10 11  2  0  0  0
 10 16  1  0  0  0
 11 12  1  0  0  0
 11 14  1  0  0  0
 12 13  3  0  0  0
 14 15  2  0  0  0
 14 26  1  0  0  0
 15 16  1  0  0  0
M  END
> <s_m_source_file>
../2vtr_ligand.sdf

> <i_m_source_file_index>
1

> <s_epik_input>
W0NIM11bQ0hdKFtDSDNdKVtOSF1jKFtjSF1jKENsKW4xKW4oYzEyKW5bY0hdYzJDI04=

> <s_epik_cmdline>
J2VwaWtfYXBwJywgJy1pbWFlJywgJ2xpZ2FuZF9wcm8ubWFlJywgJy1vbWFlJywgJ2xpZ2FuZF9wcmVwLm1hZScsICctbXMnLCAnMScsICctcGgnLCAnNycsICctcGh0JywgJzAuNScsICctbnQn

> <r_lp_tautomer_probability>
1

> <r_epik_Ionization_Penalty>
  0.0000

> <r_epik_Ionization_Penalty_Charging>
  0.0000

> <r_epik_Ionization_Penalty_Neutral>
  0.0000

> <r_epik_State_Penalty>
 -0.0000

> <r_epik_Charging_Adjusted_Penalty>
0

> <i_epik_Tot_Q>
0

> <i_epik_Tot_abs_Q>
0

$$$$
