2vts_ligand
                    3D
 Schrodinger Suite 2020-3.
 47 49  0  0  1  0            999 V2000
   31.7240    8.0410   67.5110 C   0  0  0  0  0  0
   31.0100    8.0970   66.1600 C   0  0  0  0  0  0
   31.9890    8.0380   64.9870 C   0  0  0  0  0  0
   30.0560    7.0050   66.0510 N   0  0  0  0  0  0
   28.9560    7.0590   65.2070 C   0  0  0  0  0  0
   28.5190    8.2040   64.5560 C   0  0  0  0  0  0
   27.4090    8.1090   63.7260 C   0  0  0  0  0  0
   26.9100    9.1870   63.0360 N   0  0  0  0  0  0
   25.9330    9.0630   61.9680 C   0  0  1  0  0  0
   25.4090   10.4490   61.5900 C   0  0  0  0  0  0
   24.4520   10.3920   60.4190 C   0  0  0  0  0  0
   25.1660    9.8090   59.2200 C   0  0  2  0  0  0
   24.2510    9.8180   58.0280 N   0  3  0  0  0  0
   25.6620    8.3890   59.5120 C   0  0  0  0  0  0
   26.5550    8.3460   60.7540 C   0  0  0  0  0  0
   26.7240    6.9590   63.5520 N   0  0  0  0  0  0
   27.1590    5.8640   64.1770 C   0  0  0  0  0  0
   26.7310    4.5640   64.1720 C   0  0  0  0  0  0
   25.6120    4.0780   63.4540 C   0  0  0  0  0  0
   24.7040    3.6870   62.8630 N   0  0  0  0  0  0
   27.5810    3.8630   65.0320 C   0  0  0  0  0  0
   28.5050    4.6760   65.5630 N   0  0  0  0  0  0
   28.2410    5.9040   65.0120 N   0  0  0  0  0  0
   32.4421    8.8713   67.5809 H   0  0  0  0  0  0
   32.2593    7.0845   67.6034 H   0  0  0  0  0  0
   30.9842    8.1269   68.3205 H   0  0  0  0  0  0
   30.4363    9.0340   66.1064 H   0  0  0  0  0  0
   32.7105    8.8642   65.0697 H   0  0  0  0  0  0
   31.4342    8.1289   64.0415 H   0  0  0  0  0  0
   32.5265    7.0785   65.0059 H   0  0  0  0  0  0
   30.1928    6.0933   66.6510 H   0  0  0  0  0  0
   29.0342    9.1548   64.6926 H   0  0  0  0  0  0
   27.2848   10.1797   63.3260 H   0  0  0  0  0  0
   25.1089    8.4551   62.3697 H   0  0  0  0  0  0
   24.8772   10.8864   62.4478 H   0  0  0  0  0  0
   26.2534   11.0972   61.3128 H   0  0  0  0  0  0
   23.5911    9.7587   60.6795 H   0  0  0  0  0  0
   24.1017   11.4074   60.1819 H   0  0  0  0  0  0
   26.0346   10.4438   58.9908 H   0  0  0  0  0  0
   23.9077   10.8455   57.8371 H   0  0  0  0  0  0
   23.3829    9.1724   58.2272 H   0  0  0  0  0  0
   24.7926    9.4427   57.1472 H   0  0  0  0  0  0
   24.7999    7.7273   59.6822 H   0  0  0  0  0  0
   26.2437    8.0201   58.6543 H   0  0  0  0  0  0
   27.5106    8.8253   60.4951 H   0  0  0  0  0  0
   26.7306    7.2890   61.0028 H   0  0  0  0  0  0
   27.5029    2.7965   65.2429 H   0  0  0  0  0  0
  1  2  1  0  0  0
  1 24  1  0  0  0
  1 25  1  0  0  0
  1 26  1  0  0  0
  2  3  1  0  0  0
  2  4  1  0  0  0
  2 27  1  0  0  0
  3 28  1  0  0  0
  3 29  1  0  0  0
  3 30  1  0  0  0
  4  5  1  0  0  0
  4 31  1  0  0  0
  5  6  2  0  0  0
  5 23  1  0  0  0
  6  7  1  0  0  0
  6 32  1  0  0  0
  7  8  1  0  0  0
  7 16  2  0  0  0
  8  9  1  0  0  0
  8 33  1  0  0  0
  9 10  1  0  0  0
  9 15  1  0  0  0
  9 34  1  0  0  0
 10 11  1  0  0  0
 10 35  1  0  0  0
 10 36  1  0  0  0
 11 12  1  0  0  0
 11 37  1  0  0  0
 11 38  1  0  0  0
 12 13  1  0  0  0
 12 14  1  0  0  0
 12 39  1  0  0  0
 13 40  1  0  0  0
 13 41  1  0  0  0
 13 42  1  0  0  0
 14 15  1  0  0  0
 14 43  1  0  0  0
 14 44  1  0  0  0
 15 45  1  0  0  0
 15 46  1  0  0  0
 16 17  1  0  0  0
 17 18  2  0  0  0
 17 23  1  0  0  0
 18 19  1  0  0  0
 18 21  1  0  0  0
 19 20  3  0  0  0
 21 22  2  0  0  0
 21 47  1  0  0  0
 22 23  1  0  0  0
M  CHG  1  13   1
M  END
> <s_m_source_file>
../2vts_ligand.sdf

> <i_m_source_file_index>
1

> <s_epik_input>
TiNDYzFbY0hdbm4oYzEyKWMoW05IXVtDSF0oW0NIM10pW0NIM10pW2NIXWMobjIpW05IXVtDQEhdM1tDSDJdW0NIMl1bQ0BIXShbTkgzK10pW0NIMl1bQ0gyXTM=

> <s_epik_cmdline>
J2VwaWtfYXBwJywgJy1pbWFlJywgJ2xpZ2FuZF9wcm8ubWFlJywgJy1vbWFlJywgJ2xpZ2FuZF9wcmVwLm1hZScsICctbXMnLCAnMScsICctcGgnLCAnNycsICctcGh0JywgJzAuNScsICctbnQn

> <r_lp_tautomer_probability>
1

> <r_epik_Ionization_Penalty>
  0.0002

> <r_epik_Ionization_Penalty_Charging>
  0.0002

> <r_epik_Ionization_Penalty_Neutral>
  0.0000

> <r_epik_State_Penalty>
 -0.0000

> <r_epik_Charging_Adjusted_Penalty>
0.000233472693678441

> <i_epik_Tot_Q>
1

> <i_epik_Tot_abs_Q>
1

$$$$
