2vtt_ligand
                    3D
 Schrodinger Suite 2020-3.
 43 45  0  0  1  0            999 V2000
   33.0000    9.6610   65.0650 C   0  0  0  0  0  0
   32.3270    9.3720   66.4030 C   0  0  0  0  0  0
   31.5880    8.0390   66.3690 C   0  0  0  0  0  0
   30.5880    8.0140   65.2130 C   0  0  2  0  0  0
   29.8800    6.7330   65.1390 N   0  0  0  0  0  0
   28.6430    6.6570   64.5980 C   0  0  0  0  0  0
   28.0660    7.6350   64.1300 O   0  0  0  0  0  0
   28.0110    5.3230   64.5600 C   0  0  0  0  0  0
   28.4670    4.2590   65.2770 N   0  3  0  0  0  0
   27.6340    3.2320   64.9620 N   0  0  0  0  0  0
   26.6710    3.6180   64.0940 C   0  0  0  0  0  0
   26.8990    4.9620   63.8100 C   0  0  0  0  0  0
   26.2300    5.8350   62.9630 N   0  0  0  0  0  0
   25.2840    5.4990   62.0660 C   0  0  0  0  0  0
   24.8090    4.3630   61.9810 O   0  0  0  0  0  0
   24.8310    6.5970   61.1580 C   0  0  0  0  0  0
   25.7210    7.2340   60.2860 C   0  0  0  0  0  0
   27.0130    6.8460   60.2850 F   0  0  0  0  0  0
   25.2990    8.2580   59.4360 C   0  0  0  0  0  0
   23.9690    8.6470   59.4430 C   0  0  0  0  0  0
   23.0710    8.0220   60.2980 C   0  0  0  0  0  0
   23.5140    7.0030   61.1410 C   0  0  0  0  0  0
   22.6500    6.3980   61.9770 F   0  0  0  0  0  0
   31.2950    8.3350   63.8840 C   0  0  0  0  0  0
   31.9970    9.6480   63.9620 N   0  3  0  0  0  0
   33.4781   10.6510   65.1013 H   0  0  0  0  0  0
   33.7616    8.8932   64.8642 H   0  0  0  0  0  0
   33.0888    9.3318   67.1955 H   0  0  0  0  0  0
   31.6040   10.1694   66.6296 H   0  0  0  0  0  0
   32.3119    7.2218   66.2344 H   0  0  0  0  0  0
   31.0456    7.8962   67.3153 H   0  0  0  0  0  0
   29.7977    8.7537   65.4084 H   0  0  0  0  0  0
   30.3545    5.8192   65.5261 H   0  0  0  0  0  0
   25.8702    2.9963   63.6937 H   0  0  0  0  0  0
   26.4588    6.9106   62.9895 H   0  0  0  0  0  0
   26.0107    8.7480   58.7716 H   0  0  0  0  0  0
   23.6286    9.4416   58.7790 H   0  0  0  0  0  0
   22.0244    8.3264   60.3103 H   0  0  0  0  0  0
   32.0336    7.5504   63.6628 H   0  0  0  0  0  0
   30.5517    8.3777   63.0742 H   0  0  0  0  0  0
   31.2488   10.4350   64.1375 H   0  0  0  0  0  0
   32.5040    9.8313   63.0032 H   0  0  0  0  0  0
   29.3433    4.3722   65.9322 H   0  0  0  0  0  0
  1  2  1  0  0  0
  1 25  1  0  0  0
  1 26  1  0  0  0
  1 27  1  0  0  0
  2  3  1  0  0  0
  2 28  1  0  0  0
  2 29  1  0  0  0
  3  4  1  0  0  0
  3 30  1  0  0  0
  3 31  1  0  0  0
  4  5  1  0  0  0
  4 24  1  0  0  0
  4 32  1  0  0  0
  5  6  1  0  0  0
  5 33  1  0  0  0
  6  7  2  0  0  0
  6  8  1  0  0  0
  8  9  2  0  0  0
  8 12  1  0  0  0
  9 10  1  0  0  0
  9 43  1  0  0  0
 10 11  1  0  0  0
 11 12  2  0  0  0
 11 34  1  0  0  0
 12 13  1  0  0  0
 13 14  1  0  0  0
 13 35  1  0  0  0
 14 15  2  0  0  0
 14 16  1  0  0  0
 16 17  2  0  0  0
 16 22  1  0  0  0
 17 18  1  0  0  0
 17 19  1  0  0  0
 19 20  2  0  0  0
 19 36  1  0  0  0
 20 21  1  0  0  0
 20 37  1  0  0  0
 21 22  2  0  0  0
 21 38  1  0  0  0
 22 23  1  0  0  0
 24 25  1  0  0  0
 24 39  1  0  0  0
 24 40  1  0  0  0
 25 41  1  0  0  0
 25 42  1  0  0  0
M  CHG  2   9   1  25   1
M  END
> <s_m_source_file>
../2vtt_ligand.sdf

> <i_m_source_file_index>
1

> <s_epik_input>
W0NIMl0xW05IMitdW0NIMl1bQ0gyXVtDSDJdW0NAQEhdMVtOSF1DKD1PKWMybltuSF1bY0hdYzJbTkhdQyg9TyljM2MoRilbY0hdW2NIXVtjSF1jM0Y=

> <s_epik_cmdline>
J2VwaWtfYXBwJywgJy1pbWFlJywgJ2xpZ2FuZF9wcm8ubWFlJywgJy1vbWFlJywgJ2xpZ2FuZF9wcmVwLm1hZScsICctbXMnLCAnMScsICctcGgnLCAnNycsICctcGh0JywgJzAuNScsICctbnQn

> <r_epik_Ionization_Penalty>
  0.0040

> <r_epik_Ionization_Penalty_Charging>
  0.0003

> <r_epik_Ionization_Penalty_Neutral>
  0.0037

> <r_epik_State_Penalty>
  0.2179

> <r_epik_Charging_Adjusted_Penalty>
0.218219902725658

> <i_epik_Tot_Q>
2

> <i_epik_Tot_abs_Q>
2

$$$$
