2vu3_ligand
                    3D
 Schrodinger Suite 2020-3.
 43 45  0  0  1  0            999 V2000
   32.2190    9.3900   64.4900 C   0  0  0  0  0  0
   31.4440    8.0720   64.4030 C   0  0  0  0  0  0
   30.4040    7.9980   65.5230 C   0  0  0  0  0  0
   29.6370    6.7570   65.4530 N   0  0  0  0  0  0
   28.4620    6.6600   64.7770 C   0  0  0  0  0  0
   27.8910    7.6330   64.2550 O   0  0  0  0  0  0
   27.8750    5.3180   64.6820 C   0  0  0  0  0  0
   28.3050    4.2370   65.4030 N   0  3  0  0  0  0
   27.5140    3.2110   64.9970 N   0  0  0  0  0  0
   26.6020    3.6280   64.0730 C   0  0  0  0  0  0
   26.8230    4.9710   63.8550 C   0  0  0  0  0  0
   26.1960    5.8710   62.9950 N   0  0  0  0  0  0
   25.3440    5.5340   62.0070 C   0  0  0  0  0  0
   24.9480    4.3810   61.8360 O   0  0  0  0  0  0
   24.8480    6.6660   61.1660 C   0  0  0  0  0  0
   23.5390    7.0760   61.2500 C   0  0  0  0  0  0
   23.0680    8.1540   60.4980 C   0  0  0  0  0  0
   23.9300    8.8270   59.6510 C   0  0  0  0  0  0
   25.2560    8.4410   59.5750 C   0  0  0  0  0  0
   25.7030    7.3650   60.3310 C   0  0  0  0  0  0
   31.0860    8.1570   66.8880 C   0  0  0  0  0  0
   32.8520    9.5430   65.8300 N   0  3  0  0  0  0
   31.8590    9.4730   66.9420 C   0  0  0  0  0  0
   27.3470    6.8660   60.1910 Cl  0  0  0  0  0  0
   22.4610    6.2370   62.2990 Cl  0  0  0  0  0  0
   33.0063    9.4038   63.7219 H   0  0  0  0  0  0
   31.5306   10.2318   64.3245 H   0  0  0  0  0  0
   30.9325    8.0109   63.4311 H   0  0  0  0  0  0
   32.1428    7.2284   64.5032 H   0  0  0  0  0  0
   29.6534    8.7903   65.3855 H   0  0  0  0  0  0
   30.0059    5.8531   65.9598 H   0  0  0  0  0  0
   25.8393    3.0131   63.5952 H   0  0  0  0  0  0
   26.3836    6.9502   63.0962 H   0  0  0  0  0  0
   22.0260    8.4638   60.5780 H   0  0  0  0  0  0
   23.5660    9.6576   59.0463 H   0  0  0  0  0  0
   25.9466    8.9785   58.9252 H   0  0  0  0  0  0
   30.3238    8.1546   67.6812 H   0  0  0  0  0  0
   31.7846    7.3226   67.0483 H   0  0  0  0  0  0
   33.5878    8.7396   65.9818 H   0  0  0  0  0  0
   33.3571   10.5185   65.8877 H   0  0  0  0  0  0
   31.1571   10.3147   66.8473 H   0  0  0  0  0  0
   32.3919    9.5462   67.9015 H   0  0  0  0  0  0
   29.1314    4.3479   66.1205 H   0  0  0  0  0  0
  1  2  1  0  0  0
  1 22  1  0  0  0
  1 26  1  0  0  0
  1 27  1  0  0  0
  2  3  1  0  0  0
  2 28  1  0  0  0
  2 29  1  0  0  0
  3  4  1  0  0  0
  3 21  1  0  0  0
  3 30  1  0  0  0
  4  5  1  0  0  0
  4 31  1  0  0  0
  5  6  2  0  0  0
  5  7  1  0  0  0
  7  8  2  0  0  0
  7 11  1  0  0  0
  8  9  1  0  0  0
  8 43  1  0  0  0
  9 10  1  0  0  0
 10 11  2  0  0  0
 10 32  1  0  0  0
 11 12  1  0  0  0
 12 13  1  0  0  0
 12 33  1  0  0  0
 13 14  2  0  0  0
 13 15  1  0  0  0
 15 16  2  0  0  0
 15 20  1  0  0  0
 16 17  1  0  0  0
 16 25  1  0  0  0
 17 18  2  0  0  0
 17 34  1  0  0  0
 18 19  1  0  0  0
 18 35  1  0  0  0
 19 20  2  0  0  0
 19 36  1  0  0  0
 20 24  1  0  0  0
 21 23  1  0  0  0
 21 37  1  0  0  0
 21 38  1  0  0  0
 22 23  1  0  0  0
 22 39  1  0  0  0
 22 40  1  0  0  0
 23 41  1  0  0  0
 23 42  1  0  0  0
M  CHG  2   8   1  22   1
M  END
> <s_m_source_file>
../2vu3_ligand.sdf

> <i_m_source_file_index>
1

> <s_epik_input>
W0NIMl0xW0NIMl1bTkgyK11bQ0gyXVtDSDJdW0NIXTFbTkhdQyg9TyljMm5bbkhdW2NIXWMyW05IXUMoPU8pYzNjKENsKVtjSF1bY0hdW2NIXWMzQ2w=

> <s_epik_cmdline>
J2VwaWtfYXBwJywgJy1pbWFlJywgJ2xpZ2FuZF9wcm8ubWFlJywgJy1vbWFlJywgJ2xpZ2FuZF9wcmVwLm1hZScsICctbXMnLCAnMScsICctcGgnLCAnNycsICctcGh0JywgJzAuNScsICctbnQn

> <r_epik_Ionization_Penalty>
  0.0027

> <r_epik_Ionization_Penalty_Charging>
  0.0001

> <r_epik_Ionization_Penalty_Neutral>
  0.0025

> <r_epik_State_Penalty>
  0.2316

> <r_epik_Charging_Adjusted_Penalty>
0.23172085859878

> <i_epik_Tot_Q>
2

> <i_epik_Tot_abs_Q>
2

$$$$
