2vv9_ligand
                    3D
 Schrodinger Suite 2020-3.
 61 64  0  0  1  0            999 V2000
    0.1430   27.8850   11.7300 C   0  0  0  0  0  0
   -0.2850   27.8580   10.2590 C   0  0  0  0  0  0
   -0.5410   26.4200    9.8130 C   0  0  0  0  0  0
   -1.4660   28.7070   10.0580 N   0  0  0  0  0  0
   -2.6860   28.5470   10.6050 C   0  0  0  0  0  0
   -3.0600   27.4100   11.5270 C   0  0  0  0  0  0
   -3.4770   29.5310   10.2210 N   0  0  0  0  0  0
   -2.8090   30.3540    9.4030 C   0  0  0  0  0  0
   -1.5400   29.8640    9.2960 C   0  0  0  0  0  0
   -0.4490   30.4510    8.4960 C   0  0  0  0  0  0
   -0.4440   31.8430    8.2470 C   0  0  0  0  0  0
    0.5960   32.3380    7.4780 C   0  0  0  0  0  0
    1.5450   31.5190    7.0220 N   0  0  0  0  0  0
    1.5440   30.2190    7.3010 C   0  0  0  0  0  0
    2.6180   29.5230    6.7600 N   0  0  0  0  0  0
    3.0890   28.2370    7.0170 C   0  0  0  0  0  0
    2.6380   27.4060    8.0430 C   0  0  0  0  0  0
    3.2010   26.1370    8.1780 C   0  0  0  0  0  0
    4.2020   25.6810    7.3260 C   0  0  0  0  0  0
    4.6660   26.5170    6.3170 C   0  0  0  0  0  0
    4.1070   27.7820    6.1860 C   0  0  0  0  0  0
    4.7890   24.4050    7.4980 N   0  0  0  0  0  0
    4.0950   23.6010    8.5120 C   0  0  0  0  0  0
    4.9130   22.3380    8.7680 C   0  0  0  0  0  0
    5.1630   21.6640    7.4750 N   0  0  0  0  0  0
    5.7820   22.4540    6.3990 C   0  0  0  0  0  0
    4.8900   23.6990    6.2130 C   0  0  0  0  0  0
    4.8460   20.3640    7.2700 C   0  0  0  0  0  0
    5.1040   19.8400    6.1920 O   0  0  0  0  0  0
    4.1920   19.5550    8.3640 C   0  0  0  0  0  0
    4.0100   18.1830    7.9730 O   0  0  0  0  0  0
    0.5460   29.6620    8.0220 N   0  0  0  0  0  0
    1.0277   27.2456   11.8662 H   0  0  0  0  0  0
   -0.6794   27.5118   12.3580 H   0  0  0  0  0  0
    0.3880   28.9169   12.0217 H   0  0  0  0  0  0
    0.4973   28.2937    9.6201 H   0  0  0  0  0  0
    0.3644   25.8179    9.9792 H   0  0  0  0  0  0
   -0.7981   26.4081    8.7435 H   0  0  0  0  0  0
   -1.3737   25.9983   10.3950 H   0  0  0  0  0  0
   -2.1928   26.7468   11.6617 H   0  0  0  0  0  0
   -3.8924   26.8405   11.0879 H   0  0  0  0  0  0
   -3.3671   27.8149   12.5026 H   0  0  0  0  0  0
   -3.2036   31.2455    8.9155 H   0  0  0  0  0  0
   -1.2224   32.4959    8.6419 H   0  0  0  0  0  0
    0.6393   33.4018    7.2443 H   0  0  0  0  0  0
    3.2513   29.9966    5.9954 H   0  0  0  0  0  0
    1.8592   27.7426    8.7272 H   0  0  0  0  0  0
    2.8462   25.4831    8.9747 H   0  0  0  0  0  0
    5.4542   26.1860    5.6408 H   0  0  0  0  0  0
    4.4800   28.4422    5.4030 H   0  0  0  0  0  0
    4.0013   24.1833    9.4405 H   0  0  0  0  0  0
    3.0934   23.3327    8.1448 H   0  0  0  0  0  0
    5.8694   22.6097    9.2386 H   0  0  0  0  0  0
    4.3529   21.6676    9.4365 H   0  0  0  0  0  0
    6.8028   22.7386    6.6938 H   0  0  0  0  0  0
    5.8203   21.8531    5.4784 H   0  0  0  0  0  0
    3.8863   23.3927    5.8831 H   0  0  0  0  0  0
    5.3349   24.3675    5.4613 H   0  0  0  0  0  0
    4.8234   19.5780    9.2644 H   0  0  0  0  0  0
    3.2057   19.9829    8.5968 H   0  0  0  0  0  0
    3.5442   17.4699    8.6691 H   0  0  0  0  0  0
  1  2  1  0  0  0
  1 33  1  0  0  0
  1 34  1  0  0  0
  1 35  1  0  0  0
  2  3  1  0  0  0
  2  4  1  0  0  0
  2 36  1  0  0  0
  3 37  1  0  0  0
  3 38  1  0  0  0
  3 39  1  0  0  0
  4  5  1  0  0  0
  4  9  1  0  0  0
  5  6  1  0  0  0
  5  7  2  0  0  0
  6 40  1  0  0  0
  6 41  1  0  0  0
  6 42  1  0  0  0
  7  8  1  0  0  0
  8  9  2  0  0  0
  8 43  1  0  0  0
  9 10  1  0  0  0
 10 11  2  0  0  0
 10 32  1  0  0  0
 11 12  1  0  0  0
 11 44  1  0  0  0
 12 13  2  0  0  0
 12 45  1  0  0  0
 13 14  1  0  0  0
 14 15  1  0  0  0
 14 32  2  0  0  0
 15 16  1  0  0  0
 15 46  1  0  0  0
 16 17  2  0  0  0
 16 21  1  0  0  0
 17 18  1  0  0  0
 17 47  1  0  0  0
 18 19  2  0  0  0
 18 48  1  0  0  0
 19 20  1  0  0  0
 19 22  1  0  0  0
 20 21  2  0  0  0
 20 49  1  0  0  0
 21 50  1  0  0  0
 22 23  1  0  0  0
 22 27  1  0  0  0
 23 24  1  0  0  0
 23 51  1  0  0  0
 23 52  1  0  0  0
 24 25  1  0  0  0
 24 53  1  0  0  0
 24 54  1  0  0  0
 25 26  1  0  0  0
 25 28  1  0  0  0
 26 27  1  0  0  0
 26 55  1  0  0  0
 26 56  1  0  0  0
 27 57  1  0  0  0
 27 58  1  0  0  0
 28 29  2  0  0  0
 28 30  1  0  0  0
 30 31  1  0  0  0
 30 59  1  0  0  0
 30 60  1  0  0  0
 31 61  1  0  0  0
M  END
> <s_m_source_file>
../2vv9_ligand.sdf

> <i_m_source_file_index>
1

> <s_epik_input>
W0NIM11bQ0hdKFtDSDNdKW4xYyhbQ0gzXSluW2NIXWMxLWMyW2NIXVtjSF1uYyhuMilbTkhdYzNbY0hdW2NIXWMoW2NIXVtjSF0zKU40W0NIMl1bQ0gyXU4oW0NIMl1bQ0gyXTQpQyg9TylbQ0gyXVtPSF0=

> <s_epik_cmdline>
J2VwaWtfYXBwJywgJy1pbWFlJywgJ2xpZ2FuZF9wcm8ubWFlJywgJy1vbWFlJywgJ2xpZ2FuZF9wcmVwLm1hZScsICctbXMnLCAnMScsICctcGgnLCAnNycsICctcGh0JywgJzAuNScsICctbnQn

> <r_lp_tautomer_probability>
0.999999987636

> <r_epik_Ionization_Penalty>
  0.2581

> <r_epik_Ionization_Penalty_Charging>
  0.2438

> <r_epik_Ionization_Penalty_Neutral>
  0.0143

> <r_epik_State_Penalty>
  0.2349

> <r_epik_Charging_Adjusted_Penalty>
0.478712197271281

> <i_epik_Tot_Q>
0

> <i_epik_Tot_abs_Q>
0

$$$$
