2vvc_ligand
                    3D
 Schrodinger Suite 2020-3.
 56 59  0  0  1  0            999 V2000
   18.4580    6.3380   28.4850 F   0  0  0  0  0  0
   17.4610    7.0660   28.9970 C   0  0  0  0  0  0
   17.7560    7.8220   30.1290 C   0  0  0  0  0  0
   16.7640    8.5870   30.7190 C   0  0  0  0  0  0
   17.0790    9.3570   31.8630 N   0  0  0  0  0  0
   16.9670    8.8640   33.1800 C   0  0  0  0  0  0
   17.2770    9.6510   34.2420 C   0  0  0  0  0  0
   17.7360   10.9740   34.0260 C   0  0  0  0  0  0
   17.8640   11.4670   32.7610 C   0  0  0  0  0  0
   17.5350   10.6650   31.6400 C   0  0  0  0  0  0
   17.6350   11.0640   30.4800 O   0  0  0  0  0  0
   15.4890    8.5950   30.1450 C   0  0  0  0  0  0
   15.1830    7.8360   29.0080 C   0  0  0  0  0  0
   16.1860    7.0600   28.4270 C   0  0  0  0  0  0
   15.9100    6.3400   27.3060 N   0  0  0  0  0  0
   15.8440    6.9870   26.1210 C   0  0  0  0  0  0
   15.9760    8.1930   26.0420 O   0  0  0  0  0  0
   15.5850    6.2190   24.8430 C   0  0  0  0  0  0
   15.4400    4.7930   25.1550 N   0  0  2  0  0  0
   15.5750    3.9250   23.9670 C   0  0  0  0  0  0
   14.8410    2.6470   24.3770 C   0  0  2  0  0  0
   14.2670    1.9130   23.2900 O   0  0  0  0  0  0
   15.1810    1.5650   22.2430 C   0  0  0  0  0  0
   14.1390    4.4840   25.8000 C   0  0  0  0  0  0
   13.7140    3.1080   25.2870 C   0  0  2  0  0  0
   13.7210    2.1530   26.4030 N   0  0  0  0  0  0
   12.6600    1.9890   27.1910 C   0  0  0  0  0  0
   11.6770    2.6510   27.0200 O   0  0  0  0  0  0
   12.6410    1.0190   28.3150 C   0  0  0  0  0  0
   13.4060   -0.1010   28.6120 C   0  0  0  0  0  0
   13.0090   -0.7190   29.7850 C   0  0  0  0  0  0
   11.3770    1.3900   29.4570 S   0  0  0  0  0  0
   11.9730    0.0230   30.3020 C   0  0  0  0  0  0
   11.1130   -0.3430   31.8590 Cl  0  0  0  0  0  0
   18.7621    7.8115   30.5481 H   0  0  0  0  0  0
   16.6283    7.8414   33.3466 H   0  0  0  0  0  0
   17.1732    9.2666   35.2567 H   0  0  0  0  0  0
   17.9892   11.6036   34.8790 H   0  0  0  0  0  0
   18.2220   12.4855   32.6110 H   0  0  0  0  0  0
   14.7101    9.2101   30.5956 H   0  0  0  0  0  0
   14.1787    7.8515   28.5847 H   0  0  0  0  0  0
   15.7460    5.2545   27.3760 H   0  0  0  0  0  0
   14.6615    6.5889   24.3737 H   0  0  0  0  0  0
   16.4294    6.3608   24.1525 H   0  0  0  0  0  0
   15.1100    4.4160   23.0994 H   0  0  0  0  0  0
   16.6410    3.7489   23.7608 H   0  0  0  0  0  0
   15.5440    1.9164   24.8037 H   0  0  0  0  0  0
   14.6465    1.0068   21.4602 H   0  0  0  0  0  0
   15.9877    0.9398   22.6533 H   0  0  0  0  0  0
   15.6105    2.4812   21.8117 H   0  0  0  0  0  0
   14.2648    4.4738   26.8927 H   0  0  0  0  0  0
   13.4010    5.2512   25.5230 H   0  0  0  0  0  0
   12.7154    3.1336   24.8264 H   0  0  0  0  0  0
   14.6187    1.5504   26.6056 H   0  0  0  0  0  0
   14.2284   -0.4545   27.9900 H   0  0  0  0  0  0
   13.4369   -1.6234   30.2175 H   0  0  0  0  0  0
  1  2  1  0  0  0
  2  3  2  0  0  0
  2 14  1  0  0  0
  3  4  1  0  0  0
  3 35  1  0  0  0
  4  5  1  0  0  0
  4 12  2  0  0  0
  5  6  1  0  0  0
  5 10  1  0  0  0
  6  7  2  0  0  0
  6 36  1  0  0  0
  7  8  1  0  0  0
  7 37  1  0  0  0
  8  9  2  0  0  0
  8 38  1  0  0  0
  9 10  1  0  0  0
  9 39  1  0  0  0
 10 11  2  0  0  0
 12 13  1  0  0  0
 12 40  1  0  0  0
 13 14  2  0  0  0
 13 41  1  0  0  0
 14 15  1  0  0  0
 15 16  1  0  0  0
 15 42  1  0  0  0
 16 17  2  0  0  0
 16 18  1  0  0  0
 18 19  1  0  0  0
 18 43  1  0  0  0
 18 44  1  0  0  0
 19 20  1  0  0  0
 19 24  1  0  0  0
 20 21  1  0  0  0
 20 45  1  0  0  0
 20 46  1  0  0  0
 21 22  1  0  0  0
 21 25  1  0  0  0
 21 47  1  0  0  0
 22 23  1  0  0  0
 23 48  1  0  0  0
 23 49  1  0  0  0
 23 50  1  0  0  0
 24 25  1  0  0  0
 24 51  1  0  0  0
 24 52  1  0  0  0
 25 26  1  0  0  0
 25 53  1  0  0  0
 26 27  1  0  0  0
 26 54  1  0  0  0
 27 28  2  0  0  0
 27 29  1  0  0  0
 29 30  2  0  0  0
 29 32  1  0  0  0
 30 31  1  0  0  0
 30 55  1  0  0  0
 31 33  2  0  0  0
 31 56  1  0  0  0
 32 33  1  0  0  0
 33 34  1  0  0  0
M  END
> <s_m_source_file>
../2vvc_ligand.sdf

> <i_m_source_file_index>
1

> <s_epik_input>
Tz1jMVtjSF1bY0hdW2NIXVtjSF1uMS1jKFtjSF1jMkYpW2NIXVtjSF1jMltOSF1DKD1PKVtDSDJdW05AQEgrXTNbQ0gyXVtDQEhdKE9bQ0gzXSlbQ0BIXShbQ0gyXTMpW05IXUMoPU8pYzRbY0hdW2NIXWMoczQpQ2w=

> <s_epik_cmdline>
J2VwaWtfYXBwJywgJy1pbWFlJywgJ2xpZ2FuZF9wcm8ubWFlJywgJy1vbWFlJywgJ2xpZ2FuZF9wcmVwLm1hZScsICctbXMnLCAnMScsICctcGgnLCAnNycsICctcGh0JywgJzAuNScsICctbnQn

> <r_lp_tautomer_probability>
1

> <r_epik_Ionization_Penalty>
  0.0616

> <r_epik_Ionization_Penalty_Charging>
  0.0000

> <r_epik_Ionization_Penalty_Neutral>
  0.0616

> <r_epik_State_Penalty>
  0.0535

> <r_epik_Charging_Adjusted_Penalty>
0.0535205325942643

> <i_epik_Tot_Q>
0

> <i_epik_Tot_abs_Q>
0

$$$$
