2vvo_ligand
                    3D
 Schrodinger Suite 2020-3.
 27 27  0  0  1  0            999 V2000
   34.3060    8.8460  -11.5080 C   0  0  1  0  0  0
   34.5980    7.7670  -10.4350 C   0  0  1  0  0  0
   34.2450    8.2370   -9.0250 C   0  0  1  0  0  0
   34.6870    9.6760   -8.7300 C   0  0  1  0  0  0
   34.3040   10.6310   -9.8570 C   0  0  1  0  0  0
   34.8870   12.0200   -9.6230 C   0  0  0  0  0  0
   32.9150    8.9630  -11.7790 O   0  0  0  0  0  0
   33.9020    6.5220  -10.6710 O   0  0  0  0  0  0
   32.8200    8.0640   -8.7710 O   0  0  0  0  0  0
   34.0630   10.1200   -7.5230 O   0  0  0  0  0  0
   34.7980   10.1330  -11.1040 O   0  0  0  0  0  0
   34.4890   12.8740  -10.7090 O   0  0  0  0  0  0
   34.8060   14.4640  -10.7060 P   0  0  0  0  0  0
   34.1440   15.0030   -9.4560 O   0  5  0  0  0  0
   36.2760   14.5590  -10.6470 O   0  0  0  0  0  0
   34.1940   15.0100  -11.9740 O   0  5  0  0  0  0
   34.7868    8.5886  -12.4633 H   0  0  0  0  0  0
   35.6679    7.5245  -10.5156 H   0  0  0  0  0  0
   34.7656    7.5792   -8.3135 H   0  0  0  0  0  0
   35.7747    9.7060   -8.5686 H   0  0  0  0  0  0
   33.2084   10.6790   -9.9425 H   0  0  0  0  0  0
   34.5068   12.4218   -8.6722 H   0  0  0  0  0  0
   35.9843   11.9548   -9.5809 H   0  0  0  0  0  0
   32.3424    8.0825  -12.1060 H   0  0  0  0  0  0
   34.0149    6.0028  -11.6342 H   0  0  0  0  0  0
   32.3469    7.0846   -8.9354 H   0  0  0  0  0  0
   34.2155    9.5619   -6.5875 H   0  0  0  0  0  0
  1  2  1  0  0  0
  1  7  1  0  0  0
  1 11  1  0  0  0
  1 17  1  0  0  0
  2  3  1  0  0  0
  2  8  1  0  0  0
  2 18  1  0  0  0
  3  4  1  0  0  0
  3  9  1  0  0  0
  3 19  1  0  0  0
  4  5  1  0  0  0
  4 10  1  0  0  0
  4 20  1  0  0  0
  5  6  1  0  0  0
  5 11  1  0  0  0
  5 21  1  0  0  0
  6 12  1  0  0  0
  6 22  1  0  0  0
  6 23  1  0  0  0
  7 24  1  0  0  0
  8 25  1  0  0  0
  9 26  1  0  0  0
 10 27  1  0  0  0
 12 13  1  0  0  0
 13 14  1  0  0  0
 13 15  2  0  0  0
 13 16  1  0  0  0
M  CHG  2  14  -1  16  -1
M  END
> <s_m_source_file>
../2vvo_ligand.sdf

> <i_m_source_file_index>
1

> <s_epik_input>
W09IXVtDQEBIXTFbQ0BIXShbT0hdKVtDQEhdKFtPSF0pW0NASF0oW09IXSlbQ0BIXShPMSlbQ0gyXU9QKD1PKShbT0hdKVtPSF0=

> <s_epik_cmdline>
J2VwaWtfYXBwJywgJy1pbWFlJywgJ2xpZ2FuZF9wcm8ubWFlJywgJy1vbWFlJywgJ2xpZ2FuZF9wcmVwLm1hZScsICctbXMnLCAnMScsICctcGgnLCAnNycsICctcGh0JywgJzAuNScsICctbnQn

> <r_epik_Ionization_Penalty>
  0.1046

> <r_epik_Ionization_Penalty_Charging>
  0.1046

> <r_epik_Ionization_Penalty_Neutral>
  0.0000

> <r_epik_State_Penalty>
  0.0945

> <r_epik_Charging_Adjusted_Penalty>
0.19918344064553

> <i_epik_Tot_Q>
-2

> <i_epik_Tot_abs_Q>
2

> <s_epik_Chemistry_Notes>
This compound contains an acetal/aminal-like group ( X-CH(R)-Y where X, Y are N, S, or O) that may be acid/base labile, releasing an aldehyde.

$$$$
