2vvs_ligand
                    3D
 Schrodinger Suite 2020-3.
 44 45  0  0  1  0            999 V2000
  -11.0440  -11.0480    5.0140 C   0  0  0  0  0  0
  -10.1010  -10.6620    6.1550 C   0  0  0  0  0  0
  -10.0280   -9.4940    6.5560 O   0  0  0  0  0  0
   -9.3900  -11.6960    6.6290 N   0  0  0  0  0  0
   -8.4910  -11.6390    7.8050 C   0  0  2  0  0  0
   -9.3330  -11.3550    9.0850 C   0  0  1  0  0  0
   -9.6890  -12.5700    9.7800 O   0  0  0  0  0  0
   -8.6020  -10.3850   10.0360 C   0  0  2  0  0  0
   -9.3910  -10.0790   11.1690 O   0  0  0  0  0  0
   -8.2570   -9.0810    9.3020 C   0  0  1  0  0  0
   -7.7340   -8.0110   10.2590 C   0  0  0  0  0  0
   -6.3940   -8.2640   10.6250 O   0  0  0  0  0  0
   -7.3370   -9.3630    8.2000 O   0  0  0  0  0  0
   -7.2930  -10.6400    7.6750 C   0  0  0  0  0  0
   -6.1040  -11.0150    7.1650 N   0  0  0  0  0  0
   -5.0990  -10.0500    7.1720 O   0  0  0  0  0  0
   -3.8640  -10.4690    6.7480 C   0  0  0  0  0  0
   -3.6570  -11.6350    6.3820 O   0  0  0  0  0  0
   -2.9010   -9.5330    6.7790 N   0  0  0  0  0  0
   -1.6490   -9.7190    6.3480 C   0  0  0  0  0  0
   -1.0970  -10.9990    6.1970 C   0  0  0  0  0  0
    0.1960  -11.1490    5.7070 C   0  0  0  0  0  0
    0.9380  -10.0060    5.3760 C   0  0  0  0  0  0
    0.3880   -8.7220    5.5310 C   0  0  0  0  0  0
   -0.9140   -8.5850    6.0040 C   0  0  0  0  0  0
  -11.5931  -10.1572    4.6749 H   0  0  0  0  0  0
  -11.7580  -11.8058    5.3689 H   0  0  0  0  0  0
  -10.4590  -11.4586    4.1778 H   0  0  0  0  0  0
   -9.5116  -12.6384    6.0748 H   0  0  0  0  0  0
   -8.0456  -12.6446    7.8263 H   0  0  0  0  0  0
  -10.3055  -10.9323    8.7925 H   0  0  0  0  0  0
  -10.2188  -13.3734    9.2472 H   0  0  0  0  0  0
   -7.7090  -10.8714   10.4555 H   0  0  0  0  0  0
   -9.7418  -10.8859   11.8292 H   0  0  0  0  0  0
   -9.1526   -8.6601    8.8216 H   0  0  0  0  0  0
   -7.7845   -7.0264    9.7711 H   0  0  0  0  0  0
   -8.3505   -8.0008   11.1699 H   0  0  0  0  0  0
   -5.8731   -7.5807   11.3118 H   0  0  0  0  0  0
   -3.1195   -8.5321    7.1796 H   0  0  0  0  0  0
   -1.6826  -11.8786    6.4643 H   0  0  0  0  0  0
    0.6271  -12.1423    5.5819 H   0  0  0  0  0  0
    1.9531  -10.1147    4.9941 H   0  0  0  0  0  0
    0.9771   -7.8392    5.2825 H   0  0  0  0  0  0
   -1.3576   -7.5945    6.1052 H   0  0  0  0  0  0
  1  2  1  0  0  0
  1 26  1  0  0  0
  1 27  1  0  0  0
  1 28  1  0  0  0
  2  3  2  0  0  0
  2  4  1  0  0  0
  4  5  1  0  0  0
  4 29  1  0  0  0
  5  6  1  0  0  0
  5 14  1  0  0  0
  5 30  1  0  0  0
  6  7  1  0  0  0
  6  8  1  0  0  0
  6 31  1  0  0  0
  7 32  1  0  0  0
  8  9  1  0  0  0
  8 10  1  0  0  0
  8 33  1  0  0  0
  9 34  1  0  0  0
 10 11  1  0  0  0
 10 13  1  0  0  0
 10 35  1  0  0  0
 11 12  1  0  0  0
 11 36  1  0  0  0
 11 37  1  0  0  0
 12 38  1  0  0  0
 13 14  1  0  0  0
 14 15  2  0  0  0
 15 16  1  0  0  0
 16 17  1  0  0  0
 17 18  2  0  0  0
 17 19  1  0  0  0
 19 20  1  0  0  0
 19 39  1  0  0  0
 20 21  2  0  0  0
 20 25  1  0  0  0
 21 22  1  0  0  0
 21 40  1  0  0  0
 22 23  2  0  0  0
 22 41  1  0  0  0
 23 24  1  0  0  0
 23 42  1  0  0  0
 24 25  2  0  0  0
 24 43  1  0  0  0
 25 44  1  0  0  0
M  END
> <s_m_source_file>
../2vvs_ligand.sdf

> <i_m_source_file_index>
1

> <s_epik_input>
W0NIM11DKD1PKVtOSF1bQ0BASF0xW0NAQEhdKFtPSF0pW0NASF0oW09IXSlbQ0BASF0oW0NIMl1bT0hdKU9DXDE9Ti9PQyg9TylbTkhdYzJbY0hdW2NIXVtjSF1bY0hdW2NIXTI=

> <s_epik_cmdline>
J2VwaWtfYXBwJywgJy1pbWFlJywgJ2xpZ2FuZF9wcm8ubWFlJywgJy1vbWFlJywgJ2xpZ2FuZF9wcmVwLm1hZScsICctbXMnLCAnMScsICctcGgnLCAnNycsICctcGh0JywgJzAuNScsICctbnQn

> <r_lp_tautomer_probability>
1

> <r_epik_Ionization_Penalty>
  0.0000

> <r_epik_Ionization_Penalty_Charging>
  0.0000

> <r_epik_Ionization_Penalty_Neutral>
  0.0000

> <r_epik_State_Penalty>
 -0.0000

> <r_epik_Charging_Adjusted_Penalty>
0

> <i_epik_Tot_Q>
0

> <i_epik_Tot_abs_Q>
0

> <s_epik_Chemistry_Notes>
This compound has an imine and may undergo hydrolysis.

$$$$
