2vvt_ligand
                    3D
 Schrodinger Suite 2020-3.
 61 64  0  0  1  0            999 V2000
    8.8640   50.2700   72.4350 N   0  0  0  0  0  0
    9.5070   49.6880   73.4390 C   0  0  0  0  0  0
    9.5360   50.1640   74.6820 N   0  0  0  0  0  0
    8.8780   51.2950   74.9910 C   0  0  0  0  0  0
    8.2110   51.4060   72.6790 C   0  0  0  0  0  0
    8.1920   51.9570   73.9710 C   0  0  0  0  0  0
    7.4490   53.1140   73.9290 N   0  0  0  0  0  0
    7.0390   53.2710   72.7030 C   0  0  0  0  0  0
    7.4760   52.2360   71.9000 N   0  0  0  0  0  0
    8.9280   51.7990   76.2830 N   0  0  0  0  0  0
   10.1660   48.5220   73.2330 O   0  0  0  0  0  0
   10.0020   51.3580   77.1910 C   0  0  0  0  0  0
    9.7180   51.7460   78.6440 C   0  0  0  0  0  0
    8.3270   51.4670   79.0600 N   0  3  0  0  0  0
    8.0110   50.0400   78.8010 C   0  0  0  0  0  0
    6.6180   49.7380   79.3430 C   0  0  0  0  0  0
    6.7190   49.8160   80.7670 O   0  0  0  0  0  0
    6.9920   51.1800   81.1690 C   0  0  0  0  0  0
    8.2830   51.7150   80.5210 C   0  0  0  0  0  0
    9.7660   47.9670   71.9620 C   0  0  0  0  0  0
    8.5050   47.1230   72.0790 C   0  0  0  0  0  0
    8.4830   46.1990   70.8450 C   0  0  0  0  0  0
    7.1490   45.4610   70.8530 C   0  0  0  0  0  0
    7.2220   52.0410   70.4800 C   0  0  0  0  0  0
    6.2470   50.9190   70.1940 C   0  0  0  0  0  0
    4.9100   51.1080   70.4980 C   0  0  0  0  0  0
    3.9810   50.1180   70.2310 C   0  0  0  0  0  0
    4.3920   48.9340   69.6350 C   0  0  0  0  0  0
    5.7380   48.7360   69.3070 C   0  0  0  0  0  0
    6.6510   49.7380   69.5990 C   0  0  0  0  0  0
    4.5710   52.2800   71.0730 F   0  0  0  0  0  0
    7.9660   49.5950   69.3240 F   0  0  0  0  0  0
    6.4320   54.1076   72.3569 H   0  0  0  0  0  0
    8.1752   52.5215   76.6315 H   0  0  0  0  0  0
   10.0989   50.2635   77.1400 H   0  0  0  0  0  0
   10.9515   51.8246   76.8897 H   0  0  0  0  0  0
   10.3843   51.1800   79.3116 H   0  0  0  0  0  0
    9.8948   52.8235   78.7771 H   0  0  0  0  0  0
    7.6084   52.0943   78.5122 H   0  0  0  0  0  0
    8.0387   49.8490   77.7181 H   0  0  0  0  0  0
    8.7528   49.4029   79.3048 H   0  0  0  0  0  0
    5.9049   50.4805   78.9555 H   0  0  0  0  0  0
    6.3100   48.7318   79.0225 H   0  0  0  0  0  0
    6.1564   51.8266   80.8630 H   0  0  0  0  0  0
    7.1084   51.2239   82.2619 H   0  0  0  0  0  0
    9.1368   51.2166   81.0034 H   0  0  0  0  0  0
    8.3350   52.7972   80.7110 H   0  0  0  0  0  0
    9.5680   48.7831   71.2516 H   0  0  0  0  0  0
   10.5715   47.3280   71.5711 H   0  0  0  0  0  0
    8.5411   46.5369   73.0092 H   0  0  0  0  0  0
    7.6235   47.7809   72.0941 H   0  0  0  0  0  0
    8.5833   46.8042   69.9320 H   0  0  0  0  0  0
    9.3184   45.4860   70.9059 H   0  0  0  0  0  0
    7.0964   44.7893   69.9835 H   0  0  0  0  0  0
    6.3265   46.1898   70.8036 H   0  0  0  0  0  0
    7.0616   44.8715   71.7776 H   0  0  0  0  0  0
    6.8003   52.9628   70.0530 H   0  0  0  0  0  0
    8.1652   51.7982   69.9687 H   0  0  0  0  0  0
    2.9321   50.2672   70.4874 H   0  0  0  0  0  0
    3.6619   48.1534   69.4210 H   0  0  0  0  0  0
    6.0628   47.8110   68.8307 H   0  0  0  0  0  0
  1  2  1  0  0  0
  1  5  2  0  0  0
  2  3  2  0  0  0
  2 11  1  0  0  0
  3  4  1  0  0  0
  4  6  2  0  0  0
  4 10  1  0  0  0
  5  6  1  0  0  0
  5  9  1  0  0  0
  6  7  1  0  0  0
  7  8  2  0  0  0
  8  9  1  0  0  0
  8 33  1  0  0  0
  9 24  1  0  0  0
 10 12  1  0  0  0
 10 34  1  0  0  0
 11 20  1  0  0  0
 12 13  1  0  0  0
 12 35  1  0  0  0
 12 36  1  0  0  0
 13 14  1  0  0  0
 13 37  1  0  0  0
 13 38  1  0  0  0
 14 15  1  0  0  0
 14 19  1  0  0  0
 14 39  1  0  0  0
 15 16  1  0  0  0
 15 40  1  0  0  0
 15 41  1  0  0  0
 16 17  1  0  0  0
 16 42  1  0  0  0
 16 43  1  0  0  0
 17 18  1  0  0  0
 18 19  1  0  0  0
 18 44  1  0  0  0
 18 45  1  0  0  0
 19 46  1  0  0  0
 19 47  1  0  0  0
 20 21  1  0  0  0
 20 48  1  0  0  0
 20 49  1  0  0  0
 21 22  1  0  0  0
 21 50  1  0  0  0
 21 51  1  0  0  0
 22 23  1  0  0  0
 22 52  1  0  0  0
 22 53  1  0  0  0
 23 54  1  0  0  0
 23 55  1  0  0  0
 23 56  1  0  0  0
 24 25  1  0  0  0
 24 57  1  0  0  0
 24 58  1  0  0  0
 25 26  2  0  0  0
 25 30  1  0  0  0
 26 27  1  0  0  0
 26 31  1  0  0  0
 27 28  2  0  0  0
 27 59  1  0  0  0
 28 29  1  0  0  0
 28 60  1  0  0  0
 29 30  2  0  0  0
 29 61  1  0  0  0
 30 32  1  0  0  0
M  CHG  1  14   1
M  END
> <s_m_source_file>
../2vvt_ligand.sdf

> <i_m_source_file_index>
1

> <s_epik_input>
W0NIMl0xW0NIMl1PW0NIMl1bQ0gyXVtOSCtdMVtDSDJdW0NIMl1bTkhdYyhuYyhuMilPW0NIMl1bQ0gyXVtDSDJdW0NIM10pYyhjMjMpbltjSF1uM1tDSDJdYzRjKEYpW2NIXVtjSF1bY0hdYzRG

> <s_epik_cmdline>
J2VwaWtfYXBwJywgJy1pbWFlJywgJ2xpZ2FuZF9wcm8ubWFlJywgJy1vbWFlJywgJ2xpZ2FuZF9wcmVwLm1hZScsICctbXMnLCAnMScsICctcGgnLCAnNycsICctcGh0JywgJzAuNScsICctbnQn

> <r_lp_tautomer_probability>
0.999997216410988

> <r_epik_Ionization_Penalty>
  0.1654

> <r_epik_Ionization_Penalty_Charging>
  0.1653

> <r_epik_Ionization_Penalty_Neutral>
  0.0000

> <r_epik_State_Penalty>
  0.1547

> <r_epik_Charging_Adjusted_Penalty>
0.320009128358321

> <i_epik_Tot_Q>
1

> <i_epik_Tot_abs_Q>
1

$$$$
