2vw2_ligand
                    3D
 Schrodinger Suite 2020-3.
 30 30  0  0  1  0            999 V2000
   -7.8310   77.2760   20.2640 C   0  0  0  0  0  0
   -6.9230   77.0130   21.4710 C   0  0  0  0  0  0
   -5.6320   76.2430   21.1580 C   0  0  0  0  0  0
   -5.8500   74.9930   20.2930 C   0  0  0  0  0  0
   -4.8970   75.8610   22.3610 N   0  3  0  0  0  0
   -4.5790   76.7680   23.4500 C   0  0  0  0  0  0
   -3.2820   76.3610   24.1420 C   0  0  0  0  0  0
   -2.7870   77.4830   25.2760 S   0  0  0  0  0  0
   -3.8400   77.7170   26.2940 O   0  5  0  0  0  0
   -2.4810   78.7650   24.6090 O   0  0  0  0  0  0
   -1.5650   76.9580   25.9240 O   0  0  0  0  0  0
   -7.0830   75.0150   19.3840 C   0  0  0  0  0  0
   -7.5240   76.4300   19.0280 C   0  0  0  0  0  0
   -8.8754   77.0658   20.5381 H   0  0  0  0  0  0
   -7.7372   78.3281   19.9569 H   0  0  0  0  0  0
   -6.6175   77.9716   21.9157 H   0  0  0  0  0  0
   -7.4696   76.4196   22.2187 H   0  0  0  0  0  0
   -4.9913   76.9565   20.6191 H   0  0  0  0  0  0
   -4.9836   74.8499   19.6306 H   0  0  0  0  0  0
   -5.9641   74.1128   20.9428 H   0  0  0  0  0  0
   -5.4445   75.0658   22.8882 H   0  0  0  0  0  0
   -3.8987   75.4944   22.0799 H   0  0  0  0  0  0
   -4.4623   77.7881   23.0553 H   0  0  0  0  0  0
   -5.3927   76.7521   24.1900 H   0  0  0  0  0  0
   -3.4268   75.3994   24.6561 H   0  0  0  0  0  0
   -2.4829   76.2596   23.3929 H   0  0  0  0  0  0
   -6.8568   74.4860   18.4465 H   0  0  0  0  0  0
   -7.9222   74.5177   19.8923 H   0  0  0  0  0  0
   -8.4249   76.3563   18.4011 H   0  0  0  0  0  0
   -6.7144   76.9022   18.4523 H   0  0  0  0  0  0
  1  2  1  0  0  0
  1 13  1  0  0  0
  1 14  1  0  0  0
  1 15  1  0  0  0
  2  3  1  0  0  0
  2 16  1  0  0  0
  2 17  1  0  0  0
  3  4  1  0  0  0
  3  5  1  0  0  0
  3 18  1  0  0  0
  4 12  1  0  0  0
  4 19  1  0  0  0
  4 20  1  0  0  0
  5  6  1  0  0  0
  5 21  1  0  0  0
  5 22  1  0  0  0
  6  7  1  0  0  0
  6 23  1  0  0  0
  6 24  1  0  0  0
  7  8  1  0  0  0
  7 25  1  0  0  0
  7 26  1  0  0  0
  8  9  1  0  0  0
  8 10  2  0  0  0
  8 11  2  0  0  0
 12 13  1  0  0  0
 12 27  1  0  0  0
 12 28  1  0  0  0
 13 29  1  0  0  0
 13 30  1  0  0  0
M  CHG  2   5   1   9  -1
M  END
> <s_m_source_file>
../2vw2_ligand.sdf

> <i_m_source_file_index>
1

> <s_epik_input>
W0NIMl0xW0NIMl1bQ0gyXVtDSDJdW0NIMl1bQ0hdMVtOSDIrXVtDSDJdW0NIMl1TKD1PKSg9TylbT0hd

> <s_epik_cmdline>
J2VwaWtfYXBwJywgJy1pbWFlJywgJ2xpZ2FuZF9wcm8ubWFlJywgJy1vbWFlJywgJ2xpZ2FuZF9wcmVwLm1hZScsICctbXMnLCAnMScsICctcGgnLCAnNycsICctcGh0JywgJzAuNScsICctbnQn

> <r_lp_tautomer_probability>
1

> <r_epik_Ionization_Penalty>
  0.0005

> <r_epik_Ionization_Penalty_Charging>
  0.0005

> <r_epik_Ionization_Penalty_Neutral>
  0.0000

> <r_epik_State_Penalty>
 -0.0000

> <r_epik_Charging_Adjusted_Penalty>
0.000454980191812922

> <i_epik_Tot_Q>
0

> <i_epik_Tot_abs_Q>
2

$$$$
