2vwc_ligand
                    3D
 Schrodinger Suite 2020-3.
 82 83  0  0  1  0            999 V2000
  -26.4460   34.5140   -3.4630 O   0  0  0  0  0  0
  -25.8930   33.6480   -4.1770 C   0  0  0  0  0  0
  -25.3910   32.3660   -3.5240 C   0  0  0  0  0  0
  -24.8060   31.4320   -4.2890 C   0  0  0  0  0  0
  -24.6140   31.6580   -5.7960 C   0  0  0  0  0  0
  -24.0520   30.7790   -6.5010 O   0  0  0  0  0  0
  -25.1020   32.9530   -6.4350 C   0  0  0  0  0  0
  -25.5610   32.1590   -2.1900 N   0  0  0  0  0  0
  -25.0550   32.9260   -1.1950 C   0  0  0  0  0  0
  -25.2220   32.5990   -0.0230 O   0  0  0  0  0  0
  -24.3100   34.1790   -1.4180 C   0  0  0  0  0  0
  -24.8420   35.4350   -0.7710 C   0  0  0  0  0  0
  -23.1680   34.1910   -2.1360 C   0  0  0  0  0  0
  -22.3940   35.4120   -2.4070 C   0  0  0  0  0  0
  -21.0990   35.4660   -2.7310 C   0  0  0  0  0  0
  -20.3170   34.1840   -2.7450 C   0  0  2  0  0  0
  -19.2660   34.1480   -1.6300 C   0  0  0  0  0  0
  -25.6990   33.8940   -5.6720 C   0  0  0  0  0  0
  -26.1810   35.1780   -6.2560 C   0  0  2  0  0  0
  -26.5670   34.9870   -7.6270 O   0  0  0  0  0  0
  -27.9240   34.5370   -7.7490 C   0  0  0  0  0  0
  -25.1260   36.2950   -6.2000 C   0  0  1  0  0  0
  -24.5550   36.6200   -4.8160 C   0  0  0  0  0  0
  -24.0760   36.1920   -7.3110 C   0  0  0  0  0  0
  -22.6890   36.7020   -6.9670 C   0  0  2  0  0  0
  -22.8600   38.1010   -7.2780 O   0  0  0  0  0  0
  -21.8710   39.0060   -6.7710 C   0  0  0  0  0  0
  -21.6100   36.3260   -7.9610 C   0  0  2  0  0  0
  -22.2180   36.1120   -9.2320 O   0  0  0  0  0  0
  -21.7340   37.0370  -10.2280 C   0  0  0  0  0  0
  -20.9250   34.9900   -7.5790 C   0  0  1  0  0  0
  -19.8700   34.5870   -8.6070 C   0  0  0  0  0  0
  -20.2230   34.9200   -6.2300 C   0  0  0  0  0  0
  -20.4220   33.8670   -5.4070 C   0  0  0  0  0  0
  -21.3380   32.7340   -5.7820 C   0  0  0  0  0  0
  -19.7430   33.6930   -4.0860 C   0  0  2  0  0  0
  -18.7630   32.6480   -3.9900 O   0  0  0  0  0  0
  -17.5420   32.6660   -4.7780 C   0  0  0  0  0  0
  -16.8250   31.6780   -4.6510 O   0  0  0  0  0  0
  -17.2090   33.6770   -5.5730 N   0  0  0  0  0  0
  -24.4574   30.4911   -3.8382 H   0  0  0  0  0  0
  -24.9693   33.1225   -7.5137 H   0  0  0  0  0  0
  -26.1559   31.3035   -1.8376 H   0  0  0  0  0  0
  -25.7764   35.2053   -0.2380 H   0  0  0  0  0  0
  -25.0379   36.1915   -1.5452 H   0  0  0  0  0  0
  -24.0993   35.8232   -0.0585 H   0  0  0  0  0  0
  -22.7707   33.2539   -2.5531 H   0  0  0  0  0  0
  -22.9790   36.3397   -2.3226 H   0  0  0  0  0  0
  -20.6337   36.4316   -2.9782 H   0  0  0  0  0  0
  -21.1224   33.4627   -2.5425 H   0  0  0  0  0  0
  -19.7148   34.5053   -0.6914 H   0  0  0  0  0  0
  -18.4203   34.7965   -1.9023 H   0  0  0  0  0  0
  -18.9087   33.1163   -1.4961 H   0  0  0  0  0  0
  -27.0791   35.4573   -5.6856 H   0  0  0  0  0  0
  -28.1725   34.4055   -8.8125 H   0  0  0  0  0  0
  -28.5990   35.2830   -7.3042 H   0  0  0  0  0  0
  -28.0407   33.5775   -7.2238 H   0  0  0  0  0  0
  -25.7020   37.2058   -6.4208 H   0  0  0  0  0  0
  -25.3749   36.6743   -4.0846 H   0  0  0  0  0  0
  -24.0319   37.5870   -4.8530 H   0  0  0  0  0  0
  -23.8482   35.8320   -4.5167 H   0  0  0  0  0  0
  -23.9501   35.1381   -7.5999 H   0  0  0  0  0  0
  -24.4070   36.7744   -8.1835 H   0  0  0  0  0  0
  -22.3950   36.3871   -5.9549 H   0  0  0  0  0  0
  -22.1206   40.0320   -7.0791 H   0  0  0  0  0  0
  -20.8839   38.7326   -7.1721 H   0  0  0  0  0  0
  -21.8495   38.9479   -5.6727 H   0  0  0  0  0  0
  -20.8975   37.1608   -8.0357 H   0  0  0  0  0  0
  -22.2299   36.8340  -11.1887 H   0  0  0  0  0  0
  -20.6468   36.9156  -10.3436 H   0  0  0  0  0  0
  -21.9563   38.0666   -9.9110 H   0  0  0  0  0  0
  -21.7810   34.3009   -7.5303 H   0  0  0  0  0  0
  -20.3103   34.6152   -9.6146 H   0  0  0  0  0  0
  -19.5166   33.5682   -8.3896 H   0  0  0  0  0  0
  -19.0232   35.2873   -8.5572 H   0  0  0  0  0  0
  -19.5495   35.7352   -5.9271 H   0  0  0  0  0  0
  -21.7942   32.9402   -6.7615 H   0  0  0  0  0  0
  -22.1280   32.6347   -5.0231 H   0  0  0  0  0  0
  -20.7614   31.7988   -5.8356 H   0  0  0  0  0  0
  -19.1201   34.5601   -4.3507 H   0  0  0  0  0  0
  -17.8750   34.5478   -5.6637 H   0  0  0  0  0  0
  -16.2673   33.6433   -6.1405 H   0  0  0  0  0  0
  1  2  2  0  0  0
  2  3  1  0  0  0
  2 18  1  0  0  0
  3  4  2  0  0  0
  3  8  1  0  0  0
  4  5  1  0  0  0
  4 41  1  0  0  0
  5  6  2  0  0  0
  5  7  1  0  0  0
  7 18  2  0  0  0
  7 42  1  0  0  0
  8  9  1  0  0  0
  8 43  1  0  0  0
  9 10  2  0  0  0
  9 11  1  0  0  0
 11 12  1  0  0  0
 11 13  2  0  0  0
 12 44  1  0  0  0
 12 45  1  0  0  0
 12 46  1  0  0  0
 13 14  1  0  0  0
 13 47  1  0  0  0
 14 15  2  0  0  0
 14 48  1  0  0  0
 15 16  1  0  0  0
 15 49  1  0  0  0
 16 17  1  0  0  0
 16 36  1  0  0  0
 16 50  1  0  0  0
 17 51  1  0  0  0
 17 52  1  0  0  0
 17 53  1  0  0  0
 18 19  1  0  0  0
 19 20  1  0  0  0
 19 22  1  0  0  0
 19 54  1  0  0  0
 20 21  1  0  0  0
 21 55  1  0  0  0
 21 56  1  0  0  0
 21 57  1  0  0  0
 22 23  1  0  0  0
 22 24  1  0  0  0
 22 58  1  0  0  0
 23 59  1  0  0  0
 23 60  1  0  0  0
 23 61  1  0  0  0
 24 25  1  0  0  0
 24 62  1  0  0  0
 24 63  1  0  0  0
 25 26  1  0  0  0
 25 28  1  0  0  0
 25 64  1  0  0  0
 26 27  1  0  0  0
 27 65  1  0  0  0
 27 66  1  0  0  0
 27 67  1  0  0  0
 28 29  1  0  0  0
 28 31  1  0  0  0
 28 68  1  0  0  0
 29 30  1  0  0  0
 30 69  1  0  0  0
 30 70  1  0  0  0
 30 71  1  0  0  0
 31 32  1  0  0  0
 31 33  1  0  0  0
 31 72  1  0  0  0
 32 73  1  0  0  0
 32 74  1  0  0  0
 32 75  1  0  0  0
 33 34  2  0  0  0
 33 76  1  0  0  0
 34 35  1  0  0  0
 34 36  1  0  0  0
 35 77  1  0  0  0
 35 78  1  0  0  0
 35 79  1  0  0  0
 36 37  1  0  0  0
 36 80  1  0  0  0
 37 38  1  0  0  0
 38 39  2  0  0  0
 38 40  1  0  0  0
 40 81  1  0  0  0
 40 82  1  0  0  0
M  END
> <s_m_source_file>
../2vwc_ligand.sdf

> <i_m_source_file_index>
1

> <s_epik_input>
QzEyPVtDSF1DKD1PKVtDSF09QyhDMT1PKVtDQEhdKE9bQ0gzXSlbQ0BASF0oW0NIM10pW0NIMl1bQ0BIXShPW0NIM10pW0NASF0oT1tDSDNdKVtDQEBIXShbQ0gzXSkvW0NIXT1DKFxbQ0gzXSlbQ0BIXShPQyg9TylbTkgyXSlbQ0BASF0oW0NIM10pL1tDSF09W0NIXVxbQ0hdPUMoW0NIM10pXEMoPU8pW05IXTI=

> <s_epik_cmdline>
J2VwaWtfYXBwJywgJy1pbWFlJywgJ2xpZ2FuZF9wcm8ubWFlJywgJy1vbWFlJywgJ2xpZ2FuZF9wcmVwLm1hZScsICctbXMnLCAnMScsICctcGgnLCAnNycsICctcGh0JywgJzAuNScsICctbnQn

> <r_lp_tautomer_probability>
1

> <r_epik_Ionization_Penalty>
  0.0263

> <r_epik_Ionization_Penalty_Charging>
  0.0000

> <r_epik_Ionization_Penalty_Neutral>
  0.0263

> <r_epik_State_Penalty>
 -0.0000

> <r_epik_Charging_Adjusted_Penalty>
0

> <i_epik_Tot_Q>
0

> <i_epik_Tot_abs_Q>
0

> <s_epik_Chemistry_Notes>
This compound has an ester and may undergo hydrolysis at high or low pH.

$$$$
