2vwf_ligand
                    3D
 Schrodinger Suite 2020-3.
239242  0  0  1  0            999 V2000
  -19.8790    6.3070    2.2950 N   0  3  0  0  0  0
  -18.6160    7.0980    2.3440 C   0  0  2  0  0  0
  -17.4270    6.1790    2.3830 C   0  0  0  0  0  0
  -17.3880    5.2760    3.1910 O   0  0  0  0  0  0
  -18.5670    8.0220    3.5580 C   0  0  2  0  0  0
  -19.7050    9.0460    3.4540 C   0  0  0  0  0  0
  -17.2010    8.6990    3.6610 C   0  0  0  0  0  0
  -19.5680   10.2050    4.3400 C   0  0  0  0  0  0
  -16.4680    6.3980    1.4970 N   0  0  0  0  0  0
  -15.2990    5.5300    1.4380 C   0  0  2  0  0  0
  -14.1330    6.2210    0.7760 C   0  0  0  0  0  0
  -14.3210    6.8940   -0.2390 O   0  0  0  0  0  0
  -15.6000    4.2980    0.6190 C   0  0  0  0  0  0
  -14.5440    3.2640    0.7700 C   0  0  0  0  0  0
  -14.6990    2.1200   -0.2110 C   0  0  0  0  0  0
  -15.6870    2.0310   -0.9600 O   0  0  0  0  0  0
  -13.6980    1.2470   -0.2330 N   0  0  0  0  0  0
  -12.9230    6.0440    1.3230 N   0  0  0  0  0  0
  -11.7770    6.7010    0.7030 C   0  0  2  0  0  0
  -11.5910    6.2720   -0.7320 C   0  0  0  0  0  0
  -11.8150    5.1190   -1.0530 O   0  0  0  0  0  0
  -10.5830    6.2470    1.5580 C   0  0  0  0  0  0
  -11.1370    5.8410    2.8610 C   0  0  0  0  0  0
  -12.5500    5.3260    2.5610 C   0  0  0  0  0  0
  -11.2050    7.1860   -1.6140 N   0  0  0  0  0  0
  -10.9250    6.8130   -3.0110 C   0  0  2  0  0  0
   -9.7760    5.8370   -3.1960 C   0  0  0  0  0  0
   -8.9140    5.7570   -2.3660 O   0  0  0  0  0  0
  -10.5230    8.1410   -3.6520 C   0  0  0  0  0  0
  -10.9970    9.1910   -2.7800 C   0  0  0  0  0  0
  -11.0850    8.6390   -1.3990 C   0  0  0  0  0  0
   -9.7540    5.1010   -4.3090 N   0  0  0  0  0  0
   -8.6010    4.2320   -4.5330 C   0  0  2  0  0  0
   -7.3970    5.1130   -4.7420 C   0  0  0  0  0  0
   -7.5320    6.1920   -5.3040 O   0  0  0  0  0  0
   -8.9650    3.4830   -5.8310 C   0  0  0  0  0  0
  -10.0380    4.2640   -6.4410 C   0  0  0  0  0  0
  -10.7680    4.9890   -5.3760 C   0  0  0  0  0  0
   -6.2390    4.6480   -4.2710 N   0  0  0  0  0  0
   -4.9690    5.3530   -4.3820 C   0  0  2  0  0  0
   -4.2440    4.8410   -5.6390 C   0  0  0  0  0  0
   -4.0370    3.6180   -5.7980 O   0  0  0  0  0  0
   -4.1050    5.1520   -3.1240 C   0  0  0  0  0  0
   -2.7790    5.8940   -3.2330 C   0  0  0  0  0  0
   -4.9050    5.5710   -1.8420 C   0  0  0  0  0  0
   -3.8770    5.7780   -6.5040 N   0  0  0  0  0  0
   -3.3850    5.4710   -7.8380 C   0  0  2  0  0  0
   -1.9070    5.7490   -7.8920 C   0  0  0  0  0  0
   -1.4540    6.8030   -8.3470 O   0  0  0  0  0  0
   -4.1590    6.3270   -8.8500 C   0  0  0  0  0  0
   -5.6470    6.1320   -8.7290 C   0  0  0  0  0  0
   -6.1040    4.9880   -8.5990 O   0  0  0  0  0  0
   -6.4030    7.2660   -8.6740 N   0  0  0  0  0  0
   -1.1170    4.7820   -7.4140 N   0  0  0  0  0  0
    0.3030    5.0380   -7.2270 C   0  0  2  0  0  0
    1.1100    5.0810   -8.5330 C   0  0  0  0  0  0
    2.1850    5.6790   -8.5630 O   0  0  0  0  0  0
    0.9230    4.0540   -6.2270 C   0  0  0  0  0  0
    0.4520    4.3160   -4.8200 C   0  0  0  0  0  0
    1.2100    3.4870   -3.7540 C   0  0  0  0  0  0
    0.9590    4.0660   -2.4260 N   0  0  0  0  0  0
   -0.1190    3.8180   -1.6900 C   0  0  0  0  0  0
   -0.2750    4.4600   -0.5880 N   0  0  0  0  0  0
   -1.0690    2.9610   -2.0600 N   0  0  0  0  0  0
    0.5710    4.5560   -9.6410 N   0  0  0  0  0  0
    1.3010    4.6260  -10.8940 C   0  0  2  0  0  0
    1.2980    6.0500  -11.4340 C   0  0  0  0  0  0
    2.0780    6.3790  -12.3170 O   0  0  0  0  0  0
    0.7300    3.6740  -11.9170 C   0  0  0  0  0  0
    0.9840    2.2510  -11.6010 C   0  0  0  0  0  0
    2.0700    1.8540  -11.1340 O   0  0  0  0  0  0
    0.0250    1.4330  -11.9490 N   0  0  0  0  0  0
    0.4570    6.9070  -10.8660 N   0  0  0  0  0  0
    0.3880    8.3060  -11.2930 C   0  0  2  0  0  0
    1.2600    9.2470  -10.4440 C   0  0  0  0  0  0
    1.2460   10.4910  -10.6240 O   0  0  0  0  0  0
   -1.0490    8.8090  -11.2700 C   0  0  0  0  0  0
   -2.0330    8.0600  -12.1880 C   0  0  0  0  0  0
   -3.4000    8.7210  -12.1070 C   0  0  0  0  0  0
   -1.4990    7.9730  -13.6170 C   0  0  0  0  0  0
    2.0530    8.6680   -9.5390 N   0  0  0  0  0  0
    2.8290    9.5090   -8.6190 C   0  0  2  0  0  0
    3.8970   10.2470   -9.3610 C   0  0  0  0  0  0
    4.5370    9.6950  -10.2520 O   0  0  0  0  0  0
    3.4530    8.6850   -7.4830 C   0  0  0  0  0  0
    2.4450    8.2600   -6.4330 C   0  0  0  0  0  0
    2.9850    7.3280   -5.3690 C   0  0  0  0  0  0
    3.8860    8.0300   -4.4420 C   0  0  0  0  0  0
    4.4180    7.1200   -3.4710 N   0  3  0  0  0  0
    4.1110   11.5170   -8.9960 N   0  0  0  0  0  0
    5.0550   12.3750   -9.7290 C   0  0  2  0  0  0
    6.5100   12.0710   -9.4560 C   0  0  0  0  0  0
    7.3840   12.6140  -10.1440 O   0  0  0  0  0  0
    4.6660   13.7790   -9.2710 C   0  0  0  0  0  0
    4.0490   13.5580   -7.9150 C   0  0  0  0  0  0
    3.3590   12.2490   -7.9690 C   0  0  0  0  0  0
    6.8040   11.2340   -8.4610 N   0  0  0  0  0  0
    8.1750   10.7760   -8.2680 C   0  0  2  0  0  0
    8.4750    9.5450   -9.1260 C   0  0  0  0  0  0
    9.6130    9.0630   -9.0980 O   0  0  0  0  0  0
    8.4710   10.5520   -6.7840 C   0  0  0  0  0  0
    7.5680    9.5470   -6.1450 C   0  0  0  0  0  0
    7.8400    9.2370   -4.9780 O   0  0  0  0  0  0
    6.5890    9.0530   -6.7780 O   0  0  0  0  0  0
    7.4730    9.0540   -9.8880 N   0  0  0  0  0  0
    7.6540    8.0090  -10.9390 C   0  0  2  0  0  0
    7.8240    8.6430  -12.3220 C   0  0  0  0  0  0
    8.4480    9.7100  -12.4440 O   0  0  0  0  0  0
    6.4610    7.0470  -11.0130 C   0  0  0  0  0  0
    6.5260    5.7800  -10.1980 C   0  0  0  0  0  0
    5.8390    5.9050   -8.8800 C   0  0  0  0  0  0
    5.2820    4.6410   -8.3750 N   0  0  0  0  0  0
    5.0340    4.3660   -7.0980 C   0  0  0  0  0  0
    5.3310    5.2750   -6.1680 N   0  0  0  0  0  0
    4.5310    3.1580   -6.7200 N   0  0  0  0  0  0
  -19.8707    5.6576    1.4072 H   0  0  0  0  0  0
  -20.7384    6.9915    2.2407 H   0  0  0  0  0  0
  -19.9596    5.6884    3.2010 H   0  0  0  0  0  0
  -18.5969    7.6992    1.4230 H   0  0  0  0  0  0
  -18.7025    7.4339    4.4776 H   0  0  0  0  0  0
  -19.7551    9.4353    2.4264 H   0  0  0  0  0  0
  -20.6589    8.5613    3.7094 H   0  0  0  0  0  0
  -16.4161    7.9318    3.7334 H   0  0  0  0  0  0
  -17.1744    9.3365    4.5570 H   0  0  0  0  0  0
  -17.0292    9.3160    2.7667 H   0  0  0  0  0  0
  -20.4248   10.8797    4.1962 H   0  0  0  0  0  0
  -18.6364   10.7396    4.1029 H   0  0  0  0  0  0
  -19.5401    9.8656    5.3860 H   0  0  0  0  0  0
  -16.5599    7.2449    0.8011 H   0  0  0  0  0  0
  -15.0746    5.2887    2.4875 H   0  0  0  0  0  0
  -16.5568    3.8650    0.9462 H   0  0  0  0  0  0
  -15.6660    4.5717   -0.4444 H   0  0  0  0  0  0
  -13.5574    3.7202    0.6014 H   0  0  0  0  0  0
  -14.5848    2.8438    1.7857 H   0  0  0  0  0  0
  -12.8455    1.3704    0.4511 H   0  0  0  0  0  0
  -13.7216    0.4007   -0.9353 H   0  0  0  0  0  0
  -11.9422    7.7882    0.6748 H   0  0  0  0  0  0
  -10.0779    5.4038    1.0641 H   0  0  0  0  0  0
   -9.8758    7.0817    1.6728 H   0  0  0  0  0  0
  -10.5060    5.0531    3.2982 H   0  0  0  0  0  0
  -11.1601    6.7091    3.5362 H   0  0  0  0  0  0
  -13.2648    5.5754    3.3590 H   0  0  0  0  0  0
  -12.5702    4.2418    2.3763 H   0  0  0  0  0  0
  -11.8151    6.3053   -3.4109 H   0  0  0  0  0  0
   -9.4284    8.1833   -3.7522 H   0  0  0  0  0  0
  -10.9857    8.2230   -4.6466 H   0  0  0  0  0  0
  -10.2930   10.0357   -2.8070 H   0  0  0  0  0  0
  -11.9879    9.5287   -3.1177 H   0  0  0  0  0  0
  -11.9709    9.0041   -0.8587 H   0  0  0  0  0  0
  -10.1821    8.8487   -0.8068 H   0  0  0  0  0  0
   -8.3932    3.5675   -3.6813 H   0  0  0  0  0  0
   -8.0820    3.4322   -6.4850 H   0  0  0  0  0  0
   -9.2983    2.4639   -5.5852 H   0  0  0  0  0  0
   -9.6083    4.9835   -7.1535 H   0  0  0  0  0  0
  -10.7266    3.5896   -6.9712 H   0  0  0  0  0  0
  -11.6370    4.4299   -4.9988 H   0  0  0  0  0  0
  -11.0861    5.9951   -5.6867 H   0  0  0  0  0  0
   -6.2824    3.6679   -3.7734 H   0  0  0  0  0  0
   -5.2097    6.4230   -4.4665 H   0  0  0  0  0  0
   -3.8405    4.0863   -3.0575 H   0  0  0  0  0  0
   -2.2520    5.5713   -4.1430 H   0  0  0  0  0  0
   -2.1599    5.6699   -2.3518 H   0  0  0  0  0  0
   -2.9676    6.9766   -3.2829 H   0  0  0  0  0  0
   -5.8524    5.0135   -1.8025 H   0  0  0  0  0  0
   -5.1157    6.6500   -1.8777 H   0  0  0  0  0  0
   -4.3080    5.3434   -0.9466 H   0  0  0  0  0  0
   -3.9574    6.8245   -6.1748 H   0  0  0  0  0  0
   -3.5425    4.4007   -8.0371 H   0  0  0  0  0  0
   -3.9359    7.3902   -8.6774 H   0  0  0  0  0  0
   -3.8574    6.0502   -9.8710 H   0  0  0  0  0  0
   -5.9279    8.2503   -8.7983 H   0  0  0  0  0  0
   -7.4878    7.1962   -8.5053 H   0  0  0  0  0  0
   -1.5360    3.7965   -7.1625 H   0  0  0  0  0  0
    0.2971    6.0551   -6.8081 H   0  0  0  0  0  0
    0.6404    3.0267   -6.5003 H   0  0  0  0  0  0
    2.0185    4.1509   -6.2484 H   0  0  0  0  0  0
    0.5971    5.3789   -4.5767 H   0  0  0  0  0  0
   -0.6154    4.0634   -4.7376 H   0  0  0  0  0  0
    0.8538    2.4465   -3.7773 H   0  0  0  0  0  0
    2.2883    3.5103   -3.9699 H   0  0  0  0  0  0
    1.6907    4.7553   -1.9793 H   0  0  0  0  0  0
    0.4917    5.1750   -0.2547 H   0  0  0  0  0  0
   -0.9651    2.3960   -2.9981 H   0  0  0  0  0  0
   -1.9576    2.8182   -1.4275 H   0  0  0  0  0  0
   -0.4173    4.0743   -9.6064 H   0  0  0  0  0  0
    2.3261    4.3100  -10.6503 H   0  0  0  0  0  0
   -0.3600    3.8099  -11.9762 H   0  0  0  0  0  0
    1.1790    3.8795  -12.8999 H   0  0  0  0  0  0
   -0.9161    1.8306  -12.3567 H   0  0  0  0  0  0
    0.1594    0.3473  -11.8341 H   0  0  0  0  0  0
   -0.1966    6.5456  -10.0584 H   0  0  0  0  0  0
    0.7802    8.2704  -12.3201 H   0  0  0  0  0  0
   -1.4516    8.7221  -10.2500 H   0  0  0  0  0  0
   -1.0738    9.8625  -11.5854 H   0  0  0  0  0  0
   -2.1517    7.0200  -11.8500 H   0  0  0  0  0  0
   -3.7296    8.7543  -11.0581 H   0  0  0  0  0  0
   -4.1230    8.1420  -12.7004 H   0  0  0  0  0  0
   -3.3363    9.7449  -12.5040 H   0  0  0  0  0  0
   -0.5119    7.4877  -13.6106 H   0  0  0  0  0  0
   -1.4070    8.9858  -14.0363 H   0  0  0  0  0  0
   -2.1937    7.3829  -14.2327 H   0  0  0  0  0  0
    2.1282    7.5722   -9.4786 H   0  0  0  0  0  0
    2.1120   10.2346   -8.2073 H   0  0  0  0  0  0
    3.9063    7.7727   -7.8980 H   0  0  0  0  0  0
    4.2270    9.2824   -6.9791 H   0  0  0  0  0  0
    2.0639    9.1492   -5.9094 H   0  0  0  0  0  0
    1.6096    7.7342   -6.9183 H   0  0  0  0  0  0
    2.1488    6.9087   -4.7902 H   0  0  0  0  0  0
    3.5458    6.5114   -5.8471 H   0  0  0  0  0  0
    4.7182    8.4758   -5.0066 H   0  0  0  0  0  0
    3.3302    8.8232   -3.9206 H   0  0  0  0  0  0
    5.0881    7.6629   -2.7882 H   0  0  0  0  0  0
    4.9811    6.3257   -3.9828 H   0  0  0  0  0  0
    3.5931    6.6730   -2.8968 H   0  0  0  0  0  0
    4.9649   12.1962  -10.8106 H   0  0  0  0  0  0
    5.5652   14.4105   -9.2206 H   0  0  0  0  0  0
    3.9524   14.2136   -9.9865 H   0  0  0  0  0  0
    4.8388   13.5525   -7.1493 H   0  0  0  0  0  0
    3.3358   14.3675   -7.7003 H   0  0  0  0  0  0
    2.3075   12.3393   -8.2791 H   0  0  0  0  0  0
    3.4145   11.7036   -7.0153 H   0  0  0  0  0  0
    6.0084   10.8888   -7.7843 H   0  0  0  0  0  0
    8.8136   11.5975   -8.6248 H   0  0  0  0  0  0
    9.5034   10.1910   -6.6665 H   0  0  0  0  0  0
    8.3496   11.4996   -6.2388 H   0  0  0  0  0  0
    5.9354    8.3145   -6.2908 H   0  0  0  0  0  0
    6.4743    9.4729   -9.6951 H   0  0  0  0  0  0
    8.5618    7.4684  -10.6329 H   0  0  0  0  0  0
    7.3933    8.1533  -13.2079 H   0  0  0  0  0  0
    5.5521    7.5629  -10.6698 H   0  0  0  0  0  0
    6.3229    6.7133  -12.0520 H   0  0  0  0  0  0
    6.0428    4.9621  -10.7526 H   0  0  0  0  0  0
    7.5777    5.5213  -10.0056 H   0  0  0  0  0  0
    6.5536    6.2692   -8.1272 H   0  0  0  0  0  0
    5.0043    6.6161   -8.9675 H   0  0  0  0  0  0
    5.0358    3.8296   -9.0757 H   0  0  0  0  0  0
    5.7376    6.2530   -6.4649 H   0  0  0  0  0  0
    4.2835    2.4029   -7.4806 H   0  0  0  0  0  0
    4.3723    2.9375   -5.6541 H   0  0  0  0  0  0
  1  2  1  0  0  0
  1116  1  0  0  0
  1117  1  0  0  0
  1118  1  0  0  0
  2  3  1  0  0  0
  2  5  1  0  0  0
  2119  1  0  0  0
  3  4  2  0  0  0
  3  9  1  0  0  0
  5  6  1  0  0  0
  5  7  1  0  0  0
  5120  1  0  0  0
  6  8  1  0  0  0
  6121  1  0  0  0
  6122  1  0  0  0
  7123  1  0  0  0
  7124  1  0  0  0
  7125  1  0  0  0
  8126  1  0  0  0
  8127  1  0  0  0
  8128  1  0  0  0
  9 10  1  0  0  0
  9129  1  0  0  0
 10 11  1  0  0  0
 10 13  1  0  0  0
 10130  1  0  0  0
 11 12  2  0  0  0
 11 18  1  0  0  0
 13 14  1  0  0  0
 13131  1  0  0  0
 13132  1  0  0  0
 14 15  1  0  0  0
 14133  1  0  0  0
 14134  1  0  0  0
 15 16  2  0  0  0
 15 17  1  0  0  0
 17135  1  0  0  0
 17136  1  0  0  0
 18 19  1  0  0  0
 18 24  1  0  0  0
 19 20  1  0  0  0
 19 22  1  0  0  0
 19137  1  0  0  0
 20 21  2  0  0  0
 20 25  1  0  0  0
 22 23  1  0  0  0
 22138  1  0  0  0
 22139  1  0  0  0
 23 24  1  0  0  0
 23140  1  0  0  0
 23141  1  0  0  0
 24142  1  0  0  0
 24143  1  0  0  0
 25 26  1  0  0  0
 25 31  1  0  0  0
 26 27  1  0  0  0
 26 29  1  0  0  0
 26144  1  0  0  0
 27 28  2  0  0  0
 27 32  1  0  0  0
 29 30  1  0  0  0
 29145  1  0  0  0
 29146  1  0  0  0
 30 31  1  0  0  0
 30147  1  0  0  0
 30148  1  0  0  0
 31149  1  0  0  0
 31150  1  0  0  0
 32 33  1  0  0  0
 32 38  1  0  0  0
 33 34  1  0  0  0
 33 36  1  0  0  0
 33151  1  0  0  0
 34 35  2  0  0  0
 34 39  1  0  0  0
 36 37  1  0  0  0
 36152  1  0  0  0
 36153  1  0  0  0
 37 38  1  0  0  0
 37154  1  0  0  0
 37155  1  0  0  0
 38156  1  0  0  0
 38157  1  0  0  0
 39 40  1  0  0  0
 39158  1  0  0  0
 40 41  1  0  0  0
 40 43  1  0  0  0
 40159  1  0  0  0
 41 42  2  0  0  0
 41 46  1  0  0  0
 43 44  1  0  0  0
 43 45  1  0  0  0
 43160  1  0  0  0
 44161  1  0  0  0
 44162  1  0  0  0
 44163  1  0  0  0
 45164  1  0  0  0
 45165  1  0  0  0
 45166  1  0  0  0
 46 47  1  0  0  0
 46167  1  0  0  0
 47 48  1  0  0  0
 47 50  1  0  0  0
 47168  1  0  0  0
 48 49  2  0  0  0
 48 54  1  0  0  0
 50 51  1  0  0  0
 50169  1  0  0  0
 50170  1  0  0  0
 51 52  2  0  0  0
 51 53  1  0  0  0
 53171  1  0  0  0
 53172  1  0  0  0
 54 55  1  0  0  0
 54173  1  0  0  0
 55 56  1  0  0  0
 55 58  1  0  0  0
 55174  1  0  0  0
 56 57  2  0  0  0
 56 65  1  0  0  0
 58 59  1  0  0  0
 58175  1  0  0  0
 58176  1  0  0  0
 59 60  1  0  0  0
 59177  1  0  0  0
 59178  1  0  0  0
 60 61  1  0  0  0
 60179  1  0  0  0
 60180  1  0  0  0
 61 62  1  0  0  0
 61181  1  0  0  0
 62 63  2  0  0  0
 62 64  1  0  0  0
 63182  1  0  0  0
 64183  1  0  0  0
 64184  1  0  0  0
 65 66  1  0  0  0
 65185  1  0  0  0
 66 67  1  0  0  0
 66 69  1  0  0  0
 66186  1  0  0  0
 67 68  2  0  0  0
 67 73  1  0  0  0
 69 70  1  0  0  0
 69187  1  0  0  0
 69188  1  0  0  0
 70 71  2  0  0  0
 70 72  1  0  0  0
 72189  1  0  0  0
 72190  1  0  0  0
 73 74  1  0  0  0
 73191  1  0  0  0
 74 75  1  0  0  0
 74 77  1  0  0  0
 74192  1  0  0  0
 75 76  2  0  0  0
 75 81  1  0  0  0
 77 78  1  0  0  0
 77193  1  0  0  0
 77194  1  0  0  0
 78 79  1  0  0  0
 78 80  1  0  0  0
 78195  1  0  0  0
 79196  1  0  0  0
 79197  1  0  0  0
 79198  1  0  0  0
 80199  1  0  0  0
 80200  1  0  0  0
 80201  1  0  0  0
 81 82  1  0  0  0
 81202  1  0  0  0
 82 83  1  0  0  0
 82 85  1  0  0  0
 82203  1  0  0  0
 83 84  2  0  0  0
 83 90  1  0  0  0
 85 86  1  0  0  0
 85204  1  0  0  0
 85205  1  0  0  0
 86 87  1  0  0  0
 86206  1  0  0  0
 86207  1  0  0  0
 87 88  1  0  0  0
 87208  1  0  0  0
 87209  1  0  0  0
 88 89  1  0  0  0
 88210  1  0  0  0
 88211  1  0  0  0
 89212  1  0  0  0
 89213  1  0  0  0
 89214  1  0  0  0
 90 91  1  0  0  0
 90 96  1  0  0  0
 91 92  1  0  0  0
 91 94  1  0  0  0
 91215  1  0  0  0
 92 93  2  0  0  0
 92 97  1  0  0  0
 94 95  1  0  0  0
 94216  1  0  0  0
 94217  1  0  0  0
 95 96  1  0  0  0
 95218  1  0  0  0
 95219  1  0  0  0
 96220  1  0  0  0
 96221  1  0  0  0
 97 98  1  0  0  0
 97222  1  0  0  0
 98 99  1  0  0  0
 98101  1  0  0  0
 98223  1  0  0  0
 99100  2  0  0  0
 99105  1  0  0  0
101102  1  0  0  0
101224  1  0  0  0
101225  1  0  0  0
102103  2  0  0  0
102104  1  0  0  0
104226  1  0  0  0
105106  1  0  0  0
105227  1  0  0  0
106107  1  0  0  0
106109  1  0  0  0
106228  1  0  0  0
107108  2  0  0  0
107229  1  0  0  0
109110  1  0  0  0
109230  1  0  0  0
109231  1  0  0  0
110111  1  0  0  0
110232  1  0  0  0
110233  1  0  0  0
111112  1  0  0  0
111234  1  0  0  0
111235  1  0  0  0
112113  1  0  0  0
112236  1  0  0  0
113114  2  0  0  0
113115  1  0  0  0
114237  1  0  0  0
115238  1  0  0  0
115239  1  0  0  0
M  CHG  2   1   1  89   1
M  END
> <s_m_source_file>
../2vwf_ligand.sdf

> <i_m_source_file_index>
1

> <s_epik_input>
W0NIM11bQ0gyXVtDQEhdKFtDSDNdKVtDQEhdKFtOSDMrXSlDKD1PKVtOSF1bQ0BASF0oW0NIMl1bQ0gyXUMoPU8pW05IMl0pQyg9TylOMVtDQEBIXShbQ0gyXVtDSDJdW0NIMl0xKUMoPU8pTjJbQ0BASF0oW0NIMl1bQ0gyXVtDSDJdMilDKD1PKU4zW0NAQEhdKFtDSDJdW0NIMl1bQ0gyXTMpQyg9TylbTkhdW0NAQEhdKFtDSF0oW0NIM10pW0NIM10pQyg9TylbTkhdW0NAQEhdKFtDSDJdQyg9TylbTkgyXSlDKD1PKVtOSF1bQ0BASF0oW0NIMl1bQ0gyXVtDSDJdW05IXS9DKD1OXFtIXSlbTkgyXSlDKD1PKVtOSF1bQ0BASF0oW0NIMl1DKD1PKVtOSDJdKUMoPU8pW05IXVtDQEBIXShbQ0gyXVtDSF0oW0NIM10pW0NIM10pQyg9TylbTkhdW0NAQEhdKFtDSDJdW0NIMl1bQ0gyXVtDSDJdW05IMytdKUMoPU8pTjRbQ0BASF0oW0NIMl1bQ0gyXVtDSDJdNClDKD1PKVtOSF1bQ0BASF0oW0NIMl1DKD1PKVtPSF0pQyg9TylbTkhdW0NASF0oW0NIXT1PKVtDSDJdW0NIMl1bQ0gyXVtOSF0vQyg9TlxbSF0pW05IMl0=

> <s_epik_cmdline>
J2VwaWtfYXBwJywgJy1pbWFlJywgJ2xpZ2FuZF9wcm8ubWFlJywgJy1vbWFlJywgJ2xpZ2FuZF9wcmVwLm1hZScsICctbXMnLCAnMScsICctcGgnLCAnNycsICctcGh0JywgJzAuNScsICctbnQn

> <s_epik_pKa_notes>
Molecule size exceeds maximum supported for generating protonation states

> <s_epik_Chemistry_Notes>
This compound has an imine and may undergo hydrolysis.

$$$$
