2vwl_ligand
                    3D
 Schrodinger Suite 2020-3.
 56 59  0  0  1  0            999 V2000
    9.3090   62.4460    1.4180 F   0  0  0  0  0  0
    8.4890   62.0100    2.3850 C   0  0  0  0  0  0
    8.1140   60.6540    2.3970 C   0  0  0  0  0  0
    7.2860   60.1820    3.4080 C   0  0  0  0  0  0
    6.8950   58.8150    3.3900 N   0  0  0  0  0  0
    7.4050   57.9150    4.3220 C   0  0  0  0  0  0
    6.9470   56.6320    4.2620 C   0  0  0  0  0  0
    5.8900   56.2100    3.4090 C   0  0  0  0  0  0
    5.3310   57.1390    2.5710 C   0  0  0  0  0  0
    5.7930   58.4780    2.6040 C   0  0  0  0  0  0
    5.3170   59.3200    1.8040 O   0  0  0  0  0  0
    6.8530   61.0690    4.3830 C   0  0  0  0  0  0
    7.2380   62.4120    4.3660 C   0  0  0  0  0  0
    8.0590   62.9000    3.3580 C   0  0  0  0  0  0
    8.4370   64.2320    3.3170 N   0  0  0  0  0  0
    7.9930   64.9480    2.2560 C   0  0  0  0  0  0
   11.5130   67.4080    3.6410 C   0  0  2  0  0  0
    7.3690   64.4240    1.3470 O   0  0  0  0  0  0
   10.5140   68.3640    4.3180 C   0  0  0  0  0  0
    8.2610   66.4340    2.1430 C   0  0  0  0  0  0
    9.2650   66.8100    3.1410 N   0  0  1  0  0  0
   10.6690   66.4090    2.8620 C   0  0  0  0  0  0
    8.1060   68.9770    1.5050 O   0  0  0  0  0  0
    9.2970   69.1600    2.2950 C   0  0  0  0  0  0
   12.2000   66.7290    4.7560 N   0  0  0  0  0  0
   13.2590   65.9620    4.5230 C   0  0  0  0  0  0
   13.6270   65.7850    3.3730 O   0  0  0  0  0  0
   14.0050   65.2960    5.6530 C   0  0  0  0  0  0
   14.0260   65.5450    7.0320 C   0  0  0  0  0  0
   14.8730   64.6860    7.7480 C   0  0  0  0  0  0
   15.0600   64.0330    5.0990 S   0  0  0  0  0  0
   15.4700   63.8930    6.7840 C   0  0  0  0  0  0
   16.6630   62.6010    7.2050 Cl  0  0  0  0  0  0
    9.2360   68.2250    3.5100 C   0  0  2  0  0  0
    8.4704   59.9788    1.6190 H   0  0  0  0  0  0
    8.1385   58.2227    5.0672 H   0  0  0  0  0  0
    7.4177   55.8876    4.9042 H   0  0  0  0  0  0
    5.5355   55.1793    3.4215 H   0  0  0  0  0  0
    4.5361   56.8497    1.8835 H   0  0  0  0  0  0
    6.1993   60.7109    5.1783 H   0  0  0  0  0  0
    6.8906   63.0831    5.1515 H   0  0  0  0  0  0
    9.0632   64.6509    4.1185 H   0  0  0  0  0  0
   12.2618   67.8757    2.9848 H   0  0  0  0  0  0
   10.3691   68.0612    5.3655 H   0  0  0  0  0  0
   10.9082   69.3904    4.2842 H   0  0  0  0  0  0
    8.6343   66.6636    1.1341 H   0  0  0  0  0  0
    7.3291   66.9895    2.3243 H   0  0  0  0  0  0
   10.9110   66.4808    1.7913 H   0  0  0  0  0  0
   10.8834   65.3908    3.2189 H   0  0  0  0  0  0
    7.9610   69.5622    0.5849 H   0  0  0  0  0  0
   10.1813   68.9210    1.6859 H   0  0  0  0  0  0
    9.3560   70.2052    2.6327 H   0  0  0  0  0  0
   11.8356   66.8568    5.7860 H   0  0  0  0  0  0
   13.4389   66.3327    7.5042 H   0  0  0  0  0  0
   15.0270   64.6510    8.8265 H   0  0  0  0  0  0
    8.3009   68.4581    4.0404 H   0  0  0  0  0  0
  1  2  1  0  0  0
  2  3  2  0  0  0
  2 14  1  0  0  0
  3  4  1  0  0  0
  3 35  1  0  0  0
  4  5  1  0  0  0
  4 12  2  0  0  0
  5  6  1  0  0  0
  5 10  1  0  0  0
  6  7  2  0  0  0
  6 36  1  0  0  0
  7  8  1  0  0  0
  7 37  1  0  0  0
  8  9  2  0  0  0
  8 38  1  0  0  0
  9 10  1  0  0  0
  9 39  1  0  0  0
 10 11  2  0  0  0
 12 13  1  0  0  0
 12 40  1  0  0  0
 13 14  2  0  0  0
 13 41  1  0  0  0
 14 15  1  0  0  0
 15 16  1  0  0  0
 15 42  1  0  0  0
 16 18  2  0  0  0
 16 20  1  0  0  0
 17 19  1  0  0  0
 17 22  1  0  0  0
 17 25  1  0  0  0
 17 43  1  0  0  0
 19 34  1  0  0  0
 19 44  1  0  0  0
 19 45  1  0  0  0
 20 21  1  0  0  0
 20 46  1  0  0  0
 20 47  1  0  0  0
 21 22  1  0  0  0
 21 34  1  0  0  0
 22 48  1  0  0  0
 22 49  1  0  0  0
 23 24  1  0  0  0
 23 50  1  0  0  0
 24 34  1  0  0  0
 24 51  1  0  0  0
 24 52  1  0  0  0
 25 26  1  0  0  0
 25 53  1  0  0  0
 26 27  2  0  0  0
 26 28  1  0  0  0
 28 29  2  0  0  0
 28 31  1  0  0  0
 29 30  1  0  0  0
 29 54  1  0  0  0
 30 32  2  0  0  0
 30 55  1  0  0  0
 31 32  1  0  0  0
 32 33  1  0  0  0
 34 56  1  0  0  0
M  END
> <s_m_source_file>
../2vwl_ligand.sdf

> <i_m_source_file_index>
1

> <s_epik_input>
Tz1jMVtjSF1bY0hdW2NIXVtjSF1uMS1jKFtjSF1jMkYpW2NIXVtjSF1jMltOSF1DKD1PKVtDSDJdW05AQEgrXShbQ0gyXTMpW0NASF0oW0NIMl1bT0hdKVtDSDJdW0NASF0zW05IXUMoPU8pYzRbY0hdW2NIXWMoczQpQ2w=

> <s_epik_cmdline>
J2VwaWtfYXBwJywgJy1pbWFlJywgJ2xpZ2FuZF9wcm8ubWFlJywgJy1vbWFlJywgJ2xpZ2FuZF9wcmVwLm1hZScsICctbXMnLCAnMScsICctcGgnLCAnNycsICctcGh0JywgJzAuNScsICctbnQn

> <r_lp_tautomer_probability>
1

> <r_epik_Ionization_Penalty>
  0.1564

> <r_epik_Ionization_Penalty_Charging>
  0.0000

> <r_epik_Ionization_Penalty_Neutral>
  0.1564

> <r_epik_State_Penalty>
  0.1457

> <r_epik_Charging_Adjusted_Penalty>
0.145653774004557

> <i_epik_Tot_Q>
0

> <i_epik_Tot_abs_Q>
0

$$$$
