2vwo_ligand
                    3D
 Schrodinger Suite 2020-3.
 52 55  0  0  1  0            999 V2000
   16.6220   62.1530    7.3300 Cl  0  0  0  0  0  0
   15.4580   63.3660    6.8870 C   0  0  0  0  0  0
   14.7860   64.2490    7.7050 C   0  0  0  0  0  0
   13.8940   65.0820    6.9710 C   0  0  0  0  0  0
   15.0160   63.5140    5.2220 S   0  0  0  0  0  0
   13.9170   64.7850    5.6120 C   0  0  0  0  0  0
   13.1840   65.4110    4.5230 C   0  0  0  0  0  0
   13.4290   65.1770    3.3260 O   0  0  0  0  0  0
   12.1210   66.2290    4.8150 N   0  0  0  0  0  0
   11.3900   66.8730    3.7070 C   0  0  2  0  0  0
   10.5040   67.9740    4.2880 C   0  0  1  0  0  0
   11.0300   69.2260    4.0110 F   0  0  0  0  0  0
    9.1330   67.7430    3.6620 C   0  0  0  0  0  0
   10.4640   65.9130    2.9740 C   0  0  0  0  0  0
    9.1050   66.2950    3.4120 N   0  0  2  0  0  0
    8.1450   65.9950    2.3580 C   0  0  0  0  0  0
    7.7980   64.5390    2.4250 C   0  0  0  0  0  0
    7.1200   64.0050    1.5220 O   0  0  0  0  0  0
    8.2610   63.7760    3.5510 N   0  0  0  0  0  0
    7.9010   62.3730    3.6040 C   0  0  0  0  0  0
    8.3430   61.4990    2.6090 C   0  0  0  0  0  0
    9.1460   62.0020    1.6520 F   0  0  0  0  0  0
    7.0720   61.8810    4.6090 C   0  0  0  0  0  0
    6.6960   60.5390    4.6310 C   0  0  0  0  0  0
    7.1850   59.6930    3.6130 C   0  0  0  0  0  0
    8.0040   60.1480    2.5790 C   0  0  0  0  0  0
    6.7500   58.3330    3.5910 N   0  0  0  0  0  0
    5.7430   57.9850    2.6490 C   0  0  0  0  0  0
    5.3210   58.9290    1.8740 O   0  0  0  0  0  0
    5.3100   56.6260    2.6330 C   0  0  0  0  0  0
    5.8160   55.6780    3.4780 C   0  0  0  0  0  0
    6.8320   56.0620    4.4100 C   0  0  0  0  0  0
    7.2720   57.3490    4.4780 C   0  0  0  0  0  0
   14.9213   64.3032    8.7852 H   0  0  0  0  0  0
   13.2706   65.8562    7.4184 H   0  0  0  0  0  0
   11.8116   66.4076    5.8554 H   0  0  0  0  0  0
   12.1681   67.2351    3.0189 H   0  0  0  0  0  0
   10.4737   68.0332    5.3860 H   0  0  0  0  0  0
    8.3501   68.0600    4.3667 H   0  0  0  0  0  0
    9.0502   68.3283    2.7343 H   0  0  0  0  0  0
   10.5931   66.0360    1.8885 H   0  0  0  0  0  0
   10.7091   64.8788    3.2575 H   0  0  0  0  0  0
    7.2393   66.6021    2.5033 H   0  0  0  0  0  0
    8.5899   66.2286    1.3795 H   0  0  0  0  0  0
    8.8653   64.2601    4.3323 H   0  0  0  0  0  0
    6.7128   62.5536    5.3879 H   0  0  0  0  0  0
    6.0421   60.1536    5.4132 H   0  0  0  0  0  0
    8.3589   59.4833    1.7914 H   0  0  0  0  0  0
    4.5432   56.3309    1.9167 H   0  0  0  0  0  0
    5.4531   54.6508    3.4427 H   0  0  0  0  0  0
    7.2603   55.3127    5.0757 H   0  0  0  0  0  0
    8.0264   57.6268    5.2140 H   0  0  0  0  0  0
  1  2  1  0  0  0
  2  3  2  0  0  0
  2  5  1  0  0  0
  3  4  1  0  0  0
  3 34  1  0  0  0
  4  6  2  0  0  0
  4 35  1  0  0  0
  5  6  1  0  0  0
  6  7  1  0  0  0
  7  8  2  0  0  0
  7  9  1  0  0  0
  9 10  1  0  0  0
  9 36  1  0  0  0
 10 11  1  0  0  0
 10 14  1  0  0  0
 10 37  1  0  0  0
 11 12  1  0  0  0
 11 13  1  0  0  0
 11 38  1  0  0  0
 13 15  1  0  0  0
 13 39  1  0  0  0
 13 40  1  0  0  0
 14 15  1  0  0  0
 14 41  1  0  0  0
 14 42  1  0  0  0
 15 16  1  0  0  0
 16 17  1  0  0  0
 16 43  1  0  0  0
 16 44  1  0  0  0
 17 18  2  0  0  0
 17 19  1  0  0  0
 19 20  1  0  0  0
 19 45  1  0  0  0
 20 21  2  0  0  0
 20 23  1  0  0  0
 21 22  1  0  0  0
 21 26  1  0  0  0
 23 24  2  0  0  0
 23 46  1  0  0  0
 24 25  1  0  0  0
 24 47  1  0  0  0
 25 26  2  0  0  0
 25 27  1  0  0  0
 26 48  1  0  0  0
 27 28  1  0  0  0
 27 33  1  0  0  0
 28 29  2  0  0  0
 28 30  1  0  0  0
 30 31  2  0  0  0
 30 49  1  0  0  0
 31 32  1  0  0  0
 31 50  1  0  0  0
 32 33  2  0  0  0
 32 51  1  0  0  0
 33 52  1  0  0  0
M  END
> <s_m_source_file>
../2vwo_ligand.sdf

> <i_m_source_file_index>
1

> <s_epik_input>
Q2xjMVtjSF1bY0hdYyhzMSlDKD1PKVtOSF1bQ0BASF0yW0NAQEhdKEYpW0NIMl1bTkBIK10oW0NIMl0yKVtDSDJdQyg9TylbTkhdYzNjKEYpW2NIXWMoW2NIXVtjSF0zKS1uNGMoPU8pW2NIXVtjSF1bY0hdW2NIXTQ=

> <s_epik_cmdline>
J2VwaWtfYXBwJywgJy1pbWFlJywgJ2xpZ2FuZF9wcm8ubWFlJywgJy1vbWFlJywgJ2xpZ2FuZF9wcmVwLm1hZScsICctbXMnLCAnMScsICctcGgnLCAnNycsICctcGh0JywgJzAuNScsICctbnQn

> <r_lp_tautomer_probability>
1

> <r_epik_Ionization_Penalty>
  0.0616

> <r_epik_Ionization_Penalty_Charging>
  0.0000

> <r_epik_Ionization_Penalty_Neutral>
  0.0616

> <r_epik_State_Penalty>
  0.0535

> <r_epik_Charging_Adjusted_Penalty>
0.0535205325942643

> <i_epik_Tot_Q>
0

> <i_epik_Tot_abs_Q>
0

$$$$
