2vwu_ligand
                    3D
 Schrodinger Suite 2020-3.
 61 65  0  0  1  0            999 V2000
    9.5400   10.4300   10.6250 C   0  0  0  0  0  0
   10.9620   10.6640   10.7240 O   0  0  0  0  0  0
   11.6500    9.5650   11.1600 C   0  0  0  0  0  0
   11.0830    8.3240   11.3970 C   0  0  0  0  0  0
   11.8870    7.2590   11.8640 C   0  0  0  0  0  0
   11.3790    5.9640   12.1570 C   0  0  0  0  0  0
   10.0200    5.7030   11.9640 N   0  0  0  0  0  0
    9.3860    4.5130   12.3770 C   0  0  0  0  0  0
    9.2710    4.2400   13.7200 C   0  0  0  0  0  0
    9.7110    4.9620   14.7840 O   0  0  0  0  0  0
    9.5060    4.1000   15.9150 C   0  0  0  0  0  0
    8.6340    3.0500   15.4800 O   0  0  0  0  0  0
    8.6130    3.0780   14.1410 C   0  0  0  0  0  0
    8.0790    2.1660   13.2390 C   0  0  0  0  0  0
    8.2140    2.4310   11.8830 C   0  0  0  0  0  0
    8.8460    3.6080   11.4700 C   0  0  0  0  0  0
    9.0240    3.9330    9.7830 Cl  0  0  0  0  0  0
   12.2320    5.0140   12.6010 N   0  0  0  0  0  0
   13.5310    5.2460   12.7510 C   0  0  0  0  0  0
   14.0540    6.4310   12.4770 N   0  0  0  0  0  0
   13.2870    7.4600   12.0330 C   0  0  0  0  0  0
   13.8380    8.7270   11.7580 C   0  0  0  0  0  0
   13.0350    9.7530   11.3230 C   0  0  0  0  0  0
   13.4960   10.9990   11.0300 O   0  0  0  0  0  0
   14.8550   11.2490   11.3560 C   0  0  0  0  0  0
   15.0160   12.7790   11.2970 C   0  0  0  0  0  0
   15.2680   13.2080    9.8540 C   0  0  0  0  0  0
   15.3730   14.6760    9.6880 N   0  3  0  0  0  0
   16.7360   15.1620    9.9910 C   0  0  0  0  0  0
   16.7670   16.7010    9.9310 C   0  0  0  0  0  0
   16.2980   17.1820    8.5440 C   0  0  0  0  0  0
   14.9810   16.5020    8.1150 C   0  0  0  0  0  0
   15.0940   14.9700    8.2790 C   0  0  0  0  0  0
    9.0417   11.3446   10.2712 H   0  0  0  0  0  0
    9.1439   10.1556   11.6138 H   0  0  0  0  0  0
    9.3517    9.6116    9.9146 H   0  0  0  0  0  0
   10.0182    8.1685   11.2237 H   0  0  0  0  0  0
    9.3824    6.4477   11.4651 H   0  0  0  0  0  0
   10.4730    3.6935   16.2462 H   0  0  0  0  0  0
    9.0491    4.6734   16.7350 H   0  0  0  0  0  0
    7.5685    1.2678   13.5863 H   0  0  0  0  0  0
    7.8300    1.7264   11.1453 H   0  0  0  0  0  0
   14.1793    4.4451   13.1067 H   0  0  0  0  0  0
   14.9069    8.8940   11.8911 H   0  0  0  0  0  0
   15.0679   10.8607   12.3629 H   0  0  0  0  0  0
   15.5058   10.7476   10.6245 H   0  0  0  0  0  0
   14.0981   13.2588   11.6675 H   0  0  0  0  0  0
   15.8672   13.0826   11.9241 H   0  0  0  0  0  0
   16.2113   12.7667    9.4997 H   0  0  0  0  0  0
   14.4397   12.8616    9.2185 H   0  0  0  0  0  0
   14.6653   15.1734   10.3675 H   0  0  0  0  0  0
   17.0275   14.8315   10.9989 H   0  0  0  0  0  0
   17.4429   14.7551    9.2530 H   0  0  0  0  0  0
   16.0987   17.1115   10.7022 H   0  0  0  0  0  0
   17.7933   17.0543   10.1094 H   0  0  0  0  0  0
   16.1322   18.2691    8.5697 H   0  0  0  0  0  0
   17.0678   16.9461    7.7945 H   0  0  0  0  0  0
   14.1563   16.8715    8.7422 H   0  0  0  0  0  0
   14.7735   16.7370    7.0606 H   0  0  0  0  0  0
   15.9131   14.5836    7.6547 H   0  0  0  0  0  0
   14.1498   14.4888    7.9840 H   0  0  0  0  0  0
  1  2  1  0  0  0
  1 34  1  0  0  0
  1 35  1  0  0  0
  1 36  1  0  0  0
  2  3  1  0  0  0
  3  4  2  0  0  0
  3 23  1  0  0  0
  4  5  1  0  0  0
  4 37  1  0  0  0
  5  6  2  0  0  0
  5 21  1  0  0  0
  6  7  1  0  0  0
  6 18  1  0  0  0
  7  8  1  0  0  0
  7 38  1  0  0  0
  8  9  2  0  0  0
  8 16  1  0  0  0
  9 10  1  0  0  0
  9 13  1  0  0  0
 10 11  1  0  0  0
 11 12  1  0  0  0
 11 39  1  0  0  0
 11 40  1  0  0  0
 12 13  1  0  0  0
 13 14  2  0  0  0
 14 15  1  0  0  0
 14 41  1  0  0  0
 15 16  2  0  0  0
 15 42  1  0  0  0
 16 17  1  0  0  0
 18 19  2  0  0  0
 19 20  1  0  0  0
 19 43  1  0  0  0
 20 21  2  0  0  0
 21 22  1  0  0  0
 22 23  2  0  0  0
 22 44  1  0  0  0
 23 24  1  0  0  0
 24 25  1  0  0  0
 25 26  1  0  0  0
 25 45  1  0  0  0
 25 46  1  0  0  0
 26 27  1  0  0  0
 26 47  1  0  0  0
 26 48  1  0  0  0
 27 28  1  0  0  0
 27 49  1  0  0  0
 27 50  1  0  0  0
 28 29  1  0  0  0
 28 33  1  0  0  0
 28 51  1  0  0  0
 29 30  1  0  0  0
 29 52  1  0  0  0
 29 53  1  0  0  0
 30 31  1  0  0  0
 30 54  1  0  0  0
 30 55  1  0  0  0
 31 32  1  0  0  0
 31 56  1  0  0  0
 31 57  1  0  0  0
 32 33  1  0  0  0
 32 58  1  0  0  0
 32 59  1  0  0  0
 33 60  1  0  0  0
 33 61  1  0  0  0
M  CHG  1  28   1
M  END
> <s_m_source_file>
../2vwu_ligand.sdf

> <i_m_source_file_index>
1

> <s_epik_input>
W0NIMl0xW0NIMl1bQ0gyXVtDSDJdW0NIMl1bTkgrXTFbQ0gyXVtDSDJdW0NIMl1PYyhjKFtjSF0yKU9bQ0gzXSlbY0hdYyhjMjMpbltjSF1uYzNbTkhdYzRjKENsKVtjSF1bY0hdYyhjNDUpT1tDSDJdTzU=

> <s_epik_cmdline>
J2VwaWtfYXBwJywgJy1pbWFlJywgJ2xpZ2FuZF9wcm8ubWFlJywgJy1vbWFlJywgJ2xpZ2FuZF9wcmVwLm1hZScsICctbXMnLCAnMScsICctcGgnLCAnNycsICctcGh0JywgJzAuNScsICctbnQn

> <r_lp_tautomer_probability>
1

> <r_epik_Ionization_Penalty>
  0.0037

> <r_epik_Ionization_Penalty_Charging>
  0.0021

> <r_epik_Ionization_Penalty_Neutral>
  0.0016

> <r_epik_State_Penalty>
 -0.0000

> <r_epik_Charging_Adjusted_Penalty>
0.00213957358720425

> <i_epik_Tot_Q>
1

> <i_epik_Tot_abs_Q>
1

> <s_epik_Chemistry_Notes>
This compound contains an acetal/aminal-like group ( X-CH(R)-Y where X, Y are N, S, or O) that may be acid/base labile, releasing an aldehyde.

$$$$
