2vww_ligand
                    3D
 Schrodinger Suite 2020-3.
 49 52  0  0  1  0            999 V2000
   15.6950   11.7760   11.0600 C   0  0  0  0  0  0
   14.4160   11.7710   10.4300 O   0  0  0  0  0  0
   13.7440   10.5860   10.4780 C   0  0  0  0  0  0
   14.2400    9.4250   11.0450 C   0  0  0  0  0  0
   13.4570    8.2590   11.0250 C   0  0  0  0  0  0
   13.9670    7.1030   11.6000 N   0  0  0  0  0  0
   13.3060    5.9200   11.8610 C   0  0  0  0  0  0
   14.0650    4.9040   12.2790 N   0  0  0  0  0  0
   13.5580    3.7250   12.5960 C   0  0  0  0  0  0
   12.2090    3.5540   12.4520 C   0  0  0  0  0  0
   11.4000    4.6260   12.0030 C   0  0  0  0  0  0
   10.0150    4.4780   11.8490 N   0  0  0  0  0  0
    9.3310    3.3050   12.2410 C   0  0  0  0  0  0
    9.2410    2.9390   13.5950 C   0  0  0  0  0  0
    9.7160    3.5710   14.7100 O   0  0  0  0  0  0
    9.6720    2.5690   15.7460 C   0  0  0  0  0  0
    8.6240    1.6570   15.3490 O   0  0  0  0  0  0
    8.5800    1.7670   13.9770 C   0  0  0  0  0  0
    8.0000    0.9390   13.0140 C   0  0  0  0  0  0
    8.1100    1.2870   11.6550 C   0  0  0  0  0  0
    8.7480    2.4680   11.2820 C   0  0  0  0  0  0
    8.8730    2.9070    9.6130 Cl  0  0  0  0  0  0
   11.9860    5.7990   11.7290 N   0  0  0  0  0  0
   12.2190    8.2220   10.4170 C   0  0  0  0  0  0
   11.7210    9.3660    9.8370 C   0  0  0  0  0  0
   10.4800    9.3140    9.2510 O   0  0  0  0  0  0
   10.4990    8.5130    8.0780 C   0  0  0  0  0  0
   12.4820   10.5490    9.8740 C   0  0  0  0  0  0
   12.0330   11.7060    9.3100 O   0  0  0  0  0  0
   10.8320   12.0750    9.9840 C   0  0  0  0  0  0
   16.1474   12.7740   10.9635 H   0  0  0  0  0  0
   16.3444   11.0308   10.5773 H   0  0  0  0  0  0
   15.5800   11.5270   12.1253 H   0  0  0  0  0  0
   15.2291    9.4155   11.5029 H   0  0  0  0  0  0
   15.0222    7.0612   11.9078 H   0  0  0  0  0  0
   14.1932    2.9173   12.9595 H   0  0  0  0  0  0
   11.7553    2.5903   12.6834 H   0  0  0  0  0  0
    9.4204    5.2923   11.4093 H   0  0  0  0  0  0
   10.6463    2.0622   15.8075 H   0  0  0  0  0  0
    9.4464    3.0481   16.7102 H   0  0  0  0  0  0
    7.4689    0.0347   13.3111 H   0  0  0  0  0  0
    7.6944    0.6299   10.8911 H   0  0  0  0  0  0
   11.6422    7.2973   10.3964 H   0  0  0  0  0  0
    9.4934    8.4909    7.6328 H   0  0  0  0  0  0
   10.8075    7.4896    8.3378 H   0  0  0  0  0  0
   11.2108    8.9382    7.3552 H   0  0  0  0  0  0
   10.4412   13.0082    9.5523 H   0  0  0  0  0  0
   11.0430   12.2257   11.0530 H   0  0  0  0  0  0
   10.0853   11.2758    9.8667 H   0  0  0  0  0  0
  1  2  1  0  0  0
  1 31  1  0  0  0
  1 32  1  0  0  0
  1 33  1  0  0  0
  2  3  1  0  0  0
  3  4  2  0  0  0
  3 28  1  0  0  0
  4  5  1  0  0  0
  4 34  1  0  0  0
  5  6  1  0  0  0
  5 24  2  0  0  0
  6  7  1  0  0  0
  6 35  1  0  0  0
  7  8  2  0  0  0
  7 23  1  0  0  0
  8  9  1  0  0  0
  9 10  2  0  0  0
  9 36  1  0  0  0
 10 11  1  0  0  0
 10 37  1  0  0  0
 11 12  1  0  0  0
 11 23  2  0  0  0
 12 13  1  0  0  0
 12 38  1  0  0  0
 13 14  2  0  0  0
 13 21  1  0  0  0
 14 15  1  0  0  0
 14 18  1  0  0  0
 15 16  1  0  0  0
 16 17  1  0  0  0
 16 39  1  0  0  0
 16 40  1  0  0  0
 17 18  1  0  0  0
 18 19  2  0  0  0
 19 20  1  0  0  0
 19 41  1  0  0  0
 20 21  2  0  0  0
 20 42  1  0  0  0
 21 22  1  0  0  0
 24 25  1  0  0  0
 24 43  1  0  0  0
 25 26  1  0  0  0
 25 28  2  0  0  0
 26 27  1  0  0  0
 27 44  1  0  0  0
 27 45  1  0  0  0
 27 46  1  0  0  0
 28 29  1  0  0  0
 29 30  1  0  0  0
 30 47  1  0  0  0
 30 48  1  0  0  0
 30 49  1  0  0  0
M  END
> <s_m_source_file>
../2vww_ligand.sdf

> <i_m_source_file_index>
1

> <s_epik_input>
W0NIM11PYzFjKE9bQ0gzXSlbY0hdYyhbY0hdYzFPW0NIM10pW05IXWMybltjSF1bY0hdYyhuMilbTkhdYzNjKENsKVtjSF1bY0hdYyhjMzQpT1tDSDJdTzQ=

> <s_epik_cmdline>
J2VwaWtfYXBwJywgJy1pbWFlJywgJ2xpZ2FuZF9wcm8ubWFlJywgJy1vbWFlJywgJ2xpZ2FuZF9wcmVwLm1hZScsICctbXMnLCAnMScsICctcGgnLCAnNycsICctcGh0JywgJzAuNScsICctbnQn

> <r_lp_tautomer_probability>
0.999999624730965

> <r_epik_Ionization_Penalty>
  0.0269

> <r_epik_Ionization_Penalty_Charging>
  0.0000

> <r_epik_Ionization_Penalty_Neutral>
  0.0269

> <r_epik_State_Penalty>
  0.0216

> <r_epik_Charging_Adjusted_Penalty>
0.0216193509341287

> <i_epik_Tot_Q>
0

> <i_epik_Tot_abs_Q>
0

> <s_epik_Chemistry_Notes>
This compound contains an acetal/aminal-like group ( X-CH(R)-Y where X, Y are N, S, or O) that may be acid/base labile, releasing an aldehyde.

$$$$
