2vwx_ligand
                    3D
 Schrodinger Suite 2020-3.
 42 45  0  0  1  0            999 V2000
   12.9970    6.3020   11.7750 C   0  0  0  0  0  0
   13.7700    5.2890   12.1410 N   0  0  0  0  0  0
   13.2940    4.0690   12.4650 C   0  0  0  0  0  0
   11.9390    3.8910   12.3760 C   0  0  0  0  0  0
   11.1140    4.9740   11.9830 C   0  0  0  0  0  0
    9.7270    4.8120   11.9070 N   0  0  0  0  0  0
    9.0770    3.6200   12.2740 C   0  0  0  0  0  0
    9.0510    3.2020   13.6120 C   0  0  0  0  0  0
    9.5940    3.8200   14.7130 O   0  0  0  0  0  0
    9.5910    2.7890   15.7330 C   0  0  0  0  0  0
    8.5220    1.8730   15.3200 O   0  0  0  0  0  0
    8.4030    2.0170   13.9740 C   0  0  0  0  0  0
    7.7650    1.2030   13.0270 C   0  0  0  0  0  0
    7.8440    1.6470   11.6930 C   0  0  0  0  0  0
    8.4750    2.8400   11.3010 C   0  0  0  0  0  0
    8.5480    3.3740    9.6200 Cl  0  0  0  0  0  0
   11.6620    6.1650   11.7000 N   0  0  0  0  0  0
   15.5190   12.2480    9.5740 N   0  0  0  0  0  0
   14.6830   12.4160   10.9870 S   0  0  0  0  0  0
   15.6060   12.1570   12.0490 O   0  0  0  0  0  0
   13.9320   13.6460   10.9730 O   0  0  0  0  0  0
   13.5240   11.0960   11.0400 C   0  0  0  0  0  0
   12.1580   11.3120   10.9290 C   0  0  0  0  0  0
   11.2720   10.2470   10.9780 C   0  0  0  0  0  0
   11.7510    8.9500   11.1610 C   0  0  0  0  0  0
   13.1240    8.7400   11.2790 C   0  0  0  0  0  0
   13.6840    7.4780   11.4750 N   0  0  0  0  0  0
   14.0120    9.8250   11.2270 C   0  0  0  0  0  0
   13.9562    3.2635   12.7824 H   0  0  0  0  0  0
   11.4975    2.9214   12.6063 H   0  0  0  0  0  0
    9.0956    5.6381   11.5478 H   0  0  0  0  0  0
   10.5725    2.2928   15.7557 H   0  0  0  0  0  0
    9.3874    3.2439   16.7136 H   0  0  0  0  0  0
    7.2427    0.2876   13.3050 H   0  0  0  0  0  0
    7.3890    1.0291   10.9189 H   0  0  0  0  0  0
   16.2627   13.0542    9.4899 H   0  0  0  0  0  0
   14.8206   12.3034    8.7260 H   0  0  0  0  0  0
   11.7789   12.3261   10.8024 H   0  0  0  0  0  0
   10.2014   10.4232   10.8736 H   0  0  0  0  0  0
   11.0590    8.1093   11.2112 H   0  0  0  0  0  0
   14.7790    7.4641   11.3714 H   0  0  0  0  0  0
   15.0842    9.6606   11.3344 H   0  0  0  0  0  0
  1  2  2  0  0  0
  1 17  1  0  0  0
  1 27  1  0  0  0
  2  3  1  0  0  0
  3  4  2  0  0  0
  3 29  1  0  0  0
  4  5  1  0  0  0
  4 30  1  0  0  0
  5  6  1  0  0  0
  5 17  2  0  0  0
  6  7  1  0  0  0
  6 31  1  0  0  0
  7  8  2  0  0  0
  7 15  1  0  0  0
  8  9  1  0  0  0
  8 12  1  0  0  0
  9 10  1  0  0  0
 10 11  1  0  0  0
 10 32  1  0  0  0
 10 33  1  0  0  0
 11 12  1  0  0  0
 12 13  2  0  0  0
 13 14  1  0  0  0
 13 34  1  0  0  0
 14 15  2  0  0  0
 14 35  1  0  0  0
 15 16  1  0  0  0
 18 19  1  0  0  0
 18 36  1  0  0  0
 18 37  1  0  0  0
 19 20  2  0  0  0
 19 21  2  0  0  0
 19 22  1  0  0  0
 22 23  2  0  0  0
 22 28  1  0  0  0
 23 24  1  0  0  0
 23 38  1  0  0  0
 24 25  2  0  0  0
 24 39  1  0  0  0
 25 26  1  0  0  0
 25 40  1  0  0  0
 26 27  1  0  0  0
 26 28  2  0  0  0
 27 41  1  0  0  0
 28 42  1  0  0  0
M  END
> <s_m_source_file>
../2vwx_ligand.sdf

> <i_m_source_file_index>
1

> <s_epik_input>
W05IMl1TKD1PKSg9TyljMVtjSF1bY0hdW2NIXWMoW2NIXTEpW05IXWMybltjSF1bY0hdYyhuMilbTkhdYzNjKENsKVtjSF1bY0hdYyhjMzQpT1tDSDJdTzQ=

> <s_epik_cmdline>
J2VwaWtfYXBwJywgJy1pbWFlJywgJ2xpZ2FuZF9wcm8ubWFlJywgJy1vbWFlJywgJ2xpZ2FuZF9wcmVwLm1hZScsICctbXMnLCAnMScsICctcGgnLCAnNycsICctcGh0JywgJzAuNScsICctbnQn

> <r_lp_tautomer_probability>
1

> <r_epik_Ionization_Penalty>
  0.0275

> <r_epik_Ionization_Penalty_Charging>
  0.0000

> <r_epik_Ionization_Penalty_Neutral>
  0.0275

> <r_epik_State_Penalty>
 -0.0000

> <r_epik_Charging_Adjusted_Penalty>
0

> <i_epik_Tot_Q>
0

> <i_epik_Tot_abs_Q>
0

> <s_epik_Chemistry_Notes>
This compound contains an acetal/aminal-like group ( X-CH(R)-Y where X, Y are N, S, or O) that may be acid/base labile, releasing an aldehyde.

$$$$
