2vwz_ligand
                    3D
 Schrodinger Suite 2020-3.
 45 48  0  0  1  0            999 V2000
   13.6440    7.4540   11.6170 N   0  0  0  0  0  0
   13.0090    6.2490   11.8950 C   0  0  0  0  0  0
   13.8960    5.2800   12.1850 N   0  0  0  0  0  0
   13.3820    4.0620   12.4540 C   0  0  0  0  0  0
   12.0160    3.8610   12.4040 C   0  0  0  0  0  0
   11.1920    4.9240   12.0710 C   0  0  0  0  0  0
    9.7940    4.7930   12.0020 N   0  0  0  0  0  0
    9.1300    3.5770   12.3000 C   0  0  0  0  0  0
    9.0560    3.1010   13.5970 C   0  0  0  0  0  0
    9.6260    3.7260   14.6940 O   0  0  0  0  0  0
    9.4080    2.7060   15.7110 C   0  0  0  0  0  0
    8.4610    1.7000   15.2850 O   0  0  0  0  0  0
    8.3970    1.9480   13.9370 C   0  0  0  0  0  0
    7.7790    1.1560   13.0030 C   0  0  0  0  0  0
    7.8520    1.6090   11.6820 C   0  0  0  0  0  0
    8.5030    2.8030   11.3300 C   0  0  0  0  0  0
    8.5590    3.3520    9.6570 Cl  0  0  0  0  0  0
   11.6830    6.1270   11.8280 N   0  0  0  0  0  0
    9.4280    8.4370    8.1980 C   0  0  0  0  0  0
    8.7140    9.0380    9.7100 S   0  0  0  0  0  0
    8.6090    7.8620   10.5640 O   0  0  0  0  0  0
    7.5060    9.7720    9.3450 O   0  0  0  0  0  0
    9.8050   10.2680   10.2030 N   0  0  0  0  0  0
   11.1830    9.9940   10.5020 C   0  0  0  0  0  0
   12.0320   11.0760   10.3620 C   0  0  0  0  0  0
   13.3790   10.9380   10.6190 C   0  0  0  0  0  0
   13.8790    9.7270   11.0370 C   0  0  0  0  0  0
   13.0190    8.6390   11.1860 C   0  0  0  0  0  0
   11.6650    8.7590   10.9310 C   0  0  0  0  0  0
   14.7349    7.5395   11.7292 H   0  0  0  0  0  0
   14.0449    3.2358   12.7110 H   0  0  0  0  0  0
   11.5928    2.8807   12.6233 H   0  0  0  0  0  0
    9.1748    5.6534   11.7081 H   0  0  0  0  0  0
   10.3603    2.2036   15.9365 H   0  0  0  0  0  0
    9.0166    3.1770   16.6248 H   0  0  0  0  0  0
    7.2646    0.2337   13.2729 H   0  0  0  0  0  0
    7.3866    1.0136   10.8965 H   0  0  0  0  0  0
    8.7986    7.6325    7.7897 H   0  0  0  0  0  0
   10.4369    8.0473    8.3985 H   0  0  0  0  0  0
    9.4904    9.2591    7.4698 H   0  0  0  0  0  0
    9.4559   11.3067   10.2989 H   0  0  0  0  0  0
   11.6349   12.0411   10.0474 H   0  0  0  0  0  0
   14.0481   11.7889   10.4909 H   0  0  0  0  0  0
   14.9422    9.6179   11.2508 H   0  0  0  0  0  0
   10.9933    7.9107   11.0620 H   0  0  0  0  0  0
  1  2  1  0  0  0
  1 28  1  0  0  0
  1 30  1  0  0  0
  2  3  2  0  0  0
  2 18  1  0  0  0
  3  4  1  0  0  0
  4  5  2  0  0  0
  4 31  1  0  0  0
  5  6  1  0  0  0
  5 32  1  0  0  0
  6  7  1  0  0  0
  6 18  2  0  0  0
  7  8  1  0  0  0
  7 33  1  0  0  0
  8  9  2  0  0  0
  8 16  1  0  0  0
  9 10  1  0  0  0
  9 13  1  0  0  0
 10 11  1  0  0  0
 11 12  1  0  0  0
 11 34  1  0  0  0
 11 35  1  0  0  0
 12 13  1  0  0  0
 13 14  2  0  0  0
 14 15  1  0  0  0
 14 36  1  0  0  0
 15 16  2  0  0  0
 15 37  1  0  0  0
 16 17  1  0  0  0
 19 20  1  0  0  0
 19 38  1  0  0  0
 19 39  1  0  0  0
 19 40  1  0  0  0
 20 21  2  0  0  0
 20 22  2  0  0  0
 20 23  1  0  0  0
 23 24  1  0  0  0
 23 41  1  0  0  0
 24 25  2  0  0  0
 24 29  1  0  0  0
 25 26  1  0  0  0
 25 42  1  0  0  0
 26 27  2  0  0  0
 26 43  1  0  0  0
 27 28  1  0  0  0
 27 44  1  0  0  0
 28 29  2  0  0  0
 29 45  1  0  0  0
M  END
> <s_m_source_file>
../2vwz_ligand.sdf

> <i_m_source_file_index>
1

> <s_epik_input>
W0NIM11TKD1PKSg9TylbTkhdYzFbY0hdW2NIXVtjSF1jKFtjSF0xKVtOSF1jMm5bY0hdW2NIXWMobjIpW05IXWMzYyhDbClbY0hdW2NIXWMoYzM0KU9bQ0gyXU80

> <s_epik_cmdline>
J2VwaWtfYXBwJywgJy1pbWFlJywgJ2xpZ2FuZF9wcm8ubWFlJywgJy1vbWFlJywgJ2xpZ2FuZF9wcmVwLm1hZScsICctbXMnLCAnMScsICctcGgnLCAnNycsICctcGh0JywgJzAuNScsICctbnQn

> <r_lp_tautomer_probability>
1

> <r_epik_Ionization_Penalty>
  0.0403

> <r_epik_Ionization_Penalty_Charging>
  0.0000

> <r_epik_Ionization_Penalty_Neutral>
  0.0403

> <r_epik_State_Penalty>
 -0.0000

> <r_epik_Charging_Adjusted_Penalty>
0

> <i_epik_Tot_Q>
0

> <i_epik_Tot_abs_Q>
0

> <s_epik_Chemistry_Notes>
This compound contains an acetal/aminal-like group ( X-CH(R)-Y where X, Y are N, S, or O) that may be acid/base labile, releasing an aldehyde.

$$$$
