2vx0_ligand
                    3D
 Schrodinger Suite 2020-3.
 50 54  0  0  1  0            999 V2000
    8.7820    3.2420    9.5940 Cl  0  0  0  0  0  0
    8.6840    2.7470   11.2530 C   0  0  0  0  0  0
    8.0450    1.5540   11.5940 C   0  0  0  0  0  0
    7.9560    1.1520   12.9270 C   0  0  0  0  0  0
    8.5420    1.9740   13.8680 C   0  0  0  0  0  0
    8.5970    1.7850   15.2230 O   0  0  0  0  0  0
    9.3990    2.8980   15.6520 C   0  0  0  0  0  0
    9.6930    3.8150   14.5900 O   0  0  0  0  0  0
    9.1570    3.1440   13.5230 C   0  0  0  0  0  0
    9.2410    3.5700   12.2190 C   0  0  0  0  0  0
    9.8880    4.7770   11.9230 N   0  0  0  0  0  0
   11.2780    4.9530   12.0470 C   0  0  0  0  0  0
   12.0640    3.8910   12.4910 C   0  0  0  0  0  0
   13.3960    4.1330   12.5900 C   0  0  0  0  0  0
   13.9280    5.3100   12.2620 N   0  0  0  0  0  0
   13.1060    6.2770   11.8500 C   0  0  0  0  0  0
   13.7660    7.4890   11.5210 N   0  0  0  0  0  0
   13.1550    8.7250   11.2730 C   0  0  0  0  0  0
   11.7930    8.9010   11.3090 C   0  0  0  0  0  0
   11.2440   10.1510   11.0740 C   0  0  0  0  0  0
   12.0620   11.2180   10.7960 C   0  0  0  0  0  0
   13.4290   11.0540   10.7500 C   0  0  0  0  0  0
   13.9580    9.8090   10.9980 C   0  0  0  0  0  0
   14.2400   12.1770   10.4660 N   0  0  0  0  0  0
   15.6360   11.9280   10.2130 C   0  0  0  0  0  0
   16.3550   13.2800   10.1270 C   0  0  0  0  0  0
   15.7430   14.1220    9.1440 O   0  0  0  0  0  0
   14.3950   14.3890    9.5440 C   0  0  0  0  0  0
   13.6260   13.0680    9.4760 C   0  0  0  0  0  0
   11.7730    6.1550   11.7350 N   0  0  0  0  0  0
    7.6116    0.9307   10.8118 H   0  0  0  0  0  0
    7.4471    0.2312   13.2121 H   0  0  0  0  0  0
    8.8649    3.4539   16.4367 H   0  0  0  0  0  0
   10.3555    2.5287   16.0505 H   0  0  0  0  0  0
    9.3051    5.6427   11.5756 H   0  0  0  0  0  0
   11.6338    2.9220   12.7441 H   0  0  0  0  0  0
   14.0513    3.3394   12.9492 H   0  0  0  0  0  0
   14.8628    7.5137   11.4405 H   0  0  0  0  0  0
   11.1417    8.0537   11.5233 H   0  0  0  0  0  0
   10.1632   10.2873   11.1098 H   0  0  0  0  0  0
   11.6274   12.2003   10.6107 H   0  0  0  0  0  0
   15.0398    9.6772   10.9763 H   0  0  0  0  0  0
   16.0559   11.3276   11.0335 H   0  0  0  0  0  0
   15.7449   11.3805    9.2651 H   0  0  0  0  0  0
   16.3068   13.7837   11.1037 H   0  0  0  0  0  0
   17.4071   13.1188    9.8492 H   0  0  0  0  0  0
   14.3887   14.7855   10.5701 H   0  0  0  0  0  0
   13.9499   15.1288    8.8624 H   0  0  0  0  0  0
   13.7076   12.6168    8.4761 H   0  0  0  0  0  0
   12.5651   13.2175    9.7253 H   0  0  0  0  0  0
  1  2  1  0  0  0
  2  3  2  0  0  0
  2 10  1  0  0  0
  3  4  1  0  0  0
  3 31  1  0  0  0
  4  5  2  0  0  0
  4 32  1  0  0  0
  5  6  1  0  0  0
  5  9  1  0  0  0
  6  7  1  0  0  0
  7  8  1  0  0  0
  7 33  1  0  0  0
  7 34  1  0  0  0
  8  9  1  0  0  0
  9 10  2  0  0  0
 10 11  1  0  0  0
 11 12  1  0  0  0
 11 35  1  0  0  0
 12 13  2  0  0  0
 12 30  1  0  0  0
 13 14  1  0  0  0
 13 36  1  0  0  0
 14 15  2  0  0  0
 14 37  1  0  0  0
 15 16  1  0  0  0
 16 17  1  0  0  0
 16 30  2  0  0  0
 17 18  1  0  0  0
 17 38  1  0  0  0
 18 19  2  0  0  0
 18 23  1  0  0  0
 19 20  1  0  0  0
 19 39  1  0  0  0
 20 21  2  0  0  0
 20 40  1  0  0  0
 21 22  1  0  0  0
 21 41  1  0  0  0
 22 23  2  0  0  0
 22 24  1  0  0  0
 23 42  1  0  0  0
 24 25  1  0  0  0
 24 29  1  0  0  0
 25 26  1  0  0  0
 25 43  1  0  0  0
 25 44  1  0  0  0
 26 27  1  0  0  0
 26 45  1  0  0  0
 26 46  1  0  0  0
 27 28  1  0  0  0
 28 29  1  0  0  0
 28 47  1  0  0  0
 28 48  1  0  0  0
 29 49  1  0  0  0
 29 50  1  0  0  0
M  END
> <s_m_source_file>
../2vx0_ligand.sdf

> <i_m_source_file_index>
1

> <s_epik_input>
TzFbQ0gyXU9jKGMxMiljKGMoQ2wpW2NIXVtjSF0yKVtOSF1jM1tjSF1bY0hdbmMobjMpW05IXWM0W2NIXVtjSF1bY0hdYyhbY0hdNClONVtDSDJdW0NIMl1PW0NIMl1bQ0gyXTU=

> <s_epik_cmdline>
J2VwaWtfYXBwJywgJy1pbWFlJywgJ2xpZ2FuZF9wcm8ubWFlJywgJy1vbWFlJywgJ2xpZ2FuZF9wcmVwLm1hZScsICctbXMnLCAnMScsICctcGgnLCAnNycsICctcGh0JywgJzAuNScsICctbnQn

> <r_lp_tautomer_probability>
0.999999624730965

> <r_epik_Ionization_Penalty>
  0.0269

> <r_epik_Ionization_Penalty_Charging>
  0.0000

> <r_epik_Ionization_Penalty_Neutral>
  0.0269

> <r_epik_State_Penalty>
  0.0216

> <r_epik_Charging_Adjusted_Penalty>
0.0216193509341286

> <i_epik_Tot_Q>
0

> <i_epik_Tot_abs_Q>
0

> <s_epik_Chemistry_Notes>
This compound contains an acetal/aminal-like group ( X-CH(R)-Y where X, Y are N, S, or O) that may be acid/base labile, releasing an aldehyde.

$$$$
