2vx1_ligand
                    3D
 Schrodinger Suite 2020-3.
 41 44  0  0  1  0            999 V2000
   13.7070    7.4440   11.5360 N   0  0  0  0  0  0
   13.0600    6.2240   11.8450 C   0  0  0  0  0  0
   13.9380    5.2740   12.1930 N   0  0  0  0  0  0
   13.4410    4.0610   12.4820 C   0  0  0  0  0  0
   12.0940    3.7870   12.4290 C   0  0  0  0  0  0
   11.2630    4.8390   12.0520 C   0  0  0  0  0  0
    9.8770    4.6630   11.9630 N   0  0  0  0  0  0
    9.2290    3.4730   12.3140 C   0  0  0  0  0  0
    9.1620    3.0610   13.6330 C   0  0  0  0  0  0
    9.7330    3.7180   14.7070 O   0  0  0  0  0  0
    9.6080    2.6800   15.6890 C   0  0  0  0  0  0
    8.5880    1.7080   15.3520 O   0  0  0  0  0  0
    8.5080    1.9160   13.9970 C   0  0  0  0  0  0
    7.8920    1.1020   13.0770 C   0  0  0  0  0  0
    7.9740    1.5000   11.7490 C   0  0  0  0  0  0
    8.6170    2.6650   11.3670 C   0  0  0  0  0  0
    8.6910    3.1790    9.7030 Cl  0  0  0  0  0  0
   11.7380    6.0490   11.7640 N   0  0  0  0  0  0
    9.4380   10.6280    8.9260 N   0  0  0  0  0  0
    9.7620    9.9730   10.0940 C   0  0  0  0  0  0
    8.9560    9.4620   10.8630 O   0  0  0  0  0  0
   11.1970    9.9050   10.4050 C   0  0  0  0  0  0
   11.9680   11.0430   10.3020 C   0  0  0  0  0  0
   13.3100   10.9820   10.6080 C   0  0  0  0  0  0
   13.8530    9.7840   11.0130 C   0  0  0  0  0  0
   13.0770    8.6370   11.1110 C   0  0  0  0  0  0
   11.7350    8.6920   10.8160 C   0  0  0  0  0  0
   14.8011    7.5226   11.6185 H   0  0  0  0  0  0
   14.1287    3.2654   12.7687 H   0  0  0  0  0  0
   11.6985    2.8000   12.6691 H   0  0  0  0  0  0
    9.2403    5.4843   11.6024 H   0  0  0  0  0  0
   10.5647    2.1449   15.7807 H   0  0  0  0  0  0
    9.3416    3.1237   16.6597 H   0  0  0  0  0  0
    7.3676    0.1935   13.3734 H   0  0  0  0  0  0
    7.5170    0.8745   10.9822 H   0  0  0  0  0  0
    8.3850   10.7220    8.6221 H   0  0  0  0  0  0
   10.2323   11.0569    8.2974 H   0  0  0  0  0  0
   11.5197   11.9833    9.9811 H   0  0  0  0  0  0
   13.9343   11.8721   10.5302 H   0  0  0  0  0  0
   14.9131    9.7348   11.2617 H   0  0  0  0  0  0
   11.1081    7.8046   10.9026 H   0  0  0  0  0  0
  1  2  1  0  0  0
  1 26  1  0  0  0
  1 28  1  0  0  0
  2  3  2  0  0  0
  2 18  1  0  0  0
  3  4  1  0  0  0
  4  5  2  0  0  0
  4 29  1  0  0  0
  5  6  1  0  0  0
  5 30  1  0  0  0
  6  7  1  0  0  0
  6 18  2  0  0  0
  7  8  1  0  0  0
  7 31  1  0  0  0
  8  9  2  0  0  0
  8 16  1  0  0  0
  9 10  1  0  0  0
  9 13  1  0  0  0
 10 11  1  0  0  0
 11 12  1  0  0  0
 11 32  1  0  0  0
 11 33  1  0  0  0
 12 13  1  0  0  0
 13 14  2  0  0  0
 14 15  1  0  0  0
 14 34  1  0  0  0
 15 16  2  0  0  0
 15 35  1  0  0  0
 16 17  1  0  0  0
 19 20  1  0  0  0
 19 36  1  0  0  0
 19 37  1  0  0  0
 20 21  2  0  0  0
 20 22  1  0  0  0
 22 23  2  0  0  0
 22 27  1  0  0  0
 23 24  1  0  0  0
 23 38  1  0  0  0
 24 25  2  0  0  0
 24 39  1  0  0  0
 25 26  1  0  0  0
 25 40  1  0  0  0
 26 27  2  0  0  0
 27 41  1  0  0  0
M  END
> <s_m_source_file>
../2vx1_ligand.sdf

> <i_m_source_file_index>
1

> <s_epik_input>
W05IMl1DKD1PKWMxW2NIXVtjSF1bY0hdYyhbY0hdMSlbTkhdYzJuW2NIXVtjSF1jKG4yKVtOSF1jM2MoQ2wpW2NIXVtjSF1jKGMzNClPW0NIMl1PNA==

> <s_epik_cmdline>
J2VwaWtfYXBwJywgJy1pbWFlJywgJ2xpZ2FuZF9wcm8ubWFlJywgJy1vbWFlJywgJ2xpZ2FuZF9wcmVwLm1hZScsICctbXMnLCAnMScsICctcGgnLCAnNycsICctcGh0JywgJzAuNScsICctbnQn

> <r_lp_tautomer_probability>
1

> <r_epik_Ionization_Penalty>
  0.0269

> <r_epik_Ionization_Penalty_Charging>
  0.0000

> <r_epik_Ionization_Penalty_Neutral>
  0.0269

> <r_epik_State_Penalty>
 -0.0000

> <r_epik_Charging_Adjusted_Penalty>
0

> <i_epik_Tot_Q>
0

> <i_epik_Tot_abs_Q>
0

> <s_epik_Chemistry_Notes>
This compound contains an acetal/aminal-like group ( X-CH(R)-Y where X, Y are N, S, or O) that may be acid/base labile, releasing an aldehyde.

$$$$
