2vxa_ligand
                    3D
 Schrodinger Suite 2020-3.
 47 49  0  0  1  0            999 V2000
  -25.9440  -39.1100    2.4940 N   0  0  0  0  0  0
  -27.0700  -38.9010    3.2140 C   0  0  0  0  0  0
  -28.1500  -39.1510    2.6690 O   0  0  0  0  0  0
  -27.0550  -38.4210    4.4730 N   0  0  0  0  0  0
  -25.8950  -38.1270    5.0960 C   0  0  0  0  0  0
  -25.8560  -37.6890    6.2610 O   0  0  0  0  0  0
  -24.6280  -38.3190    4.3650 C   0  0  0  0  0  0
  -23.4510  -38.0310    4.9140 N   0  0  0  0  0  0
  -22.2970  -38.2030    4.2360 C   0  0  0  0  0  0
  -21.0920  -37.8990    4.8420 C   0  0  0  0  0  0
  -19.9040  -38.0670    4.1700 C   0  0  0  0  0  0
  -18.6110  -37.7240    4.8540 C   0  0  0  0  0  0
  -19.9200  -38.5650    2.7770 C   0  0  0  0  0  0
  -18.6310  -38.7740    2.0220 C   0  0  0  0  0  0
  -21.1210  -38.8830    2.1710 C   0  0  0  0  0  0
  -22.3150  -38.7170    2.8580 C   0  0  0  0  0  0
  -23.5570  -39.0090    2.2710 N   0  0  0  0  0  0
  -24.7230  -38.8280    3.0060 C   0  0  0  0  0  0
  -23.6590  -39.5590    0.9340 C   0  0  0  0  0  0
  -23.6110  -38.4940   -0.1220 C   0  0  2  0  0  0
  -24.9460  -38.0290   -0.3910 O   0  0  0  0  0  0
  -22.8960  -39.2060   -1.2770 C   0  0  2  0  0  0
  -21.8440  -38.4110   -1.8410 O   0  0  0  0  0  0
  -23.7940  -39.6010   -2.4120 C   0  0  2  0  0  0
  -24.9780  -40.1090   -1.8300 O   0  0  0  0  0  0
  -23.0700  -40.6730   -3.2280 C   0  0  0  0  0  0
  -21.8480  -40.1040   -3.7420 O   0  0  0  0  0  0
  -28.0004  -38.2620    5.0123 H   0  0  0  0  0  0
  -21.0836  -37.5217    5.8646 H   0  0  0  0  0  0
  -18.8183  -37.3753    5.8764 H   0  0  0  0  0  0
  -18.0987  -36.9290    4.2922 H   0  0  0  0  0  0
  -17.9694  -38.6166    4.8941 H   0  0  0  0  0  0
  -17.7830  -38.4699    2.6531 H   0  0  0  0  0  0
  -18.6411  -38.1676    1.1043 H   0  0  0  0  0  0
  -18.5289  -39.8370    1.7580 H   0  0  0  0  0  0
  -21.1301  -39.2653    1.1503 H   0  0  0  0  0  0
  -22.8235  -40.2525    0.7581 H   0  0  0  0  0  0
  -24.6117  -40.0992    0.8314 H   0  0  0  0  0  0
  -23.1268  -37.5430    0.1447 H   0  0  0  0  0  0
  -25.5161  -37.5099    0.3935 H   0  0  0  0  0  0
  -22.4420  -40.1060   -0.8367 H   0  0  0  0  0  0
  -21.0550  -38.0028   -1.1924 H   0  0  0  0  0  0
  -24.1045  -38.7610   -3.0507 H   0  0  0  0  0  0
  -25.6108  -39.4558   -1.2112 H   0  0  0  0  0  0
  -22.8424  -41.5339   -2.5823 H   0  0  0  0  0  0
  -23.7132  -40.9979   -4.0591 H   0  0  0  0  0  0
  -21.1745  -40.7150   -4.3609 H   0  0  0  0  0  0
  1  2  1  0  0  0
  1 18  2  0  0  0
  2  3  2  0  0  0
  2  4  1  0  0  0
  4  5  1  0  0  0
  4 28  1  0  0  0
  5  6  2  0  0  0
  5  7  1  0  0  0
  7  8  2  0  0  0
  7 18  1  0  0  0
  8  9  1  0  0  0
  9 10  2  0  0  0
  9 16  1  0  0  0
 10 11  1  0  0  0
 10 29  1  0  0  0
 11 12  1  0  0  0
 11 13  2  0  0  0
 12 30  1  0  0  0
 12 31  1  0  0  0
 12 32  1  0  0  0
 13 14  1  0  0  0
 13 15  1  0  0  0
 14 33  1  0  0  0
 14 34  1  0  0  0
 14 35  1  0  0  0
 15 16  2  0  0  0
 15 36  1  0  0  0
 16 17  1  0  0  0
 17 18  1  0  0  0
 17 19  1  0  0  0
 19 20  1  0  0  0
 19 37  1  0  0  0
 19 38  1  0  0  0
 20 21  1  0  0  0
 20 22  1  0  0  0
 20 39  1  0  0  0
 21 40  1  0  0  0
 22 23  1  0  0  0
 22 24  1  0  0  0
 22 41  1  0  0  0
 23 42  1  0  0  0
 24 25  1  0  0  0
 24 26  1  0  0  0
 24 43  1  0  0  0
 25 44  1  0  0  0
 26 27  1  0  0  0
 26 45  1  0  0  0
 26 46  1  0  0  0
 27 47  1  0  0  0
M  END
> <s_m_source_file>
../2vxa_ligand.sdf

> <i_m_source_file_index>
1

> <s_epik_input>
Tz1jMVtuSF1jKD1PKW5jKGMxMiluKGMzYyhuMilbY0hdYyhbQ0gzXSljKFtDSDNdKVtjSF0zKVtDSDJdW0NASF0oW09IXSlbQ0BIXShbT0hdKVtDQEhdKFtPSF0pW0NIMl1bT0hd

> <s_epik_cmdline>
J2VwaWtfYXBwJywgJy1pbWFlJywgJ2xpZ2FuZF9wcm8ubWFlJywgJy1vbWFlJywgJ2xpZ2FuZF9wcmVwLm1hZScsICctbXMnLCAnMScsICctcGgnLCAnNycsICctcGh0JywgJzAuNScsICctbnQn

> <r_lp_tautomer_probability>
1

> <r_epik_Ionization_Penalty>
  0.0006

> <r_epik_Ionization_Penalty_Charging>
  0.0006

> <r_epik_Ionization_Penalty_Neutral>
  0.0000

> <r_epik_State_Penalty>
 -0.0000

> <r_epik_Charging_Adjusted_Penalty>
0.000566488079864488

> <i_epik_Tot_Q>
0

> <i_epik_Tot_abs_Q>
0

$$$$
