2vxj_ligand
                    3D
 Schrodinger Suite 2020-3.
 66 68  0  0  1  0            999 V2000
   17.5030  -26.7530  114.9340 C   0  0  2  0  0  0
   17.2490  -25.4530  114.2370 C   0  0  1  0  0  0
   17.2360  -25.6190  112.7100 C   0  0  2  0  0  0
   18.5290  -26.2850  112.2230 C   0  0  2  0  0  0
   18.7630  -27.5650  113.0480 C   0  0  1  0  0  0
   20.0510  -28.2690  112.6570 C   0  0  0  0  0  0
   16.0400  -24.9790  114.7490 O   0  0  0  0  0  0
   17.0790  -24.3870  112.1050 O   0  0  0  0  0  0
   19.5930  -25.3600  112.3180 O   0  0  0  0  0  0
   18.7130  -27.3180  114.4440 O   0  0  0  0  0  0
   20.1280  -29.5580  113.2190 O   0  0  0  0  0  0
   15.5400  -30.6020  117.0480 C   0  0  1  0  0  0
   16.0930  -29.8150  115.8520 C   0  0  1  0  0  0
   16.0590  -28.2890  116.0550 C   0  0  2  0  0  0
   14.6940  -27.8700  116.6350 C   0  0  2  0  0  0
   14.3880  -28.7620  117.8440 C   0  0  1  0  0  0
   13.1620  -28.3200  118.6300 C   0  0  0  0  0  0
   17.4220  -30.2340  115.5910 O   0  0  0  0  0  0
   16.3090  -27.5870  114.8340 O   0  0  0  0  0  0
   13.6960  -28.0490  115.6590 O   0  0  0  0  0  0
   14.2780  -30.1160  117.3960 O   0  0  0  0  0  0
   13.4370  -28.5440  120.0190 O   0  0  0  0  0  0
   13.8250  -34.6700  118.6510 C   0  0  2  0  0  0
   14.0020  -33.6020  117.5660 C   0  0  2  0  0  0
   15.2690  -32.7640  117.8430 C   0  0  1  0  0  0
   16.5030  -33.6510  118.0630 C   0  0  1  0  0  0
   17.8080  -32.9110  118.3760 C   0  0  0  0  0  0
   15.1330  -35.4210  118.8470 C   0  0  2  0  0  0
   14.9560  -36.2370  119.9940 O   0  0  0  0  0  0
   12.8280  -35.6240  118.3170 O   0  0  0  0  0  0
   12.8740  -32.7720  117.6010 O   0  0  0  0  0  0
   15.4920  -31.9800  116.7330 O   0  0  0  0  0  0
   16.2190  -34.5410  119.1100 O   0  0  0  0  0  0
   17.6410  -32.0530  119.4860 O   0  0  0  0  0  0
   17.7025  -26.6700  116.0126 H   0  0  0  0  0  0
   17.9978  -24.6857  114.4830 H   0  0  0  0  0  0
   16.3522  -26.1820  112.3754 H   0  0  0  0  0  0
   18.5252  -26.5224  111.1489 H   0  0  0  0  0  0
   17.9203  -28.2557  112.8969 H   0  0  0  0  0  0
   20.0991  -28.3640  111.5622 H   0  0  0  0  0  0
   20.9115  -27.6832  113.0124 H   0  0  0  0  0  0
   15.9261  -24.8189  115.8313 H   0  0  0  0  0  0
   16.2009  -23.7672  112.3391 H   0  0  0  0  0  0
   19.5427  -24.4060  111.7727 H   0  0  0  0  0  0
   21.0061  -30.1913  113.0244 H   0  0  0  0  0  0
   16.1384  -30.5190  117.9673 H   0  0  0  0  0  0
   15.5082  -30.0672  114.9551 H   0  0  0  0  0  0
   16.8905  -27.9775  116.7042 H   0  0  0  0  0  0
   14.6502  -26.7995  116.8843 H   0  0  0  0  0  0
   15.2278  -28.7457  118.5542 H   0  0  0  0  0  0
   12.9717  -27.2528  118.4430 H   0  0  0  0  0  0
   12.2897  -28.9094  118.3109 H   0  0  0  0  0  0
   17.6394  -31.2985  115.4193 H   0  0  0  0  0  0
   13.7447  -27.4890  114.7134 H   0  0  0  0  0  0
   12.6803  -28.2930  120.7769 H   0  0  0  0  0  0
   13.4580  -34.1910  119.5707 H   0  0  0  0  0  0
   14.0295  -34.0360  116.5556 H   0  0  0  0  0  0
   15.1307  -32.0790  118.6925 H   0  0  0  0  0  0
   16.6735  -34.2410  117.1504 H   0  0  0  0  0  0
   18.5975  -33.6415  118.6066 H   0  0  0  0  0  0
   18.1073  -32.3107  117.5042 H   0  0  0  0  0  0
   15.4226  -36.0125  117.9659 H   0  0  0  0  0  0
   14.1621  -36.9982  120.0103 H   0  0  0  0  0  0
   11.7945  -35.2970  118.1299 H   0  0  0  0  0  0
   11.8741  -33.1952  117.4249 H   0  0  0  0  0  0
   18.4855  -31.4456  119.8436 H   0  0  0  0  0  0
  1  2  1  0  0  0
  1 10  1  0  0  0
  1 19  1  0  0  0
  1 35  1  0  0  0
  2  3  1  0  0  0
  2  7  1  0  0  0
  2 36  1  0  0  0
  3  4  1  0  0  0
  3  8  1  0  0  0
  3 37  1  0  0  0
  4  5  1  0  0  0
  4  9  1  0  0  0
  4 38  1  0  0  0
  5  6  1  0  0  0
  5 10  1  0  0  0
  5 39  1  0  0  0
  6 11  1  0  0  0
  6 40  1  0  0  0
  6 41  1  0  0  0
  7 42  1  0  0  0
  8 43  1  0  0  0
  9 44  1  0  0  0
 11 45  1  0  0  0
 12 13  1  0  0  0
 12 21  1  0  0  0
 12 32  1  0  0  0
 12 46  1  0  0  0
 13 14  1  0  0  0
 13 18  1  0  0  0
 13 47  1  0  0  0
 14 15  1  0  0  0
 14 19  1  0  0  0
 14 48  1  0  0  0
 15 16  1  0  0  0
 15 20  1  0  0  0
 15 49  1  0  0  0
 16 17  1  0  0  0
 16 21  1  0  0  0
 16 50  1  0  0  0
 17 22  1  0  0  0
 17 51  1  0  0  0
 17 52  1  0  0  0
 18 53  1  0  0  0
 20 54  1  0  0  0
 22 55  1  0  0  0
 23 24  1  0  0  0
 23 28  1  0  0  0
 23 30  1  0  0  0
 23 56  1  0  0  0
 24 25  1  0  0  0
 24 31  1  0  0  0
 24 57  1  0  0  0
 25 26  1  0  0  0
 25 32  1  0  0  0
 25 58  1  0  0  0
 26 27  1  0  0  0
 26 33  1  0  0  0
 26 59  1  0  0  0
 27 34  1  0  0  0
 27 60  1  0  0  0
 27 61  1  0  0  0
 28 29  1  0  0  0
 28 33  1  0  0  0
 28 62  1  0  0  0
 29 63  1  0  0  0
 30 64  1  0  0  0
 31 65  1  0  0  0
 34 66  1  0  0  0
M  END
> <s_m_source_file>
../2vxj_ligand.sdf

> <i_m_source_file_index>
1

> <s_epik_input>
W09IXVtDSDJdW0NAQEhdKE8xKVtDQEhdKFtPSF0pW0NASF0oW09IXSlbQ0BASF0oW09IXSlbQ0BIXTFPW0NAQEhdKFtDQEBIXShbT0hdKVtDQEhdKE8yKVtDSDJdW09IXSlbQ0BASF0oW09IXSlbQ0BASF0yT1tDQEBIXShbQ0BIXShbT0hdKVtDQEhdM1tPSF0pW0NAQEhdKFtDSDJdW09IXSlPW0NASF0zW09IXQ==

> <s_epik_cmdline>
J2VwaWtfYXBwJywgJy1pbWFlJywgJ2xpZ2FuZF9wcm8ubWFlJywgJy1vbWFlJywgJ2xpZ2FuZF9wcmVwLm1hZScsICctbXMnLCAnMScsICctcGgnLCAnNycsICctcGh0JywgJzAuNScsICctbnQn

> <r_lp_tautomer_probability>
1

> <r_epik_Ionization_Penalty>
  0.0000

> <r_epik_Ionization_Penalty_Charging>
  0.0000

> <r_epik_Ionization_Penalty_Neutral>
  0.0000

> <r_epik_State_Penalty>
 -0.0000

> <r_epik_Charging_Adjusted_Penalty>
0

> <i_epik_Tot_Q>
0

> <i_epik_Tot_abs_Q>
0

> <s_epik_Chemistry_Notes>
This compound contains an acetal/aminal-like group ( X-CH(R)-Y where X, Y are N, S, or O) that may be acid/base labile, releasing an aldehyde.

$$$$
