2w06_ligand
                    3D
 Schrodinger Suite 2020-3.
 47 50  0  0  1  0            999 V2000
    4.8570   29.1990    6.0270 C   0  0  0  0  0  0
   -1.4650   29.7980   10.6100 N   0  0  0  0  0  0
   -2.6740   30.6740   10.7880 C   0  0  0  0  0  0
   -1.3900   28.5640   11.2680 C   0  0  0  0  0  0
   -2.4390   27.9550   12.1840 C   0  0  0  0  0  0
   -3.3230   31.2010    9.5000 C   0  0  0  0  0  0
   -0.0590   32.2630    8.9010 C   0  0  0  0  0  0
    0.3340   30.9190    9.0050 C   0  0  0  0  0  0
   -0.2630   29.9100    9.9010 C   0  0  0  0  0  0
    0.4340   28.7370   10.1680 C   0  0  0  0  0  0
    0.6460   33.1060    8.0000 C   0  0  0  0  0  0
    3.8290   29.5840    6.9050 C   0  0  0  0  0  0
    2.0660   31.3000    7.3620 C   0  0  0  0  0  0
    1.3780   30.5030    8.2340 N   0  0  0  0  0  0
    4.5840   23.8680    7.7490 C   0  0  0  0  0  0
    3.5800   28.7730    8.0690 C   0  0  0  0  0  0
    4.3620   27.6270    8.3170 C   0  0  0  0  0  0
    5.4010   27.2700    7.4120 C   0  0  0  0  0  0
    6.8320   25.3280    6.4470 O   0  0  0  0  0  0
    6.3720   25.8750    7.7030 S   0  0  0  0  0  0
    7.5070   26.2770    8.5100 O   0  0  0  0  0  0
    5.4520   24.6480    8.5960 N   0  0  3  0  0  0
    5.6390   28.0530    6.2750 C   0  0  0  0  0  0
    3.0800   30.7470    6.6460 N   0  0  0  0  0  0
    1.6730   32.5920    7.2770 N   0  0  0  0  0  0
   -0.2780   27.9560   10.9970 N   0  0  0  0  0  0
   -2.9320   32.1450   10.6420 C   0  0  0  0  0  0
    5.0530   29.7980    5.1377 H   0  0  0  0  0  0
   -2.8412   30.0529   11.6803 H   0  0  0  0  0  0
   -3.2940   28.6418   12.2699 H   0  0  0  0  0  0
   -2.0028   27.7861   13.1796 H   0  0  0  0  0  0
   -2.7793   26.9964   11.7654 H   0  0  0  0  0  0
   -2.6859   30.9499    8.6391 H   0  0  0  0  0  0
   -4.3122   30.7374    9.3716 H   0  0  0  0  0  0
   -0.8852   32.6505    9.4972 H   0  0  0  0  0  0
    1.4150   28.4876    9.7636 H   0  0  0  0  0  0
    0.3651   34.1535    7.8909 H   0  0  0  0  0  0
    4.0441   23.1287    8.3589 H   0  0  0  0  0  0
    5.1847   23.3475    6.9885 H   0  0  0  0  0  0
    3.8611   24.5327    7.2535 H   0  0  0  0  0  0
    2.7835   29.0467    8.7609 H   0  0  0  0  0  0
    4.1717   27.0159    9.1993 H   0  0  0  0  0  0
    5.3724   24.5653    9.6900 H   0  0  0  0  0  0
    6.4314   27.7751    5.5800 H   0  0  0  0  0  0
    3.2905   31.3485    5.7494 H   0  0  0  0  0  0
   -3.6069   32.4802   11.4434 H   0  0  0  0  0  0
   -1.9806   32.6928   10.7109 H   0  0  0  0  0  0
  1 12  2  0  0  0
  1 23  1  0  0  0
  1 28  1  0  0  0
  2  3  1  0  0  0
  2  4  1  0  0  0
  2  9  1  0  0  0
  3  6  1  0  0  0
  3 27  1  0  0  0
  3 29  1  0  0  0
  4  5  1  0  0  0
  4 26  2  0  0  0
  5 30  1  0  0  0
  5 31  1  0  0  0
  5 32  1  0  0  0
  6 27  1  0  0  0
  6 33  1  0  0  0
  6 34  1  0  0  0
  7  8  2  0  0  0
  7 11  1  0  0  0
  7 35  1  0  0  0
  8  9  1  0  0  0
  8 14  1  0  0  0
  9 10  2  0  0  0
 10 26  1  0  0  0
 10 36  1  0  0  0
 11 25  2  0  0  0
 11 37  1  0  0  0
 12 16  1  0  0  0
 12 24  1  0  0  0
 13 14  2  0  0  0
 13 24  1  0  0  0
 13 25  1  0  0  0
 15 22  1  0  0  0
 15 38  1  0  0  0
 15 39  1  0  0  0
 15 40  1  0  0  0
 16 17  2  0  0  0
 16 41  1  0  0  0
 17 18  1  0  0  0
 17 42  1  0  0  0
 18 20  1  0  0  0
 18 23  2  0  0  0
 19 20  2  0  0  0
 20 21  2  0  0  0
 20 22  1  0  0  0
 22 43  1  0  0  0
 23 44  1  0  0  0
 24 45  1  0  0  0
 27 46  1  0  0  0
 27 47  1  0  0  0
M  END
> <s_m_source_file>
../2w06_ligand.sdf

> <i_m_source_file_index>
1

> <s_epik_input>
W0NIM11bTkhdUyg9TykoPU8pYyhbY0hdW2NIXTEpW2NIXVtjSF1jMVtOSF1jKG4yKW5bY0hdW2NIXWMyLWMzW2NIXW5jKFtDSDNdKW4zW0NIXTRbQ0gyXVtDSDJdNA==

> <s_epik_cmdline>
J2VwaWtfYXBwJywgJy1pbWFlJywgJ2xpZ2FuZF9wcm8ubWFlJywgJy1vbWFlJywgJ2xpZ2FuZF9wcmVwLm1hZScsICctbXMnLCAnMScsICctcGgnLCAnNycsICctcGh0JywgJzAuNScsICctbnQn

> <r_lp_tautomer_probability>
0.999999987636

> <r_epik_Ionization_Penalty>
  0.2439

> <r_epik_Ionization_Penalty_Charging>
  0.2438

> <r_epik_Ionization_Penalty_Neutral>
  0.0001

> <r_epik_State_Penalty>
  0.2349

> <r_epik_Charging_Adjusted_Penalty>
0.478712197271281

> <i_epik_Tot_Q>
0

> <i_epik_Tot_abs_Q>
0

$$$$
