2w08_ligand
                    3D
 Schrodinger Suite 2020-3.
 20 19  0  0  1  0            999 V2000
   20.2600   15.2810   54.5620 N   0  3  0  0  0  0
   18.8860   15.3250   54.0400 C   0  0  1  0  0  0
   17.8960   15.1610   55.1950 C   0  0  1  0  0  0
   17.9310   13.7350   55.7490 C   0  0  0  0  0  0
   18.1930   16.1160   56.2180 O   0  0  0  0  0  0
   17.0290   16.6210   57.2100 P   0  0  0  0  0  0
   16.9190   15.5260   58.3970 O   0  5  0  0  0  0
   15.7240   16.8440   56.5380 O   0  0  0  0  0  0
   17.5780   17.9650   57.9260 O   0  5  0  0  0  0
   18.6450   16.6680   53.3480 C   0  0  0  0  0  0
   19.4490   17.5910   53.6040 O   0  5  0  0  0  0
   17.6880   16.7500   52.5890 O   0  0  0  0  0  0
   20.4325   14.3151   55.0594 H   0  0  0  0  0  0
   20.4036   16.0969   55.2856 H   0  0  0  0  0  0
   20.9717   15.3980   53.7314 H   0  0  0  0  0  0
   18.7818   14.4980   53.3223 H   0  0  0  0  0  0
   16.8728   15.3986   54.8684 H   0  0  0  0  0  0
   17.6997   13.0228   54.9432 H   0  0  0  0  0  0
   17.1857   13.6352   56.5518 H   0  0  0  0  0  0
   18.9328   13.5220   56.1502 H   0  0  0  0  0  0
  1  2  1  0  0  0
  1 13  1  0  0  0
  1 14  1  0  0  0
  1 15  1  0  0  0
  2  3  1  0  0  0
  2 10  1  0  0  0
  2 16  1  0  0  0
  3  4  1  0  0  0
  3  5  1  0  0  0
  3 17  1  0  0  0
  4 18  1  0  0  0
  4 19  1  0  0  0
  4 20  1  0  0  0
  5  6  1  0  0  0
  6  7  1  0  0  0
  6  8  2  0  0  0
  6  9  1  0  0  0
 10 11  1  0  0  0
 10 12  2  0  0  0
M  CHG  4   1   1   7  -1   9  -1  11  -1
M  END
> <s_m_source_file>
../2w08_ligand.sdf

> <i_m_source_file_index>
1

> <s_epik_input>
W09IXUMoPU8pW0NAQEhdKFtOSDMrXSlbQ0BASF0oW0NIM10pT1AoPU8pKFtPSF0pW09IXQ==

> <s_epik_cmdline>
J2VwaWtfYXBwJywgJy1pbWFlJywgJ2xpZ2FuZF9wcm8ubWFlJywgJy1vbWFlJywgJ2xpZ2FuZF9wcmVwLm1hZScsICctbXMnLCAnMScsICctcGgnLCAnNycsICctcGh0JywgJzAuNScsICctbnQn

> <r_lp_tautomer_probability>
1

> <r_epik_Ionization_Penalty>
  0.1023

> <r_epik_Ionization_Penalty_Charging>
  0.1023

> <r_epik_Ionization_Penalty_Neutral>
  0.0000

> <r_epik_State_Penalty>
 -0.0000

> <r_epik_Charging_Adjusted_Penalty>
0.102250035997588

> <i_epik_Tot_Q>
-2

> <i_epik_Tot_abs_Q>
4

$$$$
