2w0j_ligand
                    3D
 Schrodinger Suite 2020-3.
 56 57  0  0  1  0            999 V2000
   41.4160  -28.0480   -0.1660 N   0  0  0  0  0  0
   40.8920  -28.4310    1.0040 C   0  0  0  0  0  0
   40.3830  -27.5060    1.8270 N   0  0  0  0  0  0
   40.9140  -29.7350    1.3350 N   0  3  0  0  0  0
   40.4600  -30.0950    2.4220 N   0  0  0  0  0  0
   40.4070  -31.3320    2.9090 C   0  0  2  0  0  0
   40.8990  -32.5410    2.1060 C   0  0  0  0  0  0
   39.7360  -31.4320    4.1260 C   0  0  0  0  0  0
   39.8940  -30.4400    5.0910 C   0  0  0  0  0  0
   39.1810  -30.5170    6.2820 C   0  0  0  0  0  0
   38.8260  -32.4690    4.3510 C   0  0  0  0  0  0
   38.1120  -32.5600    5.5470 C   0  0  0  0  0  0
   38.2880  -31.5780    6.5210 C   0  0  0  0  0  0
   37.6450  -31.5640    7.7030 N   0  0  0  0  0  0
   37.0690  -32.6010    8.3470 C   0  0  0  0  0  0
   37.0270  -33.7560    7.8750 O   0  0  0  0  0  0
   36.5040  -32.2210    9.5300 N   0  0  0  0  0  0
   35.9090  -33.0090   10.4710 C   0  0  0  0  0  0
   35.5810  -34.3670   10.3280 C   0  0  0  0  0  0
   34.9960  -35.0630   11.3890 C   0  0  0  0  0  0
   35.6410  -32.3940   11.6970 C   0  0  0  0  0  0
   35.0630  -33.0910   12.7560 C   0  0  0  0  0  0
   34.7180  -34.4390   12.6210 C   0  0  0  0  0  0
   34.1270  -35.1110   13.7320 C   0  0  0  0  0  0
   33.3300  -36.4180   13.6250 C   0  0  0  0  0  0
   34.3360  -34.5680   14.9360 N   0  0  0  0  0  0
   33.9460  -35.0110   16.0280 N   0  0  0  0  0  0
   34.2300  -34.3560   17.1740 C   0  0  0  0  0  0
   33.7910  -34.7870   18.3390 N   0  3  0  0  0  0
   34.9560  -33.2450   17.1820 N   0  0  0  0  0  0
   41.8568  -28.7953   -0.8422 H   0  0  0  0  0  0
   40.3788  -26.4472    1.5289 H   0  0  0  0  0  0
   39.9690  -27.8048    2.8013 H   0  0  0  0  0  0
   41.2602  -30.8445    3.4033 H   0  0  0  0  0  0
   41.3949  -32.1939    1.1875 H   0  0  0  0  0  0
   40.0426  -33.1788    1.8417 H   0  0  0  0  0  0
   41.6126  -33.1181    2.7124 H   0  0  0  0  0  0
   40.5739  -29.6068    4.9131 H   0  0  0  0  0  0
   39.3154  -29.7457    7.0404 H   0  0  0  0  0  0
   38.6710  -33.2212    3.5775 H   0  0  0  0  0  0
   37.4250  -33.3889    5.7174 H   0  0  0  0  0  0
   37.5427  -30.6224    8.2623 H   0  0  0  0  0  0
   36.4950  -31.1598    9.8194 H   0  0  0  0  0  0
   35.7832  -34.8792    9.3873 H   0  0  0  0  0  0
   34.7482  -36.1166   11.2600 H   0  0  0  0  0  0
   35.8908  -31.3412   11.8282 H   0  0  0  0  0  0
   34.8777  -32.5794   13.7005 H   0  0  0  0  0  0
   33.2563  -36.7171   12.5690 H   0  0  0  0  0  0
   32.3204  -36.2664   14.0345 H   0  0  0  0  0  0
   33.8421  -37.2074   14.1948 H   0  0  0  0  0  0
   33.3644  -35.9438   16.0670 H   0  0  0  0  0  0
   33.1843  -35.7029   18.3935 H   0  0  0  0  0  0
   35.3493  -32.8382   16.2387 H   0  0  0  0  0  0
   35.1644  -32.7310   18.1319 H   0  0  0  0  0  0
   41.3343  -30.4780    0.6412 H   0  0  0  0  0  0
   34.0312  -34.2309   19.2572 H   0  0  0  0  0  0
  1  2  2  0  0  0
  1 31  1  0  0  0
  2  3  1  0  0  0
  2  4  1  0  0  0
  3 32  1  0  0  0
  3 33  1  0  0  0
  4  5  2  0  0  0
  4 55  1  0  0  0
  5  6  1  0  0  0
  6  7  1  0  0  0
  6  8  1  0  0  0
  6 34  1  0  0  0
  7 35  1  0  0  0
  7 36  1  0  0  0
  7 37  1  0  0  0
  8  9  2  0  0  0
  8 11  1  0  0  0
  9 10  1  0  0  0
  9 38  1  0  0  0
 10 13  2  0  0  0
 10 39  1  0  0  0
 11 12  2  0  0  0
 11 40  1  0  0  0
 12 13  1  0  0  0
 12 41  1  0  0  0
 13 14  1  0  0  0
 14 15  1  0  0  0
 14 42  1  0  0  0
 15 16  2  0  0  0
 15 17  1  0  0  0
 17 18  1  0  0  0
 17 43  1  0  0  0
 18 19  2  0  0  0
 18 21  1  0  0  0
 19 20  1  0  0  0
 19 44  1  0  0  0
 20 23  2  0  0  0
 20 45  1  0  0  0
 21 22  2  0  0  0
 21 46  1  0  0  0
 22 23  1  0  0  0
 22 47  1  0  0  0
 23 24  1  0  0  0
 24 25  1  0  0  0
 24 26  2  0  0  0
 25 48  1  0  0  0
 25 49  1  0  0  0
 25 50  1  0  0  0
 26 27  1  0  0  0
 27 28  1  0  0  0
 27 51  1  0  0  0
 28 29  2  0  0  0
 28 30  1  0  0  0
 29 52  1  0  0  0
 29 56  1  0  0  0
 30 53  1  0  0  0
 30 54  1  0  0  0
M  CHG  2   4   1  29   1
M  END
> <s_m_source_file>
../2w0j_ligand.sdf

> <i_m_source_file_index>
1

> <s_epik_input>
W0hdL049QygvW05IMl0pXE49TlxbQ0BIXShbQ0gzXSljMVtjSF1bY0hdYyhbY0hdW2NIXTEpW05IXUMoPU8pW05IXWMyW2NIXVtjSF1jKFtjSF1bY0hdMikvQyhbQ0gzXSk9Ti9bTkhdL0MoPU5cW0hdKVtOSDJd

> <s_epik_cmdline>
J2VwaWtfYXBwJywgJy1pbWFlJywgJ2xpZ2FuZF9wcm8ubWFlJywgJy1vbWFlJywgJ2xpZ2FuZF9wcmVwLm1hZScsICctbXMnLCAnMScsICctcGgnLCAnNycsICctcGh0JywgJzAuNScsICctbnQn

> <r_lp_tautomer_probability>
1

> <r_epik_Ionization_Penalty>
  0.0005

> <r_epik_Ionization_Penalty_Charging>
  0.0004

> <r_epik_Ionization_Penalty_Neutral>
  0.0001

> <r_epik_State_Penalty>
 -0.0000

> <r_epik_Charging_Adjusted_Penalty>
0.000433752395210824

> <i_epik_Tot_Q>
2

> <i_epik_Tot_abs_Q>
2

> <s_epik_Chemistry_Notes>
This compound has an imine and may undergo hydrolysis.

$$$$
