2w0p_ligand
                    3D
 Schrodinger Suite 2020-3.
144144  0  0  1  0            999 V2000
   12.3650   22.3830   48.5110 N   0  3  0  0  0  0
   12.9570   22.6280   47.1570 C   0  0  2  0  0  0
   12.3070   21.7250   46.0940 C   0  0  0  0  0  0
   12.3480   20.4810   46.1860 O   0  0  0  0  0  0
   14.4840   22.4250   47.1150 C   0  0  0  0  0  0
   15.3260   23.2400   48.0630 C   0  0  0  0  0  0
   16.6700   23.6530   47.4080 C   0  0  0  0  0  0
   17.6050   22.5570   47.0650 N   0  0  0  0  0  0
   18.6880   22.7090   46.2880 C   0  0  0  0  0  0
   18.9950   23.9100   45.7680 N   0  0  0  0  0  0
   19.4790   21.6600   46.0260 N   0  3  0  0  0  0
   11.7090   22.3530   45.0840 N   0  0  0  0  0  0
   11.2910   21.6520   43.8860 C   0  0  2  0  0  0
   12.0020   22.3690   42.7200 C   0  0  0  0  0  0
   12.5000   23.5080   42.8750 O   0  0  0  0  0  0
    9.7930   21.7100   43.6790 C   0  0  0  0  0  0
    9.0500   20.7030   44.6200 C   0  0  0  0  0  0
    9.3080   23.1150   43.8810 C   0  0  0  0  0  0
   12.0320   21.7120   41.5700 N   0  0  0  0  0  0
   12.8970   22.1730   40.4670 C   0  0  2  0  0  0
   12.2570   21.9110   39.0880 C   0  0  0  0  0  0
   11.4560   20.9800   38.9250 O   0  0  0  0  0  0
   14.2700   21.5290   40.5530 C   0  0  0  0  0  0
   12.5890   22.7720   38.1160 N   0  0  0  0  0  0
   12.2250   22.6050   36.7200 C   0  0  2  0  0  0
   13.5520   22.7760   36.0300 C   0  0  0  0  0  0
   14.2350   23.7680   36.2820 O   0  0  0  0  0  0
   11.3300   23.7420   36.2380 C   0  0  0  0  0  0
   10.1760   23.8280   37.0550 O   0  0  0  0  0  0
   13.8780   21.7760   35.2080 N   0  0  0  0  0  0
   15.1860   21.5990   34.5350 C   0  0  2  0  0  0
   14.8210   21.3870   33.0690 C   0  0  0  0  0  0
   14.0700   20.4890   32.7800 O   0  0  0  0  0  0
   15.8140   20.3100   35.0160 C   0  0  0  0  0  0
   17.1730   20.2080   34.6610 O   0  0  0  0  0  0
   15.3610   22.2130   32.1720 N   0  0  0  0  0  0
   14.9870   22.1880   30.7530 C   0  0  2  0  0  0
   16.2700   22.0920   29.9150 C   0  0  0  0  0  0
   17.2800   22.7170   30.2610 O   0  0  0  0  0  0
   14.1360   23.4300   30.3290 C   0  0  0  0  0  0
   13.5130   23.1930   28.9200 C   0  0  0  0  0  0
   13.0790   23.7820   31.3650 C   0  0  0  0  0  0
   16.2210   21.2770   28.8700 N   0  0  0  0  0  0
   17.3540   21.1120   27.9620 C   0  0  2  0  0  0
   16.8730   21.4920   26.5630 C   0  0  0  0  0  0
   15.7960   21.0610   26.1320 O   0  0  0  0  0  0
   17.8600   19.6760   27.9870 C   0  0  0  0  0  0
   18.9690   19.4170   26.9770 C   0  0  0  0  0  0
   20.2990   19.5100   27.3640 C   0  0  0  0  0  0
   18.6620   19.1060   25.6380 C   0  0  0  0  0  0
   21.3160   19.2810   26.4360 C   0  0  0  0  0  0
   19.6640   18.8980   24.7010 C   0  0  0  0  0  0
   20.9970   18.9880   25.1000 C   0  0  0  0  0  0
   17.6640   22.3090   25.8760 N   0  0  0  0  0  0
   17.2140   22.8630   24.5850 C   0  0  2  0  0  0
   18.2620   22.6030   23.5290 C   0  0  0  0  0  0
   19.4170   22.8950   23.7560 O   0  0  0  0  0  0
   17.0030   24.4060   24.6850 C   0  0  2  0  0  0
   16.1810   24.8060   25.9160 C   0  0  0  0  0  0
   16.4200   24.9680   23.3580 C   0  0  0  0  0  0
   14.7560   24.4680   25.7870 C   0  0  0  0  0  0
   17.8330   22.0680   22.3900 N   0  0  0  0  0  0
   18.7010   21.7200   21.2480 C   0  0  2  0  0  0
   17.8660   21.3010   20.0140 C   0  0  0  0  0  0
   16.7378   21.8148   19.7886 O   0  0  0  0  0  0
   19.4810   20.4280   21.5350 C   0  0  2  0  0  0
   20.6750   20.3940   20.7360 O   0  0  0  0  0  0
   18.5790   19.2120   21.2080 C   0  0  0  0  0  0
   18.3214   20.4327   19.2226 O   0  5  0  0  0  0
   11.2777   22.5446   48.4705 H   0  0  0  0  0  0
   12.8121   23.0773   49.2377 H   0  0  0  0  0  0
   12.5705   21.3472   48.8191 H   0  0  0  0  0  0
   12.7336   23.6872   46.9618 H   0  0  0  0  0  0
   14.7210   21.3763   47.3474 H   0  0  0  0  0  0
   14.8592   22.6718   46.1109 H   0  0  0  0  0  0
   14.7800   24.1516   48.3472 H   0  0  0  0  0  0
   15.5428   22.6467   48.9635 H   0  0  0  0  0  0
   16.4707   24.1828   46.4648 H   0  0  0  0  0  0
   17.2225   24.3152   48.0908 H   0  0  0  0  0  0
   17.4306   21.5431   47.4544 H   0  0  0  0  0  0
   18.3538   24.7794   45.9755 H   0  0  0  0  0  0
   19.8875   24.0234   45.1350 H   0  0  0  0  0  0
   19.2389   20.6718   46.4454 H   0  0  0  0  0  0
   11.5345   23.4351   45.1772 H   0  0  0  0  0  0
   11.5560   20.5918   44.0117 H   0  0  0  0  0  0
    9.5836   21.4463   42.6318 H   0  0  0  0  0  0
    9.4315   19.6865   44.4434 H   0  0  0  0  0  0
    7.9709   20.7316   44.4086 H   0  0  0  0  0  0
    9.2257   20.9835   45.6690 H   0  0  0  0  0  0
    9.8515   23.7913   43.2048 H   0  0  0  0  0  0
    9.4859   23.4180   44.9234 H   0  0  0  0  0  0
    8.2310   23.1660   43.6630 H   0  0  0  0  0  0
   11.4060   20.8168   41.4407 H   0  0  0  0  0  0
   13.0017   23.2576   40.6177 H   0  0  0  0  0  0
   14.7070   21.7281   41.5426 H   0  0  0  0  0  0
   14.9217   21.9496   39.7730 H   0  0  0  0  0  0
   14.1755   20.4430   40.4056 H   0  0  0  0  0  0
   13.1738   23.6489   38.4308 H   0  0  0  0  0  0
   11.7072   21.6455   36.5743 H   0  0  0  0  0  0
   11.8830   24.6914   36.2907 H   0  0  0  0  0  0
   11.0247   23.5528   35.1983 H   0  0  0  0  0  0
    9.4148   24.5959   36.8526 H   0  0  0  0  0  0
   13.0729   21.0440   35.0466 H   0  0  0  0  0  0
   15.8561   22.4481   34.7351 H   0  0  0  0  0  0
   15.7450   20.2554   36.1125 H   0  0  0  0  0  0
   15.2826   19.4552   34.5722 H   0  0  0  0  0  0
   17.7515   19.3180   34.9496 H   0  0  0  0  0  0
   16.1126   22.9319   32.5301 H   0  0  0  0  0  0
   14.3671   21.2874   30.6322 H   0  0  0  0  0  0
   14.7874   24.3155   30.2889 H   0  0  0  0  0  0
   14.3098   22.9420   28.2043 H   0  0  0  0  0  0
   12.9970   24.1063   28.5889 H   0  0  0  0  0  0
   12.7926   22.3634   28.9725 H   0  0  0  0  0  0
   13.5608   23.9403   32.3411 H   0  0  0  0  0  0
   12.3538   22.9586   31.4432 H   0  0  0  0  0  0
   12.5582   24.7016   31.0597 H   0  0  0  0  0  0
   15.2909   20.7158   28.6966 H   0  0  0  0  0  0
   18.1686   21.7670   28.3046 H   0  0  0  0  0  0
   18.2581   19.4449   28.9860 H   0  0  0  0  0  0
   17.0311   18.9910   27.7551 H   0  0  0  0  0  0
   20.5494   19.7623   28.3944 H   0  0  0  0  0  0
   17.6187   19.0273   25.3324 H   0  0  0  0  0  0
   22.3591   19.3296   26.7485 H   0  0  0  0  0  0
   19.4122   18.6671   23.6659 H   0  0  0  0  0  0
   21.7937   18.8305   24.3730 H   0  0  0  0  0  0
   18.6561   22.5721   26.2716 H   0  0  0  0  0  0
   16.2805   22.3342   24.3420 H   0  0  0  0  0  0
   17.9815   24.8821   24.8456 H   0  0  0  0  0  0
   16.5703   24.2836   26.8023 H   0  0  0  0  0  0
   16.2550   25.8928   26.0690 H   0  0  0  0  0  0
   17.0510   24.6480   22.5157 H   0  0  0  0  0  0
   16.3985   26.0669   23.4033 H   0  0  0  0  0  0
   15.3980   24.5868   23.2161 H   0  0  0  0  0  0
   14.2218   24.7782   26.6972 H   0  0  0  0  0  0
   14.6477   23.3819   25.6504 H   0  0  0  0  0  0
   14.3324   24.9911   24.9170 H   0  0  0  0  0  0
   16.7495   21.8869   22.3326 H   0  0  0  0  0  0
   19.3135   22.6245   21.1186 H   0  0  0  0  0  0
   19.8399   20.3971   22.5743 H   0  0  0  0  0  0
   21.4300   21.1870   20.8413 H   0  0  0  0  0  0
   17.6705   19.2524   21.8269 H   0  0  0  0  0  0
   19.1263   18.2818   21.4205 H   0  0  0  0  0  0
   18.2996   19.2382   20.1444 H   0  0  0  0  0  0
   20.3686   21.7868   45.3915 H   0  0  0  0  0  0
  1  2  1  0  0  0
  1 70  1  0  0  0
  1 71  1  0  0  0
  1 72  1  0  0  0
  2  3  1  0  0  0
  2  5  1  0  0  0
  2 73  1  0  0  0
  3  4  2  0  0  0
  3 12  1  0  0  0
  5  6  1  0  0  0
  5 74  1  0  0  0
  5 75  1  0  0  0
  6  7  1  0  0  0
  6 76  1  0  0  0
  6 77  1  0  0  0
  7  8  1  0  0  0
  7 78  1  0  0  0
  7 79  1  0  0  0
  8  9  1  0  0  0
  8 80  1  0  0  0
  9 10  1  0  0  0
  9 11  2  0  0  0
 10 81  1  0  0  0
 10 82  1  0  0  0
 11 83  1  0  0  0
 11144  1  0  0  0
 12 13  1  0  0  0
 12 84  1  0  0  0
 13 14  1  0  0  0
 13 16  1  0  0  0
 13 85  1  0  0  0
 14 15  2  0  0  0
 14 19  1  0  0  0
 16 17  1  0  0  0
 16 18  1  0  0  0
 16 86  1  0  0  0
 17 87  1  0  0  0
 17 88  1  0  0  0
 17 89  1  0  0  0
 18 90  1  0  0  0
 18 91  1  0  0  0
 18 92  1  0  0  0
 19 20  1  0  0  0
 19 93  1  0  0  0
 20 21  1  0  0  0
 20 23  1  0  0  0
 20 94  1  0  0  0
 21 22  2  0  0  0
 21 24  1  0  0  0
 23 95  1  0  0  0
 23 96  1  0  0  0
 23 97  1  0  0  0
 24 25  1  0  0  0
 24 98  1  0  0  0
 25 26  1  0  0  0
 25 28  1  0  0  0
 25 99  1  0  0  0
 26 27  2  0  0  0
 26 30  1  0  0  0
 28 29  1  0  0  0
 28100  1  0  0  0
 28101  1  0  0  0
 29102  1  0  0  0
 30 31  1  0  0  0
 30103  1  0  0  0
 31 32  1  0  0  0
 31 34  1  0  0  0
 31104  1  0  0  0
 32 33  2  0  0  0
 32 36  1  0  0  0
 34 35  1  0  0  0
 34105  1  0  0  0
 34106  1  0  0  0
 35107  1  0  0  0
 36 37  1  0  0  0
 36108  1  0  0  0
 37 38  1  0  0  0
 37 40  1  0  0  0
 37109  1  0  0  0
 38 39  2  0  0  0
 38 43  1  0  0  0
 40 41  1  0  0  0
 40 42  1  0  0  0
 40110  1  0  0  0
 41111  1  0  0  0
 41112  1  0  0  0
 41113  1  0  0  0
 42114  1  0  0  0
 42115  1  0  0  0
 42116  1  0  0  0
 43 44  1  0  0  0
 43117  1  0  0  0
 44 45  1  0  0  0
 44 47  1  0  0  0
 44118  1  0  0  0
 45 46  2  0  0  0
 45 54  1  0  0  0
 47 48  1  0  0  0
 47119  1  0  0  0
 47120  1  0  0  0
 48 49  2  0  0  0
 48 50  1  0  0  0
 49 51  1  0  0  0
 49121  1  0  0  0
 50 52  2  0  0  0
 50122  1  0  0  0
 51 53  2  0  0  0
 51123  1  0  0  0
 52 53  1  0  0  0
 52124  1  0  0  0
 53125  1  0  0  0
 54 55  1  0  0  0
 54126  1  0  0  0
 55 56  1  0  0  0
 55 58  1  0  0  0
 55127  1  0  0  0
 56 57  2  0  0  0
 56 62  1  0  0  0
 58 59  1  0  0  0
 58 60  1  0  0  0
 58128  1  0  0  0
 59 61  1  0  0  0
 59129  1  0  0  0
 59130  1  0  0  0
 60131  1  0  0  0
 60132  1  0  0  0
 60133  1  0  0  0
 61134  1  0  0  0
 61135  1  0  0  0
 61136  1  0  0  0
 62 63  1  0  0  0
 62137  1  0  0  0
 63 64  1  0  0  0
 63 66  1  0  0  0
 63138  1  0  0  0
 64 65  2  0  0  0
 64 69  1  0  0  0
 66 67  1  0  0  0
 66 68  1  0  0  0
 66139  1  0  0  0
 67140  1  0  0  0
 68141  1  0  0  0
 68142  1  0  0  0
 68143  1  0  0  0
M  CHG  3   1   1  11   1  69  -1
M  END
> <s_m_source_file>
../2w0p_ligand.sdf

> <i_m_source_file_index>
1

> <s_epik_input>
W0hdL049QyhbTkgyXSlcW05IXVtDSDJdW0NIMl1bQ0gyXVtDQEhdKFtOSDMrXSlDKD1PKVtOSF1bQ0BASF0oW0NIXShbQ0gzXSlbQ0gzXSlDKD1PKVtOSF1bQ0BASF0oW0NIM10pQyg9TylbTkhdW0NAQEhdKFtDSDJdW09IXSlDKD1PKVtOSF1bQ0BASF0oW0NIMl1bT0hdKUMoPU8pW05IXVtDQEBIXShbQ0hdKFtDSDNdKVtDSDNdKUMoPU8pW05IXVtDQEBIXShbQ0gyXWMxW2NIXVtjSF1bY0hdW2NIXVtjSF0xKUMoPU8pW05IXVtDQEBIXShbQ0BASF0oW0NIM10pW0NIMl1bQ0gzXSlDKD1PKVtOSF1bQ0BIXShDKD1PKVtPSF0pW0NASF0oW09IXSlbQ0gzXQ==

> <s_epik_cmdline>
J2VwaWtfYXBwJywgJy1pbWFlJywgJ2xpZ2FuZF9wcm8ubWFlJywgJy1vbWFlJywgJ2xpZ2FuZF9wcmVwLm1hZScsICctbXMnLCAnMScsICctcGgnLCAnNycsICctcGh0JywgJzAuNScsICctbnQn

> <r_epik_Ionization_Penalty>
  0.1303

> <r_epik_Ionization_Penalty_Charging>
  0.1303

> <r_epik_Ionization_Penalty_Neutral>
  0.0000

> <r_epik_State_Penalty>
  0.1196

> <r_epik_Charging_Adjusted_Penalty>
0.24986935181088

> <i_epik_Tot_Q>
1

> <i_epik_Tot_abs_Q>
3

> <s_epik_Chemistry_Notes>
This compound has an imine and may undergo hydrolysis.

$$$$
