2w0s_ligand
                    3D
 Schrodinger Suite 2020-3.
 37 38  0  0  1  0            999 V2000
    4.2640    4.8280  -49.6280 O   0  0  0  0  0  0
    3.0380    4.3700  -50.1830 C   0  0  1  0  0  0
    2.8530    2.8560  -50.0660 C   0  0  0  0  0  0
    2.3230    2.7710  -48.6560 C   0  0  1  0  0  0
    1.2520    3.6990  -48.7120 O   0  0  0  0  0  0
    1.8870    4.8730  -49.2890 C   0  0  2  0  0  0
    0.8850    5.7800  -49.9840 C   0  0  0  0  0  0
    0.4000    5.1010  -51.1350 O   0  0  0  0  0  0
   -0.3280    5.8950  -52.3250 P   0  0  0  0  0  0
    0.8210    6.2430  -53.4560 O   0  5  0  0  0  0
   -1.2540    4.7360  -53.0270 O   0  5  0  0  0  0
   -1.0420    7.1150  -51.8810 O   0  0  0  0  0  0
    1.9680    1.4050  -48.1350 N   0  0  0  0  0  0
    2.5510    0.8120  -47.0210 C   0  0  0  0  0  0
    2.1460   -0.4790  -46.6680 C   0  0  0  0  0  0
    2.6520   -1.0980  -45.5240 C   0  0  0  0  0  0
    3.5800   -0.2370  -44.6390 C   0  0  0  0  0  0
    4.2140   -1.1030  -43.1340 Br  0  0  0  0  0  0
    1.1260   -1.1310  -47.3640 C   0  0  0  0  0  0
    0.7320   -2.2490  -47.0470 O   0  0  0  0  0  0
    0.5410   -0.5350  -48.4500 N   0  0  0  0  0  0
    1.0010    0.7350  -48.8080 C   0  0  0  0  0  0
    0.4790    1.2620  -49.7890 O   0  0  0  0  0  0
    5.2168    4.5771  -50.1170 H   0  0  0  0  0  0
    3.1107    4.7355  -51.2180 H   0  0  0  0  0  0
    2.1437    2.5129  -50.8335 H   0  0  0  0  0  0
    3.8217    2.3558  -50.2122 H   0  0  0  0  0  0
    3.0535    3.0588  -47.8856 H   0  0  0  0  0  0
    2.2797    5.4952  -48.4713 H   0  0  0  0  0  0
    0.0550    6.0034  -49.2976 H   0  0  0  0  0  0
    1.3806    6.7172  -50.2773 H   0  0  0  0  0  0
    3.3050    1.3402  -46.4373 H   0  0  0  0  0  0
    1.8189   -1.4105  -44.8773 H   0  0  0  0  0  0
    3.2414   -1.9802  -45.8146 H   0  0  0  0  0  0
    4.4575    0.0760  -45.2238 H   0  0  0  0  0  0
    3.0341    0.6528  -44.2922 H   0  0  0  0  0  0
   -0.2561   -1.0562  -49.0004 H   0  0  0  0  0  0
  1  2  1  0  0  0
  1 24  1  0  0  0
  2  3  1  0  0  0
  2  6  1  0  0  0
  2 25  1  0  0  0
  3  4  1  0  0  0
  3 26  1  0  0  0
  3 27  1  0  0  0
  4  5  1  0  0  0
  4 13  1  0  0  0
  4 28  1  0  0  0
  5  6  1  0  0  0
  6  7  1  0  0  0
  6 29  1  0  0  0
  7  8  1  0  0  0
  7 30  1  0  0  0
  7 31  1  0  0  0
  8  9  1  0  0  0
  9 10  1  0  0  0
  9 11  1  0  0  0
  9 12  2  0  0  0
 13 14  1  0  0  0
 13 22  1  0  0  0
 14 15  2  0  0  0
 14 32  1  0  0  0
 15 16  1  0  0  0
 15 19  1  0  0  0
 16 17  1  0  0  0
 16 33  1  0  0  0
 16 34  1  0  0  0
 17 18  1  0  0  0
 17 35  1  0  0  0
 17 36  1  0  0  0
 19 20  2  0  0  0
 19 21  1  0  0  0
 21 22  1  0  0  0
 21 37  1  0  0  0
 22 23  2  0  0  0
M  CHG  2  10  -1  11  -1
M  END
> <s_m_source_file>
../2w0s_ligand.sdf

> <i_m_source_file_index>
1

> <s_epik_input>
W09IXVAoPU8pKFtPSF0pT1tDSDJdW0NASF0xT1tDQEhdKFtDSDJdW0NAQEhdMVtPSF0pbjJbY0hdYyhbQ0gyXVtDSDJdQnIpYyg9TylbbkhdYzI9Tw==

> <s_epik_cmdline>
J2VwaWtfYXBwJywgJy1pbWFlJywgJ2xpZ2FuZF9wcm8ubWFlJywgJy1vbWFlJywgJ2xpZ2FuZF9wcmVwLm1hZScsICctbXMnLCAnMScsICctcGgnLCAnNycsICctcGh0JywgJzAuNScsICctbnQn

> <r_lp_tautomer_probability>
0.999537046341301

> <r_epik_Ionization_Penalty>
  0.1101

> <r_epik_Ionization_Penalty_Charging>
  0.1101

> <r_epik_Ionization_Penalty_Neutral>
  0.0000

> <r_epik_State_Penalty>
  0.0980

> <r_epik_Charging_Adjusted_Penalty>
0.208108337147985

> <i_epik_Tot_Q>
-2

> <i_epik_Tot_abs_Q>
2

> <s_epik_Chemistry_Notes>
This compound contains an acetal/aminal-like group ( X-CH(R)-Y where X, Y are N, S, or O) that may be acid/base labile, releasing an aldehyde.

$$$$
