2w0x_ligand
                    3D
 Schrodinger Suite 2020-3.
 15 15  0  0  1  0            999 V2000
   16.4820   25.7290   29.3780 O   0  0  0  0  0  0
   17.4950   25.1540   28.6100 C   0  0  0  0  0  0
   17.1600   24.4080   27.4740 O   0  5  0  0  0  0
   18.8860   25.7720   28.7470 C   0  0  0  0  0  0
   18.9930   26.9360   29.3280 C   0  0  0  0  0  0
   20.3620   27.5850   29.5190 C   0  0  0  0  0  0
   20.1170   25.0760   28.2330 C   0  0  0  0  0  0
   21.2850   25.6790   28.4120 C   0  0  0  0  0  0
   21.4020   26.9880   29.0930 N   0  0  0  0  0  0
   22.5390   25.0780   27.8310 C   0  0  0  0  0  0
   23.6750   25.8740   27.7280 O   0  0  0  0  0  0
   22.4720   23.8360   27.1880 O   0  5  0  0  0  0
   18.0978   27.4489   29.6797 H   0  0  0  0  0  0
   20.4477   28.5513   30.0160 H   0  0  0  0  0  0
   20.0514   24.1105   27.7313 H   0  0  0  0  0  0
  1  2  2  0  0  0
  2  3  1  0  0  0
  2  4  1  0  0  0
  4  5  2  0  0  0
  4  7  1  0  0  0
  5  6  1  0  0  0
  5 13  1  0  0  0
  6  9  2  0  0  0
  6 14  1  0  0  0
  7  8  2  0  0  0
  7 15  1  0  0  0
  8  9  1  0  0  0
  8 10  1  0  0  0
 10 11  2  0  0  0
 10 12  1  0  0  0
M  CHG  2   3  -1  12  -1
M  END
> <s_m_source_file>
../2w0x_ligand.sdf

> <i_m_source_file_index>
1

> <s_epik_input>
Tz1DKFtPSF0pYzFbY0hdW2NIXW5jKFtjSF0xKUMoPU8pW09IXQ==

> <s_epik_cmdline>
J2VwaWtfYXBwJywgJy1pbWFlJywgJ2xpZ2FuZF9wcm8ubWFlJywgJy1vbWFlJywgJ2xpZ2FuZF9wcmVwLm1hZScsICctbXMnLCAnMScsICctcGgnLCAnNycsICctcGh0JywgJzAuNScsICctbnQn

> <r_epik_Ionization_Penalty>
  0.0125

> <r_epik_Ionization_Penalty_Charging>
  0.0014

> <r_epik_Ionization_Penalty_Neutral>
  0.0111

> <r_epik_State_Penalty>
  0.0086

> <r_epik_Charging_Adjusted_Penalty>
0.00994701251583157

> <i_epik_Tot_Q>
-2

> <i_epik_Tot_abs_Q>
2

$$$$
