2w0z_ligand
                    3D
 Schrodinger Suite 2020-3.
143148  0  0  1  0            999 V2000
   22.6840   23.1280    7.9120 N   0  3  0  0  0  0
   22.7030   22.1580    9.0610 C   0  0  2  0  0  0
   21.4390   21.2950    9.0070 C   0  0  0  0  0  0
   20.4290   21.7520    8.4860 O   0  0  0  0  0  0
   22.7860   22.8800   10.3470 C   0  0  0  0  0  0
   21.4750   20.0440    9.5340 N   0  0  0  0  0  0
   20.2220   19.2780    9.4050 C   0  0  2  0  0  0
   19.1460   19.8720   10.3310 C   0  0  0  0  0  0
   19.4920   20.6510   11.2320 O   0  0  0  0  0  0
   20.6210   17.8600    9.8440 C   0  0  0  0  0  0
   21.7870   18.0650   10.7680 C   0  0  0  0  0  0
   22.5310   19.2730   10.2170 C   0  0  0  0  0  0
   17.8650   19.5220   10.1130 N   0  0  0  0  0  0
   16.7760   20.1470   10.8630 C   0  0  2  0  0  0
   16.8510   19.8250   12.3520 C   0  0  0  0  0  0
   17.4000   18.7980   12.7390 O   0  0  0  0  0  0
   15.5240   19.4770   10.2730 C   0  0  0  0  0  0
   15.9120   18.9890    8.9400 C   0  0  0  0  0  0
   17.3610   18.6030    9.0700 C   0  0  0  0  0  0
   16.2970   20.6990   13.2070 N   0  0  0  0  0  0
   16.3070   20.3490   14.6380 C   0  0  2  0  0  0
   15.5340   19.0710   14.9660 C   0  0  0  0  0  0
   14.4660   18.8270   14.3900 O   0  0  0  0  0  0
   15.6000   21.5430   15.2970 C   0  0  0  0  0  0
   15.6510   22.6490   14.2460 C   0  0  0  0  0  0
   15.5740   21.9490   12.9370 C   0  0  0  0  0  0
   16.0610   18.2740   15.8810 N   0  0  0  0  0  0
   15.3300   17.1080   16.3720 C   0  0  2  0  0  0
   14.0090   17.6040   16.9770 C   0  0  0  0  0  0
   14.0290   18.5250   17.8190 O   0  0  0  0  0  0
   16.1540   16.3540   17.4210 C   0  0  0  0  0  0
   17.4980   15.8080   16.9200 C   0  0  0  0  0  0
   18.4760   15.5190   18.0550 C   0  0  0  0  0  0
   17.8930   14.7180   19.1450 N   0  0  0  0  0  0
   17.8720   13.3830   19.1960 C   0  0  0  0  0  0
   17.2920   12.7730   20.2270 N   0  0  0  0  0  0
   18.4180   12.6430   18.2350 N   0  3  0  0  0  0
   12.8680   17.0120   16.5540 N   0  0  0  0  0  0
   11.5720   17.4460   17.0660 C   0  0  2  0  0  0
   11.3480   16.9390   18.4780 C   0  0  0  0  0  0
   12.1130   16.0960   18.9760 O   0  0  0  0  0  0
   10.5620   16.8440   16.0680 C   0  0  0  0  0  0
   11.2580   15.7070   15.4140 C   0  0  0  0  0  0
   12.7480   15.9010   15.5790 C   0  0  0  0  0  0
   10.3130   17.4760   19.1510 N   0  0  0  0  0  0
   10.0850   17.0800   20.5250 C   0  0  2  0  0  0
    9.7670   15.5970   20.6190 C   0  0  0  0  0  0
    9.0130   15.0540   19.7960 O   0  0  0  0  0  0
    8.8540   17.9120   20.9380 C   0  0  0  0  0  0
    8.7640   19.0380   19.9370 C   0  0  0  0  0  0
    9.3040   18.4400   18.6650 C   0  0  0  0  0  0
   10.3530   14.9310   21.6000 N   0  0  0  0  0  0
    9.8710   13.6000   21.9220 C   0  0  2  0  0  0
    8.5530   13.7460   22.6900 C   0  0  0  0  0  0
    8.4420   14.6100   23.5740 O   0  0  0  0  0  0
   10.9090   12.8100   22.6960 C   0  0  0  0  0  0
   12.1330   12.5180   21.8590 C   0  0  0  0  0  0
   12.5520   11.0930   21.9460 C   0  0  0  0  0  0
   13.8240   10.8860   21.1420 C   0  0  0  0  0  0
   14.3990    9.5480   21.3640 N   0  3  0  0  0  0
    7.5390   12.9380   22.3320 N   0  0  0  0  0  0
    6.1880   13.0630   22.9210 C   0  0  2  0  0  0
    6.1090   12.7540   24.4260 C   0  0  0  0  0  0
    7.0470   12.1930   25.0030 O   0  0  0  0  0  0
    5.3620   12.0440   22.1300 C   0  0  0  0  0  0
    6.3740   11.0800   21.5590 C   0  0  0  0  0  0
    7.5950   11.8840   21.2960 C   0  0  0  0  0  0
   22.6220   22.5728    6.9644 H   0  0  0  0  0  0
   23.6047   23.7297    7.9249 H   0  0  0  0  0  0
   21.8113   23.7910    8.0063 H   0  0  0  0  0  0
   23.6066   21.5338    8.9985 H   0  0  0  0  0  0
   23.6993   23.4928   10.3652 H   0  0  0  0  0  0
   22.8145   22.1547   11.1735 H   0  0  0  0  0  0
   21.9059   23.5302   10.4599 H   0  0  0  0  0  0
   19.8266   19.3178    8.3793 H   0  0  0  0  0  0
   19.7723   17.3820   10.3551 H   0  0  0  0  0  0
   20.8980   17.2668    8.9600 H   0  0  0  0  0  0
   21.4186   18.2496   11.7879 H   0  0  0  0  0  0
   22.4204   17.1657   10.7642 H   0  0  0  0  0  0
   23.3075   18.9914    9.4905 H   0  0  0  0  0  0
   22.9783   19.8881   11.0118 H   0  0  0  0  0  0
   16.8355   21.2408   10.7622 H   0  0  0  0  0  0
   15.2113   18.6470   10.9236 H   0  0  0  0  0  0
   14.7112   20.2150   10.2040 H   0  0  0  0  0  0
   15.2858   18.1263    8.6688 H   0  0  0  0  0  0
   15.7713   19.7911    8.2006 H   0  0  0  0  0  0
   17.9237   18.7619    8.1383 H   0  0  0  0  0  0
   17.4908   17.5629    9.4038 H   0  0  0  0  0  0
   17.3461   20.1635   14.9476 H   0  0  0  0  0  0
   14.5659   21.2640   15.5477 H   0  0  0  0  0  0
   16.1362   21.8257   16.2149 H   0  0  0  0  0  0
   14.7999   23.3309   14.3898 H   0  0  0  0  0  0
   16.5917   23.2098   14.3492 H   0  0  0  0  0  0
   16.0788   22.4971   12.1278 H   0  0  0  0  0  0
   14.5419   21.7177   12.6349 H   0  0  0  0  0  0
   17.0640   18.4993   16.2725 H   0  0  0  0  0  0
   15.1577   16.4394   15.5157 H   0  0  0  0  0  0
   16.3807   17.0262   18.2617 H   0  0  0  0  0  0
   15.5796   15.4901   17.7869 H   0  0  0  0  0  0
   17.3309   14.8690   16.3719 H   0  0  0  0  0  0
   17.9666   16.5447   16.2509 H   0  0  0  0  0  0
   19.3389   14.9611   17.6623 H   0  0  0  0  0  0
   18.8209   16.4676   18.4923 H   0  0  0  0  0  0
   17.4267   15.2184   20.0065 H   0  0  0  0  0  0
   16.8349   13.3676   21.0317 H   0  0  0  0  0  0
   17.2697   11.6742   20.2744 H   0  0  0  0  0  0
   18.9020   13.1286   17.3748 H   0  0  0  0  0  0
   11.5279   18.5429   17.1357 H   0  0  0  0  0  0
    9.6686   16.5026   16.6114 H   0  0  0  0  0  0
   10.2735   17.6089   15.3320 H   0  0  0  0  0  0
   10.9464   14.7647   15.8882 H   0  0  0  0  0  0
   10.9977   15.6833   14.3455 H   0  0  0  0  0  0
   13.2328   16.1883   14.6343 H   0  0  0  0  0  0
   13.2376   15.0031   15.9841 H   0  0  0  0  0  0
   10.9929   17.2553   21.1209 H   0  0  0  0  0  0
    7.9557   17.2779   20.9071 H   0  0  0  0  0  0
    8.9967   18.2961   21.9588 H   0  0  0  0  0  0
    7.7154   19.3537   19.8336 H   0  0  0  0  0  0
    9.3700   19.8874   20.2851 H   0  0  0  0  0  0
    9.7909   19.1869   18.0208 H   0  0  0  0  0  0
    8.5338   17.9057   18.0894 H   0  0  0  0  0  0
   11.1891   15.3655   22.1677 H   0  0  0  0  0  0
    9.7139   13.0658   20.9733 H   0  0  0  0  0  0
   11.2243   13.3854   23.5789 H   0  0  0  0  0  0
   10.4752   11.8519   23.0184 H   0  0  0  0  0  0
   11.9188   12.7455   20.8043 H   0  0  0  0  0  0
   12.9712   13.1405   22.2054 H   0  0  0  0  0  0
   12.7372   10.8288   22.9976 H   0  0  0  0  0  0
   11.7554   10.4512   21.5416 H   0  0  0  0  0  0
   13.6017   10.9931   20.0700 H   0  0  0  0  0  0
   14.5713   11.6368   21.4383 H   0  0  0  0  0  0
   15.3156    9.4390   20.7657 H   0  0  0  0  0  0
   13.6705    8.7811   21.0619 H   0  0  0  0  0  0
   14.6402    9.4249   22.4302 H   0  0  0  0  0  0
    5.8663   14.1110   22.8308 H   0  0  0  0  0  0
    5.2073   13.0370   24.9889 H   0  0  0  0  0  0
    4.6570   11.5390   22.8067 H   0  0  0  0  0  0
    4.8022   12.5619   21.3373 H   0  0  0  0  0  0
    6.5717   10.2811   22.2888 H   0  0  0  0  0  0
    5.9786   10.6398   20.6317 H   0  0  0  0  0  0
    7.5852   12.3489   20.2991 H   0  0  0  0  0  0
    8.5180   11.2983   21.4183 H   0  0  0  0  0  0
   18.3855   11.5454   18.3005 H   0  0  0  0  0  0
  1  2  1  0  0  0
  1 68  1  0  0  0
  1 69  1  0  0  0
  1 70  1  0  0  0
  2  3  1  0  0  0
  2  5  1  0  0  0
  2 71  1  0  0  0
  3  4  2  0  0  0
  3  6  1  0  0  0
  5 72  1  0  0  0
  5 73  1  0  0  0
  5 74  1  0  0  0
  6  7  1  0  0  0
  6 12  1  0  0  0
  7  8  1  0  0  0
  7 10  1  0  0  0
  7 75  1  0  0  0
  8  9  2  0  0  0
  8 13  1  0  0  0
 10 11  1  0  0  0
 10 76  1  0  0  0
 10 77  1  0  0  0
 11 12  1  0  0  0
 11 78  1  0  0  0
 11 79  1  0  0  0
 12 80  1  0  0  0
 12 81  1  0  0  0
 13 14  1  0  0  0
 13 19  1  0  0  0
 14 15  1  0  0  0
 14 17  1  0  0  0
 14 82  1  0  0  0
 15 16  2  0  0  0
 15 20  1  0  0  0
 17 18  1  0  0  0
 17 83  1  0  0  0
 17 84  1  0  0  0
 18 19  1  0  0  0
 18 85  1  0  0  0
 18 86  1  0  0  0
 19 87  1  0  0  0
 19 88  1  0  0  0
 20 21  1  0  0  0
 20 26  1  0  0  0
 21 22  1  0  0  0
 21 24  1  0  0  0
 21 89  1  0  0  0
 22 23  2  0  0  0
 22 27  1  0  0  0
 24 25  1  0  0  0
 24 90  1  0  0  0
 24 91  1  0  0  0
 25 26  1  0  0  0
 25 92  1  0  0  0
 25 93  1  0  0  0
 26 94  1  0  0  0
 26 95  1  0  0  0
 27 28  1  0  0  0
 27 96  1  0  0  0
 28 29  1  0  0  0
 28 31  1  0  0  0
 28 97  1  0  0  0
 29 30  2  0  0  0
 29 38  1  0  0  0
 31 32  1  0  0  0
 31 98  1  0  0  0
 31 99  1  0  0  0
 32 33  1  0  0  0
 32100  1  0  0  0
 32101  1  0  0  0
 33 34  1  0  0  0
 33102  1  0  0  0
 33103  1  0  0  0
 34 35  1  0  0  0
 34104  1  0  0  0
 35 36  1  0  0  0
 35 37  2  0  0  0
 36105  1  0  0  0
 36106  1  0  0  0
 37107  1  0  0  0
 37143  1  0  0  0
 38 39  1  0  0  0
 38 44  1  0  0  0
 39 40  1  0  0  0
 39 42  1  0  0  0
 39108  1  0  0  0
 40 41  2  0  0  0
 40 45  1  0  0  0
 42 43  1  0  0  0
 42109  1  0  0  0
 42110  1  0  0  0
 43 44  1  0  0  0
 43111  1  0  0  0
 43112  1  0  0  0
 44113  1  0  0  0
 44114  1  0  0  0
 45 46  1  0  0  0
 45 51  1  0  0  0
 46 47  1  0  0  0
 46 49  1  0  0  0
 46115  1  0  0  0
 47 48  2  0  0  0
 47 52  1  0  0  0
 49 50  1  0  0  0
 49116  1  0  0  0
 49117  1  0  0  0
 50 51  1  0  0  0
 50118  1  0  0  0
 50119  1  0  0  0
 51120  1  0  0  0
 51121  1  0  0  0
 52 53  1  0  0  0
 52122  1  0  0  0
 53 54  1  0  0  0
 53 56  1  0  0  0
 53123  1  0  0  0
 54 55  2  0  0  0
 54 61  1  0  0  0
 56 57  1  0  0  0
 56124  1  0  0  0
 56125  1  0  0  0
 57 58  1  0  0  0
 57126  1  0  0  0
 57127  1  0  0  0
 58 59  1  0  0  0
 58128  1  0  0  0
 58129  1  0  0  0
 59 60  1  0  0  0
 59130  1  0  0  0
 59131  1  0  0  0
 60132  1  0  0  0
 60133  1  0  0  0
 60134  1  0  0  0
 61 62  1  0  0  0
 61 67  1  0  0  0
 62 63  1  0  0  0
 62 65  1  0  0  0
 62135  1  0  0  0
 63 64  2  0  0  0
 63136  1  0  0  0
 65 66  1  0  0  0
 65137  1  0  0  0
 65138  1  0  0  0
 66 67  1  0  0  0
 66139  1  0  0  0
 66140  1  0  0  0
 67141  1  0  0  0
 67142  1  0  0  0
M  CHG  3   1   1  37   1  60   1
M  END
> <s_m_source_file>
../2w0z_ligand.sdf

> <i_m_source_file_index>
1

> <s_epik_input>
W05IMytdW0NAQEhdKFtDSDNdKUMoPU8pTjFbQ0BASF0oW0NIMl1bQ0gyXVtDSDJdMSlDKD1PKU4yW0NAQEhdKFtDSDJdW0NIMl1bQ0gyXTIpQyg9TylOM1tDQEBIXShbQ0gyXVtDSDJdW0NIMl0zKUMoPU8pW05IXVtDQEBIXShbQ0gyXVtDSDJdW0NIMl1bTkhdL0MoW05IMl0pPU5cW0hdKUMoPU8pTjRbQ0BASF0oW0NIMl1bQ0gyXVtDSDJdNClDKD1PKU41W0NAQEhdKFtDSDJdW0NIMl1bQ0gyXTUpQyg9TylbTkhdW0NAQEhdKFtDSDJdW0NIMl1bQ0gyXVtDSDJdW05IMytdKUMoPU8pTjZbQ0BIXShbQ0hdPU8pW0NIMl1bQ0gyXVtDSDJdNg==

> <s_epik_cmdline>
J2VwaWtfYXBwJywgJy1pbWFlJywgJ2xpZ2FuZF9wcm8ubWFlJywgJy1vbWFlJywgJ2xpZ2FuZF9wcmVwLm1hZScsICctbXMnLCAnMScsICctcGgnLCAnNycsICctcGh0JywgJzAuNScsICctbnQn

> <r_lp_tautomer_probability>
0.99990000499975

> <r_epik_Ionization_Penalty>
  0.1164

> <r_epik_Ionization_Penalty_Charging>
  0.1162

> <r_epik_Ionization_Penalty_Neutral>
  0.0002

> <r_epik_State_Penalty>
  0.1054

> <r_epik_Charging_Adjusted_Penalty>
0.221656282185978

> <i_epik_Tot_Q>
3

> <i_epik_Tot_abs_Q>
3

> <s_epik_Chemistry_Notes>
This compound has an imine and may undergo hydrolysis.

$$$$
