2w10_ligand
                    3D
 Schrodinger Suite 2020-3.
194199  0  0  1  0            999 V2000
   10.8740   -9.9030    2.4560 N   0  3  0  0  0  0
    9.4740   -9.6890    2.7920 C   0  0  2  0  0  0
    8.6720  -10.9730    2.8960 C   0  0  0  0  0  0
    9.1400  -12.0240    2.4660 O   0  0  0  0  0  0
    8.9060   -8.8630    1.6010 C   0  0  0  0  0  0
   10.0040   -8.6900    0.6170 C   0  0  0  0  0  0
   11.1670   -9.5800    1.0410 C   0  0  0  0  0  0
    7.4400  -10.8680    3.4160 N   0  0  0  0  0  0
    6.4960  -11.9630    3.3630 C   0  0  2  0  0  0
    6.1320  -12.3100    1.9280 C   0  0  0  0  0  0
    6.3210  -11.4680    1.0060 O   0  0  0  0  0  0
    5.2380  -11.3970    4.0500 C   0  0  0  0  0  0
    5.7130  -10.2180    4.8210 C   0  0  0  0  0  0
    6.8950   -9.7010    4.1270 C   0  0  0  0  0  0
    5.5340  -13.4950    1.7440 N   0  0  0  0  0  0
    4.9960  -13.8680    0.4710 C   0  0  2  0  0  0
    3.8990  -12.8870    0.0540 C   0  0  0  0  0  0
    3.2210  -12.3200    0.9190 O   0  0  0  0  0  0
    4.3630  -15.2300    0.7360 C   0  0  0  0  0  0
    4.9110  -15.7140    2.0110 C   0  0  0  0  0  0
    5.2580  -14.5100    2.7750 C   0  0  0  0  0  0
    3.7400  -12.7060   -1.2530 N   0  0  0  0  0  0
    2.6290  -11.9380   -1.7760 C   0  0  2  0  0  0
    1.3160  -12.6060   -1.3600 C   0  0  0  0  0  0
    1.2850  -13.8280   -1.1000 O   0  0  0  0  0  0
    2.6820  -11.8580   -3.2970 C   0  0  0  0  0  0
    3.8610  -11.0800   -3.8790 C   0  0  0  0  0  0
    3.9190  -11.2340   -5.3640 C   0  0  0  0  0  0
    2.5940  -11.1450   -5.9840 N   0  0  0  0  0  0
    2.0760  -10.0520   -6.5440 C   0  0  0  0  0  0
    0.8660  -10.1160   -7.0770 N   0  0  0  0  0  0
    2.7540   -8.9060   -6.5850 N   0  0  0  0  0  0
    0.2330  -11.8210   -1.2750 N   0  0  0  0  0  0
   -1.0850  -12.4690   -1.0840 C   0  0  2  0  0  0
   -1.4420  -13.2370   -2.3470 C   0  0  0  0  0  0
   -0.9340  -12.9070   -3.4130 O   0  0  0  0  0  0
   -2.0430  -11.3070   -0.8740 C   0  0  0  0  0  0
   -1.2120  -10.0890   -0.7800 C   0  0  0  0  0  0
    0.1260  -10.3640   -1.3540 C   0  0  0  0  0  0
   -2.2680  -14.2730   -2.2090 N   0  0  0  0  0  0
   -2.7750  -15.0100   -3.3460 C   0  0  2  0  0  0
   -4.2820  -14.8500   -3.5070 C   0  0  0  0  0  0
   -4.8670  -15.3860   -4.4510 O   0  0  0  0  0  0
   -2.4580  -16.5070   -3.2260 C   0  0  2  0  0  0
   -3.0620  -17.0400   -2.0340 O   0  0  0  0  0  0
   -0.9630  -16.7280   -3.1970 C   0  0  0  0  0  0
   -4.9440  -14.1060   -2.6250 N   0  0  0  0  0  0
   -6.3670  -13.8820   -2.8070 C   0  0  2  0  0  0
   -6.5950  -13.0900   -4.0950 C   0  0  0  0  0  0
   -5.7310  -12.2750   -4.4880 O   0  0  0  0  0  0
   -6.9360  -13.1240   -1.6450 C   0  0  0  0  0  0
   -7.7650  -13.2780   -4.7470 N   0  0  0  0  0  0
   -8.1130  -12.4020   -5.8760 C   0  0  2  0  0  0
   -8.1930  -10.9590   -5.4100 C   0  0  0  0  0  0
   -8.5680  -10.7130   -4.2660 O   0  0  0  0  0  0
   -9.4820  -12.9100   -6.3110 C   0  0  0  0  0  0
   -9.4980  -14.3060   -5.8790 C   0  0  0  0  0  0
   -8.7780  -14.3150   -4.5500 C   0  0  0  0  0  0
   -7.7970  -10.0240   -6.2610 N   0  0  0  0  0  0
   -7.7690   -8.6230   -5.8700 C   0  0  2  0  0  0
   -9.1330   -7.9960   -6.0790 C   0  0  0  0  0  0
   -9.8360   -8.3110   -7.0510 O   0  0  0  0  0  0
   -6.7020   -7.8520   -6.6560 C   0  0  0  0  0  0
   -5.3030   -8.0200   -6.0890 C   0  0  0  0  0  0
   -4.2220   -7.4270   -6.9410 C   0  0  0  0  0  0
   -3.8530   -8.3670   -8.0610 C   0  0  0  0  0  0
   -2.8100   -7.8340   -8.9310 N   0  3  0  0  0  0
   -9.5340   -7.1120   -5.1660 N   0  0  0  0  0  0
  -10.7660   -6.3880   -5.4440 C   0  0  2  0  0  0
  -10.5640   -5.3990   -6.5820 C   0  0  0  0  0  0
   -9.4300   -5.0720   -6.9120 O   0  0  0  0  0  0
  -11.0550   -5.6550   -4.1280 C   0  0  0  0  0  0
   -9.7600   -5.6720   -3.3470 C   0  0  0  0  0  0
   -8.9360   -6.7780   -3.8590 C   0  0  0  0  0  0
  -11.6470   -4.9200   -7.1850 N   0  0  0  0  0  0
  -11.5140   -3.8890   -8.2130 C   0  0  2  0  0  0
  -11.2500   -2.5260   -7.5920 C   0  0  0  0  0  0
  -11.5640   -2.3000   -6.4220 O   0  0  0  0  0  0
  -12.7490   -3.8340   -9.1120 C   0  0  0  0  0  0
  -12.8040   -4.9120  -10.2070 C   0  0  0  0  0  0
  -11.4230   -5.5670  -10.4990 C   0  0  0  0  0  0
  -13.8310   -5.9770   -9.9020 C   0  0  0  0  0  0
  -10.6100   -1.6360   -8.3490 N   0  0  0  0  0  0
  -10.6300   -0.2000   -8.0160 C   0  0  2  0  0  0
  -10.9790    0.6380   -9.2250 C   0  0  0  0  0  0
  -10.6670    0.2530  -10.3480 O   0  0  0  0  0  0
   -9.3140    0.2620   -7.3950 C   0  0  0  0  0  0
   -7.9750   -0.4030   -7.7360 C   0  0  0  0  0  0
   -7.6490   -0.2830   -9.1840 C   0  0  0  0  0  0
   -6.9230    0.2650   -6.9060 C   0  0  0  0  0  0
   11.5052   -9.2626    3.0897 H   0  0  0  0  0  0
   11.1348  -10.9580    2.6260 H   0  0  0  0  0  0
    9.4530   -9.2194    3.7865 H   0  0  0  0  0  0
    8.0639   -9.4058    1.1469 H   0  0  0  0  0  0
    8.5581   -7.8853    1.9657 H   0  0  0  0  0  0
    9.6496   -8.9813   -0.3828 H   0  0  0  0  0  0
   10.3199   -7.6364    0.6015 H   0  0  0  0  0  0
   12.1331   -9.0580    0.9765 H   0  0  0  0  0  0
   11.2126  -10.5095    0.4546 H   0  0  0  0  0  0
    6.9525  -12.8477    3.8309 H   0  0  0  0  0  0
    4.5005  -11.1103    3.2858 H   0  0  0  0  0  0
    4.8040  -12.1633    4.7091 H   0  0  0  0  0  0
    4.9186   -9.4579    4.8551 H   0  0  0  0  0  0
    5.9680  -10.5281    5.8451 H   0  0  0  0  0  0
    7.6484   -9.3148    4.8293 H   0  0  0  0  0  0
    6.6354   -8.9172    3.4002 H   0  0  0  0  0  0
    5.7973  -13.8626   -0.2826 H   0  0  0  0  0  0
    3.2702  -15.1206    0.7977 H   0  0  0  0  0  0
    4.6169  -15.9181   -0.0838 H   0  0  0  0  0  0
    4.1508  -16.3141    2.5326 H   0  0  0  0  0  0
    5.7982  -16.3346    1.8168 H   0  0  0  0  0  0
    6.1556  -14.6580    3.3934 H   0  0  0  0  0  0
    4.4268  -14.1706    3.4105 H   0  0  0  0  0  0
    4.4724  -13.1527   -1.9416 H   0  0  0  0  0  0
    2.7395  -10.9323   -1.3443 H   0  0  0  0  0  0
    2.7460  -12.8732   -3.7155 H   0  0  0  0  0  0
    1.7726  -11.3642   -3.6701 H   0  0  0  0  0  0
    3.7507  -10.0124   -3.6379 H   0  0  0  0  0  0
    4.7992  -11.4584   -3.4470 H   0  0  0  0  0  0
    4.5490  -10.4396   -5.7907 H   0  0  0  0  0  0
    4.3472  -12.2158   -5.6144 H   0  0  0  0  0  0
    1.9394  -12.0286   -6.0119 H   0  0  0  0  0  0
    0.3008  -11.0592   -7.0466 H   0  0  0  0  0  0
    3.7599   -8.8460   -6.1440 H   0  0  0  0  0  0
    2.3079   -8.0197   -7.0599 H   0  0  0  0  0  0
   -1.0870  -13.1753   -0.2407 H   0  0  0  0  0  0
   -2.7363  -11.2448   -1.7258 H   0  0  0  0  0  0
   -2.6141  -11.4654    0.0527 H   0  0  0  0  0  0
   -1.6925   -9.2732   -1.3400 H   0  0  0  0  0  0
   -1.1072   -9.7972    0.2754 H   0  0  0  0  0  0
    0.9367   -9.9046   -0.7694 H   0  0  0  0  0  0
    0.2061  -10.0468   -2.4042 H   0  0  0  0  0  0
   -2.5631  -14.5628   -1.1897 H   0  0  0  0  0  0
   -2.2474  -14.5465   -4.1926 H   0  0  0  0  0  0
   -2.8944  -17.0718   -4.0630 H   0  0  0  0  0  0
   -4.1497  -16.9656   -1.8881 H   0  0  0  0  0  0
   -0.5137  -16.3165   -4.1128 H   0  0  0  0  0  0
   -0.7528  -17.8061   -3.1379 H   0  0  0  0  0  0
   -0.5346  -16.2223   -2.3191 H   0  0  0  0  0  0
   -4.4231  -13.6621   -1.7638 H   0  0  0  0  0  0
   -6.8363  -14.8760   -2.8490 H   0  0  0  0  0  0
   -6.7714  -13.6946   -0.7191 H   0  0  0  0  0  0
   -8.0152  -12.9754   -1.7973 H   0  0  0  0  0  0
   -6.4387  -12.1460   -1.5663 H   0  0  0  0  0  0
   -7.3563  -12.4426   -6.6733 H   0  0  0  0  0  0
  -10.2666  -12.3161   -5.8195 H   0  0  0  0  0  0
   -9.5790  -12.8138   -7.4025 H   0  0  0  0  0  0
  -10.5390  -14.6467   -5.7782 H   0  0  0  0  0  0
   -8.9797  -14.9266   -6.6248 H   0  0  0  0  0  0
   -8.2840  -15.2737   -4.3336 H   0  0  0  0  0  0
   -9.4269  -14.0381   -3.7060 H   0  0  0  0  0  0
   -7.4869  -10.3185   -7.2745 H   0  0  0  0  0  0
   -7.5179   -8.6207   -4.7991 H   0  0  0  0  0  0
   -6.6838   -8.2087   -7.6964 H   0  0  0  0  0  0
   -6.9398   -6.7781   -6.6407 H   0  0  0  0  0  0
   -5.2448   -7.5308   -5.1055 H   0  0  0  0  0  0
   -5.0779   -9.0911   -5.9796 H   0  0  0  0  0  0
   -4.5744   -6.4788   -7.3732 H   0  0  0  0  0  0
   -3.3304   -7.2399   -6.3245 H   0  0  0  0  0  0
   -3.4849   -9.3137   -7.6388 H   0  0  0  0  0  0
   -4.7393   -8.5627   -8.6825 H   0  0  0  0  0  0
   -2.5864   -8.5626   -9.7242 H   0  0  0  0  0  0
   -1.9015   -7.6443   -8.3405 H   0  0  0  0  0  0
   -3.1559   -6.8932   -9.3842 H   0  0  0  0  0  0
  -11.5602   -7.0802   -5.7603 H   0  0  0  0  0  0
  -11.3745   -4.6250   -4.3446 H   0  0  0  0  0  0
  -11.8538   -6.1799   -3.5837 H   0  0  0  0  0  0
   -9.2372   -4.7138   -3.4830 H   0  0  0  0  0  0
   -9.9776   -5.8226   -2.2793 H   0  0  0  0  0  0
   -8.9776   -7.6585   -3.2010 H   0  0  0  0  0  0
   -7.8879   -6.4761   -4.0017 H   0  0  0  0  0  0
  -12.6429   -5.2985   -6.9113 H   0  0  0  0  0  0
  -10.6401   -4.1953   -8.8067 H   0  0  0  0  0  0
  -13.6541   -3.9603   -8.4998 H   0  0  0  0  0  0
  -12.7861   -2.8616   -9.6250 H   0  0  0  0  0  0
  -13.1387   -4.3867  -11.1137 H   0  0  0  0  0  0
  -10.6843   -4.7823  -10.7194 H   0  0  0  0  0  0
  -11.5121   -6.2402  -11.3644 H   0  0  0  0  0  0
  -11.0964   -6.1415   -9.6196 H   0  0  0  0  0  0
  -14.8019   -5.5022   -9.6975 H   0  0  0  0  0  0
  -13.5115   -6.5528   -9.0208 H   0  0  0  0  0  0
  -13.9273   -6.6515  -10.7656 H   0  0  0  0  0  0
  -10.0605   -1.9876   -9.2347 H   0  0  0  0  0  0
  -11.4302   -0.0897   -7.2693 H   0  0  0  0  0  0
  -11.5120    1.5919   -9.0990 H   0  0  0  0  0  0
   -9.1366    1.3163   -7.6539 H   0  0  0  0  0  0
   -9.3678    0.1571   -6.3013 H   0  0  0  0  0  0
   -8.0040   -1.4832   -7.5301 H   0  0  0  0  0  0
   -8.4310   -0.7784   -9.7782 H   0  0  0  0  0  0
   -6.6789   -0.7622   -9.3824 H   0  0  0  0  0  0
   -7.5962    0.7802   -9.4611 H   0  0  0  0  0  0
   -7.1793    0.1669   -5.8408 H   0  0  0  0  0  0
   -6.8671    1.3306   -7.1731 H   0  0  0  0  0  0
   -5.9498   -0.2118   -7.0944 H   0  0  0  0  0  0
  1  2  1  0  0  0
  1  7  1  0  0  0
  1 91  1  0  0  0
  1 92  1  0  0  0
  2  3  1  0  0  0
  2  5  1  0  0  0
  2 93  1  0  0  0
  3  4  2  0  0  0
  3  8  1  0  0  0
  5  6  1  0  0  0
  5 94  1  0  0  0
  5 95  1  0  0  0
  6  7  1  0  0  0
  6 96  1  0  0  0
  6 97  1  0  0  0
  7 98  1  0  0  0
  7 99  1  0  0  0
  8  9  1  0  0  0
  8 14  1  0  0  0
  9 10  1  0  0  0
  9 12  1  0  0  0
  9100  1  0  0  0
 10 11  2  0  0  0
 10 15  1  0  0  0
 12 13  1  0  0  0
 12101  1  0  0  0
 12102  1  0  0  0
 13 14  1  0  0  0
 13103  1  0  0  0
 13104  1  0  0  0
 14105  1  0  0  0
 14106  1  0  0  0
 15 16  1  0  0  0
 15 21  1  0  0  0
 16 17  1  0  0  0
 16 19  1  0  0  0
 16107  1  0  0  0
 17 18  2  0  0  0
 17 22  1  0  0  0
 19 20  1  0  0  0
 19108  1  0  0  0
 19109  1  0  0  0
 20 21  1  0  0  0
 20110  1  0  0  0
 20111  1  0  0  0
 21112  1  0  0  0
 21113  1  0  0  0
 22 23  1  0  0  0
 22114  1  0  0  0
 23 24  1  0  0  0
 23 26  1  0  0  0
 23115  1  0  0  0
 24 25  2  0  0  0
 24 33  1  0  0  0
 26 27  1  0  0  0
 26116  1  0  0  0
 26117  1  0  0  0
 27 28  1  0  0  0
 27118  1  0  0  0
 27119  1  0  0  0
 28 29  1  0  0  0
 28120  1  0  0  0
 28121  1  0  0  0
 29 30  1  0  0  0
 29122  1  0  0  0
 30 31  2  0  0  0
 30 32  1  0  0  0
 31123  1  0  0  0
 32124  1  0  0  0
 32125  1  0  0  0
 33 34  1  0  0  0
 33 39  1  0  0  0
 34 35  1  0  0  0
 34 37  1  0  0  0
 34126  1  0  0  0
 35 36  2  0  0  0
 35 40  1  0  0  0
 37 38  1  0  0  0
 37127  1  0  0  0
 37128  1  0  0  0
 38 39  1  0  0  0
 38129  1  0  0  0
 38130  1  0  0  0
 39131  1  0  0  0
 39132  1  0  0  0
 40 41  1  0  0  0
 40133  1  0  0  0
 41 42  1  0  0  0
 41 44  1  0  0  0
 41134  1  0  0  0
 42 43  2  0  0  0
 42 47  1  0  0  0
 44 45  1  0  0  0
 44 46  1  0  0  0
 44135  1  0  0  0
 45136  1  0  0  0
 46137  1  0  0  0
 46138  1  0  0  0
 46139  1  0  0  0
 47 48  1  0  0  0
 47140  1  0  0  0
 48 49  1  0  0  0
 48 51  1  0  0  0
 48141  1  0  0  0
 49 50  2  0  0  0
 49 52  1  0  0  0
 51142  1  0  0  0
 51143  1  0  0  0
 51144  1  0  0  0
 52 53  1  0  0  0
 52 58  1  0  0  0
 53 54  1  0  0  0
 53 56  1  0  0  0
 53145  1  0  0  0
 54 55  2  0  0  0
 54 59  1  0  0  0
 56 57  1  0  0  0
 56146  1  0  0  0
 56147  1  0  0  0
 57 58  1  0  0  0
 57148  1  0  0  0
 57149  1  0  0  0
 58150  1  0  0  0
 58151  1  0  0  0
 59 60  1  0  0  0
 59152  1  0  0  0
 60 61  1  0  0  0
 60 63  1  0  0  0
 60153  1  0  0  0
 61 62  2  0  0  0
 61 68  1  0  0  0
 63 64  1  0  0  0
 63154  1  0  0  0
 63155  1  0  0  0
 64 65  1  0  0  0
 64156  1  0  0  0
 64157  1  0  0  0
 65 66  1  0  0  0
 65158  1  0  0  0
 65159  1  0  0  0
 66 67  1  0  0  0
 66160  1  0  0  0
 66161  1  0  0  0
 67162  1  0  0  0
 67163  1  0  0  0
 67164  1  0  0  0
 68 69  1  0  0  0
 68 74  1  0  0  0
 69 70  1  0  0  0
 69 72  1  0  0  0
 69165  1  0  0  0
 70 71  2  0  0  0
 70 75  1  0  0  0
 72 73  1  0  0  0
 72166  1  0  0  0
 72167  1  0  0  0
 73 74  1  0  0  0
 73168  1  0  0  0
 73169  1  0  0  0
 74170  1  0  0  0
 74171  1  0  0  0
 75 76  1  0  0  0
 75172  1  0  0  0
 76 77  1  0  0  0
 76 79  1  0  0  0
 76173  1  0  0  0
 77 78  2  0  0  0
 77 83  1  0  0  0
 79 80  1  0  0  0
 79174  1  0  0  0
 79175  1  0  0  0
 80 81  1  0  0  0
 80 82  1  0  0  0
 80176  1  0  0  0
 81177  1  0  0  0
 81178  1  0  0  0
 81179  1  0  0  0
 82180  1  0  0  0
 82181  1  0  0  0
 82182  1  0  0  0
 83 84  1  0  0  0
 83183  1  0  0  0
 84 85  1  0  0  0
 84 87  1  0  0  0
 84184  1  0  0  0
 85 86  2  0  0  0
 85185  1  0  0  0
 87 88  1  0  0  0
 87186  1  0  0  0
 87187  1  0  0  0
 88 89  1  0  0  0
 88 90  1  0  0  0
 88188  1  0  0  0
 89189  1  0  0  0
 89190  1  0  0  0
 89191  1  0  0  0
 90192  1  0  0  0
 90193  1  0  0  0
 90194  1  0  0  0
M  CHG  2   1   1  67   1
M  END
> <s_m_source_file>
../2w10_ligand.sdf

> <i_m_source_file_index>
1

> <s_epik_input>
W0NIMl0xW0NIMl1bQ0gyXVtOSDIrXVtDQEBIXTFDKD1PKU4yW0NAQEhdKFtDSDJdW0NIMl1bQ0gyXTIpQyg9TylOM1tDQEBIXShbQ0gyXVtDSDJdW0NIMl0zKUMoPU8pW05IXVtDQEBIXShbQ0gyXVtDSDJdW0NIMl1bTkhdL0MoPU5cW0hdKVtOSDJdKUMoPU8pTjRbQ0BASF0oW0NIMl1bQ0gyXVtDSDJdNClDKD1PKVtOSF1bQ0BASF0oW0NASF0oW09IXSlbQ0gzXSlDKD1PKVtOSF1bQ0BASF0oW0NIM10pQyg9TylONVtDQEBIXShbQ0gyXVtDSDJdW0NIMl01KUMoPU8pW05IXVtDQEBIXShbQ0gyXVtDSDJdW0NIMl1bQ0gyXVtOSDMrXSlDKD1PKU42W0NAQEhdKFtDSDJdW0NIMl1bQ0gyXTYpQyg9TylbTkhdW0NAQEhdKFtDSDJdW0NIXShbQ0gzXSlbQ0gzXSlDKD1PKVtOSF1bQ0BIXShbQ0hdPU8pW0NIMl1bQ0hdKFtDSDNdKVtDSDNd

> <s_epik_cmdline>
J2VwaWtfYXBwJywgJy1pbWFlJywgJ2xpZ2FuZF9wcm8ubWFlJywgJy1vbWFlJywgJ2xpZ2FuZF9wcmVwLm1hZScsICctbXMnLCAnMScsICctcGgnLCAnNycsICctcGh0JywgJzAuNScsICctbnQn

> <s_epik_pKa_notes>
Molecule size exceeds maximum supported for generating protonation states

> <s_epik_Chemistry_Notes>
This compound has an imine and may undergo hydrolysis.

$$$$
