2w16_ligand
                    3D
 Schrodinger Suite 2020-3.
136136  0  0  1  0            999 V2000
  -71.1050  -35.8190   20.5870 N   0  3  0  0  0  0
  -71.5520  -36.5590   19.3330 C   0  0  1  0  0  0
  -70.6300  -36.3190   18.1080 C   0  0  0  0  0  0
  -71.0550  -35.6630   17.1400 O   0  0  0  0  0  0
  -71.7580  -38.0710   19.5970 C   0  0  0  0  0  0
  -70.5410  -38.7270   19.9630 O   0  0  0  0  0  0
  -69.3790  -36.8010   18.1740 N   0  0  0  0  0  0
  -68.4530  -36.7100   17.0290 C   0  0  2  0  0  0
  -68.2980  -38.0450   16.2930 C   0  0  0  0  0  0
  -67.7050  -38.1210   15.2100 O   0  0  0  0  0  0
  -67.0910  -36.1140   17.4310 C   0  0  0  0  0  0
  -67.0660  -34.5880   17.7650 C   0  0  0  0  0  0
  -67.5860  -33.6160   16.6800 C   0  0  0  0  0  0
  -69.0380  -33.6450   16.6900 N   0  0  0  0  0  0
  -69.8380  -33.2280   15.7140 C   0  0  0  0  0  0
  -69.3430  -32.6790   14.6050 N   0  3  0  0  0  0
  -71.1580  -33.3710   15.8680 N   0  0  0  0  0  0
  -68.8650  -39.0870   16.8980 N   0  0  0  0  0  0
  -68.9260  -40.4360   16.3250 C   0  0  1  0  0  0
  -67.9730  -41.4210   17.0330 C   0  0  0  0  0  0
  -67.8660  -42.5910   16.6530 O   0  0  0  0  0  0
  -70.3670  -40.9480   16.3530 C   0  0  0  0  0  0
  -70.7290  -41.3860   17.6500 O   0  0  0  0  0  0
  -67.3140  -40.9420   18.0790 N   0  0  0  0  0  0
  -66.1090  -41.5680   18.5860 C   0  0  1  0  0  0
  -65.2670  -40.3950   19.0570 C   0  0  0  0  0  0
  -63.8230  -40.5230   18.5910 C   0  0  0  0  0  0
  -63.3090  -39.1540   18.1650 C   0  0  0  0  0  0
  -63.1450  -38.2960   19.3460 N   0  3  0  0  0  0
  -64.0570  -37.5460   19.6720 O   0  0  0  0  0  0
  -62.0640  -38.2950   20.0080 C   0  0  0  0  0  0
  -61.9550  -37.5630   20.9770 O   0  0  0  0  0  0
  -66.3580  -42.4920   19.7330 C   0  0  0  0  0  0
  -67.4020  -42.4100   20.3860 O   0  0  0  0  0  0
  -65.3810  -43.3540   20.0190 N   0  0  0  0  0  0
  -65.5530  -44.4350   21.0020 C   0  0  2  0  0  0
  -65.4230  -44.0810   22.4980 C   0  0  0  0  0  0
  -66.2140  -44.5540   23.3270 O   0  0  0  0  0  0
  -64.5890  -45.5810   20.6740 C   0  0  0  0  0  0
  -64.6510  -46.7740   21.6400 C   0  0  0  0  0  0
  -65.9200  -47.5800   21.4250 C   0  0  0  0  0  0
  -66.1240  -48.5710   22.5500 C   0  0  0  0  0  0
  -66.4970  -47.8440   23.7910 N   0  0  0  0  0  0
  -64.4090  -43.2780   22.8240 N   0  0  0  0  0  0
  -63.9810  -43.0160   24.2120 C   0  0  1  0  0  0
  -64.7660  -41.9300   24.9540 C   0  0  0  0  0  0
  -64.8470  -40.5820   24.2680 C   0  0  0  0  0  0
  -64.0570  -39.5250   25.0250 C   0  0  0  0  0  0
  -63.8870  -38.4440   24.0530 N   0  3  0  0  0  0
  -64.1820  -38.6130   22.8810 O   0  0  0  0  0  0
  -63.4370  -37.3130   24.3810 C   0  0  0  0  0  0
  -63.3390  -36.4570   23.5150 O   0  0  0  0  0  0
  -63.9910  -44.2030   25.1310 C   0  0  0  0  0  0
  -63.1820  -45.1280   24.9830 O   0  0  0  0  0  0
  -64.9570  -44.1780   26.0540 N   0  0  0  0  0  0
  -64.9670  -44.9500   27.3010 C   0  0  2  0  0  0
  -66.1520  -45.9390   27.3500 C   0  0  0  0  0  0
  -66.9200  -45.9790   28.3080 O   0  0  0  0  0  0
  -64.9210  -43.9650   28.5460 C   0  0  2  0  0  0
  -65.0460  -44.6870   29.7820 O   0  0  0  0  0  0
  -66.0030  -42.8530   28.4600 C   0  0  0  0  0  0
  -66.2540  -46.7400   26.2910 N   0  0  0  0  0  0
  -67.4060  -47.5990   25.9790 C   0  0  2  0  0  0
  -67.0610  -48.4400   24.7540 C   0  0  0  0  0  0
  -67.3280  -49.6420   24.7060 O   0  0  0  0  0  0
  -68.7290  -46.8110   25.6230 C   0  0  2  0  0  0
  -69.1820  -47.2080   24.3200 O   0  0  0  0  0  0
  -68.5360  -45.2930   25.5920 C   0  0  0  0  0  0
  -70.9711  -34.7521   20.3550 H   0  0  0  0  0  0
  -70.1523  -36.2397   20.9410 H   0  0  0  0  0  0
  -71.8689  -35.9308   21.3706 H   0  0  0  0  0  0
  -72.5270  -36.1130   19.0874 H   0  0  0  0  0  0
  -72.4782  -38.2051   20.4176 H   0  0  0  0  0  0
  -72.1451  -38.5527   18.6870 H   0  0  0  0  0  0
  -70.5411  -39.8055   20.1796 H   0  0  0  0  0  0
  -69.0498  -37.2730   19.1115 H   0  0  0  0  0  0
  -68.9522  -36.0089   16.3440 H   0  0  0  0  0  0
  -66.7193  -36.6238   18.3321 H   0  0  0  0  0  0
  -66.3732  -36.2523   16.6090 H   0  0  0  0  0  0
  -67.6879  -34.3966   18.6519 H   0  0  0  0  0  0
  -66.0315  -34.2739   17.9679 H   0  0  0  0  0  0
  -67.2301  -32.5983   16.8984 H   0  0  0  0  0  0
  -67.2118  -33.9318   15.6950 H   0  0  0  0  0  0
  -69.5742  -34.0402   17.5654 H   0  0  0  0  0  0
  -68.2554  -32.5649   14.4859 H   0  0  0  0  0  0
  -71.5586  -33.8251   16.7863 H   0  0  0  0  0  0
  -71.8437  -33.0346   15.0764 H   0  0  0  0  0  0
  -69.3049  -38.8889   17.8866 H   0  0  0  0  0  0
  -68.5868  -40.3184   15.2852 H   0  0  0  0  0  0
  -71.0493  -40.1393   16.0523 H   0  0  0  0  0  0
  -70.4697  -41.7926   15.6558 H   0  0  0  0  0  0
  -71.7377  -41.7840   17.8345 H   0  0  0  0  0  0
  -67.7106  -40.0384   18.5650 H   0  0  0  0  0  0
  -65.6721  -42.1926   17.7929 H   0  0  0  0  0  0
  -65.6820  -39.4600   18.6526 H   0  0  0  0  0  0
  -65.2761  -40.3550   20.1562 H   0  0  0  0  0  0
  -63.2047  -40.9087   19.4149 H   0  0  0  0  0  0
  -63.7728  -41.2169   17.7390 H   0  0  0  0  0  0
  -62.3385  -39.2677   17.6598 H   0  0  0  0  0  0
  -64.0294  -38.6902   17.4751 H   0  0  0  0  0  0
  -61.2283  -38.9473   19.7147 H   0  0  0  0  0  0
  -64.4224  -43.2368   19.4924 H   0  0  0  0  0  0
  -66.6147  -44.6774   20.8469 H   0  0  0  0  0  0
  -64.8140  -45.9738   19.6715 H   0  0  0  0  0  0
  -63.5544  -45.2081   20.6980 H   0  0  0  0  0  0
  -63.7834  -47.4286   21.4704 H   0  0  0  0  0  0
  -64.6365  -46.4073   22.6770 H   0  0  0  0  0  0
  -66.7844  -46.9006   21.3899 H   0  0  0  0  0  0
  -65.8480  -48.1311   20.4757 H   0  0  0  0  0  0
  -66.9282  -49.2714   22.2803 H   0  0  0  0  0  0
  -65.1921  -49.1303   22.7194 H   0  0  0  0  0  0
  -66.2834  -46.7689   23.8839 H   0  0  0  0  0  0
  -63.8818  -42.7985   21.9861 H   0  0  0  0  0  0
  -62.9498  -42.7099   23.9818 H   0  0  0  0  0  0
  -65.8048  -42.2620   25.0977 H   0  0  0  0  0  0
  -64.3010  -41.7461   25.9338 H   0  0  0  0  0  0
  -64.4359  -40.6629   23.2509 H   0  0  0  0  0  0
  -65.8976  -40.2604   24.2143 H   0  0  0  0  0  0
  -64.6287  -39.2020   25.9075 H   0  0  0  0  0  0
  -63.0937  -39.9476   25.3467 H   0  0  0  0  0  0
  -63.1362  -37.0867   25.4146 H   0  0  0  0  0  0
  -65.7957  -43.5074   25.8156 H   0  0  0  0  0  0
  -64.0580  -45.5683   27.2632 H   0  0  0  0  0  0
  -63.9297  -43.4943   28.6212 H   0  0  0  0  0  0
  -64.3561  -45.5132   30.0085 H   0  0  0  0  0  0
  -65.8953  -42.3093   27.5098 H   0  0  0  0  0  0
  -65.8770  -42.1532   29.2993 H   0  0  0  0  0  0
  -67.0026  -43.3094   28.5100 H   0  0  0  0  0  0
  -65.3812  -46.7258   25.6216 H   0  0  0  0  0  0
  -67.5325  -48.1848   26.9014 H   0  0  0  0  0  0
  -69.5178  -47.0581   26.3487 H   0  0  0  0  0  0
  -69.3883  -48.2676   24.1086 H   0  0  0  0  0  0
  -68.1876  -44.9475   26.5765 H   0  0  0  0  0  0
  -69.4925  -44.8067   25.3501 H   0  0  0  0  0  0
  -67.7891  -45.0339   24.8271 H   0  0  0  0  0  0
  -70.0220  -32.3400   13.8087 H   0  0  0  0  0  0
  1  2  1  0  0  0
  1 69  1  0  0  0
  1 70  1  0  0  0
  1 71  1  0  0  0
  2  3  1  0  0  0
  2  5  1  0  0  0
  2 72  1  0  0  0
  3  4  2  0  0  0
  3  7  1  0  0  0
  5  6  1  0  0  0
  5 73  1  0  0  0
  5 74  1  0  0  0
  6 75  1  0  0  0
  7  8  1  0  0  0
  7 76  1  0  0  0
  8  9  1  0  0  0
  8 11  1  0  0  0
  8 77  1  0  0  0
  9 10  2  0  0  0
  9 18  1  0  0  0
 11 12  1  0  0  0
 11 78  1  0  0  0
 11 79  1  0  0  0
 12 13  1  0  0  0
 12 80  1  0  0  0
 12 81  1  0  0  0
 13 14  1  0  0  0
 13 82  1  0  0  0
 13 83  1  0  0  0
 14 15  1  0  0  0
 14 84  1  0  0  0
 15 16  2  0  0  0
 15 17  1  0  0  0
 16 85  1  0  0  0
 16136  1  0  0  0
 17 86  1  0  0  0
 17 87  1  0  0  0
 18 19  1  0  0  0
 18 88  1  0  0  0
 19 20  1  0  0  0
 19 22  1  0  0  0
 19 89  1  0  0  0
 20 21  2  0  0  0
 20 24  1  0  0  0
 22 23  1  0  0  0
 22 90  1  0  0  0
 22 91  1  0  0  0
 23 92  1  0  0  0
 24 25  1  0  0  0
 24 93  1  0  0  0
 25 26  1  0  0  0
 25 33  1  0  0  0
 25 94  1  0  0  0
 26 27  1  0  0  0
 26 95  1  0  0  0
 26 96  1  0  0  0
 27 28  1  0  0  0
 27 97  1  0  0  0
 27 98  1  0  0  0
 28 29  1  0  0  0
 28 99  1  0  0  0
 28100  1  0  0  0
 29 30  2  0  0  0
 29 31  1  0  0  0
 31 32  2  0  0  0
 31101  1  0  0  0
 33 34  2  0  0  0
 33 35  1  0  0  0
 35 36  1  0  0  0
 35102  1  0  0  0
 36 37  1  0  0  0
 36 39  1  0  0  0
 36103  1  0  0  0
 37 38  2  0  0  0
 37 44  1  0  0  0
 39 40  1  0  0  0
 39104  1  0  0  0
 39105  1  0  0  0
 40 41  1  0  0  0
 40106  1  0  0  0
 40107  1  0  0  0
 41 42  1  0  0  0
 41108  1  0  0  0
 41109  1  0  0  0
 42 43  1  0  0  0
 42110  1  0  0  0
 42111  1  0  0  0
 43 64  1  0  0  0
 43112  1  0  0  0
 44 45  1  0  0  0
 44113  1  0  0  0
 45 46  1  0  0  0
 45 53  1  0  0  0
 45114  1  0  0  0
 46 47  1  0  0  0
 46115  1  0  0  0
 46116  1  0  0  0
 47 48  1  0  0  0
 47117  1  0  0  0
 47118  1  0  0  0
 48 49  1  0  0  0
 48119  1  0  0  0
 48120  1  0  0  0
 49 50  2  0  0  0
 49 51  1  0  0  0
 51 52  2  0  0  0
 51121  1  0  0  0
 53 54  2  0  0  0
 53 55  1  0  0  0
 55 56  1  0  0  0
 55122  1  0  0  0
 56 57  1  0  0  0
 56 59  1  0  0  0
 56123  1  0  0  0
 57 58  2  0  0  0
 57 62  1  0  0  0
 59 60  1  0  0  0
 59 61  1  0  0  0
 59124  1  0  0  0
 60125  1  0  0  0
 61126  1  0  0  0
 61127  1  0  0  0
 61128  1  0  0  0
 62 63  1  0  0  0
 62129  1  0  0  0
 63 64  1  0  0  0
 63 66  1  0  0  0
 63130  1  0  0  0
 64 65  2  0  0  0
 66 67  1  0  0  0
 66 68  1  0  0  0
 66131  1  0  0  0
 67132  1  0  0  0
 68133  1  0  0  0
 68134  1  0  0  0
 68135  1  0  0  0
M  CHG  4   1   1  16   1  29   1  49   1
M  END
> <s_m_source_file>
../2w16_ligand.sdf

> <i_m_source_file_index>
1

> <s_epik_input>
W0hdL049QyhbTkgyXSlcW05IXVtDSDJdW0NIMl1bQ0gyXVtDQEhdKFtOSF1DKD1PKVtDQEhdKFtOSDMrXSlbQ0gyXVtPSF0pQyg9TylbTkhdW0NASF0oW0NIMl1bT0hdKUMoPU8pW05IXVtDQEBIXShbQ0gyXVtDSDJdW0NIMl1bTitdKD1PKVtDSF09TylDKD1PKVtOSF1bQ0BASF0xQyg9TylbTkhdW0NAQEhdKFtDSDJdW0NIMl1bQ0gyXVtOK10oPU8pW0NIXT1PKUMoPU8pW05IXVtDQEBIXShbQ0BIXShbT0hdKVtDSDNdKUMoPU8pW05IXVtDQEBIXShbQ0BIXShbT0hdKVtDSDNdKUMoPU8pW05IXVtDSDJdW0NIMl1bQ0gyXVtDSDJdMQ==

> <s_epik_cmdline>
J2VwaWtfYXBwJywgJy1pbWFlJywgJ2xpZ2FuZF9wcm8ubWFlJywgJy1vbWFlJywgJ2xpZ2FuZF9wcmVwLm1hZScsICctbXMnLCAnMScsICctcGgnLCAnNycsICctcGh0JywgJzAuNScsICctbnQn

> <r_epik_Ionization_Penalty>
  0.1516

> <r_epik_Ionization_Penalty_Charging>
  0.1516

> <r_epik_Ionization_Penalty_Neutral>
  0.0000

> <r_epik_State_Penalty>
  0.1409

> <r_epik_Charging_Adjusted_Penalty>
0.292462205927695

> <i_epik_Tot_Q>
4

> <i_epik_Tot_abs_Q>
4

> <s_epik_Chemistry_Notes>
This compound has an imine and may undergo hydrolysis.

$$$$
