2w17_ligand
                    3D
 Schrodinger Suite 2020-3.
 64 67  0  0  1  0            999 V2000
    0.1740   28.2800   11.7090 C   0  0  0  0  0  0
   -0.2090   28.2300   10.2440 C   0  0  0  0  0  0
   -0.2970   26.8120    9.7030 C   0  0  0  0  0  0
   -1.4180   29.0130   10.0590 N   0  0  0  0  0  0
   -2.5870   28.7460   10.6610 C   0  0  0  0  0  0
   -2.9190   27.6210   11.5880 C   0  0  0  0  0  0
   -3.4340   29.6980   10.2750 N   0  0  0  0  0  0
   -2.8300   30.5940    9.4110 C   0  0  0  0  0  0
   -1.5290   30.1630    9.2640 C   0  0  0  0  0  0
   -0.4980   30.8190    8.3970 C   0  0  0  0  0  0
    0.4720   30.0520    7.8830 N   0  0  0  0  0  0
    1.3930   30.6570    7.1190 C   0  0  0  0  0  0
    2.4590   29.9560    6.5220 N   0  0  0  0  0  0
    3.1760   28.8200    6.9340 C   0  0  0  0  0  0
    2.9520   28.1620    8.1230 C   0  0  0  0  0  0
    3.7040   27.0540    8.4590 C   0  0  0  0  0  0
    4.6780   26.6030    7.5880 C   0  0  0  0  0  0
    4.9410   27.2450    6.3910 C   0  0  0  0  0  0
    4.1700   28.3550    6.0870 C   0  0  0  0  0  0
    5.5040   25.4540    7.9260 C   0  0  0  0  0  0
    6.7090   25.6620    7.9600 O   0  0  0  0  0  0
    4.9450   24.2200    8.1530 N   0  0  0  0  0  0
    3.6290   23.9730    8.6780 C   0  0  0  0  0  0
    3.6590   22.5010    9.0750 C   0  0  0  0  0  0
    5.1240   22.1200    9.2560 C   0  0  1  0  0  0
    5.8920   23.2030    8.5510 C   0  0  0  0  0  0
    5.5400   22.1920   10.6970 N   0  3  0  0  0  0
    4.4970   21.8010   11.6840 C   0  0  0  0  0  0
    6.7650   21.3790   10.9480 C   0  0  0  0  0  0
    1.3850   31.9680    6.8370 N   0  0  0  0  0  0
    0.4110   32.7080    7.3590 C   0  0  0  0  0  0
   -0.5610   32.1790    8.1540 C   0  0  0  0  0  0
   -1.5010   33.0050    8.6410 F   0  0  0  0  0  0
    1.0894   27.6914   11.8690 H   0  0  0  0  0  0
   -0.6422   27.8609   12.3158 H   0  0  0  0  0  0
    0.3528   29.3240   12.0058 H   0  0  0  0  0  0
    0.5568   28.7201    9.6248 H   0  0  0  0  0  0
    0.6550   26.2912    9.8829 H   0  0  0  0  0  0
   -0.4990   26.8438    8.6222 H   0  0  0  0  0  0
   -1.1107   26.2750   10.2125 H   0  0  0  0  0  0
   -2.0305   26.9882   11.7296 H   0  0  0  0  0  0
   -3.7329   27.0192   11.1575 H   0  0  0  0  0  0
   -3.2379   28.0279   12.5589 H   0  0  0  0  0  0
   -3.2896   31.4640    8.9419 H   0  0  0  0  0  0
    2.8655   30.2913    5.5565 H   0  0  0  0  0  0
    2.1772   28.5178    8.8021 H   0  0  0  0  0  0
    3.5310   26.5388    9.4039 H   0  0  0  0  0  0
    5.7212   26.8926    5.7163 H   0  0  0  0  0  0
    4.3511   28.8809    5.1496 H   0  0  0  0  0  0
    3.4491   24.6310    9.5410 H   0  0  0  0  0  0
    2.8793   24.1766    7.8992 H   0  0  0  0  0  0
    3.1019   22.3629   10.0134 H   0  0  0  0  0  0
    3.1950   21.8975    8.2810 H   0  0  0  0  0  0
    5.3105   21.1004    8.8876 H   0  0  0  0  0  0
    6.3934   22.7997    7.6589 H   0  0  0  0  0  0
    6.6414   23.6434    9.2251 H   0  0  0  0  0  0
    5.7360   23.2609   10.8671 H   0  0  0  0  0  0
    3.5869   22.3938   11.5099 H   0  0  0  0  0  0
    4.8675   21.9885   12.7026 H   0  0  0  0  0  0
    4.2658   20.7318   11.5689 H   0  0  0  0  0  0
    7.5450   21.6583   10.2244 H   0  0  0  0  0  0
    6.5258   20.3112   10.8355 H   0  0  0  0  0  0
    7.1276   21.5679   11.9692 H   0  0  0  0  0  0
    0.3895   33.7762    7.1431 H   0  0  0  0  0  0
  1  2  1  0  0  0
  1 34  1  0  0  0
  1 35  1  0  0  0
  1 36  1  0  0  0
  2  3  1  0  0  0
  2  4  1  0  0  0
  2 37  1  0  0  0
  3 38  1  0  0  0
  3 39  1  0  0  0
  3 40  1  0  0  0
  4  5  1  0  0  0
  4  9  1  0  0  0
  5  6  1  0  0  0
  5  7  2  0  0  0
  6 41  1  0  0  0
  6 42  1  0  0  0
  6 43  1  0  0  0
  7  8  1  0  0  0
  8  9  2  0  0  0
  8 44  1  0  0  0
  9 10  1  0  0  0
 10 11  2  0  0  0
 10 32  1  0  0  0
 11 12  1  0  0  0
 12 13  1  0  0  0
 12 30  2  0  0  0
 13 14  1  0  0  0
 13 45  1  0  0  0
 14 15  2  0  0  0
 14 19  1  0  0  0
 15 16  1  0  0  0
 15 46  1  0  0  0
 16 17  2  0  0  0
 16 47  1  0  0  0
 17 18  1  0  0  0
 17 20  1  0  0  0
 18 19  2  0  0  0
 18 48  1  0  0  0
 19 49  1  0  0  0
 20 21  2  0  0  0
 20 22  1  0  0  0
 22 23  1  0  0  0
 22 26  1  0  0  0
 23 24  1  0  0  0
 23 50  1  0  0  0
 23 51  1  0  0  0
 24 25  1  0  0  0
 24 52  1  0  0  0
 24 53  1  0  0  0
 25 26  1  0  0  0
 25 27  1  0  0  0
 25 54  1  0  0  0
 26 55  1  0  0  0
 26 56  1  0  0  0
 27 28  1  0  0  0
 27 29  1  0  0  0
 27 57  1  0  0  0
 28 58  1  0  0  0
 28 59  1  0  0  0
 28 60  1  0  0  0
 29 61  1  0  0  0
 29 62  1  0  0  0
 29 63  1  0  0  0
 30 31  1  0  0  0
 31 32  2  0  0  0
 31 64  1  0  0  0
 32 33  1  0  0  0
M  CHG  1  27   1
M  END
> <s_m_source_file>
../2w17_ligand.sdf

> <i_m_source_file_index>
1

> <s_epik_input>
W0NIM11bQ0hdKFtDSDNdKW4xYyhbQ0gzXSluW2NIXWMxLWMybmMobltjSF1jMkYpW05IXWMzW2NIXVtjSF1jKFtjSF1bY0hdMylDKD1PKU40W0NIMl1bQ0gyXVtDQEBIXShbQ0gyXTQpW05IK10oW0NIM10pW0NIM10=

> <s_epik_cmdline>
J2VwaWtfYXBwJywgJy1pbWFlJywgJ2xpZ2FuZF9wcm8ubWFlJywgJy1vbWFlJywgJ2xpZ2FuZF9wcmVwLm1hZScsICctbXMnLCAnMScsICctcGgnLCAnNycsICctcGh0JywgJzAuNScsICctbnQn

> <r_lp_tautomer_probability>
0.999999987636

> <r_epik_Ionization_Penalty>
  0.2476

> <r_epik_Ionization_Penalty_Charging>
  0.2476

> <r_epik_Ionization_Penalty_Neutral>
  0.0000

> <r_epik_State_Penalty>
  0.2349

> <r_epik_Charging_Adjusted_Penalty>
0.482534670913488

> <i_epik_Tot_Q>
1

> <i_epik_Tot_abs_Q>
1

$$$$
