2w1e_ligand
                    3D
 Schrodinger Suite 2020-3.
 53 57  0  0  1  0            999 V2000
    6.1920   27.9070    7.4150 O   0  0  0  0  0  0
    6.0800   28.6130    6.4410 C   0  0  0  0  0  0
    5.4680   29.8270    6.4700 N   0  0  0  0  0  0
    4.9320   30.4670    7.5660 C   0  0  0  0  0  0
    5.0930   30.2110    8.8800 C   0  0  0  0  0  0
    4.3590   31.1170    9.5470 N   0  3  0  0  0  0
    3.7240   31.9580    8.7110 N   0  0  0  0  0  0
    4.0820   31.5580    7.5160 C   0  0  0  0  0  0
    3.5510   32.2530    6.3790 C   0  0  0  0  0  0
    3.5270   31.8030    5.1660 N   0  0  0  0  0  0
    2.9390   32.7270    4.3840 C   0  0  0  0  0  0
    2.6750   32.7420    3.0270 C   0  0  0  0  0  0
    2.0410   33.8300    2.4360 C   0  0  0  0  0  0
    1.7620   33.8390    0.9550 C   0  0  0  0  0  0
    2.8000   34.6160    0.1980 N   0  0  0  0  0  0
    4.1090   33.9100    0.2080 C   0  0  0  0  0  0
    5.1170   34.7170   -0.5850 C   0  0  0  0  0  0
    5.2630   36.0500   -0.0540 O   0  0  0  0  0  0
    4.0010   36.7310   -0.0600 C   0  0  0  0  0  0
    2.9800   35.9780    0.7690 C   0  0  0  0  0  0
    1.6800   34.9170    3.2430 C   0  0  0  0  0  0
    1.9430   34.9000    4.5960 C   0  0  0  0  0  0
    2.5730   33.8090    5.1700 C   0  0  0  0  0  0
    2.9740   33.4660    6.4190 N   0  0  0  0  0  0
    6.5840   28.1950    5.2390 N   0  0  0  0  0  0
    6.5360   28.8740    3.9860 C   0  0  0  0  0  0
    6.0380   28.2370    2.8620 C   0  0  0  0  0  0
    5.9920   28.8960    1.6570 C   0  0  0  0  0  0
    6.4400   30.1860    1.5600 C   0  0  0  0  0  0
    6.9370   30.8260    2.6620 C   0  0  0  0  0  0
    6.9890   30.1800    3.8720 C   0  0  0  0  0  0
    5.3595   30.4105    5.5438 H   0  0  0  0  0  0
    5.7372   29.3802    9.2036 H   0  0  0  0  0  0
    2.9670   31.8864    2.4004 H   0  0  0  0  0  0
    1.7587   32.8063    0.5762 H   0  0  0  0  0  0
    0.7810   34.3007    0.7695 H   0  0  0  0  0  0
    4.4584   33.8000    1.2452 H   0  0  0  0  0  0
    3.9926   32.9153   -0.2471 H   0  0  0  0  0  0
    6.0968   34.2184   -0.5476 H   0  0  0  0  0  0
    4.7843   34.7936   -1.6307 H   0  0  0  0  0  0
    4.1264   37.7392    0.3616 H   0  0  0  0  0  0
    3.6313   36.8090   -1.0931 H   0  0  0  0  0  0
    2.0194   36.5136    0.7496 H   0  0  0  0  0  0
    3.3334   35.8965    1.8075 H   0  0  0  0  0  0
    1.1833   35.7916    2.7977 H   0  0  0  0  0  0
    1.6539   35.7485    5.2161 H   0  0  0  0  0  0
    7.0999   27.2262    5.1659 H   0  0  0  0  0  0
    5.6813   27.2095    2.9332 H   0  0  0  0  0  0
    5.5976   28.3901    0.7757 H   0  0  0  0  0  0
    6.4005   30.7045    0.6020 H   0  0  0  0  0  0
    7.2931   31.8528    2.5790 H   0  0  0  0  0  0
    7.3876   30.6950    4.7461 H   0  0  0  0  0  0
    4.2378   31.2271   10.6347 H   0  0  0  0  0  0
  1  2  2  0  0  0
  2  3  1  0  0  0
  2 25  1  0  0  0
  3  4  1  0  0  0
  3 32  1  0  0  0
  4  5  2  0  0  0
  4  8  1  0  0  0
  5  6  1  0  0  0
  5 33  1  0  0  0
  6  7  1  0  0  0
  6 53  1  0  0  0
  7  8  2  0  0  0
  8  9  1  0  0  0
  9 10  2  0  0  0
  9 24  1  0  0  0
 10 11  1  0  0  0
 11 12  2  0  0  0
 11 23  1  0  0  0
 12 13  1  0  0  0
 12 34  1  0  0  0
 13 14  1  0  0  0
 13 21  2  0  0  0
 14 15  1  0  0  0
 14 35  1  0  0  0
 14 36  1  0  0  0
 15 16  1  0  0  0
 15 20  1  0  0  0
 16 17  1  0  0  0
 16 37  1  0  0  0
 16 38  1  0  0  0
 17 18  1  0  0  0
 17 39  1  0  0  0
 17 40  1  0  0  0
 18 19  1  0  0  0
 19 20  1  0  0  0
 19 41  1  0  0  0
 19 42  1  0  0  0
 20 43  1  0  0  0
 20 44  1  0  0  0
 21 22  1  0  0  0
 21 45  1  0  0  0
 22 23  1  0  0  0
 22 46  1  0  0  0
 23 24  2  0  0  0
 25 26  1  0  0  0
 25 47  1  0  0  0
 26 27  2  0  0  0
 26 31  1  0  0  0
 27 28  1  0  0  0
 27 48  1  0  0  0
 28 29  2  0  0  0
 28 49  1  0  0  0
 29 30  1  0  0  0
 29 50  1  0  0  0
 30 31  2  0  0  0
 30 51  1  0  0  0
 31 52  1  0  0  0
M  CHG  1   6   1
M  END
> <s_m_source_file>
../2w1e_ligand.sdf

> <i_m_source_file_index>
1

> <s_epik_input>
W2NIXTFbY0hdW2NIXVtjSF1bY0hdYzFbTkhdQyg9TylbTkhdYzJbY0hdW25IXW5jMkMoPU4zKU49QyhDMz00KVtDSDJdW0NIXT1DKFtDSF00KVtDSDJdW05IK101W0NIMl1bQ0gyXU9bQ0gyXVtDSDJdNQ==

> <s_epik_cmdline>
J2VwaWtfYXBwJywgJy1pbWFlJywgJ2xpZ2FuZF9wcm8ubWFlJywgJy1vbWFlJywgJ2xpZ2FuZF9wcmVwLm1hZScsICctbXMnLCAnMScsICctcGgnLCAnNycsICctcGh0JywgJzAuNScsICctbnQn

> <r_epik_Ionization_Penalty>
  0.0223

> <r_epik_Ionization_Penalty_Charging>
  0.0000

> <r_epik_Ionization_Penalty_Neutral>
  0.0223

> <r_epik_State_Penalty>
  0.0179

> <r_epik_Charging_Adjusted_Penalty>
0.0179386435126554

> <i_epik_Tot_Q>
1

> <i_epik_Tot_abs_Q>
1

> <s_epik_Chemistry_Notes>
This compound has an imine and may undergo hydrolysis.

$$$$
