2w1f_ligand
                    3D
 Schrodinger Suite 2020-3.
 35 38  0  0  1  0            999 V2000
    5.8270   27.9170    7.0700 O   0  0  0  0  0  0
    5.9200   28.7440    6.1860 C   0  0  0  0  0  0
    5.5910   30.0460    6.3770 N   0  0  0  0  0  0
    5.0010   30.5790    7.4880 C   0  0  0  0  0  0
    5.1520   30.2540    8.7980 C   0  0  0  0  0  0
    4.3500   31.0720    9.4960 N   0  3  0  0  0  0
    3.6820   31.9180    8.6870 N   0  0  0  0  0  0
    4.0800   31.6120    7.4690 C   0  0  0  0  0  0
    3.5410   32.3510    6.3540 C   0  0  0  0  0  0
    3.5740   31.9760    5.0860 N   0  0  0  0  0  0
    2.9600   32.9500    4.3490 C   0  0  0  0  0  0
    2.7220   33.0660    2.9890 C   0  0  0  0  0  0
    2.0680   34.1710    2.4950 C   0  0  0  0  0  0
    1.6450   35.1660    3.3500 C   0  0  0  0  0  0
    1.8700   35.0630    4.7010 C   0  0  0  0  0  0
    2.5300   33.9580    5.2140 C   0  0  0  0  0  0
    2.9140   33.5460    6.4530 N   0  0  0  0  0  0
    6.4080   28.3560    4.8230 C   0  0  0  0  0  0
    6.6050   29.3200    3.8280 C   0  0  0  0  0  0
    7.0520   28.9460    2.5840 C   0  0  0  0  0  0
    7.3060   27.6200    2.3110 C   0  0  0  0  0  0
    7.1160   26.6600    3.2840 C   0  0  0  0  0  0
    6.6710   27.0200    4.5310 C   0  0  0  0  0  0
    5.7984   30.7867    5.5907 H   0  0  0  0  0  0
    5.8402   29.4466    9.0886 H   0  0  0  0  0  0
    3.0561   32.2740    2.3027 H   0  0  0  0  0  0
    1.8830   34.2591    1.4143 H   0  0  0  0  0  0
    1.1239   36.0489    2.9514 H   0  0  0  0  0  0
    1.5287   35.8521    5.3710 H   0  0  0  0  0  0
    6.4033   30.3699    4.0405 H   0  0  0  0  0  0
    7.2059   29.6997    1.8118 H   0  0  0  0  0  0
    7.6587   27.3276    1.3219 H   0  0  0  0  0  0
    7.3200   25.6127    3.0612 H   0  0  0  0  0  0
    6.5228   26.2576    5.2958 H   0  0  0  0  0  0
    4.1966   31.1154   10.5844 H   0  0  0  0  0  0
  1  2  2  0  0  0
  2  3  1  0  0  0
  2 18  1  0  0  0
  3  4  1  0  0  0
  3 24  1  0  0  0
  4  5  2  0  0  0
  4  8  1  0  0  0
  5  6  1  0  0  0
  5 25  1  0  0  0
  6  7  1  0  0  0
  6 35  1  0  0  0
  7  8  2  0  0  0
  8  9  1  0  0  0
  9 10  2  0  0  0
  9 17  1  0  0  0
 10 11  1  0  0  0
 11 12  2  0  0  0
 11 16  1  0  0  0
 12 13  1  0  0  0
 12 26  1  0  0  0
 13 14  2  0  0  0
 13 27  1  0  0  0
 14 15  1  0  0  0
 14 28  1  0  0  0
 15 16  1  0  0  0
 15 29  1  0  0  0
 16 17  2  0  0  0
 18 19  2  0  0  0
 18 23  1  0  0  0
 19 20  1  0  0  0
 19 30  1  0  0  0
 20 21  2  0  0  0
 20 31  1  0  0  0
 21 22  1  0  0  0
 21 32  1  0  0  0
 22 23  2  0  0  0
 22 33  1  0  0  0
 23 34  1  0  0  0
M  CHG  1   6   1
M  END
> <s_m_source_file>
../2w1f_ligand.sdf

> <i_m_source_file_index>
1

> <s_epik_input>
W2NIXTFbY0hdW2NIXVtjSF1bY0hdYzFDKD1PKVtOSF1jMltjSF1bbkhdbmMyQyg9TjMpTj1DKEMzPTQpW0NIMl1bQ0hdPVtDSF1bQ0hdNA==

> <s_epik_cmdline>
J2VwaWtfYXBwJywgJy1pbWFlJywgJ2xpZ2FuZF9wcm8ubWFlJywgJy1vbWFlJywgJ2xpZ2FuZF9wcmVwLm1hZScsICctbXMnLCAnMScsICctcGgnLCAnNycsICctcGh0JywgJzAuNScsICctbnQn

> <r_epik_Ionization_Penalty>
  0.0675

> <r_epik_Ionization_Penalty_Charging>
  0.0000

> <r_epik_Ionization_Penalty_Neutral>
  0.0675

> <r_epik_State_Penalty>
  0.0590

> <r_epik_Charging_Adjusted_Penalty>
0.0589918410733935

> <i_epik_Tot_Q>
1

> <i_epik_Tot_abs_Q>
1

> <s_epik_Chemistry_Notes>
This compound has an imine and may undergo hydrolysis.

$$$$
