2w1g_ligand
                    3D
 Schrodinger Suite 2020-3.
 50 54  0  0  1  0            999 V2000
    6.1710   28.2030    7.2540 O   0  0  0  0  0  0
    5.9150   28.8070    6.2220 C   0  0  0  0  0  0
    6.2340   28.3340    5.0000 N   0  0  0  0  0  0
    5.6380   28.8640    3.8120 C   0  0  0  0  0  0
    6.4730   29.7030    2.8950 C   0  0  0  0  0  0
    6.0620   28.3200    2.4850 C   0  0  0  0  0  0
    5.2900   29.9990    6.2240 N   0  0  0  0  0  0
    4.8420   30.5410    7.3690 C   0  0  0  0  0  0
    5.1010   30.1370    8.6050 C   0  0  0  0  0  0
    4.4400   30.9690    9.4420 N   0  3  0  0  0  0
    3.7580   31.9090    8.7630 N   0  0  0  0  0  0
    4.0170   31.6160    7.4790 C   0  0  0  0  0  0
    3.4550   32.4060    6.4220 C   0  0  0  0  0  0
    2.9470   33.6180    6.6010 N   0  0  0  0  0  0
    2.5130   34.0850    5.4340 C   0  0  0  0  0  0
    1.9200   35.2810    5.1510 C   0  0  0  0  0  0
    1.5350   35.5880    3.8730 C   0  0  0  0  0  0
    0.9010   36.9170    3.5910 C   0  0  0  0  0  0
    0.4350   37.0110    2.1890 N   0  0  0  0  0  0
   -0.7750   36.2040    2.0400 C   0  0  0  0  0  0
   -1.3030   36.2860    0.6220 C   0  0  0  0  0  0
   -1.5110   37.6530    0.2250 O   0  0  0  0  0  0
   -0.2940   38.4080    0.3470 C   0  0  0  0  0  0
    0.1910   38.4160    1.7750 C   0  0  0  0  0  0
    1.7620   34.6530    2.8600 C   0  0  0  0  0  0
    2.3690   33.4300    3.1590 C   0  0  0  0  0  0
    2.7500   33.1470    4.4710 C   0  0  0  0  0  0
    3.3590   32.0560    5.1010 N   0  0  0  0  0  0
    6.9717   27.5210    4.9297 H   0  0  0  0  0  0
    4.6878   28.9844    4.3529 H   0  0  0  0  0  0
    5.9284   30.6252    2.6442 H   0  0  0  0  0  0
    7.4194   29.9601    3.3932 H   0  0  0  0  0  0
    6.6624   27.4108    2.6363 H   0  0  0  0  0  0
    5.1714   28.0760    1.8872 H   0  0  0  0  0  0
    5.1401   30.5430    5.2798 H   0  0  0  0  0  0
    5.7527   29.2671    8.7741 H   0  0  0  0  0  0
    1.7459   36.0123    5.9541 H   0  0  0  0  0  0
    0.0356   37.0587    4.2551 H   0  0  0  0  0  0
    1.6340   37.7179    3.7680 H   0  0  0  0  0  0
   -0.5463   35.1537    2.2738 H   0  0  0  0  0  0
   -1.5490   36.5729    2.7292 H   0  0  0  0  0  0
   -0.5785   35.8262   -0.0662 H   0  0  0  0  0  0
   -2.2618   35.7508    0.5562 H   0  0  0  0  0  0
    0.4825   37.9571   -0.2884 H   0  0  0  0  0  0
   -0.4724   39.4454    0.0275 H   0  0  0  0  0  0
   -0.5700   38.8645    2.4305 H   0  0  0  0  0  0
    1.1266   38.9892    1.8536 H   0  0  0  0  0  0
    1.4629   34.8790    1.8258 H   0  0  0  0  0  0
    2.5442   32.6993    2.3694 H   0  0  0  0  0  0
    4.4082   30.9530   10.5414 H   0  0  0  0  0  0
  1  2  2  0  0  0
  2  3  1  0  0  0
  2  7  1  0  0  0
  3  4  1  0  0  0
  3 29  1  0  0  0
  4  5  1  0  0  0
  4  6  1  0  0  0
  4 30  1  0  0  0
  5  6  1  0  0  0
  5 31  1  0  0  0
  5 32  1  0  0  0
  6 33  1  0  0  0
  6 34  1  0  0  0
  7  8  1  0  0  0
  7 35  1  0  0  0
  8  9  2  0  0  0
  8 12  1  0  0  0
  9 10  1  0  0  0
  9 36  1  0  0  0
 10 11  1  0  0  0
 10 50  1  0  0  0
 11 12  2  0  0  0
 12 13  1  0  0  0
 13 14  2  0  0  0
 13 28  1  0  0  0
 14 15  1  0  0  0
 15 16  2  0  0  0
 15 27  1  0  0  0
 16 17  1  0  0  0
 16 37  1  0  0  0
 17 18  1  0  0  0
 17 25  2  0  0  0
 18 19  1  0  0  0
 18 38  1  0  0  0
 18 39  1  0  0  0
 19 20  1  0  0  0
 19 24  1  0  0  0
 20 21  1  0  0  0
 20 40  1  0  0  0
 20 41  1  0  0  0
 21 22  1  0  0  0
 21 42  1  0  0  0
 21 43  1  0  0  0
 22 23  1  0  0  0
 23 24  1  0  0  0
 23 44  1  0  0  0
 23 45  1  0  0  0
 24 46  1  0  0  0
 24 47  1  0  0  0
 25 26  1  0  0  0
 25 48  1  0  0  0
 26 27  1  0  0  0
 26 49  1  0  0  0
 27 28  2  0  0  0
M  CHG  1  10   1
M  END
> <s_m_source_file>
../2w1g_ligand.sdf

> <i_m_source_file_index>
1

> <s_epik_input>
W0NIMl0xW0NIMl1bQ0hdMVtOSF1DKD1PKVtOSF1jMltjSF1bbkhdbmMyQyg9TjMpTj1DKEMzPTQpW0NIMl1bQ0hdPUMoW0NIXTQpW0NIMl1bTkgrXTVbQ0gyXVtDSDJdT1tDSDJdW0NIMl01

> <s_epik_cmdline>
J2VwaWtfYXBwJywgJy1pbWFlJywgJ2xpZ2FuZF9wcm8ubWFlJywgJy1vbWFlJywgJ2xpZ2FuZF9wcmVwLm1hZScsICctbXMnLCAnMScsICctcGgnLCAnNycsICctcGh0JywgJzAuNScsICctbnQn

> <r_lp_tautomer_probability>
1

> <r_epik_Ionization_Penalty>
  0.0030

> <r_epik_Ionization_Penalty_Charging>
  0.0000

> <r_epik_Ionization_Penalty_Neutral>
  0.0030

> <r_epik_State_Penalty>
 -0.0000

> <r_epik_Charging_Adjusted_Penalty>
0

> <i_epik_Tot_Q>
1

> <i_epik_Tot_abs_Q>
1

> <s_epik_Chemistry_Notes>
This compound has an imine and may undergo hydrolysis.

$$$$
