2w1i_ligand
                    3D
 Schrodinger Suite 2020-3.
 50 54  0  0  1  0            999 V2000
   37.8580    6.2900   -2.7790 O   0  0  0  0  0  0
   38.3810    5.2270   -3.0200 C   0  0  0  0  0  0
   37.8160    4.1040   -3.4810 N   0  0  0  0  0  0
   37.1980    3.9520   -4.7680 C   0  0  0  0  0  0
   38.1420    3.3430   -5.7540 C   0  0  0  0  0  0
   36.9990    2.5450   -5.2390 C   0  0  0  0  0  0
   39.6070    4.8750   -2.6720 N   0  0  0  0  0  0
   40.6800    5.5810   -2.2070 C   0  0  0  0  0  0
   40.7800    6.6870   -1.4250 C   0  0  0  0  0  0
   42.0880    6.8980   -1.2370 N   0  3  0  0  0  0
   42.8380    5.9550   -1.8540 N   0  0  0  0  0  0
   41.9640    5.1370   -2.4350 C   0  0  0  0  0  0
   42.3470    3.9770   -3.1980 C   0  0  0  0  0  0
   41.5380    3.2510   -3.9720 N   0  0  0  0  0  0
   42.2980    2.2720   -4.4860 C   0  0  0  0  0  0
   41.9830    1.2390   -5.3590 C   0  0  0  0  0  0
   42.9790    0.3590   -5.7320 C   0  0  0  0  0  0
   44.2920    0.4820   -5.2720 C   0  0  0  0  0  0
   45.3370   -0.5370   -5.6840 C   0  0  0  0  0  0
   46.4320   -0.1010   -6.6170 N   0  0  0  0  0  0
   47.3170    0.9700   -6.0390 C   0  0  0  0  0  0
   48.5030    1.3100   -6.9430 C   0  0  0  0  0  0
   49.2300    0.1570   -7.4200 O   0  0  0  0  0  0
   48.3410   -0.8010   -8.0250 C   0  0  0  0  0  0
   47.2570   -1.2740   -7.0610 C   0  0  0  0  0  0
   44.6120    1.5120   -4.3950 C   0  0  0  0  0  0
   43.6050    2.3940   -4.0220 C   0  0  0  0  0  0
   43.6010    3.4810   -3.1940 N   0  0  0  0  0  0
   37.8509    3.2539   -2.7838 H   0  0  0  0  0  0
   36.5505    4.8375   -4.6872 H   0  0  0  0  0  0
   38.1336    3.9331   -6.6823 H   0  0  0  0  0  0
   39.1582    3.3364   -5.3329 H   0  0  0  0  0  0
   37.0422    1.8608   -4.3788 H   0  0  0  0  0  0
   36.0177    2.4574   -5.7282 H   0  0  0  0  0  0
   39.9160    3.8213   -2.7369 H   0  0  0  0  0  0
   39.8707    7.2057   -1.0871 H   0  0  0  0  0  0
   40.9562    1.1341   -5.7393 H   0  0  0  0  0  0
   42.7100   -0.4601   -6.4151 H   0  0  0  0  0  0
   45.8597   -0.9081   -4.7901 H   0  0  0  0  0  0
   44.8472   -1.3774   -6.1977 H   0  0  0  0  0  0
   46.7316    1.8897   -5.8924 H   0  0  0  0  0  0
   47.7176    0.6322   -5.0718 H   0  0  0  0  0  0
   48.1446    1.8558   -7.8283 H   0  0  0  0  0  0
   49.2176    1.9373   -6.3900 H   0  0  0  0  0  0
   47.8472   -0.3443   -8.8954 H   0  0  0  0  0  0
   48.9159   -1.6809   -8.3495 H   0  0  0  0  0  0
   47.7268   -1.7445   -6.1847 H   0  0  0  0  0  0
   46.6109   -2.0059   -7.5678 H   0  0  0  0  0  0
   45.6256    1.6248   -4.0102 H   0  0  0  0  0  0
   42.5759    7.7050   -0.6707 H   0  0  0  0  0  0
  1  2  2  0  0  0
  2  3  1  0  0  0
  2  7  1  0  0  0
  3  4  1  0  0  0
  3 29  1  0  0  0
  4  5  1  0  0  0
  4  6  1  0  0  0
  4 30  1  0  0  0
  5  6  1  0  0  0
  5 31  1  0  0  0
  5 32  1  0  0  0
  6 33  1  0  0  0
  6 34  1  0  0  0
  7  8  1  0  0  0
  7 35  1  0  0  0
  8  9  2  0  0  0
  8 12  1  0  0  0
  9 10  1  0  0  0
  9 36  1  0  0  0
 10 11  1  0  0  0
 10 50  1  0  0  0
 11 12  2  0  0  0
 12 13  1  0  0  0
 13 14  2  0  0  0
 13 28  1  0  0  0
 14 15  1  0  0  0
 15 16  2  0  0  0
 15 27  1  0  0  0
 16 17  1  0  0  0
 16 37  1  0  0  0
 17 18  2  0  0  0
 17 38  1  0  0  0
 18 19  1  0  0  0
 18 26  1  0  0  0
 19 20  1  0  0  0
 19 39  1  0  0  0
 19 40  1  0  0  0
 20 21  1  0  0  0
 20 25  1  0  0  0
 21 22  1  0  0  0
 21 41  1  0  0  0
 21 42  1  0  0  0
 22 23  1  0  0  0
 22 43  1  0  0  0
 22 44  1  0  0  0
 23 24  1  0  0  0
 24 25  1  0  0  0
 24 45  1  0  0  0
 24 46  1  0  0  0
 25 47  1  0  0  0
 25 48  1  0  0  0
 26 27  1  0  0  0
 26 49  1  0  0  0
 27 28  2  0  0  0
M  CHG  1  10   1
M  END
> <s_m_source_file>
../2w1i_ligand.sdf

> <i_m_source_file_index>
1

> <s_epik_input>
W0NIMl0xW0NIMl1bQ0hdMVtOSF1DKD1PKVtOSF1jMltjSF1bbkhdbmMyQyg9TjMpTj1DKEMzPTQpW0NIMl1DKD1bQ0hdW0NIXTQpW0NIMl1bTkgrXTVbQ0gyXVtDSDJdT1tDSDJdW0NIMl01

> <s_epik_cmdline>
J2VwaWtfYXBwJywgJy1pbWFlJywgJ2xpZ2FuZF9wcm8ubWFlJywgJy1vbWFlJywgJ2xpZ2FuZF9wcmVwLm1hZScsICctbXMnLCAnMScsICctcGgnLCAnNycsICctcGh0JywgJzAuNScsICctbnQn

> <r_lp_tautomer_probability>
1

> <r_epik_Ionization_Penalty>
  0.0030

> <r_epik_Ionization_Penalty_Charging>
  0.0000

> <r_epik_Ionization_Penalty_Neutral>
  0.0030

> <r_epik_State_Penalty>
 -0.0000

> <r_epik_Charging_Adjusted_Penalty>
0

> <i_epik_Tot_Q>
1

> <i_epik_Tot_abs_Q>
1

> <s_epik_Chemistry_Notes>
This compound has an imine and may undergo hydrolysis.

$$$$
