2w2u_ligand
                    3D
 Schrodinger Suite 2020-3.
187191  0  0  1  0            999 V2000
   20.9910   -3.5290   53.2590 N   0  3  0  0  0  0
   21.6330   -3.8050   51.9370 C   0  0  2  0  0  0
   21.5870   -2.5730   51.0330 C   0  0  0  0  0  0
   20.6330   -1.7980   51.0660 O   0  0  0  0  0  0
   20.9870   -5.0140   51.2410 C   0  0  0  0  0  0
   21.5820   -5.3360   49.8650 C   0  0  0  0  0  0
   21.1050   -6.6770   49.3240 C   0  0  0  0  0  0
   21.7160   -6.9860   48.0280 N   0  0  0  0  0  0
   21.2280   -6.6040   46.8500 C   0  0  0  0  0  0
   20.1160   -5.8770   46.7880 N   0  0  0  0  0  0
   21.8550   -6.9410   45.7290 N   0  0  0  0  0  0
   22.6290   -2.4150   50.2240 N   0  0  0  0  0  0
   22.7990   -1.2440   49.3840 C   0  0  2  0  0  0
   23.1460   -1.6770   47.9670 C   0  0  0  0  0  0
   23.6110   -2.7990   47.7460 O   0  0  0  0  0  0
   23.9230   -0.3820   49.9540 C   0  0  0  0  0  0
   23.6550    1.1040   49.9340 C   0  0  0  0  0  0
   24.6480    1.8760   50.7850 C   0  0  0  0  0  0
   24.6540    1.6900   52.0190 O   0  0  0  0  0  0
   25.4220    2.6740   50.2200 O   0  0  0  0  0  0
   22.9060   -0.7950   47.0040 N   0  0  0  0  0  0
   23.3270   -1.0490   45.6300 C   0  0  2  0  0  0
   24.7280   -0.4940   45.4130 C   0  0  0  0  0  0
   24.9890    0.6770   45.6860 O   0  0  0  0  0  0
   22.3190   -0.4750   44.6320 C   0  0  0  0  0  0
   20.9400   -1.1450   44.6740 C   0  0  0  0  0  0
   20.0160   -0.5950   43.6090 C   0  0  0  0  0  0
   21.0920   -2.6520   44.5190 C   0  0  0  0  0  0
   25.6300   -1.3620   44.9580 N   0  0  0  0  0  0
   27.0420   -1.0180   44.7760 C   0  0  2  0  0  0
   27.5090   -1.5760   43.4320 C   0  0  0  0  0  0
   27.6800   -2.7900   43.2930 O   0  0  0  0  0  0
   27.9000   -1.5900   45.9150 C   0  0  0  0  0  0
   27.4790   -1.3960   47.3800 C   0  0  0  0  0  0
   28.1220   -2.4670   48.2630 C   0  0  0  0  0  0
   27.8250    0.0000   47.9020 C   0  0  0  0  0  0
   27.7050   -0.6970   42.4290 N   0  0  0  0  0  0
   27.6220    0.7580   42.5280 C   0  0  2  0  0  0
   26.1890    1.3050   42.5420 C   0  0  0  0  0  0
   25.2560    0.6490   42.0740 O   0  0  0  0  0  0
   28.3570    1.2310   41.2710 C   0  0  0  0  0  0
   28.1340    0.1550   40.2850 C   0  0  0  0  0  0
   28.0230   -1.1360   41.0570 C   0  0  0  0  0  0
   26.0560    2.5090   43.0890 N   0  0  0  0  0  0
   24.8230    3.2850   43.1330 C   0  0  2  0  0  0
   24.1480    3.3790   41.7600 C   0  0  0  0  0  0
   24.8290    3.4410   40.7280 O   0  0  0  0  0  0
   25.1890    4.6950   43.5940 C   0  0  0  0  0  0
   24.2240    5.3710   44.5370 C   0  0  0  0  0  0
   24.7200    6.7530   44.9740 C   0  0  0  0  0  0
   24.7020    7.0300   46.1890 O   0  0  0  0  0  0
   25.1360    7.5580   44.1100 O   0  0  0  0  0  0
   22.8150    3.3830   41.7470 N   0  0  0  0  0  0
   22.0650    3.7500   40.5420 C   0  0  2  0  0  0
   22.2600    5.2490   40.2980 C   0  0  0  0  0  0
   22.2130    6.0370   41.2510 O   0  0  0  0  0  0
   20.5710    3.4250   40.6800 C   0  0  0  0  0  0
   20.1170    1.9580   40.7530 C   0  0  0  0  0  0
   18.6510    1.8510   41.1470 C   0  0  0  0  0  0
   20.3690    1.2080   39.4470 C   0  0  0  0  0  0
   22.4920    5.6470   39.0300 N   0  0  0  0  0  0
   22.7490    7.0590   38.7430 C   0  0  2  0  0  0
   21.5430    7.9680   38.9930 C   0  0  0  0  0  0
   20.3990    7.6030   38.6930 O   0  0  0  0  0  0
   23.1240    7.0570   37.2570 C   0  0  0  0  0  0
   22.5200    5.8250   36.7030 C   0  0  0  0  0  0
   22.5400    4.8180   37.8100 C   0  0  0  0  0  0
   21.8130    9.1360   39.5640 N   0  0  0  0  0  0
   20.8020   10.1560   39.7540 C   0  0  2  0  0  0
   20.6100   10.8750   38.4280 C   0  0  0  0  0  0
   21.5690   11.0190   37.6590 O   0  0  0  0  0  0
   21.2290   11.1550   40.8340 C   0  0  0  0  0  0
   21.4460   10.5360   42.1810 C   0  0  0  0  0  0
   20.4150   10.0430   42.9500 N   0  0  0  0  0  0
   22.5780   10.3400   42.8990 C   0  0  0  0  0  0
   20.9020    9.5660   44.0810 C   0  0  0  0  0  0
   22.2110    9.7410   44.0790 N   0  0  0  0  0  0
   19.3660   11.3000   38.1360 N   0  0  0  0  0  0
   19.1190   12.1250   36.9550 C   0  0  2  0  0  0
   19.8080   13.4870   37.0710 C   0  0  0  0  0  0
   20.0710   13.9430   38.1920 O   0  0  0  0  0  0
   17.5940   12.2900   36.9550 C   0  0  0  0  0  0
   17.1720   12.0210   38.3380 C   0  0  0  0  0  0
   18.1230   11.0100   38.8710 C   0  0  0  0  0  0
   20.1160   14.1260   35.9230 N   0  0  0  0  0  0
   20.6820   15.4790   35.8690 C   0  0  2  0  0  0
   20.0330   16.4480   36.8490 C   0  0  0  0  0  0
   18.8240   16.3860   37.0610 O   0  0  0  0  0  0
   20.3730   15.9120   34.4400 C   0  0  0  0  0  0
   20.4700   14.6490   33.6630 C   0  0  0  0  0  0
   19.9600   13.5570   34.5680 C   0  0  0  0  0  0
   21.4762   -2.6603   53.7280 H   0  0  0  0  0  0
   21.1024   -4.4077   53.9113 H   0  0  0  0  0  0
   19.9221   -3.3159   53.1102 H   0  0  0  0  0  0
   22.6848   -4.0408   52.1562 H   0  0  0  0  0  0
   21.1159   -5.9094   51.8669 H   0  0  0  0  0  0
   19.9142   -4.8216   51.0927 H   0  0  0  0  0  0
   21.2877   -4.5566   49.1468 H   0  0  0  0  0  0
   22.6790   -5.3711   49.9389 H   0  0  0  0  0  0
   21.3732   -7.4745   50.0325 H   0  0  0  0  0  0
   20.0128   -6.6529   49.1953 H   0  0  0  0  0  0
   22.6449   -7.5735   47.9840 H   0  0  0  0  0  0
   19.5915   -5.5942   47.7126 H   0  0  0  0  0  0
   19.7208   -5.5585   45.8121 H   0  0  0  0  0  0
   22.7752   -7.5421   45.7729 H   0  0  0  0  0  0
   23.3808   -3.2178   50.2071 H   0  0  0  0  0  0
   21.8435   -0.6990   49.3891 H   0  0  0  0  0  0
   24.1000   -0.6577   51.0041 H   0  0  0  0  0  0
   24.8419   -0.5459   49.3720 H   0  0  0  0  0  0
   23.7277    1.4758   48.9013 H   0  0  0  0  0  0
   22.6453    1.2998   50.3240 H   0  0  0  0  0  0
   25.3648    2.2386   52.6544 H   0  0  0  0  0  0
   22.3813    0.1387   47.2548 H   0  0  0  0  0  0
   23.3491   -2.1416   45.5044 H   0  0  0  0  0  0
   22.1645    0.5939   44.8407 H   0  0  0  0  0  0
   22.7055   -0.5968   43.6094 H   0  0  0  0  0  0
   20.4729   -0.9242   45.6451 H   0  0  0  0  0  0
   19.9175    0.4933   43.7355 H   0  0  0  0  0  0
   19.0265   -1.0662   43.7032 H   0  0  0  0  0  0
   20.4325   -0.8124   42.6144 H   0  0  0  0  0  0
   21.7657   -3.0348   45.2998 H   0  0  0  0  0  0
   21.5131   -2.8781   43.5282 H   0  0  0  0  0  0
   20.1070   -3.1319   44.6170 H   0  0  0  0  0  0
   25.2749   -2.3744   44.7154 H   0  0  0  0  0  0
   27.1068    0.0800   44.7931 H   0  0  0  0  0  0
   27.9725   -2.6822   45.8065 H   0  0  0  0  0  0
   28.9071   -1.1497   45.8721 H   0  0  0  0  0  0
   26.3847   -1.4977   47.4266 H   0  0  0  0  0  0
   27.8649   -3.4641   47.8761 H   0  0  0  0  0  0
   27.7487   -2.3658   49.2928 H   0  0  0  0  0  0
   29.2148   -2.3412   48.2551 H   0  0  0  0  0  0
   27.3564    0.7588   47.2580 H   0  0  0  0  0  0
   28.9167    0.1347   47.8928 H   0  0  0  0  0  0
   27.4506    0.1101   48.9305 H   0  0  0  0  0  0
   28.0616    1.0689   43.4872 H   0  0  0  0  0  0
   27.9318    2.1886   40.9362 H   0  0  0  0  0  0
   29.4250    1.3637   41.4988 H   0  0  0  0  0  0
   27.2071    0.3550   39.7274 H   0  0  0  0  0  0
   28.9819    0.1173   39.5853 H   0  0  0  0  0  0
   28.9668   -1.7009   41.0623 H   0  0  0  0  0  0
   27.2133   -1.7784   40.6806 H   0  0  0  0  0  0
   26.9772    2.9144   43.5330 H   0  0  0  0  0  0
   24.1525    2.7567   43.8268 H   0  0  0  0  0  0
   26.1539    4.6694   44.1215 H   0  0  0  0  0  0
   25.2666    5.3581   42.7197 H   0  0  0  0  0  0
   23.2518    5.4974   44.0382 H   0  0  0  0  0  0
   24.0965    4.7518   45.4372 H   0  0  0  0  0  0
   25.4945    8.5530   44.4126 H   0  0  0  0  0  0
   22.2778    3.1034   42.6653 H   0  0  0  0  0  0
   22.4759    3.1461   39.7195 H   0  0  0  0  0  0
   20.1820    3.8743   41.6056 H   0  0  0  0  0  0
   20.0255    3.8337   39.8166 H   0  0  0  0  0  0
   20.7203    1.4737   41.5350 H   0  0  0  0  0  0
   18.4837    2.3950   42.0883 H   0  0  0  0  0  0
   18.3841    0.7925   41.2828 H   0  0  0  0  0  0
   18.0256    2.2881   40.3547 H   0  0  0  0  0  0
   21.4312    1.2934   39.1742 H   0  0  0  0  0  0
   19.7494    1.6430   38.6490 H   0  0  0  0  0  0
   20.1079    0.1474   39.5770 H   0  0  0  0  0  0
   23.5315    7.4222   39.4255 H   0  0  0  0  0  0
   22.7166    7.9579   36.7748 H   0  0  0  0  0  0
   24.2193    7.0501   37.1552 H   0  0  0  0  0  0
   21.4906    6.0357   36.3775 H   0  0  0  0  0  0
   23.1132    5.4804   35.8431 H   0  0  0  0  0  0
   23.4606    4.2159   37.8119 H   0  0  0  0  0  0
   21.6657    4.1510   37.7853 H   0  0  0  0  0  0
   22.8456    9.3163   39.8974 H   0  0  0  0  0  0
   19.8841    9.6418   40.0752 H   0  0  0  0  0  0
   22.1750   11.6322   40.5386 H   0  0  0  0  0  0
   20.4511   11.9240   40.9504 H   0  0  0  0  0  0
   23.6368   10.5640   42.7019 H   0  0  0  0  0  0
   20.3218    9.1058   44.8808 H   0  0  0  0  0  0
   19.5270   11.6387   36.0566 H   0  0  0  0  0  0
   17.3360   13.3141   36.6474 H   0  0  0  0  0  0
   17.1475   11.5723   36.2511 H   0  0  0  0  0  0
   17.2150   12.9521   38.9221 H   0  0  0  0  0  0
   16.1419   11.6351   38.3386 H   0  0  0  0  0  0
   17.8043    9.9786   38.6598 H   0  0  0  0  0  0
   18.2999   11.1253   39.9505 H   0  0  0  0  0  0
   21.7463   15.4448   36.1449 H   0  0  0  0  0  0
   20.6442   17.2021   37.3665 H   0  0  0  0  0  0
   19.3651   16.3508   34.3997 H   0  0  0  0  0  0
   21.1117   16.6597   34.1156 H   0  0  0  0  0  0
   19.8547   14.7291   32.7547 H   0  0  0  0  0  0
   21.5184   14.4714   33.3812 H   0  0  0  0  0  0
   20.5551   12.6355   34.4866 H   0  0  0  0  0  0
   18.8998   13.3260   34.3871 H   0  0  0  0  0  0
  1  2  1  0  0  0
  1 92  1  0  0  0
  1 93  1  0  0  0
  1 94  1  0  0  0
  2  3  1  0  0  0
  2  5  1  0  0  0
  2 95  1  0  0  0
  3  4  2  0  0  0
  3 12  1  0  0  0
  5  6  1  0  0  0
  5 96  1  0  0  0
  5 97  1  0  0  0
  6  7  1  0  0  0
  6 98  1  0  0  0
  6 99  1  0  0  0
  7  8  1  0  0  0
  7100  1  0  0  0
  7101  1  0  0  0
  8  9  1  0  0  0
  8102  1  0  0  0
  9 10  1  0  0  0
  9 11  2  0  0  0
 10103  1  0  0  0
 10104  1  0  0  0
 11105  1  0  0  0
 12 13  1  0  0  0
 12106  1  0  0  0
 13 14  1  0  0  0
 13 16  1  0  0  0
 13107  1  0  0  0
 14 15  2  0  0  0
 14 21  1  0  0  0
 16 17  1  0  0  0
 16108  1  0  0  0
 16109  1  0  0  0
 17 18  1  0  0  0
 17110  1  0  0  0
 17111  1  0  0  0
 18 19  1  0  0  0
 18 20  2  0  0  0
 19112  1  0  0  0
 21 22  1  0  0  0
 21113  1  0  0  0
 22 23  1  0  0  0
 22 25  1  0  0  0
 22114  1  0  0  0
 23 24  2  0  0  0
 23 29  1  0  0  0
 25 26  1  0  0  0
 25115  1  0  0  0
 25116  1  0  0  0
 26 27  1  0  0  0
 26 28  1  0  0  0
 26117  1  0  0  0
 27118  1  0  0  0
 27119  1  0  0  0
 27120  1  0  0  0
 28121  1  0  0  0
 28122  1  0  0  0
 28123  1  0  0  0
 29 30  1  0  0  0
 29124  1  0  0  0
 30 31  1  0  0  0
 30 33  1  0  0  0
 30125  1  0  0  0
 31 32  2  0  0  0
 31 37  1  0  0  0
 33 34  1  0  0  0
 33126  1  0  0  0
 33127  1  0  0  0
 34 35  1  0  0  0
 34 36  1  0  0  0
 34128  1  0  0  0
 35129  1  0  0  0
 35130  1  0  0  0
 35131  1  0  0  0
 36132  1  0  0  0
 36133  1  0  0  0
 36134  1  0  0  0
 37 38  1  0  0  0
 37 43  1  0  0  0
 38 39  1  0  0  0
 38 41  1  0  0  0
 38135  1  0  0  0
 39 40  2  0  0  0
 39 44  1  0  0  0
 41 42  1  0  0  0
 41136  1  0  0  0
 41137  1  0  0  0
 42 43  1  0  0  0
 42138  1  0  0  0
 42139  1  0  0  0
 43140  1  0  0  0
 43141  1  0  0  0
 44 45  1  0  0  0
 44142  1  0  0  0
 45 46  1  0  0  0
 45 48  1  0  0  0
 45143  1  0  0  0
 46 47  2  0  0  0
 46 53  1  0  0  0
 48 49  1  0  0  0
 48144  1  0  0  0
 48145  1  0  0  0
 49 50  1  0  0  0
 49146  1  0  0  0
 49147  1  0  0  0
 50 51  2  0  0  0
 50 52  1  0  0  0
 52148  1  0  0  0
 53 54  1  0  0  0
 53149  1  0  0  0
 54 55  1  0  0  0
 54 57  1  0  0  0
 54150  1  0  0  0
 55 56  2  0  0  0
 55 61  1  0  0  0
 57 58  1  0  0  0
 57151  1  0  0  0
 57152  1  0  0  0
 58 59  1  0  0  0
 58 60  1  0  0  0
 58153  1  0  0  0
 59154  1  0  0  0
 59155  1  0  0  0
 59156  1  0  0  0
 60157  1  0  0  0
 60158  1  0  0  0
 60159  1  0  0  0
 61 62  1  0  0  0
 61 67  1  0  0  0
 62 63  1  0  0  0
 62 65  1  0  0  0
 62160  1  0  0  0
 63 64  2  0  0  0
 63 68  1  0  0  0
 65 66  1  0  0  0
 65161  1  0  0  0
 65162  1  0  0  0
 66 67  1  0  0  0
 66163  1  0  0  0
 66164  1  0  0  0
 67165  1  0  0  0
 67166  1  0  0  0
 68 69  1  0  0  0
 68167  1  0  0  0
 69 70  1  0  0  0
 69 72  1  0  0  0
 69168  1  0  0  0
 70 71  2  0  0  0
 70 78  1  0  0  0
 72 73  1  0  0  0
 72169  1  0  0  0
 72170  1  0  0  0
 73 74  2  0  0  0
 73 75  1  0  0  0
 74 76  1  0  0  0
 75 77  2  0  0  0
 75171  1  0  0  0
 76 77  1  0  0  0
 76172  1  0  0  0
 78 79  1  0  0  0
 78 84  1  0  0  0
 79 80  1  0  0  0
 79 82  1  0  0  0
 79173  1  0  0  0
 80 81  2  0  0  0
 80 85  1  0  0  0
 82 83  1  0  0  0
 82174  1  0  0  0
 82175  1  0  0  0
 83 84  1  0  0  0
 83176  1  0  0  0
 83177  1  0  0  0
 84178  1  0  0  0
 84179  1  0  0  0
 85 86  1  0  0  0
 85 91  1  0  0  0
 86 87  1  0  0  0
 86 89  1  0  0  0
 86180  1  0  0  0
 87 88  2  0  0  0
 87181  1  0  0  0
 89 90  1  0  0  0
 89182  1  0  0  0
 89183  1  0  0  0
 90 91  1  0  0  0
 90184  1  0  0  0
 90185  1  0  0  0
 91186  1  0  0  0
 91187  1  0  0  0
M  CHG  1   1   1
M  END
> <s_m_source_file>
../2w2u_ligand.sdf

> <i_m_source_file_index>
1

> <s_epik_input>
W0hdL049QyhbTkgyXSlcW05IXVtDSDJdW0NIMl1bQ0gyXVtDQEhdKFtOSDMrXSlDKD1PKVtOSF1bQ0BASF0oW0NIMl1bQ0gyXUMoPU8pW09IXSlDKD1PKVtOSF1bQ0BASF0oW0NIMl1bQ0hdKFtDSDNdKVtDSDNdKUMoPU8pW05IXVtDQEBIXShbQ0gyXVtDSF0oW0NIM10pW0NIM10pQyg9TylOMVtDQEBIXShbQ0gyXVtDSDJdW0NIMl0xKUMoPU8pW05IXVtDQEBIXShbQ0gyXVtDSDJdQyg9TylbT0hdKUMoPU8pW05IXVtDQEBIXShbQ0gyXVtDSF0oW0NIM10pW0NIM10pQyg9TylOMltDQEBIXShbQ0gyXVtDSDJdW0NIMl0yKUMoPU8pW05IXVtDQEBIXShbQ0gyXUMzPU5bQ0gyXU49W0NIXTMpQyg9TylONFtDQEBIXShbQ0gyXVtDSDJdW0NIMl00KUMoPU8pTjVbQ0BIXShbQ0hdPU8pW0NIMl1bQ0gyXVtDSDJdNQ==

> <s_epik_cmdline>
J2VwaWtfYXBwJywgJy1pbWFlJywgJ2xpZ2FuZF9wcm8ubWFlJywgJy1vbWFlJywgJ2xpZ2FuZF9wcmVwLm1hZScsICctbXMnLCAnMScsICctcGgnLCAnNycsICctcGh0JywgJzAuNScsICctbnQn

> <s_epik_pKa_notes>
Molecule size exceeds maximum supported for generating protonation states

> <s_epik_Chemistry_Notes>
This compound has an imine and may undergo hydrolysis.

$$$$
