2w3l_ligand
                    3D
 Schrodinger Suite 2020-3.
 73 78  0  0  1  0            999 V2000
   42.8420   26.9780  -10.6500 C   0  0  0  0  0  0
   43.0780   28.2310  -10.0890 C   0  0  0  0  0  0
   42.0500   28.9350   -9.4790 C   0  0  0  0  0  0
   40.7550   28.4320   -9.4170 C   0  0  0  0  0  0
   40.5210   27.1650   -9.9990 C   0  0  0  0  0  0
   41.5430   26.4520  -10.6360 C   0  0  0  0  0  0
   41.3130   25.2090  -11.1710 N   0  0  0  0  0  0
   40.9890   24.1940  -10.2930 C   0  0  0  0  0  0
   39.6850   23.6500  -10.3650 C   0  0  0  0  0  0
   39.2650   22.6330   -9.4860 C   0  0  0  0  0  0
   40.1340   22.1660   -8.4870 C   0  0  0  0  0  0
   41.4090   22.7280   -8.3720 C   0  0  0  0  0  0
   41.8250   23.7360   -9.2690 C   0  0  0  0  0  0
   41.3370   24.9230  -12.4800 C   0  0  0  0  0  0
   41.1000   23.7790  -12.8800 O   0  0  0  0  0  0
   41.5730   26.0330  -13.5520 C   0  0  0  0  0  0
   40.9820   27.2380  -13.5530 N   0  0  0  0  0  0
   42.2620   25.9350  -14.7490 C   0  0  0  0  0  0
   43.1970   24.5660  -15.2720 Cl  0  0  0  0  0  0
   42.0910   27.1720  -15.3660 C   0  0  0  0  0  0
   42.6950   27.6000  -16.7180 C   0  0  0  0  0  0
   41.2840   27.8960  -14.5640 N   0  0  0  0  0  0
   40.8250   29.1540  -14.7700 C   0  0  0  0  0  0
   41.6730   30.2590  -14.7760 C   0  0  0  0  0  0
   41.1590   31.5400  -14.9990 C   0  0  0  0  0  0
   39.7990   31.7310  -15.1880 C   0  0  0  0  0  0
   38.9370   30.6560  -15.1610 C   0  0  0  0  0  0
   39.4440   29.3720  -14.9410 C   0  0  0  0  0  0
   38.4770   28.1720  -14.9150 C   0  0  0  0  0  0
   38.5170   27.3230  -15.8220 O   0  0  0  0  0  0
   37.5940   27.9950  -13.9150 N   0  0  0  0  0  0
   37.4770   28.9140  -12.7100 C   0  0  0  0  0  0
   37.2660   28.0320  -11.4440 C   0  0  0  0  0  0
   37.2270   28.6510  -10.1810 C   0  0  0  0  0  0
   37.0210   27.9080   -9.0080 C   0  0  0  0  0  0
   36.8410   26.5420   -9.0850 C   0  0  0  0  0  0
   36.8830   25.9080  -10.3210 C   0  0  0  0  0  0
   37.0810   26.6460  -11.5010 C   0  0  0  0  0  0
   37.1010   25.8520  -12.8090 C   0  0  0  0  0  0
   36.7270   26.7900  -13.9710 C   0  0  1  0  0  0
   35.2460   27.1830  -13.8690 C   0  0  0  0  0  0
   34.6130   27.0100  -15.1750 N   0  3  0  0  0  0
   43.6599   26.4119  -11.0957 H   0  0  0  0  0  0
   44.0784   28.6618  -10.1296 H   0  0  0  0  0  0
   42.2630   29.9082   -9.0366 H   0  0  0  0  0  0
   39.9519   28.9926   -8.9385 H   0  0  0  0  0  0
   39.5213   26.7334   -9.9505 H   0  0  0  0  0  0
   38.9908   24.0259  -11.1166 H   0  0  0  0  0  0
   38.2656   22.2085   -9.5812 H   0  0  0  0  0  0
   39.8180   21.3738   -7.8083 H   0  0  0  0  0  0
   42.0842   22.3869   -7.5872 H   0  0  0  0  0  0
   42.8203   24.1672   -9.1612 H   0  0  0  0  0  0
   43.3092   26.7812  -17.1208 H   0  0  0  0  0  0
   43.3223   28.4920  -16.5734 H   0  0  0  0  0  0
   41.8845   27.8323  -17.4245 H   0  0  0  0  0  0
   42.7413   30.1246  -14.6062 H   0  0  0  0  0  0
   41.8335   32.3959  -15.0245 H   0  0  0  0  0  0
   39.4101   32.7349  -15.3586 H   0  0  0  0  0  0
   37.8677   30.8059  -15.3101 H   0  0  0  0  0  0
   38.3989   29.5056  -12.6092 H   0  0  0  0  0  0
   36.6204   29.5904  -12.8465 H   0  0  0  0  0  0
   37.3596   29.7307  -10.1120 H   0  0  0  0  0  0
   37.0033   28.4083   -8.0397 H   0  0  0  0  0  0
   36.6664   25.9619   -8.1789 H   0  0  0  0  0  0
   36.7610   24.8262  -10.3761 H   0  0  0  0  0  0
   38.1082   25.4415  -12.9733 H   0  0  0  0  0  0
   36.3746   25.0282  -12.7490 H   0  0  0  0  0  0
   36.9036   26.3044  -14.9421 H   0  0  0  0  0  0
   34.7465   26.5412  -13.1283 H   0  0  0  0  0  0
   35.1664   28.2345  -13.5561 H   0  0  0  0  0  0
   33.5514   27.2902  -15.1079 H   0  0  0  0  0  0
   34.6957   25.9581  -15.4861 H   0  0  0  0  0  0
   35.1156   27.6515  -15.9139 H   0  0  0  0  0  0
  1  2  2  0  0  0
  1  6  1  0  0  0
  1 43  1  0  0  0
  2  3  1  0  0  0
  2 44  1  0  0  0
  3  4  2  0  0  0
  3 45  1  0  0  0
  4  5  1  0  0  0
  4 46  1  0  0  0
  5  6  2  0  0  0
  5 47  1  0  0  0
  6  7  1  0  0  0
  7  8  1  0  0  0
  7 14  1  0  0  0
  8  9  2  0  0  0
  8 13  1  0  0  0
  9 10  1  0  0  0
  9 48  1  0  0  0
 10 11  2  0  0  0
 10 49  1  0  0  0
 11 12  1  0  0  0
 11 50  1  0  0  0
 12 13  2  0  0  0
 12 51  1  0  0  0
 13 52  1  0  0  0
 14 15  2  0  0  0
 14 16  1  0  0  0
 16 17  2  0  0  0
 16 18  1  0  0  0
 17 22  1  0  0  0
 18 19  1  0  0  0
 18 20  2  0  0  0
 20 21  1  0  0  0
 20 22  1  0  0  0
 21 53  1  0  0  0
 21 54  1  0  0  0
 21 55  1  0  0  0
 22 23  1  0  0  0
 23 24  2  0  0  0
 23 28  1  0  0  0
 24 25  1  0  0  0
 24 56  1  0  0  0
 25 26  2  0  0  0
 25 57  1  0  0  0
 26 27  1  0  0  0
 26 58  1  0  0  0
 27 28  2  0  0  0
 27 59  1  0  0  0
 28 29  1  0  0  0
 29 30  2  0  0  0
 29 31  1  0  0  0
 31 32  1  0  0  0
 31 40  1  0  0  0
 32 33  1  0  0  0
 32 60  1  0  0  0
 32 61  1  0  0  0
 33 34  2  0  0  0
 33 38  1  0  0  0
 34 35  1  0  0  0
 34 62  1  0  0  0
 35 36  2  0  0  0
 35 63  1  0  0  0
 36 37  1  0  0  0
 36 64  1  0  0  0
 37 38  2  0  0  0
 37 65  1  0  0  0
 38 39  1  0  0  0
 39 40  1  0  0  0
 39 66  1  0  0  0
 39 67  1  0  0  0
 40 41  1  0  0  0
 40 68  1  0  0  0
 41 42  1  0  0  0
 41 69  1  0  0  0
 41 70  1  0  0  0
 42 71  1  0  0  0
 42 72  1  0  0  0
 42 73  1  0  0  0
M  CHG  1  42   1
M  END
> <s_m_source_file>
../2w3l_ligand.sdf

> <i_m_source_file_index>
1

> <s_epik_input>
W2NIXTFbY0hdW2NIXVtjSF1bY0hdYzFOKGMyW2NIXVtjSF1bY0hdW2NIXVtjSF0yKUMoPU8pYzNubihjKGMzQ2wpW0NIM10pLWM0W2NIXVtjSF1bY0hdW2NIXWM0Qyg9TylOKFtDSDJdNSlbQ0BIXShbQ0gyXVtOSDMrXSlbQ0gyXWMoYzU2KVtjSF1bY0hdW2NIXVtjSF02

> <s_epik_cmdline>
J2VwaWtfYXBwJywgJy1pbWFlJywgJ2xpZ2FuZF9wcm8ubWFlJywgJy1vbWFlJywgJ2xpZ2FuZF9wcmVwLm1hZScsICctbXMnLCAnMScsICctcGgnLCAnNycsICctcGh0JywgJzAuNScsICctbnQn

> <r_lp_tautomer_probability>
1

> <r_epik_Ionization_Penalty>
  0.0040

> <r_epik_Ionization_Penalty_Charging>
  0.0038

> <r_epik_Ionization_Penalty_Neutral>
  0.0001

> <r_epik_State_Penalty>
 -0.0000

> <r_epik_Charging_Adjusted_Penalty>
0.00383358768666899

> <i_epik_Tot_Q>
1

> <i_epik_Tot_abs_Q>
1

$$$$
