2w47_ligand
                    3D
 Schrodinger Suite 2020-3.
 38 39  0  0  1  0            999 V2000
   -1.6660   16.2910    9.7560 C   0  0  1  0  0  0
   -2.1860   17.5440    9.0590 C   0  0  1  0  0  0
   -1.7040   17.5670    7.6140 C   0  0  2  0  0  0
   -0.1890   17.5130    7.6320 C   0  0  0  0  0  0
    0.4560   16.7810    8.5700 C   0  0  0  0  0  0
    1.7680   16.5540    8.4920 C   0  0  0  0  0  0
   -2.2090   15.1360    9.1100 O   0  0  0  0  0  0
   -3.6130   17.5680    9.1240 O   0  0  0  0  0  0
   -2.1830   18.7470    6.9540 O   0  0  0  0  0  0
   -0.2350   16.2310    9.7290 O   0  0  0  0  0  0
    2.3230   15.8720    9.3980 O   0  5  0  0  0  0
   -3.6910   12.0660    8.3570 C   0  0  1  0  0  0
   -2.3940   12.5410    7.6960 C   0  0  1  0  0  0
   -1.3470   12.9050    8.7520 C   0  0  2  0  0  0
   -1.9160   13.8990    9.7670 C   0  0  2  0  0  0
   -3.1940   13.3090   10.3790 C   0  0  1  0  0  0
   -3.8160   14.2420   11.3830 C   0  0  0  0  0  0
   -3.4930   10.7820    8.9700 O   0  0  0  0  0  0
   -1.8890   11.5220    6.8280 O   0  0  0  0  0  0
   -0.1720   13.4310    8.1210 O   0  0  0  0  0  0
   -4.1350   13.0210    9.3320 O   0  0  0  0  0  0
   -3.1310   14.6390   12.3520 O   0  0  0  0  0  0
   -5.0070   14.5950   11.2200 O   0  5  0  0  0  0
    2.4090   17.0340    7.5220 O   0  0  0  0  0  0
   -1.9513   16.2615   10.8180 H   0  0  0  0  0  0
   -1.8635   18.4591    9.5773 H   0  0  0  0  0  0
   -2.1178   16.7430    7.0141 H   0  0  0  0  0  0
    0.3861   18.0716    6.8789 H   0  0  0  0  0  0
   -4.1194   17.5557   10.1004 H   0  0  0  0  0  0
   -3.2646   18.9253    6.8625 H   0  0  0  0  0  0
   -4.5115   11.9520    7.6333 H   0  0  0  0  0  0
   -2.5893   13.4065    7.0458 H   0  0  0  0  0  0
   -1.0025   12.0019    9.2770 H   0  0  0  0  0  0
   -1.1809   14.1536   10.5447 H   0  0  0  0  0  0
   -2.9743   12.3568   10.8840 H   0  0  0  0  0  0
   -3.1516    9.9299    8.3639 H   0  0  0  0  0  0
   -2.5135   11.1394    6.0073 H   0  0  0  0  0  0
    0.3585   12.8359    7.3631 H   0  0  0  0  0  0
  1  2  1  0  0  0
  1  7  1  0  0  0
  1 10  1  0  0  0
  1 25  1  0  0  0
  2  3  1  0  0  0
  2  8  1  0  0  0
  2 26  1  0  0  0
  3  4  1  0  0  0
  3  9  1  0  0  0
  3 27  1  0  0  0
  4  5  2  0  0  0
  4 28  1  0  0  0
  5  6  1  0  0  0
  5 10  1  0  0  0
  6 11  1  0  0  0
  6 24  2  0  0  0
  7 15  1  0  0  0
  8 29  1  0  0  0
  9 30  1  0  0  0
 12 13  1  0  0  0
 12 18  1  0  0  0
 12 21  1  0  0  0
 12 31  1  0  0  0
 13 14  1  0  0  0
 13 19  1  0  0  0
 13 32  1  0  0  0
 14 15  1  0  0  0
 14 20  1  0  0  0
 14 33  1  0  0  0
 15 16  1  0  0  0
 15 34  1  0  0  0
 16 17  1  0  0  0
 16 21  1  0  0  0
 16 35  1  0  0  0
 17 22  2  0  0  0
 17 23  1  0  0  0
 18 36  1  0  0  0
 19 37  1  0  0  0
 20 38  1  0  0  0
M  CHG  2  11  -1  23  -1
M  END
> <s_m_source_file>
../2w47_ligand.sdf

> <i_m_source_file_index>
1

> <s_epik_input>
W09IXVtDQEBIXTFbQ0BIXShbT0hdKVtDQEBIXShbT0hdKVtDQEhdKFtDQEhdKE8xKUMoPU8pW09IXSlPW0NAQEhdMltDQEhdKFtPSF0pW0NAQEhdKFtPSF0pW0NIXT1DKE8yKUMoPU8pW09IXQ==

> <s_epik_cmdline>
J2VwaWtfYXBwJywgJy1pbWFlJywgJ2xpZ2FuZF9wcm8ubWFlJywgJy1vbWFlJywgJ2xpZ2FuZF9wcmVwLm1hZScsICctbXMnLCAnMScsICctcGgnLCAnNycsICctcGh0JywgJzAuNScsICctbnQn

> <r_lp_tautomer_probability>
1

> <r_epik_Ionization_Penalty>
  0.0003

> <r_epik_Ionization_Penalty_Charging>
  0.0003

> <r_epik_Ionization_Penalty_Neutral>
  0.0000

> <r_epik_State_Penalty>
 -0.0000

> <r_epik_Charging_Adjusted_Penalty>
0.000276107784463965

> <i_epik_Tot_Q>
-2

> <i_epik_Tot_abs_Q>
2

> <s_epik_Chemistry_Notes>
This compound contains an acetal/aminal-like group ( X-CH(R)-Y where X, Y are N, S, or O) that may be acid/base labile, releasing an aldehyde.

$$$$
