2w54_ligand
                    3D
 Schrodinger Suite 2020-3.
 22 23  0  0  1  0            999 V2000
   14.6360    8.8370   24.8920 C   0  0  0  0  0  0
   15.2850    9.6180   24.0400 N   0  0  0  0  0  0
   16.5500    9.9980   24.2860 C   0  0  0  0  0  0
   17.1830   10.7940   23.4030 N   0  0  0  0  0  0
   18.4510   11.1970   23.6140 C   0  0  0  0  0  0
   19.0460   11.9840   22.7230 N   0  0  0  0  0  0
   17.1910    9.5690   25.4590 C   0  0  0  0  0  0
   18.5050    9.9690   25.7120 C   0  0  0  0  0  0
   19.1460   10.7960   24.7750 N   0  3  0  0  0  0
   19.0970    9.6090   26.7300 O   0  0  0  0  0  0
   16.5310    8.7760   26.3230 N   0  0  0  0  0  0
   15.2650    8.4030   26.0580 C   0  0  0  0  0  0
   14.5110    7.5060   27.0380 C   0  0  0  0  0  0
   14.6710    7.6240   28.2510 O   0  0  0  0  0  0
   13.6104    8.5341   24.6809 H   0  0  0  0  0  0
   18.5051   12.2971   21.8178 H   0  0  0  0  0  0
   20.0792   12.3221   22.8910 H   0  0  0  0  0  0
   20.1807   11.1310   24.9399 H   0  0  0  0  0  0
   13.4282    7.6478   26.9062 H   0  0  0  0  0  0
   14.7691    6.4542   26.8455 H   0  0  0  0  0  0
   14.1210    6.9708   28.9444 H   0  0  0  0  0  0
   16.6644   11.1258   22.4915 H   0  0  0  0  0  0
  1  2  1  0  0  0
  1 12  2  0  0  0
  1 15  1  0  0  0
  2  3  2  0  0  0
  3  4  1  0  0  0
  3  7  1  0  0  0
  4  5  1  0  0  0
  4 22  1  0  0  0
  5  6  1  0  0  0
  5  9  2  0  0  0
  6 16  1  0  0  0
  6 17  1  0  0  0
  7  8  1  0  0  0
  7 11  2  0  0  0
  8  9  1  0  0  0
  8 10  2  0  0  0
  9 18  1  0  0  0
 11 12  1  0  0  0
 12 13  1  0  0  0
 13 14  1  0  0  0
 13 19  1  0  0  0
 13 20  1  0  0  0
 14 21  1  0  0  0
M  CHG  1   9   1
M  END
> <s_m_source_file>
../2w54_ligand.sdf

> <i_m_source_file_index>
1

> <s_epik_input>
bjFbY0hdYyhbQ0gyXVtPSF0pbmMoYzEyKWMoPU8pW25IXWMobjIpW05IMl0=

> <s_epik_cmdline>
J2VwaWtfYXBwJywgJy1pbWFlJywgJ2xpZ2FuZF9wcm8ubWFlJywgJy1vbWFlJywgJ2xpZ2FuZF9wcmVwLm1hZScsICctbXMnLCAnMScsICctcGgnLCAnNycsICctcGh0JywgJzAuNScsICctbnQn

> <r_epik_Ionization_Penalty>
  0.3627

> <r_epik_Ionization_Penalty_Charging>
  0.3627

> <r_epik_Ionization_Penalty_Neutral>
  0.0000

> <r_epik_State_Penalty>
  0.3947

> <r_epik_Charging_Adjusted_Penalty>
0.757396914713136

> <i_epik_Tot_Q>
1

> <i_epik_Tot_abs_Q>
1

$$$$
