2w5i_ligand
                    3D
 Schrodinger Suite 2020-3.
 43 45  0  0  1  0            999 V2000
   38.7520   -1.7230   24.7630 P   0  0  0  0  0  0
   40.0900   -2.1310   25.3460 O   0  5  0  0  0  0
   38.8580   -0.6890   23.6680 O   0  0  0  0  0  0
   37.6370   -1.4520   25.7590 O   0  5  0  0  0  0
   37.1220   -3.2250   22.9640 P   0  0  1  0  0  0
   35.8120   -3.5210   23.6370 O   0  5  0  0  0  0
   37.2400   -2.0440   22.0440 O   0  0  0  0  0  0
   38.2940   -3.1140   24.0620 O   0  0  0  0  0  0
   39.0190   -4.6980   21.4980 P   0  0  1  0  0  0
   39.6030   -3.3540   21.1040 O   0  0  0  0  0  0
   39.7710   -5.5720   22.4890 O   0  5  0  0  0  0
   37.5470   -4.5100   22.1170 O   0  0  0  0  0  0
   38.6160   -5.5220   20.1650 O   0  0  0  0  0  0
   37.9130   -6.7530   20.3350 C   0  0  0  0  0  0
   37.8280   -7.5550   19.0430 C   0  0  1  0  0  0
   36.9740   -6.8760   18.1260 O   0  0  0  0  0  0
   39.1630   -7.7830   18.3170 C   0  0  1  0  0  0
   39.5230   -9.1700   18.4320 O   0  0  0  0  0  0
   38.9170   -7.4030   16.8580 C   0  0  1  0  0  0
   39.1260   -8.4690   15.9380 O   0  0  0  0  0  0
   37.4190   -7.1850   16.7880 C   0  0  2  0  0  0
   37.0420   -6.1660   15.7600 N   0  0  0  0  0  0
   36.1890   -6.4390   14.7620 C   0  0  0  0  0  0
   35.9820   -5.3570   13.9930 N   0  0  0  0  0  0
   36.7490   -4.3810   14.4890 C   0  0  0  0  0  0
   36.9500   -2.9980   14.0980 C   0  0  0  0  0  0
   36.2890   -2.5630   12.9860 N   0  0  0  0  0  0
   37.7730   -2.2510   14.8740 N   0  0  0  0  0  0
   38.4250   -2.7690   15.9570 C   0  0  0  0  0  0
   38.2740   -4.0510   16.3710 N   0  0  0  0  0  0
   37.4420   -4.8870   15.6700 C   0  0  0  0  0  0
   38.4299   -7.3699   21.0848 H   0  0  0  0  0  0
   36.8875   -6.5457   20.6747 H   0  0  0  0  0  0
   37.3892   -8.5263   19.3151 H   0  0  0  0  0  0
   40.0159   -7.2388   18.7487 H   0  0  0  0  0  0
   39.7338   -9.6033   19.4208 H   0  0  0  0  0  0
   39.6007   -6.5980   16.5506 H   0  0  0  0  0  0
   40.1408   -8.8583   15.7685 H   0  0  0  0  0  0
   36.8698   -8.0867   16.4793 H   0  0  0  0  0  0
   35.7246   -7.4111   14.5964 H   0  0  0  0  0  0
   35.6422   -3.2538   12.4252 H   0  0  0  0  0  0
   36.4030   -1.5216   12.6506 H   0  0  0  0  0  0
   39.0995   -2.1199   16.5154 H   0  0  0  0  0  0
  1  2  1  0  0  0
  1  3  2  0  0  0
  1  4  1  0  0  0
  1  8  1  0  0  0
  5  6  1  0  0  0
  5  7  2  0  0  0
  5  8  1  0  0  0
  5 12  1  0  0  0
  9 10  2  0  0  0
  9 11  1  0  0  0
  9 12  1  0  0  0
  9 13  1  0  0  0
 13 14  1  0  0  0
 14 15  1  0  0  0
 14 32  1  0  0  0
 14 33  1  0  0  0
 15 16  1  0  0  0
 15 17  1  0  0  0
 15 34  1  0  0  0
 16 21  1  0  0  0
 17 18  1  0  0  0
 17 19  1  0  0  0
 17 35  1  0  0  0
 18 36  1  0  0  0
 19 20  1  0  0  0
 19 21  1  0  0  0
 19 37  1  0  0  0
 20 38  1  0  0  0
 21 22  1  0  0  0
 21 39  1  0  0  0
 22 23  1  0  0  0
 22 31  1  0  0  0
 23 24  2  0  0  0
 23 40  1  0  0  0
 24 25  1  0  0  0
 25 26  2  0  0  0
 25 31  1  0  0  0
 26 27  1  0  0  0
 26 28  1  0  0  0
 27 41  1  0  0  0
 27 42  1  0  0  0
 28 29  2  0  0  0
 29 30  1  0  0  0
 29 43  1  0  0  0
 30 31  2  0  0  0
M  CHG  4   2  -1   4  -1   6  -1  11  -1
M  END
> <s_m_source_file>
../2w5i_ligand.sdf

> <i_m_source_file_index>
1

> <s_epik_input>
W09IXVAoPU8pKFtPSF0pT1tQQF0oPU8pKFtPSF0pT1tQQEBdKD1PKShbT0hdKU9bQ0gyXVtDQEhdMU9bQ0BIXShbQ0BIXShbT0hdKVtDQEBIXTFbT0hdKW4oW2NIXW4yKWMoYzIzKW5bY0hdbmMzW05IMl0=

> <s_epik_cmdline>
J2VwaWtfYXBwJywgJy1pbWFlJywgJ2xpZ2FuZF9wcm8ubWFlJywgJy1vbWFlJywgJ2xpZ2FuZF9wcmVwLm1hZScsICctbXMnLCAnMScsICctcGgnLCAnNycsICctcGh0JywgJzAuNScsICctbnQn

> <r_lp_tautomer_probability>
0.999997216410988

> <r_epik_Ionization_Penalty>
  0.0818

> <r_epik_Ionization_Penalty_Charging>
  0.0813

> <r_epik_Ionization_Penalty_Neutral>
  0.0004

> <r_epik_State_Penalty>
  0.0708

> <r_epik_Charging_Adjusted_Penalty>
0.152157994418768

> <i_epik_Tot_Q>
-4

> <i_epik_Tot_abs_Q>
4

> <s_epik_Chemistry_Notes>
This compound contains an acetal/aminal-like group ( X-CH(R)-Y where X, Y are N, S, or O) that may be acid/base labile, releasing an aldehyde.

$$$$
