2w68_ligand
                    3D
 Schrodinger Suite 2020-3.
 81 83  0  0  1  0            999 V2000
   25.4450  -37.8050   -6.3780 C   0  0  0  0  0  0
   24.2850  -36.9760   -5.8170 C   0  0  1  0  0  0
   23.0430  -37.1290   -6.6950 C   0  0  0  0  0  0
   22.3470  -38.4590   -6.5130 C   0  0  1  0  0  0
   22.0200  -38.6050   -5.0460 C   0  0  2  0  0  0
   23.3610  -38.6050   -4.3370 C   0  0  2  0  0  0
   23.3070  -38.9580   -2.8570 C   0  0  1  0  0  0
   24.6640  -38.7050   -2.1970 C   0  0  1  0  0  0
   24.6990  -39.1910   -0.7560 C   0  0  0  0  0  0
   20.2160  -40.2250   -4.5900 C   0  0  0  0  0  0
   19.8840  -41.6910   -4.5720 C   0  0  0  0  0  0
   21.4750  -39.9490   -4.9500 N   0  0  0  0  0  0
   26.0360  -38.6360   -5.6390 O   0  0  0  0  0  0
   25.7990  -37.6280   -7.5790 O   0  5  0  0  0  0
   21.1700  -38.4970   -7.3160 O   0  0  0  0  0  0
   24.0040  -37.3500   -4.4710 O   0  0  0  0  0  0
   22.2390  -38.2680   -2.2230 O   0  0  0  0  0  0
   25.6650  -39.4960   -2.8780 O   0  0  0  0  0  0
   25.2470  -40.5300   -0.7550 O   0  0  0  0  0  0
   19.3880  -39.3750   -4.2860 O   0  0  0  0  0  0
   26.6100  -33.2270   -3.8570 C   0  0  1  0  0  0
   25.3560  -33.7440   -4.5300 C   0  0  1  0  0  0
   25.6940  -35.1030   -5.1360 C   0  0  2  0  0  0
   26.9240  -34.9890   -6.0440 C   0  0  2  0  0  0
   28.0880  -34.3650   -5.3020 C   0  0  1  0  0  0
   29.2960  -34.1930   -6.2170 C   0  0  0  0  0  0
   24.3320  -33.8310   -3.5430 O   0  0  0  0  0  0
   24.5640  -35.5650   -5.8830 O   0  0  0  0  0  0
   26.6150  -34.1520   -7.1650 O   0  0  0  0  0  0
   27.6420  -33.0900   -4.8390 O   0  0  0  0  0  0
   30.2840  -35.1700   -5.8590 O   0  0  0  0  0  0
   28.5270  -29.5480   -1.5230 C   0  0  2  0  0  0
   27.6530  -30.0830   -2.6410 C   0  0  2  0  0  0
   27.4250  -31.5810   -2.4330 C   0  0  1  0  0  0
   27.1840  -31.9780   -0.9600 C   0  0  1  0  0  0
   28.3890  -32.7350   -0.3980 C   0  0  0  0  0  0
   27.8020  -29.7120   -0.1750 C   0  0  2  0  0  0
   28.7880  -29.8760    0.8480 O   0  0  0  0  0  0
   28.8160  -28.1800   -1.7990 O   0  0  0  0  0  0
   28.2830  -29.8380   -3.8990 O   0  0  0  0  0  0
   26.3270  -31.9710   -3.2590 O   0  0  0  0  0  0
   26.8830  -30.8390   -0.1300 O   0  0  0  0  0  0
   28.1060  -34.1320   -0.3750 O   0  0  0  0  0  0
   22.3195  -36.3382   -6.4477 H   0  0  0  0  0  0
   23.3298  -37.0456   -7.7537 H   0  0  0  0  0  0
   22.9464  -39.3092   -6.8706 H   0  0  0  0  0  0
   21.3223  -37.8607   -4.6347 H   0  0  0  0  0  0
   23.9802  -39.3477   -4.8615 H   0  0  0  0  0  0
   23.0282  -40.0113   -2.7058 H   0  0  0  0  0  0
   24.8894  -37.6306   -2.2672 H   0  0  0  0  0  0
   25.3317  -38.5189   -0.1577 H   0  0  0  0  0  0
   23.6784  -39.1956   -0.3457 H   0  0  0  0  0  0
   20.7675  -42.2708   -4.8775 H   0  0  0  0  0  0
   19.0567  -41.8882   -5.2697 H   0  0  0  0  0  0
   19.5849  -41.9867   -3.5556 H   0  0  0  0  0  0
   22.1094  -40.8175   -5.1806 H   0  0  0  0  0  0
   21.2468  -38.4027   -8.4093 H   0  0  0  0  0  0
   21.2132  -38.3705   -2.6068 H   0  0  0  0  0  0
   25.8488  -39.3444   -3.9519 H   0  0  0  0  0  0
   25.3628  -41.0762    0.1928 H   0  0  0  0  0  0
   26.9898  -33.8858   -3.0621 H   0  0  0  0  0  0
   24.9437  -33.0697   -5.2951 H   0  0  0  0  0  0
   25.8713  -35.8564   -4.3543 H   0  0  0  0  0  0
   27.1999  -35.9801   -6.4332 H   0  0  0  0  0  0
   28.3819  -34.9666   -4.4292 H   0  0  0  0  0  0
   28.9874  -34.3382   -7.2628 H   0  0  0  0  0  0
   29.7083  -33.1807   -6.0935 H   0  0  0  0  0  0
   23.9898  -32.9235   -3.0240 H   0  0  0  0  0  0
   25.7935  -34.4236   -7.8443 H   0  0  0  0  0  0
   31.2381  -35.2129   -6.4048 H   0  0  0  0  0  0
   29.5062  -30.0480   -1.4886 H   0  0  0  0  0  0
   26.6954  -29.5442   -2.6920 H   0  0  0  0  0  0
   28.3041  -32.1436   -2.7804 H   0  0  0  0  0  0
   26.2761  -32.5957   -0.8958 H   0  0  0  0  0  0
   29.2674  -32.5498   -1.0338 H   0  0  0  0  0  0
   28.5965  -32.3866    0.6245 H   0  0  0  0  0  0
   27.1822  -28.8300    0.0441 H   0  0  0  0  0  0
   29.5780  -29.1214    0.9765 H   0  0  0  0  0  0
   29.3336  -27.9041   -2.7296 H   0  0  0  0  0  0
   28.5186  -28.8080   -4.2048 H   0  0  0  0  0  0
   28.8600  -34.8398   -0.0003 H   0  0  0  0  0  0
  1  2  1  0  0  0
  1 13  2  0  0  0
  1 14  1  0  0  0
  2  3  1  0  0  0
  2 16  1  0  0  0
  2 28  1  0  0  0
  3  4  1  0  0  0
  3 44  1  0  0  0
  3 45  1  0  0  0
  4  5  1  0  0  0
  4 15  1  0  0  0
  4 46  1  0  0  0
  5  6  1  0  0  0
  5 12  1  0  0  0
  5 47  1  0  0  0
  6  7  1  0  0  0
  6 16  1  0  0  0
  6 48  1  0  0  0
  7  8  1  0  0  0
  7 17  1  0  0  0
  7 49  1  0  0  0
  8  9  1  0  0  0
  8 18  1  0  0  0
  8 50  1  0  0  0
  9 19  1  0  0  0
  9 51  1  0  0  0
  9 52  1  0  0  0
 10 11  1  0  0  0
 10 12  1  0  0  0
 10 20  2  0  0  0
 11 53  1  0  0  0
 11 54  1  0  0  0
 11 55  1  0  0  0
 12 56  1  0  0  0
 15 57  1  0  0  0
 17 58  1  0  0  0
 18 59  1  0  0  0
 19 60  1  0  0  0
 21 22  1  0  0  0
 21 30  1  0  0  0
 21 41  1  0  0  0
 21 61  1  0  0  0
 22 23  1  0  0  0
 22 27  1  0  0  0
 22 62  1  0  0  0
 23 24  1  0  0  0
 23 28  1  0  0  0
 23 63  1  0  0  0
 24 25  1  0  0  0
 24 29  1  0  0  0
 24 64  1  0  0  0
 25 26  1  0  0  0
 25 30  1  0  0  0
 25 65  1  0  0  0
 26 31  1  0  0  0
 26 66  1  0  0  0
 26 67  1  0  0  0
 27 68  1  0  0  0
 29 69  1  0  0  0
 31 70  1  0  0  0
 32 33  1  0  0  0
 32 37  1  0  0  0
 32 39  1  0  0  0
 32 71  1  0  0  0
 33 34  1  0  0  0
 33 40  1  0  0  0
 33 72  1  0  0  0
 34 35  1  0  0  0
 34 41  1  0  0  0
 34 73  1  0  0  0
 35 36  1  0  0  0
 35 42  1  0  0  0
 35 74  1  0  0  0
 36 43  1  0  0  0
 36 75  1  0  0  0
 36 76  1  0  0  0
 37 38  1  0  0  0
 37 42  1  0  0  0
 37 77  1  0  0  0
 38 78  1  0  0  0
 39 79  1  0  0  0
 40 80  1  0  0  0
 43 81  1  0  0  0
M  CHG  1  14  -1
M  END
> <s_m_source_file>
../2w68_ligand.sdf

> <i_m_source_file_index>
1

> <s_epik_input>
W09IXVtDSDJdW0NAQEhdKFtPSF0pW0NAQEhdKFtPSF0pW0NASF0oTzEpW0NASF0oW05IXUMoPU8pW0NIM10pW0NAQEhdKFtPSF0pW0NIMl1bQ0BAXTEoQyg9TylbT0hdKU9bQ0BASF0oW0NAQEhdKFtPSF0pW0NASF0oTzIpW0NIMl1bT0hdKVtDQEBIXShbT0hdKVtDQEBIXTJPW0NAQEhdKFtDQEhdKFtPSF0pW0NASF0zW09IXSlbQ0BASF0oW0NIMl1bT0hdKU9bQ0BIXTNbT0hd

> <s_epik_cmdline>
J2VwaWtfYXBwJywgJy1pbWFlJywgJ2xpZ2FuZF9wcm8ubWFlJywgJy1vbWFlJywgJ2xpZ2FuZF9wcmVwLm1hZScsICctbXMnLCAnMScsICctcGgnLCAnNycsICctcGh0JywgJzAuNScsICctbnQn

> <r_lp_tautomer_probability>
1

> <r_epik_Ionization_Penalty>
  0.0000

> <r_epik_Ionization_Penalty_Charging>
  0.0000

> <r_epik_Ionization_Penalty_Neutral>
  0.0000

> <r_epik_State_Penalty>
 -0.0000

> <r_epik_Charging_Adjusted_Penalty>
9.90123822354334e-06

> <i_epik_Tot_Q>
-1

> <i_epik_Tot_abs_Q>
1

> <s_epik_Chemistry_Notes>
This compound contains an acetal/aminal-like group ( X-CH(R)-Y where X, Y are N, S, or O) that may be acid/base labile, releasing an aldehyde.

$$$$
