2w6c_ligand
                    3D
 Schrodinger Suite 2020-3.
 68 69  0  0  1  0            999 V2000
    5.8970   64.0220   63.0090 O   0  0  0  0  0  0
    4.8440   64.6790   63.5850 C   0  0  0  0  0  0
    4.7150   66.0620   63.4300 C   0  0  0  0  0  0
    3.9020   63.9670   64.3270 C   0  0  0  0  0  0
    2.8340   64.6550   64.8960 C   0  0  0  0  0  0
    2.7210   66.0400   64.7500 C   0  0  0  0  0  0
    3.6720   66.7680   64.0310 C   0  0  0  0  0  0
    3.5540   68.3130   63.8530 C   0  0  1  0  0  0
    2.5890   68.5520   62.6900 C   0  0  0  0  0  0
    3.3220   68.4300   61.3340 C   0  0  0  0  0  0
    2.9960   69.0340   65.1070 C   0  0  0  0  0  0
    4.9130   68.9230   63.4080 C   0  0  0  0  0  0
    5.9280   69.2000   64.5270 C   0  0  0  0  0  0
    5.3930   70.2400   65.5200 C   0  0  0  0  0  0
    4.7830   69.5700   66.7540 C   0  0  0  0  0  0
    3.7200   68.6370   66.3380 N   0  3  1  0  0  0
    2.8680   68.2230   67.4750 C   0  0  0  0  0  0
    3.7430   67.4010   68.4660 C   0  0  0  0  0  0
    3.0570   66.1110   68.9420 C   0  0  0  0  0  0
    4.0510   64.9850   69.2810 C   0  0  0  0  0  0
    3.3270   63.6260   69.4550 C   0  0  0  0  0  0
    2.7070   63.4570   70.8470 C   0  0  0  0  0  0
    1.3820   62.6860   70.8250 C   0  0  0  0  0  0
    1.2000   61.8240   72.0920 C   0  0  0  0  0  0
   -0.2190   61.9460   72.6800 C   0  0  0  0  0  0
   -0.6340   60.6860   73.3320 N   0  3  0  0  0  0
    6.6409   64.5821   62.4234 H   0  0  0  0  0  0
    5.4452   66.6011   62.8264 H   0  0  0  0  0  0
    4.0004   62.8895   64.4592 H   0  0  0  0  0  0
    2.0789   64.1082   65.4607 H   0  0  0  0  0  0
    1.8778   66.5604   65.2041 H   0  0  0  0  0  0
    1.7812   67.8062   62.7246 H   0  0  0  0  0  0
    2.1597   69.5615   62.7713 H   0  0  0  0  0  0
    2.6092   68.6055   60.5148 H   0  0  0  0  0  0
    3.7499   67.4212   61.2380 H   0  0  0  0  0  0
    4.1284   69.1765   61.2846 H   0  0  0  0  0  0
    3.0998   70.1218   64.9810 H   0  0  0  0  0  0
    1.9335   68.7793   65.2340 H   0  0  0  0  0  0
    5.4115   68.2363   62.7080 H   0  0  0  0  0  0
    4.7365   69.8885   62.9113 H   0  0  0  0  0  0
    6.1345   68.2681   65.0737 H   0  0  0  0  0  0
    6.8616   69.5825   64.0888 H   0  0  0  0  0  0
    6.2163   70.8919   65.8473 H   0  0  0  0  0  0
    4.6163   70.8472   65.0321 H   0  0  0  0  0  0
    5.5645   69.0153   67.2940 H   0  0  0  0  0  0
    4.3557   70.3385   67.4150 H   0  0  0  0  0  0
    4.2339   67.7194   66.0155 H   0  0  0  0  0  0
    2.4668   69.1159   67.9767 H   0  0  0  0  0  0
    2.0363   67.6059   67.1043 H   0  0  0  0  0  0
    4.6854   67.1173   67.9746 H   0  0  0  0  0  0
    3.9621   68.0112   69.3547 H   0  0  0  0  0  0
    2.4707   66.3207   69.8488 H   0  0  0  0  0  0
    2.3891   65.7377   68.1517 H   0  0  0  0  0  0
    4.7859   64.8877   68.4683 H   0  0  0  0  0  0
    4.5719   65.2259   70.2194 H   0  0  0  0  0  0
    2.5176   63.5443   68.7146 H   0  0  0  0  0  0
    4.0450   62.8062   69.3053 H   0  0  0  0  0  0
    3.4038   62.9040   71.4940 H   0  0  0  0  0  0
    2.5093   64.4473   71.2830 H   0  0  0  0  0  0
    0.5448   63.3973   70.7678 H   0  0  0  0  0  0
    1.3590   62.0214   69.9488 H   0  0  0  0  0  0
    1.3777   60.7669   71.8449 H   0  0  0  0  0  0
    1.9174   62.1464   72.8610 H   0  0  0  0  0  0
   -0.2379   62.7524   73.4280 H   0  0  0  0  0  0
   -0.9313   62.1767   71.8741 H   0  0  0  0  0  0
   -1.6483   60.8019   73.7417 H   0  0  0  0  0  0
    0.0654   60.4471   74.1467 H   0  0  0  0  0  0
   -0.6280   59.8714   72.5928 H   0  0  0  0  0  0
  1  2  1  0  0  0
  1 27  1  0  0  0
  2  3  2  0  0  0
  2  4  1  0  0  0
  3  7  1  0  0  0
  3 28  1  0  0  0
  4  5  2  0  0  0
  4 29  1  0  0  0
  5  6  1  0  0  0
  5 30  1  0  0  0
  6  7  2  0  0  0
  6 31  1  0  0  0
  7  8  1  0  0  0
  8  9  1  0  0  0
  8 11  1  0  0  0
  8 12  1  0  0  0
  9 10  1  0  0  0
  9 32  1  0  0  0
  9 33  1  0  0  0
 10 34  1  0  0  0
 10 35  1  0  0  0
 10 36  1  0  0  0
 11 16  1  0  0  0
 11 37  1  0  0  0
 11 38  1  0  0  0
 12 13  1  0  0  0
 12 39  1  0  0  0
 12 40  1  0  0  0
 13 14  1  0  0  0
 13 41  1  0  0  0
 13 42  1  0  0  0
 14 15  1  0  0  0
 14 43  1  0  0  0
 14 44  1  0  0  0
 15 16  1  0  0  0
 15 45  1  0  0  0
 15 46  1  0  0  0
 16 17  1  0  0  0
 16 47  1  0  0  0
 17 18  1  0  0  0
 17 48  1  0  0  0
 17 49  1  0  0  0
 18 19  1  0  0  0
 18 50  1  0  0  0
 18 51  1  0  0  0
 19 20  1  0  0  0
 19 52  1  0  0  0
 19 53  1  0  0  0
 20 21  1  0  0  0
 20 54  1  0  0  0
 20 55  1  0  0  0
 21 22  1  0  0  0
 21 56  1  0  0  0
 21 57  1  0  0  0
 22 23  1  0  0  0
 22 58  1  0  0  0
 22 59  1  0  0  0
 23 24  1  0  0  0
 23 60  1  0  0  0
 23 61  1  0  0  0
 24 25  1  0  0  0
 24 62  1  0  0  0
 24 63  1  0  0  0
 25 26  1  0  0  0
 25 64  1  0  0  0
 25 65  1  0  0  0
 26 66  1  0  0  0
 26 67  1  0  0  0
 26 68  1  0  0  0
M  CHG  2  16   1  26   1
M  END
> <s_m_source_file>
../2w6c_ligand.sdf

> <i_m_source_file_index>
1

> <s_epik_input>
W09IXWMxW2NIXWMoW2NIXVtjSF1bY0hdMSlbQ0BAXTIoW0NIMl1bQ0gzXSlbQ0gyXVtOQEBIK10oW0NIMl1bQ0gyXVtDSDJdW0NIMl0yKVtDSDJdW0NIMl1bQ0gyXVtDSDJdW0NIMl1bQ0gyXVtDSDJdW0NIMl1bQ0gyXVtOSDMrXQ==

> <s_epik_cmdline>
J2VwaWtfYXBwJywgJy1pbWFlJywgJ2xpZ2FuZF9wcm8ubWFlJywgJy1vbWFlJywgJ2xpZ2FuZF9wcmVwLm1hZScsICctbXMnLCAnMScsICctcGgnLCAnNycsICctcGh0JywgJzAuNScsICctbnQn

> <r_lp_tautomer_probability>
1

> <r_epik_Ionization_Penalty>
  0.0039

> <r_epik_Ionization_Penalty_Charging>
  0.0018

> <r_epik_Ionization_Penalty_Neutral>
  0.0021

> <r_epik_State_Penalty>
 -0.0000

> <r_epik_Charging_Adjusted_Penalty>
0.00183776113312354

> <i_epik_Tot_Q>
2

> <i_epik_Tot_abs_Q>
2

$$$$
