2w6o_ligand
                    3D
 Schrodinger Suite 2020-3.
 27 28  0  0  1  0            999 V2000
   19.4530   10.8210    0.5560 O   0  0  0  0  0  0
   18.6550   10.2790   -0.1970 C   0  0  0  0  0  0
   17.6110    9.3320    0.3580 C   0  0  0  0  0  0
   17.6120    8.0660   -0.4880 C   0  0  0  0  0  0
   16.6110    7.0540    0.0590 C   0  0  0  0  0  0
   18.9970    7.4230   -0.4020 C   0  0  0  0  0  0
   17.2590    8.4090   -1.9390 C   0  0  0  0  0  0
   17.9970    9.6140   -2.5140 C   0  0  0  0  0  0
   18.0050    9.8290   -3.8530 N   0  0  0  0  0  0
   18.6380   10.8770   -4.4040 C   0  0  0  0  0  0
   19.2900   11.7510   -3.6210 N   0  0  0  0  0  0
   19.3140   11.5810   -2.2750 C   0  0  0  0  0  0
   18.6670   10.5080   -1.6900 C   0  0  0  0  0  0
   19.9680   12.4670   -1.5010 N   0  0  0  0  0  0
   17.8562    9.0871    1.4020 H   0  0  0  0  0  0
   16.6219    9.8115    0.3165 H   0  0  0  0  0  0
   16.8678    6.8105    1.1005 H   0  0  0  0  0  0
   16.6445    6.1389   -0.5505 H   0  0  0  0  0  0
   15.5986    7.4826    0.0216 H   0  0  0  0  0  0
   19.2269    7.1865    0.6474 H   0  0  0  0  0  0
   19.7506    8.1218   -0.7940 H   0  0  0  0  0  0
   19.0095    6.4982   -0.9975 H   0  0  0  0  0  0
   17.4997    7.5533   -2.5870 H   0  0  0  0  0  0
   16.1846    8.6332   -2.0118 H   0  0  0  0  0  0
   18.6225   11.0179   -5.4848 H   0  0  0  0  0  0
   20.4846   13.3226   -1.9604 H   0  0  0  0  0  0
   19.9859   12.3355   -0.4090 H   0  0  0  0  0  0
  1  2  2  0  0  0
  2  3  1  0  0  0
  2 13  1  0  0  0
  3  4  1  0  0  0
  3 15  1  0  0  0
  3 16  1  0  0  0
  4  5  1  0  0  0
  4  6  1  0  0  0
  4  7  1  0  0  0
  5 17  1  0  0  0
  5 18  1  0  0  0
  5 19  1  0  0  0
  6 20  1  0  0  0
  6 21  1  0  0  0
  6 22  1  0  0  0
  7  8  1  0  0  0
  7 23  1  0  0  0
  7 24  1  0  0  0
  8  9  2  0  0  0
  8 13  1  0  0  0
  9 10  1  0  0  0
 10 11  2  0  0  0
 10 25  1  0  0  0
 11 12  1  0  0  0
 12 13  2  0  0  0
 12 14  1  0  0  0
 14 26  1  0  0  0
 14 27  1  0  0  0
M  END
> <s_m_source_file>
../2w6o_ligand.sdf

> <i_m_source_file_index>
1

> <s_epik_input>
W0NIM11DKFtDSDNdKShbQ0gyXTEpW0NIMl1DKD1PKWMoYzEyKWMoW05IMl0pbltjSF1uMg==

> <s_epik_cmdline>
J2VwaWtfYXBwJywgJy1pbWFlJywgJ2xpZ2FuZF9wcm8ubWFlJywgJy1vbWFlJywgJ2xpZ2FuZF9wcmVwLm1hZScsICctbXMnLCAnMScsICctcGgnLCAnNycsICctcGh0JywgJzAuNScsICctbnQn

> <r_lp_tautomer_probability>
1

> <r_epik_Ionization_Penalty>
  0.0011

> <r_epik_Ionization_Penalty_Charging>
  0.0000

> <r_epik_Ionization_Penalty_Neutral>
  0.0011

> <r_epik_State_Penalty>
 -0.0000

> <r_epik_Charging_Adjusted_Penalty>
0

> <i_epik_Tot_Q>
0

> <i_epik_Tot_abs_Q>
0

$$$$
