2w6p_ligand
                    3D
 Schrodinger Suite 2020-3.
 34 36  0  0  1  0            999 V2000
    3.8980  -24.7580   24.4630 C   0  0  0  0  0  0
    3.1600  -23.8480   25.2400 C   0  0  0  0  0  0
    1.9130  -24.3210   25.7360 C   0  0  0  0  0  0
    1.5130  -25.5850   25.4710 N   0  0  0  0  0  0
    2.2700  -26.4180   24.7280 C   0  0  0  0  0  0
    3.4480  -26.0070   24.2230 N   0  3  0  0  0  0
    1.0210  -23.6410   26.4960 N   0  0  0  0  0  0
    5.1270  -24.4250   23.9150 C   0  0  0  0  0  0
    5.6500  -23.1650   24.1240 C   0  0  0  0  0  0
    4.9510  -22.2260   24.8820 C   0  0  0  0  0  0
    3.7080  -22.5530   25.4540 C   0  0  0  0  0  0
    1.8390  -27.6700   24.4780 N   0  0  0  0  0  0
    7.6540  -19.7410   25.7260 C   0  0  0  0  0  0
    7.0590  -18.5320   25.3870 C   0  0  0  0  0  0
    2.9910  -21.5090   26.2790 C   0  0  0  0  0  0
    5.7630  -18.5070   24.8820 C   0  0  0  0  0  0
    5.0510  -19.6940   24.7070 C   0  0  0  0  0  0
    5.6390  -20.9100   25.0510 C   0  0  0  0  0  0
    6.9440  -20.9270   25.5530 C   0  0  0  0  0  0
    1.2253  -22.5993   26.7843 H   0  0  0  0  0  0
    0.0925  -24.1306   26.8248 H   0  0  0  0  0  0
    5.6778  -25.1549   23.3218 H   0  0  0  0  0  0
    6.6162  -22.9019   23.6936 H   0  0  0  0  0  0
    0.8773  -28.0126   24.8875 H   0  0  0  0  0  0
    2.4489  -28.3494   23.8644 H   0  0  0  0  0  0
    8.6685  -19.7613   26.1242 H   0  0  0  0  0  0
    7.6094  -17.6002   25.5172 H   0  0  0  0  0  0
    2.0418  -21.9231   26.6498 H   0  0  0  0  0  0
    2.7872  -20.6257   25.6559 H   0  0  0  0  0  0
    3.6223  -21.2185   27.1317 H   0  0  0  0  0  0
    5.3012  -17.5546   24.6216 H   0  0  0  0  0  0
    4.0390  -19.6705   24.3029 H   0  0  0  0  0  0
    7.4103  -21.8777   25.8115 H   0  0  0  0  0  0
    4.0451  -26.6985   23.6103 H   0  0  0  0  0  0
  1  2  1  0  0  0
  1  6  2  0  0  0
  1  8  1  0  0  0
  2  3  2  0  0  0
  2 11  1  0  0  0
  3  4  1  0  0  0
  3  7  1  0  0  0
  4  5  2  0  0  0
  5  6  1  0  0  0
  5 12  1  0  0  0
  6 34  1  0  0  0
  7 20  1  0  0  0
  7 21  1  0  0  0
  8  9  2  0  0  0
  8 22  1  0  0  0
  9 10  1  0  0  0
  9 23  1  0  0  0
 10 11  2  0  0  0
 10 18  1  0  0  0
 11 15  1  0  0  0
 12 24  1  0  0  0
 12 25  1  0  0  0
 13 14  2  0  0  0
 13 19  1  0  0  0
 13 26  1  0  0  0
 14 16  1  0  0  0
 14 27  1  0  0  0
 15 28  1  0  0  0
 15 29  1  0  0  0
 15 30  1  0  0  0
 16 17  2  0  0  0
 16 31  1  0  0  0
 17 18  1  0  0  0
 17 32  1  0  0  0
 18 19  2  0  0  0
 19 33  1  0  0  0
M  CHG  1   6   1
M  END
> <s_m_source_file>
../2w6p_ligand.sdf

> <i_m_source_file_index>
1

> <s_epik_input>
bjFjKFtOSDJdKW5jKFtOSDJdKWMoYzEyKWMoW0NIM10pYyhbY0hdW2NIXTIpLWMzW2NIXVtjSF1bY0hdW2NIXVtjSF0z

> <s_epik_cmdline>
J2VwaWtfYXBwJywgJy1pbWFlJywgJ2xpZ2FuZF9wcm8ubWFlJywgJy1vbWFlJywgJ2xpZ2FuZF9wcmVwLm1hZScsICctbXMnLCAnMScsICctcGgnLCAnNycsICctcGh0JywgJzAuNScsICctbnQn

> <r_epik_Ionization_Penalty>
  0.0439

> <r_epik_Ionization_Penalty_Charging>
  0.0439

> <r_epik_Ionization_Penalty_Neutral>
  0.0000

> <r_epik_State_Penalty>
  0.0594

> <r_epik_Charging_Adjusted_Penalty>
0.10331410508457

> <i_epik_Tot_Q>
1

> <i_epik_Tot_abs_Q>
1

$$$$
