2w6t_ligand
                    3D
 Schrodinger Suite 2020-3.
139139  0  0  1  0            999 V2000
  -71.1440  -35.7880   19.3750 N   0  3  0  0  0  0
  -71.7670  -36.2470   18.0790 C   0  0  1  0  0  0
  -70.7730  -36.2260   16.9110 C   0  0  0  0  0  0
  -71.0720  -35.6940   15.8270 O   0  0  0  0  0  0
  -72.4300  -37.6220   18.2340 C   0  0  0  0  0  0
  -71.5710  -38.6730   17.8470 O   0  0  0  0  0  0
  -69.5950  -36.7950   17.1440 N   0  0  0  0  0  0
  -68.6130  -36.8520   16.0840 C   0  0  2  0  0  0
  -68.4800  -38.2290   15.4430 C   0  0  0  0  0  0
  -67.8250  -38.3690   14.4020 O   0  0  0  0  0  0
  -67.2750  -36.2800   16.5640 C   0  0  0  0  0  0
  -67.3330  -34.7650   16.9820 C   0  0  0  0  0  0
  -67.9180  -33.8050   15.9300 C   0  0  0  0  0  0
  -68.4320  -32.5190   16.5780 C   0  0  0  0  0  0
  -68.9590  -31.4960   15.5930 N   0  3  0  0  0  0
  -69.1490  -39.2200   16.0410 N   0  0  0  0  0  0
  -69.1600  -40.6020   15.5680 C   0  0  0  0  0  0
  -67.9830  -41.4190   16.0780 C   0  0  0  0  0  0
  -67.9220  -42.6390   15.8550 O   0  0  0  0  0  0
  -67.0600  -40.7470   16.7750 N   0  0  0  0  0  0
  -65.7910  -41.3190   17.2270 C   0  0  1  0  0  0
  -64.9540  -40.1680   17.7420 C   0  0  0  0  0  0
  -63.5540  -40.3350   17.2000 C   0  0  0  0  0  0
  -62.4030  -39.9330   18.0890 C   0  0  0  0  0  0
  -62.5840  -38.7290   18.9280 N   0  3  0  0  0  0
  -63.6320  -38.0560   19.0960 O   0  0  0  0  0  0
  -61.5130  -38.4250   19.5440 C   0  0  0  0  0  0
  -61.4670  -37.4810   20.3020 O   0  0  0  0  0  0
  -65.8530  -42.2500   18.3940 C   0  0  0  0  0  0
  -66.1560  -41.8320   19.4860 O   0  0  0  0  0  0
  -65.5540  -43.5230   18.1890 N   0  0  0  0  0  0
  -65.5080  -44.5180   19.2960 C   0  0  2  0  0  0
  -66.7470  -44.6470   20.1850 C   0  0  0  0  0  0
  -67.8480  -44.8170   19.6640 O   0  0  0  0  0  0
  -64.2540  -44.3480   20.1420 C   0  0  0  0  0  0
  -63.1950  -45.0970   19.5770 O   0  0  0  0  0  0
  -66.5190  -44.5850   21.5190 N   0  0  0  0  0  0
  -67.5630  -44.5740   22.5960 C   0  0  1  0  0  0
  -68.8320  -43.7230   22.3720 C   0  0  0  0  0  0
  -69.9570  -44.2220   22.3110 O   0  0  0  0  0  0
  -67.9100  -45.9590   23.0920 C   0  0  0  0  0  0
  -67.2330  -46.2020   24.3120 O   0  0  0  0  0  0
  -68.6080  -42.4170   22.1990 N   0  0  0  0  0  0
  -69.5940  -41.3660   22.5070 C   0  0  0  0  0  0
  -69.5750  -41.1030   24.0270 C   0  0  0  0  0  0
  -69.9850  -40.0320   24.4680 O   0  0  0  0  0  0
  -69.0930  -42.0610   24.8270 N   0  0  0  0  0  0
  -69.1810  -41.9430   26.2720 C   0  0  1  0  0  0
  -69.4920  -43.2920   26.9100 C   0  0  0  0  0  0
  -69.9320  -43.1430   28.3680 C   0  0  0  0  0  0
  -69.2300  -44.0560   29.3780 C   0  0  0  0  0  0
  -67.7820  -44.1050   29.2020 N   0  0  0  0  0  0
  -67.9670  -41.3360   26.9770 C   0  0  0  0  0  0
  -68.1070  -40.7430   28.0340 O   0  0  0  0  0  0
  -66.7730  -41.4770   26.4230 N   0  0  0  0  0  0
  -65.5750  -41.0130   27.1360 C   0  0  2  0  0  0
  -64.4170  -40.5550   26.2300 C   0  0  0  0  0  0
  -64.7500  -39.5540   25.1240 C   0  0  0  0  0  0
  -63.5170  -39.3940   24.2370 C   0  0  0  0  0  0
  -63.5650  -38.3000   23.2550 N   0  3  0  0  0  0
  -64.2620  -38.4240   22.2450 O   0  0  0  0  0  0
  -62.8480  -37.2630   23.4310 C   0  0  0  0  0  0
  -62.8660  -36.3720   22.5970 O   0  0  0  0  0  0
  -65.2230  -42.2430   27.8900 C   0  0  0  0  0  0
  -64.7650  -43.1920   27.2730 O   0  0  0  0  0  0
  -65.4490  -42.2880   29.1990 N   0  0  0  0  0  0
  -65.5330  -43.6040   29.8320 C   0  0  2  0  0  0
  -66.9920  -43.9370   30.1750 C   0  0  0  0  0  0
  -67.4940  -43.4770   31.1920 O   0  0  0  0  0  0
  -64.6520  -43.6940   31.0620 C   0  0  0  0  0  0
  -65.0950  -42.8070   32.0570 O   0  0  0  0  0  0
  -70.6789  -34.8019   19.2292 H   0  0  0  0  0  0
  -70.3780  -36.5118   19.6901 H   0  0  0  0  0  0
  -71.9212  -35.7158   20.1501 H   0  0  0  0  0  0
  -72.5511  -35.5114   17.8464 H   0  0  0  0  0  0
  -72.7090  -37.7779   19.2865 H   0  0  0  0  0  0
  -73.3314  -37.6675   17.6051 H   0  0  0  0  0  0
  -71.9163  -39.7157   17.9063 H   0  0  0  0  0  0
  -69.3635  -37.2202   18.1317 H   0  0  0  0  0  0
  -69.0373  -36.2029   15.3039 H   0  0  0  0  0  0
  -66.9294  -36.8438   17.4430 H   0  0  0  0  0  0
  -66.5304  -36.3638   15.7587 H   0  0  0  0  0  0
  -67.9581  -34.6562   17.8806 H   0  0  0  0  0  0
  -66.3161  -34.4047   17.1970 H   0  0  0  0  0  0
  -67.1384  -33.5420   15.1999 H   0  0  0  0  0  0
  -68.7554  -34.2951   15.4118 H   0  0  0  0  0  0
  -69.2559  -32.7591   17.2661 H   0  0  0  0  0  0
  -67.6156  -32.0384   17.1371 H   0  0  0  0  0  0
  -69.3068  -30.6066   16.1389 H   0  0  0  0  0  0
  -69.7966  -31.9296   15.0270 H   0  0  0  0  0  0
  -68.1563  -31.2089   14.8978 H   0  0  0  0  0  0
  -69.7155  -38.9426   16.9422 H   0  0  0  0  0  0
  -70.0810  -41.0984   15.9076 H   0  0  0  0  0  0
  -69.1211  -40.6137   14.4688 H   0  0  0  0  0  0
  -67.3042  -39.6995   17.0053 H   0  0  0  0  0  0
  -65.4391  -41.8832   16.3508 H   0  0  0  0  0  0
  -65.3858  -39.2172   17.3963 H   0  0  0  0  0  0
  -64.9418  -40.1868   18.8418 H   0  0  0  0  0  0
  -63.3771  -41.3941   16.9614 H   0  0  0  0  0  0
  -63.4389  -39.7297   16.2888 H   0  0  0  0  0  0
  -62.1801  -40.7493   18.7919 H   0  0  0  0  0  0
  -61.5162  -39.7290   17.4710 H   0  0  0  0  0  0
  -60.6165  -39.0400   19.3764 H   0  0  0  0  0  0
  -65.3350  -43.8370   17.1578 H   0  0  0  0  0  0
  -65.4799  -45.4584   18.7260 H   0  0  0  0  0  0
  -63.9738  -43.2847   20.1727 H   0  0  0  0  0  0
  -64.4498  -44.7053   21.1638 H   0  0  0  0  0  0
  -62.2042  -45.0956   20.0549 H   0  0  0  0  0  0
  -65.4528  -44.5401   21.7860 H   0  0  0  0  0  0
  -67.0052  -44.0425   23.3811 H   0  0  0  0  0  0
  -68.9959  -46.0295   23.2529 H   0  0  0  0  0  0
  -67.6010  -46.7044   22.3444 H   0  0  0  0  0  0
  -67.3611  -47.1639   24.8299 H   0  0  0  0  0  0
  -67.6192  -42.1441   21.8016 H   0  0  0  0  0  0
  -69.3307  -40.4460   21.9646 H   0  0  0  0  0  0
  -70.5952  -41.7004   22.1974 H   0  0  0  0  0  0
  -68.6247  -42.9478   24.3751 H   0  0  0  0  0  0
  -70.0093  -41.2242   26.3573 H   0  0  0  0  0  0
  -70.3036  -43.7827   26.3528 H   0  0  0  0  0  0
  -68.5935  -43.9260   26.8835 H   0  0  0  0  0  0
  -69.7429  -42.1130   28.7046 H   0  0  0  0  0  0
  -71.0062  -43.3646   28.4513 H   0  0  0  0  0  0
  -69.4279  -43.6949   30.3980 H   0  0  0  0  0  0
  -69.6117  -45.0822   29.2718 H   0  0  0  0  0  0
  -67.3551  -44.2915   28.2055 H   0  0  0  0  0  0
  -66.6770  -41.9408   25.4302 H   0  0  0  0  0  0
  -65.7978  -40.1305   27.7536 H   0  0  0  0  0  0
  -63.6424  -40.0698   26.8421 H   0  0  0  0  0  0
  -63.9858  -41.4272   25.7169 H   0  0  0  0  0  0
  -65.5959  -39.9313   24.5306 H   0  0  0  0  0  0
  -65.0199  -38.5871   25.5737 H   0  0  0  0  0  0
  -62.6355  -39.2005   24.8659 H   0  0  0  0  0  0
  -63.3593  -40.3162   23.6584 H   0  0  0  0  0  0
  -62.2157  -37.1661   24.3258 H   0  0  0  0  0  0
  -65.5717  -41.3777   29.8043 H   0  0  0  0  0  0
  -65.1414  -44.3120   29.0868 H   0  0  0  0  0  0
  -64.6825  -44.7188   31.4606 H   0  0  0  0  0  0
  -63.6173  -43.4364   30.7916 H   0  0  0  0  0  0
  -64.5626  -42.7479   33.0178 H   0  0  0  0  0  0
  1  2  1  0  0  0
  1 72  1  0  0  0
  1 73  1  0  0  0
  1 74  1  0  0  0
  2  3  1  0  0  0
  2  5  1  0  0  0
  2 75  1  0  0  0
  3  4  2  0  0  0
  3  7  1  0  0  0
  5  6  1  0  0  0
  5 76  1  0  0  0
  5 77  1  0  0  0
  6 78  1  0  0  0
  7  8  1  0  0  0
  7 79  1  0  0  0
  8  9  1  0  0  0
  8 11  1  0  0  0
  8 80  1  0  0  0
  9 10  2  0  0  0
  9 16  1  0  0  0
 11 12  1  0  0  0
 11 81  1  0  0  0
 11 82  1  0  0  0
 12 13  1  0  0  0
 12 83  1  0  0  0
 12 84  1  0  0  0
 13 14  1  0  0  0
 13 85  1  0  0  0
 13 86  1  0  0  0
 14 15  1  0  0  0
 14 87  1  0  0  0
 14 88  1  0  0  0
 15 89  1  0  0  0
 15 90  1  0  0  0
 15 91  1  0  0  0
 16 17  1  0  0  0
 16 92  1  0  0  0
 17 18  1  0  0  0
 17 93  1  0  0  0
 17 94  1  0  0  0
 18 19  2  0  0  0
 18 20  1  0  0  0
 20 21  1  0  0  0
 20 95  1  0  0  0
 21 22  1  0  0  0
 21 29  1  0  0  0
 21 96  1  0  0  0
 22 23  1  0  0  0
 22 97  1  0  0  0
 22 98  1  0  0  0
 23 24  1  0  0  0
 23 99  1  0  0  0
 23100  1  0  0  0
 24 25  1  0  0  0
 24101  1  0  0  0
 24102  1  0  0  0
 25 26  2  0  0  0
 25 27  1  0  0  0
 27 28  2  0  0  0
 27103  1  0  0  0
 29 30  2  0  0  0
 29 31  1  0  0  0
 31 32  1  0  0  0
 31104  1  0  0  0
 32 33  1  0  0  0
 32 35  1  0  0  0
 32105  1  0  0  0
 33 34  2  0  0  0
 33 37  1  0  0  0
 35 36  1  0  0  0
 35106  1  0  0  0
 35107  1  0  0  0
 36108  1  0  0  0
 37 38  1  0  0  0
 37109  1  0  0  0
 38 39  1  0  0  0
 38 41  1  0  0  0
 38110  1  0  0  0
 39 40  2  0  0  0
 39 43  1  0  0  0
 41 42  1  0  0  0
 41111  1  0  0  0
 41112  1  0  0  0
 42113  1  0  0  0
 43 44  1  0  0  0
 43114  1  0  0  0
 44 45  1  0  0  0
 44115  1  0  0  0
 44116  1  0  0  0
 45 46  2  0  0  0
 45 47  1  0  0  0
 47 48  1  0  0  0
 47117  1  0  0  0
 48 49  1  0  0  0
 48 53  1  0  0  0
 48118  1  0  0  0
 49 50  1  0  0  0
 49119  1  0  0  0
 49120  1  0  0  0
 50 51  1  0  0  0
 50121  1  0  0  0
 50122  1  0  0  0
 51 52  1  0  0  0
 51123  1  0  0  0
 51124  1  0  0  0
 52 68  1  0  0  0
 52125  1  0  0  0
 53 54  2  0  0  0
 53 55  1  0  0  0
 55 56  1  0  0  0
 55126  1  0  0  0
 56 57  1  0  0  0
 56 64  1  0  0  0
 56127  1  0  0  0
 57 58  1  0  0  0
 57128  1  0  0  0
 57129  1  0  0  0
 58 59  1  0  0  0
 58130  1  0  0  0
 58131  1  0  0  0
 59 60  1  0  0  0
 59132  1  0  0  0
 59133  1  0  0  0
 60 61  2  0  0  0
 60 62  1  0  0  0
 62 63  2  0  0  0
 62134  1  0  0  0
 64 65  2  0  0  0
 64 66  1  0  0  0
 66 67  1  0  0  0
 66135  1  0  0  0
 67 68  1  0  0  0
 67 70  1  0  0  0
 67136  1  0  0  0
 68 69  2  0  0  0
 70 71  1  0  0  0
 70137  1  0  0  0
 70138  1  0  0  0
 71139  1  0  0  0
M  CHG  4   1   1  15   1  25   1  60   1
M  END
> <s_m_source_file>
../2w6t_ligand.sdf

> <i_m_source_file_index>
1

> <s_epik_input>
W09IXVtDSDJdW0NAQEhdKFtOSDMrXSlDKD1PKVtOSF1bQ0BASF0oW0NIMl1bQ0gyXVtDSDJdW0NIMl1bTkgzK10pQyg9TylbTkhdW0NIMl1DKD1PKVtOSF1bQ0BASF0oW0NIMl1bQ0gyXVtDSDJdW04rXSg9TylbQ0hdPU8pQyg9TylbTkhdW0NAQEhdKFtDSDJdW09IXSlDKD1PKVtOSF1bQ0BIXShbQ0gyXVtPSF0pQyg9TylbTkhdW0NIMl1DKD1PKVtOSF1bQ0BIXTFbQ0gyXVtDSDJdW0NIMl1bTkhdQyg9TylbQ0BIXShbQ0gyXVtPSF0pW05IXUMoPU8pW0NASF0oW05IXUMxPU8pW0NIMl1bQ0gyXVtDSDJdW04rXSg9TylbQ0hdPU8=

> <s_epik_cmdline>
J2VwaWtfYXBwJywgJy1pbWFlJywgJ2xpZ2FuZF9wcm8ubWFlJywgJy1vbWFlJywgJ2xpZ2FuZF9wcmVwLm1hZScsICctbXMnLCAnMScsICctcGgnLCAnNycsICctcGh0JywgJzAuNScsICctbnQn

> <r_epik_Ionization_Penalty>
  0.1503

> <r_epik_Ionization_Penalty_Charging>
  0.1503

> <r_epik_Ionization_Penalty_Neutral>
  0.0000

> <r_epik_State_Penalty>
  0.1391

> <r_epik_Charging_Adjusted_Penalty>
0.289435742797791

> <i_epik_Tot_Q>
4

> <i_epik_Tot_abs_Q>
4

$$$$
