2w6u_ligand
                    3D
 Schrodinger Suite 2020-3.
109109  0  0  1  0            999 V2000
  -69.6480  -36.6590   20.0390 N   0  3  0  0  0  0
  -70.0210  -37.9770   19.4540 C   0  0  1  0  0  0
  -68.8470  -38.8820   19.8100 C   0  0  0  0  0  0
  -67.7490  -38.6880   19.2720 O   0  0  0  0  0  0
  -71.3860  -38.4440   20.0130 C   0  0  0  0  0  0
  -71.3860  -39.7860   20.4650 O   0  0  0  0  0  0
  -69.0700  -39.8790   20.6660 N   0  0  0  0  0  0
  -68.0280  -40.3700   21.5830 C   0  0  2  0  0  0
  -66.7050  -41.1060   21.1510 C   0  0  0  0  0  0
  -65.8230  -41.2440   22.0020 O   0  0  0  0  0  0
  -68.6860  -41.0870   22.7720 C   0  0  0  0  0  0
  -65.0300  -43.6140   20.2410 C   0  0  0  0  0  0
  -65.2610  -42.2980   19.5030 C   0  0  2  0  0  0
  -63.9550  -41.4740   19.6500 C   0  0  0  0  0  0
  -63.6160  -40.6550   18.4120 C   0  0  0  0  0  0
  -62.4170  -39.7180   18.5650 C   0  0  0  0  0  0
  -61.5300  -38.3770   20.3950 C   0  0  0  0  0  0
  -60.2320  -39.0380   20.0130 C   0  0  0  0  0  0
  -66.5260  -41.5610   19.9020 N   0  0  0  0  0  0
  -62.5860  -38.7460   19.6540 N   0  3  0  0  0  0
  -64.2210  -43.6670   21.1950 O   0  0  0  0  0  0
  -63.6890  -38.2430   19.8690 O   0  0  0  0  0  0
  -61.5330  -37.5740   21.3160 O   0  0  0  0  0  0
  -65.7070  -44.6870   19.8070 N   0  0  0  0  0  0
  -65.8910  -45.8940   20.6730 C   0  0  1  0  0  0
  -64.5760  -46.6130   21.0670 C   0  0  0  0  0  0
  -64.7770  -47.9430   21.8200 C   0  0  0  0  0  0
  -63.6820  -48.3520   22.8460 C   0  0  0  0  0  0
  -63.9610  -47.9140   24.2340 N   0  0  0  0  0  0
  -66.6130  -45.4520   21.9360 C   0  0  0  0  0  0
  -67.2780  -44.3960   21.9430 O   0  0  0  0  0  0
  -66.4870  -46.2490   22.9950 N   0  0  0  0  0  0
  -67.0800  -45.8930   24.2920 C   0  0  1  0  0  0
  -66.7150  -44.4830   24.7890 C   0  0  0  0  0  0
  -67.5530  -43.7000   25.2670 O   0  0  0  0  0  0
  -68.5710  -46.3390   24.4970 C   0  0  0  0  0  0
  -69.5440  -45.6970   23.5030 C   0  0  0  0  0  0
  -69.5590  -44.4410   23.4790 O   0  0  0  0  0  0
  -70.2910  -46.4310   22.7820 O   0  5  0  0  0  0
  -64.5710  -44.8770   26.4980 C   0  0  0  0  0  0
  -64.4920  -43.6800   25.5530 C   0  0  2  0  0  0
  -64.6900  -42.2500   26.0890 C   0  0  0  0  0  0
  -64.7120  -41.2020   24.9690 C   0  0  0  0  0  0
  -63.3450  -40.6380   24.6030 C   0  0  0  0  0  0
  -62.9750  -38.2080   24.3480 C   0  0  0  0  0  0
  -62.3840  -38.3090   25.7260 C   0  0  0  0  0  0
  -65.4370  -44.1720   24.5310 N   0  0  0  0  0  0
  -63.4340  -39.3500   23.8870 N   0  3  0  0  0  0
  -64.8450  -44.7600   27.7020 O   0  0  0  0  0  0
  -63.9050  -39.2340   22.7640 O   0  0  0  0  0  0
  -63.0620  -37.1600   23.6960 O   0  0  0  0  0  0
  -64.3090  -46.0440   25.8840 N   0  0  0  0  0  0
  -64.7840  -47.3940   26.2860 C   0  0  2  0  0  0
  -64.9280  -48.2860   25.0050 C   0  0  0  0  0  0
  -66.0490  -48.5620   24.5350 O   0  0  0  0  0  0
  -66.1090  -47.3070   27.1040 C   0  0  0  0  0  0
  -66.8220  -48.5300   27.1110 O   0  0  0  0  0  0
  -68.6767  -36.3395   19.6333 H   0  0  0  0  0  0
  -69.5763  -36.7504   21.1328 H   0  0  0  0  0  0
  -70.4155  -35.9138   19.7828 H   0  0  0  0  0  0
  -70.1534  -37.9377   18.3627 H   0  0  0  0  0  0
  -71.6687  -37.8106   20.8667 H   0  0  0  0  0  0
  -72.1513  -38.3629   19.2270 H   0  0  0  0  0  0
  -72.3036  -40.2255   20.8831 H   0  0  0  0  0  0
  -70.0699  -40.3374   20.6736 H   0  0  0  0  0  0
  -67.6314  -39.3579   21.7513 H   0  0  0  0  0  0
  -69.6067  -40.5565   23.0562 H   0  0  0  0  0  0
  -67.9908  -41.0972   23.6244 H   0  0  0  0  0  0
  -68.9315  -42.1206   22.4866 H   0  0  0  0  0  0
  -65.4851  -42.4998   18.4452 H   0  0  0  0  0  0
  -64.0560  -40.7739   20.4924 H   0  0  0  0  0  0
  -63.1113  -42.1544   19.8379 H   0  0  0  0  0  0
  -63.3821  -41.3321   17.5772 H   0  0  0  0  0  0
  -64.4761  -40.0244   18.1427 H   0  0  0  0  0  0
  -61.5148  -40.3092   18.7808 H   0  0  0  0  0  0
  -62.2712  -39.1538   17.6321 H   0  0  0  0  0  0
  -60.4045  -39.7264   19.1726 H   0  0  0  0  0  0
  -59.8399  -39.6005   20.8732 H   0  0  0  0  0  0
  -59.5034  -38.2699   19.7142 H   0  0  0  0  0  0
  -67.3201  -41.3901   19.1603 H   0  0  0  0  0  0
  -66.1312  -44.6683   18.7923 H   0  0  0  0  0  0
  -66.4816  -46.6009   20.0718 H   0  0  0  0  0  0
  -63.9977  -46.8427   20.1599 H   0  0  0  0  0  0
  -63.9833  -45.9594   21.7239 H   0  0  0  0  0  0
  -65.7152  -47.9019   22.3928 H   0  0  0  0  0  0
  -64.8250  -48.7703   21.0966 H   0  0  0  0  0  0
  -63.5880  -49.4478   22.8647 H   0  0  0  0  0  0
  -62.7200  -47.9064   22.5528 H   0  0  0  0  0  0
  -63.2999  -47.1839   24.7237 H   0  0  0  0  0  0
  -65.9265  -47.1892   22.8860 H   0  0  0  0  0  0
  -66.4960  -46.5592   24.9440 H   0  0  0  0  0  0
  -68.6476  -47.4295   24.3746 H   0  0  0  0  0  0
  -68.9017  -46.0594   25.5082 H   0  0  0  0  0  0
  -63.4819  -43.4659   25.1736 H   0  0  0  0  0  0
  -65.6467  -42.1899   26.6285 H   0  0  0  0  0  0
  -63.8666  -41.9976   26.7734 H   0  0  0  0  0  0
  -65.1274  -41.6511   24.0548 H   0  0  0  0  0  0
  -65.3371  -40.3504   25.2759 H   0  0  0  0  0  0
  -62.7585  -40.4747   25.5192 H   0  0  0  0  0  0
  -62.8170  -41.3500   23.9517 H   0  0  0  0  0  0
  -62.4325  -39.3526   26.0702 H   0  0  0  0  0  0
  -62.9522  -37.6684   26.4165 H   0  0  0  0  0  0
  -61.3347  -37.9799   25.6999 H   0  0  0  0  0  0
  -65.1039  -44.3012   23.4906 H   0  0  0  0  0  0
  -63.6708  -45.9275   24.9957 H   0  0  0  0  0  0
  -64.0172  -47.8144   26.9533 H   0  0  0  0  0  0
  -65.8794  -47.0425   28.1467 H   0  0  0  0  0  0
  -66.7608  -46.5371   26.6654 H   0  0  0  0  0  0
  -67.7764  -48.6072   27.6525 H   0  0  0  0  0  0
  1  2  1  0  0  0
  1 58  1  0  0  0
  1 59  1  0  0  0
  1 60  1  0  0  0
  2  3  1  0  0  0
  2  5  1  0  0  0
  2 61  1  0  0  0
  3  4  2  0  0  0
  3  7  1  0  0  0
  5  6  1  0  0  0
  5 62  1  0  0  0
  5 63  1  0  0  0
  6 64  1  0  0  0
  7  8  1  0  0  0
  7 65  1  0  0  0
  8  9  1  0  0  0
  8 11  1  0  0  0
  8 66  1  0  0  0
  9 10  2  0  0  0
  9 19  1  0  0  0
 11 67  1  0  0  0
 11 68  1  0  0  0
 11 69  1  0  0  0
 12 13  1  0  0  0
 12 21  2  0  0  0
 12 24  1  0  0  0
 13 14  1  0  0  0
 13 19  1  0  0  0
 13 70  1  0  0  0
 14 15  1  0  0  0
 14 71  1  0  0  0
 14 72  1  0  0  0
 15 16  1  0  0  0
 15 73  1  0  0  0
 15 74  1  0  0  0
 16 20  1  0  0  0
 16 75  1  0  0  0
 16 76  1  0  0  0
 17 18  1  0  0  0
 17 20  1  0  0  0
 17 23  2  0  0  0
 18 77  1  0  0  0
 18 78  1  0  0  0
 18 79  1  0  0  0
 19 80  1  0  0  0
 20 22  2  0  0  0
 24 25  1  0  0  0
 24 81  1  0  0  0
 25 26  1  0  0  0
 25 30  1  0  0  0
 25 82  1  0  0  0
 26 27  1  0  0  0
 26 83  1  0  0  0
 26 84  1  0  0  0
 27 28  1  0  0  0
 27 85  1  0  0  0
 27 86  1  0  0  0
 28 29  1  0  0  0
 28 87  1  0  0  0
 28 88  1  0  0  0
 29 54  1  0  0  0
 29 89  1  0  0  0
 30 31  2  0  0  0
 30 32  1  0  0  0
 32 33  1  0  0  0
 32 90  1  0  0  0
 33 34  1  0  0  0
 33 36  1  0  0  0
 33 91  1  0  0  0
 34 35  2  0  0  0
 34 47  1  0  0  0
 36 37  1  0  0  0
 36 92  1  0  0  0
 36 93  1  0  0  0
 37 38  2  0  0  0
 37 39  1  0  0  0
 40 41  1  0  0  0
 40 49  2  0  0  0
 40 52  1  0  0  0
 41 42  1  0  0  0
 41 47  1  0  0  0
 41 94  1  0  0  0
 42 43  1  0  0  0
 42 95  1  0  0  0
 42 96  1  0  0  0
 43 44  1  0  0  0
 43 97  1  0  0  0
 43 98  1  0  0  0
 44 48  1  0  0  0
 44 99  1  0  0  0
 44100  1  0  0  0
 45 46  1  0  0  0
 45 48  1  0  0  0
 45 51  2  0  0  0
 46101  1  0  0  0
 46102  1  0  0  0
 46103  1  0  0  0
 47104  1  0  0  0
 48 50  2  0  0  0
 52 53  1  0  0  0
 52105  1  0  0  0
 53 54  1  0  0  0
 53 56  1  0  0  0
 53106  1  0  0  0
 54 55  2  0  0  0
 56 57  1  0  0  0
 56107  1  0  0  0
 56108  1  0  0  0
 57109  1  0  0  0
M  CHG  4   1   1  20   1  39  -1  48   1
M  END
> <s_m_source_file>
../2w6u_ligand.sdf

> <i_m_source_file_index>
1

> <s_epik_input>
W09IXVtDSDJdW0NAQEhdKFtOSDMrXSlDKD1PKVtOSF1bQ0BASF0oW0NIM10pQyg9TylbTkhdW0NAQEhdKFtDSDJdW0NIMl1bQ0gyXVtOK10oPU8pQyg9TylbQ0gzXSlDKD1PKVtOSF1bQ0BIXTFbQ0gyXVtDSDJdW0NIMl1bTkhdQyg9TylbQ0BIXShbQ0gyXVtPSF0pW05IXUMoPU8pW0NASF0oW0NIMl1bQ0gyXVtDSDJdW04rXSg9TylDKD1PKVtDSDNdKVtOSF1DKD1PKVtDQEhdKFtOSF1DMT1PKVtDSDJdQyg9TylbT0hd

> <s_epik_cmdline>
J2VwaWtfYXBwJywgJy1pbWFlJywgJ2xpZ2FuZF9wcm8ubWFlJywgJy1vbWFlJywgJ2xpZ2FuZF9wcmVwLm1hZScsICctbXMnLCAnMScsICctcGgnLCAnNycsICctcGh0JywgJzAuNScsICctbnQn

> <r_epik_Ionization_Penalty>
  0.1538

> <r_epik_Ionization_Penalty_Charging>
  0.1538

> <r_epik_Ionization_Penalty_Neutral>
  0.0000

> <r_epik_State_Penalty>
  0.1395

> <r_epik_Charging_Adjusted_Penalty>
0.293290919266552

> <i_epik_Tot_Q>
2

> <i_epik_Tot_abs_Q>
4

$$$$
