2w6z_ligand
                    3D
 Schrodinger Suite 2020-3.
 29 30  0  0  1  0            999 V2000
    1.3260  -20.4300   21.5610 C   0  0  0  0  0  0
    1.6000  -20.6690   23.0180 C   0  0  0  0  0  0
    2.2600  -21.7840   23.3840 C   0  0  0  0  0  0
    1.1190  -19.6250   23.9820 C   0  0  0  0  0  0
    2.1580  -27.7970   24.6540 N   0  3  0  0  0  0
    2.2830  -26.4590   24.6930 C   0  0  0  0  0  0
    3.4650  -25.8200   24.0800 C   0  0  0  0  0  0
    4.5840  -26.1890   23.4250 N   0  0  0  0  0  0
    3.5080  -24.3710   24.1810 C   0  0  0  0  0  0
    4.6360  -23.9560   23.5860 N   0  0  0  0  0  0
    5.2850  -25.0630   23.1320 C   0  0  0  0  0  0
    2.6240  -22.2020   24.8070 C   0  0  0  0  0  0
    2.5440  -23.6630   24.7890 N   0  0  0  0  0  0
    1.4800  -24.3070   25.3160 C   0  0  0  0  0  0
    1.3510  -25.6530   25.2790 N   0  0  0  0  0  0
    1.7288  -21.2659   20.9702 H   0  0  0  0  0  0
    1.8080  -19.4927   21.2462 H   0  0  0  0  0  0
    0.2404  -20.3563   21.3993 H   0  0  0  0  0  0
    2.5940  -22.5013   22.6198 H   0  0  0  0  0  0
    0.6125  -18.8205   23.4286 H   0  0  0  0  0  0
    1.9771  -19.2090   24.5302 H   0  0  0  0  0  0
    0.4147  -20.0800   24.6940 H   0  0  0  0  0  0
    2.9345  -28.4081   24.1707 H   0  0  0  0  0  0
    6.2387  -25.0479   22.6044 H   0  0  0  0  0  0
    3.6383  -21.8488   25.0448 H   0  0  0  0  0  0
    1.9066  -21.7598   25.5139 H   0  0  0  0  0  0
    0.6942  -23.7187   25.7899 H   0  0  0  0  0  0
    1.2792  -28.2807   25.1054 H   0  0  0  0  0  0
    4.8724  -22.8826   23.5432 H   0  0  0  0  0  0
  1  2  1  0  0  0
  1 16  1  0  0  0
  1 17  1  0  0  0
  1 18  1  0  0  0
  2  3  2  0  0  0
  2  4  1  0  0  0
  3 12  1  0  0  0
  3 19  1  0  0  0
  4 20  1  0  0  0
  4 21  1  0  0  0
  4 22  1  0  0  0
  5  6  2  0  0  0
  5 23  1  0  0  0
  5 28  1  0  0  0
  6  7  1  0  0  0
  6 15  1  0  0  0
  7  8  1  0  0  0
  7  9  2  0  0  0
  8 11  2  0  0  0
  9 10  1  0  0  0
  9 13  1  0  0  0
 10 11  1  0  0  0
 10 29  1  0  0  0
 11 24  1  0  0  0
 12 13  1  0  0  0
 12 25  1  0  0  0
 12 26  1  0  0  0
 13 14  1  0  0  0
 14 15  2  0  0  0
 14 27  1  0  0  0
M  CHG  1   5   1
M  END
> <s_m_source_file>
../2w6z_ligand.sdf

> <i_m_source_file_index>
1

> <s_epik_input>
W0NIM11DKFtDSDNdKT1bQ0hdW0NIMl1uKGMoYzEyKW5bY0hdbjIpW2NIXW5jMVtOSDJd

> <s_epik_cmdline>
J2VwaWtfYXBwJywgJy1pbWFlJywgJ2xpZ2FuZF9wcm8ubWFlJywgJy1vbWFlJywgJ2xpZ2FuZF9wcmVwLm1hZScsICctbXMnLCAnMScsICctcGgnLCAnNycsICctcGh0JywgJzAuNScsICctbnQn

> <r_epik_Ionization_Penalty>
  0.1326

> <r_epik_Ionization_Penalty_Charging>
  0.0013

> <r_epik_Ionization_Penalty_Neutral>
  0.1312

> <r_epik_State_Penalty>
  0.2234

> <r_epik_Charging_Adjusted_Penalty>
0.224777364109252

> <i_epik_Tot_Q>
1

> <i_epik_Tot_abs_Q>
1

> <s_epik_Chemistry_Notes>
This compound has an imine and may undergo hydrolysis.

$$$$
