2w73_ligand
                    3D
 Schrodinger Suite 2020-3.
295295  0  0  1  0            999 V2000
   -4.2550  -22.1130   26.5560 N   0  3  0  0  0  0
   -4.6970  -20.7760   26.2480 C   0  0  2  0  0  0
   -4.5810  -20.0070   27.5200 C   0  0  0  0  0  0
   -4.8570  -18.8150   27.5880 O   0  0  0  0  0  0
   -6.1500  -20.7130   25.7500 C   0  0  0  0  0  0
   -6.3850  -21.7760   24.6760 C   0  0  0  0  0  0
   -7.1470  -20.8450   26.9110 C   0  0  0  0  0  0
   -4.1610  -20.7500   28.5290 N   0  0  0  0  0  0
   -3.9470  -20.1760   29.8780 C   0  0  2  0  0  0
   -2.9720  -19.0280   29.7890 C   0  0  0  0  0  0
   -3.1790  -17.9780   30.4160 O   0  0  0  0  0  0
   -3.4600  -21.1820   30.9330 C   0  0  2  0  0  0
   -3.5420  -20.5310   32.3150 C   0  0  0  0  0  0
   -2.0700  -21.7180   30.6070 C   0  0  0  0  0  0
   -4.9740  -20.1410   32.6880 C   0  0  0  0  0  0
   -1.9200  -19.2140   29.0110 N   0  0  0  0  0  0
   -0.8800  -18.2080   28.9190 C   0  0  2  0  0  0
   -1.4170  -16.9450   28.2530 C   0  0  0  0  0  0
   -1.0050  -15.8510   28.5760 O   0  0  0  0  0  0
    0.3710  -18.6700   28.3050 C   0  0  0  0  0  0
    1.0270  -19.6660   29.2720 C   0  0  0  0  0  0
    2.4300  -19.8330   28.9190 C   0  0  0  0  0  0
    2.5370  -20.5550   27.6690 N   0  0  0  0  0  0
    3.6750  -20.7950   27.0400 C   0  0  0  0  0  0
    3.6560  -21.4720   25.8970 N   0  0  0  0  0  0
    4.8280  -20.3630   27.5460 N   0  0  0  0  0  0
   -2.3290  -17.0960   27.3260 N   0  0  0  0  0  0
   -2.9390  -15.9090   26.6410 C   0  0  2  0  0  0
   -3.7270  -15.0630   27.6070 C   0  0  0  0  0  0
   -3.7400  -13.8130   27.5660 O   0  0  0  0  0  0
   -3.8450  -16.3810   25.4900 C   0  0  0  0  0  0
   -3.0640  -16.8030   24.2520 C   0  0  0  0  0  0
   -1.8930  -16.4750   24.1080 O   0  0  0  0  0  0
   -3.7120  -17.5310   23.3560 N   0  0  0  0  0  0
   -4.4220  -15.7570   28.4730 N   0  0  0  0  0  0
   -5.1980  -15.1500   29.5560 C   0  0  2  0  0  0
   -4.3070  -14.4360   30.5510 C   0  0  0  0  0  0
   -4.5990  -13.3100   30.9790 O   0  0  0  0  0  0
   -6.0790  -16.1250   30.2690 C   0  0  0  0  0  0
   -7.0170  -15.5080   31.2270 C   0  0  0  0  0  0
   -8.3420  -16.2510   31.2580 C   0  0  0  0  0  0
   -9.1950  -15.8270   32.4570 C   0  0  0  0  0  0
  -10.6070  -16.2820   32.3920 N   0  3  0  0  0  0
   -3.2050  -15.0230   30.9310 N   0  0  0  0  0  0
   -2.2480  -14.4250   31.8360 C   0  0  2  0  0  0
   -1.6720  -13.1420   31.2450 C   0  0  0  0  0  0
   -1.5270  -12.0970   31.9480 O   0  0  0  0  0  0
   -1.1220  -15.3860   32.2510 C   0  0  2  0  0  0
   -1.7580  -16.4760   33.1120 C   0  0  0  0  0  0
   -0.0420  -14.7110   33.0630 C   0  0  0  0  0  0
   -0.7710  -17.5720   33.5330 C   0  0  0  0  0  0
   -1.3510  -13.1720   29.9830 N   0  0  0  0  0  0
   -0.8530  -11.9920   29.2550 C   0  0  2  0  0  0
   -1.8970  -10.8870   29.2680 C   0  0  0  0  0  0
   -1.5600   -9.6950   29.4580 O   0  0  0  0  0  0
   -0.4260  -12.3150   27.8320 C   0  0  0  0  0  0
    0.9030  -13.0830   27.7670 C   0  0  0  0  0  0
    1.6590  -12.9750   26.4420 C   0  0  0  0  0  0
    2.9120  -13.7310   26.5120 N   0  0  0  0  0  0
    4.0880  -13.2220   26.8700 C   0  0  0  0  0  0
    5.1460  -14.0010   26.9040 N   0  0  0  0  0  0
    4.2060  -11.9320   27.1940 N   0  0  0  0  0  0
   -3.1460  -11.2630   29.0590 N   0  0  0  0  0  0
   -4.2740  -10.2820   29.0990 C   0  0  2  0  0  0
   -4.3940   -9.6750   30.4570 C   0  0  0  0  0  0
   -4.6440   -8.4140   30.6380 O   0  0  0  0  0  0
   -5.6070  -10.8930   28.6260 C   0  0  0  0  0  0
   -4.2140  -10.4170   31.4810 N   0  0  0  0  0  0
   -4.3090   -9.9780   32.8370 C   0  0  2  0  0  0
   -3.2430   -8.9310   33.0690 C   0  0  0  0  0  0
   -3.4870   -7.8540   33.6730 O   0  0  0  0  0  0
   -4.1380  -11.2090   33.8560 C   0  0  2  0  0  0
   -5.4140  -12.0290   33.8280 C   0  0  0  0  0  0
   -3.7550  -10.7120   35.2320 C   0  0  0  0  0  0
   -5.2980  -13.4170   34.5010 C   0  0  0  0  0  0
   -2.0460   -9.2240   32.6220 N   0  0  0  0  0  0
   -0.9050   -8.3300   32.7640 C   0  0  0  0  0  0
   -1.1430   -7.0140   32.0110 C   0  0  0  0  0  0
   -0.7900   -5.9570   32.5320 O   0  0  0  0  0  0
   -1.6870   -7.1380   30.8500 N   0  0  0  0  0  0
   -1.9990   -5.9290   29.9900 C   0  0  2  0  0  0
   -3.0040   -5.0710   30.6970 C   0  0  0  0  0  0
   -2.8500   -3.8130   30.7650 O   0  0  0  0  0  0
   -2.5500   -6.3660   28.6750 C   0  0  0  0  0  0
   -1.5670   -7.0010   27.8060 C   0  0  0  0  0  0
   -2.2320   -7.4410   26.5110 C   0  0  0  0  0  0
   -1.3860   -8.4270   25.7960 C   0  0  0  0  0  0
   -0.5130   -7.7360   24.8200 N   0  3  0  0  0  0
   -4.0220   -5.6620   31.2310 N   0  0  0  0  0  0
   -5.0950   -4.9250   31.9230 C   0  0  2  0  0  0
   -4.5740   -4.3120   33.1850 C   0  0  0  0  0  0
   -4.9610   -3.1770   33.5900 O   0  0  0  0  0  0
   -6.3300   -5.7760   32.2290 C   0  0  0  0  0  0
   -7.0610   -6.2590   31.0130 C   0  0  0  0  0  0
   -7.6130   -4.9450   29.9020 S   0  0  0  0  0  0
   -6.3860   -4.8380   28.6450 C   0  0  0  0  0  0
   -3.6880   -5.0070   33.8880 N   0  0  0  0  0  0
   -3.1290   -4.4890   35.1110 C   0  0  2  0  0  0
   -2.3960   -3.1590   34.8150 C   0  0  0  0  0  0
   -2.4440   -2.2060   35.5670 O   0  0  0  0  0  0
   -2.1990   -5.4990   35.8480 C   0  0  0  0  0  0
   -1.7230   -3.1560   33.6890 N   0  0  0  0  0  0
   -0.8880   -2.0230   33.2830 C   0  0  2  0  0  0
   -1.7880   -0.8100   33.0260 C   0  0  0  0  0  0
   -1.5070    0.2850   33.4770 O   0  0  0  0  0  0
   -0.0030   -2.3340   32.0630 C   0  0  0  0  0  0
    0.8420   -1.1440   31.6250 C   0  0  0  0  0  0
    1.6930   -1.4790   30.4210 C   0  0  0  0  0  0
    1.8090   -0.2950   29.5830 N   0  0  0  0  0  0
    2.5550    0.7620   29.8870 C   0  0  0  0  0  0
    2.5890    1.7890   29.0600 N   0  0  0  0  0  0
    3.2670    0.7930   31.0090 N   0  0  0  0  0  0
   -2.8790   -1.0290   32.3180 N   0  0  0  0  0  0
   -3.7200    0.0870   31.8530 C   0  0  2  0  0  0
   -4.7440    0.5430   32.8440 C   0  0  0  0  0  0
   -5.1800    1.7320   32.8080 O   0  0  0  0  0  0
   -4.2890   -0.1670   30.5220 C   0  0  0  0  0  0
   -3.2210   -0.4690   29.4970 C   0  0  0  0  0  0
   -5.3100   -1.1160   30.5700 C   0  0  0  0  0  0
   -5.1430   -0.3270   33.7460 N   0  0  0  0  0  0
   -6.0180    0.0910   34.8900 C   0  0  2  0  0  0
   -5.3340    0.4860   36.1550 C   0  0  0  0  0  0
   -5.8280    1.3190   36.9120 O   0  0  0  0  0  0
   -7.0260   -0.9470   35.3070 C   0  0  0  0  0  0
   -8.1730   -1.0060   34.4300 C   0  0  0  0  0  0
   -9.2550   -0.1360   34.5780 C   0  0  0  0  0  0
   -8.1840   -1.8940   33.4210 C   0  0  0  0  0  0
  -10.3290   -0.2080   33.7290 C   0  0  0  0  0  0
   -9.2100   -1.9750   32.5900 C   0  0  0  0  0  0
  -10.3190   -1.1310   32.7110 C   0  0  0  0  0  0
   -4.2000   -0.0980   36.4000 N   0  0  0  0  0  0
   -3.5370    0.1010   37.6940 C   0  0  2  0  0  0
   -2.0510    0.4310   37.5630 C   0  0  0  0  0  0
   -1.5560    0.6640   36.4610 O   0  0  0  0  0  0
   -3.7570   -1.1350   38.5750 C   0  0  0  0  0  0
   -3.2060   -2.2870   37.9660 O   0  0  0  0  0  0
   -1.2930    0.4850   38.5420 O   0  0  0  0  0  0
   -4.3164  -22.7368   25.6521 H   0  0  0  0  0  0
   -4.8972  -22.5399   27.3405 H   0  0  0  0  0  0
   -3.2141  -22.0825   26.9105 H   0  0  0  0  0  0
   -4.0373  -20.4037   25.4504 H   0  0  0  0  0  0
   -6.3230  -19.7280   25.2919 H   0  0  0  0  0  0
   -5.6526  -21.6465   23.8655 H   0  0  0  0  0  0
   -7.4023  -21.6697   24.2713 H   0  0  0  0  0  0
   -6.2691  -22.7763   25.1186 H   0  0  0  0  0  0
   -6.9441  -20.0645   27.6591 H   0  0  0  0  0  0
   -7.0388  -21.8358   27.3763 H   0  0  0  0  0  0
   -8.1720  -20.7292   26.5290 H   0  0  0  0  0  0
   -3.9697  -21.8182   28.3491 H   0  0  0  0  0  0
   -4.9453  -19.8304   30.1844 H   0  0  0  0  0  0
   -4.1100  -22.0694   30.9322 H   0  0  0  0  0  0
   -3.1715  -21.2351   33.0745 H   0  0  0  0  0  0
   -2.9259  -19.6198   32.3282 H   0  0  0  0  0  0
   -2.0776  -22.1714   29.6048 H   0  0  0  0  0  0
   -1.7860  -22.4771   31.3507 H   0  0  0  0  0  0
   -1.3438  -20.8921   30.6303 H   0  0  0  0  0  0
   -4.9800  -19.6789   33.6862 H   0  0  0  0  0  0
   -5.6084  -21.0396   32.6961 H   0  0  0  0  0  0
   -5.3629  -19.4242   31.9498 H   0  0  0  0  0  0
   -1.8384  -20.1442   28.4295 H   0  0  0  0  0  0
   -0.5929  -18.0274   29.9654 H   0  0  0  0  0  0
    0.1495  -19.1590   27.3449 H   0  0  0  0  0  0
    1.0350  -17.8099   28.1338 H   0  0  0  0  0  0
    0.9507  -19.2830   30.3004 H   0  0  0  0  0  0
    0.5135  -20.6364   29.2031 H   0  0  0  0  0  0
    2.9009  -18.8448   28.8103 H   0  0  0  0  0  0
    2.9427  -20.3983   29.7112 H   0  0  0  0  0  0
    1.6322  -20.9451   27.1800 H   0  0  0  0  0  0
    2.7003  -21.8265   25.4836 H   0  0  0  0  0  0
    4.8377  -19.8030   28.4927 H   0  0  0  0  0  0
    5.7711  -20.5661   27.0174 H   0  0  0  0  0  0
   -2.6468  -18.1127   27.0516 H   0  0  0  0  0  0
   -2.1134  -15.2898   26.2602 H   0  0  0  0  0  0
   -4.4383  -17.2459   25.8215 H   0  0  0  0  0  0
   -4.5204  -15.5640   25.1963 H   0  0  0  0  0  0
   -4.7642  -17.8033   23.5255 H   0  0  0  0  0  0
   -3.1982  -17.8636   22.4420 H   0  0  0  0  0  0
   -4.4031  -16.8506   28.3560 H   0  0  0  0  0  0
   -5.8494  -14.4307   29.0380 H   0  0  0  0  0  0
   -6.6850  -16.6764   29.5350 H   0  0  0  0  0  0
   -5.4578  -16.8329   30.8374 H   0  0  0  0  0  0
   -6.5789  -15.5312   32.2357 H   0  0  0  0  0  0
   -7.2073  -14.4650   30.9339 H   0  0  0  0  0  0
   -8.9044  -16.0363   30.3373 H   0  0  0  0  0  0
   -8.1544  -17.3325   31.3293 H   0  0  0  0  0  0
   -8.7642  -16.2440   33.3792 H   0  0  0  0  0  0
   -9.2129  -14.7292   32.5244 H   0  0  0  0  0  0
  -11.1452  -15.9363   33.2869 H   0  0  0  0  0  0
  -10.6365  -17.3807   32.3479 H   0  0  0  0  0  0
  -11.0853  -15.8660   31.4930 H   0  0  0  0  0  0
   -3.0224  -16.0280   30.5228 H   0  0  0  0  0  0
   -2.8589  -14.1987   32.7224 H   0  0  0  0  0  0
   -0.6322  -15.7781   31.3475 H   0  0  0  0  0  0
   -2.1650  -16.0272   34.0301 H   0  0  0  0  0  0
   -2.5698  -16.9604   32.5497 H   0  0  0  0  0  0
    0.4300  -13.9209   32.4605 H   0  0  0  0  0  0
    0.7163  -15.4531   33.3534 H   0  0  0  0  0  0
   -0.4858  -14.2674   33.9665 H   0  0  0  0  0  0
   -1.2937  -18.3199   34.1474 H   0  0  0  0  0  0
    0.0467  -17.1244   34.1170 H   0  0  0  0  0  0
   -0.3581  -18.0577   32.6365 H   0  0  0  0  0  0
   -1.4658  -14.1329   29.4600 H   0  0  0  0  0  0
    0.0447  -11.6716   29.8041 H   0  0  0  0  0  0
   -1.1958  -12.9357   27.3502 H   0  0  0  0  0  0
   -0.3011  -11.3804   27.2655 H   0  0  0  0  0  0
    1.5830  -12.7055   28.5449 H   0  0  0  0  0  0
    0.7159  -14.1543   27.9320 H   0  0  0  0  0  0
    1.0374  -13.3822   25.6310 H   0  0  0  0  0  0
    1.8865  -11.9190   26.2347 H   0  0  0  0  0  0
    2.9236  -14.8011   26.2576 H   0  0  0  0  0  0
    5.0547  -15.0645   26.6381 H   0  0  0  0  0  0
    3.3239  -11.2753   27.1673 H   0  0  0  0  0  0
    5.1853  -11.5260   27.4876 H   0  0  0  0  0  0
   -3.3473  -12.3244   28.8520 H   0  0  0  0  0  0
   -4.0068   -9.4721   28.4042 H   0  0  0  0  0  0
   -5.4758  -11.3283   27.6244 H   0  0  0  0  0  0
   -6.3767  -10.1081   28.5868 H   0  0  0  0  0  0
   -5.9201  -11.6788   29.3292 H   0  0  0  0  0  0
   -3.9693  -11.4661   31.2584 H   0  0  0  0  0  0
   -5.3029   -9.5131   32.9153 H   0  0  0  0  0  0
   -3.3235  -11.9041   33.6041 H   0  0  0  0  0  0
   -6.2118  -11.4838   34.3537 H   0  0  0  0  0  0
   -5.7151  -12.2032   32.7845 H   0  0  0  0  0  0
   -2.8241  -10.1297   35.1655 H   0  0  0  0  0  0
   -3.6034  -11.5705   35.9029 H   0  0  0  0  0  0
   -4.5589  -10.0743   35.6284 H   0  0  0  0  0  0
   -6.2641  -13.9387   34.4343 H   0  0  0  0  0  0
   -5.0221  -13.2899   35.5582 H   0  0  0  0  0  0
   -4.5253  -14.0093   33.9890 H   0  0  0  0  0  0
   -1.9245  -10.1955   32.1206 H   0  0  0  0  0  0
   -0.7464   -8.1043   33.8288 H   0  0  0  0  0  0
   -0.0064   -8.8143   32.3541 H   0  0  0  0  0  0
   -1.9255   -8.1482   30.4859 H   0  0  0  0  0  0
   -1.0831   -5.3488   29.8045 H   0  0  0  0  0  0
   -3.3581   -7.0939   28.8397 H   0  0  0  0  0  0
   -2.9468   -5.4934   28.1355 H   0  0  0  0  0  0
   -0.7633   -6.2856   27.5773 H   0  0  0  0  0  0
   -1.1422   -7.8797   28.3135 H   0  0  0  0  0  0
   -3.2039   -7.9040   26.7368 H   0  0  0  0  0  0
   -2.3846   -6.5664   25.8616 H   0  0  0  0  0  0
   -0.7597   -8.9670   26.5213 H   0  0  0  0  0  0
   -2.0285   -9.1426   25.2620 H   0  0  0  0  0  0
    0.1093   -8.4765   24.2962 H   0  0  0  0  0  0
    0.1346   -7.0213   25.3490 H   0  0  0  0  0  0
   -1.1343   -7.1969   24.0897 H   0  0  0  0  0  0
   -4.0689   -6.7583   31.1541 H   0  0  0  0  0  0
   -5.3856   -4.1358   31.2139 H   0  0  0  0  0  0
   -6.0291   -6.6671   32.7994 H   0  0  0  0  0  0
   -7.0445   -5.1856   32.8213 H   0  0  0  0  0  0
   -6.4033   -6.9185   30.4277 H   0  0  0  0  0  0
   -7.9581   -6.8159   31.3215 H   0  0  0  0  0  0
   -6.6625   -4.0501   27.9289 H   0  0  0  0  0  0
   -6.3140   -5.8019   28.1200 H   0  0  0  0  0  0
   -5.4147   -4.5951   29.1005 H   0  0  0  0  0  0
   -3.3820   -5.9972   33.5195 H   0  0  0  0  0  0
   -4.0172   -4.3297   35.7401 H   0  0  0  0  0  0
   -2.7505   -6.4307   36.0423 H   0  0  0  0  0  0
   -1.8676   -5.0633   36.8021 H   0  0  0  0  0  0
   -1.3224   -5.7159   35.2198 H   0  0  0  0  0  0
   -1.8006   -4.0419   33.0416 H   0  0  0  0  0  0
   -0.2137   -1.8398   34.1326 H   0  0  0  0  0  0
    0.6818   -3.1593   32.3077 H   0  0  0  0  0  0
   -0.6385   -2.6245   31.2135 H   0  0  0  0  0  0
    0.1830   -0.3036   31.3615 H   0  0  0  0  0  0
    1.5074   -0.8441   32.4479 H   0  0  0  0  0  0
    2.6914   -1.7979   30.7550 H   0  0  0  0  0  0
    1.2194   -2.2927   29.8522 H   0  0  0  0  0  0
    1.2587   -0.2380   28.6323 H   0  0  0  0  0  0
    2.0009    1.7665   28.1307 H   0  0  0  0  0  0
    3.2408   -0.0618   31.7008 H   0  0  0  0  0  0
    3.8824    1.6735   31.2457 H   0  0  0  0  0  0
   -3.1572   -2.0653   32.0758 H   0  0  0  0  0  0
   -3.0250    0.9317   31.7375 H   0  0  0  0  0  0
   -4.8425    0.7288   30.2039 H   0  0  0  0  0  0
   -2.4561    0.3212   29.5207 H   0  0  0  0  0  0
   -3.6748   -0.5101   28.4958 H   0  0  0  0  0  0
   -2.7545   -1.4380   29.7282 H   0  0  0  0  0  0
   -6.0441   -0.8263   31.3363 H   0  0  0  0  0  0
   -4.8854   -2.0990   30.8219 H   0  0  0  0  0  0
   -5.8057   -1.1711   29.5896 H   0  0  0  0  0  0
   -4.8248   -1.3757   33.6516 H   0  0  0  0  0  0
   -6.4803    0.9812   34.4386 H   0  0  0  0  0  0
   -6.5525   -1.9398   35.3042 H   0  0  0  0  0  0
   -7.3912   -0.7178   36.3190 H   0  0  0  0  0  0
   -9.2457    0.6069   35.3755 H   0  0  0  0  0  0
   -7.3317   -2.5597   33.2850 H   0  0  0  0  0  0
  -11.1810    0.4592   33.8599 H   0  0  0  0  0  0
   -9.1908   -2.7171   31.7919 H   0  0  0  0  0  0
  -11.1546   -1.2037   32.0149 H   0  0  0  0  0  0
   -3.7366   -0.7416   35.6378 H   0  0  0  0  0  0
   -4.0207    0.9874   38.1304 H   0  0  0  0  0  0
   -3.2715   -0.9814   39.5500 H   0  0  0  0  0  0
   -4.8355   -1.2924   38.7232 H   0  0  0  0  0  0
   -3.2779   -3.2627   38.4689 H   0  0  0  0  0  0
   -0.2291    0.7264   38.4012 H   0  0  0  0  0  0
  1  2  1  0  0  0
  1138  1  0  0  0
  1139  1  0  0  0
  1140  1  0  0  0
  2  5  1  0  0  0
  2  3  1  0  0  0
  2141  1  0  0  0
  3  4  2  0  0  0
  3  8  1  0  0  0
  5  7  1  0  0  0
  5  6  1  0  0  0
  5142  1  0  0  0
  6143  1  0  0  0
  6144  1  0  0  0
  6145  1  0  0  0
  7146  1  0  0  0
  7147  1  0  0  0
  7148  1  0  0  0
  8  9  1  0  0  0
  8149  1  0  0  0
  9 12  1  0  0  0
  9 10  1  0  0  0
  9150  1  0  0  0
 10 11  2  0  0  0
 10 16  1  0  0  0
 12 14  1  0  0  0
 12 13  1  0  0  0
 12151  1  0  0  0
 13 15  1  0  0  0
 13152  1  0  0  0
 13153  1  0  0  0
 14154  1  0  0  0
 14155  1  0  0  0
 14156  1  0  0  0
 15157  1  0  0  0
 15158  1  0  0  0
 15159  1  0  0  0
 16 17  1  0  0  0
 16160  1  0  0  0
 17 20  1  0  0  0
 17 18  1  0  0  0
 17161  1  0  0  0
 18 19  2  0  0  0
 18 27  1  0  0  0
 20 21  1  0  0  0
 20162  1  0  0  0
 20163  1  0  0  0
 21 22  1  0  0  0
 21164  1  0  0  0
 21165  1  0  0  0
 22 23  1  0  0  0
 22166  1  0  0  0
 22167  1  0  0  0
 23 24  1  0  0  0
 23168  1  0  0  0
 24 26  1  0  0  0
 24 25  2  0  0  0
 25169  1  0  0  0
 26170  1  0  0  0
 26171  1  0  0  0
 27 28  1  0  0  0
 27172  1  0  0  0
 28 31  1  0  0  0
 28 29  1  0  0  0
 28173  1  0  0  0
 29 30  2  0  0  0
 29 35  1  0  0  0
 31 32  1  0  0  0
 31174  1  0  0  0
 31175  1  0  0  0
 32 34  1  0  0  0
 32 33  2  0  0  0
 34176  1  0  0  0
 34177  1  0  0  0
 35 36  1  0  0  0
 35178  1  0  0  0
 36 39  1  0  0  0
 36 37  1  0  0  0
 36179  1  0  0  0
 37 38  2  0  0  0
 37 44  1  0  0  0
 39 40  1  0  0  0
 39180  1  0  0  0
 39181  1  0  0  0
 40 41  1  0  0  0
 40182  1  0  0  0
 40183  1  0  0  0
 41 42  1  0  0  0
 41184  1  0  0  0
 41185  1  0  0  0
 42 43  1  0  0  0
 42186  1  0  0  0
 42187  1  0  0  0
 43188  1  0  0  0
 43189  1  0  0  0
 43190  1  0  0  0
 44 45  1  0  0  0
 44191  1  0  0  0
 45 48  1  0  0  0
 45 46  1  0  0  0
 45192  1  0  0  0
 46 47  2  0  0  0
 46 52  1  0  0  0
 48 50  1  0  0  0
 48 49  1  0  0  0
 48193  1  0  0  0
 49 51  1  0  0  0
 49194  1  0  0  0
 49195  1  0  0  0
 50196  1  0  0  0
 50197  1  0  0  0
 50198  1  0  0  0
 51199  1  0  0  0
 51200  1  0  0  0
 51201  1  0  0  0
 52 53  1  0  0  0
 52202  1  0  0  0
 53 56  1  0  0  0
 53 54  1  0  0  0
 53203  1  0  0  0
 54 55  2  0  0  0
 54 63  1  0  0  0
 56 57  1  0  0  0
 56204  1  0  0  0
 56205  1  0  0  0
 57 58  1  0  0  0
 57206  1  0  0  0
 57207  1  0  0  0
 58 59  1  0  0  0
 58208  1  0  0  0
 58209  1  0  0  0
 59 60  1  0  0  0
 59210  1  0  0  0
 60 62  1  0  0  0
 60 61  2  0  0  0
 61211  1  0  0  0
 62212  1  0  0  0
 62213  1  0  0  0
 63 64  1  0  0  0
 63214  1  0  0  0
 64 67  1  0  0  0
 64 65  1  0  0  0
 64215  1  0  0  0
 65 66  2  0  0  0
 65 68  1  0  0  0
 67216  1  0  0  0
 67217  1  0  0  0
 67218  1  0  0  0
 68 69  1  0  0  0
 68219  1  0  0  0
 69 72  1  0  0  0
 69 70  1  0  0  0
 69220  1  0  0  0
 70 71  2  0  0  0
 70 76  1  0  0  0
 72 74  1  0  0  0
 72 73  1  0  0  0
 72221  1  0  0  0
 73 75  1  0  0  0
 73222  1  0  0  0
 73223  1  0  0  0
 74224  1  0  0  0
 74225  1  0  0  0
 74226  1  0  0  0
 75227  1  0  0  0
 75228  1  0  0  0
 75229  1  0  0  0
 76 77  1  0  0  0
 76230  1  0  0  0
 77 78  1  0  0  0
 77231  1  0  0  0
 77232  1  0  0  0
 78 79  2  0  0  0
 78 80  1  0  0  0
 80 81  1  0  0  0
 80233  1  0  0  0
 81 84  1  0  0  0
 81 82  1  0  0  0
 81234  1  0  0  0
 82 83  2  0  0  0
 82 89  1  0  0  0
 84 85  1  0  0  0
 84235  1  0  0  0
 84236  1  0  0  0
 85 86  1  0  0  0
 85237  1  0  0  0
 85238  1  0  0  0
 86 87  1  0  0  0
 86239  1  0  0  0
 86240  1  0  0  0
 87 88  1  0  0  0
 87241  1  0  0  0
 87242  1  0  0  0
 88243  1  0  0  0
 88244  1  0  0  0
 88245  1  0  0  0
 89 90  1  0  0  0
 89246  1  0  0  0
 90 93  1  0  0  0
 90 91  1  0  0  0
 90247  1  0  0  0
 91 92  2  0  0  0
 91 97  1  0  0  0
 93 94  1  0  0  0
 93248  1  0  0  0
 93249  1  0  0  0
 94 95  1  0  0  0
 94250  1  0  0  0
 94251  1  0  0  0
 95 96  1  0  0  0
 96252  1  0  0  0
 96253  1  0  0  0
 96254  1  0  0  0
 97 98  1  0  0  0
 97255  1  0  0  0
 98101  1  0  0  0
 98 99  1  0  0  0
 98256  1  0  0  0
 99100  2  0  0  0
 99102  1  0  0  0
101257  1  0  0  0
101258  1  0  0  0
101259  1  0  0  0
102103  1  0  0  0
102260  1  0  0  0
103106  1  0  0  0
103104  1  0  0  0
103261  1  0  0  0
104105  2  0  0  0
104113  1  0  0  0
106107  1  0  0  0
106262  1  0  0  0
106263  1  0  0  0
107108  1  0  0  0
107264  1  0  0  0
107265  1  0  0  0
108109  1  0  0  0
108266  1  0  0  0
108267  1  0  0  0
109110  1  0  0  0
109268  1  0  0  0
110112  1  0  0  0
110111  2  0  0  0
111269  1  0  0  0
112270  1  0  0  0
112271  1  0  0  0
113114  1  0  0  0
113272  1  0  0  0
114117  1  0  0  0
114115  1  0  0  0
114273  1  0  0  0
115116  2  0  0  0
115120  1  0  0  0
117119  1  0  0  0
117118  1  0  0  0
117274  1  0  0  0
118275  1  0  0  0
118276  1  0  0  0
118277  1  0  0  0
119278  1  0  0  0
119279  1  0  0  0
119280  1  0  0  0
120121  1  0  0  0
120281  1  0  0  0
121124  1  0  0  0
121122  1  0  0  0
121282  1  0  0  0
122123  2  0  0  0
122131  1  0  0  0
124125  1  0  0  0
124283  1  0  0  0
124284  1  0  0  0
125126  2  0  0  0
125127  1  0  0  0
126128  1  0  0  0
126285  1  0  0  0
127129  2  0  0  0
127286  1  0  0  0
128130  2  0  0  0
128287  1  0  0  0
129130  1  0  0  0
129288  1  0  0  0
130289  1  0  0  0
131132  1  0  0  0
131290  1  0  0  0
132135  1  0  0  0
132133  1  0  0  0
132291  1  0  0  0
133134  2  0  0  0
133137  1  0  0  0
135136  1  0  0  0
135292  1  0  0  0
135293  1  0  0  0
136294  1  0  0  0
137295  1  0  0  0
M  CHG  3   1   1  43   1  88   1
M  END
> <s_m_source_file>
../2w73_ligand.sdf

> <i_m_source_file_index>
1

> <s_epik_input>
W0NIM11bQ0hdKFtDSDNdKVtDQEhdKFtOSDMrXSlDKD1PKVtOSF1bQ0BASF0oW0NAQEhdKFtDSDNdKVtDSDJdW0NIM10pQyg9TylbTkhdW0NAQEhdKFtDSDJdW0NIMl1bQ0gyXVtOSF0vQyg9TlxbSF0pW05IMl0pQyg9TylbTkhdW0NAQEhdKFtDSDJdQyg9TylbTkgyXSlDKD1PKVtOSF1bQ0BASF0oW0NIMl1bQ0gyXVtDSDJdW0NIMl1bTkgzK10pQyg9TylbTkhdW0NAQEhdKFtDQEBIXShbQ0gzXSlbQ0gyXVtDSDNdKUMoPU8pW05IXVtDQEBIXShbQ0gyXVtDSDJdW0NIMl1bTkhdL0MoPU5cW0hdKVtOSDJdKUMoPU8pW05IXVtDQEBIXShbQ0gzXSlDKD1PKVtOSF1bQ0BASF0oW0NAQEhdKFtDSDNdKVtDSDJdW0NIM10pQyg9TylbTkhdW0NIMl1DKD1PKVtOSF1bQ0BASF0oW0NIMl1bQ0gyXVtDSDJdW0NIMl1bTkgzK10pQyg9TylbTkhdW0NAQEhdKFtDSDJdW0NIMl1TW0NIM10pQyg9TylbTkhdW0NAQEhdKFtDSDNdKUMoPU8pW05IXVtDQEBIXShbQ0gyXVtDSDJdW0NIMl1bTkhdL0MoPU5cW0hdKVtOSDJdKUMoPU8pW05IXVtDQEBIXShbQ0hdKFtDSDNdKVtDSDNdKUMoPU8pW05IXVtDQEhdKEMoPU8pW05IXVtDQEhdKEMoPU8pW09IXSlbQ0gyXVtPSF0pW0NIMl1jMVtjSF1bY0hdW2NIXVtjSF1bY0hdMQ==

> <s_epik_cmdline>
J2VwaWtfYXBwJywgJy1pbWFlJywgJ2xpZ2FuZF9wcm8ubWFlJywgJy1vbWFlJywgJ2xpZ2FuZF9wcmVwLm1hZScsICctbXMnLCAnMScsICctcGgnLCAnNycsICctcGh0JywgJzAuNScsICctbnQn

> <s_epik_pKa_notes>
Molecule size exceeds maximum supported for generating protonation states

> <s_epik_Chemistry_Notes>
This compound has an imine and may undergo hydrolysis.

$$$$
