2w76_ligand
                    3D
 Schrodinger Suite 2020-3.
107107  0  0  1  0            999 V2000
  -66.9010  -41.0990   18.8760 O   0  0  0  0  0  0
  -66.7450  -40.8160   17.6840 C   0  0  0  0  0  0
  -66.9410  -39.2900   17.3750 C   0  0  2  0  0  0
  -66.0560  -38.3000   18.1330 C   0  0  0  0  0  0
  -66.4280  -36.8860   17.6890 C   0  0  0  0  0  0
  -67.8280  -36.7670   18.0860 N   0  3  0  0  0  0
  -68.3380  -38.8190   17.3700 N   0  0  0  0  0  0
  -68.6810  -37.7060   18.0550 C   0  0  0  0  0  0
  -70.0570  -37.6310   18.7440 C   0  0  2  0  0  0
  -70.5750  -36.4520   19.4980 N   0  0  0  0  0  0
  -70.1620  -38.7420   19.7870 C   0  0  0  0  0  0
  -71.5250  -39.2330   19.6960 O   0  0  0  0  0  0
  -66.0000  -41.8210   17.3260 N   0  0  0  0  0  0
  -64.8980  -42.5760   18.0880 C   0  0  1  0  0  0
  -63.9520  -41.5750   18.7680 C   0  0  0  0  0  0
  -63.4620  -40.5150   17.7780 C   0  0  0  0  0  0
  -62.0980  -39.8970   18.0820 C   0  0  0  0  0  0
  -62.2110  -38.8220   19.0850 N   0  3  0  0  0  0
  -63.2030  -38.1040   19.1700 O   0  0  0  0  0  0
  -61.2460  -38.6350   19.8840 C   0  0  0  0  0  0
  -61.2780  -37.7670   20.7470 O   0  0  0  0  0  0
  -65.4790  -43.6900   18.9740 C   0  0  0  0  0  0
  -66.6860  -43.9070   18.9190 O   0  0  0  0  0  0
  -64.6870  -44.4260   19.7730 N   0  0  0  0  0  0
  -65.2840  -45.4460   20.6990 C   0  0  2  0  0  0
  -65.7980  -44.9060   22.0380 C   0  0  0  0  0  0
  -65.7920  -45.6170   23.0600 O   0  0  0  0  0  0
  -64.3760  -46.6500   20.9720 C   0  0  0  0  0  0
  -64.2420  -46.9310   22.4810 C   0  0  0  0  0  0
  -64.5610  -48.3600   22.9170 C   0  0  0  0  0  0
  -63.7610  -49.2860   22.7270 O   0  0  0  0  0  0
  -65.7100  -48.5300   23.5630 N   0  0  0  0  0  0
  -66.1960  -43.6350   22.0310 N   0  0  0  0  0  0
  -67.0170  -43.0690   23.0990 C   0  0  1  0  0  0
  -66.2940  -42.9430   24.4590 C   0  0  0  0  0  0
  -66.9530  -42.8310   25.5040 O   0  0  0  0  0  0
  -67.6760  -41.7520   22.6170 C   0  0  0  0  0  0
  -68.4150  -41.9170   21.2410 C   0  0  0  0  0  0
  -69.9320  -41.7380   21.3090 C   0  0  0  0  0  0
  -70.4070  -40.6660   21.6500 O   0  0  0  0  0  0
  -70.6860  -42.7840   20.9750 N   0  0  0  0  0  0
  -64.9520  -42.9950   24.4320 N   0  0  0  0  0  0
  -64.0800  -42.7320   25.6150 C   0  0  1  0  0  0
  -63.8520  -41.2150   25.8090 C   0  0  0  0  0  0
  -63.9260  -40.3780   24.5350 C   0  0  0  0  0  0
  -62.7610  -39.4060   24.5490 C   0  0  0  0  0  0
  -62.9150  -38.4600   23.4470 N   0  3  0  0  0  0
  -63.3280  -38.8780   22.3920 O   0  0  0  0  0  0
  -62.6060  -37.2370   23.6170 C   0  0  0  0  0  0
  -62.6940  -36.3780   22.7610 O   0  0  0  0  0  0
  -64.4920  -43.4420   26.9030 C   0  0  0  0  0  0
  -64.9070  -42.8010   27.8720 O   0  0  0  0  0  0
  -64.3560  -44.7750   26.9030 N   0  0  0  0  0  0
  -64.7650  -45.6540   28.0130 C   0  0  0  0  0  0
  -65.4310  -46.9140   27.4760 C   0  0  0  0  0  0
  -66.5770  -46.8920   27.0130 O   0  5  0  0  0  0
  -64.8440  -47.9960   27.4720 O   0  0  0  0  0  0
  -66.6278  -39.2256   16.3225 H   0  0  0  0  0  0
  -66.2235  -38.4120   19.2144 H   0  0  0  0  0  0
  -64.9995  -38.5018   17.9028 H   0  0  0  0  0  0
  -65.7821  -36.1586   18.2025 H   0  0  0  0  0  0
  -66.2902  -36.7950   16.6015 H   0  0  0  0  0  0
  -69.1035  -39.3740   16.8078 H   0  0  0  0  0  0
  -70.6753  -37.6253   17.8342 H   0  0  0  0  0  0
  -70.0242  -36.3515   20.4449 H   0  0  0  0  0  0
  -70.4374  -35.5421   18.8954 H   0  0  0  0  0  0
  -69.4339  -39.5331   19.5545 H   0  0  0  0  0  0
  -69.9495  -38.3298   20.7845 H   0  0  0  0  0  0
  -71.8608  -40.0486   20.3532 H   0  0  0  0  0  0
  -66.2626  -42.1192   16.3003 H   0  0  0  0  0  0
  -64.2574  -43.1340   17.3892 H   0  0  0  0  0  0
  -64.4816  -41.0697   19.5891 H   0  0  0  0  0  0
  -63.0788  -42.1102   19.1694 H   0  0  0  0  0  0
  -63.3799  -40.9599   16.7753 H   0  0  0  0  0  0
  -64.1774  -39.6798   17.7511 H   0  0  0  0  0  0
  -61.4232  -40.6725   18.4735 H   0  0  0  0  0  0
  -61.6737  -39.4732   17.1598 H   0  0  0  0  0  0
  -60.3607  -39.2805   19.7857 H   0  0  0  0  0  0
  -63.5973  -44.2784   19.7464 H   0  0  0  0  0  0
  -66.1514  -45.7576   20.0986 H   0  0  0  0  0  0
  -64.7974  -47.5440   20.4891 H   0  0  0  0  0  0
  -63.3730  -46.4524   20.5659 H   0  0  0  0  0  0
  -63.2080  -46.7337   22.8003 H   0  0  0  0  0  0
  -64.9289  -46.2770   23.0382 H   0  0  0  0  0  0
  -66.3904  -47.6780   23.7086 H   0  0  0  0  0  0
  -65.9806  -49.5227   23.9521 H   0  0  0  0  0  0
  -65.8858  -43.0059   21.1836 H   0  0  0  0  0  0
  -67.7894  -43.8344   23.2648 H   0  0  0  0  0  0
  -68.4152  -41.4185   23.3602 H   0  0  0  0  0  0
  -66.9034  -40.9784   22.4956 H   0  0  0  0  0  0
  -68.0367  -41.1682   20.5295 H   0  0  0  0  0  0
  -68.2300  -42.9261   20.8441 H   0  0  0  0  0  0
  -70.2120  -43.7300   20.6741 H   0  0  0  0  0  0
  -71.7826  -42.7019   21.0000 H   0  0  0  0  0  0
  -64.5006  -43.2501   23.4619 H   0  0  0  0  0  0
  -63.1317  -43.2205   25.3465 H   0  0  0  0  0  0
  -64.6156  -40.8138   26.4917 H   0  0  0  0  0  0
  -62.8527  -41.0461   26.2367 H   0  0  0  0  0  0
  -63.8608  -41.0387   23.6579 H   0  0  0  0  0  0
  -64.8795  -39.8300   24.5111 H   0  0  0  0  0  0
  -62.7489  -38.8619   25.5049 H   0  0  0  0  0  0
  -61.8187  -39.9612   24.4312 H   0  0  0  0  0  0
  -62.2379  -36.9777   24.6206 H   0  0  0  0  0  0
  -63.9050  -45.2065   25.9972 H   0  0  0  0  0  0
  -63.8796  -45.9396   28.5999 H   0  0  0  0  0  0
  -65.4772  -45.1207   28.6598 H   0  0  0  0  0  0
  -68.1242  -35.7661   18.4332 H   0  0  0  0  0  0
  1  2  2  0  0  0
  2  3  1  0  0  0
  2 13  1  0  0  0
  3  4  1  0  0  0
  3  7  1  0  0  0
  3 58  1  0  0  0
  4  5  1  0  0  0
  4 59  1  0  0  0
  4 60  1  0  0  0
  5  6  1  0  0  0
  5 61  1  0  0  0
  5 62  1  0  0  0
  6  8  2  0  0  0
  6107  1  0  0  0
  7  8  1  0  0  0
  7 63  1  0  0  0
  8  9  1  0  0  0
  9 10  1  0  0  0
  9 11  1  0  0  0
  9 64  1  0  0  0
 10 65  1  0  0  0
 10 66  1  0  0  0
 11 12  1  0  0  0
 11 67  1  0  0  0
 11 68  1  0  0  0
 12 69  1  0  0  0
 13 14  1  0  0  0
 13 70  1  0  0  0
 14 15  1  0  0  0
 14 22  1  0  0  0
 14 71  1  0  0  0
 15 16  1  0  0  0
 15 72  1  0  0  0
 15 73  1  0  0  0
 16 17  1  0  0  0
 16 74  1  0  0  0
 16 75  1  0  0  0
 17 18  1  0  0  0
 17 76  1  0  0  0
 17 77  1  0  0  0
 18 19  2  0  0  0
 18 20  1  0  0  0
 20 21  2  0  0  0
 20 78  1  0  0  0
 22 23  2  0  0  0
 22 24  1  0  0  0
 24 25  1  0  0  0
 24 79  1  0  0  0
 25 26  1  0  0  0
 25 28  1  0  0  0
 25 80  1  0  0  0
 26 27  2  0  0  0
 26 33  1  0  0  0
 28 29  1  0  0  0
 28 81  1  0  0  0
 28 82  1  0  0  0
 29 30  1  0  0  0
 29 83  1  0  0  0
 29 84  1  0  0  0
 30 31  2  0  0  0
 30 32  1  0  0  0
 32 85  1  0  0  0
 32 86  1  0  0  0
 33 34  1  0  0  0
 33 87  1  0  0  0
 34 35  1  0  0  0
 34 37  1  0  0  0
 34 88  1  0  0  0
 35 36  2  0  0  0
 35 42  1  0  0  0
 37 38  1  0  0  0
 37 89  1  0  0  0
 37 90  1  0  0  0
 38 39  1  0  0  0
 38 91  1  0  0  0
 38 92  1  0  0  0
 39 40  2  0  0  0
 39 41  1  0  0  0
 41 93  1  0  0  0
 41 94  1  0  0  0
 42 43  1  0  0  0
 42 95  1  0  0  0
 43 44  1  0  0  0
 43 51  1  0  0  0
 43 96  1  0  0  0
 44 45  1  0  0  0
 44 97  1  0  0  0
 44 98  1  0  0  0
 45 46  1  0  0  0
 45 99  1  0  0  0
 45100  1  0  0  0
 46 47  1  0  0  0
 46101  1  0  0  0
 46102  1  0  0  0
 47 48  2  0  0  0
 47 49  1  0  0  0
 49 50  2  0  0  0
 49103  1  0  0  0
 51 52  2  0  0  0
 51 53  1  0  0  0
 53 54  1  0  0  0
 53104  1  0  0  0
 54 55  1  0  0  0
 54105  1  0  0  0
 54106  1  0  0  0
 55 56  1  0  0  0
 55 57  2  0  0  0
M  CHG  4   6   1  18   1  47   1  56  -1
M  END
> <s_m_source_file>
../2w76_ligand.sdf

> <i_m_source_file_index>
1

> <s_epik_input>
W09IXVtDSDJdW0NAQEhdKFtOSDMrXSlDKFtOSF0xKT1OW0NIMl1bQ0gyXVtDQEhdMUMoPU8pW05IXVtDQEBIXShbQ0gyXVtDSDJdW0NIMl1bTitdKD1PKVtDSF09TylDKD1PKVtOSF1bQ0BASF0oW0NIMl1bQ0gyXUMoPU8pW05IMl0pQyg9TylbTkhdW0NASF0oW0NIMl1bQ0gyXUMoPU8pW05IMl0pQyg9TylbTkhdW0NAQEhdKFtDSDJdW0NIMl1bQ0gyXVtOK10oPU8pW0NIXT1PKUMoPU8pW05IXVtDSDJdQyg9TylbT0hd

> <s_epik_cmdline>
J2VwaWtfYXBwJywgJy1pbWFlJywgJ2xpZ2FuZF9wcm8ubWFlJywgJy1vbWFlJywgJ2xpZ2FuZF9wcmVwLm1hZScsICctbXMnLCAnMScsICctcGgnLCAnNycsICctcGh0JywgJzAuNScsICctbnQn

> <r_lp_tautomer_probability>
1

> <r_epik_Ionization_Penalty>
  0.2042

> <r_epik_Ionization_Penalty_Charging>
  0.0008

> <r_epik_Ionization_Penalty_Neutral>
  0.2033

> <r_epik_State_Penalty>
 -0.0000

> <r_epik_Charging_Adjusted_Penalty>
0.00084299867574556

> <i_epik_Tot_Q>
2

> <i_epik_Tot_abs_Q>
4

> <s_epik_Chemistry_Notes>
This compound has an imine and may undergo hydrolysis.

$$$$
