2w77_ligand
                    3D
 Schrodinger Suite 2020-3.
142142  0  0  1  0            999 V2000
  -70.8870  -36.1840   19.9400 N   0  3  0  0  0  0
  -71.5500  -36.5980   18.6540 C   0  0  1  0  0  0
  -70.6190  -36.4770   17.4450 C   0  0  0  0  0  0
  -70.9530  -35.7630   16.4620 O   0  0  0  0  0  0
  -72.1930  -37.9990   18.7350 C   0  0  0  0  0  0
  -71.2400  -39.0130   18.9710 O   0  0  0  0  0  0
  -69.4530  -37.1300   17.5350 N   0  0  0  0  0  0
  -68.4720  -37.1190   16.4430 C   0  0  2  0  0  0
  -68.2710  -38.5220   15.8520 C   0  0  0  0  0  0
  -67.4810  -38.7180   14.9200 O   0  0  0  0  0  0
  -67.1530  -36.4570   16.8970 C   0  0  0  0  0  0
  -67.2620  -34.9370   17.2630 C   0  0  0  0  0  0
  -67.3340  -33.9820   16.0520 C   0  0  0  0  0  0
  -68.6390  -33.1700   15.9570 C   0  0  0  0  0  0
  -68.4680  -31.7830   16.4660 N   0  3  0  0  0  0
  -69.0170  -39.4860   16.4010 N   0  0  0  0  0  0
  -69.0110  -40.8900   15.9570 C   0  0  0  0  0  0
  -67.8380  -41.7650   16.3780 C   0  0  0  0  0  0
  -67.6700  -42.8490   15.8300 O   0  0  0  0  0  0
  -67.0840  -41.3310   17.3980 N   0  0  0  0  0  0
  -65.6900  -41.7400   17.6140 C   0  0  1  0  0  0
  -64.9400  -40.4420   17.9030 C   0  0  0  0  0  0
  -63.4770  -40.4260   17.4450 C   0  0  0  0  0  0
  -62.4000  -40.2580   18.5290 C   0  0  0  0  0  0
  -62.5290  -39.0410   19.3550 N   0  3  0  0  0  0
  -63.5860  -38.4490   19.5200 O   0  0  0  0  0  0
  -61.5040  -38.6060   19.9610 C   0  0  0  0  0  0
  -61.5780  -37.6180   20.6810 O   0  0  0  0  0  0
  -65.4300  -42.6350   18.7840 C   0  0  0  0  0  0
  -65.0860  -42.1490   19.8700 O   0  0  0  0  0  0
  -65.5520  -43.9510   18.5840 N   0  0  0  0  0  0
  -65.2960  -44.9590   19.6470 C   0  0  2  0  0  0
  -66.4590  -45.0950   20.6210 C   0  0  0  0  0  0
  -67.5760  -45.3250   20.1720 O   0  0  0  0  0  0
  -63.9970  -44.6860   20.4010 C   0  0  0  0  0  0
  -62.8870  -45.1440   19.6520 O   0  0  0  0  0  0
  -66.1980  -44.9600   21.9310 N   0  0  0  0  0  0
  -67.2560  -44.9740   22.9700 C   0  0  1  0  0  0
  -68.5280  -44.1250   22.6470 C   0  0  0  0  0  0
  -69.6340  -44.6680   22.4760 O   0  0  0  0  0  0
  -67.6340  -46.4150   23.3490 C   0  0  0  0  0  0
  -66.7470  -46.9280   24.3220 O   0  0  0  0  0  0
  -68.3360  -42.8040   22.5230 N   0  0  0  0  0  0
  -69.4070  -41.8270   22.7420 C   0  0  0  0  0  0
  -69.3420  -41.4460   24.2240 C   0  0  0  0  0  0
  -69.5460  -40.3000   24.5870 O   0  0  0  0  0  0
  -69.0050  -42.4060   25.0750 N   0  0  0  0  0  0
  -69.0300  -42.1940   26.5100 C   0  0  2  0  0  0
  -67.6830  -41.8940   27.2110 C   0  0  0  0  0  0
  -67.6940  -41.5150   28.3840 O   0  0  0  0  0  0
  -69.7160  -43.3850   27.1800 C   0  0  0  0  0  0
  -68.7960  -44.1060   28.1190 C   0  0  0  0  0  0
  -69.5390  -44.8660   29.1350 C   0  0  0  0  0  0
  -68.6600  -45.2860   30.3110 C   0  0  0  0  0  0
  -67.2370  -45.2950   29.9660 N   0  0  0  0  0  0
  -66.5400  -42.0660   26.5580 N   0  0  0  0  0  0
  -65.2290  -41.7870   27.1830 C   0  0  2  0  0  0
  -64.1570  -41.4230   26.1360 C   0  0  0  0  0  0
  -64.4360  -40.1960   25.2390 C   0  0  0  0  0  0
  -63.1110  -39.7420   24.6190 C   0  0  0  0  0  0
  -63.2120  -38.7580   23.5490 N   0  3  0  0  0  0
  -63.6530  -39.0570   22.4540 O   0  0  0  0  0  0
  -62.7670  -37.5960   23.7700 C   0  0  0  0  0  0
  -62.7550  -36.6560   22.9780 O   0  0  0  0  0  0
  -64.8790  -42.9950   28.0040 C   0  0  0  0  0  0
  -64.3810  -43.9600   27.4750 O   0  0  0  0  0  0
  -65.1730  -42.9800   29.3020 N   0  0  0  0  0  0
  -65.1500  -44.2340   30.0980 C   0  0  2  0  0  0
  -66.5200  -44.5660   30.6580 C   0  0  0  0  0  0
  -67.0430  -43.8630   31.5230 O   0  0  0  0  0  0
  -64.2000  -44.1260   31.2580 C   0  0  0  0  0  0
  -64.6140  -43.0340   32.0370 O   0  0  0  0  0  0
  -70.4492  -35.1819   19.8208 H   0  0  0  0  0  0
  -70.0936  -36.9032   20.1916 H   0  0  0  0  0  0
  -71.6336  -36.1643   20.7476 H   0  0  0  0  0  0
  -72.3572  -35.8629   18.5199 H   0  0  0  0  0  0
  -72.9235  -38.0202   19.5571 H   0  0  0  0  0  0
  -72.7021  -38.2242   17.7863 H   0  0  0  0  0  0
  -71.5614  -40.0619   19.0516 H   0  0  0  0  0  0
  -69.2399  -37.6855   18.4602 H   0  0  0  0  0  0
  -68.9179  -36.4969   15.6530 H   0  0  0  0  0  0
  -66.7755  -36.9693   17.7943 H   0  0  0  0  0  0
  -66.4083  -36.5328   16.0910 H   0  0  0  0  0  0
  -68.1734  -34.7669   17.8550 H   0  0  0  0  0  0
  -66.3818  -34.6373   17.8507 H   0  0  0  0  0  0
  -66.5089  -33.2567   16.1075 H   0  0  0  0  0  0
  -67.2497  -34.5627   15.1216 H   0  0  0  0  0  0
  -68.9603  -33.1140   14.9065 H   0  0  0  0  0  0
  -69.4212  -33.6618   16.5540 H   0  0  0  0  0  0
  -69.4211  -31.2407   16.3797 H   0  0  0  0  0  0
  -67.6978  -31.2674   15.8736 H   0  0  0  0  0  0
  -68.1586  -31.8152   17.5211 H   0  0  0  0  0  0
  -69.6643  -39.1755   17.2345 H   0  0  0  0  0  0
  -69.9042  -41.4012   16.3454 H   0  0  0  0  0  0
  -69.0164  -40.9270   14.8576 H   0  0  0  0  0  0
  -67.5658  -40.6297   18.0952 H   0  0  0  0  0  0
  -65.4146  -42.3224   16.7224 H   0  0  0  0  0  0
  -65.4407  -39.6074   17.3904 H   0  0  0  0  0  0
  -64.9337  -40.2557   18.9871 H   0  0  0  0  0  0
  -63.2399  -41.3750   16.9419 H   0  0  0  0  0  0
  -63.3208  -39.5913   16.7458 H   0  0  0  0  0  0
  -62.4390  -41.1129   19.2202 H   0  0  0  0  0  0
  -61.4077  -40.2136   18.0563 H   0  0  0  0  0  0
  -60.5419  -39.1243   19.8356 H   0  0  0  0  0  0
  -65.8569  -44.2772   17.5787 H   0  0  0  0  0  0
  -65.1967  -45.9063   19.0968 H   0  0  0  0  0  0
  -63.8925  -43.6044   20.5717 H   0  0  0  0  0  0
  -64.0174  -45.2096   21.3682 H   0  0  0  0  0  0
  -61.8684  -45.0258   20.0501 H   0  0  0  0  0  0
  -65.1442  -44.8348   22.2207 H   0  0  0  0  0  0
  -66.7492  -44.4792   23.8116 H   0  0  0  0  0  0
  -68.6553  -46.4308   23.7573 H   0  0  0  0  0  0
  -67.5867  -47.0538   22.4547 H   0  0  0  0  0  0
  -66.8800  -47.9515   24.7023 H   0  0  0  0  0  0
  -67.3280  -42.4621   22.2454 H   0  0  0  0  0  0
  -69.2396  -40.9494   22.1003 H   0  0  0  0  0  0
  -70.3763  -42.2836   22.4932 H   0  0  0  0  0  0
  -68.7011  -43.3819   24.6684 H   0  0  0  0  0  0
  -69.6102  -41.2611   26.5641 H   0  0  0  0  0  0
  -70.5856  -43.0320   27.7538 H   0  0  0  0  0  0
  -70.0490  -44.0969   26.4104 H   0  0  0  0  0  0
  -68.1699  -44.8096   27.5507 H   0  0  0  0  0  0
  -68.1533  -43.3771   28.6344 H   0  0  0  0  0  0
  -70.3585  -44.2471   29.5292 H   0  0  0  0  0  0
  -69.9540  -45.7776   28.6803 H   0  0  0  0  0  0
  -68.8037  -44.5837   31.1453 H   0  0  0  0  0  0
  -68.9387  -46.3001   30.6333 H   0  0  0  0  0  0
  -66.8756  -45.9237   29.1389 H   0  0  0  0  0  0
  -66.5888  -42.4280   25.5204 H   0  0  0  0  0  0
  -65.3154  -40.9130   27.8453 H   0  0  0  0  0  0
  -63.2064  -41.2054   26.6449 H   0  0  0  0  0  0
  -64.0179  -42.2673   25.4448 H   0  0  0  0  0  0
  -65.1469  -40.4747   24.4472 H   0  0  0  0  0  0
  -64.8644  -39.3863   25.8481 H   0  0  0  0  0  0
  -62.4800  -39.2855   25.3959 H   0  0  0  0  0  0
  -62.5912  -40.6104   24.1880 H   0  0  0  0  0  0
  -62.3623  -37.4656   24.7845 H   0  0  0  0  0  0
  -65.4348  -42.0269   29.7847 H   0  0  0  0  0  0
  -64.8146  -45.0138   29.3984 H   0  0  0  0  0  0
  -64.2331  -45.0546   31.8467 H   0  0  0  0  0  0
  -63.1787  -43.9666   30.8819 H   0  0  0  0  0  0
  -64.0580  -42.7656   32.9474 H   0  0  0  0  0  0
  1  2  1  0  0  0
  1 73  1  0  0  0
  1 74  1  0  0  0
  1 75  1  0  0  0
  2  3  1  0  0  0
  2  5  1  0  0  0
  2 76  1  0  0  0
  3  4  2  0  0  0
  3  7  1  0  0  0
  5  6  1  0  0  0
  5 77  1  0  0  0
  5 78  1  0  0  0
  6 79  1  0  0  0
  7  8  1  0  0  0
  7 80  1  0  0  0
  8  9  1  0  0  0
  8 11  1  0  0  0
  8 81  1  0  0  0
  9 10  2  0  0  0
  9 16  1  0  0  0
 11 12  1  0  0  0
 11 82  1  0  0  0
 11 83  1  0  0  0
 12 13  1  0  0  0
 12 84  1  0  0  0
 12 85  1  0  0  0
 13 14  1  0  0  0
 13 86  1  0  0  0
 13 87  1  0  0  0
 14 15  1  0  0  0
 14 88  1  0  0  0
 14 89  1  0  0  0
 15 90  1  0  0  0
 15 91  1  0  0  0
 15 92  1  0  0  0
 16 17  1  0  0  0
 16 93  1  0  0  0
 17 18  1  0  0  0
 17 94  1  0  0  0
 17 95  1  0  0  0
 18 19  2  0  0  0
 18 20  1  0  0  0
 20 21  1  0  0  0
 20 96  1  0  0  0
 21 22  1  0  0  0
 21 29  1  0  0  0
 21 97  1  0  0  0
 22 23  1  0  0  0
 22 98  1  0  0  0
 22 99  1  0  0  0
 23 24  1  0  0  0
 23100  1  0  0  0
 23101  1  0  0  0
 24 25  1  0  0  0
 24102  1  0  0  0
 24103  1  0  0  0
 25 26  2  0  0  0
 25 27  1  0  0  0
 27 28  2  0  0  0
 27104  1  0  0  0
 29 30  2  0  0  0
 29 31  1  0  0  0
 31 32  1  0  0  0
 31105  1  0  0  0
 32 33  1  0  0  0
 32 35  1  0  0  0
 32106  1  0  0  0
 33 34  2  0  0  0
 33 37  1  0  0  0
 35 36  1  0  0  0
 35107  1  0  0  0
 35108  1  0  0  0
 36109  1  0  0  0
 37 38  1  0  0  0
 37110  1  0  0  0
 38 39  1  0  0  0
 38 41  1  0  0  0
 38111  1  0  0  0
 39 40  2  0  0  0
 39 43  1  0  0  0
 41 42  1  0  0  0
 41112  1  0  0  0
 41113  1  0  0  0
 42114  1  0  0  0
 43 44  1  0  0  0
 43115  1  0  0  0
 44 45  1  0  0  0
 44116  1  0  0  0
 44117  1  0  0  0
 45 46  2  0  0  0
 45 47  1  0  0  0
 47 48  1  0  0  0
 47118  1  0  0  0
 48 49  1  0  0  0
 48 51  1  0  0  0
 48119  1  0  0  0
 49 50  2  0  0  0
 49 56  1  0  0  0
 51 52  1  0  0  0
 51120  1  0  0  0
 51121  1  0  0  0
 52 53  1  0  0  0
 52122  1  0  0  0
 52123  1  0  0  0
 53 54  1  0  0  0
 53124  1  0  0  0
 53125  1  0  0  0
 54 55  1  0  0  0
 54126  1  0  0  0
 54127  1  0  0  0
 55 69  1  0  0  0
 55128  1  0  0  0
 56 57  1  0  0  0
 56129  1  0  0  0
 57 58  1  0  0  0
 57 65  1  0  0  0
 57130  1  0  0  0
 58 59  1  0  0  0
 58131  1  0  0  0
 58132  1  0  0  0
 59 60  1  0  0  0
 59133  1  0  0  0
 59134  1  0  0  0
 60 61  1  0  0  0
 60135  1  0  0  0
 60136  1  0  0  0
 61 62  2  0  0  0
 61 63  1  0  0  0
 63 64  2  0  0  0
 63137  1  0  0  0
 65 66  2  0  0  0
 65 67  1  0  0  0
 67 68  1  0  0  0
 67138  1  0  0  0
 68 69  1  0  0  0
 68 71  1  0  0  0
 68139  1  0  0  0
 69 70  2  0  0  0
 71 72  1  0  0  0
 71140  1  0  0  0
 71141  1  0  0  0
 72142  1  0  0  0
M  CHG  4   1   1  15   1  25   1  61   1
M  END
> <s_m_source_file>
../2w77_ligand.sdf

> <i_m_source_file_index>
1

> <s_epik_input>
W09IXVtDSDJdW0NAQEhdKFtOSDMrXSlDKD1PKVtOSF1bQ0BASF0oW0NIMl1bQ0gyXVtDSDJdW0NIMl1bTkgzK10pQyg9TylbTkhdW0NIMl1DKD1PKVtOSF1bQ0BASF0oW0NIMl1bQ0gyXVtDSDJdW04rXSg9TylbQ0hdPU8pQyg9TylbTkhdW0NAQEhdKFtDSDJdW09IXSlDKD1PKVtOSF1bQ0BIXShbQ0gyXVtPSF0pQyg9TylbTkhdW0NIMl1DKD1PKVtOSF1bQ0BASF0xQyg9TylbTkhdW0NASF0oW0NIMl1bQ0gyXVtDSDJdW04rXSg9TylbQ0hdPU8pQyg9TylbTkhdW0NAQEhdKFtDSDJdW09IXSlDKD1PKVtOSF1bQ0gyXVtDSDJdW0NIMl1bQ0gyXTE=

> <s_epik_cmdline>
J2VwaWtfYXBwJywgJy1pbWFlJywgJ2xpZ2FuZF9wcm8ubWFlJywgJy1vbWFlJywgJ2xpZ2FuZF9wcmVwLm1hZScsICctbXMnLCAnMScsICctcGgnLCAnNycsICctcGh0JywgJzAuNScsICctbnQn

> <r_epik_Ionization_Penalty>
  0.1503

> <r_epik_Ionization_Penalty_Charging>
  0.1503

> <r_epik_Ionization_Penalty_Neutral>
  0.0000

> <r_epik_State_Penalty>
  0.1391

> <r_epik_Charging_Adjusted_Penalty>
0.289435742797791

> <i_epik_Tot_Q>
4

> <i_epik_Tot_abs_Q>
4

$$$$
