2w78_ligand
                    3D
 Schrodinger Suite 2020-3.
 96 95  0  0  1  0            999 V2000
  -69.9010  -35.8820   20.2420 N   0  3  0  0  0  0
  -70.6310  -36.5940   19.1370 C   0  0  1  0  0  0
  -69.7860  -36.5980   17.8440 C   0  0  0  0  0  0
  -70.1750  -35.9210   16.8560 O   0  0  0  0  0  0
  -71.0670  -38.0010   19.5820 C   0  0  0  0  0  0
  -70.8930  -38.9520   18.5480 O   0  0  0  0  0  0
  -68.6420  -37.3130   17.8750 N   0  0  0  0  0  0
  -67.6360  -37.2850   16.7940 C   0  0  2  0  0  0
  -67.3870  -38.6420   16.1800 C   0  0  0  0  0  0
  -66.5750  -38.7950   15.2420 O   0  0  0  0  0  0
  -66.3080  -36.7050   17.2850 C   0  0  0  0  0  0
  -66.3940  -35.2440   17.7700 C   0  0  0  0  0  0
  -66.6230  -34.2180   16.6610 C   0  0  0  0  0  0
  -67.8150  -33.3620   17.0040 C   0  0  0  0  0  0
  -67.7630  -32.0300   16.3690 N   0  3  0  0  0  0
  -68.0770  -39.6310   16.7350 N   0  0  0  0  0  0
  -68.0510  -40.9950   16.2230 C   0  0  0  0  0  0
  -66.9410  -41.8670   16.7570 C   0  0  0  0  0  0
  -66.6520  -42.9120   16.1690 O   0  0  0  0  0  0
  -65.7340  -43.4120   19.9860 N   0  3  0  0  0  0
  -65.5470  -44.5350   20.9490 C   0  0  2  0  0  0
  -65.1860  -44.1090   22.3640 C   0  0  0  0  0  0
  -65.9480  -44.3830   23.2880 O   0  0  0  0  0  0
  -64.5790  -45.6510   20.4500 C   0  0  0  0  0  0
  -64.0470  -46.6570   21.5230 C   0  0  0  0  0  0
  -65.1220  -47.2770   22.4770 C   0  0  0  0  0  0
  -64.4400  -48.0550   23.5980 C   0  0  0  0  0  0
  -65.0420  -47.9700   24.9800 N   0  0  0  0  0  0
  -64.0330  -43.4770   22.5660 N   0  0  0  0  0  0
  -63.6870  -43.1010   23.9500 C   0  0  2  0  0  0
  -62.5280  -42.1190   24.1000 C   0  0  0  0  0  0
  -63.1720  -40.7530   24.3710 C   0  0  0  0  0  0
  -62.1540  -39.6280   24.2430 C   0  0  0  0  0  0
  -62.6310  -38.5590   23.3790 N   0  3  0  0  0  0
  -63.4560  -38.7480   22.5280 O   0  0  0  0  0  0
  -62.1340  -37.4280   23.5360 C   0  0  0  0  0  0
  -62.4480  -36.4320   22.9130 O   0  0  0  0  0  0
  -63.5880  -44.3630   24.7880 C   0  0  0  0  0  0
  -62.5870  -45.0910   24.7240 O   0  0  0  0  0  0
  -64.6520  -44.6560   25.5380 N   0  0  0  0  0  0
  -64.7310  -45.9030   26.3050 C   0  0  2  0  0  0
  -65.5530  -46.9210   25.5170 C   0  0  0  0  0  0
  -66.7860  -46.8190   25.5400 O   0  0  0  0  0  0
  -65.3890  -45.6480   27.6760 C   0  0  0  0  0  0
  -64.5670  -46.1360   28.7310 O   0  0  0  0  0  0
  -69.6013  -34.8811   19.8980 H   0  0  0  0  0  0
  -69.0057  -36.4574   20.5202 H   0  0  0  0  0  0
  -70.5619  -35.7867   21.1161 H   0  0  0  0  0  0
  -71.5517  -36.0290   18.9293 H   0  0  0  0  0  0
  -70.4647  -38.3149   20.4473 H   0  0  0  0  0  0
  -72.1305  -37.9838   19.8624 H   0  0  0  0  0  0
  -71.1621  -40.0049   18.7182 H   0  0  0  0  0  0
  -68.4771  -37.9400   18.7636 H   0  0  0  0  0  0
  -68.0927  -36.6412   16.0278 H   0  0  0  0  0  0
  -65.9369  -37.3031   18.1303 H   0  0  0  0  0  0
  -65.5725  -36.7297   16.4675 H   0  0  0  0  0  0
  -67.2302  -35.1411   18.4772 H   0  0  0  0  0  0
  -65.4543  -34.9679   18.2707 H   0  0  0  0  0  0
  -65.7317  -33.5811   16.5610 H   0  0  0  0  0  0
  -66.8088  -34.7403   15.7109 H   0  0  0  0  0  0
  -68.7346  -33.8610   16.6644 H   0  0  0  0  0  0
  -67.8590  -33.2140   18.0931 H   0  0  0  0  0  0
  -68.6549  -31.4528   16.6543 H   0  0  0  0  0  0
  -67.7356  -32.1460   15.2755 H   0  0  0  0  0  0
  -66.8598  -31.4990   16.7042 H   0  0  0  0  0  0
  -68.6866  -39.3862   17.6173 H   0  0  0  0  0  0
  -68.9938  -41.5007   16.4788 H   0  0  0  0  0  0
  -67.9311  -40.9741   15.1298 H   0  0  0  0  0  0
  -66.3910  -41.5762   17.6641 H   0  0  0  0  0  0
  -66.4274  -42.6733   20.4144 H   0  0  0  0  0  0
  -66.1488  -43.8015   19.0446 H   0  0  0  0  0  0
  -64.7637  -42.9328   19.7887 H   0  0  0  0  0  0
  -66.5748  -44.9247   20.9913 H   0  0  0  0  0  0
  -65.0876  -46.2659   19.6929 H   0  0  0  0  0  0
  -63.6844  -45.1892   20.0067 H   0  0  0  0  0  0
  -63.5599  -47.5056   21.0204 H   0  0  0  0  0  0
  -63.3194  -46.1490   22.1730 H   0  0  0  0  0  0
  -65.7317  -46.4726   22.9143 H   0  0  0  0  0  0
  -65.7695  -47.9587   21.9060 H   0  0  0  0  0  0
  -64.4362  -49.1268   23.3508 H   0  0  0  0  0  0
  -63.4047  -47.7015   23.7125 H   0  0  0  0  0  0
  -65.0687  -48.8613   25.6241 H   0  0  0  0  0  0
  -63.3463  -43.2336   21.7419 H   0  0  0  0  0  0
  -64.5292  -42.4952   24.3157 H   0  0  0  0  0  0
  -61.8881  -42.4324   24.9380 H   0  0  0  0  0  0
  -61.9368  -42.1051   23.1725 H   0  0  0  0  0  0
  -63.9804  -40.5784   23.6457 H   0  0  0  0  0  0
  -63.5846  -40.7379   25.3906 H   0  0  0  0  0  0
  -61.9510  -39.2024   25.2368 H   0  0  0  0  0  0
  -61.2209  -40.0246   23.8164 H   0  0  0  0  0  0
  -61.3534  -37.3700   24.3088 H   0  0  0  0  0  0
  -65.4825  -43.9356   25.5724 H   0  0  0  0  0  0
  -63.6992  -46.2594   26.4405 H   0  0  0  0  0  0
  -65.5394  -44.5673   27.8152 H   0  0  0  0  0  0
  -66.3608  -46.1618   27.7176 H   0  0  0  0  0  0
  -64.8938  -46.0316   29.7761 H   0  0  0  0  0  0
  1  2  1  0  0  0
  1 46  1  0  0  0
  1 47  1  0  0  0
  1 48  1  0  0  0
  2  3  1  0  0  0
  2  5  1  0  0  0
  2 49  1  0  0  0
  3  4  2  0  0  0
  3  7  1  0  0  0
  5  6  1  0  0  0
  5 50  1  0  0  0
  5 51  1  0  0  0
  6 52  1  0  0  0
  7  8  1  0  0  0
  7 53  1  0  0  0
  8  9  1  0  0  0
  8 11  1  0  0  0
  8 54  1  0  0  0
  9 10  2  0  0  0
  9 16  1  0  0  0
 11 12  1  0  0  0
 11 55  1  0  0  0
 11 56  1  0  0  0
 12 13  1  0  0  0
 12 57  1  0  0  0
 12 58  1  0  0  0
 13 14  1  0  0  0
 13 59  1  0  0  0
 13 60  1  0  0  0
 14 15  1  0  0  0
 14 61  1  0  0  0
 14 62  1  0  0  0
 15 63  1  0  0  0
 15 64  1  0  0  0
 15 65  1  0  0  0
 16 17  1  0  0  0
 16 66  1  0  0  0
 17 18  1  0  0  0
 17 67  1  0  0  0
 17 68  1  0  0  0
 18 19  2  0  0  0
 18 69  1  0  0  0
 20 21  1  0  0  0
 20 70  1  0  0  0
 20 71  1  0  0  0
 20 72  1  0  0  0
 21 22  1  0  0  0
 21 24  1  0  0  0
 21 73  1  0  0  0
 22 23  2  0  0  0
 22 29  1  0  0  0
 24 25  1  0  0  0
 24 74  1  0  0  0
 24 75  1  0  0  0
 25 26  1  0  0  0
 25 76  1  0  0  0
 25 77  1  0  0  0
 26 27  1  0  0  0
 26 78  1  0  0  0
 26 79  1  0  0  0
 27 28  1  0  0  0
 27 80  1  0  0  0
 27 81  1  0  0  0
 28 42  1  0  0  0
 28 82  1  0  0  0
 29 30  1  0  0  0
 29 83  1  0  0  0
 30 31  1  0  0  0
 30 38  1  0  0  0
 30 84  1  0  0  0
 31 32  1  0  0  0
 31 85  1  0  0  0
 31 86  1  0  0  0
 32 33  1  0  0  0
 32 87  1  0  0  0
 32 88  1  0  0  0
 33 34  1  0  0  0
 33 89  1  0  0  0
 33 90  1  0  0  0
 34 35  2  0  0  0
 34 36  1  0  0  0
 36 37  2  0  0  0
 36 91  1  0  0  0
 38 39  2  0  0  0
 38 40  1  0  0  0
 40 41  1  0  0  0
 40 92  1  0  0  0
 41 42  1  0  0  0
 41 44  1  0  0  0
 41 93  1  0  0  0
 42 43  2  0  0  0
 44 45  1  0  0  0
 44 94  1  0  0  0
 44 95  1  0  0  0
 45 96  1  0  0  0
M  CHG  4   1   1  15   1  20   1  34   1
M  END
> <s_m_source_file>
../2w78_ligand.sdf

> <i_m_source_file_index>
1

> <s_epik_input>
W09IXVtDSDJdW0NAQEhdKFtOSDMrXSlDKD1PKVtOSF1bQ0BIXShDKD1PKVtOSF1bQ0gyXVtDSF09TylbQ0gyXVtDSDJdW0NIMl1bQ0gyXVtOSDMrXS5PPVtDSF1bTitdKD1PKVtDSDJdW0NIMl1bQ0gyXVtDQEBIXShbTkhdQyg9TylbQ0BIXTFbTkgzK10pQyg9TylbTkhdW0NAQEhdKFtDSDJdW09IXSlDKD1PKVtOSF1bQ0gyXVtDSDJdW0NIMl1bQ0gyXTE=

> <s_epik_cmdline>
J2VwaWtfYXBwJywgJy1pbWFlJywgJ2xpZ2FuZF9wcm8ubWFlJywgJy1vbWFlJywgJ2xpZ2FuZF9wcmVwLm1hZScsICctbXMnLCAnMScsICctcGgnLCAnNycsICctcGh0JywgJzAuNScsICctbnQn

> <r_lp_tautomer_probability>
1

> <r_epik_Ionization_Penalty>
  0.1881

> <r_epik_Ionization_Penalty_Charging>
  0.1877

> <r_epik_Ionization_Penalty_Neutral>
  0.0005

> <r_epik_State_Penalty>
 -0.0000

> <r_epik_Charging_Adjusted_Penalty>
0.187674807279147

> <i_epik_Tot_Q>
4

> <i_epik_Tot_abs_Q>
4

$$$$
