2w7x_ligand
                    3D
 Schrodinger Suite 2020-3.
 45 47  0  0  1  0            999 V2000
   49.4650  -15.9110   -3.9700 O   0  5  0  0  0  0
   48.8340  -16.8670   -3.5090 N   0  3  0  0  0  0
   49.1030  -17.2620   -2.3750 O   0  0  0  0  0  0
   47.8570  -17.5190   -4.2700 C   0  0  0  0  0  0
   47.1990  -18.6650   -3.8240 C   0  0  0  0  0  0
   47.5500  -17.0170   -5.5230 C   0  0  0  0  0  0
   48.0000  -15.9460   -6.2090 N   0  0  0  0  0  0
   47.3640  -15.8380   -7.4150 C   0  0  3  0  0  0
   46.4910  -16.9040   -7.5370 C   0  0  0  0  0  0
   46.6180  -17.6270   -6.3190 C   0  0  0  0  0  0
   45.9550  -18.7780   -5.8990 C   0  0  0  0  0  0
   46.2480  -19.2920   -4.6330 C   0  0  0  0  0  0
   47.6560  -14.8120   -8.4290 C   0  0  0  0  0  0
   48.5660  -14.0180   -8.2030 O   0  0  0  0  0  0
   46.9240  -14.8250   -9.5420 N   0  0  0  0  0  0
   47.1010  -13.9920  -10.6530 C   0  0  0  0  0  0
   46.2730  -14.2180  -11.7520 C   0  0  0  0  0  0
   46.3850  -13.4850  -12.9010 C   0  0  0  0  0  0
   47.3390  -12.4890  -12.9940 C   0  0  0  0  0  0
   48.1940  -12.2730  -11.9110 C   0  0  0  0  0  0
   48.0760  -13.0180  -10.7380 C   0  0  0  0  0  0
   47.4590  -11.7040  -14.2600 C   0  0  0  0  0  0
   48.0960  -10.3460  -14.2780 C   0  0  0  0  0  0
   47.0600  -12.2280  -15.3470 N   0  0  0  0  0  0
   47.1240  -11.6160  -16.4530 N   0  0  0  0  0  0
   46.6990  -12.2990  -17.5130 C   0  0  0  0  0  0
   46.7110  -11.7970  -18.7250 N   0  0  0  0  0  0
   46.3480  -13.4960  -17.3670 N   0  3  0  0  0  0
   47.4279  -19.0793   -2.8311 H   0  0  0  0  0  0
   45.7964  -17.2543   -8.3147 H   0  0  0  0  0  0
   45.2153  -19.2811   -6.5391 H   0  0  0  0  0  0
   45.7295  -20.1922   -4.2714 H   0  0  0  0  0  0
   46.0926  -15.5378   -9.6452 H   0  0  0  0  0  0
   45.5160  -15.0001  -11.6936 H   0  0  0  0  0  0
   45.7225  -13.6860  -13.7429 H   0  0  0  0  0  0
   48.9674  -11.5084  -11.9839 H   0  0  0  0  0  0
   48.7457  -12.8335   -9.8980 H   0  0  0  0  0  0
   48.3750  -10.0583  -13.2536 H   0  0  0  0  0  0
   47.3839   -9.6124  -14.6839 H   0  0  0  0  0  0
   48.9962  -10.3716  -14.9097 H   0  0  0  0  0  0
   47.5122  -10.5875  -16.4908 H   0  0  0  0  0  0
   47.0138  -10.7516  -18.8843 H   0  0  0  0  0  0
   46.4182  -12.4215  -19.5819 H   0  0  0  0  0  0
   46.3280  -13.9447  -16.3629 H   0  0  0  0  0  0
   46.0606  -14.0957  -18.2432 H   0  0  0  0  0  0
  1  2  1  0  0  0
  2  3  2  0  0  0
  2  4  1  0  0  0
  4  5  2  0  0  0
  4  6  1  0  0  0
  5 12  1  0  0  0
  5 29  1  0  0  0
  6  7  2  0  0  0
  6 10  1  0  0  0
  7  8  1  0  0  0
  8  9  1  0  0  0
  8 13  1  0  0  0
  9 10  2  0  0  0
  9 30  1  0  0  0
 10 11  1  0  0  0
 11 12  2  0  0  0
 11 31  1  0  0  0
 12 32  1  0  0  0
 13 14  2  0  0  0
 13 15  1  0  0  0
 15 16  1  0  0  0
 15 33  1  0  0  0
 16 17  2  0  0  0
 16 21  1  0  0  0
 17 18  1  0  0  0
 17 34  1  0  0  0
 18 19  2  0  0  0
 18 35  1  0  0  0
 19 20  1  0  0  0
 19 22  1  0  0  0
 20 21  2  0  0  0
 20 36  1  0  0  0
 21 37  1  0  0  0
 22 23  1  0  0  0
 22 24  2  0  0  0
 23 38  1  0  0  0
 23 39  1  0  0  0
 23 40  1  0  0  0
 24 25  1  0  0  0
 25 26  1  0  0  0
 25 41  1  0  0  0
 26 27  1  0  0  0
 26 28  2  0  0  0
 27 42  1  0  0  0
 27 43  1  0  0  0
 28 44  1  0  0  0
 28 45  1  0  0  0
M  CHG  3   1  -1   2   1  28   1
M  END
> <s_m_source_file>
../2w7x_ligand.sdf

> <i_m_source_file_index>
1

> <s_epik_input>
W08tXVtOK10oPU8pYzFbY0hdW2NIXVtjSF1jKGMxPTIpPVtDSF1bQ0hdKE4yKUMoPU8pW05IXWMzW2NIXVtjSF1jKFtjSF1bY0hdMykvQyhbQ0gzXSk9Ti9bTkhdL0MoW05IMl0pPU5cW0hd

> <s_epik_cmdline>
J2VwaWtfYXBwJywgJy1pbWFlJywgJ2xpZ2FuZF9wcm8ubWFlJywgJy1vbWFlJywgJ2xpZ2FuZF9wcmVwLm1hZScsICctbXMnLCAnMScsICctcGgnLCAnNycsICctcGh0JywgJzAuNScsICctbnQn

> <r_lp_tautomer_probability>
1

> <r_epik_Ionization_Penalty>
  0.0024

> <r_epik_Ionization_Penalty_Charging>
  0.0009

> <r_epik_Ionization_Penalty_Neutral>
  0.0015

> <r_epik_State_Penalty>
 -0.0000

> <r_epik_Charging_Adjusted_Penalty>
0.000881952153644969

> <i_epik_Tot_Q>
1

> <i_epik_Tot_abs_Q>
3

> <s_epik_Chemistry_Notes>
This compound has an imine and may undergo hydrolysis.

$$$$
