2w7y_ligand
                    3D
 Schrodinger Suite 2020-3.
 71 73  0  0  1  0            999 V2000
   16.3090    1.9070   48.3660 C   0  0  2  0  0  0
   17.1070    0.6710   47.9830 C   0  0  1  0  0  0
   18.5070    1.0900   47.5140 C   0  0  2  0  0  0
   18.4110    2.0100   46.2960 C   0  0  2  0  0  0
   17.5270    3.2110   46.6560 C   0  0  1  0  0  0
   17.3110    4.1380   45.4620 C   0  0  0  0  0  0
   16.9370   -1.5140   49.0610 C   0  0  0  0  0  0
   17.2070   -2.2930   50.3450 C   0  0  0  0  0  0
   16.2270    2.7630   47.1950 O   0  0  0  0  0  0
   19.3030   -0.0650   47.2410 O   0  0  0  0  0  0
   17.8450    1.3030   45.1850 O   0  0  0  0  0  0
   16.3850    5.1580   45.8420 O   0  0  0  0  0  0
   16.4400   -2.0620   48.0770 O   0  0  0  0  0  0
   17.2710   -0.2300   49.1240 N   0  0  0  0  0  0
   16.2640    5.6410   51.5370 C   0  0  2  0  0  0
   16.9550    4.4450   50.8800 C   0  0  1  0  0  0
   15.9750    3.6730   49.9920 C   0  0  2  0  0  0
   14.6530    3.3850   50.7130 C   0  0  2  0  0  0
   14.0990    4.6990   51.2820 C   0  0  1  0  0  0
   12.7680    4.5500   52.0230 C   0  0  0  0  0  0
   17.1040    6.1540   52.5460 O   0  0  0  0  0  0
   18.0360    4.9320   50.1120 O   0  0  0  0  0  0
   16.5750    2.4810   49.5390 O   0  0  0  0  0  0
   14.8800    2.4330   51.7260 O   0  0  0  0  0  0
   15.0510    5.2720   52.1580 O   0  0  0  0  0  0
   12.1110    5.8040   52.0450 O   0  0  0  0  0  0
   19.3040    4.2860   50.3950 C   0  0  1  0  0  0
   20.3890    4.8540   49.4770 C   0  0  2  0  0  0
   20.7520    6.2710   49.9260 C   0  0  1  0  0  0
   21.2180    6.2520   51.3820 C   0  0  1  0  0  0
   20.1370    5.6010   52.2520 C   0  0  2  0  0  0
   20.5720    5.4320   53.7040 C   0  0  0  0  0  0
   19.9200    4.8750   48.1520 O   0  0  0  0  0  0
   21.7260    6.8450   49.0810 O   0  0  0  0  0  0
   22.4360    5.5410   51.4990 O   0  0  0  0  0  0
   19.7380    4.3340   51.7480 O   0  0  0  0  0  0
   15.3004    1.7078   48.7573 H   0  0  0  0  0  0
   16.5475    0.1203   47.2125 H   0  0  0  0  0  0
   19.0567    1.6036   48.3165 H   0  0  0  0  0  0
   19.4077    2.3236   45.9522 H   0  0  0  0  0  0
   18.0247    3.7796   47.4554 H   0  0  0  0  0  0
   18.2703    4.5910   45.1713 H   0  0  0  0  0  0
   16.9075    3.5602   44.6174 H   0  0  0  0  0  0
   16.9038   -3.3415   50.2083 H   0  0  0  0  0  0
   16.6314   -1.8495   51.1708 H   0  0  0  0  0  0
   18.2804   -2.2495   50.5814 H   0  0  0  0  0  0
   19.4630   -0.8204   48.0244 H   0  0  0  0  0  0
   18.3479    0.4087   44.7883 H   0  0  0  0  0  0
   16.0929    5.9331   45.1181 H   0  0  0  0  0  0
   17.6819    0.1506   50.0707 H   0  0  0  0  0  0
   16.0257    6.4294   50.8078 H   0  0  0  0  0  0
   17.3950    3.7657   51.6249 H   0  0  0  0  0  0
   15.7693    4.2374   49.0705 H   0  0  0  0  0  0
   13.9072    2.8978   50.0677 H   0  0  0  0  0  0
   13.9601    5.4053   50.4503 H   0  0  0  0  0  0
   12.1401    3.8109   51.5039 H   0  0  0  0  0  0
   12.9573    4.2118   53.0525 H   0  0  0  0  0  0
   18.1141    6.5086   52.2931 H   0  0  0  0  0  0
   15.2775    1.4401   51.4686 H   0  0  0  0  0  0
   11.1317    5.9033   52.5361 H   0  0  0  0  0  0
   19.0909    3.2146   50.2660 H   0  0  0  0  0  0
   21.2769    4.2054   49.4457 H   0  0  0  0  0  0
   19.8991    6.9537   49.7977 H   0  0  0  0  0  0
   21.4659    7.2638   51.7353 H   0  0  0  0  0  0
   19.2385    6.2325   52.1893 H   0  0  0  0  0  0
   20.8843    6.4059   54.1089 H   0  0  0  0  0  0
   21.4145    4.7266   53.7546 H   0  0  0  0  0  0
   19.7309    5.0416   54.2957 H   0  0  0  0  0  0
   19.6116    3.9393   47.6628 H   0  0  0  0  0  0
   21.5361    6.9296   48.0008 H   0  0  0  0  0  0
   23.3226    5.8729   50.9389 H   0  0  0  0  0  0
  1  2  1  0  0  0
  1  9  1  0  0  0
  1 23  1  0  0  0
  1 37  1  0  0  0
  2  3  1  0  0  0
  2 14  1  0  0  0
  2 38  1  0  0  0
  3  4  1  0  0  0
  3 10  1  0  0  0
  3 39  1  0  0  0
  4  5  1  0  0  0
  4 11  1  0  0  0
  4 40  1  0  0  0
  5  6  1  0  0  0
  5  9  1  0  0  0
  5 41  1  0  0  0
  6 12  1  0  0  0
  6 42  1  0  0  0
  6 43  1  0  0  0
  7  8  1  0  0  0
  7 13  2  0  0  0
  7 14  1  0  0  0
  8 44  1  0  0  0
  8 45  1  0  0  0
  8 46  1  0  0  0
 10 47  1  0  0  0
 11 48  1  0  0  0
 12 49  1  0  0  0
 14 50  1  0  0  0
 15 16  1  0  0  0
 15 21  1  0  0  0
 15 25  1  0  0  0
 15 51  1  0  0  0
 16 17  1  0  0  0
 16 22  1  0  0  0
 16 52  1  0  0  0
 17 18  1  0  0  0
 17 23  1  0  0  0
 17 53  1  0  0  0
 18 19  1  0  0  0
 18 24  1  0  0  0
 18 54  1  0  0  0
 19 20  1  0  0  0
 19 25  1  0  0  0
 19 55  1  0  0  0
 20 26  1  0  0  0
 20 56  1  0  0  0
 20 57  1  0  0  0
 21 58  1  0  0  0
 22 27  1  0  0  0
 24 59  1  0  0  0
 26 60  1  0  0  0
 27 28  1  0  0  0
 27 36  1  0  0  0
 27 61  1  0  0  0
 28 29  1  0  0  0
 28 33  1  0  0  0
 28 62  1  0  0  0
 29 30  1  0  0  0
 29 34  1  0  0  0
 29 63  1  0  0  0
 30 31  1  0  0  0
 30 35  1  0  0  0
 30 64  1  0  0  0
 31 32  1  0  0  0
 31 36  1  0  0  0
 31 65  1  0  0  0
 32 66  1  0  0  0
 32 67  1  0  0  0
 32 68  1  0  0  0
 33 69  1  0  0  0
 34 70  1  0  0  0
 35 71  1  0  0  0
M  END
> <s_m_source_file>
../2w7y_ligand.sdf

> <i_m_source_file_index>
1

> <s_epik_input>
W09IXVtDSDJdW0NAQEhdKE8xKVtDQEhdKFtPSF0pW0NASF0oW09IXSlbQ0BASF0oW05IXUMoPU8pW0NIM10pW0NASF0xT1tDQEBIXShbQ0BASF0oW09IXSlbQ0BIXShPMilbQ0gyXVtPSF0pW0NASF0oW0NAQEhdMltPSF0pT1tDQEhdM1tDQEBIXShbT0hdKVtDQEhdKFtPSF0pW0NASF0oW09IXSlbQ0BASF0oTzMpW0NIM10=

> <s_epik_cmdline>
J2VwaWtfYXBwJywgJy1pbWFlJywgJ2xpZ2FuZF9wcm8ubWFlJywgJy1vbWFlJywgJ2xpZ2FuZF9wcmVwLm1hZScsICctbXMnLCAnMScsICctcGgnLCAnNycsICctcGh0JywgJzAuNScsICctbnQn

> <r_lp_tautomer_probability>
1

> <r_epik_Ionization_Penalty>
  0.0000

> <r_epik_Ionization_Penalty_Charging>
  0.0000

> <r_epik_Ionization_Penalty_Neutral>
  0.0000

> <r_epik_State_Penalty>
 -0.0000

> <r_epik_Charging_Adjusted_Penalty>
0

> <i_epik_Tot_Q>
0

> <i_epik_Tot_abs_Q>
0

> <s_epik_Chemistry_Notes>
This compound contains an acetal/aminal-like group ( X-CH(R)-Y where X, Y are N, S, or O) that may be acid/base labile, releasing an aldehyde.

$$$$
