2w85_ligand
                    3D
 Schrodinger Suite 2020-3.
206208  0  0  1  0            999 V2000
    2.8070   18.7490    3.6930 N   0  3  0  0  0  0
    2.1280   17.8430    4.6360 C   0  0  2  0  0  0
    2.3030   16.3920    4.2010 C   0  0  0  0  0  0
    1.9220   16.0080    3.0950 O   0  0  0  0  0  0
    0.6460   18.2090    4.7120 C   0  0  0  0  0  0
    0.1150   18.4450    3.4200 O   0  0  0  0  0  0
    2.8880   15.5860    5.0790 N   0  0  0  0  0  0
    3.1510   14.1890    4.7720 C   0  0  2  0  0  0
    1.8550   13.3870    4.7800 C   0  0  0  0  0  0
    1.7080   12.4290    4.0290 O   0  0  0  0  0  0
    4.1640   13.6120    5.7650 C   0  0  0  0  0  0
    4.5030   12.1490    5.5200 C   0  0  0  0  0  0
    5.6960   11.6840    6.3290 C   0  0  0  0  0  0
    6.6140   12.4550    6.6010 O   0  0  0  0  0  0
    5.6880   10.4240    6.7220 N   0  0  0  0  0  0
    0.9150   13.7980    5.6220 N   0  0  0  0  0  0
   -0.3970   13.1660    5.6730 C   0  0  2  0  0  0
   -1.0960   13.2800    4.3210 C   0  0  0  0  0  0
   -1.6350   12.3020    3.8030 O   0  0  0  0  0  0
   -1.2720   13.7980    6.7610 C   0  0  0  0  0  0
   -0.6520   13.7750    8.1490 C   0  0  0  0  0  0
    0.2890   14.9390    8.3940 C   0  0  0  0  0  0
    1.4850   14.8290    8.0530 O   0  0  0  0  0  0
   -0.1640   15.9710    8.9220 O   0  0  0  0  0  0
   -1.0590   14.4760    3.7450 N   0  0  0  0  0  0
   -1.6650   14.7190    2.4430 C   0  0  2  0  0  0
   -0.9050   13.9680    1.3540 C   0  0  0  0  0  0
   -1.4730   13.6050    0.3260 O   0  0  0  0  0  0
   -1.6770   16.2160    2.1290 C   0  0  0  0  0  0
   -2.3910   16.5660    0.8330 C   0  0  0  0  0  0
   -2.1240   18.0030    0.4250 C   0  0  0  0  0  0
   -2.8540   18.3630   -0.8590 C   0  0  0  0  0  0
   -2.4190   19.6810   -1.3890 N   0  3  0  0  0  0
    0.3810   13.7310    1.5950 N   0  0  0  0  0  0
    1.2220   12.9960    0.6540 C   0  0  2  0  0  0
    0.7070   11.5700    0.4770 C   0  0  0  0  0  0
    0.7980   11.0040   -0.6090 O   0  0  0  0  0  0
    2.6770   12.9950    1.1420 C   0  0  0  0  0  0
    3.6610   12.4420    0.1510 C   0  0  0  0  0  0
    4.0740   13.2040   -0.9300 C   0  0  0  0  0  0
    4.1850   11.1690    0.3080 C   0  0  0  0  0  0
    4.9860   12.7050   -1.8390 C   0  0  0  0  0  0
    5.0950   10.6650   -0.5980 C   0  0  0  0  0  0
    5.4980   11.4330   -1.6730 C   0  0  0  0  0  0
    0.1330   11.0060    1.5380 N   0  0  0  0  0  0
   -0.4330    9.6630    1.4710 C   0  0  2  0  0  0
   -1.7810    9.6960    0.7570 C   0  0  0  0  0  0
   -2.2070    8.7180    0.1460 O   0  0  0  0  0  0
   -0.6250    9.0730    2.8740 C   0  0  0  0  0  0
    0.6400    8.8930    3.6680 C   0  0  0  0  0  0
    0.8360    9.6030    4.8400 C   0  0  0  0  0  0
    1.6230    8.0110    3.2530 C   0  0  0  0  0  0
    1.9880    9.4350    5.5850 C   0  0  0  0  0  0
    2.7780    7.8400    3.9910 C   0  0  0  0  0  0
    2.9610    8.5530    5.1600 C   0  0  0  0  0  0
   -2.4380   10.8430    0.8270 N   0  0  0  0  0  0
   -3.7990   10.9830    0.3390 C   0  0  2  0  0  0
   -3.8360   11.4360   -1.1180 C   0  0  0  0  0  0
   -4.3270   10.7190   -1.9870 O   0  0  0  0  0  0
   -4.5530   11.9720    1.2250 C   0  0  0  0  0  0
   -4.6690   11.5130    2.6700 C   0  0  0  0  0  0
   -5.2390   12.5820    3.5810 C   0  0  0  0  0  0
   -5.0520   13.7750    3.3450 O   0  0  0  0  0  0
   -5.9360   12.1600    4.6260 N   0  0  0  0  0  0
   -3.2890   12.6180   -1.3760 N   0  0  0  0  0  0
   -3.3290   13.2300   -2.7030 C   0  0  2  0  0  0
   -2.6390   12.3560   -3.7460 C   0  0  0  0  0  0
   -3.1680   12.1320   -4.8370 O   0  0  0  0  0  0
   -2.6550   14.6040   -2.6560 C   0  0  0  0  0  0
   -2.5920   15.3120   -4.0010 C   0  0  0  0  0  0
   -3.9460   15.7880   -4.4790 C   0  0  0  0  0  0
   -4.2020   17.0080   -4.4040 O   0  0  0  0  0  0
   -4.7530   14.9510   -4.9340 O   0  0  0  0  0  0
   -1.4640   11.8560   -3.3990 N   0  0  0  0  0  0
   -0.6470   11.1130   -4.3450 C   0  0  2  0  0  0
   -1.2870    9.7740   -4.7080 C   0  0  0  0  0  0
   -1.1260    9.2890   -5.8260 O   0  0  0  0  0  0
    0.7540   10.8900   -3.7710 C   0  0  0  0  0  0
    1.7750   10.2970   -4.7450 C   0  0  0  0  0  0
    2.0090   11.2370   -5.9160 C   0  0  0  0  0  0
    3.0830   10.0070   -4.0300 C   0  0  0  0  0  0
   -2.0270    9.1870   -3.7750 N   0  0  0  0  0  0
   -2.6290    7.8820   -4.0140 C   0  0  2  0  0  0
   -4.0440    8.0310   -4.5730 C   0  0  0  0  0  0
   -4.6100    7.0820   -5.1160 O   0  0  0  0  0  0
   -2.6550    7.0460   -2.7320 C   0  0  0  0  0  0
   -2.6630    5.5730   -3.0020 C   0  0  0  0  0  0
   -3.8520    4.8760   -3.1450 C   0  0  0  0  0  0
   -1.4710    4.8860   -3.1260 C   0  0  0  0  0  0
   -3.8470    3.5210   -3.4130 C   0  0  0  0  0  0
   -1.4600    3.5350   -3.3890 C   0  0  0  0  0  0
   -2.6470    2.8500   -3.5320 C   0  0  0  0  0  0
   -4.6120    9.2250   -4.4310 N   0  0  0  0  0  0
   -5.9330    9.5150   -4.9860 C   0  0  2  0  0  0
   -5.9210    9.3130   -6.4960 C   0  0  0  0  0  0
   -6.8370    8.7170   -7.0690 O   0  0  0  0  0  0
   -6.3520   10.9520   -4.6560 C   0  0  0  0  0  0
   -7.6500   11.3490   -5.3310 C   0  0  0  0  0  0
   -7.6000   11.8620   -6.4720 O   0  0  0  0  0  0
   -8.7240   11.1530   -4.7260 O   0  0  0  0  0  0
   -4.8660    9.8090   -7.1230 N   0  0  0  0  0  0
   -4.6730    9.6610   -8.5550 C   0  0  2  0  0  0
   -3.1910    9.4800   -8.8530 C   0  0  0  0  0  0
   -2.4400   10.4770   -8.7690 O   0  0  0  0  0  0
   -5.2180   10.8840   -9.3010 C   0  0  0  0  0  0
   -6.5910   11.1040   -9.0010 O   0  0  0  0  0  0
   -2.7780    8.3390   -9.1490 O   0  0  0  0  0  0
    3.8739   18.4872    3.6368 H   0  0  0  0  0  0
    2.7020   19.7870    4.0417 H   0  0  0  0  0  0
    2.3520   18.6491    2.6965 H   0  0  0  0  0  0
    2.6023   17.9782    5.6193 H   0  0  0  0  0  0
    0.0878   17.3833    5.1776 H   0  0  0  0  0  0
    0.5239   19.1204    5.3157 H   0  0  0  0  0  0
   -0.9435   18.7201    3.3022 H   0  0  0  0  0  0
    3.1753   15.9976    6.0578 H   0  0  0  0  0  0
    3.5747   14.1750    3.7570 H   0  0  0  0  0  0
    5.1043   14.1792    5.7007 H   0  0  0  0  0  0
    3.7602   13.6860    6.7855 H   0  0  0  0  0  0
    3.6425   11.5220    5.7965 H   0  0  0  0  0  0
    4.7381   12.0003    4.4558 H   0  0  0  0  0  0
    4.8448    9.7700    6.4551 H   0  0  0  0  0  0
    6.5245   10.0280    7.3164 H   0  0  0  0  0  0
    1.1470   14.6386    6.2925 H   0  0  0  0  0  0
   -0.1965   12.1116    5.9140 H   0  0  0  0  0  0
   -1.4647   14.8516    6.5105 H   0  0  0  0  0  0
   -2.2269   13.2557    6.8245 H   0  0  0  0  0  0
   -1.4479   13.8222    8.9069 H   0  0  0  0  0  0
   -0.0770   12.8462    8.2784 H   0  0  0  0  0  0
    2.1839   15.6615    8.2218 H   0  0  0  0  0  0
   -0.5536   15.2949    4.2779 H   0  0  0  0  0  0
   -2.6936   14.3369    2.5197 H   0  0  0  0  0  0
   -2.1881   16.7565    2.9393 H   0  0  0  0  0  0
   -0.6429   16.5804    2.0405 H   0  0  0  0  0  0
   -2.0377   15.9034    0.0292 H   0  0  0  0  0  0
   -3.4753   16.4362    0.9651 H   0  0  0  0  0  0
   -2.4666   18.6800    1.2215 H   0  0  0  0  0  0
   -1.0451   18.1438    0.2630 H   0  0  0  0  0  0
   -2.6500   17.5987   -1.6234 H   0  0  0  0  0  0
   -3.9359   18.4083   -0.6654 H   0  0  0  0  0  0
   -2.9691   19.9034   -2.3152 H   0  0  0  0  0  0
   -1.3400   19.6529   -1.6011 H   0  0  0  0  0  0
   -2.6258   20.4625   -0.6430 H   0  0  0  0  0  0
    0.8079   14.1071    2.5364 H   0  0  0  0  0  0
    1.1461   13.5268   -0.3064 H   0  0  0  0  0  0
    2.9897   14.0258    1.3649 H   0  0  0  0  0  0
    2.7581   12.3824    2.0520 H   0  0  0  0  0  0
    3.6744   14.2091   -1.0645 H   0  0  0  0  0  0
    3.8748   10.5592    1.1566 H   0  0  0  0  0  0
    5.3013   13.3140   -2.6862 H   0  0  0  0  0  0
    5.4962    9.6602   -0.4655 H   0  0  0  0  0  0
    6.2182   11.0362   -2.3885 H   0  0  0  0  0  0
    0.0908   11.5743    2.4789 H   0  0  0  0  0  0
    0.2997    9.0717    0.9023 H   0  0  0  0  0  0
   -1.2753    9.7352    3.4644 H   0  0  0  0  0  0
   -1.0898    8.0793    2.7935 H   0  0  0  0  0  0
    0.0726   10.3031    5.1795 H   0  0  0  0  0  0
    1.4838    7.4444    2.3323 H   0  0  0  0  0  0
    2.1280    9.9986    6.5074 H   0  0  0  0  0  0
    3.5443    7.1432    3.6514 H   0  0  0  0  0  0
    3.8710    8.4195    5.7450 H   0  0  0  0  0  0
   -1.9216   11.7065    1.2716 H   0  0  0  0  0  0
   -4.2394    9.9770    0.4031 H   0  0  0  0  0  0
   -4.0282   12.9387    1.2244 H   0  0  0  0  0  0
   -5.5731   12.1084    0.8366 H   0  0  0  0  0  0
   -5.3316   10.6366    2.7243 H   0  0  0  0  0  0
   -3.6726   11.2434    3.0502 H   0  0  0  0  0  0
   -6.0758   11.0821    4.7949 H   0  0  0  0  0  0
   -6.3747   12.8876    5.3246 H   0  0  0  0  0  0
   -2.7918   13.1393   -0.5447 H   0  0  0  0  0  0
   -4.3964   13.3152   -2.9547 H   0  0  0  0  0  0
   -3.2098   15.2612   -1.9702 H   0  0  0  0  0  0
   -1.6201   14.4928   -2.3003 H   0  0  0  0  0  0
   -1.9362   16.1916   -3.9220 H   0  0  0  0  0  0
   -2.1918   14.6232   -4.7596 H   0  0  0  0  0  0
   -5.1773   17.3872   -4.7430 H   0  0  0  0  0  0
   -1.1088   12.0126   -2.3698 H   0  0  0  0  0  0
   -0.6036   11.7480   -5.2421 H   0  0  0  0  0  0
    1.1685   11.8508   -3.4320 H   0  0  0  0  0  0
    0.6954   10.1953   -2.9201 H   0  0  0  0  0  0
    1.3781    9.3500   -5.1396 H   0  0  0  0  0  0
    1.0532   11.4367   -6.4225 H   0  0  0  0  0  0
    2.7096   10.7720   -6.6251 H   0  0  0  0  0  0
    2.4335   12.1827   -5.5479 H   0  0  0  0  0  0
    2.8966    9.3262   -3.1863 H   0  0  0  0  0  0
    3.5119   10.9477   -3.6543 H   0  0  0  0  0  0
    3.7880    9.5370   -4.7315 H   0  0  0  0  0  0
   -2.1834    9.6970   -2.8130 H   0  0  0  0  0  0
   -1.9782    7.4027   -4.7602 H   0  0  0  0  0  0
   -1.7639    7.2728   -2.1283 H   0  0  0  0  0  0
   -3.5599    7.2874   -2.1551 H   0  0  0  0  0  0
   -4.8012    5.4025   -3.0450 H   0  0  0  0  0  0
   -0.5276    5.4204   -3.0142 H   0  0  0  0  0  0
   -4.7879    2.9834   -3.5301 H   0  0  0  0  0  0
   -0.5115    3.0065   -3.4842 H   0  0  0  0  0  0
   -2.6382    1.7798   -3.7388 H   0  0  0  0  0  0
   -4.0636   10.0037   -3.8806 H   0  0  0  0  0  0
   -6.6237    8.8009   -4.5137 H   0  0  0  0  0  0
   -6.4912   11.0530   -3.5695 H   0  0  0  0  0  0
   -5.5695   11.6484   -4.9917 H   0  0  0  0  0  0
   -8.5279   12.1586   -6.9828 H   0  0  0  0  0  0
   -4.1207   10.3489   -6.5205 H   0  0  0  0  0  0
   -5.2351    8.7620   -8.8481 H   0  0  0  0  0  0
   -1.3650   10.3751   -8.9788 H   0  0  0  0  0  0
   -4.6482   11.7774   -9.0059 H   0  0  0  0  0  0
   -5.1179   10.7269  -10.3851 H   0  0  0  0  0  0
   -7.1262   11.9476   -9.4613 H   0  0  0  0  0  0
  1  2  1  0  0  0
  1108  1  0  0  0
  1109  1  0  0  0
  1110  1  0  0  0
  2  3  1  0  0  0
  2  5  1  0  0  0
  2111  1  0  0  0
  3  4  2  0  0  0
  3  7  1  0  0  0
  5  6  1  0  0  0
  5112  1  0  0  0
  5113  1  0  0  0
  6114  1  0  0  0
  7  8  1  0  0  0
  7115  1  0  0  0
  8  9  1  0  0  0
  8 11  1  0  0  0
  8116  1  0  0  0
  9 10  2  0  0  0
  9 16  1  0  0  0
 11 12  1  0  0  0
 11117  1  0  0  0
 11118  1  0  0  0
 12 13  1  0  0  0
 12119  1  0  0  0
 12120  1  0  0  0
 13 14  2  0  0  0
 13 15  1  0  0  0
 15121  1  0  0  0
 15122  1  0  0  0
 16 17  1  0  0  0
 16123  1  0  0  0
 17 18  1  0  0  0
 17 20  1  0  0  0
 17124  1  0  0  0
 18 19  2  0  0  0
 18 25  1  0  0  0
 20 21  1  0  0  0
 20125  1  0  0  0
 20126  1  0  0  0
 21 22  1  0  0  0
 21127  1  0  0  0
 21128  1  0  0  0
 22 23  1  0  0  0
 22 24  2  0  0  0
 23129  1  0  0  0
 25 26  1  0  0  0
 25130  1  0  0  0
 26 27  1  0  0  0
 26 29  1  0  0  0
 26131  1  0  0  0
 27 28  2  0  0  0
 27 34  1  0  0  0
 29 30  1  0  0  0
 29132  1  0  0  0
 29133  1  0  0  0
 30 31  1  0  0  0
 30134  1  0  0  0
 30135  1  0  0  0
 31 32  1  0  0  0
 31136  1  0  0  0
 31137  1  0  0  0
 32 33  1  0  0  0
 32138  1  0  0  0
 32139  1  0  0  0
 33140  1  0  0  0
 33141  1  0  0  0
 33142  1  0  0  0
 34 35  1  0  0  0
 34143  1  0  0  0
 35 36  1  0  0  0
 35 38  1  0  0  0
 35144  1  0  0  0
 36 37  2  0  0  0
 36 45  1  0  0  0
 38 39  1  0  0  0
 38145  1  0  0  0
 38146  1  0  0  0
 39 40  2  0  0  0
 39 41  1  0  0  0
 40 42  1  0  0  0
 40147  1  0  0  0
 41 43  2  0  0  0
 41148  1  0  0  0
 42 44  2  0  0  0
 42149  1  0  0  0
 43 44  1  0  0  0
 43150  1  0  0  0
 44151  1  0  0  0
 45 46  1  0  0  0
 45152  1  0  0  0
 46 47  1  0  0  0
 46 49  1  0  0  0
 46153  1  0  0  0
 47 48  2  0  0  0
 47 56  1  0  0  0
 49 50  1  0  0  0
 49154  1  0  0  0
 49155  1  0  0  0
 50 51  2  0  0  0
 50 52  1  0  0  0
 51 53  1  0  0  0
 51156  1  0  0  0
 52 54  2  0  0  0
 52157  1  0  0  0
 53 55  2  0  0  0
 53158  1  0  0  0
 54 55  1  0  0  0
 54159  1  0  0  0
 55160  1  0  0  0
 56 57  1  0  0  0
 56161  1  0  0  0
 57 58  1  0  0  0
 57 60  1  0  0  0
 57162  1  0  0  0
 58 59  2  0  0  0
 58 65  1  0  0  0
 60 61  1  0  0  0
 60163  1  0  0  0
 60164  1  0  0  0
 61 62  1  0  0  0
 61165  1  0  0  0
 61166  1  0  0  0
 62 63  2  0  0  0
 62 64  1  0  0  0
 64167  1  0  0  0
 64168  1  0  0  0
 65 66  1  0  0  0
 65169  1  0  0  0
 66 67  1  0  0  0
 66 69  1  0  0  0
 66170  1  0  0  0
 67 68  2  0  0  0
 67 74  1  0  0  0
 69 70  1  0  0  0
 69171  1  0  0  0
 69172  1  0  0  0
 70 71  1  0  0  0
 70173  1  0  0  0
 70174  1  0  0  0
 71 72  1  0  0  0
 71 73  2  0  0  0
 72175  1  0  0  0
 74 75  1  0  0  0
 74176  1  0  0  0
 75 76  1  0  0  0
 75 78  1  0  0  0
 75177  1  0  0  0
 76 77  2  0  0  0
 76 82  1  0  0  0
 78 79  1  0  0  0
 78178  1  0  0  0
 78179  1  0  0  0
 79 80  1  0  0  0
 79 81  1  0  0  0
 79180  1  0  0  0
 80181  1  0  0  0
 80182  1  0  0  0
 80183  1  0  0  0
 81184  1  0  0  0
 81185  1  0  0  0
 81186  1  0  0  0
 82 83  1  0  0  0
 82187  1  0  0  0
 83 84  1  0  0  0
 83 86  1  0  0  0
 83188  1  0  0  0
 84 85  2  0  0  0
 84 93  1  0  0  0
 86 87  1  0  0  0
 86189  1  0  0  0
 86190  1  0  0  0
 87 88  2  0  0  0
 87 89  1  0  0  0
 88 90  1  0  0  0
 88191  1  0  0  0
 89 91  2  0  0  0
 89192  1  0  0  0
 90 92  2  0  0  0
 90193  1  0  0  0
 91 92  1  0  0  0
 91194  1  0  0  0
 92195  1  0  0  0
 93 94  1  0  0  0
 93196  1  0  0  0
 94 95  1  0  0  0
 94 97  1  0  0  0
 94197  1  0  0  0
 95 96  2  0  0  0
 95101  1  0  0  0
 97 98  1  0  0  0
 97198  1  0  0  0
 97199  1  0  0  0
 98 99  1  0  0  0
 98100  2  0  0  0
 99200  1  0  0  0
101102  1  0  0  0
101201  1  0  0  0
102103  1  0  0  0
102105  1  0  0  0
102202  1  0  0  0
103104  1  0  0  0
103107  2  0  0  0
104203  1  0  0  0
105106  1  0  0  0
105204  1  0  0  0
105205  1  0  0  0
106206  1  0  0  0
M  CHG  2   1   1  33   1
M  END
> <s_m_source_file>
../2w85_ligand.sdf

> <i_m_source_file_index>
1

> <s_epik_input>
W09IXVtDSDJdW0NASF0oW05IMytdKUMoPU8pW05IXVtDQEBIXShbQ0gyXVtDSDJdQyg9TylbTkgyXSlDKD1PKVtOSF1bQ0BASF0oW0NIMl1bQ0gyXUMoPU8pW09IXSlDKD1PKVtOSF1bQ0BASF0oW0NIMl1bQ0gyXVtDSDJdW0NIMl1bTkgzK10pQyg9TylbTkhdW0NAQEhdKFtDSDJdYzFbY0hdW2NIXVtjSF1bY0hdW2NIXTEpQyg9TylbTkhdW0NAQEhdKFtDSDJdYzJbY0hdW2NIXVtjSF1bY0hdW2NIXTIpQyg9TylbTkhdW0NAQEhdKFtDSDJdW0NIMl1DKD1PKVtOSDJdKUMoPU8pW05IXVtDQEBIXShbQ0gyXVtDSDJdQyg9TylbT0hdKUMoPU8pW05IXVtDQEBIXShbQ0gyXVtDSF0oW0NIM10pW0NIM10pQyg9TylbTkhdW0NAQEhdKFtDSDJdYzNbY0hdW2NIXVtjSF1bY0hdW2NIXTMpQyg9TylbTkhdW0NAQEhdKFtDSDJdQyg9TylbT0hdKUMoPU8pW05IXVtDQEhdKEMoPU8pW09IXSlbQ0gyXVtPSF0=

> <s_epik_cmdline>
J2VwaWtfYXBwJywgJy1pbWFlJywgJ2xpZ2FuZF9wcm8ubWFlJywgJy1vbWFlJywgJ2xpZ2FuZF9wcmVwLm1hZScsICctbXMnLCAnMScsICctcGgnLCAnNycsICctcGh0JywgJzAuNScsICctbnQn

> <s_epik_pKa_notes>
Molecule size exceeds maximum supported for generating protonation states

$$$$
