2w8f_ligand
                    3D
 Schrodinger Suite 2020-3.
 56 60  0  0  1  0            999 V2000
   46.2040   35.6470   54.2390 C   0  0  0  0  0  0
   45.8010   37.0180   54.6210 N   0  3  0  0  0  0
   46.2310   37.9790   53.6000 C   0  0  0  0  0  0
   46.3070   37.5010   55.9200 C   0  0  1  0  0  0
   45.4370   38.7260   56.2010 C   0  0  0  0  0  0
   44.1450   38.4860   55.3990 C   0  0  0  0  0  0
   44.3490   37.1040   54.7610 C   0  0  2  0  0  0
   46.0910   36.4710   57.0340 C   0  0  0  0  0  0
   44.7630   35.6780   56.9510 C   0  0  1  0  0  0
   43.8630   35.9740   55.6890 C   0  0  0  0  0  0
   44.9780   34.2700   57.1250 O   0  0  0  0  0  0
   44.1200   33.7280   58.1500 C   0  0  0  0  0  0
   42.9120   33.1010   57.5170 C   0  0  0  0  0  0
   41.7580   33.9010   57.4940 C   0  0  0  0  0  0
   40.5590   33.4560   56.9280 C   0  0  0  0  0  0
   40.4940   32.1800   56.3700 C   0  0  0  0  0  0
   41.6340   31.3740   56.3810 C   0  0  0  0  0  0
   42.8460   31.8100   56.9380 C   0  0  0  0  0  0
   43.9680   30.7830   56.8650 C   0  0  0  0  0  0
   45.3720   31.3030   57.1630 C   0  0  0  0  0  0
   45.4560   31.6360   58.6270 C   0  0  0  0  0  0
   46.1340   30.7660   59.4960 C   0  0  0  0  0  0
   46.2070   31.0740   60.8550 C   0  0  0  0  0  0
   45.5980   32.2480   61.3180 C   0  0  0  0  0  0
   44.9180   33.1120   60.4480 C   0  0  0  0  0  0
   44.8440   32.8070   59.0850 C   0  0  0  0  0  0
   47.2984   35.6012   54.1383 H   0  0  0  0  0  0
   45.7361   35.3812   53.2796 H   0  0  0  0  0  0
   45.8772   34.9392   55.0150 H   0  0  0  0  0  0
   47.3235   37.9257   53.4833 H   0  0  0  0  0  0
   45.9443   38.9951   53.9090 H   0  0  0  0  0  0
   45.7477   37.7370   52.6420 H   0  0  0  0  0  0
   47.3875   37.6965   55.8548 H   0  0  0  0  0  0
   45.2388   38.7950   57.2808 H   0  0  0  0  0  0
   45.9615   39.6329   55.8658 H   0  0  0  0  0  0
   43.2819   38.5026   56.0807 H   0  0  0  0  0  0
   44.0304   39.2768   54.6430 H   0  0  0  0  0  0
   43.8333   36.9917   53.7959 H   0  0  0  0  0  0
   46.9015   35.7277   57.0083 H   0  0  0  0  0  0
   46.0911   36.9800   58.0091 H   0  0  0  0  0  0
   44.1903   35.9621   57.8461 H   0  0  0  0  0  0
   42.8648   36.2230   56.0782 H   0  0  0  0  0  0
   43.8115   35.0318   55.1236 H   0  0  0  0  0  0
   43.8021   34.5831   58.7646 H   0  0  0  0  0  0
   41.7980   34.8990   57.9305 H   0  0  0  0  0  0
   39.6813   34.1024   56.9232 H   0  0  0  0  0  0
   39.5651   31.8163   55.9308 H   0  0  0  0  0  0
   41.5810   30.3768   55.9441 H   0  0  0  0  0  0
   43.7787   29.9807   57.5934 H   0  0  0  0  0  0
   44.0092   30.3563   55.8520 H   0  0  0  0  0  0
   46.1111   30.5283   56.9110 H   0  0  0  0  0  0
   45.5649   32.2034   56.5613 H   0  0  0  0  0  0
   46.5992   29.8580   59.1123 H   0  0  0  0  0  0
   46.7295   30.4119   61.5455 H   0  0  0  0  0  0
   45.6542   32.4950   62.3781 H   0  0  0  0  0  0
   44.4489   34.0177   60.8323 H   0  0  0  0  0  0
  1  2  1  0  0  0
  1 27  1  0  0  0
  1 28  1  0  0  0
  1 29  1  0  0  0
  2  3  1  0  0  0
  2  4  1  0  0  0
  2  7  1  0  0  0
  3 30  1  0  0  0
  3 31  1  0  0  0
  3 32  1  0  0  0
  4  5  1  0  0  0
  4  8  1  0  0  0
  4 33  1  0  0  0
  5  6  1  0  0  0
  5 34  1  0  0  0
  5 35  1  0  0  0
  6  7  1  0  0  0
  6 36  1  0  0  0
  6 37  1  0  0  0
  7 10  1  0  0  0
  7 38  1  0  0  0
  8  9  1  0  0  0
  8 39  1  0  0  0
  8 40  1  0  0  0
  9 10  1  0  0  0
  9 11  1  0  0  0
  9 41  1  0  0  0
 10 42  1  0  0  0
 10 43  1  0  0  0
 11 12  1  0  0  0
 12 13  1  0  0  0
 12 26  1  0  0  0
 12 44  1  0  0  0
 13 14  2  0  0  0
 13 18  1  0  0  0
 14 15  1  0  0  0
 14 45  1  0  0  0
 15 16  2  0  0  0
 15 46  1  0  0  0
 16 17  1  0  0  0
 16 47  1  0  0  0
 17 18  2  0  0  0
 17 48  1  0  0  0
 18 19  1  0  0  0
 19 20  1  0  0  0
 19 49  1  0  0  0
 19 50  1  0  0  0
 20 21  1  0  0  0
 20 51  1  0  0  0
 20 52  1  0  0  0
 21 22  2  0  0  0
 21 26  1  0  0  0
 22 23  1  0  0  0
 22 53  1  0  0  0
 23 24  2  0  0  0
 23 54  1  0  0  0
 24 25  1  0  0  0
 24 55  1  0  0  0
 25 26  2  0  0  0
 25 56  1  0  0  0
M  CHG  1   2   1
M  END
> <s_m_source_file>
../2w8f_ligand.sdf

> <i_m_source_file_index>
1

> <s_epik_input>
W0NIM11bTitdKFtDSDNdKShbQ0BASF0xMilbQ0BIXShbQ0gyXVtDSDJdMSlbQ0gyXVtDQEhdKFtDSDJdMilPW0NIXTNjKFtjSF1bY0hdW2NIXVtjSF00KWM0W0NIMl1bQ0gyXWMoYzM1KVtjSF1bY0hdW2NIXVtjSF01

> <s_epik_cmdline>
J2VwaWtfYXBwJywgJy1pbWFlJywgJ2xpZ2FuZF9wcm8ubWFlJywgJy1vbWFlJywgJ2xpZ2FuZF9wcmVwLm1hZScsICctbXMnLCAnMScsICctcGgnLCAnNycsICctcGh0JywgJzAuNScsICctbnQn

> <r_lp_tautomer_probability>
1

> <r_epik_Ionization_Penalty>
  0.0000

> <r_epik_Ionization_Penalty_Charging>
  0.0000

> <r_epik_Ionization_Penalty_Neutral>
  0.0000

> <r_epik_State_Penalty>
 -0.0000

> <r_epik_Charging_Adjusted_Penalty>
0

> <i_epik_Tot_Q>
1

> <i_epik_Tot_abs_Q>
1

$$$$
