2w8g_ligand
                    3D
 Schrodinger Suite 2020-3.
 63 68  0  0  1  0            999 V2000
   53.5640  -26.9000    4.3750 C   0  0  0  0  0  0
   53.0620  -25.8280    5.0800 C   0  0  0  0  0  0
   52.2320  -24.9290    4.4450 C   0  0  0  0  0  0
   51.9100  -25.0920    3.1100 C   0  0  0  0  0  0
   52.4260  -26.1550    2.3930 C   0  0  0  0  0  0
   53.2270  -27.0710    3.0590 C   0  0  0  0  0  0
   53.7640  -28.2000    2.1930 C   0  0  0  0  0  0
   55.2070  -27.7710    1.8660 C   0  0  0  0  0  0
   56.1320  -28.1320    3.0450 C   0  0  0  0  0  0
   57.3960  -28.4800    2.5380 C   0  0  0  0  0  0
   58.4050  -28.8680    3.4150 C   0  0  0  0  0  0
   58.1280  -28.8910    4.7850 C   0  0  0  0  0  0
   56.8560  -28.5540    5.2850 C   0  0  0  0  0  0
   55.8260  -28.1750    4.4240 C   0  0  0  0  0  0
   54.4850  -27.8200    5.2110 C   0  0  0  0  0  0
   53.6620  -28.8960    5.8170 O   0  0  0  0  0  0
   52.3820  -28.5090    6.4330 C   0  0  2  0  0  0
   52.5140  -28.1470    7.9220 C   0  0  0  0  0  0
   51.3750  -29.6570    6.3320 C   0  0  0  0  0  0
   51.8360  -30.8160    7.2380 C   0  0  1  0  0  0
   53.3470  -31.0720    7.0140 C   0  0  0  0  0  0
   54.0240  -30.1070    8.0290 C   0  0  0  0  0  0
   52.8700  -29.3970    8.7330 C   0  0  2  0  0  0
   51.7920  -30.4100    8.6620 N   0  3  2  0  0  0
   52.2220  -31.4950    9.5720 C   0  0  0  0  0  0
   51.7410  -32.9180    9.2540 C   0  0  0  0  0  0
   50.4800  -33.1680    8.7290 C   0  0  0  0  0  0
   50.0570  -34.4690    8.4780 C   0  0  0  0  0  0
   50.8970  -35.5200    8.7740 C   0  0  0  0  0  0
   52.1430  -35.2860    9.3180 C   0  0  0  0  0  0
   52.5750  -33.9910    9.5580 C   0  0  0  0  0  0
   53.3189  -25.6919    6.1305 H   0  0  0  0  0  0
   51.8263  -24.0829    4.9996 H   0  0  0  0  0  0
   51.2463  -24.3789    2.6210 H   0  0  0  0  0  0
   52.2090  -26.2706    1.3311 H   0  0  0  0  0  0
   53.7316  -29.1430    2.7584 H   0  0  0  0  0  0
   53.1459  -28.2937    1.2879 H   0  0  0  0  0  0
   55.5483  -28.2930    0.9599 H   0  0  0  0  0  0
   55.2371  -26.6845    1.6965 H   0  0  0  0  0  0
   57.5849  -28.4463    1.4650 H   0  0  0  0  0  0
   59.3900  -29.1479    3.0415 H   0  0  0  0  0  0
   58.9155  -29.1766    5.4825 H   0  0  0  0  0  0
   56.6735  -28.5897    6.3590 H   0  0  0  0  0  0
   54.8522  -27.3545    6.1375 H   0  0  0  0  0  0
   52.0772  -27.6261    5.8519 H   0  0  0  0  0  0
   53.3070  -27.3951    8.0476 H   0  0  0  0  0  0
   51.5599  -27.7380    8.2859 H   0  0  0  0  0  0
   50.3846  -29.3056    6.6569 H   0  0  0  0  0  0
   51.3173  -30.0035    5.2896 H   0  0  0  0  0  0
   51.1761  -31.6747    7.0451 H   0  0  0  0  0  0
   53.5745  -32.1282    7.2205 H   0  0  0  0  0  0
   53.6080  -30.8378    5.9714 H   0  0  0  0  0  0
   54.6342  -30.6879    8.7363 H   0  0  0  0  0  0
   54.6665  -29.3971    7.4875 H   0  0  0  0  0  0
   53.0535  -29.0870    9.7723 H   0  0  0  0  0  0
   50.7778  -30.0976    8.9515 H   0  0  0  0  0  0
   53.3204  -31.5538    9.5791 H   0  0  0  0  0  0
   51.8594  -31.2857   10.5892 H   0  0  0  0  0  0
   49.8131  -32.3339    8.5108 H   0  0  0  0  0  0
   49.0713  -34.6550    8.0516 H   0  0  0  0  0  0
   50.5752  -36.5427    8.5772 H   0  0  0  0  0  0
   52.7931  -36.1264    9.5611 H   0  0  0  0  0  0
   53.5630  -33.8133    9.9827 H   0  0  0  0  0  0
  1  2  2  0  0  0
  1  6  1  0  0  0
  1 15  1  0  0  0
  2  3  1  0  0  0
  2 32  1  0  0  0
  3  4  2  0  0  0
  3 33  1  0  0  0
  4  5  1  0  0  0
  4 34  1  0  0  0
  5  6  2  0  0  0
  5 35  1  0  0  0
  6  7  1  0  0  0
  7  8  1  0  0  0
  7 36  1  0  0  0
  7 37  1  0  0  0
  8  9  1  0  0  0
  8 38  1  0  0  0
  8 39  1  0  0  0
  9 10  2  0  0  0
  9 14  1  0  0  0
 10 11  1  0  0  0
 10 40  1  0  0  0
 11 12  2  0  0  0
 11 41  1  0  0  0
 12 13  1  0  0  0
 12 42  1  0  0  0
 13 14  2  0  0  0
 13 43  1  0  0  0
 14 15  1  0  0  0
 15 16  1  0  0  0
 15 44  1  0  0  0
 16 17  1  0  0  0
 17 18  1  0  0  0
 17 19  1  0  0  0
 17 45  1  0  0  0
 18 23  1  0  0  0
 18 46  1  0  0  0
 18 47  1  0  0  0
 19 20  1  0  0  0
 19 48  1  0  0  0
 19 49  1  0  0  0
 20 21  1  0  0  0
 20 24  1  0  0  0
 20 50  1  0  0  0
 21 22  1  0  0  0
 21 51  1  0  0  0
 21 52  1  0  0  0
 22 23  1  0  0  0
 22 53  1  0  0  0
 22 54  1  0  0  0
 23 24  1  0  0  0
 23 55  1  0  0  0
 24 25  1  0  0  0
 24 56  1  0  0  0
 25 26  1  0  0  0
 25 57  1  0  0  0
 25 58  1  0  0  0
 26 27  2  0  0  0
 26 31  1  0  0  0
 27 28  1  0  0  0
 27 59  1  0  0  0
 28 29  2  0  0  0
 28 60  1  0  0  0
 29 30  1  0  0  0
 29 61  1  0  0  0
 30 31  2  0  0  0
 30 62  1  0  0  0
 31 63  1  0  0  0
M  CHG  1  24   1
M  END
> <s_m_source_file>
../2w8g_ligand.sdf

> <i_m_source_file_index>
1

> <s_epik_input>
W2NIXTFbY0hdW2NIXVtjSF1jKGMxMilbQ0gyXVtDSDJdYzNjKFtjSF1bY0hdW2NIXVtjSF0zKVtDSF0yT1tDQEBIXShbQ0gyXVtDQEBIXTQ1KVtDSDJdW0NASF0oW0NIMl1bQ0gyXTQpW05AQEgrXTVbQ0gyXWM2W2NIXVtjSF1bY0hdW2NIXVtjSF02

> <s_epik_cmdline>
J2VwaWtfYXBwJywgJy1pbWFlJywgJ2xpZ2FuZF9wcm8ubWFlJywgJy1vbWFlJywgJ2xpZ2FuZF9wcmVwLm1hZScsICctbXMnLCAnMScsICctcGgnLCAnNycsICctcGh0JywgJzAuNScsICctbnQn

> <r_lp_tautomer_probability>
1

> <r_epik_Ionization_Penalty>
  0.0081

> <r_epik_Ionization_Penalty_Charging>
  0.0081

> <r_epik_Ionization_Penalty_Neutral>
  0.0000

> <r_epik_State_Penalty>
 -0.0000

> <r_epik_Charging_Adjusted_Penalty>
0.0081226465268157

> <i_epik_Tot_Q>
1

> <i_epik_Tot_abs_Q>
1

$$$$
