2w92_ligand
                    3D
 Schrodinger Suite 2020-3.
 27 28  0  0  1  0            999 V2000
   -3.5930   -5.1300  -24.9050 C   0  0  1  0  0  0
   -3.5530   -3.5850  -25.0090 C   0  0  1  0  0  0
   -4.1310   -3.0880  -26.3500 C   0  0  2  0  0  0
   -3.5890   -3.9000  -27.5240 C   0  0  1  0  0  0
   -3.9280   -5.3660  -27.3010 C   0  0  1  0  0  0
   -3.3600   -6.1950  -28.4820 C   0  0  0  0  0  0
   -5.4020   -3.9510  -23.5280 C   0  0  0  0  0  0
   -6.4310   -3.6440  -22.4350 C   0  0  0  0  0  0
   -4.4340   -3.1120  -23.9240 N   0  0  0  0  0  0
   -5.3090   -5.4400  -24.3970 S   0  0  0  0  0  0
   -3.8480   -1.7070  -26.5770 O   0  0  0  0  0  0
   -4.2010   -3.4550  -28.7290 O   0  0  0  0  0  0
   -3.3470   -5.8510  -26.0870 O   0  0  0  0  0  0
   -3.8540   -7.5290  -28.4060 O   0  0  0  0  0  0
   -2.6716   -5.4612  -24.4037 H   0  0  0  0  0  0
   -2.5305   -3.1928  -24.9053 H   0  0  0  0  0  0
   -5.2286   -3.1443  -26.3031 H   0  0  0  0  0  0
   -2.5084   -3.7487  -27.6630 H   0  0  0  0  0  0
   -5.0136   -5.4769  -27.1624 H   0  0  0  0  0  0
   -3.6744   -5.7410  -29.4333 H   0  0  0  0  0  0
   -2.2615   -6.2069  -28.4268 H   0  0  0  0  0  0
   -6.2644   -2.6272  -22.0498 H   0  0  0  0  0  0
   -6.3223   -4.3691  -21.6150 H   0  0  0  0  0  0
   -7.4449   -3.7153  -22.8556 H   0  0  0  0  0  0
   -4.1603   -0.9531  -25.8394 H   0  0  0  0  0  0
   -4.0696   -2.4146  -29.0610 H   0  0  0  0  0  0
   -3.5580   -8.2691  -29.1640 H   0  0  0  0  0  0
  1  2  1  0  0  0
  1 10  1  0  0  0
  1 13  1  0  0  0
  1 15  1  0  0  0
  2  3  1  0  0  0
  2  9  1  0  0  0
  2 16  1  0  0  0
  3  4  1  0  0  0
  3 11  1  0  0  0
  3 17  1  0  0  0
  4  5  1  0  0  0
  4 12  1  0  0  0
  4 18  1  0  0  0
  5  6  1  0  0  0
  5 13  1  0  0  0
  5 19  1  0  0  0
  6 14  1  0  0  0
  6 20  1  0  0  0
  6 21  1  0  0  0
  7  8  1  0  0  0
  7  9  2  0  0  0
  7 10  1  0  0  0
  8 22  1  0  0  0
  8 23  1  0  0  0
  8 24  1  0  0  0
 11 25  1  0  0  0
 12 26  1  0  0  0
 14 27  1  0  0  0
M  END
> <s_m_source_file>
../2w92_ligand.sdf

> <i_m_source_file_index>
1

> <s_epik_input>
W0NIM11DKFMxKT1OW0NAQEhdKFtDQEBIXTEyKVtDQEBIXShbT0hdKVtDQEhdKFtPSF0pW0NASF0oTzIpW0NIMl1bT0hd

> <s_epik_cmdline>
J2VwaWtfYXBwJywgJy1pbWFlJywgJ2xpZ2FuZF9wcm8ubWFlJywgJy1vbWFlJywgJ2xpZ2FuZF9wcmVwLm1hZScsICctbXMnLCAnMScsICctcGgnLCAnNycsICctcGh0JywgJzAuNScsICctbnQn

> <r_lp_tautomer_probability>
1

> <r_epik_Ionization_Penalty>
  0.0003

> <r_epik_Ionization_Penalty_Charging>
  0.0000

> <r_epik_Ionization_Penalty_Neutral>
  0.0003

> <r_epik_State_Penalty>
 -0.0000

> <r_epik_Charging_Adjusted_Penalty>
0

> <i_epik_Tot_Q>
0

> <i_epik_Tot_abs_Q>
0

> <s_epik_Chemistry_Notes>
This compound has an imine and may undergo hydrolysis. This compound contains an acetal/aminal-like group ( X-CH(R)-Y where X, Y are N, S, or O) that may be acid/base labile, releasing an aldehyde.

$$$$
