2w97_ligand
                    3D
 Schrodinger Suite 2020-3.
 14 13  0  0  1  0            999 V2000
   33.6760   -9.6030   18.5610 C   0  0  0  0  0  0
   32.2500   -9.5970   18.6210 O   0  0  0  0  0  0
   34.1270   -8.6530   17.4600 C   0  0  0  0  0  0
   35.5400   -8.5330   17.5000 O   0  0  0  0  0  0
   33.7280   -9.2380   16.1120 C   0  0  0  0  0  0
   34.1570   -8.3810   15.0520 O   0  0  0  0  0  0
   34.0850   -9.2732   19.5274 H   0  0  0  0  0  0
   34.0295  -10.6213   18.3415 H   0  0  0  0  0  0
   31.7279  -10.2243   19.3585 H   0  0  0  0  0  0
   33.7240   -7.6402   17.6082 H   0  0  0  0  0  0
   36.0324   -8.1275   18.3961 H   0  0  0  0  0  0
   34.1971  -10.2251   15.9874 H   0  0  0  0  0  0
   32.6340   -9.3437   16.0675 H   0  0  0  0  0  0
   33.9499   -8.6533   14.0066 H   0  0  0  0  0  0
  1  2  1  0  0  0
  1  3  1  0  0  0
  1  7  1  0  0  0
  1  8  1  0  0  0
  2  9  1  0  0  0
  3  4  1  0  0  0
  3  5  1  0  0  0
  3 10  1  0  0  0
  4 11  1  0  0  0
  5  6  1  0  0  0
  5 12  1  0  0  0
  5 13  1  0  0  0
  6 14  1  0  0  0
M  END
> <s_m_source_file>
../2w97_ligand.sdf

> <i_m_source_file_index>
1

> <s_epik_input>
W09IXVtDSDJdW0NIXShbT0hdKVtDSDJdW09IXQ==

> <s_epik_cmdline>
J2VwaWtfYXBwJywgJy1pbWFlJywgJ2xpZ2FuZF9wcm8ubWFlJywgJy1vbWFlJywgJ2xpZ2FuZF9wcmVwLm1hZScsICctbXMnLCAnMScsICctcGgnLCAnNycsICctcGh0JywgJzAuNScsICctbnQn

> <r_lp_tautomer_probability>
1

> <r_epik_Ionization_Penalty>
  0.0000

> <r_epik_Ionization_Penalty_Charging>
  0.0000

> <r_epik_Ionization_Penalty_Neutral>
  0.0000

> <r_epik_State_Penalty>
 -0.0000

> <r_epik_Charging_Adjusted_Penalty>
0

> <i_epik_Tot_Q>
0

> <i_epik_Tot_abs_Q>
0

$$$$
