2w9r_ligand
                    3D
 Schrodinger Suite 2020-3.
190190  0  0  1  0            999 V2000
   18.5670    8.8870    1.1320 N   0  3  0  0  0  0
   18.2180    7.8270    2.1260 C   0  0  2  0  0  0
   17.1500    8.3720    3.0810 C   0  0  0  0  0  0
   16.8390    9.5700    3.0500 O   0  0  0  0  0  0
   19.4560    7.4100    2.9260 C   0  0  0  0  0  0
   20.6510    6.9550    2.0930 C   0  0  0  0  0  0
   21.8730    6.7290    2.9660 C   0  0  0  0  0  0
   20.2880    5.7020    1.2830 C   0  0  0  0  0  0
   16.5890    7.4850    3.8990 N   0  0  0  0  0  0
   15.5290    7.8560    4.8480 C   0  0  2  0  0  0
   16.0820    8.0000    6.2630 C   0  0  0  0  0  0
   16.6180    7.0460    6.8450 O   0  0  0  0  0  0
   14.3300    6.8630    4.8160 C   0  0  0  0  0  0
   13.2480    7.2610    5.8340 C   0  0  0  0  0  0
   13.7350    6.7980    3.4210 C   0  0  0  0  0  0
   15.9370    9.2060    6.8080 N   0  0  0  0  0  0
   16.3680    9.4970    8.1710 C   0  0  2  0  0  0
   15.3870    8.9020    9.1770 C   0  0  0  0  0  0
   14.1770    8.9150    8.9470 O   0  0  0  0  0  0
   16.4910   11.0080    8.3600 C   0  0  0  0  0  0
   17.1320   11.4280    9.6720 C   0  0  0  0  0  0
   17.4760   12.9040    9.6580 C   0  0  0  0  0  0
   17.7030   13.4190   11.0720 C   0  0  0  0  0  0
   18.2870   14.7870   11.0860 N   0  3  0  0  0  0
   15.9110    8.3830   10.2900 N   0  0  0  0  0  0
   15.0650    7.8110   11.3390 C   0  0  2  0  0  0
   14.3930    8.9200   12.1380 C   0  0  0  0  0  0
   14.9130   10.0360   12.2170 O   0  0  0  0  0  0
   15.8600    6.8770   12.2610 C   0  0  0  0  0  0
   16.6160    7.5880   13.2310 O   0  0  0  0  0  0
   13.2290    8.6150   12.7050 N   0  0  0  0  0  0
   12.5220    9.5670   13.5500 C   0  0  2  0  0  0
   13.3200    9.7780   14.8220 C   0  0  0  0  0  0
   13.9020    8.8340   15.3600 O   0  0  0  0  0  0
   11.1030    9.0820   13.8800 C   0  0  0  0  0  0
   10.2910   10.0920   14.7170 C   0  0  0  0  0  0
    8.8150   10.1490   14.2880 C   0  0  0  0  0  0
    8.0300   11.1710   15.1270 C   0  0  0  0  0  0
    6.5310   11.2220   14.6220 N   0  3  0  0  0  0
   13.3600   11.0290   15.2690 N   0  0  0  0  0  0
   13.9660   11.3950   16.5460 C   0  0  2  0  0  0
   13.2050   10.7650   17.7160 C   0  0  0  0  0  0
   12.0000   10.5020   17.6150 O   0  0  0  0  0  0
   14.0060   12.9100   16.6870 C   0  0  0  0  0  0
   13.9180   10.5110   18.8130 N   0  0  0  0  0  0
   13.3040    9.9820   20.0310 C   0  0  2  0  0  0
   12.9160   11.1130   20.9890 C   0  0  0  0  0  0
   13.7470   11.9620   21.3160 O   0  0  0  0  0  0
   14.2210    8.9350   20.7490 C   0  0  2  0  0  0
   13.6390    8.5480   22.0020 O   0  0  0  0  0  0
   15.6330    9.4860   20.9970 C   0  0  0  0  0  0
   11.6460   11.1210   21.4040 N   0  0  0  0  0  0
   11.1210   12.0580   22.4220 C   0  0  2  0  0  0
    9.8980   11.5380   23.1930 C   0  0  0  0  0  0
    8.9380   11.0480   22.5880 O   0  0  0  0  0  0
   10.8170   13.4460   21.8200 C   0  0  0  0  0  0
   10.0990   13.3770   20.4710 C   0  0  0  0  0  0
   10.5710   13.9440   19.4870 O   0  0  0  0  0  0
    8.9550   12.6970   20.4240 N   0  0  0  0  0  0
    9.9430   11.6500   24.5220 N   0  0  0  0  0  0
    8.8260   11.2530   25.3910 C   0  0  2  0  0  0
    8.7200   12.2090   26.5730 C   0  0  0  0  0  0
    9.4380   12.0520   27.5660 O   0  0  0  0  0  0
    9.0100    9.8110   25.8870 C   0  0  0  0  0  0
    7.8060    8.8720   26.0990 C   0  0  0  0  0  0
    6.7600    9.4280   27.0720 C   0  0  0  0  0  0
    7.1570    8.4760   24.7640 C   0  0  0  0  0  0
    7.8070   13.1790   26.4680 N   0  0  0  0  0  0
    7.7500   14.3120   27.3940 C   0  0  2  0  0  0
    9.1780   14.8360   27.5150 C   0  0  0  0  0  0
    9.7120   14.9610   28.6100 O   0  0  0  0  0  0
    7.1890   13.8750   28.7550 C   0  0  0  0  0  0
    6.7690   14.8820   29.8450 C   0  0  0  0  0  0
    7.9490   15.6630   30.3970 C   0  0  0  0  0  0
    5.6990   15.8390   29.3740 C   0  0  0  0  0  0
    9.7890   15.1220   26.3650 N   0  0  0  0  0  0
   11.2490   15.2860   26.2570 C   0  0  2  0  0  0
   12.0040   13.9600   26.4210 C   0  0  0  0  0  0
   12.9630   13.8500   27.1930 O   0  0  0  0  0  0
   11.7630   16.3250   27.2470 C   0  0  0  0  0  0
   12.0690   17.6640   26.6380 C   0  0  0  0  0  0
   11.1290   18.3290   25.8630 C   0  0  0  0  0  0
   13.2920   18.2820   26.8680 C   0  0  0  0  0  0
   11.4050   19.5660   25.3110 C   0  0  0  0  0  0
   13.5730   19.5200   26.3220 C   0  0  0  0  0  0
   12.6220   20.1590   25.5410 C   0  0  0  0  0  0
   12.8830   21.3990   24.9910 O   0  0  0  0  0  0
   17.6663    9.1723    0.5687 H   0  0  0  0  0  0
   19.3275    8.5017    0.4369 H   0  0  0  0  0  0
   18.9641    9.7672    1.6588 H   0  0  0  0  0  0
   17.8382    6.9577    1.5691 H   0  0  0  0  0  0
   19.8044    8.2595    3.5318 H   0  0  0  0  0  0
   19.1993    6.5691    3.5871 H   0  0  0  0  0  0
   20.9147    7.7587    1.3898 H   0  0  0  0  0  0
   22.0977    7.6480    3.5272 H   0  0  0  0  0  0
   22.7330    6.4669    2.3322 H   0  0  0  0  0  0
   21.6734    5.9085    3.6709 H   0  0  0  0  0  0
   19.4006    5.9082    0.6666 H   0  0  0  0  0  0
   20.0719    4.8709    1.9704 H   0  0  0  0  0  0
   21.1315    5.4293    0.6318 H   0  0  0  0  0  0
   16.9431    6.4447    3.8490 H   0  0  0  0  0  0
   15.1940    8.8432    4.4968 H   0  0  0  0  0  0
   14.6923    5.8579    5.0775 H   0  0  0  0  0  0
   13.6899    7.3050    6.8404 H   0  0  0  0  0  0
   12.4398    6.5149    5.8206 H   0  0  0  0  0  0
   12.8405    8.2478    5.5690 H   0  0  0  0  0  0
   14.5169    6.5128    2.7018 H   0  0  0  0  0  0
   13.3288    7.7835    3.1494 H   0  0  0  0  0  0
   12.9281    6.0506    3.4010 H   0  0  0  0  0  0
   15.4757    9.9956    6.1966 H   0  0  0  0  0  0
   17.3510    9.0203    8.2991 H   0  0  0  0  0  0
   17.1082   11.4294    7.5528 H   0  0  0  0  0  0
   15.4902   11.4637    8.3324 H   0  0  0  0  0  0
   16.4333   11.2357   10.4995 H   0  0  0  0  0  0
   18.0553   10.8513    9.8302 H   0  0  0  0  0  0
   18.3934   13.0611    9.0717 H   0  0  0  0  0  0
   16.6490   13.4690    9.2032 H   0  0  0  0  0  0
   16.7433   13.4522   11.6086 H   0  0  0  0  0  0
   18.3954   12.7470   11.6003 H   0  0  0  0  0  0
   18.4316   15.1133   12.1265 H   0  0  0  0  0  0
   17.6046   15.4822   10.5751 H   0  0  0  0  0  0
   19.2567   14.7770   10.5667 H   0  0  0  0  0  0
   17.0045    8.3916   10.4090 H   0  0  0  0  0  0
   14.3014    7.2223   10.8095 H   0  0  0  0  0  0
   15.1662    6.2098   12.7935 H   0  0  0  0  0  0
   16.5583    6.2758   11.6602 H   0  0  0  0  0  0
   17.2335    7.0393   13.9574 H   0  0  0  0  0  0
   12.8018    7.6177   12.5234 H   0  0  0  0  0  0
   12.4565   10.5013   12.9731 H   0  0  0  0  0  0
   10.5494    8.9056   12.9460 H   0  0  0  0  0  0
   11.1599    8.1459   14.4549 H   0  0  0  0  0  0
   10.3274    9.8024   15.7776 H   0  0  0  0  0  0
   10.7207   11.0974   14.5965 H   0  0  0  0  0  0
    8.7519   10.4420   13.2296 H   0  0  0  0  0  0
    8.3556    9.1586   14.4223 H   0  0  0  0  0  0
    8.0519   10.8709   16.1850 H   0  0  0  0  0  0
    8.4891   12.1647   15.0181 H   0  0  0  0  0  0
    5.9671   11.9525   15.2206 H   0  0  0  0  0  0
    6.0735   10.2276   14.7307 H   0  0  0  0  0  0
    6.5106   11.5214   13.5637 H   0  0  0  0  0  0
   12.9105   11.8044   14.6312 H   0  0  0  0  0  0
   14.9901   10.9944   16.5198 H   0  0  0  0  0  0
   14.5560   13.3428   15.8384 H   0  0  0  0  0  0
   14.5117   13.1776   17.6265 H   0  0  0  0  0  0
   12.9792   13.3044   16.6980 H   0  0  0  0  0  0
   14.9993   10.7109   18.7843 H   0  0  0  0  0  0
   12.3899    9.4918   19.6647 H   0  0  0  0  0  0
   14.2872    8.0129   20.1528 H   0  0  0  0  0  0
   12.6231    8.1272   22.0299 H   0  0  0  0  0  0
   16.0837    9.7842   20.0389 H   0  0  0  0  0  0
   16.2526    8.7083   21.4674 H   0  0  0  0  0  0
   15.5739   10.3600   21.6623 H   0  0  0  0  0  0
   10.9782   10.3775   20.9444 H   0  0  0  0  0  0
   11.9591   12.1157   23.1321 H   0  0  0  0  0  0
   10.1728   14.0115   22.5093 H   0  0  0  0  0  0
   11.7587   13.9932   21.6661 H   0  0  0  0  0  0
    8.5699   12.2051   21.3294 H   0  0  0  0  0  0
    8.3951   12.6272   19.4797 H   0  0  0  0  0  0
   10.8642   12.0589   24.9626 H   0  0  0  0  0  0
    7.9168   11.3207   24.7755 H   0  0  0  0  0  0
    9.6383    9.2557   25.1750 H   0  0  0  0  0  0
    9.4959    9.8218   26.8738 H   0  0  0  0  0  0
    8.2110    7.9655   26.5725 H   0  0  0  0  0  0
    7.2491    9.7035   28.0180 H   0  0  0  0  0  0
    5.9945    8.6619   27.2645 H   0  0  0  0  0  0
    6.2859   10.3176   26.6317 H   0  0  0  0  0  0
    7.9269    8.0809   24.0850 H   0  0  0  0  0  0
    6.6854    9.3596   24.3092 H   0  0  0  0  0  0
    6.3940    7.7039   24.9420 H   0  0  0  0  0  0
    7.0796   13.1031   25.6463 H   0  0  0  0  0  0
    7.0735   15.0779   26.9869 H   0  0  0  0  0  0
    6.2690   13.2916   28.6022 H   0  0  0  0  0  0
    7.9335   13.2557   29.2767 H   0  0  0  0  0  0
    6.3384   14.2881   30.6647 H   0  0  0  0  0  0
    8.7250   14.9622   30.7385 H   0  0  0  0  0  0
    7.6156   16.2817   31.2432 H   0  0  0  0  0  0
    8.3609   16.3107   29.6090 H   0  0  0  0  0  0
    4.8469   15.2689   28.9753 H   0  0  0  0  0  0
    6.1082   16.4869   28.5848 H   0  0  0  0  0  0
    5.3629   16.4579   30.2190 H   0  0  0  0  0  0
    9.1553   15.2355   25.4731 H   0  0  0  0  0  0
   11.4042   15.6525   25.2315 H   0  0  0  0  0  0
   11.6717   13.0939   25.8298 H   0  0  0  0  0  0
   11.0068   16.4929   28.0280 H   0  0  0  0  0  0
   12.6931   15.9625   27.7091 H   0  0  0  0  0  0
   10.1570   17.8682   25.6867 H   0  0  0  0  0  0
   14.0388   17.7843   27.4866 H   0  0  0  0  0  0
   10.6592   20.0689   24.6954 H   0  0  0  0  0  0
   14.5383   19.9922   26.5045 H   0  0  0  0  0  0
   12.1220   21.8977   24.3728 H   0  0  0  0  0  0
  1  2  1  0  0  0
  1 88  1  0  0  0
  1 89  1  0  0  0
  1 90  1  0  0  0
  2  3  1  0  0  0
  2  5  1  0  0  0
  2 91  1  0  0  0
  3  4  2  0  0  0
  3  9  1  0  0  0
  5  6  1  0  0  0
  5 92  1  0  0  0
  5 93  1  0  0  0
  6  7  1  0  0  0
  6  8  1  0  0  0
  6 94  1  0  0  0
  7 95  1  0  0  0
  7 96  1  0  0  0
  7 97  1  0  0  0
  8 98  1  0  0  0
  8 99  1  0  0  0
  8100  1  0  0  0
  9 10  1  0  0  0
  9101  1  0  0  0
 10 11  1  0  0  0
 10 13  1  0  0  0
 10102  1  0  0  0
 11 12  2  0  0  0
 11 16  1  0  0  0
 13 14  1  0  0  0
 13 15  1  0  0  0
 13103  1  0  0  0
 14104  1  0  0  0
 14105  1  0  0  0
 14106  1  0  0  0
 15107  1  0  0  0
 15108  1  0  0  0
 15109  1  0  0  0
 16 17  1  0  0  0
 16110  1  0  0  0
 17 18  1  0  0  0
 17 20  1  0  0  0
 17111  1  0  0  0
 18 19  2  0  0  0
 18 25  1  0  0  0
 20 21  1  0  0  0
 20112  1  0  0  0
 20113  1  0  0  0
 21 22  1  0  0  0
 21114  1  0  0  0
 21115  1  0  0  0
 22 23  1  0  0  0
 22116  1  0  0  0
 22117  1  0  0  0
 23 24  1  0  0  0
 23118  1  0  0  0
 23119  1  0  0  0
 24120  1  0  0  0
 24121  1  0  0  0
 24122  1  0  0  0
 25 26  1  0  0  0
 25123  1  0  0  0
 26 27  1  0  0  0
 26 29  1  0  0  0
 26124  1  0  0  0
 27 28  2  0  0  0
 27 31  1  0  0  0
 29 30  1  0  0  0
 29125  1  0  0  0
 29126  1  0  0  0
 30127  1  0  0  0
 31 32  1  0  0  0
 31128  1  0  0  0
 32 33  1  0  0  0
 32 35  1  0  0  0
 32129  1  0  0  0
 33 34  2  0  0  0
 33 40  1  0  0  0
 35 36  1  0  0  0
 35130  1  0  0  0
 35131  1  0  0  0
 36 37  1  0  0  0
 36132  1  0  0  0
 36133  1  0  0  0
 37 38  1  0  0  0
 37134  1  0  0  0
 37135  1  0  0  0
 38 39  1  0  0  0
 38136  1  0  0  0
 38137  1  0  0  0
 39138  1  0  0  0
 39139  1  0  0  0
 39140  1  0  0  0
 40 41  1  0  0  0
 40141  1  0  0  0
 41 42  1  0  0  0
 41 44  1  0  0  0
 41142  1  0  0  0
 42 43  2  0  0  0
 42 45  1  0  0  0
 44143  1  0  0  0
 44144  1  0  0  0
 44145  1  0  0  0
 45 46  1  0  0  0
 45146  1  0  0  0
 46 47  1  0  0  0
 46 49  1  0  0  0
 46147  1  0  0  0
 47 48  2  0  0  0
 47 52  1  0  0  0
 49 50  1  0  0  0
 49 51  1  0  0  0
 49148  1  0  0  0
 50149  1  0  0  0
 51150  1  0  0  0
 51151  1  0  0  0
 51152  1  0  0  0
 52 53  1  0  0  0
 52153  1  0  0  0
 53 54  1  0  0  0
 53 56  1  0  0  0
 53154  1  0  0  0
 54 55  2  0  0  0
 54 60  1  0  0  0
 56 57  1  0  0  0
 56155  1  0  0  0
 56156  1  0  0  0
 57 58  2  0  0  0
 57 59  1  0  0  0
 59157  1  0  0  0
 59158  1  0  0  0
 60 61  1  0  0  0
 60159  1  0  0  0
 61 62  1  0  0  0
 61 64  1  0  0  0
 61160  1  0  0  0
 62 63  2  0  0  0
 62 68  1  0  0  0
 64 65  1  0  0  0
 64161  1  0  0  0
 64162  1  0  0  0
 65 66  1  0  0  0
 65 67  1  0  0  0
 65163  1  0  0  0
 66164  1  0  0  0
 66165  1  0  0  0
 66166  1  0  0  0
 67167  1  0  0  0
 67168  1  0  0  0
 67169  1  0  0  0
 68 69  1  0  0  0
 68170  1  0  0  0
 69 70  1  0  0  0
 69 72  1  0  0  0
 69171  1  0  0  0
 70 71  2  0  0  0
 70 76  1  0  0  0
 72 73  1  0  0  0
 72172  1  0  0  0
 72173  1  0  0  0
 73 74  1  0  0  0
 73 75  1  0  0  0
 73174  1  0  0  0
 74175  1  0  0  0
 74176  1  0  0  0
 74177  1  0  0  0
 75178  1  0  0  0
 75179  1  0  0  0
 75180  1  0  0  0
 76 77  1  0  0  0
 76181  1  0  0  0
 77 78  1  0  0  0
 77 80  1  0  0  0
 77182  1  0  0  0
 78 79  2  0  0  0
 78183  1  0  0  0
 80 81  1  0  0  0
 80184  1  0  0  0
 80185  1  0  0  0
 81 82  2  0  0  0
 81 83  1  0  0  0
 82 84  1  0  0  0
 82186  1  0  0  0
 83 85  2  0  0  0
 83187  1  0  0  0
 84 86  2  0  0  0
 84188  1  0  0  0
 85 86  1  0  0  0
 85189  1  0  0  0
 86 87  1  0  0  0
 87190  1  0  0  0
M  CHG  3   1   1  24   1  39   1
M  END
> <s_m_source_file>
../2w9r_ligand.sdf

> <i_m_source_file_index>
1

> <s_epik_input>
W0NIM11bQ0hdKFtDSDNdKVtDSDJdW0NASF0oW05IMytdKUMoPU8pW05IXVtDQEBIXShbQ0hdKFtDSDNdKVtDSDNdKUMoPU8pW05IXVtDQEBIXShbQ0gyXVtDSDJdW0NIMl1bQ0gyXVtOSDMrXSlDKD1PKVtOSF1bQ0BASF0oW0NIMl1bT0hdKUMoPU8pW05IXVtDQEBIXShbQ0gyXVtDSDJdW0NIMl1bQ0gyXVtOSDMrXSlDKD1PKVtOSF1bQ0BASF0oW0NIM10pQyg9TylbTkhdW0NAQEhdKFtDQEhdKFtPSF0pW0NIM10pQyg9TylbTkhdW0NAQEhdKFtDSDJdQyg9TylbTkgyXSlDKD1PKVtOSF1bQ0BASF0oW0NIMl1bQ0hdKFtDSDNdKVtDSDNdKUMoPU8pW05IXVtDQEBIXShbQ0gyXVtDSF0oW0NIM10pW0NIM10pQyg9TylbTkhdW0NASF0oW0NIXT1PKVtDSDJdYzFbY0hdW2NIXWMoW09IXSlbY0hdW2NIXTE=

> <s_epik_cmdline>
J2VwaWtfYXBwJywgJy1pbWFlJywgJ2xpZ2FuZF9wcm8ubWFlJywgJy1vbWFlJywgJ2xpZ2FuZF9wcmVwLm1hZScsICctbXMnLCAnMScsICctcGgnLCAnNycsICctcGh0JywgJzAuNScsICctbnQn

> <s_epik_pKa_notes>
Molecule size exceeds maximum supported for generating protonation states

$$$$
