2wa4_ligand
                    3D
 Schrodinger Suite 2020-3.
 18 18  0  0  1  0            999 V2000
   17.0740   25.7740   29.1330 C   0  0  0  0  0  0
   16.1090   26.3830   29.8610 O   0  0  0  0  0  0
   18.3680   26.2490   29.2720 C   0  0  0  0  0  0
   19.4060   25.7080   28.5330 C   0  0  0  0  0  0
   20.8400   26.3270   28.6710 C   0  0  0  0  0  0
   21.0730   27.2610   29.4690 O   0  0  0  0  0  0
   21.7390   25.8450   27.8040 N   0  0  0  0  0  0
   19.1010   24.6390   27.6550 C   0  0  0  0  0  0
   17.7920   24.1450   27.5380 C   0  0  0  0  0  0
   16.7480   24.7270   28.2840 C   0  0  0  0  0  0
   23.0340   26.3190   27.7390 O   0  0  0  0  0  0
   16.3692   27.2133   30.5339 H   0  0  0  0  0  0
   18.5714   27.0591   29.9723 H   0  0  0  0  0  0
   21.4128   25.0416   27.1272 H   0  0  0  0  0  0
   19.8970   24.1919   27.0595 H   0  0  0  0  0  0
   17.5831   23.3101   26.8691 H   0  0  0  0  0  0
   15.7226   24.3678   28.1971 H   0  0  0  0  0  0
   23.7396   25.8932   27.0104 H   0  0  0  0  0  0
  1  2  1  0  0  0
  1  3  2  0  0  0
  1 10  1  0  0  0
  2 12  1  0  0  0
  3  4  1  0  0  0
  3 13  1  0  0  0
  4  5  1  0  0  0
  4  8  2  0  0  0
  5  6  2  0  0  0
  5  7  1  0  0  0
  7 11  1  0  0  0
  7 14  1  0  0  0
  8  9  1  0  0  0
  8 15  1  0  0  0
  9 10  2  0  0  0
  9 16  1  0  0  0
 10 17  1  0  0  0
 11 18  1  0  0  0
M  END
> <s_m_source_file>
../2wa4_ligand.sdf

> <i_m_source_file_index>
1

> <s_epik_input>
W09IXWMxW2NIXWMoQyg9TylbTkhdW09IXSlbY0hdW2NIXVtjSF0x

> <s_epik_cmdline>
J2VwaWtfYXBwJywgJy1pbWFlJywgJ2xpZ2FuZF9wcm8ubWFlJywgJy1vbWFlJywgJ2xpZ2FuZF9wcmVwLm1hZScsICctbXMnLCAnMScsICctcGgnLCAnNycsICctcGh0JywgJzAuNScsICctbnQn

> <r_lp_tautomer_probability>
0.999999999997365

> <r_epik_Ionization_Penalty>
  0.0178

> <r_epik_Ionization_Penalty_Charging>
  0.0000

> <r_epik_Ionization_Penalty_Neutral>
  0.0178

> <r_epik_State_Penalty>
  0.0100

> <r_epik_Charging_Adjusted_Penalty>
0.0099951734662999

> <i_epik_Tot_Q>
0

> <i_epik_Tot_abs_Q>
0

> <s_epik_Chemistry_Notes>
This compound has a N-S or N-O group and may undergo hydrolysis at high or low pH.

$$$$
