2wa8_ligand
                    3D
 Schrodinger Suite 2020-3.
171172  0  0  1  0            999 V2000
   15.2190   31.4750   28.5250 N   0  3  0  0  0  0
   14.4910   30.4400   27.7970 C   0  0  2  0  0  0
   13.3090   29.8750   28.5530 C   0  0  0  0  0  0
   13.0650   30.2110   29.7020 O   0  0  0  0  0  0
   15.4360   29.3150   27.3880 C   0  0  0  0  0  0
   16.6330   29.8000   26.6260 C   0  0  0  0  0  0
   16.4890   30.3170   25.3520 C   0  0  0  0  0  0
   17.8990   29.7640   27.1930 C   0  0  0  0  0  0
   17.6020   30.7750   24.6360 C   0  0  0  0  0  0
   19.0030   30.2030   26.4930 C   0  0  0  0  0  0
   18.8590   30.7050   25.1900 C   0  0  0  0  0  0
   12.5820   28.9910   27.8860 N   0  0  0  0  0  0
   11.3530   28.4540   28.4450 C   0  0  2  0  0  0
   11.5480   26.9680   28.7810 C   0  0  0  0  0  0
   12.0300   26.1880   27.9530 O   0  0  0  0  0  0
   10.2130   28.6400   27.4450 C   0  0  0  0  0  0
    9.1790   27.5240   27.4720 C   0  0  0  0  0  0
    8.1930   27.6740   26.3420 C   0  0  0  0  0  0
    6.9380   26.9940   26.6380 N   0  0  0  0  0  0
    6.6700   25.7310   26.3220 C   0  0  0  0  0  0
    7.5730   24.9880   25.6890 N   0  0  0  0  0  0
    5.4900   25.2140   26.6410 N   0  0  0  0  0  0
   11.2020   26.5860   30.0060 N   0  0  0  0  0  0
   11.2490   25.1760   30.3970 C   0  0  2  0  0  0
    9.8950   24.5660   30.1250 C   0  0  0  0  0  0
    8.8990   25.2770   29.9700 O   0  0  0  0  0  0
   11.5680   25.0240   31.8750 C   0  0  0  0  0  0
   10.6660   25.7930   32.6460 O   0  0  0  0  0  0
    9.8570   23.2450   30.0640 N   0  0  0  0  0  0
    8.6000   22.5470   29.8930 C   0  0  2  0  0  0
    8.4560   21.5650   31.0450 C   0  0  0  0  0  0
    7.6780   20.6150   30.9710 O   0  0  0  0  0  0
    8.5920   21.8270   28.5510 C   0  0  0  0  0  0
    9.0620   22.6950   27.3890 C   0  0  0  0  0  0
    9.5650   21.8500   26.2240 C   0  0  0  0  0  0
    8.4800   20.9160   25.7210 C   0  0  0  0  0  0
    7.2460   21.6720   25.3640 N   0  3  0  0  0  0
    9.2120   21.8160   32.1140 N   0  0  0  0  0  0
    9.3420   20.8760   33.2140 C   0  0  0  0  0  0
    9.9210   19.5470   32.7540 C   0  0  0  0  0  0
    9.2260   18.7390   32.1290 O   0  0  0  0  0  0
   11.1960   19.3140   33.0530 N   0  0  0  0  0  0
   11.8510   18.0590   32.6720 C   0  0  2  0  0  0
   12.3590   17.1830   33.8400 C   0  0  0  0  0  0
   11.7840   16.1120   34.0850 O   0  0  0  0  0  0
   12.9550   18.2980   31.6300 C   0  0  0  0  0  0
   12.5090   19.1340   30.4320 C   0  0  0  0  0  0
   12.9940   20.5730   30.5120 C   0  0  0  0  0  0
   12.1900   21.4970   30.2470 O   0  0  0  0  0  0
   14.1840   20.7760   30.8400 O   0  0  0  0  0  0
   13.3940   17.6000   34.5820 N   0  0  0  0  0  0
   14.0280   18.9230   34.5680 C   0  0  2  0  0  0
   14.8680   18.9500   35.8300 C   0  0  0  0  0  0
   14.3400   18.6310   36.9000 O   0  0  0  0  0  0
   12.9780   20.0130   34.7060 C   0  0  0  0  0  0
   13.4690   21.2870   35.3470 C   0  0  0  0  0  0
   13.6380   22.3990   34.3460 C   0  0  0  0  0  0
   13.6680   22.1070   33.1310 O   0  0  0  0  0  0
   13.7360   23.5650   34.7800 O   0  0  0  0  0  0
   16.1520   19.3050   35.7570 N   0  0  0  0  0  0
   16.8740   19.6830   34.5500 C   0  0  2  0  0  0
   18.2200   18.9570   34.5880 C   0  0  0  0  0  0
   18.9330   18.8760   33.5830 O   0  0  0  0  0  0
   17.1270   21.1870   34.5820 C   0  0  0  0  0  0
   17.6370   22.0280   33.4140 C   0  0  0  0  0  0
   16.8090   21.8120   32.1540 C   0  0  0  0  0  0
   17.6170   23.4940   33.8270 C   0  0  0  0  0  0
   18.5580   18.4310   35.7670 N   0  0  0  0  0  0
   19.8660   17.8040   36.0270 C   0  0  2  0  0  0
   21.0140   18.8050   35.8760 C   0  0  0  0  0  0
   22.0290   18.5020   35.2650 O   0  0  0  0  0  0
   20.0910   16.5500   35.1600 C   0  0  0  0  0  0
   18.8230   15.8370   34.8000 C   0  0  0  0  0  0
   17.9110   15.4810   35.7810 C   0  0  0  0  0  0
   18.5290   15.5370   33.4840 C   0  0  0  0  0  0
   16.7220   14.8450   35.4550 C   0  0  0  0  0  0
   17.3480   14.8940   33.1540 C   0  0  0  0  0  0
   16.4440   14.5490   34.1460 C   0  0  0  0  0  0
   20.8150   19.9960   36.4420 N   0  0  0  0  0  0
   21.7830   21.0990   36.4770 C   0  0  2  0  0  0
   21.0920   22.4610   36.4860 C   0  0  0  0  0  0
   20.1520   22.6980   37.2550 O   0  0  0  0  0  0
   22.7790   21.1020   35.3200 C   0  0  2  0  0  0
   23.8060   20.1520   35.5760 O   0  0  0  0  0  0
   23.4150   22.4740   35.2050 C   0  0  0  0  0  0
   14.5247   32.2782   28.8127 H   0  0  0  0  0  0
   16.0107   31.8874   27.8822 H   0  0  0  0  0  0
   15.6702   31.0392   29.4286 H   0  0  0  0  0  0
   14.0913   30.9732   26.9218 H   0  0  0  0  0  0
   15.8009   28.7975   28.2875 H   0  0  0  0  0  0
   14.8996   28.6006   26.7462 H   0  0  0  0  0  0
   15.4985   30.3687   24.8999 H   0  0  0  0  0  0
   18.0226   29.3831   28.2068 H   0  0  0  0  0  0
   17.4717   31.1885   23.6359 H   0  0  0  0  0  0
   19.9903   30.1601   26.9528 H   0  0  0  0  0  0
   19.7310   31.0347   24.6252 H   0  0  0  0  0  0
   12.9232   28.6643   26.8926 H   0  0  0  0  0  0
   11.1404   29.0253   29.3607 H   0  0  0  0  0  0
    9.6834   29.5791   27.6633 H   0  0  0  0  0  0
   10.6227   28.6787   26.4249 H   0  0  0  0  0  0
    9.6853   26.5526   27.3718 H   0  0  0  0  0  0
    8.6307   27.5551   28.4251 H   0  0  0  0  0  0
    7.9819   28.7412   26.1788 H   0  0  0  0  0  0
    8.6176   27.2398   25.4248 H   0  0  0  0  0  0
    6.1312   27.5306   27.1587 H   0  0  0  0  0  0
    8.5508   25.4171   25.4249 H   0  0  0  0  0  0
    7.3422   23.9443   25.4295 H   0  0  0  0  0  0
    4.7434   25.8292   27.1646 H   0  0  0  0  0  0
   10.8767   27.3471   30.7305 H   0  0  0  0  0  0
   12.0416   24.7013   29.8000 H   0  0  0  0  0  0
   11.4789   23.9660   32.1624 H   0  0  0  0  0  0
   12.5943   25.3707   32.0662 H   0  0  0  0  0  0
   10.7491   25.8022   33.7428 H   0  0  0  0  0  0
   10.7952   22.6765   30.1448 H   0  0  0  0  0  0
    7.7859   23.2867   29.9070 H   0  0  0  0  0  0
    9.2594   20.9540   28.5993 H   0  0  0  0  0  0
    7.5694   21.4944   28.3194 H   0  0  0  0  0  0
    8.2259   23.3146   27.0326 H   0  0  0  0  0  0
    9.8828   23.3453   27.7257 H   0  0  0  0  0  0
    9.8731   22.5092   25.3991 H   0  0  0  0  0  0
   10.4247   21.2474   26.5524 H   0  0  0  0  0  0
    8.8388   20.3850   24.8270 H   0  0  0  0  0  0
    8.2315   20.1864   26.5058 H   0  0  0  0  0  0
    6.4783   20.9715   25.0034 H   0  0  0  0  0  0
    7.4782   22.4005   24.5732 H   0  0  0  0  0  0
    6.8709   22.2019   26.2520 H   0  0  0  0  0  0
    9.7486   22.7758   32.1444 H   0  0  0  0  0  0
   10.0098   21.2977   33.9796 H   0  0  0  0  0  0
    8.3518   20.6879   33.6545 H   0  0  0  0  0  0
   11.7602   20.0857   33.5972 H   0  0  0  0  0  0
   11.0068   17.5138   32.2247 H   0  0  0  0  0  0
   13.7952   18.8290   32.1013 H   0  0  0  0  0  0
   13.3053   17.3315   31.2386 H   0  0  0  0  0  0
   12.9098   18.6929   29.5075 H   0  0  0  0  0  0
   11.4101   19.1496   30.3844 H   0  0  0  0  0  0
   12.5201   22.5450   30.2987 H   0  0  0  0  0  0
   13.7679   16.8181   35.2593 H   0  0  0  0  0  0
   14.5874   19.0595   33.6308 H   0  0  0  0  0  0
   12.5989   20.2851   33.7099 H   0  0  0  0  0  0
   12.1475   19.6456   35.3267 H   0  0  0  0  0  0
   12.7452   21.6180   36.1063 H   0  0  0  0  0  0
   14.4435   21.1056   35.8239 H   0  0  0  0  0  0
   13.7904   22.8993   32.3778 H   0  0  0  0  0  0
   16.6699   19.2952   36.7274 H   0  0  0  0  0  0
   16.2710   19.4080   33.6720 H   0  0  0  0  0  0
   16.1904   21.7113   34.8225 H   0  0  0  0  0  0
   17.8823   21.4156   35.3483 H   0  0  0  0  0  0
   18.6643   21.7186   33.1712 H   0  0  0  0  0  0
   16.8374   20.7485   31.8744 H   0  0  0  0  0  0
   17.2234   22.4177   31.3346 H   0  0  0  0  0  0
   15.7682   22.1138   32.3430 H   0  0  0  0  0  0
   18.2201   23.6267   34.7373 H   0  0  0  0  0  0
   16.5806   23.8050   34.0251 H   0  0  0  0  0  0
   18.0358   24.1089   33.0168 H   0  0  0  0  0  0
   17.8039   18.4818   36.5662 H   0  0  0  0  0  0
   19.8124   17.4954   37.0815 H   0  0  0  0  0  0
   20.5852   16.8378   34.2203 H   0  0  0  0  0  0
   20.7266   15.8366   35.7050 H   0  0  0  0  0  0
   18.1314   15.7042   36.8249 H   0  0  0  0  0  0
   19.2334   15.8091   32.6979 H   0  0  0  0  0  0
   16.0108   14.5814   36.2378 H   0  0  0  0  0  0
   17.1290   14.6588   32.1124 H   0  0  0  0  0  0
   15.5140   14.0434   33.8858 H   0  0  0  0  0  0
   19.8269   20.1163   36.9101 H   0  0  0  0  0  0
   22.3110   20.8903   37.4192 H   0  0  0  0  0  0
   21.4443   23.2384   35.7921 H   0  0  0  0  0  0
   22.2958   20.7984   34.3796 H   0  0  0  0  0  0
   23.5538   19.0878   35.6942 H   0  0  0  0  0  0
   22.6353   23.2241   35.0066 H   0  0  0  0  0  0
   24.1417   22.4732   34.3792 H   0  0  0  0  0  0
   23.9293   22.7197   36.1458 H   0  0  0  0  0  0
  1  2  1  0  0  0
  1 86  1  0  0  0
  1 87  1  0  0  0
  1 88  1  0  0  0
  2  3  1  0  0  0
  2  5  1  0  0  0
  2 89  1  0  0  0
  3  4  2  0  0  0
  3 12  1  0  0  0
  5  6  1  0  0  0
  5 90  1  0  0  0
  5 91  1  0  0  0
  6  7  2  0  0  0
  6  8  1  0  0  0
  7  9  1  0  0  0
  7 92  1  0  0  0
  8 10  2  0  0  0
  8 93  1  0  0  0
  9 11  2  0  0  0
  9 94  1  0  0  0
 10 11  1  0  0  0
 10 95  1  0  0  0
 11 96  1  0  0  0
 12 13  1  0  0  0
 12 97  1  0  0  0
 13 14  1  0  0  0
 13 16  1  0  0  0
 13 98  1  0  0  0
 14 15  2  0  0  0
 14 23  1  0  0  0
 16 17  1  0  0  0
 16 99  1  0  0  0
 16100  1  0  0  0
 17 18  1  0  0  0
 17101  1  0  0  0
 17102  1  0  0  0
 18 19  1  0  0  0
 18103  1  0  0  0
 18104  1  0  0  0
 19 20  1  0  0  0
 19105  1  0  0  0
 20 21  1  0  0  0
 20 22  2  0  0  0
 21106  1  0  0  0
 21107  1  0  0  0
 22108  1  0  0  0
 23 24  1  0  0  0
 23109  1  0  0  0
 24 25  1  0  0  0
 24 27  1  0  0  0
 24110  1  0  0  0
 25 26  2  0  0  0
 25 29  1  0  0  0
 27 28  1  0  0  0
 27111  1  0  0  0
 27112  1  0  0  0
 28113  1  0  0  0
 29 30  1  0  0  0
 29114  1  0  0  0
 30 31  1  0  0  0
 30 33  1  0  0  0
 30115  1  0  0  0
 31 32  2  0  0  0
 31 38  1  0  0  0
 33 34  1  0  0  0
 33116  1  0  0  0
 33117  1  0  0  0
 34 35  1  0  0  0
 34118  1  0  0  0
 34119  1  0  0  0
 35 36  1  0  0  0
 35120  1  0  0  0
 35121  1  0  0  0
 36 37  1  0  0  0
 36122  1  0  0  0
 36123  1  0  0  0
 37124  1  0  0  0
 37125  1  0  0  0
 37126  1  0  0  0
 38 39  1  0  0  0
 38127  1  0  0  0
 39 40  1  0  0  0
 39128  1  0  0  0
 39129  1  0  0  0
 40 41  2  0  0  0
 40 42  1  0  0  0
 42 43  1  0  0  0
 42130  1  0  0  0
 43 44  1  0  0  0
 43 46  1  0  0  0
 43131  1  0  0  0
 44 45  2  0  0  0
 44 51  1  0  0  0
 46 47  1  0  0  0
 46132  1  0  0  0
 46133  1  0  0  0
 47 48  1  0  0  0
 47134  1  0  0  0
 47135  1  0  0  0
 48 49  1  0  0  0
 48 50  2  0  0  0
 49136  1  0  0  0
 51 52  1  0  0  0
 51137  1  0  0  0
 52 53  1  0  0  0
 52 55  1  0  0  0
 52138  1  0  0  0
 53 54  2  0  0  0
 53 60  1  0  0  0
 55 56  1  0  0  0
 55139  1  0  0  0
 55140  1  0  0  0
 56 57  1  0  0  0
 56141  1  0  0  0
 56142  1  0  0  0
 57 58  1  0  0  0
 57 59  2  0  0  0
 58143  1  0  0  0
 60 61  1  0  0  0
 60144  1  0  0  0
 61 62  1  0  0  0
 61 64  1  0  0  0
 61145  1  0  0  0
 62 63  2  0  0  0
 62 68  1  0  0  0
 64 65  1  0  0  0
 64146  1  0  0  0
 64147  1  0  0  0
 65 66  1  0  0  0
 65 67  1  0  0  0
 65148  1  0  0  0
 66149  1  0  0  0
 66150  1  0  0  0
 66151  1  0  0  0
 67152  1  0  0  0
 67153  1  0  0  0
 67154  1  0  0  0
 68 69  1  0  0  0
 68155  1  0  0  0
 69 70  1  0  0  0
 69 72  1  0  0  0
 69156  1  0  0  0
 70 71  2  0  0  0
 70 79  1  0  0  0
 72 73  1  0  0  0
 72157  1  0  0  0
 72158  1  0  0  0
 73 74  2  0  0  0
 73 75  1  0  0  0
 74 76  1  0  0  0
 74159  1  0  0  0
 75 77  2  0  0  0
 75160  1  0  0  0
 76 78  2  0  0  0
 76161  1  0  0  0
 77 78  1  0  0  0
 77162  1  0  0  0
 78163  1  0  0  0
 79 80  1  0  0  0
 79164  1  0  0  0
 80 81  1  0  0  0
 80 83  1  0  0  0
 80165  1  0  0  0
 81 82  2  0  0  0
 81166  1  0  0  0
 83 84  1  0  0  0
 83 85  1  0  0  0
 83167  1  0  0  0
 84168  1  0  0  0
 85169  1  0  0  0
 85170  1  0  0  0
 85171  1  0  0  0
M  CHG  2   1   1  37   1
M  END
> <s_m_source_file>
../2wa8_ligand.sdf

> <i_m_source_file_index>
1

> <s_epik_input>
W2NIXTFbY0hdW2NIXVtjSF1bY0hdYzFbQ0gyXVtDQEhdKFtOSDMrXSlDKD1PKVtOSF1bQ0BASF0oW0NIMl1bQ0gyXVtDSDJdW05IXS9DKFtOSDJdKT1OXFtIXSlDKD1PKVtOSF1bQ0BASF0oW0NIMl1bT0hdKUMoPU8pW05IXVtDQEBIXShbQ0gyXVtDSDJdW0NIMl1bQ0gyXVtOSDMrXSlDKD1PKVtOSF1bQ0gyXUMoPU8pW05IXVtDQEBIXShbQ0gyXVtDSDJdQyg9TylbT0hdKUMoPU8pW05IXVtDQEBIXShbQ0gyXVtDSDJdQyg9TylbT0hdKUMoPU8pW05IXVtDQEBIXShbQ0gyXVtDSF0oW0NIM10pW0NIM10pQyg9TylbTkhdW0NASF0oQyg9TylbTkhdW0NASF0oW0NIXT1PKVtDQEhdKFtPSF0pW0NIM10pW0NIMl1jMltjSF1bY0hdW2NIXVtjSF1bY0hdMg==

> <s_epik_cmdline>
J2VwaWtfYXBwJywgJy1pbWFlJywgJ2xpZ2FuZF9wcm8ubWFlJywgJy1vbWFlJywgJ2xpZ2FuZF9wcmVwLm1hZScsICctbXMnLCAnMScsICctcGgnLCAnNycsICctcGh0JywgJzAuNScsICctbnQn

> <s_epik_pKa_notes>
Molecule size exceeds maximum supported for generating protonation states

> <s_epik_Chemistry_Notes>
This compound has an imine and may undergo hydrolysis.

$$$$
