2wap_ligand
                    3D
 Schrodinger Suite 2020-3.
 45 47  0  0  1  0            999 V2000
  -12.5720  -11.4210   -4.6340 O   0  0  0  0  0  0
  -13.5160  -11.2030   -3.8770 C   0  0  0  0  0  0
  -14.6790  -10.6950   -4.2770 N   0  0  0  0  0  0
  -15.7490  -10.4700   -3.2970 C   0  0  0  0  0  0
  -16.3760   -9.0940   -3.5450 C   0  0  0  0  0  0
  -14.9060  -10.3930   -5.6890 C   0  0  0  0  0  0
  -15.5670   -9.0360   -5.8370 C   0  0  0  0  0  0
  -16.8080   -8.8810   -4.9790 C   0  0  0  0  0  0
  -17.3700   -7.4660   -5.0870 C   0  0  0  0  0  0
  -18.0840   -7.2500   -6.3940 C   0  0  0  0  0  0
  -19.4390   -7.4930   -6.4980 C   0  0  0  0  0  0
  -20.0980   -7.3070   -7.7090 C   0  0  0  0  0  0
  -19.3950   -6.8660   -8.8190 C   0  0  0  0  0  0
  -17.3820   -6.8030   -7.4930 C   0  0  0  0  0  0
  -18.0350   -6.6290   -8.6970 C   0  0  0  0  0  0
  -17.3280   -6.1890   -9.7600 O   0  0  0  0  0  0
  -17.1890   -4.8440   -9.9220 C   0  0  0  0  0  0
  -17.9130   -3.9590   -9.1220 C   0  0  0  0  0  0
  -17.7440   -2.5970   -9.3040 C   0  0  0  0  0  0
  -16.3290   -4.3880  -10.8710 N   0  0  0  0  0  0
  -16.1600   -3.0680  -11.0590 C   0  0  0  0  0  0
  -16.8670   -2.1370  -10.2840 C   0  0  0  0  0  0
  -16.6690   -0.6590  -10.4900 C   0  0  0  0  0  0
  -16.3400   -0.3870  -11.7320 F   0  0  0  0  0  0
  -17.7680    0.0120  -10.1990 F   0  0  0  0  0  0
  -15.6770   -0.2570   -9.7210 F   0  0  0  0  0  0
  -13.4247  -11.4299   -2.8045 H   0  0  0  0  0  0
  -16.5161  -11.2509   -3.4059 H   0  0  0  0  0  0
  -15.3294  -10.5074   -2.2809 H   0  0  0  0  0  0
  -17.2670   -8.9774   -2.9106 H   0  0  0  0  0  0
  -15.6458   -8.3087   -3.2996 H   0  0  0  0  0  0
  -13.9434  -10.3836   -6.2213 H   0  0  0  0  0  0
  -15.5601  -11.1609   -6.1277 H   0  0  0  0  0  0
  -14.8578   -8.2486   -5.5419 H   0  0  0  0  0  0
  -15.8660   -8.8861   -6.8849 H   0  0  0  0  0  0
  -17.5734   -9.6023   -5.3014 H   0  0  0  0  0  0
  -18.0844   -7.2918   -4.2689 H   0  0  0  0  0  0
  -16.5478   -6.7386   -5.0169 H   0  0  0  0  0  0
  -19.9964   -7.8330   -5.6252 H   0  0  0  0  0  0
  -21.1666   -7.5080   -7.7848 H   0  0  0  0  0  0
  -19.9025   -6.7084   -9.7707 H   0  0  0  0  0  0
  -16.3165   -6.5880   -7.4118 H   0  0  0  0  0  0
  -18.6014   -4.3345   -8.3650 H   0  0  0  0  0  0
  -18.2938   -1.8887   -8.6842 H   0  0  0  0  0  0
  -15.4656   -2.7170  -11.8224 H   0  0  0  0  0  0
  1  2  2  0  0  0
  2  3  1  0  0  0
  2 27  1  0  0  0
  3  4  1  0  0  0
  3  6  1  0  0  0
  4  5  1  0  0  0
  4 28  1  0  0  0
  4 29  1  0  0  0
  5  8  1  0  0  0
  5 30  1  0  0  0
  5 31  1  0  0  0
  6  7  1  0  0  0
  6 32  1  0  0  0
  6 33  1  0  0  0
  7  8  1  0  0  0
  7 34  1  0  0  0
  7 35  1  0  0  0
  8  9  1  0  0  0
  8 36  1  0  0  0
  9 10  1  0  0  0
  9 37  1  0  0  0
  9 38  1  0  0  0
 10 11  2  0  0  0
 10 14  1  0  0  0
 11 12  1  0  0  0
 11 39  1  0  0  0
 12 13  2  0  0  0
 12 40  1  0  0  0
 13 15  1  0  0  0
 13 41  1  0  0  0
 14 15  2  0  0  0
 14 42  1  0  0  0
 15 16  1  0  0  0
 16 17  1  0  0  0
 17 18  2  0  0  0
 17 20  1  0  0  0
 18 19  1  0  0  0
 18 43  1  0  0  0
 19 22  2  0  0  0
 19 44  1  0  0  0
 20 21  2  0  0  0
 21 22  1  0  0  0
 21 45  1  0  0  0
 22 23  1  0  0  0
 23 24  1  0  0  0
 23 25  1  0  0  0
 23 26  1  0  0  0
M  END
> <s_m_source_file>
../2wap_ligand.sdf

> <i_m_source_file_index>
1

> <s_epik_input>
Tz1bQ0hdTjFbQ0gyXVtDSDJdW0NIXShbQ0gyXVtDSDJdMSlbQ0gyXWMyW2NIXVtjSF1bY0hdYyhbY0hdMilPYzNbY0hdW2NIXWMoW2NIXW4zKUMoRikoRilG

> <s_epik_cmdline>
J2VwaWtfYXBwJywgJy1pbWFlJywgJ2xpZ2FuZF9wcm8ubWFlJywgJy1vbWFlJywgJ2xpZ2FuZF9wcmVwLm1hZScsICctbXMnLCAnMScsICctcGgnLCAnNycsICctcGh0JywgJzAuNScsICctbnQn

> <r_lp_tautomer_probability>
1

> <r_epik_Ionization_Penalty>
  0.0000

> <r_epik_Ionization_Penalty_Charging>
  0.0000

> <r_epik_Ionization_Penalty_Neutral>
  0.0000

> <r_epik_State_Penalty>
 -0.0000

> <r_epik_Charging_Adjusted_Penalty>
0

> <i_epik_Tot_Q>
0

> <i_epik_Tot_abs_Q>
0

$$$$
