2wb5_ligand
                    3D
 Schrodinger Suite 2020-3.
 52 54  0  0  1  0            999 V2000
   37.1180   40.7830   22.4200 C   0  0  0  0  0  0
   36.3730   41.9840   21.8530 C   0  0  0  0  0  0
   34.8300   41.8550   21.8190 C   0  0  0  0  0  0
   34.1940   40.8890   22.2620 O   0  0  0  0  0  0
   34.2570   42.9020   21.2500 N   0  0  0  0  0  0
   32.7940   43.0210   21.1110 C   0  0  2  0  0  0
   32.1550   43.1900   22.4710 C   0  0  1  0  0  0
   32.2030   44.5760   22.7320 O   0  0  0  0  0  0
   30.7170   42.6680   22.4770 C   0  0  2  0  0  0
   30.1570   42.9940   23.7540 O   0  0  0  0  0  0
   30.7730   41.1640   22.2490 C   0  0  1  0  0  0
   29.4770   40.3640   22.4840 C   0  0  0  0  0  0
   28.4160   41.0020   21.8070 O   0  0  0  0  0  0
   31.1810   41.0250   20.8510 N   0  0  0  0  0  0
   30.8100   40.2080   19.8900 C   0  0  0  0  0  0
   32.1570   41.8780   20.3130 C   0  0  0  0  0  0
   32.2980   41.5580   19.0520 N   0  3  0  0  0  0
   31.4990   40.5410   18.7870 C   0  0  0  0  0  0
   31.4280   39.8440   17.4180 C   0  0  0  0  0  0
   31.2930   40.8880   16.3130 C   0  0  0  0  0  0
   29.8640   41.4530   16.1900 C   0  0  0  0  0  0
   28.8390   40.6370   15.7040 C   0  0  0  0  0  0
   27.5530   41.1440   15.5490 C   0  0  0  0  0  0
   27.3130   42.4690   15.8980 C   0  0  0  0  0  0
   28.3240   43.2950   16.3920 C   0  0  0  0  0  0
   29.6050   42.7840   16.5420 C   0  0  0  0  0  0
   38.2002   40.9790   22.3979 H   0  0  0  0  0  0
   36.8940   39.8929   21.8137 H   0  0  0  0  0  0
   36.7979   40.6096   23.4580 H   0  0  0  0  0  0
   36.5970   42.8741   22.4593 H   0  0  0  0  0  0
   36.6931   42.1574   20.8150 H   0  0  0  0  0  0
   34.9121   43.7015   20.8736 H   0  0  0  0  0  0
   32.6372   43.9375   20.5232 H   0  0  0  0  0  0
   32.7068   42.6794   23.2740 H   0  0  0  0  0  0
   33.1713   45.0971   22.7603 H   0  0  0  0  0  0
   30.0525   43.1347   21.7350 H   0  0  0  0  0  0
   30.0539   44.0464   24.0569 H   0  0  0  0  0  0
   31.4922   40.7335   22.9614 H   0  0  0  0  0  0
   29.6023   39.3415   22.0984 H   0  0  0  0  0  0
   29.2602   40.3254   23.5617 H   0  0  0  0  0  0
   27.4012   40.5801   21.8535 H   0  0  0  0  0  0
   30.0764   39.4061   19.9737 H   0  0  0  0  0  0
   32.3457   39.2595   17.2561 H   0  0  0  0  0  0
   30.5567   39.1730   17.3929 H   0  0  0  0  0  0
   31.9689   41.7307   16.5203 H   0  0  0  0  0  0
   31.5576   40.4350   15.3462 H   0  0  0  0  0  0
   29.0480   39.5990   15.4453 H   0  0  0  0  0  0
   26.7502   40.5163   15.1622 H   0  0  0  0  0  0
   26.3074   42.8735   15.7825 H   0  0  0  0  0  0
   28.1093   44.3303   16.6570 H   0  0  0  0  0  0
   30.4048   43.4140   16.9312 H   0  0  0  0  0  0
   32.9993   42.1194   18.4172 H   0  0  0  0  0  0
  1  2  1  0  0  0
  1 27  1  0  0  0
  1 28  1  0  0  0
  1 29  1  0  0  0
  2  3  1  0  0  0
  2 30  1  0  0  0
  2 31  1  0  0  0
  3  4  2  0  0  0
  3  5  1  0  0  0
  5  6  1  0  0  0
  5 32  1  0  0  0
  6  7  1  0  0  0
  6 16  1  0  0  0
  6 33  1  0  0  0
  7  8  1  0  0  0
  7  9  1  0  0  0
  7 34  1  0  0  0
  8 35  1  0  0  0
  9 10  1  0  0  0
  9 11  1  0  0  0
  9 36  1  0  0  0
 10 37  1  0  0  0
 11 12  1  0  0  0
 11 14  1  0  0  0
 11 38  1  0  0  0
 12 13  1  0  0  0
 12 39  1  0  0  0
 12 40  1  0  0  0
 13 41  1  0  0  0
 14 15  1  0  0  0
 14 16  1  0  0  0
 15 18  2  0  0  0
 15 42  1  0  0  0
 16 17  2  0  0  0
 17 18  1  0  0  0
 17 52  1  0  0  0
 18 19  1  0  0  0
 19 20  1  0  0  0
 19 43  1  0  0  0
 19 44  1  0  0  0
 20 21  1  0  0  0
 20 45  1  0  0  0
 20 46  1  0  0  0
 21 22  2  0  0  0
 21 26  1  0  0  0
 22 23  1  0  0  0
 22 47  1  0  0  0
 23 24  2  0  0  0
 23 48  1  0  0  0
 24 25  1  0  0  0
 24 49  1  0  0  0
 25 26  2  0  0  0
 25 50  1  0  0  0
 26 51  1  0  0  0
M  CHG  1  17   1
M  END
> <s_m_source_file>
../2wb5_ligand.sdf

> <i_m_source_file_index>
1

> <s_epik_input>
W09IXVtDSDJdW0NAQEhdMVtDQEBIXShbT0hdKVtDQEhdKFtPSF0pW0NAQEhdKFtOSF1DKD1PKVtDSDJdW0NIM10pYyhuMTIpbmMoW2NIXTIpW0NIMl1bQ0gyXWMzW2NIXVtjSF1bY0hdW2NIXVtjSF0z

> <s_epik_cmdline>
J2VwaWtfYXBwJywgJy1pbWFlJywgJ2xpZ2FuZF9wcm8ubWFlJywgJy1vbWFlJywgJ2xpZ2FuZF9wcmVwLm1hZScsICctbXMnLCAnMScsICctcGgnLCAnNycsICctcGh0JywgJzAuNScsICctbnQn

> <r_lp_tautomer_probability>
1

> <r_epik_Ionization_Penalty>
  0.0254

> <r_epik_Ionization_Penalty_Charging>
  0.0000

> <r_epik_Ionization_Penalty_Neutral>
  0.0254

> <r_epik_State_Penalty>
  0.0207

> <r_epik_Charging_Adjusted_Penalty>
0.0206603211447557

> <i_epik_Tot_Q>
1

> <i_epik_Tot_abs_Q>
1

$$$$
