2wbb_ligand
                    3D
 Schrodinger Suite 2020-3.
 29 30  0  0  1  0            999 V2000
    5.1960  -15.5910    7.9160 C   0  0  0  0  0  0
    5.3350  -14.4510    7.1410 C   0  0  0  0  0  0
    4.6950  -16.7500   10.0740 C   0  0  0  0  0  0
    4.8350  -15.4950    9.2570 C   0  0  0  0  0  0
    7.4780  -10.8590    7.5200 C   0  0  0  0  0  0
    6.9980  -10.3970    8.5390 O   0  5  0  0  0  0
    8.7720  -10.6900    7.2190 N   0  0  0  0  0  0
    9.5840   -9.9180    7.9450 C   0  0  0  0  0  0
    4.7650  -12.0650    5.4910 O   0  0  0  0  0  0
   11.2170   -8.4600    8.3020 C   0  0  0  0  0  0
   10.6300   -8.6020    9.5140 C   0  0  0  0  0  0
    4.7120  -13.0970    9.0540 C   0  0  0  0  0  0
    4.5450  -10.7830    7.3600 O   0  0  0  0  0  0
   11.2740   -7.6460   11.0690 Br  0  0  0  0  0  0
    9.3990   -9.5990    9.4930 S   0  0  0  0  0  0
   10.5840   -9.2110    7.4210 N   0  0  0  0  0  0
    6.7500  -11.5770    6.6700 N   0  0  0  0  0  0
    5.2650  -11.8960    6.8220 S   0  0  0  0  0  0
    5.0840  -13.2030    7.7110 C   0  0  0  0  0  0
    4.5880  -14.2450    9.8300 C   0  0  0  0  0  0
    5.3707  -16.5710    7.4721 H   0  0  0  0  0  0
    5.6374  -14.5286    6.0967 H   0  0  0  0  0  0
    4.9305  -17.6232    9.4479 H   0  0  0  0  0  0
    3.6628  -16.8326   10.4452 H   0  0  0  0  0  0
    5.3893  -16.7120   10.9263 H   0  0  0  0  0  0
    9.2039  -11.1975    6.3438 H   0  0  0  0  0  0
   12.0769   -7.8253    8.0880 H   0  0  0  0  0  0
    4.5196  -12.1177    9.4922 H   0  0  0  0  0  0
    4.2999  -14.1697   10.8785 H   0  0  0  0  0  0
  1  2  2  0  0  0
  1  4  1  0  0  0
  1 21  1  0  0  0
  2 19  1  0  0  0
  2 22  1  0  0  0
  3  4  1  0  0  0
  3 23  1  0  0  0
  3 24  1  0  0  0
  3 25  1  0  0  0
  4 20  2  0  0  0
  5  6  1  0  0  0
  5  7  1  0  0  0
  5 17  2  0  0  0
  7  8  1  0  0  0
  7 26  1  0  0  0
  8 15  1  0  0  0
  8 16  2  0  0  0
  9 18  2  0  0  0
 10 11  2  0  0  0
 10 16  1  0  0  0
 10 27  1  0  0  0
 11 14  1  0  0  0
 11 15  1  0  0  0
 12 19  2  0  0  0
 12 20  1  0  0  0
 12 28  1  0  0  0
 13 18  2  0  0  0
 17 18  1  0  0  0
 18 19  1  0  0  0
 20 29  1  0  0  0
M  CHG  1   6  -1
M  END
> <s_m_source_file>
../2wbb_ligand.sdf

> <i_m_source_file_index>
1

> <s_epik_input>
W0NIM11jMVtjSF1bY0hdYyhbY0hdW2NIXTEpUyg9TykoPU8pW05IXUMoPU8pW05IXWMyc2MoQnIpW2NIXW4y

> <s_epik_cmdline>
J2VwaWtfYXBwJywgJy1pbWFlJywgJ2xpZ2FuZF9wcm8ubWFlJywgJy1vbWFlJywgJ2xpZ2FuZF9wcmVwLm1hZScsICctbXMnLCAnMScsICctcGgnLCAnNycsICctcGh0JywgJzAuNScsICctbnQn

> <r_lp_tautomer_probability>
1

> <r_epik_Ionization_Penalty>
  0.0003

> <r_epik_Ionization_Penalty_Charging>
  0.0001

> <r_epik_Ionization_Penalty_Neutral>
  0.0002

> <r_epik_State_Penalty>
 -0.0000

> <r_epik_Charging_Adjusted_Penalty>
0.000112885080934573

> <i_epik_Tot_Q>
-1

> <i_epik_Tot_abs_Q>
1

$$$$
