2wbd_ligand
                    3D
 Schrodinger Suite 2020-3.
 32 33  0  0  1  0            999 V2000
   34.8610   13.8410  -23.2290 C   0  0  0  0  0  0
   36.2530   13.8000  -23.2130 C   0  0  0  0  0  0
   34.1510   13.5390  -22.0780 C   0  0  0  0  0  0
   39.3890   10.9120  -22.4290 C   0  0  0  0  0  0
   39.0970   10.5930  -21.2920 O   0  5  0  0  0  0
   39.8530   10.0460  -23.3190 N   0  0  0  0  0  0
   40.0740    8.8140  -22.9060 C   0  0  0  0  0  0
   39.3080   14.5630  -22.5550 O   0  0  0  0  0  0
   41.0480    6.7670  -22.8370 C   0  0  0  0  0  0
   40.3050    6.5600  -21.7110 C   0  0  0  0  0  0
   36.2350   13.1840  -20.8980 C   0  0  0  0  0  0
   39.0730   13.3430  -20.6190 O   0  0  0  0  0  0
   40.1840    5.0270  -20.5840 Br  0  0  0  0  0  0
   39.4330    8.0370  -21.4850 S   0  0  0  0  0  0
   40.9340    7.9280  -23.4190 N   0  0  0  0  0  0
   39.2490   12.1390  -22.8640 N   0  0  0  0  0  0
   38.6890   13.4090  -21.9990 S   0  0  0  0  0  0
   36.9340   13.4640  -22.0550 C   0  0  0  0  0  0
   34.8430   13.2160  -20.9070 C   0  0  0  0  0  0
   34.1110   12.9330  -19.6110 C   0  0  0  0  0  0
   33.2690   11.7020  -19.7290 C   0  0  0  0  0  0
   34.3321   14.1096  -24.1434 H   0  0  0  0  0  0
   36.8111   14.0343  -24.1195 H   0  0  0  0  0  0
   33.0611   13.5532  -22.0856 H   0  0  0  0  0  0
   40.0380   10.3675  -24.3546 H   0  0  0  0  0  0
   41.7081    5.9951  -23.2325 H   0  0  0  0  0  0
   36.7707   12.9388  -19.9809 H   0  0  0  0  0  0
   34.8416   12.7846  -18.8021 H   0  0  0  0  0  0
   33.4591   13.7841  -19.3647 H   0  0  0  0  0  0
   32.7499   11.5202  -18.7764 H   0  0  0  0  0  0
   33.9103   10.8406  -19.9674 H   0  0  0  0  0  0
   32.5278   11.8402  -20.5300 H   0  0  0  0  0  0
  1  2  2  0  0  0
  1  3  1  0  0  0
  1 22  1  0  0  0
  2 18  1  0  0  0
  2 23  1  0  0  0
  3 19  2  0  0  0
  3 24  1  0  0  0
  4  5  1  0  0  0
  4  6  1  0  0  0
  4 16  2  0  0  0
  6  7  1  0  0  0
  6 25  1  0  0  0
  7 14  1  0  0  0
  7 15  2  0  0  0
  8 17  2  0  0  0
  9 10  2  0  0  0
  9 15  1  0  0  0
  9 26  1  0  0  0
 10 13  1  0  0  0
 10 14  1  0  0  0
 11 18  2  0  0  0
 11 19  1  0  0  0
 11 27  1  0  0  0
 12 17  2  0  0  0
 16 17  1  0  0  0
 17 18  1  0  0  0
 19 20  1  0  0  0
 20 21  1  0  0  0
 20 28  1  0  0  0
 20 29  1  0  0  0
 21 30  1  0  0  0
 21 31  1  0  0  0
 21 32  1  0  0  0
M  CHG  1   5  -1
M  END
> <s_m_source_file>
../2wbd_ligand.sdf

> <i_m_source_file_index>
1

> <s_epik_input>
W0NIM11bQ0gyXWMoW2NIXTEpW2NIXVtjSF1bY0hdYzFTKD1PKSg9TylbTkhdQyg9TylbTkhdYzJzYyhCcilbY0hdbjI=

> <s_epik_cmdline>
J2VwaWtfYXBwJywgJy1pbWFlJywgJ2xpZ2FuZF9wcm8ubWFlJywgJy1vbWFlJywgJ2xpZ2FuZF9wcmVwLm1hZScsICctbXMnLCAnMScsICctcGgnLCAnNycsICctcGh0JywgJzAuNScsICctbnQn

> <r_lp_tautomer_probability>
1

> <r_epik_Ionization_Penalty>
  0.0003

> <r_epik_Ionization_Penalty_Charging>
  0.0001

> <r_epik_Ionization_Penalty_Neutral>
  0.0002

> <r_epik_State_Penalty>
 -0.0000

> <r_epik_Charging_Adjusted_Penalty>
9.60821488149241e-05

> <i_epik_Tot_Q>
-1

> <i_epik_Tot_abs_Q>
1

$$$$
