2wc4_ligand
                    3D
 Schrodinger Suite 2020-3.
 51 52  0  0  1  0            999 V2000
    0.7280    7.5290   14.3270 O   0  0  0  0  0  0
    1.6200    6.6390   13.6320 C   0  0  2  0  0  0
    0.9800    6.2960   12.2800 C   0  0  1  0  0  0
    0.5540    7.4960   11.4160 C   0  0  0  0  0  0
    0.6600    6.9870    9.7150 S   0  0  0  0  0  0
    1.8110    5.3290   14.3850 C   0  0  2  0  0  0
    2.3660    5.5290   15.6720 O   0  0  0  0  0  0
    2.8660    4.4700   13.6870 C   0  0  1  0  0  0
    2.7650    3.1160   14.1630 O   0  0  0  0  0  0
    2.7050    4.4200   12.1600 C   0  0  2  0  0  0
    4.0160    4.3950   11.5500 O   0  0  0  0  0  0
    1.9240    5.4520   11.5040 N   0  0  0  0  0  0
    1.7950    5.7170   10.1190 C   0  0  0  0  0  0
    2.4930    5.0800    9.1530 N   0  3  0  0  0  0
    2.3840    5.3600    7.7010 C   0  0  0  0  0  0
    3.6330    6.0350    7.1610 C   0  0  0  0  0  0
    3.6000    6.0750    5.6300 C   0  0  0  0  0  0
    4.8600    6.7980    5.1500 C   0  0  0  0  0  0
    4.9050    6.8160    3.6270 C   0  0  0  0  0  0
    6.3550    6.9580    3.1520 C   0  0  0  0  0  0
    6.3940    7.8860    1.9490 C   0  0  0  0  0  0
    7.8090    8.4080    1.7750 C   0  0  0  0  0  0
    0.4943    8.5162   13.9017 H   0  0  0  0  0  0
    2.5742    7.1819   13.5637 H   0  0  0  0  0  0
    0.0589    5.7400   12.5091 H   0  0  0  0  0  0
   -0.4772    7.7827   11.6697 H   0  0  0  0  0  0
    1.2281    8.3438   11.6081 H   0  0  0  0  0  0
    0.8167    4.8728   14.4999 H   0  0  0  0  0  0
    1.8215    6.1249   16.4193 H   0  0  0  0  0  0
    3.8526    4.8783   13.9514 H   0  0  0  0  0  0
    2.8511    2.9033   15.2388 H   0  0  0  0  0  0
    2.1156    3.5183   11.9374 H   0  0  0  0  0  0
    4.7727    3.6783   11.9018 H   0  0  0  0  0  0
    2.2386    4.4159    7.1555 H   0  0  0  0  0  0
    1.5265    6.0245    7.5191 H   0  0  0  0  0  0
    3.6885    7.0644    7.5448 H   0  0  0  0  0  0
    4.5221    5.4744    7.4853 H   0  0  0  0  0  0
    3.5777    5.0479    5.2368 H   0  0  0  0  0  0
    2.7014    6.6148    5.2966 H   0  0  0  0  0  0
    4.8537    7.8327    5.5233 H   0  0  0  0  0  0
    5.7500    6.2761    5.5314 H   0  0  0  0  0  0
    4.4847    5.8774    3.2367 H   0  0  0  0  0  0
    4.3149    7.6655    3.2527 H   0  0  0  0  0  0
    6.9673    7.3777    3.9638 H   0  0  0  0  0  0
    6.7471    5.9696    2.8704 H   0  0  0  0  0  0
    6.0890    7.3323    1.0488 H   0  0  0  0  0  0
    5.7050    8.7277    2.1127 H   0  0  0  0  0  0
    7.8472    9.0812    0.9059 H   0  0  0  0  0  0
    8.4945    7.5628    1.6145 H   0  0  0  0  0  0
    8.1105    8.9582    2.6785 H   0  0  0  0  0  0
    3.2066    4.2873    9.4220 H   0  0  0  0  0  0
  1  2  1  0  0  0
  1 23  1  0  0  0
  2  3  1  0  0  0
  2  6  1  0  0  0
  2 24  1  0  0  0
  3  4  1  0  0  0
  3 12  1  0  0  0
  3 25  1  0  0  0
  4  5  1  0  0  0
  4 26  1  0  0  0
  4 27  1  0  0  0
  5 13  1  0  0  0
  6  7  1  0  0  0
  6  8  1  0  0  0
  6 28  1  0  0  0
  7 29  1  0  0  0
  8  9  1  0  0  0
  8 10  1  0  0  0
  8 30  1  0  0  0
  9 31  1  0  0  0
 10 11  1  0  0  0
 10 12  1  0  0  0
 10 32  1  0  0  0
 11 33  1  0  0  0
 12 13  1  0  0  0
 13 14  2  0  0  0
 14 15  1  0  0  0
 14 51  1  0  0  0
 15 16  1  0  0  0
 15 34  1  0  0  0
 15 35  1  0  0  0
 16 17  1  0  0  0
 16 36  1  0  0  0
 16 37  1  0  0  0
 17 18  1  0  0  0
 17 38  1  0  0  0
 17 39  1  0  0  0
 18 19  1  0  0  0
 18 40  1  0  0  0
 18 41  1  0  0  0
 19 20  1  0  0  0
 19 42  1  0  0  0
 19 43  1  0  0  0
 20 21  1  0  0  0
 20 44  1  0  0  0
 20 45  1  0  0  0
 21 22  1  0  0  0
 21 46  1  0  0  0
 21 47  1  0  0  0
 22 48  1  0  0  0
 22 49  1  0  0  0
 22 50  1  0  0  0
M  CHG  1  14   1
M  END
> <s_m_source_file>
../2wc4_ligand.sdf

> <i_m_source_file_index>
1

> <s_epik_input>
W09IXVtDQEhdMVtDQEhdKFtPSF0pW0NAQEhdKFtPSF0pW0NASF0oW09IXSlOKFtDQEBIXTEyKUMoXFNbQ0gyXTIpPU5cW0NIMl1bQ0gyXVtDSDJdW0NIMl1bQ0gyXVtDSDJdW0NIMl1bQ0gzXQ==

> <s_epik_cmdline>
J2VwaWtfYXBwJywgJy1pbWFlJywgJ2xpZ2FuZF9wcm8ubWFlJywgJy1vbWFlJywgJ2xpZ2FuZF9wcmVwLm1hZScsICctbXMnLCAnMScsICctcGgnLCAnNycsICctcGh0JywgJzAuNScsICctbnQn

> <r_epik_Ionization_Penalty>
  0.0219

> <r_epik_Ionization_Penalty_Charging>
  0.0154

> <r_epik_Ionization_Penalty_Neutral>
  0.0065

> <r_epik_State_Penalty>
  0.0121

> <r_epik_Charging_Adjusted_Penalty>
0.0275014901317276

> <i_epik_Tot_Q>
1

> <i_epik_Tot_abs_Q>
1

> <s_epik_Chemistry_Notes>
This compound has an imine and may undergo hydrolysis. This compound contains an acetal/aminal-like group ( X-CH(R)-Y where X, Y are N, S, or O) that may be acid/base labile, releasing an aldehyde.

$$$$
