2wcg_ligand
                    3D
 Schrodinger Suite 2020-3.
 28 29  0  0  1  0            999 V2000
  -24.5140  -17.0110  -38.3320 N   0  0  0  0  0  0
  -24.3030  -16.5890  -39.5890 C   0  0  0  0  0  0
  -23.4540  -15.6180  -39.9860 N   0  3  0  0  0  0
  -23.5070  -15.4480  -41.4370 C   0  0  0  0  0  0
  -24.5410  -16.5030  -41.8660 C   0  0  1  0  0  0
  -24.9760  -17.1480  -40.6480 N   0  0  0  0  0  0
  -25.9600  -18.1570  -40.6510 C   0  0  2  0  0  0
  -25.6760  -19.3890  -40.1450 O   0  0  0  0  0  0
  -26.8270  -18.2540  -41.9000 C   0  0  2  0  0  0
  -26.9570  -19.5750  -42.4770 O   0  0  0  0  0  0
  -26.4850  -17.2570  -43.0140 C   0  0  1  0  0  0
  -27.7150  -16.8290  -43.5320 O   0  0  0  0  0  0
  -25.7960  -16.0120  -42.4650 C   0  0  2  0  0  0
  -25.4830  -15.0600  -43.4370 O   0  0  0  0  0  0
  -23.9648  -16.5502  -37.4977 H   0  0  0  0  0  0
  -22.8451  -15.0822  -39.2429 H   0  0  0  0  0  0
  -23.8240  -14.4218  -41.6746 H   0  0  0  0  0  0
  -22.5103  -15.6321  -41.8644 H   0  0  0  0  0  0
  -24.0693  -17.1508  -42.6195 H   0  0  0  0  0  0
  -26.4499  -17.7661  -39.7470 H   0  0  0  0  0  0
  -25.0569  -19.4828  -39.2406 H   0  0  0  0  0  0
  -27.8261  -18.0438  -41.4907 H   0  0  0  0  0  0
  -27.2017  -20.4340  -41.8349 H   0  0  0  0  0  0
  -25.8765  -17.7229  -43.8031 H   0  0  0  0  0  0
  -28.4019  -17.5560  -43.9897 H   0  0  0  0  0  0
  -26.4424  -15.4354  -41.7870 H   0  0  0  0  0  0
  -24.9837  -14.1232  -43.1487 H   0  0  0  0  0  0
  -25.2360  -17.8175  -38.1365 H   0  0  0  0  0  0
  1  2  1  0  0  0
  1 15  1  0  0  0
  1 28  1  0  0  0
  2  3  2  0  0  0
  2  6  1  0  0  0
  3  4  1  0  0  0
  3 16  1  0  0  0
  4  5  1  0  0  0
  4 17  1  0  0  0
  4 18  1  0  0  0
  5  6  1  0  0  0
  5 13  1  0  0  0
  5 19  1  0  0  0
  6  7  1  0  0  0
  7  8  1  0  0  0
  7  9  1  0  0  0
  7 20  1  0  0  0
  8 21  1  0  0  0
  9 10  1  0  0  0
  9 11  1  0  0  0
  9 22  1  0  0  0
 10 23  1  0  0  0
 11 12  1  0  0  0
 11 13  1  0  0  0
 11 24  1  0  0  0
 12 25  1  0  0  0
 13 14  1  0  0  0
 13 26  1  0  0  0
 14 27  1  0  0  0
M  CHG  1   3   1
M  END
> <s_m_source_file>
../2wcg_ligand.sdf

> <i_m_source_file_index>
1

> <s_epik_input>
W0NIMl0xW05IXVxDKD1OXFtIXSlOKFtDQEhdMTIpW0NASF0oW09IXSlbQ0BIXShbT0hdKVtDQEBIXShbT0hdKVtDQEBIXTJbT0hd

> <s_epik_cmdline>
J2VwaWtfYXBwJywgJy1pbWFlJywgJ2xpZ2FuZF9wcm8ubWFlJywgJy1vbWFlJywgJ2xpZ2FuZF9wcmVwLm1hZScsICctbXMnLCAnMScsICctcGgnLCAnNycsICctcGh0JywgJzAuNScsICctbnQn

> <r_lp_tautomer_probability>
1

> <r_epik_Ionization_Penalty>
  0.0072

> <r_epik_Ionization_Penalty_Charging>
  0.0055

> <r_epik_Ionization_Penalty_Neutral>
  0.0018

> <r_epik_State_Penalty>
 -0.0000

> <r_epik_Charging_Adjusted_Penalty>
0.00547844020178649

> <i_epik_Tot_Q>
1

> <i_epik_Tot_abs_Q>
1

> <s_epik_Chemistry_Notes>
This compound has an imine and may undergo hydrolysis. This compound contains an acetal/aminal-like group ( X-CH(R)-Y where X, Y are N, S, or O) that may be acid/base labile, releasing an aldehyde.

$$$$
