2wcx_ligand
                    3D
 Schrodinger Suite 2020-3.
 44 47  0  0  1  0            999 V2000
   30.8760   14.9350    7.3790 C   0  0  0  0  0  0
   31.2790   16.1490    8.1720 C   0  0  0  0  0  0
   32.2210   15.7110    9.3530 C   0  0  0  0  0  0
   31.5720   14.6390   10.2300 C   0  0  0  0  0  0
   31.0080   13.4930    9.3910 C   0  0  0  0  0  0
   30.0150   14.0120    8.3390 C   0  0  0  0  0  0
   29.4940   12.8140    7.5280 C   0  0  0  0  0  0
   30.2940   12.0990    6.6360 C   0  0  0  0  0  0
   31.8620   11.9370    5.9650 S   0  0  0  0  0  0
   31.4210   10.6180    5.0130 C   0  0  0  0  0  0
   32.3840    9.8970    4.1100 C   0  0  0  0  0  0
   31.9800    8.9130    3.4810 O   0  5  0  0  0  0
   33.5430   10.2810    4.0740 O   0  0  0  0  0  0
   30.1570   10.2710    5.2030 C   0  0  0  0  0  0
   29.4990   11.0910    6.1070 C   0  0  0  0  0  0
   28.3060   11.2770    6.6700 N   0  0  0  0  0  0
   27.0970   10.5000    6.4880 C   0  0  0  0  0  0
   28.2320   12.2780    7.5110 C   0  0  0  0  0  0
   27.1190   12.6500    8.2400 C   0  0  0  0  0  0
   25.8700   12.8490    7.6540 C   0  0  0  0  0  0
   24.7450   13.2140    8.4470 C   0  0  0  0  0  0
   24.8410   13.4580    9.8560 C   0  0  0  0  0  0
   26.1240   13.2620   10.4180 C   0  0  0  0  0  0
   27.2360   12.8390    9.6240 C   0  0  0  0  0  0
   30.2821   15.2470    6.5073 H   0  0  0  0  0  0
   31.7770   14.4042    7.0378 H   0  0  0  0  0  0
   31.8130   16.8537    7.5176 H   0  0  0  0  0  0
   30.3806   16.6357    8.5793 H   0  0  0  0  0  0
   33.1565   15.3022    8.9435 H   0  0  0  0  0  0
   32.4473   16.5830    9.9843 H   0  0  0  0  0  0
   32.3221   14.2273   10.9213 H   0  0  0  0  0  0
   30.7485   15.0859   10.8063 H   0  0  0  0  0  0
   31.8308   12.9781    8.8734 H   0  0  0  0  0  0
   30.4849   12.7814   10.0467 H   0  0  0  0  0  0
   29.1575   14.5227    8.8015 H   0  0  0  0  0  0
   29.6829    9.4278    4.7006 H   0  0  0  0  0  0
   27.2847    9.6941    5.7633 H   0  0  0  0  0  0
   26.2952   11.1522    6.1116 H   0  0  0  0  0  0
   26.7931   10.0637    7.4510 H   0  0  0  0  0  0
   25.7532   12.7239    6.5775 H   0  0  0  0  0  0
   23.7730   13.3116    7.9636 H   0  0  0  0  0  0
   23.9849   13.7727   10.4529 H   0  0  0  0  0  0
   26.2692   13.4379   11.4839 H   0  0  0  0  0  0
   28.1968   12.6594   10.1064 H   0  0  0  0  0  0
  1  2  1  0  0  0
  1  6  1  0  0  0
  1 25  1  0  0  0
  1 26  1  0  0  0
  2  3  1  0  0  0
  2 27  1  0  0  0
  2 28  1  0  0  0
  3  4  1  0  0  0
  3 29  1  0  0  0
  3 30  1  0  0  0
  4  5  1  0  0  0
  4 31  1  0  0  0
  4 32  1  0  0  0
  5  6  1  0  0  0
  5 33  1  0  0  0
  5 34  1  0  0  0
  6  7  1  0  0  0
  6 35  1  0  0  0
  7  8  1  0  0  0
  7 18  2  0  0  0
  8  9  1  0  0  0
  8 15  2  0  0  0
  9 10  1  0  0  0
 10 11  1  0  0  0
 10 14  2  0  0  0
 11 12  1  0  0  0
 11 13  2  0  0  0
 14 15  1  0  0  0
 14 36  1  0  0  0
 15 16  1  0  0  0
 16 17  1  0  0  0
 16 18  1  0  0  0
 17 37  1  0  0  0
 17 38  1  0  0  0
 17 39  1  0  0  0
 18 19  1  0  0  0
 19 20  2  0  0  0
 19 24  1  0  0  0
 20 21  1  0  0  0
 20 40  1  0  0  0
 21 22  2  0  0  0
 21 41  1  0  0  0
 22 23  1  0  0  0
 22 42  1  0  0  0
 23 24  2  0  0  0
 23 43  1  0  0  0
 24 44  1  0  0  0
M  CHG  1  12  -1
M  END
> <s_m_source_file>
../2wcx_ligand.sdf

> <i_m_source_file_index>
1

> <s_epik_input>
W0NIMl0xW0NIMl1bQ0gyXVtDSDJdW0NIMl1bQ0hdMWMyYyhuKFtDSDNdKWMoYzIzKVtjSF1jKHMzKUMoPU8pW09IXSktYzRbY0hdW2NIXVtjSF1bY0hdW2NIXTQ=

> <s_epik_cmdline>
J2VwaWtfYXBwJywgJy1pbWFlJywgJ2xpZ2FuZF9wcm8ubWFlJywgJy1vbWFlJywgJ2xpZ2FuZF9wcmVwLm1hZScsICctbXMnLCAnMScsICctcGgnLCAnNycsICctcGh0JywgJzAuNScsICctbnQn

> <r_lp_tautomer_probability>
1

> <r_epik_Ionization_Penalty>
  0.0003

> <r_epik_Ionization_Penalty_Charging>
  0.0003

> <r_epik_Ionization_Penalty_Neutral>
  0.0000

> <r_epik_State_Penalty>
 -0.0000

> <r_epik_Charging_Adjusted_Penalty>
0.000286159194134338

> <i_epik_Tot_Q>
-1

> <i_epik_Tot_abs_Q>
1

$$$$
