2wd7_ligand
                    3D
 Schrodinger Suite 2020-3.
 17 18  0  0  1  0            999 V2000
    6.1950  -13.4710   13.6130 Cl  0  0  0  0  0  0
    6.9170  -11.9450   14.2070 C   0  0  0  0  0  0
    6.2080  -11.0070   14.9780 C   0  0  0  0  0  0
    6.8570   -9.8340   15.3870 C   0  0  0  0  0  0
    8.1940   -9.6190   15.0220 C   0  0  0  0  0  0
    8.8890  -10.5810   14.2520 C   0  0  0  0  0  0
    8.2440  -11.7350   13.8490 C   0  0  0  0  0  0
    9.0670   -8.6120   15.2830 N   0  0  0  0  0  0
   10.2180   -8.9940   14.6750 C   0  0  0  0  0  0
   10.1680  -10.1810   14.0440 N   0  3  0  0  0  0
   11.3540   -8.2510   14.6940 N   0  0  0  0  0  0
    5.1693  -11.1893   15.2535 H   0  0  0  0  0  0
    6.3259   -9.0935   15.9850 H   0  0  0  0  0  0
    8.7737  -12.4779   13.2526 H   0  0  0  0  0  0
   12.2589   -8.6166   14.1865 H   0  0  0  0  0  0
    8.7441   -7.7443   15.8771 H   0  0  0  0  0  0
   10.8563  -10.8168   13.4677 H   0  0  0  0  0  0
  1  2  1  0  0  0
  2  3  2  0  0  0
  2  7  1  0  0  0
  3  4  1  0  0  0
  3 12  1  0  0  0
  4  5  2  0  0  0
  4 13  1  0  0  0
  5  6  1  0  0  0
  5  8  1  0  0  0
  6  7  2  0  0  0
  6 10  1  0  0  0
  7 14  1  0  0  0
  8  9  1  0  0  0
  8 16  1  0  0  0
  9 10  1  0  0  0
  9 11  2  0  0  0
 10 17  1  0  0  0
 11 15  1  0  0  0
M  CHG  1  10   1
M  END
> <s_m_source_file>
../2wd7_ligand.sdf

> <i_m_source_file_index>
1

> <s_epik_input>
W2NIXTFbY0hdYyhDbClbY0hdYyhjMTIpW25IXWMobjIpW05IMl0=

> <s_epik_cmdline>
J2VwaWtfYXBwJywgJy1pbWFlJywgJ2xpZ2FuZF9wcm8ubWFlJywgJy1vbWFlJywgJ2xpZ2FuZF9wcmVwLm1hZScsICctbXMnLCAnMScsICctcGgnLCAnNycsICctcGh0JywgJzAuNScsICctbnQn

> <r_epik_Ionization_Penalty>
  0.0000

> <r_epik_Ionization_Penalty_Charging>
  0.0000

> <r_epik_Ionization_Penalty_Neutral>
  0.0000

> <r_epik_State_Penalty>
  0.4107

> <r_epik_Charging_Adjusted_Penalty>
0.410679838952604

> <i_epik_Tot_Q>
1

> <i_epik_Tot_abs_Q>
1

> <s_epik_Chemistry_Notes>
This compound has an imine and may undergo hydrolysis.

$$$$
