2we3_ligand
                    3D
 Schrodinger Suite 2020-3.
 39 40  0  0  1  0            999 V2000
   26.0370   16.9220    4.4070 N   0  0  0  0  0  0
   25.2210   17.1540    3.2730 C   0  0  0  0  0  0
   25.7370   17.0960    2.0120 N   0  0  0  0  0  0
   27.0360   16.7770    1.8290 C   0  0  0  0  0  0
   27.8720   16.5580    2.9280 C   0  0  0  0  0  0
   27.3330   16.6370    4.1980 C   0  0  0  0  0  0
   24.0290   17.4260    3.4090 O   0  0  0  0  0  0
   27.5600   16.7420    0.5890 O   0  0  0  0  0  0
   25.5140   16.9950    5.7970 C   0  0  1  0  0  0
   25.6350   15.6700    6.5560 C   0  0  0  0  0  0
   26.8000   15.8790    7.5280 C   0  0  1  0  0  0
   26.7820   17.3900    7.7660 C   0  0  2  0  0  0
   26.2470   17.9720    6.5700 O   0  0  0  0  0  0
   26.6440   15.1020    8.7370 O   0  0  0  0  0  0
   28.1600   18.0070    8.0590 C   0  0  0  0  0  0
   28.9830   17.7640    6.9160 O   0  0  0  0  0  0
   30.5570   17.9530    7.0140 P   0  0  2  0  0  0
   31.1600   17.6740    5.6660 O   0  5  0  0  0  0
   30.9860   17.2130    8.2280 O   0  0  0  0  0  0
   30.5610   19.5620    7.3290 O   0  0  0  0  0  0
   31.7000   20.4010    8.1790 P   0  0  2  0  0  0
   32.1940   21.5020    7.3180 O   0  0  0  0  0  0
   32.7010   19.4460    8.7320 O   0  5  0  0  0  0
   30.7670   21.0110    9.3380 O   0  0  0  0  0  0
   30.5960   20.3410   10.7980 P   0  0  0  0  0  0
   31.7480   20.9270   11.5690 O   0  5  0  0  0  0
   30.6300   18.8160   10.6540 O   0  5  0  0  0  0
   29.2500   20.7470   11.3050 O   0  0  0  0  0  0
   25.0949   17.3091    1.1446 H   0  0  0  0  0  0
   28.9282   16.3294    2.7859 H   0  0  0  0  0  0
   27.9801   16.4625    5.0576 H   0  0  0  0  0  0
   24.4671   17.3151    5.6890 H   0  0  0  0  0  0
   24.6938   15.4643    7.0868 H   0  0  0  0  0  0
   25.8397   14.8569    5.8440 H   0  0  0  0  0  0
   27.7724   15.4977    7.1830 H   0  0  0  0  0  0
   26.1347   17.6246    8.6239 H   0  0  0  0  0  0
   26.6417   14.0031    8.6881 H   0  0  0  0  0  0
   28.0485   19.0874    8.2331 H   0  0  0  0  0  0
   28.5908   17.5340    8.9538 H   0  0  0  0  0  0
  1  2  1  0  0  0
  1  6  1  0  0  0
  1  9  1  0  0  0
  2  3  1  0  0  0
  2  7  2  0  0  0
  3  4  1  0  0  0
  3 29  1  0  0  0
  4  5  1  0  0  0
  4  8  2  0  0  0
  5  6  2  0  0  0
  5 30  1  0  0  0
  6 31  1  0  0  0
  9 10  1  0  0  0
  9 13  1  0  0  0
  9 32  1  0  0  0
 10 11  1  0  0  0
 10 33  1  0  0  0
 10 34  1  0  0  0
 11 12  1  0  0  0
 11 14  1  0  0  0
 11 35  1  0  0  0
 12 13  1  0  0  0
 12 15  1  0  0  0
 12 36  1  0  0  0
 14 37  1  0  0  0
 15 16  1  0  0  0
 15 38  1  0  0  0
 15 39  1  0  0  0
 16 17  1  0  0  0
 17 18  1  0  0  0
 17 19  2  0  0  0
 17 20  1  0  0  0
 20 21  1  0  0  0
 21 22  2  0  0  0
 21 23  1  0  0  0
 21 24  1  0  0  0
 24 25  1  0  0  0
 25 26  1  0  0  0
 25 27  1  0  0  0
 25 28  2  0  0  0
M  CHG  4  18  -1  23  -1  26  -1  27  -1
M  END
> <s_m_source_file>
../2we3_ligand.sdf

> <i_m_source_file_index>
1

> <s_epik_input>
W2NIXTFbY0hdYyg9TylbbkhdYyg9TyluMVtDQEhdMltDSDJdW0NASF0oW09IXSlbQ0BIXShPMilbQ0gyXU9bUEBAXSg9TykoW09IXSlPW1BAXSg9TykoW09IXSlPUCg9TykoW09IXSlbT0hd

> <s_epik_cmdline>
J2VwaWtfYXBwJywgJy1pbWFlJywgJ2xpZ2FuZF9wcm8ubWFlJywgJy1vbWFlJywgJ2xpZ2FuZF9wcmVwLm1hZScsICctbXMnLCAnMScsICctcGgnLCAnNycsICctcGh0JywgJzAuNScsICctbnQn

> <r_lp_tautomer_probability>
0.999537046341301

> <r_epik_Ionization_Penalty>
  0.0834

> <r_epik_Ionization_Penalty_Charging>
  0.0834

> <r_epik_Ionization_Penalty_Neutral>
  0.0000

> <r_epik_State_Penalty>
  0.0709

> <r_epik_Charging_Adjusted_Penalty>
0.154285638600775

> <i_epik_Tot_Q>
-4

> <i_epik_Tot_abs_Q>
4

> <s_epik_Chemistry_Notes>
This compound contains an acetal/aminal-like group ( X-CH(R)-Y where X, Y are N, S, or O) that may be acid/base labile, releasing an aldehyde.

$$$$
