2wec_ligand
                    3D
 Schrodinger Suite 2020-3.
 70 72  0  0  1  0            999 V2000
   17.3100    4.0380   19.5450 O   0  0  0  0  0  0
   14.4910    4.2810   19.1430 C   0  0  0  0  0  0
   13.6660    3.1820   18.9680 C   0  0  0  0  0  0
   12.6620    2.8580   19.9120 C   0  0  0  0  0  0
   12.4470    3.6170   21.0620 C   0  0  0  0  0  0
   13.2870    4.7830   21.2830 C   0  0  0  0  0  0
   14.2990    5.1100   20.3310 C   0  0  0  0  0  0
   15.1100    6.2540   20.5700 C   0  0  0  0  0  0
   14.9470    7.0550   21.6940 C   0  0  0  0  0  0
   13.9450    6.7400   22.6320 C   0  0  0  0  0  0
   13.1420    5.6320   22.4200 C   0  0  0  0  0  0
   15.5510    4.5630   18.0780 C   0  0  0  0  0  0
   16.9450    4.7810   18.6330 C   0  0  0  0  0  0
   20.1920    8.8230   21.0700 C   0  0  0  0  0  0
   18.0100    5.5590   18.4580 N   0  0  0  0  0  0
   19.3460    5.8100   19.0050 C   0  0  2  0  0  0
   19.2600    7.2470   19.5720 C   0  0  0  0  0  0
   18.3940    8.0880   19.2090 O   0  0  0  0  0  0
   20.4930    5.9580   17.9970 C   0  0  0  0  0  0
   20.4440    4.5830   17.3320 C   0  0  0  0  0  0
   20.2190    6.8970   16.8240 C   0  0  0  0  0  0
   20.2080    7.4740   20.4850 N   0  0  0  0  0  0
   21.6660    9.1360   22.0970 P   0  0  2  0  0  0
   22.5810   10.0710   21.4550 O   0  5  0  0  0  0
   22.2520    7.8940   22.5710 O   0  0  0  0  0  0
   20.7550   11.1110   23.4310 C   0  0  1  0  0  0
   19.3880   11.3950   24.0660 C   0  0  0  0  0  0
   19.2920   11.0050   25.5130 C   0  0  0  0  0  0
   20.0320   11.6790   26.4900 C   0  0  0  0  0  0
   18.4530    9.9690   25.9060 C   0  0  0  0  0  0
   19.9430   11.3160   27.8270 C   0  0  0  0  0  0
   18.3540    9.6040   27.2480 C   0  0  0  0  0  0
   19.1000   10.2770   28.2080 C   0  0  0  0  0  0
   21.8670   11.8460   24.1640 C   0  0  0  0  0  0
   22.5700   14.1300   24.3970 C   0  0  0  0  0  0
   21.0200    9.7180   23.3980 O   0  0  0  0  0  0
   21.5390   13.1650   24.0740 O   0  0  0  0  0  0
   22.9460   11.3900   24.4870 O   0  0  0  0  0  0
   13.7924    2.5543   18.0859 H   0  0  0  0  0  0
   12.0349    1.9845   19.7337 H   0  0  0  0  0  0
   11.6701    3.3435   21.7760 H   0  0  0  0  0  0
   15.8849    6.5109   19.8477 H   0  0  0  0  0  0
   15.5904    7.9212   21.8485 H   0  0  0  0  0  0
   13.8030    7.3620   23.5158 H   0  0  0  0  0  0
   12.3680    5.3992   23.1513 H   0  0  0  0  0  0
   15.6089    3.7116   17.3839 H   0  0  0  0  0  0
   15.2789    5.4719   17.5214 H   0  0  0  0  0  0
   19.2872    8.9198   21.6881 H   0  0  0  0  0  0
   20.1551    9.5541   20.2490 H   0  0  0  0  0  0
   17.6435    6.1526   17.6075 H   0  0  0  0  0  0
   19.5258    4.9379   19.6509 H   0  0  0  0  0  0
   21.3982    6.3176   18.5081 H   0  0  0  0  0  0
   20.6299    3.8041   18.0862 H   0  0  0  0  0  0
   21.2146    4.5267   16.5491 H   0  0  0  0  0  0
   19.4522    4.4285   16.8821 H   0  0  0  0  0  0
   20.2279    7.9384   17.1782 H   0  0  0  0  0  0
   19.2347    6.6653   16.3910 H   0  0  0  0  0  0
   20.9971    6.7636   16.0580 H   0  0  0  0  0  0
   20.9639    6.7432   20.8083 H   0  0  0  0  0  0
   20.7471   11.4077   22.3718 H   0  0  0  0  0  0
   19.1724   12.4720   24.0058 H   0  0  0  0  0  0
   18.6098   10.8346   23.5271 H   0  0  0  0  0  0
   20.6870   12.4998   26.1978 H   0  0  0  0  0  0
   17.8664    9.4364   25.1574 H   0  0  0  0  0  0
   20.5324   11.8440   28.5767 H   0  0  0  0  0  0
   17.6914    8.7907   27.5441 H   0  0  0  0  0  0
   19.0248    9.9914   29.2572 H   0  0  0  0  0  0
   22.1686   15.1477   24.2822 H   0  0  0  0  0  0
   23.4249   13.9943   23.7182 H   0  0  0  0  0  0
   22.8994   13.9808   25.4359 H   0  0  0  0  0  0
  1 13  2  0  0  0
  2  3  2  0  0  0
  2  7  1  0  0  0
  2 12  1  0  0  0
  3  4  1  0  0  0
  3 39  1  0  0  0
  4  5  2  0  0  0
  4 40  1  0  0  0
  5  6  1  0  0  0
  5 41  1  0  0  0
  6  7  2  0  0  0
  6 11  1  0  0  0
  7  8  1  0  0  0
  8  9  2  0  0  0
  8 42  1  0  0  0
  9 10  1  0  0  0
  9 43  1  0  0  0
 10 11  2  0  0  0
 10 44  1  0  0  0
 11 45  1  0  0  0
 12 13  1  0  0  0
 12 46  1  0  0  0
 12 47  1  0  0  0
 13 15  1  0  0  0
 14 23  1  0  0  0
 14 22  1  0  0  0
 14 48  1  0  0  0
 14 49  1  0  0  0
 15 16  1  0  0  0
 15 50  1  0  0  0
 16 17  1  0  0  0
 16 19  1  0  0  0
 16 51  1  0  0  0
 17 18  2  0  0  0
 17 22  1  0  0  0
 19 20  1  0  0  0
 19 21  1  0  0  0
 19 52  1  0  0  0
 20 53  1  0  0  0
 20 54  1  0  0  0
 20 55  1  0  0  0
 21 56  1  0  0  0
 21 57  1  0  0  0
 21 58  1  0  0  0
 22 59  1  0  0  0
 23 24  1  0  0  0
 23 25  2  0  0  0
 23 36  1  0  0  0
 26 27  1  0  0  0
 26 34  1  0  0  0
 26 36  1  0  0  0
 26 60  1  0  0  0
 27 28  1  0  0  0
 27 61  1  0  0  0
 27 62  1  0  0  0
 28 29  2  0  0  0
 28 30  1  0  0  0
 29 31  1  0  0  0
 29 63  1  0  0  0
 30 32  2  0  0  0
 30 64  1  0  0  0
 31 33  2  0  0  0
 31 65  1  0  0  0
 32 33  1  0  0  0
 32 66  1  0  0  0
 33 67  1  0  0  0
 34 37  1  0  0  0
 34 38  2  0  0  0
 35 37  1  0  0  0
 35 68  1  0  0  0
 35 69  1  0  0  0
 35 70  1  0  0  0
M  CHG  1  24  -1
M  END
> <s_m_source_file>
../2wec_ligand.sdf

> <i_m_source_file_index>
1

> <s_epik_input>
W2NIXTFbY0hdW2NIXVtjSF1jKGMxMiljKFtjSF1bY0hdW2NIXTIpW0NIMl1DKD1PKVtOSF1bQ0BASF0oW0NIXShbQ0gzXSlbQ0gzXSlDKD1PKVtOSF1bQ0gyXVtQQEBdKD1PKShbT0hdKU9bQ0BIXShDKD1PKU9bQ0gzXSlbQ0gyXWMzW2NIXVtjSF1bY0hdW2NIXVtjSF0z

> <s_epik_cmdline>
J2VwaWtfYXBwJywgJy1pbWFlJywgJ2xpZ2FuZF9wcm8ubWFlJywgJy1vbWFlJywgJ2xpZ2FuZF9wcmVwLm1hZScsICctbXMnLCAnMScsICctcGgnLCAnNycsICctcGh0JywgJzAuNScsICctbnQn

> <r_lp_tautomer_probability>
1

> <r_epik_Ionization_Penalty>
  0.0000

> <r_epik_Ionization_Penalty_Charging>
  0.0000

> <r_epik_Ionization_Penalty_Neutral>
  0.0000

> <r_epik_State_Penalty>
 -0.0000

> <r_epik_Charging_Adjusted_Penalty>
9.51003876230017e-07

> <i_epik_Tot_Q>
-1

> <i_epik_Tot_abs_Q>
1

> <s_epik_Chemistry_Notes>
This compound has an ester and may undergo hydrolysis at high or low pH.

$$$$
