2weh_ligand
                    3D
 Schrodinger Suite 2020-3.
 17 17  0  0  1  0            999 V2000
   16.4040    6.1350   14.2890 C   0  0  0  0  0  0
   14.2720    5.5730   17.4890 Cl  0  0  0  0  0  0
   16.8440    4.8510   14.0150 C   0  0  0  0  0  0
   16.4800    3.7760   14.8180 C   0  0  0  0  0  0
   15.6590    3.9230   15.9510 C   0  0  0  0  0  0
   15.2350    5.2270   16.1830 C   0  0  0  0  0  0
   15.5750    6.3030   15.3620 C   0  0  0  0  0  0
   15.1850    2.6030   16.8580 S   0  0  0  0  0  0
   15.6700    1.2230   16.1740 N   0  0  0  0  0  0
   15.6260    2.7440   18.1820 O   0  0  0  0  0  0
   13.7540    2.5670   16.8350 O   0  0  0  0  0  0
   16.7077    6.9804   13.6716 H   0  0  0  0  0  0
   17.4884    4.6797   13.1528 H   0  0  0  0  0  0
   16.8445    2.7817   14.5600 H   0  0  0  0  0  0
   15.1731    7.2925   15.5800 H   0  0  0  0  0  0
   15.3444    0.3732   16.7920 H   0  0  0  0  0  0
   16.7671    1.2192   16.0941 H   0  0  0  0  0  0
  1  3  2  0  0  0
  1  7  1  0  0  0
  1 12  1  0  0  0
  2  6  1  0  0  0
  3  4  1  0  0  0
  3 13  1  0  0  0
  4  5  2  0  0  0
  4 14  1  0  0  0
  5  6  1  0  0  0
  5  8  1  0  0  0
  6  7  2  0  0  0
  7 15  1  0  0  0
  8  9  1  0  0  0
  8 10  2  0  0  0
  8 11  2  0  0  0
  9 16  1  0  0  0
  9 17  1  0  0  0
M  END
> <s_m_source_file>
../2weh_ligand.sdf

> <i_m_source_file_index>
1

> <s_epik_input>
Q2xjMVtjSF1bY0hdW2NIXVtjSF1jMVMoPU8pKD1PKVtOSDJd

> <s_epik_cmdline>
J2VwaWtfYXBwJywgJy1pbWFlJywgJ2xpZ2FuZF9wcm8ubWFlJywgJy1vbWFlJywgJ2xpZ2FuZF9wcmVwLm1hZScsICctbXMnLCAnMScsICctcGgnLCAnNycsICctcGh0JywgJzAuNScsICctbnQn

> <r_lp_tautomer_probability>
1

> <r_epik_Ionization_Penalty>
  0.0018

> <r_epik_Ionization_Penalty_Charging>
  0.0000

> <r_epik_Ionization_Penalty_Neutral>
  0.0018

> <r_epik_State_Penalty>
 -0.0000

> <r_epik_Charging_Adjusted_Penalty>
0

> <i_epik_Tot_Q>
0

> <i_epik_Tot_abs_Q>
0

$$$$
