2wei_ligand
                    3D
 Schrodinger Suite 2020-3.
 43 45  0  0  1  0            999 V2000
   20.1730  -16.2770  -10.7080 C   0  0  0  0  0  0
   19.9250  -17.2040   -9.5440 C   0  0  0  0  0  0
   18.5170  -16.9590   -9.0050 C   0  0  0  0  0  0
   20.9850  -16.9620   -8.4570 C   0  0  0  0  0  0
   19.9440  -18.6620   -9.9230 N   0  0  0  0  0  0
   20.6290  -19.5190   -9.3130 N   0  0  0  0  0  0
   19.2200  -19.2070  -10.9090 C   0  0  0  0  0  0
   18.3490  -18.7150  -11.8430 N   0  0  0  0  0  0
   17.7950  -19.5470  -12.7050 C   0  0  0  0  0  0
   18.0240  -20.8500  -12.7190 N   0  0  0  0  0  0
   18.8890  -21.3940  -11.8250 C   0  0  0  0  0  0
   19.0900  -22.7070  -11.8580 N   0  0  0  0  0  0
   19.5080  -20.5710  -10.9160 C   0  0  0  0  0  0
   20.4170  -20.7340   -9.8550 C   0  0  0  0  0  0
   21.0920  -21.9890   -9.2910 C   0  0  0  0  0  0
   22.1760  -22.6030  -10.1230 C   0  0  0  0  0  0
   22.9900  -23.5580   -9.5050 C   0  0  0  0  0  0
   22.3930  -22.2890  -11.4710 C   0  0  0  0  0  0
   23.4250  -22.9060  -12.1730 C   0  0  0  0  0  0
   24.2310  -23.8550  -11.5270 C   0  0  0  0  0  0
   23.9970  -24.1760  -10.1930 C   0  0  0  0  0  0
   24.8940  -25.2290   -9.4710 C   0  0  0  0  0  0
   20.1449  -15.2343  -10.3588 H   0  0  0  0  0  0
   19.3948  -16.4294  -11.4704 H   0  0  0  0  0  0
   21.1601  -16.4914  -11.1436 H   0  0  0  0  0  0
   18.4183  -15.9060   -8.7025 H   0  0  0  0  0  0
   18.3392  -17.6086   -8.1353 H   0  0  0  0  0  0
   17.7796  -17.1860   -9.7891 H   0  0  0  0  0  0
   20.9812  -15.8998   -8.1712 H   0  0  0  0  0  0
   21.9775  -17.2336   -8.8458 H   0  0  0  0  0  0
   20.7546  -17.5795   -7.5763 H   0  0  0  0  0  0
   17.1100  -19.1374  -13.4474 H   0  0  0  0  0  0
   18.5705  -23.3243  -12.6057 H   0  0  0  0  0  0
   19.7759  -23.1767  -11.1376 H   0  0  0  0  0  0
   21.5575  -21.7514   -8.3231 H   0  0  0  0  0  0
   20.3394  -22.7790   -9.1518 H   0  0  0  0  0  0
   22.8189  -23.8133   -8.4592 H   0  0  0  0  0  0
   21.7535  -21.5612  -11.9705 H   0  0  0  0  0  0
   23.6054  -22.6532  -13.2178 H   0  0  0  0  0  0
   25.0412  -24.3415  -12.0701 H   0  0  0  0  0  0
   24.5566  -25.3463   -8.4306 H   0  0  0  0  0  0
   25.9399  -24.8883   -9.4811 H   0  0  0  0  0  0
   24.8178  -26.1946   -9.9923 H   0  0  0  0  0  0
  1  2  1  0  0  0
  1 23  1  0  0  0
  1 24  1  0  0  0
  1 25  1  0  0  0
  2  3  1  0  0  0
  2  4  1  0  0  0
  2  5  1  0  0  0
  3 26  1  0  0  0
  3 27  1  0  0  0
  3 28  1  0  0  0
  4 29  1  0  0  0
  4 30  1  0  0  0
  4 31  1  0  0  0
  5  6  1  0  0  0
  5  7  1  0  0  0
  6 14  2  0  0  0
  7  8  1  0  0  0
  7 13  2  0  0  0
  8  9  2  0  0  0
  9 10  1  0  0  0
  9 32  1  0  0  0
 10 11  2  0  0  0
 11 12  1  0  0  0
 11 13  1  0  0  0
 12 33  1  0  0  0
 12 34  1  0  0  0
 13 14  1  0  0  0
 14 15  1  0  0  0
 15 16  1  0  0  0
 15 35  1  0  0  0
 15 36  1  0  0  0
 16 17  2  0  0  0
 16 18  1  0  0  0
 17 21  1  0  0  0
 17 37  1  0  0  0
 18 19  2  0  0  0
 18 38  1  0  0  0
 19 20  1  0  0  0
 19 39  1  0  0  0
 20 21  2  0  0  0
 20 40  1  0  0  0
 21 22  1  0  0  0
 22 41  1  0  0  0
 22 42  1  0  0  0
 22 43  1  0  0  0
M  END
> <s_m_source_file>
../2wei_ligand.sdf

> <i_m_source_file_index>
1

> <s_epik_input>
bjFbY0hdbmMoW05IMl0pYyhjMTIpYyhubjJDKFtDSDNdKShbQ0gzXSlbQ0gzXSlbQ0gyXWMzW2NIXWMoW0NIM10pW2NIXVtjSF1bY0hdMw==

> <s_epik_cmdline>
J2VwaWtfYXBwJywgJy1pbWFlJywgJ2xpZ2FuZF9wcm8ubWFlJywgJy1vbWFlJywgJ2xpZ2FuZF9wcmVwLm1hZScsICctbXMnLCAnMScsICctcGgnLCAnNycsICctcGh0JywgJzAuNScsICctbnQn

> <r_lp_tautomer_probability>
1

> <r_epik_Ionization_Penalty>
  0.0021

> <r_epik_Ionization_Penalty_Charging>
  0.0000

> <r_epik_Ionization_Penalty_Neutral>
  0.0021

> <r_epik_State_Penalty>
 -0.0000

> <r_epik_Charging_Adjusted_Penalty>
0

> <i_epik_Tot_Q>
0

> <i_epik_Tot_abs_Q>
0

$$$$
