2weq_ligand
                    3D
 Schrodinger Suite 2020-3.
 90 91  0  0  1  0            999 V2000
  -25.8340   34.5000   -5.5650 C   0  0  0  0  0  0
  -26.0650   34.2580   -4.0860 C   0  0  0  0  0  0
  -25.6400   32.9550   -3.4050 C   0  0  0  0  0  0
  -24.9030   31.8520   -4.1530 C   0  0  0  0  0  0
  -24.6800   32.0520   -5.6610 C   0  0  0  0  0  0
  -25.1390   33.3510   -6.3450 C   0  0  0  0  0  0
  -26.2860   35.8370   -6.1960 C   0  0  0  0  0  0
  -25.1800   36.9050   -6.2770 C   0  0  2  0  0  0
  -24.0350   36.4720   -7.2140 C   0  0  0  0  0  0
  -22.6690   37.2000   -7.0930 C   0  0  1  0  0  0
  -21.6520   36.6550   -8.1480 C   0  0  1  0  0  0
  -21.1010   35.2510   -7.8350 C   0  0  2  0  0  0
  -20.5560   35.2240   -6.4030 C   0  0  0  0  0  0
  -20.9350   34.0690   -5.4780 C   0  0  2  0  0  0
  -19.8930   34.0850   -4.3550 C   0  0  1  0  0  0
  -20.3740   34.1350   -2.8890 C   0  0  2  0  0  0
  -21.3060   35.2950   -2.6690 C   0  0  0  0  0  0
  -22.6980   35.5370   -2.1790 C   0  0  0  0  0  0
  -23.8280   34.6630   -1.7640 C   0  0  0  0  0  0
  -25.0340   35.2510   -1.0240 C   0  0  1  0  0  0
  -25.8040   33.9030   -0.9230 C   0  0  1  0  0  0
  -25.8990   32.9510   -1.9920 N   0  0  0  0  0  0
  -26.6840   35.2420   -3.3220 O   0  0  0  0  0  0
  -24.0490   31.0360   -6.3880 O   0  0  0  0  0  0
  -24.9200   33.5050   -7.6950 O   0  0  0  0  0  0
  -26.0860   33.6000   -8.5040 C   0  0  0  0  0  0
  -24.6330   37.2290   -4.8760 C   0  0  0  0  0  0
  -22.8710   38.5380   -7.5100 O   0  0  0  0  0  0
  -21.9810   39.5910   -7.1520 C   0  0  0  0  0  0
  -22.3070   36.5100   -9.3870 O   0  0  0  0  0  0
  -19.9320   34.9970   -8.8380 C   0  0  0  0  0  0
  -21.2230   32.7060   -6.1530 C   0  0  0  0  0  0
  -19.0150   33.0210   -4.4150 O   0  0  0  0  0  0
  -17.6990   33.1070   -4.8150 C   0  0  0  0  0  0
  -17.3920   33.9760   -5.5700 O   0  0  0  0  0  0
  -16.9780   31.8530   -4.7460 N   0  0  0  0  0  0
  -19.2120   34.4760   -2.1630 O   0  0  0  0  0  0
  -19.2400   34.6780   -0.7860 C   0  0  0  0  0  0
  -24.6260   35.9390    0.2960 C   0  0  0  0  0  0
  -25.5060   33.2390    0.0270 O   0  0  0  0  0  0
  -24.5483   30.9578   -3.6405 H   0  0  0  0  0  0
  -26.6361   35.6578   -7.2233 H   0  0  0  0  0  0
  -27.1045   36.2659   -5.5993 H   0  0  0  0  0  0
  -25.6329   37.8147   -6.6982 H   0  0  0  0  0  0
  -23.8049   35.4097   -7.0452 H   0  0  0  0  0  0
  -24.3418   36.6189   -8.2601 H   0  0  0  0  0  0
  -22.3097   37.1576   -6.0542 H   0  0  0  0  0  0
  -20.8356   37.3862   -8.2419 H   0  0  0  0  0  0
  -21.8903   34.4889   -7.9137 H   0  0  0  0  0  0
  -19.4566   35.2014   -6.4295 H   0  0  0  0  0  0
  -20.8914   36.1235   -5.8660 H   0  0  0  0  0  0
  -21.9367   34.2387   -5.0563 H   0  0  0  0  0  0
  -19.3244   34.9930   -4.6045 H   0  0  0  0  0  0
  -20.8348   33.1947   -2.5520 H   0  0  0  0  0  0
  -20.8571   35.9944   -1.9484 H   0  0  0  0  0  0
  -21.4785   35.8130   -3.6239 H   0  0  0  0  0  0
  -22.6625   36.1216   -1.2479 H   0  0  0  0  0  0
  -23.2631   36.0944   -2.9406 H   0  0  0  0  0  0
  -24.2720   34.1909   -2.6528 H   0  0  0  0  0  0
  -23.4575   33.8839   -1.0815 H   0  0  0  0  0  0
  -25.5955   36.0813   -1.4771 H   0  0  0  0  0  0
  -26.8402   34.1884   -0.6887 H   0  0  0  0  0  0
  -26.2479   31.9279   -1.7880 H   0  0  0  0  0  0
  -26.9977   36.1863   -3.7909 H   0  0  0  0  0  0
  -23.7282   30.1144   -5.8804 H   0  0  0  0  0  0
  -25.7926   33.7199   -9.5574 H   0  0  0  0  0  0
  -26.6817   34.4691   -8.1880 H   0  0  0  0  0  0
  -26.6854   32.6845   -8.3922 H   0  0  0  0  0  0
  -25.4616   37.5358   -4.2208 H   0  0  0  0  0  0
  -23.9007   38.0466   -4.9484 H   0  0  0  0  0  0
  -24.1456   36.3362   -4.4572 H   0  0  0  0  0  0
  -22.3378   40.5364   -7.5867 H   0  0  0  0  0  0
  -20.9749   39.3673   -7.5364 H   0  0  0  0  0  0
  -21.9430   39.6824   -6.0565 H   0  0  0  0  0  0
  -22.7998   37.3759   -9.8533 H   0  0  0  0  0  0
  -20.3209   35.0159   -9.8668 H   0  0  0  0  0  0
  -19.4812   34.0145   -8.6344 H   0  0  0  0  0  0
  -19.1702   35.7816   -8.7195 H   0  0  0  0  0  0
  -21.9848   32.8380   -6.9354 H   0  0  0  0  0  0
  -21.5909   31.9941   -5.3994 H   0  0  0  0  0  0
  -20.2979   32.3173   -6.6038 H   0  0  0  0  0  0
  -17.2936   31.0755   -4.0347 H   0  0  0  0  0  0
  -16.1148   31.6779   -5.4049 H   0  0  0  0  0  0
  -18.2301   34.9326   -0.4322 H   0  0  0  0  0  0
  -19.5824   33.7591   -0.2875 H   0  0  0  0  0  0
  -19.9297   35.5019   -0.5502 H   0  0  0  0  0  0
  -24.0931   36.8749    0.0722 H   0  0  0  0  0  0
  -23.9675   35.2703    0.8697 H   0  0  0  0  0  0
  -25.5267   36.1621    0.8868 H   0  0  0  0  0  0
  -25.3627   33.7156    1.0080 H   0  0  0  0  0  0
  1  2  2  0  0  0
  1  6  1  0  0  0
  1  7  1  0  0  0
  2  3  1  0  0  0
  2 23  1  0  0  0
  3  4  2  0  0  0
  3 22  1  0  0  0
  4  5  1  0  0  0
  4 41  1  0  0  0
  5  6  2  0  0  0
  5 24  1  0  0  0
  6 25  1  0  0  0
  7  8  1  0  0  0
  7 42  1  0  0  0
  7 43  1  0  0  0
  8  9  1  0  0  0
  8 27  1  0  0  0
  8 44  1  0  0  0
  9 10  1  0  0  0
  9 45  1  0  0  0
  9 46  1  0  0  0
 10 11  1  0  0  0
 10 28  1  0  0  0
 10 47  1  0  0  0
 11 12  1  0  0  0
 11 30  1  0  0  0
 11 48  1  0  0  0
 12 13  1  0  0  0
 12 31  1  0  0  0
 12 49  1  0  0  0
 13 14  1  0  0  0
 13 50  1  0  0  0
 13 51  1  0  0  0
 14 15  1  0  0  0
 14 32  1  0  0  0
 14 52  1  0  0  0
 15 16  1  0  0  0
 15 33  1  0  0  0
 15 53  1  0  0  0
 16 17  1  0  0  0
 16 37  1  0  0  0
 16 54  1  0  0  0
 17 18  1  0  0  0
 17 55  1  0  0  0
 17 56  1  0  0  0
 18 19  1  0  0  0
 18 57  1  0  0  0
 18 58  1  0  0  0
 19 20  1  0  0  0
 19 59  1  0  0  0
 19 60  1  0  0  0
 20 21  1  0  0  0
 20 39  1  0  0  0
 20 61  1  0  0  0
 21 22  1  0  0  0
 21 40  1  0  0  0
 21 62  1  0  0  0
 22 63  1  0  0  0
 23 64  1  0  0  0
 24 65  1  0  0  0
 25 26  1  0  0  0
 26 66  1  0  0  0
 26 67  1  0  0  0
 26 68  1  0  0  0
 27 69  1  0  0  0
 27 70  1  0  0  0
 27 71  1  0  0  0
 28 29  1  0  0  0
 29 72  1  0  0  0
 29 73  1  0  0  0
 29 74  1  0  0  0
 30 75  1  0  0  0
 31 76  1  0  0  0
 31 77  1  0  0  0
 31 78  1  0  0  0
 32 79  1  0  0  0
 32 80  1  0  0  0
 32 81  1  0  0  0
 33 34  1  0  0  0
 34 35  2  0  0  0
 34 36  1  0  0  0
 36 82  1  0  0  0
 36 83  1  0  0  0
 37 38  1  0  0  0
 38 84  1  0  0  0
 38 85  1  0  0  0
 38 86  1  0  0  0
 39 87  1  0  0  0
 39 88  1  0  0  0
 39 89  1  0  0  0
 40 90  1  0  0  0
M  END
> <s_m_source_file>
../2weq_ligand.sdf

> <i_m_source_file_index>
1

> <s_epik_input>
W0NIM11PYzFjKFtPSF0pW2NIXWMoYyhjMTIpW09IXSlbTkhdW0NAQEhdKFtPSF0pW0NAQEhdKFtDSDNdKVtDSDJdW0NIMl1bQ0gyXVtDQEhdKE9bQ0gzXSlbQ0BASF0oT0MoPU8pW05IMl0pW0NASF0oW0NIM10pW0NIMl1bQ0BIXShbQ0gzXSlbQ0BASF0oW09IXSlbQ0BASF0oT1tDSDNdKVtDSDJdW0NAQEhdKFtDSDJdMilbQ0gzXQ==

> <s_epik_cmdline>
J2VwaWtfYXBwJywgJy1pbWFlJywgJ2xpZ2FuZF9wcm8ubWFlJywgJy1vbWFlJywgJ2xpZ2FuZF9wcmVwLm1hZScsICctbXMnLCAnMScsICctcGgnLCAnNycsICctcGh0JywgJzAuNScsICctbnQn

> <r_lp_tautomer_probability>
1

> <r_epik_Ionization_Penalty>
  0.0175

> <r_epik_Ionization_Penalty_Charging>
  0.0000

> <r_epik_Ionization_Penalty_Neutral>
  0.0175

> <r_epik_State_Penalty>
 -0.0000

> <r_epik_Charging_Adjusted_Penalty>
0

> <i_epik_Tot_Q>
0

> <i_epik_Tot_abs_Q>
0

> <s_epik_Chemistry_Notes>
This compound has an ester and may undergo hydrolysis at high or low pH. This compound contains an acetal/aminal-like group ( X-CH(R)-Y where X, Y are N, S, or O) that may be acid/base labile, releasing an aldehyde.

$$$$
