2wev_ligand
                    3D
 Schrodinger Suite 2020-3.
 35 37  0  0  1  0            999 V2000
    4.5480   45.1430   -0.4970 N   0  0  0  0  0  0
    4.8380   46.2240    0.2450 C   0  0  0  0  0  0
    6.0790   46.6000    0.4240 N   0  0  0  0  0  0
    6.1500   47.6750    1.1760 C   0  0  0  0  0  0
    7.4940   48.2390    1.4810 C   0  0  0  0  0  0
    3.7260   47.1640    0.9720 S   0  0  0  0  0  0
    4.9340   48.1030    1.5320 C   0  0  0  0  0  0
    4.5800   49.4350    2.1340 C   0  0  0  0  0  0
    3.2960   49.5890    2.4880 N   0  0  0  0  0  0
    5.4620   50.5140    2.2580 C   0  0  0  0  0  0
    4.9520   51.7350    2.7040 C   0  0  0  0  0  0
    3.6490   51.8420    3.0460 N   0  0  0  0  0  0
    2.8340   50.7740    2.9170 C   0  0  0  0  0  0
    1.5710   50.8850    3.4000 N   0  0  0  0  0  0
    0.5030   50.1390    3.0500 C   0  0  0  0  0  0
   -0.7400   50.6330    3.3530 C   0  0  0  0  0  0
    0.6060   48.8900    2.4270 C   0  0  0  0  0  0
   -0.5360   48.1520    2.1180 C   0  0  0  0  0  0
   -0.3920   46.8270    1.7920 N   0  3  0  0  0  0
   -1.4020   46.1710    1.5860 O   0  0  0  0  0  0
    0.6200   46.2060    2.1280 O   0  5  0  0  0  0
   -1.8020   48.6590    2.4180 C   0  0  0  0  0  0
   -1.8860   49.8970    3.0350 C   0  0  0  0  0  0
    5.3582   44.5579   -0.9566 H   0  0  0  0  0  0
    3.5002   44.8426   -0.6452 H   0  0  0  0  0  0
    8.2689   47.6121    1.0156 H   0  0  0  0  0  0
    7.6444   48.2595    2.5705 H   0  0  0  0  0  0
    7.5615   49.2619    1.0822 H   0  0  0  0  0  0
    6.5185   50.4045    2.0131 H   0  0  0  0  0  0
    5.6063   52.6037    2.7765 H   0  0  0  0  0  0
    1.3372   51.6465    4.1586 H   0  0  0  0  0  0
   -0.8351   51.6020    3.8430 H   0  0  0  0  0  0
    1.5895   48.4898    2.1807 H   0  0  0  0  0  0
   -2.7019   48.0949    2.1729 H   0  0  0  0  0  0
   -2.8667   50.3061    3.2778 H   0  0  0  0  0  0
  1  2  1  0  0  0
  1 24  1  0  0  0
  1 25  1  0  0  0
  2  3  2  0  0  0
  2  6  1  0  0  0
  3  4  1  0  0  0
  4  5  1  0  0  0
  4  7  2  0  0  0
  5 26  1  0  0  0
  5 27  1  0  0  0
  5 28  1  0  0  0
  6  7  1  0  0  0
  7  8  1  0  0  0
  8  9  2  0  0  0
  8 10  1  0  0  0
  9 13  1  0  0  0
 10 11  2  0  0  0
 10 29  1  0  0  0
 11 12  1  0  0  0
 11 30  1  0  0  0
 12 13  2  0  0  0
 13 14  1  0  0  0
 14 15  1  0  0  0
 14 31  1  0  0  0
 15 16  2  0  0  0
 15 17  1  0  0  0
 16 23  1  0  0  0
 16 32  1  0  0  0
 17 18  2  0  0  0
 17 33  1  0  0  0
 18 19  1  0  0  0
 18 22  1  0  0  0
 19 20  2  0  0  0
 19 21  1  0  0  0
 22 23  2  0  0  0
 22 34  1  0  0  0
 23 35  1  0  0  0
M  CHG  2  19   1  21  -1
M  END
> <s_m_source_file>
../2wev_ligand.sdf

> <i_m_source_file_index>
1

> <s_epik_input>
W05IMl1jMW5jKFtDSDNdKWMoczEpLWMybmMobltjSF1bY0hdMilbTkhdYzNbY0hdW2NIXVtjSF1jKFtjSF0zKVtOK10oPU8pW08tXQ==

> <s_epik_cmdline>
J2VwaWtfYXBwJywgJy1pbWFlJywgJ2xpZ2FuZF9wcm8ubWFlJywgJy1vbWFlJywgJ2xpZ2FuZF9wcmVwLm1hZScsICctbXMnLCAnMScsICctcGgnLCAnNycsICctcGh0JywgJzAuNScsICctbnQn

> <r_lp_tautomer_probability>
1

> <r_epik_Ionization_Penalty>
  0.0014

> <r_epik_Ionization_Penalty_Charging>
  0.0000

> <r_epik_Ionization_Penalty_Neutral>
  0.0014

> <r_epik_State_Penalty>
 -0.0000

> <r_epik_Charging_Adjusted_Penalty>
0

> <i_epik_Tot_Q>
0

> <i_epik_Tot_abs_Q>
2

$$$$
