2wey_ligand
                    3D
 Schrodinger Suite 2020-3.
 46 48  0  0  1  0            999 V2000
  -10.8550  -28.8440   35.4010 C   0  0  0  0  0  0
   -9.4850  -28.4850   35.2120 O   0  0  0  0  0  0
   -8.4470  -29.3780   35.0680 C   0  0  0  0  0  0
   -8.3790  -30.6490   35.8540 C   0  0  0  0  0  0
   -9.3750  -30.9920   36.7430 O   0  0  0  0  0  0
   -9.1380  -31.8070   37.8950 C   0  0  0  0  0  0
   -7.2830  -31.4880   35.6520 C   0  0  0  0  0  0
   -6.2830  -31.1370   34.7440 C   0  0  0  0  0  0
   -7.4120  -29.0700   34.1770 C   0  0  0  0  0  0
   -6.3330  -29.9430   34.0200 C   0  0  0  0  0  0
   -5.2030  -29.6460   33.0510 C   0  0  0  0  0  0
   -4.3500  -28.4280   33.3700 C   0  0  0  0  0  0
   -4.0100  -27.6120   32.3380 N   0  0  0  0  0  0
   -3.2490  -26.5100   32.4930 C   0  0  0  0  0  0
   -2.7390  -26.1070   33.7300 C   0  0  0  0  0  0
   -3.0040  -26.8550   34.8720 C   0  0  0  0  0  0
   -3.8380  -28.0840   34.7390 C   0  0  0  0  0  0
   -4.1120  -28.8400   35.8720 C   0  0  0  0  0  0
   -3.6140  -28.4630   37.1170 C   0  0  0  0  0  0
   -3.9060  -29.2310   38.2190 O   0  0  0  0  0  0
   -3.7490  -30.6510   38.2070 C   0  0  0  0  0  0
   -2.7840  -27.2240   37.2500 C   0  0  0  0  0  0
   -2.5060  -26.4630   36.1120 C   0  0  0  0  0  0
   -2.2870  -26.8590   38.4860 O   0  0  0  0  0  0
   -2.1940  -25.4990   38.9180 C   0  0  0  0  0  0
  -11.4646  -27.9323   35.4858 H   0  0  0  0  0  0
  -10.9546  -29.4386   36.3210 H   0  0  0  0  0  0
  -11.2004  -29.4374   34.5416 H   0  0  0  0  0  0
  -10.0791  -31.9425   38.4482 H   0  0  0  0  0  0
   -8.3980  -31.3170   38.5448 H   0  0  0  0  0  0
   -8.7548  -32.7880   37.5775 H   0  0  0  0  0  0
   -7.2072  -32.4233   36.2066 H   0  0  0  0  0  0
   -5.4404  -31.8124   34.5956 H   0  0  0  0  0  0
   -7.4484  -28.1442   33.6029 H   0  0  0  0  0  0
   -4.5122  -30.5014   33.0201 H   0  0  0  0  0  0
   -5.6171  -29.4727   32.0468 H   0  0  0  0  0  0
   -3.0214  -25.9065   31.6143 H   0  0  0  0  0  0
   -2.1321  -25.2043   33.7999 H   0  0  0  0  0  0
   -4.7235  -29.7382   35.7857 H   0  0  0  0  0  0
   -4.0379  -31.0601   39.1864 H   0  0  0  0  0  0
   -2.6981  -30.9020   38.0003 H   0  0  0  0  0  0
   -4.3900  -31.0842   37.4251 H   0  0  0  0  0  0
   -1.8988  -25.5616   36.1947 H   0  0  0  0  0  0
   -1.7689  -25.4646   39.9320 H   0  0  0  0  0  0
   -3.1969  -25.0472   38.9253 H   0  0  0  0  0  0
   -1.5446  -24.9390   38.2290 H   0  0  0  0  0  0
  1  2  1  0  0  0
  1 26  1  0  0  0
  1 27  1  0  0  0
  1 28  1  0  0  0
  2  3  1  0  0  0
  3  4  2  0  0  0
  3  9  1  0  0  0
  4  5  1  0  0  0
  4  7  1  0  0  0
  5  6  1  0  0  0
  6 29  1  0  0  0
  6 30  1  0  0  0
  6 31  1  0  0  0
  7  8  2  0  0  0
  7 32  1  0  0  0
  8 10  1  0  0  0
  8 33  1  0  0  0
  9 10  2  0  0  0
  9 34  1  0  0  0
 10 11  1  0  0  0
 11 12  1  0  0  0
 11 35  1  0  0  0
 11 36  1  0  0  0
 12 13  2  0  0  0
 12 17  1  0  0  0
 13 14  1  0  0  0
 14 15  2  0  0  0
 14 37  1  0  0  0
 15 16  1  0  0  0
 15 38  1  0  0  0
 16 17  2  0  0  0
 16 23  1  0  0  0
 17 18  1  0  0  0
 18 19  2  0  0  0
 18 39  1  0  0  0
 19 20  1  0  0  0
 19 22  1  0  0  0
 20 21  1  0  0  0
 21 40  1  0  0  0
 21 41  1  0  0  0
 21 42  1  0  0  0
 22 23  2  0  0  0
 22 24  1  0  0  0
 23 43  1  0  0  0
 24 25  1  0  0  0
 25 44  1  0  0  0
 25 45  1  0  0  0
 25 46  1  0  0  0
M  END
> <s_m_source_file>
../2wey_ligand.sdf

> <i_m_source_file_index>
1

> <s_epik_input>
W0NIM11PYzFjKE9bQ0gzXSlbY0hdW2NIXWMoW2NIXTEpW0NIMl1jKG5bY0hdW2NIXTIpYyhjMjMpW2NIXWMoT1tDSDNdKWMoW2NIXTMpT1tDSDNd

> <s_epik_cmdline>
J2VwaWtfYXBwJywgJy1pbWFlJywgJ2xpZ2FuZF9wcm8ubWFlJywgJy1vbWFlJywgJ2xpZ2FuZF9wcmVwLm1hZScsICctbXMnLCAnMScsICctcGgnLCAnNycsICctcGh0JywgJzAuNScsICctbnQn

> <r_lp_tautomer_probability>
1

> <r_epik_Ionization_Penalty>
  0.1011

> <r_epik_Ionization_Penalty_Charging>
  0.0000

> <r_epik_Ionization_Penalty_Neutral>
  0.1011

> <r_epik_State_Penalty>
  0.0911

> <r_epik_Charging_Adjusted_Penalty>
0.0910989488621399

> <i_epik_Tot_Q>
0

> <i_epik_Tot_abs_Q>
0

$$$$
