2wez_ligand
                    3D
 Schrodinger Suite 2020-3.
 80 84  0  0  1  0            999 V2000
   30.1980   -2.3490   35.3960 C   0  0  0  0  0  0
   30.0150   -1.1550   34.6390 C   0  0  0  0  0  0
   30.4940    0.1280   35.1710 C   0  0  0  0  0  0
   31.1310    0.1510   36.4470 C   0  0  0  0  0  0
   31.3180   -1.0590   37.2180 C   0  0  0  0  0  0
   30.8280   -2.3720   36.6710 C   0  0  0  0  0  0
   30.3130    1.3550   34.3740 C   0  0  0  0  0  0
   29.1330    1.4490   33.6960 N   0  0  0  0  0  0
   31.2950    2.1260   34.2290 O   0  0  0  0  0  0
   28.8460    2.4470   32.6370 C   0  0  1  0  0  0
   28.1310    1.6760   31.5020 C   0  0  0  0  0  0
   27.9930    3.6920   33.0700 C   0  0  2  0  0  0
   27.7430    4.6030   32.0050 O   0  0  0  0  0  0
   28.9450    0.4240   31.1420 C   0  0  0  0  0  0
   28.6940    4.4700   34.1970 C   0  0  0  0  0  0
   27.9740    5.6700   34.6730 N   0  3  0  0  0  0
   28.6600    6.8710   35.3010 C   0  0  0  0  0  0
   28.1310   -0.7990   31.0000 C   0  0  0  0  0  0
   28.7610   -2.0990   30.6790 C   0  0  0  0  0  0
   30.2260   -2.1920   30.5000 C   0  0  0  0  0  0
   31.0730   -0.9710   30.6370 C   0  0  0  0  0  0
   30.4520    0.3320   30.9540 C   0  0  0  0  0  0
   29.8280   -3.6580   35.0920 N   0  0  0  0  0  0
   33.6710   -0.6600   40.0750 C   0  0  0  0  0  0
   32.3520   -1.0340   40.7850 C   0  0  0  0  0  0
   31.3260   -1.2140   39.6780 C   0  0  0  0  0  0
   31.9730   -0.9770   38.5010 N   0  0  0  0  0  0
   33.3810   -0.6360   38.5910 C   0  0  0  0  0  0
   30.1130   -1.5240   39.7940 O   0  0  0  0  0  0
   30.2330   -4.4400   36.1540 C   0  0  0  0  0  0
   30.8630   -3.6870   37.1670 C   0  0  0  0  0  0
   27.6150   -3.8760   33.9080 C   0  0  0  0  0  0
   29.1340   -4.0950   33.8530 C   0  0  0  0  0  0
   30.6680    8.4080   32.2950 C   0  0  0  0  0  0
   32.0230    8.2580   32.8080 C   0  0  0  0  0  0
   32.2670    7.6750   34.0920 C   0  0  0  0  0  0
   31.1710    7.2260   34.9010 C   0  0  0  0  0  0
   29.8110    7.3560   34.4280 C   0  0  0  0  0  0
   29.5670    7.9450   33.1340 C   0  0  0  0  0  0
   30.3390    8.9780   31.0320 O   0  0  0  0  0  0
   28.9900    9.1080   30.5700 C   0  0  0  0  0  0
   29.5210   -1.1938   33.6681 H   0  0  0  0  0  0
   31.4844    1.1002   36.8498 H   0  0  0  0  0  0
   28.3651    0.7156   33.9833 H   0  0  0  0  0  0
   29.8318    2.8503   32.3623 H   0  0  0  0  0  0
   27.1272    1.3768   31.8378 H   0  0  0  0  0  0
   28.0437    2.3237   30.6172 H   0  0  0  0  0  0
   26.9875    3.3496   33.3561 H   0  0  0  0  0  0
   27.2442    4.2544   31.0887 H   0  0  0  0  0  0
   28.8224    3.8139   35.0705 H   0  0  0  0  0  0
   29.6792    4.8129   33.8480 H   0  0  0  0  0  0
   27.4328    6.1301   33.8331 H   0  0  0  0  0  0
   27.2578    5.3812   35.4564 H   0  0  0  0  0  0
   27.9339    7.6892   35.4163 H   0  0  0  0  0  0
   29.0574    6.5917   36.2879 H   0  0  0  0  0  0
   27.0506   -0.7439   31.1335 H   0  0  0  0  0  0
   28.1432   -2.9909   30.5742 H   0  0  0  0  0  0
   30.6870   -3.1521   30.2681 H   0  0  0  0  0  0
   32.1525   -1.0404   30.5029 H   0  0  0  0  0  0
   31.0712    1.2236   31.0527 H   0  0  0  0  0  0
   34.0067    0.3283   40.4221 H   0  0  0  0  0  0
   34.4394   -1.4114   40.3094 H   0  0  0  0  0  0
   32.4933   -1.9643   41.3547 H   0  0  0  0  0  0
   32.0625   -0.2243   41.4710 H   0  0  0  0  0  0
   33.5900    0.3679   38.1928 H   0  0  0  0  0  0
   34.0187   -1.3729   38.0808 H   0  0  0  0  0  0
   30.0830   -5.5184   36.2046 H   0  0  0  0  0  0
   31.2784   -4.0408   38.1106 H   0  0  0  0  0  0
   27.1610   -4.2177   32.9661 H   0  0  0  0  0  0
   27.4038   -2.8058   34.0499 H   0  0  0  0  0  0
   27.1923   -4.4476   34.7474 H   0  0  0  0  0  0
   29.5229   -3.5269   32.9951 H   0  0  0  0  0  0
   29.3115   -5.1687   33.6925 H   0  0  0  0  0  0
   32.8652    8.5954   32.2039 H   0  0  0  0  0  0
   33.2891    7.5718   34.4564 H   0  0  0  0  0  0
   31.3646    6.7841   35.8784 H   0  0  0  0  0  0
   28.5423    8.0461   32.7764 H   0  0  0  0  0  0
   28.9870    9.5741   29.5736 H   0  0  0  0  0  0
   28.4215    9.7370   31.2708 H   0  0  0  0  0  0
   28.5252    8.1128   30.5107 H   0  0  0  0  0  0
  1  2  1  0  0  0
  1  6  2  0  0  0
  1 23  1  0  0  0
  2  3  2  0  0  0
  2 42  1  0  0  0
  3  4  1  0  0  0
  3  7  1  0  0  0
  4  5  2  0  0  0
  4 43  1  0  0  0
  5  6  1  0  0  0
  5 27  1  0  0  0
  6 31  1  0  0  0
  7  8  1  0  0  0
  7  9  2  0  0  0
  8 10  1  0  0  0
  8 44  1  0  0  0
 10 11  1  0  0  0
 10 12  1  0  0  0
 10 45  1  0  0  0
 11 14  1  0  0  0
 11 46  1  0  0  0
 11 47  1  0  0  0
 12 13  1  0  0  0
 12 15  1  0  0  0
 12 48  1  0  0  0
 13 49  1  0  0  0
 14 18  2  0  0  0
 14 22  1  0  0  0
 15 16  1  0  0  0
 15 50  1  0  0  0
 15 51  1  0  0  0
 16 17  1  0  0  0
 16 52  1  0  0  0
 16 53  1  0  0  0
 17 38  1  0  0  0
 17 54  1  0  0  0
 17 55  1  0  0  0
 18 19  1  0  0  0
 18 56  1  0  0  0
 19 20  2  0  0  0
 19 57  1  0  0  0
 20 21  1  0  0  0
 20 58  1  0  0  0
 21 22  2  0  0  0
 21 59  1  0  0  0
 22 60  1  0  0  0
 23 30  1  0  0  0
 23 33  1  0  0  0
 24 25  1  0  0  0
 24 28  1  0  0  0
 24 61  1  0  0  0
 24 62  1  0  0  0
 25 26  1  0  0  0
 25 63  1  0  0  0
 25 64  1  0  0  0
 26 27  1  0  0  0
 26 29  2  0  0  0
 27 28  1  0  0  0
 28 65  1  0  0  0
 28 66  1  0  0  0
 30 31  2  0  0  0
 30 67  1  0  0  0
 31 68  1  0  0  0
 32 33  1  0  0  0
 32 69  1  0  0  0
 32 70  1  0  0  0
 32 71  1  0  0  0
 33 72  1  0  0  0
 33 73  1  0  0  0
 34 35  2  0  0  0
 34 39  1  0  0  0
 34 40  1  0  0  0
 35 36  1  0  0  0
 35 74  1  0  0  0
 36 37  2  0  0  0
 36 75  1  0  0  0
 37 38  1  0  0  0
 37 76  1  0  0  0
 38 39  2  0  0  0
 39 77  1  0  0  0
 40 41  1  0  0  0
 41 78  1  0  0  0
 41 79  1  0  0  0
 41 80  1  0  0  0
M  CHG  1  16   1
M  END
> <s_m_source_file>
../2wez_ligand.sdf

> <i_m_source_file_index>
1

> <s_epik_input>
Tz1DMVtDSDJdW0NIMl1bQ0gyXU4xYyhjKGMyMylbY0hdW2NIXW4zW0NIMl1bQ0gzXSlbY0hdYyhbY0hdMilDKD1PKVtOSF1bQ0BASF0oW0NIMl1jNFtjSF1bY0hdW2NIXVtjSF1bY0hdNClbQ0BIXShbT0hdKVtDSDJdW05IMitdW0NIMl1jKFtjSF01KVtjSF1bY0hdW2NIXWM1T1tDSDNd

> <s_epik_cmdline>
J2VwaWtfYXBwJywgJy1pbWFlJywgJ2xpZ2FuZF9wcm8ubWFlJywgJy1vbWFlJywgJ2xpZ2FuZF9wcmVwLm1hZScsICctbXMnLCAnMScsICctcGgnLCAnNycsICctcGh0JywgJzAuNScsICctbnQn

> <r_lp_tautomer_probability>
1

> <r_epik_Ionization_Penalty>
  0.0204

> <r_epik_Ionization_Penalty_Charging>
  0.0203

> <r_epik_Ionization_Penalty_Neutral>
  0.0000

> <r_epik_State_Penalty>
  0.0163

> <r_epik_Charging_Adjusted_Penalty>
0.0366092764671401

> <i_epik_Tot_Q>
1

> <i_epik_Tot_abs_Q>
1

$$$$
