2wf1_ligand
                    3D
 Schrodinger Suite 2020-3.
 81 85  0  0  1  0            999 V2000
   27.6180   -3.8540   34.2880 C   0  0  0  0  0  0
   29.1370   -4.0020   34.1320 C   0  0  0  0  0  0
   29.8660   -3.4100   35.3340 C   0  0  0  0  0  0
   30.3580   -4.1260   36.4280 C   0  0  0  0  0  0
   30.9610   -3.2910   37.3200 N   0  0  0  0  0  0
   31.6240   -3.6850   38.6040 C   0  0  0  0  0  0
   31.2920   -2.9890   39.9430 C   0  0  0  0  0  0
   31.1010   -1.2210   39.8640 S   0  0  0  0  0  0
   29.7190   -0.9570   39.6070 O   0  0  0  0  0  0
   31.6780   -0.6380   41.0490 O   0  0  0  0  0  0
   32.0030   -0.6830   38.5670 N   0  0  0  0  0  0
   32.7410    0.5820   38.8210 C   0  0  0  0  0  0
   31.3320   -0.7360   37.3450 C   0  0  0  0  0  0
   31.1050    0.4690   36.5710 C   0  0  0  0  0  0
   30.4290    0.4070   35.3070 C   0  0  0  0  0  0
   29.9820   -0.8620   34.8320 C   0  0  0  0  0  0
   30.1960   -2.0230   35.5710 C   0  0  0  0  0  0
   30.8840   -1.9690   36.8330 C   0  0  0  0  0  0
   30.2000    1.5800   34.4310 C   0  0  0  0  0  0
   31.0350    2.4780   34.3070 O   0  0  0  0  0  0
   29.0470    1.5970   33.7040 N   0  0  0  0  0  0
   28.7430    2.6630   32.7250 C   0  0  1  0  0  0
   28.1980    1.9210   31.4600 C   0  0  0  0  0  0
   28.8270    0.5630   31.1840 C   0  0  0  0  0  0
   28.0200   -0.6100   31.1280 C   0  0  0  0  0  0
   28.6060   -1.8780   30.8780 C   0  0  0  0  0  0
   30.0030   -1.9880   30.6840 C   0  0  0  0  0  0
   30.8180   -0.8290   30.7380 C   0  0  0  0  0  0
   30.2350    0.4360   30.9840 C   0  0  0  0  0  0
   30.0710    8.9410   30.8830 O   0  0  0  0  0  0
   27.8100    3.7460   33.3100 C   0  0  2  0  0  0
   28.7920    9.4100   30.4820 C   0  0  0  0  0  0
   27.4460    4.6150   32.2510 O   0  0  0  0  0  0
   28.4060    4.6020   34.4350 C   0  0  0  0  0  0
   27.6660    5.8680   34.5720 N   0  3  0  0  0  0
   28.4110    6.9520   35.2380 C   0  0  0  0  0  0
   29.5090    7.5170   34.3630 C   0  0  0  0  0  0
   29.2170    7.9510   33.0450 C   0  0  0  0  0  0
   30.2410    8.4860   32.2010 C   0  0  0  0  0  0
   31.5600    8.5730   32.7100 C   0  0  0  0  0  0
   31.8590    8.1430   34.0220 C   0  0  0  0  0  0
   30.8380    7.6170   34.8460 C   0  0  0  0  0  0
   27.1154   -4.2874   33.4107 H   0  0  0  0  0  0
   27.3599   -2.7878   34.3690 H   0  0  0  0  0  0
   27.2896   -4.3808   35.1961 H   0  0  0  0  0  0
   29.3951   -5.0682   34.0510 H   0  0  0  0  0  0
   29.4654   -3.4753   33.2239 H   0  0  0  0  0  0
   30.2713   -5.2055   36.5512 H   0  0  0  0  0  0
   31.4107   -4.7429   38.8172 H   0  0  0  0  0  0
   32.7109   -3.5408   38.5148 H   0  0  0  0  0  0
   30.3445   -3.3851   40.3371 H   0  0  0  0  0  0
   32.0986   -3.1809   40.6659 H   0  0  0  0  0  0
   33.2340    0.5280   39.8028 H   0  0  0  0  0  0
   32.0359    1.4262   38.8107 H   0  0  0  0  0  0
   33.4992    0.7278   38.0375 H   0  0  0  0  0  0
   31.4507    1.4297   36.9526 H   0  0  0  0  0  0
   29.4644   -0.9239   33.8747 H   0  0  0  0  0  0
   28.3300    0.7788   33.8666 H   0  0  0  0  0  0
   29.6577    3.2279   32.4920 H   0  0  0  0  0  0
   27.1176    1.7483   31.5733 H   0  0  0  0  0  0
   28.3792    2.5372   30.5670 H   0  0  0  0  0  0
   26.9432   -0.5327   31.2785 H   0  0  0  0  0  0
   27.9789   -2.7685   30.8354 H   0  0  0  0  0  0
   30.4523   -2.9626   30.4932 H   0  0  0  0  0  0
   31.8946   -0.9129   30.5898 H   0  0  0  0  0  0
   30.8672    1.3231   31.0213 H   0  0  0  0  0  0
   26.9125    3.2514   33.7098 H   0  0  0  0  0  0
   28.8310    9.7264   29.4292 H   0  0  0  0  0  0
   28.5009   10.2642   31.1110 H   0  0  0  0  0  0
   28.0534    8.6027   30.5952 H   0  0  0  0  0  0
   26.9946    4.2065   31.3348 H   0  0  0  0  0  0
   28.3476    4.0509   35.3852 H   0  0  0  0  0  0
   29.4580    4.8276   34.2061 H   0  0  0  0  0  0
   27.3890    6.2406   33.5748 H   0  0  0  0  0  0
   26.7557    5.6983   35.1658 H   0  0  0  0  0  0
   27.7207    7.7708   35.4892 H   0  0  0  0  0  0
   28.8737    6.5671   36.1587 H   0  0  0  0  0  0
   28.1967    7.8759   32.6690 H   0  0  0  0  0  0
   32.3540    8.9767   32.0817 H   0  0  0  0  0  0
   32.8788    8.2170   34.3996 H   0  0  0  0  0  0
   31.0737    7.2867   35.8577 H   0  0  0  0  0  0
  1  2  1  0  0  0
  1 43  1  0  0  0
  1 44  1  0  0  0
  1 45  1  0  0  0
  2  3  1  0  0  0
  2 46  1  0  0  0
  2 47  1  0  0  0
  3  4  2  0  0  0
  3 17  1  0  0  0
  4  5  1  0  0  0
  4 48  1  0  0  0
  5  6  1  0  0  0
  5 18  1  0  0  0
  6  7  1  0  0  0
  6 49  1  0  0  0
  6 50  1  0  0  0
  7  8  1  0  0  0
  7 51  1  0  0  0
  7 52  1  0  0  0
  8  9  2  0  0  0
  8 10  2  0  0  0
  8 11  1  0  0  0
 11 12  1  0  0  0
 11 13  1  0  0  0
 12 53  1  0  0  0
 12 54  1  0  0  0
 12 55  1  0  0  0
 13 14  1  0  0  0
 13 18  2  0  0  0
 14 15  2  0  0  0
 14 56  1  0  0  0
 15 16  1  0  0  0
 15 19  1  0  0  0
 16 17  2  0  0  0
 16 57  1  0  0  0
 17 18  1  0  0  0
 19 20  2  0  0  0
 19 21  1  0  0  0
 21 22  1  0  0  0
 21 58  1  0  0  0
 22 23  1  0  0  0
 22 31  1  0  0  0
 22 59  1  0  0  0
 23 24  1  0  0  0
 23 60  1  0  0  0
 23 61  1  0  0  0
 24 25  2  0  0  0
 24 29  1  0  0  0
 25 26  1  0  0  0
 25 62  1  0  0  0
 26 27  2  0  0  0
 26 63  1  0  0  0
 27 28  1  0  0  0
 27 64  1  0  0  0
 28 29  2  0  0  0
 28 65  1  0  0  0
 29 66  1  0  0  0
 30 32  1  0  0  0
 30 39  1  0  0  0
 31 33  1  0  0  0
 31 34  1  0  0  0
 31 67  1  0  0  0
 32 68  1  0  0  0
 32 69  1  0  0  0
 32 70  1  0  0  0
 33 71  1  0  0  0
 34 35  1  0  0  0
 34 72  1  0  0  0
 34 73  1  0  0  0
 35 36  1  0  0  0
 35 74  1  0  0  0
 35 75  1  0  0  0
 36 37  1  0  0  0
 36 76  1  0  0  0
 36 77  1  0  0  0
 37 38  2  0  0  0
 37 42  1  0  0  0
 38 39  1  0  0  0
 38 78  1  0  0  0
 39 40  2  0  0  0
 40 41  1  0  0  0
 40 79  1  0  0  0
 41 42  2  0  0  0
 41 80  1  0  0  0
 42 81  1  0  0  0
M  CHG  1  35   1
M  END
> <s_m_source_file>
../2wf1_ligand.sdf

> <i_m_source_file_index>
1

> <s_epik_input>
W0NIMl0xW0NIMl1TKD1PKSg9TylOKFtDSDNdKWMoYzJuMTMpW2NIXWMoW2NIXWMyYyhbY0hdMylbQ0gyXVtDSDNdKUMoPU8pW05IXVtDQEBIXShbQ0gyXWM0W2NIXVtjSF1bY0hdW2NIXVtjSF00KVtDQEhdKFtPSF0pW0NIMl1bTkgyK11bQ0gyXWM1W2NIXWMoT1tDSDNdKVtjSF1bY0hdW2NIXTU=

> <s_epik_cmdline>
J2VwaWtfYXBwJywgJy1pbWFlJywgJ2xpZ2FuZF9wcm8ubWFlJywgJy1vbWFlJywgJ2xpZ2FuZF9wcmVwLm1hZScsICctbXMnLCAnMScsICctcGgnLCAnNycsICctcGh0JywgJzAuNScsICctbnQn

> <r_lp_tautomer_probability>
1

> <r_epik_Ionization_Penalty>
  0.0203

> <r_epik_Ionization_Penalty_Charging>
  0.0203

> <r_epik_Ionization_Penalty_Neutral>
  0.0000

> <r_epik_State_Penalty>
  0.0163

> <r_epik_Charging_Adjusted_Penalty>
0.0366092764671401

> <i_epik_Tot_Q>
1

> <i_epik_Tot_abs_Q>
1

$$$$
