2wf2_ligand
                    3D
 Schrodinger Suite 2020-3.
 85 89  0  0  1  0            999 V2000
   30.5630    1.3650   34.7320 C   0  0  0  0  0  0
   29.3620    1.3030   34.0910 N   0  0  0  0  0  0
   29.0290    2.2730   33.0400 C   0  0  2  0  0  0
   28.1710    3.4650   33.5180 C   0  0  1  0  0  0
   28.3780    1.4980   31.8540 C   0  0  0  0  0  0
   28.9830    4.4320   34.3660 C   0  0  0  0  0  0
   31.3780    2.2620   34.5060 O   0  0  0  0  0  0
   30.8990    0.2050   35.5510 C   0  0  0  0  0  0
   31.5450    0.3730   36.7840 C   0  0  0  0  0  0
   31.9170   -0.7490   37.5690 C   0  0  0  0  0  0
   31.6390   -2.1050   37.1020 C   0  0  0  0  0  0
   30.9480   -2.2770   35.8440 C   0  0  0  0  0  0
   30.5940   -1.0970   35.0800 C   0  0  0  0  0  0
   29.1840    0.2640   31.4150 C   0  0  0  0  0  0
   28.4390   -0.9400   31.1480 C   0  0  0  0  0  0
   29.1260   -2.1360   30.7520 C   0  0  0  0  0  0
   30.5530   -2.1170   30.6310 C   0  0  0  0  0  0
   31.3100   -0.9230   30.8950 C   0  0  0  0  0  0
   30.6270    0.2720   31.2880 C   0  0  0  0  0  0
   28.1070    5.5620   34.7890 N   0  3  0  0  0  0
   27.7070    4.2370   32.4050 O   0  0  0  0  0  0
   28.8850    6.5690   35.5530 C   0  0  0  0  0  0
   29.9720    7.1960   34.6780 C   0  0  0  0  0  0
   29.6470    7.6780   33.3630 C   0  0  0  0  0  0
   30.6850    8.2480   32.5360 C   0  0  0  0  0  0
   32.0190    8.3210   33.0460 C   0  0  0  0  0  0
   32.3460    7.8490   34.3520 C   0  0  0  0  0  0
   31.3130    7.2850   35.1630 C   0  0  0  0  0  0
   30.4950    8.7470   31.2400 O   0  0  0  0  0  0
   29.1850    8.7110   30.6530 C   0  0  0  0  0  0
   32.0810   -3.2740   37.7790 N   0  0  0  0  0  0
   30.9220   -4.8100   36.1070 C   0  0  0  0  0  0
   30.6190   -3.5620   35.3500 N   0  0  0  0  0  0
   32.3170   -0.4430   38.9020 N   0  0  0  0  0  0
   31.6130   -1.3220   40.2220 S   0  0  0  0  0  0
   32.4220   -2.8910   40.2980 C   0  0  0  0  0  0
   33.0030   -3.2640   38.9370 C   0  0  0  0  0  0
   29.9190   -3.7890   34.0730 C   0  0  0  0  0  0
   28.4050   -3.9410   34.3250 C   0  0  0  0  0  0
   33.5990    0.3120   39.0400 C   0  0  0  0  0  0
   30.2330   -1.5320   39.8820 O   0  0  0  0  0  0
   31.9330   -0.5510   41.3970 O   0  0  0  0  0  0
   31.8280   -4.6500   37.3220 C   0  0  0  0  0  0
   28.6400    0.5198   34.3654 H   0  0  0  0  0  0
   29.9915    2.7256   32.7593 H   0  0  0  0  0  0
   27.2973    3.0687   34.0562 H   0  0  0  0  0  0
   27.3766    1.1508   32.1485 H   0  0  0  0  0  0
   28.2935    2.1643   30.9829 H   0  0  0  0  0  0
   29.3665    3.9080   35.2539 H   0  0  0  0  0  0
   29.8267    4.8183   33.7753 H   0  0  0  0  0  0
   31.7642    1.3782   37.1441 H   0  0  0  0  0  0
   30.0831   -1.2131   34.1242 H   0  0  0  0  0  0
   27.3535   -0.9424   31.2468 H   0  0  0  0  0  0
   28.5678   -3.0492   30.5455 H   0  0  0  0  0  0
   31.0758   -3.0258   30.3328 H   0  0  0  0  0  0
   32.3955   -0.9280   30.7966 H   0  0  0  0  0  0
   31.1898    1.1832   31.4906 H   0  0  0  0  0  0
   27.6762    6.0448   33.8995 H   0  0  0  0  0  0
   27.2968    5.1790   35.4269 H   0  0  0  0  0  0
   27.0859    3.7654   31.6292 H   0  0  0  0  0  0
   28.2107    7.3641   35.9040 H   0  0  0  0  0  0
   29.3622    6.0847   36.4177 H   0  0  0  0  0  0
   28.6239    7.6137   32.9926 H   0  0  0  0  0  0
   32.8046    8.7474   32.4221 H   0  0  0  0  0  0
   33.3677    7.9174   34.7255 H   0  0  0  0  0  0
   31.5507    6.9190   36.1618 H   0  0  0  0  0  0
   29.2247    9.1408   29.6412 H   0  0  0  0  0  0
   28.4893    9.2957   31.2728 H   0  0  0  0  0  0
   28.8376    7.6689   30.5954 H   0  0  0  0  0  0
   29.9850   -5.2492   36.4801 H   0  0  0  0  0  0
   31.4249   -5.5286   35.4431 H   0  0  0  0  0  0
   33.2387   -2.8471   41.0335 H   0  0  0  0  0  0
   31.6982   -3.6625   40.5994 H   0  0  0  0  0  0
   33.4348   -4.2669   39.0706 H   0  0  0  0  0  0
   33.8099   -2.5384   38.7570 H   0  0  0  0  0  0
   30.0915   -2.9337   33.4032 H   0  0  0  0  0  0
   30.3027   -4.7063   33.6025 H   0  0  0  0  0  0
   27.8892   -4.1100   33.3682 H   0  0  0  0  0  0
   28.0175   -3.0243   34.7936 H   0  0  0  0  0  0
   28.2286   -4.7970   34.9929 H   0  0  0  0  0  0
   33.8494    0.7878   38.0803 H   0  0  0  0  0  0
   34.4036   -0.3811   39.3267 H   0  0  0  0  0  0
   33.4877    1.0851   39.8145 H   0  0  0  0  0  0
   32.7811   -5.1270   37.0497 H   0  0  0  0  0  0
   31.3492   -5.2225   38.1300 H   0  0  0  0  0  0
  1  2  1  0  0  0
  1  7  2  0  0  0
  1  8  1  0  0  0
  2  3  1  0  0  0
  2 44  1  0  0  0
  3  4  1  0  0  0
  3  5  1  0  0  0
  3 45  1  0  0  0
  4  6  1  0  0  0
  4 21  1  0  0  0
  4 46  1  0  0  0
  5 14  1  0  0  0
  5 47  1  0  0  0
  5 48  1  0  0  0
  6 20  1  0  0  0
  6 49  1  0  0  0
  6 50  1  0  0  0
  8  9  2  0  0  0
  8 13  1  0  0  0
  9 10  1  0  0  0
  9 51  1  0  0  0
 10 11  2  0  0  0
 10 34  1  0  0  0
 11 12  1  0  0  0
 11 31  1  0  0  0
 12 13  2  0  0  0
 12 33  1  0  0  0
 13 52  1  0  0  0
 14 15  2  0  0  0
 14 19  1  0  0  0
 15 16  1  0  0  0
 15 53  1  0  0  0
 16 17  2  0  0  0
 16 54  1  0  0  0
 17 18  1  0  0  0
 17 55  1  0  0  0
 18 19  2  0  0  0
 18 56  1  0  0  0
 19 57  1  0  0  0
 20 22  1  0  0  0
 20 58  1  0  0  0
 20 59  1  0  0  0
 21 60  1  0  0  0
 22 23  1  0  0  0
 22 61  1  0  0  0
 22 62  1  0  0  0
 23 24  2  0  0  0
 23 28  1  0  0  0
 24 25  1  0  0  0
 24 63  1  0  0  0
 25 26  2  0  0  0
 25 29  1  0  0  0
 26 27  1  0  0  0
 26 64  1  0  0  0
 27 28  2  0  0  0
 27 65  1  0  0  0
 28 66  1  0  0  0
 29 30  1  0  0  0
 30 67  1  0  0  0
 30 68  1  0  0  0
 30 69  1  0  0  0
 31 37  1  0  0  0
 31 43  1  0  0  0
 32 33  1  0  0  0
 32 43  1  0  0  0
 32 70  1  0  0  0
 32 71  1  0  0  0
 33 38  1  0  0  0
 34 35  1  0  0  0
 34 40  1  0  0  0
 35 36  1  0  0  0
 35 41  2  0  0  0
 35 42  2  0  0  0
 36 37  1  0  0  0
 36 72  1  0  0  0
 36 73  1  0  0  0
 37 74  1  0  0  0
 37 75  1  0  0  0
 38 39  1  0  0  0
 38 76  1  0  0  0
 38 77  1  0  0  0
 39 78  1  0  0  0
 39 79  1  0  0  0
 39 80  1  0  0  0
 40 81  1  0  0  0
 40 82  1  0  0  0
 40 83  1  0  0  0
 43 84  1  0  0  0
 43 85  1  0  0  0
M  CHG  1  20   1
M  END
> <s_m_source_file>
../2wf2_ligand.sdf

> <i_m_source_file_index>
1

> <s_epik_input>
W0NIM11OMVMoPU8pKD1PKVtDSDJdW0NIMl1OMltDSDJdW0NIMl1OKFtDSDJdW0NIM10pYyhjMmMxMylbY0hdYyhbY0hdMylDKD1PKVtOSF1bQ0BASF0oW0NIMl1jNFtjSF1bY0hdW2NIXVtjSF1bY0hdNClbQ0BIXShbT0hdKVtDSDJdW05IMitdW0NIMl1jNVtjSF1jKE9bQ0gzXSlbY0hdW2NIXVtjSF01

> <s_epik_cmdline>
J2VwaWtfYXBwJywgJy1pbWFlJywgJ2xpZ2FuZF9wcm8ubWFlJywgJy1vbWFlJywgJ2xpZ2FuZF9wcmVwLm1hZScsICctbXMnLCAnMScsICctcGgnLCAnNycsICctcGh0JywgJzAuNScsICctbnQn

> <r_lp_tautomer_probability>
1

> <r_epik_Ionization_Penalty>
  0.0222

> <r_epik_Ionization_Penalty_Charging>
  0.0203

> <r_epik_Ionization_Penalty_Neutral>
  0.0019

> <r_epik_State_Penalty>
  0.0163

> <r_epik_Charging_Adjusted_Penalty>
0.0366092764671401

> <i_epik_Tot_Q>
1

> <i_epik_Tot_abs_Q>
1

$$$$
