2wf3_ligand
                    3D
 Schrodinger Suite 2020-3.
 82 85  0  0  1  0            999 V2000
   31.2660    2.2580   34.3830 O   0  0  0  0  0  0
   30.3400    1.4400   34.5040 C   0  0  0  0  0  0
   30.5460    0.2600   35.3830 C   0  0  0  0  0  0
   31.1570    0.3760   36.6080 C   0  0  0  0  0  0
   31.3880   -0.7080   37.4360 C   0  0  0  0  0  0
   31.0100   -1.9770   37.0340 C   0  0  0  0  0  0
   31.2450   -3.2520   37.8510 C   0  0  0  0  0  0
   32.5520   -3.1880   38.6940 C   0  0  0  0  0  0
   32.2450   -2.6070   40.0960 C   0  0  0  0  0  0
   31.4150   -1.1370   39.9940 S   0  0  0  0  0  0
   30.0240   -1.4260   39.8130 O   0  0  0  0  0  0
   31.7510   -0.3320   41.1610 O   0  0  0  0  0  0
   32.0220   -0.5140   38.7020 N   0  0  0  0  0  0
   33.2710    0.2200   38.8090 C   0  0  0  0  0  0
   30.1270   -0.9900   34.9840 C   0  0  0  0  0  0
   30.3660   -2.1060   35.8250 C   0  0  0  0  0  0
   29.9770   -3.3370   35.4210 N   0  0  0  0  0  0
   29.0700   -3.3960   34.2750 C   0  0  0  0  0  0
   28.4930   -4.7260   34.0770 C   0  0  0  0  0  0
   29.2110    1.5080   33.7950 N   0  0  0  0  0  0
   29.0010    2.4690   32.7440 C   0  0  1  0  0  0
   28.4020    1.7140   31.5500 C   0  0  0  0  0  0
   29.0320    0.3740   31.2740 C   0  0  0  0  0  0
   28.2270   -0.7800   31.1630 C   0  0  0  0  0  0
   28.7870   -2.0100   30.8810 C   0  0  0  0  0  0
   30.1730   -2.0970   30.7060 C   0  0  0  0  0  0
   30.9740   -0.9330   30.7870 C   0  0  0  0  0  0
   30.4190    0.2830   31.0780 C   0  0  0  0  0  0
   28.1350    3.6020   33.2610 C   0  0  2  0  0  0
   27.7040    4.4940   32.2150 O   0  0  0  0  0  0
   28.8890    4.4570   34.2930 C   0  0  0  0  0  0
   28.0250    5.6020   34.6590 N   0  3  0  0  0  0
   28.5300    6.8940   35.1750 C   0  0  0  0  0  0
   29.6820    7.4430   34.3370 C   0  0  0  0  0  0
   29.4600    7.9070   33.0470 C   0  0  0  0  0  0
   30.5330    8.3670   32.2860 C   0  0  0  0  0  0
   30.3110    8.8190   31.0170 O   0  0  0  0  0  0
   28.9780    8.9470   30.5920 C   0  0  0  0  0  0
   31.8110    8.3940   32.8070 C   0  0  0  0  0  0
   32.0400    7.9450   34.0890 C   0  0  0  0  0  0
   30.9850    7.4400   34.8540 C   0  0  0  0  0  0
   31.4733    1.3643   36.9418 H   0  0  0  0  0  0
   30.4033   -3.4046   38.5426 H   0  0  0  0  0  0
   31.3223   -4.1137   37.1717 H   0  0  0  0  0  0
   32.9677   -4.2005   38.8033 H   0  0  0  0  0  0
   33.2847   -2.5437   38.1861 H   0  0  0  0  0  0
   31.6229   -3.3181   40.6594 H   0  0  0  0  0  0
   33.1876   -2.4362   40.6366 H   0  0  0  0  0  0
   33.5631    0.5933   37.8164 H   0  0  0  0  0  0
   34.0560   -0.4465   39.1957 H   0  0  0  0  0  0
   33.1396    1.0690   39.4960 H   0  0  0  0  0  0
   29.6161   -1.1200   34.0300 H   0  0  0  0  0  0
   30.3083   -4.2657   35.9086 H   0  0  0  0  0  0
   28.2410   -2.6891   34.4268 H   0  0  0  0  0  0
   29.6178   -3.1276   33.3596 H   0  0  0  0  0  0
   27.8227   -4.7087   33.2050 H   0  0  0  0  0  0
   27.9229   -5.0153   34.9721 H   0  0  0  0  0  0
   29.2997   -5.4538   33.9050 H   0  0  0  0  0  0
   28.4205    0.7852   34.0453 H   0  0  0  0  0  0
   29.9641    2.9164   32.4570 H   0  0  0  0  0  0
   27.3323    1.5318   31.7307 H   0  0  0  0  0  0
   28.5223    2.3164   30.6375 H   0  0  0  0  0  0
   27.1489   -0.6990   31.3018 H   0  0  0  0  0  0
   28.1606   -2.8980   30.7961 H   0  0  0  0  0  0
   30.6364   -3.0633   30.5069 H   0  0  0  0  0  0
   32.0479   -1.0064   30.6152 H   0  0  0  0  0  0
   31.0464    1.1708   31.1567 H   0  0  0  0  0  0
   27.2265    3.1329   33.6667 H   0  0  0  0  0  0
   27.1377    4.1026   31.3570 H   0  0  0  0  0  0
   29.1094    3.8485   35.1824 H   0  0  0  0  0  0
   29.8304    4.8175   33.8529 H   0  0  0  0  0  0
   27.4498    5.9235   33.7782 H   0  0  0  0  0  0
   27.3328    5.2983   35.4581 H   0  0  0  0  0  0
   27.7178    7.6357   35.1644 H   0  0  0  0  0  0
   28.8918    6.7612   36.2053 H   0  0  0  0  0  0
   28.4521    7.9114   32.6320 H   0  0  0  0  0  0
   28.9573    9.3187   29.5569 H   0  0  0  0  0  0
   28.4509    9.6564   31.2469 H   0  0  0  0  0  0
   28.4823    7.9662   30.6394 H   0  0  0  0  0  0
   32.6380    8.7702   32.2047 H   0  0  0  0  0  0
   33.0457    7.9836   34.5075 H   0  0  0  0  0  0
   31.1752    7.0442   35.8516 H   0  0  0  0  0  0
  1  2  2  0  0  0
  2  3  1  0  0  0
  2 20  1  0  0  0
  3  4  2  0  0  0
  3 15  1  0  0  0
  4  5  1  0  0  0
  4 42  1  0  0  0
  5  6  2  0  0  0
  5 13  1  0  0  0
  6  7  1  0  0  0
  6 16  1  0  0  0
  7  8  1  0  0  0
  7 43  1  0  0  0
  7 44  1  0  0  0
  8  9  1  0  0  0
  8 45  1  0  0  0
  8 46  1  0  0  0
  9 10  1  0  0  0
  9 47  1  0  0  0
  9 48  1  0  0  0
 10 11  2  0  0  0
 10 12  2  0  0  0
 10 13  1  0  0  0
 13 14  1  0  0  0
 14 49  1  0  0  0
 14 50  1  0  0  0
 14 51  1  0  0  0
 15 16  2  0  0  0
 15 52  1  0  0  0
 16 17  1  0  0  0
 17 18  1  0  0  0
 17 53  1  0  0  0
 18 19  1  0  0  0
 18 54  1  0  0  0
 18 55  1  0  0  0
 19 56  1  0  0  0
 19 57  1  0  0  0
 19 58  1  0  0  0
 20 21  1  0  0  0
 20 59  1  0  0  0
 21 22  1  0  0  0
 21 29  1  0  0  0
 21 60  1  0  0  0
 22 23  1  0  0  0
 22 61  1  0  0  0
 22 62  1  0  0  0
 23 24  2  0  0  0
 23 28  1  0  0  0
 24 25  1  0  0  0
 24 63  1  0  0  0
 25 26  2  0  0  0
 25 64  1  0  0  0
 26 27  1  0  0  0
 26 65  1  0  0  0
 27 28  2  0  0  0
 27 66  1  0  0  0
 28 67  1  0  0  0
 29 30  1  0  0  0
 29 31  1  0  0  0
 29 68  1  0  0  0
 30 69  1  0  0  0
 31 32  1  0  0  0
 31 70  1  0  0  0
 31 71  1  0  0  0
 32 33  1  0  0  0
 32 72  1  0  0  0
 32 73  1  0  0  0
 33 34  1  0  0  0
 33 74  1  0  0  0
 33 75  1  0  0  0
 34 35  2  0  0  0
 34 41  1  0  0  0
 35 36  1  0  0  0
 35 76  1  0  0  0
 36 37  1  0  0  0
 36 39  2  0  0  0
 37 38  1  0  0  0
 38 77  1  0  0  0
 38 78  1  0  0  0
 38 79  1  0  0  0
 39 40  1  0  0  0
 39 80  1  0  0  0
 40 41  2  0  0  0
 40 81  1  0  0  0
 41 82  1  0  0  0
M  CHG  1  32   1
M  END
> <s_m_source_file>
../2wf3_ligand.sdf

> <i_m_source_file_index>
1

> <s_epik_input>
W0NIM11OMVMoPU8pKD1PKVtDSDJdW0NIMl1bQ0gyXWMoYzEyKWMoW05IXVtDSDJdW0NIM10pW2NIXWMoW2NIXTIpQyg9TylbTkhdW0NAQEhdKFtDSDJdYzNbY0hdW2NIXVtjSF1bY0hdW2NIXTMpW0NASF0oW09IXSlbQ0gyXVtOSDIrXVtDSDJdYzRbY0hdYyhPW0NIM10pW2NIXVtjSF1bY0hdNA==

> <s_epik_cmdline>
J2VwaWtfYXBwJywgJy1pbWFlJywgJ2xpZ2FuZF9wcm8ubWFlJywgJy1vbWFlJywgJ2xpZ2FuZF9wcmVwLm1hZScsICctbXMnLCAnMScsICctcGgnLCAnNycsICctcGh0JywgJzAuNScsICctbnQn

> <r_lp_tautomer_probability>
1

> <r_epik_Ionization_Penalty>
  0.0206

> <r_epik_Ionization_Penalty_Charging>
  0.0203

> <r_epik_Ionization_Penalty_Neutral>
  0.0002

> <r_epik_State_Penalty>
  0.0163

> <r_epik_Charging_Adjusted_Penalty>
0.0366092764671401

> <i_epik_Tot_Q>
1

> <i_epik_Tot_abs_Q>
1

$$$$
