2wf4_ligand
                    3D
 Schrodinger Suite 2020-3.
 79 83  0  0  1  0            999 V2000
   30.5640    1.4880   34.2700 C   0  0  0  0  0  0
   29.3310    1.5830   33.7160 N   0  0  0  0  0  0
   29.0620    2.4570   32.5590 C   0  0  2  0  0  0
   28.1930    3.6470   33.0360 C   0  0  0  0  0  0
   28.3380    1.6470   31.4470 C   0  0  0  0  0  0
   29.0240    4.6100   33.8730 C   0  0  0  0  0  0
   31.4500    2.3370   34.0700 O   0  0  0  0  0  0
   30.7720    0.3180   35.1120 C   0  0  0  0  0  0
   31.3800    0.4790   36.3770 C   0  0  0  0  0  0
   31.6190   -0.6390   37.2430 C   0  0  0  0  0  0
   31.2260   -1.9380   36.8000 C   0  0  0  0  0  0
   30.5970   -2.1000   35.4950 C   0  0  0  0  0  0
   30.3850   -0.9780   34.6800 C   0  0  0  0  0  0
   29.0440    0.3350   31.1180 C   0  0  0  0  0  0
   28.3090   -0.8790   31.1000 C   0  0  0  0  0  0
   28.9500   -2.1120   30.7960 C   0  0  0  0  0  0
   30.3370   -2.1440   30.5080 C   0  0  0  0  0  0
   31.0870   -0.9430   30.5210 C   0  0  0  0  0  0
   30.4490    0.2900   30.8230 C   0  0  0  0  0  0
   28.3200    5.7790   34.3790 N   0  3  0  0  0  0
   27.7530    4.3990   31.9350 O   0  0  0  0  0  0
   29.1070    6.7680   35.1280 C   0  0  0  0  0  0
   29.7680    6.1630   36.3840 C   0  0  0  0  0  0
   30.5490    7.2260   37.1890 C   0  0  0  0  0  0
   29.6780    8.3260   37.4940 O   0  0  0  0  0  0
   29.0730    8.9830   36.3680 C   0  0  0  0  0  0
   28.2320    7.9630   35.5740 C   0  0  0  0  0  0
   31.2990   -3.2950   37.3800 C   0  0  0  0  0  0
   30.7340   -4.1410   36.4260 C   0  0  0  0  0  0
   30.3240   -3.4630   35.3290 N   0  0  0  0  0  0
   32.2340   -0.3880   38.4670 N   0  0  0  0  0  0
   31.7670   -1.2190   39.8040 S   0  0  0  0  0  0
   32.5100   -2.8290   39.6940 C   0  0  0  0  0  0
   29.6800   -4.0710   34.1380 C   0  0  0  0  0  0
   28.1460   -3.9230   34.0980 C   0  0  0  0  0  0
   30.3330   -1.3540   39.7620 O   0  0  0  0  0  0
   32.3320   -0.5510   40.9320 O   0  0  0  0  0  0
   31.8410   -3.8040   38.7220 C   0  0  0  0  0  0
   27.0700    3.1550   33.7220 O   0  0  0  0  0  0
   33.3380    0.5830   38.5600 C   0  0  0  0  0  0
   28.5186    0.9844   34.1538 H   0  0  0  0  0  0
   30.0288    2.8177   32.1778 H   0  0  0  0  0  0
   27.3162    1.4060   31.7753 H   0  0  0  0  0  0
   28.2954    2.2463   30.5256 H   0  0  0  0  0  0
   29.4183    4.0833   34.7545 H   0  0  0  0  0  0
   29.8606    4.9923   33.2697 H   0  0  0  0  0  0
   31.6745    1.4767   36.7026 H   0  0  0  0  0  0
   29.9175   -1.1027   33.7033 H   0  0  0  0  0  0
   27.2418   -0.8664   31.3215 H   0  0  0  0  0  0
   28.3718   -3.0359   30.7846 H   0  0  0  0  0  0
   30.8254   -3.0907   30.2770 H   0  0  0  0  0  0
   32.1540   -0.9645   30.2993 H   0  0  0  0  0  0
   31.0317    1.2112   30.8309 H   0  0  0  0  0  0
   27.8778    6.3332   33.5380 H   0  0  0  0  0  0
   27.5231    5.4582   35.0661 H   0  0  0  0  0  0
   28.4852    4.8734   31.2650 H   0  0  0  0  0  0
   29.8724    7.0731   34.3993 H   0  0  0  0  0  0
   28.9925    5.7360   37.0369 H   0  0  0  0  0  0
   30.4707    5.3718   36.0835 H   0  0  0  0  0  0
   30.9188    6.7794   38.1238 H   0  0  0  0  0  0
   31.4004    7.5853   36.5924 H   0  0  0  0  0  0
   28.4247    9.7974   36.7236 H   0  0  0  0  0  0
   29.8590    9.3968   35.7191 H   0  0  0  0  0  0
   27.8113    8.4603   34.6876 H   0  0  0  0  0  0
   27.4140    7.6000   36.2136 H   0  0  0  0  0  0
   30.6346   -5.2194   36.5493 H   0  0  0  0  0  0
   33.5536   -2.7292   39.3609 H   0  0  0  0  0  0
   32.4850   -3.3126   40.6817 H   0  0  0  0  0  0
   30.0719   -3.5958   33.2266 H   0  0  0  0  0  0
   29.8990   -5.1487   34.1128 H   0  0  0  0  0  0
   27.7553   -4.3995   33.1868 H   0  0  0  0  0  0
   27.8806   -2.8555   34.0962 H   0  0  0  0  0  0
   27.7076   -4.4084   34.9825 H   0  0  0  0  0  0
   31.0189   -4.2419   39.3071 H   0  0  0  0  0  0
   32.6100   -4.5693   38.5404 H   0  0  0  0  0  0
   27.2026    2.5365   34.6219 H   0  0  0  0  0  0
   33.5092    1.0391   37.5738 H   0  0  0  0  0  0
   34.2524    0.0680   38.8895 H   0  0  0  0  0  0
   33.0767    1.3669   39.2861 H   0  0  0  0  0  0
  1  2  1  0  0  0
  1  7  2  0  0  0
  1  8  1  0  0  0
  2  3  1  0  0  0
  2 41  1  0  0  0
  3  4  1  0  0  0
  3  5  1  0  0  0
  3 42  1  0  0  0
  4  6  1  0  0  0
  4 21  1  0  0  0
  4 39  1  0  0  0
  5 14  1  0  0  0
  5 43  1  0  0  0
  5 44  1  0  0  0
  6 20  1  0  0  0
  6 45  1  0  0  0
  6 46  1  0  0  0
  8  9  2  0  0  0
  8 13  1  0  0  0
  9 10  1  0  0  0
  9 47  1  0  0  0
 10 11  2  0  0  0
 10 31  1  0  0  0
 11 12  1  0  0  0
 11 28  1  0  0  0
 12 13  2  0  0  0
 12 30  1  0  0  0
 13 48  1  0  0  0
 14 15  2  0  0  0
 14 19  1  0  0  0
 15 16  1  0  0  0
 15 49  1  0  0  0
 16 17  2  0  0  0
 16 50  1  0  0  0
 17 18  1  0  0  0
 17 51  1  0  0  0
 18 19  2  0  0  0
 18 52  1  0  0  0
 19 53  1  0  0  0
 20 22  1  0  0  0
 20 54  1  0  0  0
 20 55  1  0  0  0
 21 56  1  0  0  0
 22 23  1  0  0  0
 22 27  1  0  0  0
 22 57  1  0  0  0
 23 24  1  0  0  0
 23 58  1  0  0  0
 23 59  1  0  0  0
 24 25  1  0  0  0
 24 60  1  0  0  0
 24 61  1  0  0  0
 25 26  1  0  0  0
 26 27  1  0  0  0
 26 62  1  0  0  0
 26 63  1  0  0  0
 27 64  1  0  0  0
 27 65  1  0  0  0
 28 29  2  0  0  0
 28 38  1  0  0  0
 29 30  1  0  0  0
 29 66  1  0  0  0
 30 34  1  0  0  0
 31 32  1  0  0  0
 31 40  1  0  0  0
 32 33  1  0  0  0
 32 36  2  0  0  0
 32 37  2  0  0  0
 33 38  1  0  0  0
 33 67  1  0  0  0
 33 68  1  0  0  0
 34 35  1  0  0  0
 34 69  1  0  0  0
 34 70  1  0  0  0
 35 71  1  0  0  0
 35 72  1  0  0  0
 35 73  1  0  0  0
 38 74  1  0  0  0
 38 75  1  0  0  0
 39 76  1  0  0  0
 40 77  1  0  0  0
 40 78  1  0  0  0
 40 79  1  0  0  0
M  CHG  1  20   1
M  END
> <s_m_source_file>
../2wf4_ligand.sdf

> <i_m_source_file_index>
1

> <s_epik_input>
W0NIM11OMVMoPU8pKD1PKVtDSDJdW0NIMl1jMltjSF1uKFtDSDJdW0NIM10pYyhjMmMxMylbY0hdYyhbY0hdMylDKD1PKVtOSF1bQ0BASF0oW0NIMl1jNFtjSF1bY0hdW2NIXVtjSF1bY0hdNClDKFtPSF0pKFtPSF0pW0NIMl1bTkgyK11bQ0hdNVtDSDJdW0NIMl1PW0NIMl1bQ0gyXTU=

> <s_epik_cmdline>
J2VwaWtfYXBwJywgJy1pbWFlJywgJ2xpZ2FuZF9wcm8ubWFlJywgJy1vbWFlJywgJ2xpZ2FuZF9wcmVwLm1hZScsICctbXMnLCAnMScsICctcGgnLCAnNycsICctcGh0JywgJzAuNScsICctbnQn

> <r_epik_Ionization_Penalty>
  0.0463

> <r_epik_Ionization_Penalty_Charging>
  0.0463

> <r_epik_Ionization_Penalty_Neutral>
  0.0000

> <r_epik_State_Penalty>
  0.0394

> <r_epik_Charging_Adjusted_Penalty>
0.0856721999136212

> <i_epik_Tot_Q>
1

> <i_epik_Tot_abs_Q>
1

$$$$
