2wf5_ligand
                    3D
 Schrodinger Suite 2020-3.
 27 27  0  0  1  0            999 V2000
   12.6590   -5.7030   12.5910 C   0  0  2  0  0  0
   11.5390   -6.5360   12.0530 C   0  0  1  0  0  0
   12.8670   -4.5760   11.7340 O   0  0  0  0  0  0
   13.8610   -6.4490   12.5540 O   0  0  0  0  0  0
   11.4000   -7.8880   12.7620 C   0  0  2  0  0  0
   10.3180   -5.8300   12.1620 O   0  0  0  0  0  0
   12.7800   -8.5850   12.7700 C   0  0  1  0  0  0
   10.4130   -8.6660   12.1240 O   0  0  0  0  0  0
   13.8330   -7.6290   13.3250 C   0  0  1  0  0  0
   12.7230   -9.7570   13.5800 O   0  0  0  0  0  0
   15.2530   -8.2710   13.3620 C   0  0  0  0  0  0
   15.6480   -8.4260   12.0380 O   0  0  0  0  0  0
   16.9780   -9.2600   11.6540 P   0  0  0  0  0  0
   17.1640   -8.8820   10.1920 O   0  5  0  0  0  0
   18.0740   -8.7340   12.5330 O   0  5  0  0  0  0
   16.7130  -10.7150   11.8900 O   0  0  0  0  0  0
   12.4504   -5.3779   13.6210 H   0  0  0  0  0  0
   11.7290   -6.6840   10.9797 H   0  0  0  0  0  0
   12.0653   -3.8358   11.5944 H   0  0  0  0  0  0
   10.9953   -7.7944   13.7806 H   0  0  0  0  0  0
   10.2185   -4.8308   11.7129 H   0  0  0  0  0  0
   13.0635   -8.9401   11.7682 H   0  0  0  0  0  0
    9.3820   -8.2905   12.0461 H   0  0  0  0  0  0
   13.5252   -7.3032   14.3295 H   0  0  0  0  0  0
   12.0170  -10.5633   13.3319 H   0  0  0  0  0  0
   15.9420   -7.6061   13.9035 H   0  0  0  0  0  0
   15.2027   -9.2430   13.8746 H   0  0  0  0  0  0
  1  2  1  0  0  0
  1  3  1  0  0  0
  1  4  1  0  0  0
  1 17  1  0  0  0
  2  5  1  0  0  0
  2  6  1  0  0  0
  2 18  1  0  0  0
  3 19  1  0  0  0
  4  9  1  0  0  0
  5  7  1  0  0  0
  5  8  1  0  0  0
  5 20  1  0  0  0
  6 21  1  0  0  0
  7  9  1  0  0  0
  7 10  1  0  0  0
  7 22  1  0  0  0
  8 23  1  0  0  0
  9 11  1  0  0  0
  9 24  1  0  0  0
 10 25  1  0  0  0
 11 12  1  0  0  0
 11 26  1  0  0  0
 11 27  1  0  0  0
 12 13  1  0  0  0
 13 14  1  0  0  0
 13 15  1  0  0  0
 13 16  2  0  0  0
M  CHG  2  14  -1  15  -1
M  END
> <s_m_source_file>
../2wf5_ligand.sdf

> <i_m_source_file_index>
1

> <s_epik_input>
W09IXVtDQEhdMVtDQEhdKFtPSF0pW0NAQEhdKFtPSF0pW0NASF0oW09IXSlbQ0BIXShPMSlbQ0gyXU9QKD1PKShbT0hdKVtPSF0=

> <s_epik_cmdline>
J2VwaWtfYXBwJywgJy1pbWFlJywgJ2xpZ2FuZF9wcm8ubWFlJywgJy1vbWFlJywgJ2xpZ2FuZF9wcmVwLm1hZScsICctbXMnLCAnMScsICctcGgnLCAnNycsICctcGh0JywgJzAuNScsICctbnQn

> <r_epik_Ionization_Penalty>
  0.1046

> <r_epik_Ionization_Penalty_Charging>
  0.1046

> <r_epik_Ionization_Penalty_Neutral>
  0.0000

> <r_epik_State_Penalty>
  0.0945

> <r_epik_Charging_Adjusted_Penalty>
0.19918344064553

> <i_epik_Tot_Q>
-2

> <i_epik_Tot_abs_Q>
2

> <s_epik_Chemistry_Notes>
This compound contains an acetal/aminal-like group ( X-CH(R)-Y where X, Y are N, S, or O) that may be acid/base labile, releasing an aldehyde.

$$$$
