2wfg_ligand
                    3D
 Schrodinger Suite 2020-3.
 56 61  0  0  1  0            999 V2000
   16.5290    0.3930   10.0710 C   0  0  0  0  0  0
   17.3600   -0.6000    9.7110 C   0  0  0  0  0  0
   17.6880   -1.1150    8.4580 C   0  0  0  0  0  0
   17.9580   -1.1370   10.8470 C   0  0  0  0  0  0
   18.6050   -2.1580    8.3420 C   0  0  0  0  0  0
   18.8740   -2.1870   10.7510 C   0  0  0  0  0  0
   19.2040   -2.7010    9.4910 C   0  0  0  0  0  0
   21.2340   -2.2680   17.6250 P   0  0  0  0  0  0
   21.1570   -3.7520   18.2580 O   0  0  0  0  0  0
   22.3950   -2.3180   16.4720 O   0  5  0  0  0  0
   21.4450   -1.1850   18.6260 O   0  5  0  0  0  0
   15.9490   -1.1840   16.4910 N   0  0  0  0  0  0
   15.8480    0.0170   17.0550 C   0  0  0  0  0  0
   15.1670   -0.0840   18.1880 N   0  0  0  0  0  0
   14.8480   -1.3640   18.3530 C   0  0  0  0  0  0
   14.1500   -2.0420   19.3430 C   0  0  0  0  0  0
   13.6500   -1.3800   20.3920 N   0  0  0  0  0  0
   13.9850   -3.3640   19.2240 N   0  0  0  0  0  0
   14.4840   -4.0210   18.1850 C   0  0  0  0  0  0
   15.1590   -3.4010   17.2230 N   0  0  0  0  0  0
   15.3560   -2.0750   17.2770 C   0  0  0  0  0  0
   19.8740   -2.0450   16.8070 O   0  0  0  0  0  0
   19.6730   -0.8740   15.9850 C   0  0  0  0  0  0
   18.7800   -1.2800   14.8180 C   0  0  1  0  0  0
   17.7340   -2.2360   15.2590 O   0  0  0  0  0  0
   18.0240   -0.0760   14.2320 C   0  0  1  0  0  0
   18.4050    0.1880   12.8890 O   0  0  0  0  0  0
   16.5850   -0.5660   14.1260 C   0  0  1  0  0  0
   16.5960   -1.2490   12.8750 O   0  0  0  0  0  0
   16.6090   -1.4530   15.3570 C   0  0  2  0  0  0
   18.8950   -2.6410    7.1060 F   0  0  0  0  0  0
   16.5100    0.5970   11.4270 O   0  0  0  0  0  0
   17.3710   -0.3700   12.0360 B   0  5  0  0  0  0
   21.8910   -5.2430    9.8930 C   0  0  0  0  0  0
   20.7440   -4.3900   10.4740 C   0  0  0  0  0  0
   20.0760   -3.7120    9.3460 N   0  0  0  0  0  0
   16.8487    1.3303    9.5922 H   0  0  0  0  0  0
   15.5053    0.1485    9.7512 H   0  0  0  0  0  0
   17.2270   -0.7017    7.5682 H   0  0  0  0  0  0
   19.3260   -2.6009   11.6451 H   0  0  0  0  0  0
   16.2606    0.9394   16.6490 H   0  0  0  0  0  0
   13.7941   -0.2927   20.4757 H   0  0  0  0  0  0
   13.0947   -1.9228   21.1711 H   0  0  0  0  0  0
   14.3370   -5.0930   18.1191 H   0  0  0  0  0  0
   19.1906   -0.0857   16.5816 H   0  0  0  0  0  0
   20.6448   -0.5128   15.6174 H   0  0  0  0  0  0
   19.4395   -1.7545   14.0765 H   0  0  0  0  0  0
   18.2197    0.8508   14.7913 H   0  0  0  0  0  0
   15.6987    0.0834   14.0743 H   0  0  0  0  0  0
   15.8133   -2.1260   15.7089 H   0  0  0  0  0  0
   22.4113   -5.7635   10.7106 H   0  0  0  0  0  0
   22.6009   -4.5908    9.3631 H   0  0  0  0  0  0
   21.4785   -5.9828    9.1911 H   0  0  0  0  0  0
   20.0341   -5.0422   11.0039 H   0  0  0  0  0  0
   21.1564   -3.6502   11.1759 H   0  0  0  0  0  0
   20.2827   -4.0293    8.3132 H   0  0  0  0  0  0
  1  2  1  0  0  0
  1 32  1  0  0  0
  1 37  1  0  0  0
  1 38  1  0  0  0
  2  3  2  0  0  0
  2  4  1  0  0  0
  3  5  1  0  0  0
  3 39  1  0  0  0
  4  6  2  0  0  0
  4 33  1  0  0  0
  5  7  2  0  0  0
  5 31  1  0  0  0
  6  7  1  0  0  0
  6 40  1  0  0  0
  7 36  1  0  0  0
  8  9  2  0  0  0
  8 10  1  0  0  0
  8 11  1  0  0  0
  8 22  1  0  0  0
 12 13  1  0  0  0
 12 21  1  0  0  0
 12 30  1  0  0  0
 13 14  2  0  0  0
 13 41  1  0  0  0
 14 15  1  0  0  0
 15 16  1  0  0  0
 15 21  2  0  0  0
 16 17  1  0  0  0
 16 18  2  0  0  0
 17 42  1  0  0  0
 17 43  1  0  0  0
 18 19  1  0  0  0
 19 20  2  0  0  0
 19 44  1  0  0  0
 20 21  1  0  0  0
 22 23  1  0  0  0
 23 24  1  0  0  0
 23 45  1  0  0  0
 23 46  1  0  0  0
 24 25  1  0  0  0
 24 26  1  0  0  0
 24 47  1  0  0  0
 25 30  1  0  0  0
 26 27  1  0  0  0
 26 28  1  0  0  0
 26 48  1  0  0  0
 27 33  1  0  0  0
 28 29  1  0  0  0
 28 30  1  0  0  0
 28 49  1  0  0  0
 29 33  1  0  0  0
 30 50  1  0  0  0
 32 33  1  0  0  0
 34 35  1  0  0  0
 34 51  1  0  0  0
 34 52  1  0  0  0
 34 53  1  0  0  0
 35 36  1  0  0  0
 35 54  1  0  0  0
 35 55  1  0  0  0
 36 56  1  0  0  0
M  CHG  3  10  -1  11  -1  33  -1
M  END
> <s_m_source_file>
../2wfg_ligand.sdf

> <i_m_source_file_index>
1

> <s_epik_input>
W0NIM11bQ0gyXVtOSF1jKFtjSF0xKWMoRilbY0hdYyhbQ0gyXU8yKWMxW0ItXTIzT1tDQEhdNFtDQEBIXShPMylbQ0BASF0oT1tDQEBIXTRbQ0gyXU9QKD1PKShbTy1dKVtPLV0pbihbY0hdbjUpYyhjNTYpbltjSF1uYzZbTkgyXQ==

> <s_epik_cmdline>
J2VwaWtfYXBwJywgJy1pbWFlJywgJ2xpZ2FuZF9wcm8ubWFlJywgJy1vbWFlJywgJ2xpZ2FuZF9wcmVwLm1hZScsICctbXMnLCAnMScsICctcGgnLCAnNycsICctcGh0JywgJzAuNScsICctbnQn

> <r_lp_tautomer_probability>
0.999997216410988

> <r_epik_Ionization_Penalty>
  0.0985

> <r_epik_Ionization_Penalty_Charging>
  0.0959

> <r_epik_Ionization_Penalty_Neutral>
  0.0026

> <r_epik_State_Penalty>
  0.0861

> <r_epik_Charging_Adjusted_Penalty>
0.181965044896721

> <i_epik_Tot_Q>
-3

> <i_epik_Tot_abs_Q>
3

> <s_epik_Chemistry_Notes>
This compound contains an acetal/aminal-like group ( X-CH(R)-Y where X, Y are N, S, or O) that may be acid/base labile, releasing an aldehyde.

$$$$
