2wfj_ligand
                    3D
 Schrodinger Suite 2020-3.
196196  0  0  1  0            999 V2000
   16.2880   62.2700    8.0440 N   0  0  0  0  0  0
   15.4190   63.0890    8.9250 C   0  0  0  0  0  0
   16.9650   62.9080    6.9150 C   0  0  2  0  0  0
   18.0560   63.8450    7.4080 C   0  0  0  0  0  0
   18.2410   64.1140    8.5930 O   0  0  0  0  0  0
   16.0230   63.5980    5.9040 C   0  0  2  0  0  0
   15.5720   64.8130    6.5120 O   0  0  0  0  0  0
   14.8710   62.7040    5.4520 C   0  0  2  0  0  0
   15.3950   61.3910    4.8400 C   0  0  0  0  0  0
   13.9570   63.4180    4.4190 C   0  0  0  0  0  0
   14.6610   63.8330    3.1500 C   0  0  0  0  0  0
   14.6960   65.0770    2.6820 C   0  0  0  0  0  0
   15.3410   65.4720    1.3580 C   0  0  0  0  0  0
   18.8160   64.3080    6.3950 N   0  0  0  0  0  0
   20.0890   65.0530    6.6090 C   0  0  2  0  0  0
   19.9630   66.3860    5.8480 C   0  0  0  0  0  0
   20.4090   66.5080    4.7370 O   0  0  0  0  0  0
   21.2480   64.2240    6.0550 C   0  0  0  0  0  0
   21.3800   62.8840    6.8120 C   0  0  0  0  0  0
   19.3000   67.3950    6.4450 N   0  0  0  0  0  0
   19.2200   68.6640    5.7140 C   0  0  0  0  0  0
   17.7720   69.2110    5.8010 C   0  0  0  0  0  0
   17.6080   70.2970    6.3340 O   0  0  0  0  0  0
   18.7120   67.3430    7.7770 C   0  0  0  0  0  0
   16.7890   68.5580    5.2020 N   0  0  0  0  0  0
   17.0640   67.3530    4.4440 C   0  0  0  0  0  0
   15.4150   69.0250    5.3270 C   0  0  1  0  0  0
   14.6920   69.2560    3.9900 C   0  0  0  0  0  0
   13.5170   70.2250    4.1620 C   0  0  0  0  0  0
   12.4100   70.1680    5.1540 C   0  0  0  0  0  0
   14.1080   71.6450    4.2650 C   0  0  0  0  0  0
   14.6280   67.9640    6.1040 C   0  0  0  0  0  0
   14.1600   66.9520    5.5310 O   0  0  0  0  0  0
   14.5170   68.1180    7.4050 N   0  0  0  0  0  0
   13.8010   67.1590    8.2500 C   0  0  2  0  0  0
   12.2900   67.3370    7.9860 C   0  0  0  0  0  0
   11.7980   68.4450    8.0290 O   0  0  0  0  0  0
   14.1260   67.3570    9.7150 C   0  0  0  0  0  0
   13.3290   66.4180   10.5820 C   0  0  0  0  0  0
   15.6710   67.2160    9.9380 C   0  0  0  0  0  0
   11.5630   66.2390    7.7640 N   0  0  0  0  0  0
   12.1170   64.8840    7.7510 C   0  0  0  0  0  0
   10.1390   66.3660    7.4800 C   0  0  1  0  0  0
    9.7580   65.6920    6.1480 C   0  0  0  0  0  0
   10.6270   66.0870    4.9750 C   0  0  0  0  0  0
   10.4060   65.2400    3.7420 C   0  0  0  0  0  0
   10.4980   67.5640    4.6500 C   0  0  0  0  0  0
    9.3490   65.8190    8.6440 C   0  0  0  0  0  0
    9.8130   65.2750    9.6210 O   0  0  0  0  0  0
    7.9900   65.9400    8.5320 N   0  0  0  0  0  0
    7.0630   65.4820    9.5430 C   0  0  2  0  0  0
    7.0340   63.9830    9.7480 C   0  0  0  0  0  0
    7.4100   63.2460    8.8450 O   0  0  0  0  0  0
    5.6140   65.9120    9.1850 C   0  0  0  0  0  0
    6.5250   63.5500   10.9030 N   0  0  0  0  0  0
    6.3120   62.1570   11.1520 C   0  0  2  0  0  0
    5.2840   61.9690   12.2820 C   0  0  0  0  0  0
    7.6000   61.4820   11.6000 C   0  0  0  0  0  0
    8.2020   61.9150   12.5750 O   0  0  0  0  0  0
    8.0460   60.3960   10.9160 N   0  0  0  0  0  0
    7.4270   59.9650    9.6430 C   0  0  0  0  0  0
    9.1220   59.5760   11.4900 C   0  0  1  0  0  0
    8.5870   58.2260   11.9460 C   0  0  0  0  0  0
    7.4950   58.2920   13.0370 C   0  0  0  0  0  0
    6.8910   56.8760   13.1710 C   0  0  0  0  0  0
    8.0760   58.7970   14.3440 C   0  0  0  0  0  0
   10.2350   59.3650   10.4490 C   0  0  0  0  0  0
   10.5000   58.2280   10.0730 O   0  0  0  0  0  0
   10.9300   60.4390   10.0280 N   0  0  0  0  0  0
   10.6330   61.8150   10.4030 C   0  0  0  0  0  0
   11.9890   60.1970    9.0290 C   0  0  1  0  0  0
   11.8130   61.0450    7.7650 C   0  0  0  0  0  0
   10.5130   60.7230    7.0040 C   0  0  0  0  0  0
   10.5200   61.5660    5.6870 C   0  0  0  0  0  0
   10.3380   59.2520    6.6380 C   0  0  0  0  0  0
   13.3790   60.4350    9.6680 C   0  0  0  0  0  0
   13.4880   61.0330   10.7210 O   0  0  0  0  0  0
   14.4400   59.9900    8.9760 N   0  0  0  0  0  0
   14.4000   59.0710    7.8200 C   0  0  0  0  0  0
   15.8000   60.3020    9.4560 C   0  0  1  0  0  0
   16.5720   59.0820    9.9960 C   0  0  0  0  0  0
   17.7810   59.6260   10.7410 C   0  0  0  0  0  0
   15.6880   58.2360   10.9040 C   0  0  0  0  0  0
   16.5730   60.9790    8.2890 C   0  0  0  0  0  0
   17.4010   60.3370    7.6370 O   0  0  0  0  0  0
   15.3376   64.1069    8.5160 H   0  0  0  0  0  0
   15.8565   63.1329    9.9333 H   0  0  0  0  0  0
   14.4188   62.6343    8.9787 H   0  0  0  0  0  0
   17.4199   62.0560    6.3886 H   0  0  0  0  0  0
   16.5457   63.8898    4.9812 H   0  0  0  0  0  0
   16.3028   65.5469    6.8824 H   0  0  0  0  0  0
   14.2913   62.4796    6.3595 H   0  0  0  0  0  0
   16.0433   60.8805    5.5674 H   0  0  0  0  0  0
   15.9705   61.6148    3.9296 H   0  0  0  0  0  0
   14.5454   60.7401    4.5860 H   0  0  0  0  0  0
   13.1377   62.7445    4.1272 H   0  0  0  0  0  0
   13.5389   64.3308    4.8685 H   0  0  0  0  0  0
   15.1681   63.0249    2.6024 H   0  0  0  0  0  0
   14.2413   65.8951    3.2600 H   0  0  0  0  0  0
   15.2332   66.5562    1.2067 H   0  0  0  0  0  0
   14.8462   64.9358    0.5348 H   0  0  0  0  0  0
   16.4089   65.2089    1.3775 H   0  0  0  0  0  0
   18.4576   64.1136    5.3734 H   0  0  0  0  0  0
   20.2575   65.2222    7.6828 H   0  0  0  0  0  0
   21.0711   64.0121    4.9902 H   0  0  0  0  0  0
   22.1869   64.7863    6.1659 H   0  0  0  0  0  0
   22.2193   62.3083    6.3947 H   0  0  0  0  0  0
   20.4495   62.3077    6.7023 H   0  0  0  0  0  0
   21.5652   63.0819    7.8781 H   0  0  0  0  0  0
   19.9163   69.3890    6.1607 H   0  0  0  0  0  0
   19.4896   68.4980    4.6605 H   0  0  0  0  0  0
   18.8475   66.3360    8.1985 H   0  0  0  0  0  0
   17.6381   67.5723    7.7129 H   0  0  0  0  0  0
   19.2065   68.0814    8.4252 H   0  0  0  0  0  0
   18.1453   67.1516    4.4552 H   0  0  0  0  0  0
   16.7269   67.4880    3.4057 H   0  0  0  0  0  0
   16.5284   66.5052    4.8961 H   0  0  0  0  0  0
   15.5166   69.9935    5.8385 H   0  0  0  0  0  0
   15.3969   69.6819    3.2608 H   0  0  0  0  0  0
   14.3068   68.2978    3.6111 H   0  0  0  0  0  0
   12.9132   69.8640    3.3163 H   0  0  0  0  0  0
   11.9451   69.1714    5.1278 H   0  0  0  0  0  0
   11.6567   70.9306    4.9070 H   0  0  0  0  0  0
   12.8096   70.3598    6.1607 H   0  0  0  0  0  0
   14.9374   71.7497    3.5500 H   0  0  0  0  0  0
   14.4806   71.8139    5.2861 H   0  0  0  0  0  0
   13.3277   72.3846    4.0324 H   0  0  0  0  0  0
   14.9856   69.0053    7.8556 H   0  0  0  0  0  0
   14.1553   66.1528    7.9817 H   0  0  0  0  0  0
   13.7930   68.3630   10.0102 H   0  0  0  0  0  0
   12.2560   66.5590   10.3853 H   0  0  0  0  0  0
   13.5386   66.6297   11.6409 H   0  0  0  0  0  0
   13.6104   65.3796   10.3530 H   0  0  0  0  0  0
   16.2020   67.9219    9.2824 H   0  0  0  0  0  0
   15.9835   66.1885    9.7001 H   0  0  0  0  0  0
   15.9117   67.4386   10.9880 H   0  0  0  0  0  0
   13.1924   64.9254    7.9785 H   0  0  0  0  0  0
   11.9694   64.4371    6.7568 H   0  0  0  0  0  0
   11.6054   64.2714    8.5080 H   0  0  0  0  0  0
    9.9368   67.4433    7.3873 H   0  0  0  0  0  0
    9.8393   64.6001    6.2532 H   0  0  0  0  0  0
    8.7239   65.9590    5.8845 H   0  0  0  0  0  0
   11.6586   65.8881    5.3008 H   0  0  0  0  0  0
   10.5049   64.1765    4.0052 H   0  0  0  0  0  0
   11.1548   65.5002    2.9794 H   0  0  0  0  0  0
    9.3975   65.4271    3.3446 H   0  0  0  0  0  0
   10.6630   68.1559    5.5624 H   0  0  0  0  0  0
    9.4901   67.7666    4.2587 H   0  0  0  0  0  0
   11.2474   67.8398    3.8935 H   0  0  0  0  0  0
    7.6126   66.4144    7.6141 H   0  0  0  0  0  0
    7.4882   65.9535   10.4413 H   0  0  0  0  0  0
    5.5832   66.9999    9.0256 H   0  0  0  0  0  0
    4.9374   65.6429   10.0095 H   0  0  0  0  0  0
    5.2953   65.3976    8.2664 H   0  0  0  0  0  0
    6.2675   64.2920   11.6731 H   0  0  0  0  0  0
    5.9667   61.7701   10.1819 H   0  0  0  0  0  0
    4.3342   62.4448   11.9965 H   0  0  0  0  0  0
    5.6639   62.4329   13.2042 H   0  0  0  0  0  0
    5.1192   60.8949   12.4528 H   0  0  0  0  0  0
    6.6454   60.6830    9.3538 H   0  0  0  0  0  0
    6.9799   58.9683    9.7717 H   0  0  0  0  0  0
    8.1956   59.9234    8.8572 H   0  0  0  0  0  0
    9.4964   60.1331   12.3614 H   0  0  0  0  0  0
    8.1443   57.6983   11.0883 H   0  0  0  0  0  0
    9.4107   57.6261   12.3602 H   0  0  0  0  0  0
    6.7058   59.0133   12.7786 H   0  0  0  0  0  0
    6.4848   56.5572   12.1997 H   0  0  0  0  0  0
    6.0844   56.8907   13.9188 H   0  0  0  0  0  0
    7.6739   56.1721   13.4899 H   0  0  0  0  0  0
    8.4915   59.8046   14.1955 H   0  0  0  0  0  0
    8.8737   58.1170   14.6777 H   0  0  0  0  0  0
    7.2842   58.8356   15.1066 H   0  0  0  0  0  0
    9.8266   61.8252   11.1511 H   0  0  0  0  0  0
   10.3144   62.3770    9.5127 H   0  0  0  0  0  0
   11.5337   62.2817   10.8283 H   0  0  0  0  0  0
   11.8662   59.1448    8.7327 H   0  0  0  0  0  0
   11.7861   62.1100    8.0388 H   0  0  0  0  0  0
   12.6554   60.8634    7.0813 H   0  0  0  0  0  0
    9.6782   60.9487    7.6839 H   0  0  0  0  0  0
   10.6455   62.6306    5.9338 H   0  0  0  0  0  0
    9.5680   61.4227    5.1549 H   0  0  0  0  0  0
   11.3514   61.2377    5.0459 H   0  0  0  0  0  0
   10.3310   58.6444    7.5549 H   0  0  0  0  0  0
   11.1701   58.9331    5.9931 H   0  0  0  0  0  0
    9.3867   59.1182    6.1021 H   0  0  0  0  0  0
   13.3542   58.8933    7.5289 H   0  0  0  0  0  0
   14.8716   58.1159    8.0944 H   0  0  0  0  0  0
   14.9444   59.5196    6.9760 H   0  0  0  0  0  0
   15.6558   60.9686   10.3191 H   0  0  0  0  0  0
   16.8975   58.4134    9.1854 H   0  0  0  0  0  0
   18.3933   60.2296   10.0549 H   0  0  0  0  0  0
   18.3807   58.7888   11.1276 H   0  0  0  0  0  0
   17.4434   60.2531   11.5794 H   0  0  0  0  0  0
   14.8267   57.8613   10.3316 H   0  0  0  0  0  0
   15.3310   58.8501   11.7439 H   0  0  0  0  0  0
   16.2682   57.3859   11.2921 H   0  0  0  0  0  0
  1  2  1  0  0  0
  1  3  1  0  0  0
  1 84  1  0  0  0
  2 86  1  0  0  0
  2 87  1  0  0  0
  2 88  1  0  0  0
  3  4  1  0  0  0
  3  6  1  0  0  0
  3 89  1  0  0  0
  4  5  2  0  0  0
  4 14  1  0  0  0
  6  7  1  0  0  0
  6  8  1  0  0  0
  6 90  1  0  0  0
  7 91  1  0  0  0
  8  9  1  0  0  0
  8 10  1  0  0  0
  8 92  1  0  0  0
  9 93  1  0  0  0
  9 94  1  0  0  0
  9 95  1  0  0  0
 10 11  1  0  0  0
 10 96  1  0  0  0
 10 97  1  0  0  0
 11 12  2  0  0  0
 11 98  1  0  0  0
 12 13  1  0  0  0
 12 99  1  0  0  0
 13100  1  0  0  0
 13101  1  0  0  0
 13102  1  0  0  0
 14 15  1  0  0  0
 14103  1  0  0  0
 15 16  1  0  0  0
 15 18  1  0  0  0
 15104  1  0  0  0
 16 17  2  0  0  0
 16 20  1  0  0  0
 18 19  1  0  0  0
 18105  1  0  0  0
 18106  1  0  0  0
 19107  1  0  0  0
 19108  1  0  0  0
 19109  1  0  0  0
 20 21  1  0  0  0
 20 24  1  0  0  0
 21 22  1  0  0  0
 21110  1  0  0  0
 21111  1  0  0  0
 22 23  2  0  0  0
 22 25  1  0  0  0
 24112  1  0  0  0
 24113  1  0  0  0
 24114  1  0  0  0
 25 26  1  0  0  0
 25 27  1  0  0  0
 26115  1  0  0  0
 26116  1  0  0  0
 26117  1  0  0  0
 27 28  1  0  0  0
 27 32  1  0  0  0
 27118  1  0  0  0
 28 29  1  0  0  0
 28119  1  0  0  0
 28120  1  0  0  0
 29 30  1  0  0  0
 29 31  1  0  0  0
 29121  1  0  0  0
 30122  1  0  0  0
 30123  1  0  0  0
 30124  1  0  0  0
 31125  1  0  0  0
 31126  1  0  0  0
 31127  1  0  0  0
 32 33  2  0  0  0
 32 34  1  0  0  0
 34 35  1  0  0  0
 34128  1  0  0  0
 35 36  1  0  0  0
 35 38  1  0  0  0
 35129  1  0  0  0
 36 37  2  0  0  0
 36 41  1  0  0  0
 38 39  1  0  0  0
 38 40  1  0  0  0
 38130  1  0  0  0
 39131  1  0  0  0
 39132  1  0  0  0
 39133  1  0  0  0
 40134  1  0  0  0
 40135  1  0  0  0
 40136  1  0  0  0
 41 42  1  0  0  0
 41 43  1  0  0  0
 42137  1  0  0  0
 42138  1  0  0  0
 42139  1  0  0  0
 43 44  1  0  0  0
 43 48  1  0  0  0
 43140  1  0  0  0
 44 45  1  0  0  0
 44141  1  0  0  0
 44142  1  0  0  0
 45 46  1  0  0  0
 45 47  1  0  0  0
 45143  1  0  0  0
 46144  1  0  0  0
 46145  1  0  0  0
 46146  1  0  0  0
 47147  1  0  0  0
 47148  1  0  0  0
 47149  1  0  0  0
 48 49  2  0  0  0
 48 50  1  0  0  0
 50 51  1  0  0  0
 50150  1  0  0  0
 51 52  1  0  0  0
 51 54  1  0  0  0
 51151  1  0  0  0
 52 53  2  0  0  0
 52 55  1  0  0  0
 54152  1  0  0  0
 54153  1  0  0  0
 54154  1  0  0  0
 55 56  1  0  0  0
 55155  1  0  0  0
 56 57  1  0  0  0
 56 58  1  0  0  0
 56156  1  0  0  0
 57157  1  0  0  0
 57158  1  0  0  0
 57159  1  0  0  0
 58 59  2  0  0  0
 58 60  1  0  0  0
 60 61  1  0  0  0
 60 62  1  0  0  0
 61160  1  0  0  0
 61161  1  0  0  0
 61162  1  0  0  0
 62 63  1  0  0  0
 62 67  1  0  0  0
 62163  1  0  0  0
 63 64  1  0  0  0
 63164  1  0  0  0
 63165  1  0  0  0
 64 65  1  0  0  0
 64 66  1  0  0  0
 64166  1  0  0  0
 65167  1  0  0  0
 65168  1  0  0  0
 65169  1  0  0  0
 66170  1  0  0  0
 66171  1  0  0  0
 66172  1  0  0  0
 67 68  2  0  0  0
 67 69  1  0  0  0
 69 70  1  0  0  0
 69 71  1  0  0  0
 70173  1  0  0  0
 70174  1  0  0  0
 70175  1  0  0  0
 71 72  1  0  0  0
 71 76  1  0  0  0
 71176  1  0  0  0
 72 73  1  0  0  0
 72177  1  0  0  0
 72178  1  0  0  0
 73 74  1  0  0  0
 73 75  1  0  0  0
 73179  1  0  0  0
 74180  1  0  0  0
 74181  1  0  0  0
 74182  1  0  0  0
 75183  1  0  0  0
 75184  1  0  0  0
 75185  1  0  0  0
 76 77  2  0  0  0
 76 78  1  0  0  0
 78 79  1  0  0  0
 78 80  1  0  0  0
 79186  1  0  0  0
 79187  1  0  0  0
 79188  1  0  0  0
 80 81  1  0  0  0
 80 84  1  0  0  0
 80189  1  0  0  0
 81 82  1  0  0  0
 81 83  1  0  0  0
 81190  1  0  0  0
 82191  1  0  0  0
 82192  1  0  0  0
 82193  1  0  0  0
 83194  1  0  0  0
 83195  1  0  0  0
 83196  1  0  0  0
 84 85  2  0  0  0
M  END
> <s_m_source_file>
../2wfj_ligand.sdf

> <i_m_source_file_index>
1

> <s_epik_input>
W0NIM11cW0NIXT1bQ0hdXFtDSDJdW0NAQEhdKFtDSDNdKVtDQEBIXShbT0hdKVtDQEhdKE4xW0NIM10pQyg9TylbTkhdW0NAQEhdKFtDSDJdW0NIM10pQyg9TylOKFtDSDNdKVtDSDJdQyg9TylOKFtDSDNdKVtDQEBIXShbQ0gyXVtDSF0oW0NIM10pW0NIM10pQyg9TylbTkhdW0NAQEhdKFtDSF0oW0NIM10pW0NIM10pQyg9TylOKFtDSDNdKVtDQEBIXShbQ0gyXVtDSF0oW0NIM10pW0NIM10pQyg9TylbTkhdW0NAQEhdKFtDSDNdKUMoPU8pW05IXVtDQEhdKFtDSDNdKUMoPU8pTihbQ0gzXSlbQ0BASF0oW0NIMl1bQ0hdKFtDSDNdKVtDSDNdKUMoPU8pTihbQ0gzXSlbQ0BASF0oW0NIMl1bQ0hdKFtDSDNdKVtDSDNdKUMoPU8pTihbQ0gzXSlbQ0BIXShDMT1PKVtDSF0oW0NIM10pW0NIM10=

> <s_epik_cmdline>
J2VwaWtfYXBwJywgJy1pbWFlJywgJ2xpZ2FuZF9wcm8ubWFlJywgJy1vbWFlJywgJ2xpZ2FuZF9wcmVwLm1hZScsICctbXMnLCAnMScsICctcGgnLCAnNycsICctcGh0JywgJzAuNScsICctbnQn

> <s_epik_pKa_notes>
Molecule size exceeds maximum supported for generating protonation states

$$$$
