2wgi_ligand
                    3D
 Schrodinger Suite 2020-3.
 44 45  0  0  1  0            999 V2000
   -0.5780  -12.4150   61.6870 O   0  0  0  0  0  0
    0.0270  -12.6080   60.5790 C   0  0  0  0  0  0
   -1.0130  -10.8380   58.9040 N   0  0  1  0  0  0
   -2.1510  -10.0590   59.3270 C   0  0  1  0  0  0
   -1.8360   -8.5900   59.4130 C   0  0  0  0  0  0
   -2.6710   -7.8400   59.9680 O   0  0  0  0  0  0
   -0.7450   -8.1840   58.9480 O   0  5  0  0  0  0
   -3.2830  -10.4560   58.3720 C   0  0  0  0  0  0
   -4.6540  -10.2490   59.0280 C   0  0  0  0  0  0
   -3.1930   -9.7000   57.0430 C   0  0  0  0  0  0
   -3.0390  -12.1990   58.0590 S   0  0  0  0  0  0
   -1.3230  -12.1980   58.5340 C   0  0  2  0  0  0
   -0.9990  -13.1590   59.7080 C   0  0  2  0  0  0
   -2.2400  -13.4990   60.4350 N   0  0  0  0  0  0
   -2.8580  -14.6800   60.3250 C   0  0  0  0  0  0
   -2.5880  -15.5050   59.4570 O   0  0  0  0  0  0
   -3.9610  -14.9700   61.3220 C   0  0  0  0  0  0
   -5.2640  -14.4050   60.7880 C   0  0  0  0  0  0
   -5.6680  -14.6660   59.4720 C   0  0  0  0  0  0
   -6.8640  -14.1300   58.9820 C   0  0  0  0  0  0
   -7.6640  -13.3360   59.8100 C   0  0  0  0  0  0
   -7.2650  -13.0710   61.1230 C   0  0  0  0  0  0
   -6.0670  -13.6060   61.6090 C   0  0  0  0  0  0
   -0.0329  -11.9958   62.5456 H   0  0  0  0  0  0
    0.4187  -11.6511   60.2036 H   0  0  0  0  0  0
    0.8598  -13.3098   60.7334 H   0  0  0  0  0  0
   -0.5510  -10.3648   58.0250 H   0  0  0  0  0  0
   -2.4100  -10.2954   60.3696 H   0  0  0  0  0  0
   -4.8092   -9.1776   59.2228 H   0  0  0  0  0  0
   -4.6939  -10.8038   59.9770 H   0  0  0  0  0  0
   -5.4420  -10.6172   58.3546 H   0  0  0  0  0  0
   -3.3416   -8.6249   57.2220 H   0  0  0  0  0  0
   -3.9708  -10.0687   56.3581 H   0  0  0  0  0  0
   -2.2020   -9.8635   56.5945 H   0  0  0  0  0  0
   -0.5660  -12.4765   57.7861 H   0  0  0  0  0  0
   -0.5624  -14.1084   59.3645 H   0  0  0  0  0  0
   -2.7022  -12.7624   61.1086 H   0  0  0  0  0  0
   -4.0547  -16.0574   61.4591 H   0  0  0  0  0  0
   -3.7175  -14.4986   62.2856 H   0  0  0  0  0  0
   -5.0481  -15.2891   58.8274 H   0  0  0  0  0  0
   -7.1719  -14.3311   57.9559 H   0  0  0  0  0  0
   -8.5992  -12.9236   59.4311 H   0  0  0  0  0  0
   -7.8860  -12.4486   61.7673 H   0  0  0  0  0  0
   -5.7575  -13.3990   62.6334 H   0  0  0  0  0  0
  1  2  1  0  0  0
  1 24  1  0  0  0
  2 13  1  0  0  0
  2 25  1  0  0  0
  2 26  1  0  0  0
  3  4  1  0  0  0
  3 12  1  0  0  0
  3 27  1  0  0  0
  4  5  1  0  0  0
  4  8  1  0  0  0
  4 28  1  0  0  0
  5  6  2  0  0  0
  5  7  1  0  0  0
  8  9  1  0  0  0
  8 10  1  0  0  0
  8 11  1  0  0  0
  9 29  1  0  0  0
  9 30  1  0  0  0
  9 31  1  0  0  0
 10 32  1  0  0  0
 10 33  1  0  0  0
 10 34  1  0  0  0
 11 12  1  0  0  0
 12 13  1  0  0  0
 12 35  1  0  0  0
 13 14  1  0  0  0
 13 36  1  0  0  0
 14 15  1  0  0  0
 14 37  1  0  0  0
 15 16  2  0  0  0
 15 17  1  0  0  0
 17 18  1  0  0  0
 17 38  1  0  0  0
 17 39  1  0  0  0
 18 19  2  0  0  0
 18 23  1  0  0  0
 19 20  1  0  0  0
 19 40  1  0  0  0
 20 21  2  0  0  0
 20 41  1  0  0  0
 21 22  1  0  0  0
 21 42  1  0  0  0
 22 23  2  0  0  0
 22 43  1  0  0  0
 23 44  1  0  0  0
M  CHG  1   7  -1
M  END
> <s_m_source_file>
../2wgi_ligand.sdf

> <i_m_source_file_index>
1

> <s_epik_input>
Tz1DKFtPSF0pW0NAQEhdKEMxKFtDSDNdKVtDSDNdKVtOSDIrXVtDQEhdKFMxKVtDQEBIXShbQ0gyXVtPSF0pW05IXUMoPU8pW0NIMl1jMltjSF1bY0hdW2NIXVtjSF1bY0hdMg==

> <s_epik_cmdline>
J2VwaWtfYXBwJywgJy1pbWFlJywgJ2xpZ2FuZF9wcm8ubWFlJywgJy1vbWFlJywgJ2xpZ2FuZF9wcmVwLm1hZScsICctbXMnLCAnMScsICctcGgnLCAnNycsICctcGh0JywgJzAuNScsICctbnQn

> <r_lp_tautomer_probability>
1

> <r_epik_Ionization_Penalty>
  0.0073

> <r_epik_Ionization_Penalty_Charging>
  0.0001

> <r_epik_Ionization_Penalty_Neutral>
  0.0072

> <r_epik_State_Penalty>
 -0.0000

> <r_epik_Charging_Adjusted_Penalty>
8.05410909956131e-05

> <i_epik_Tot_Q>
-1

> <i_epik_Tot_abs_Q>
1

> <s_epik_Chemistry_Notes>
This compound contains an acetal/aminal-like group ( X-CH(R)-Y where X, Y are N, S, or O) that may be acid/base labile, releasing an aldehyde.

$$$$
