2wgj_ligand
                    3D
 Schrodinger Suite 2020-3.
 53 56  0  0  1  0            999 V2000
   18.3190   84.5690    3.5460 Cl  0  0  0  0  0  0
   18.1880   83.5860    4.9680 C   0  0  0  0  0  0
   17.7190   82.2880    4.7140 C   0  0  0  0  0  0
   17.5350   81.3810    5.7410 C   0  0  0  0  0  0
   17.8350   81.7940    7.0210 C   0  0  0  0  0  0
   17.6610   80.9190    8.0020 F   0  0  0  0  0  0
   18.5060   84.0320    6.2790 C   0  0  0  0  0  0
   18.3160   83.0790    7.3080 C   0  0  0  0  0  0
   18.6180   83.3970    8.9860 Cl  0  0  0  0  0  0
   19.0330   85.4490    6.5390 C   0  0  1  0  0  0
   18.1170   86.2490    7.4610 C   0  0  0  0  0  0
   20.3420   85.4420    7.1510 O   0  0  0  0  0  0
   21.5270   85.1380    6.5080 C   0  0  0  0  0  0
   21.7440   84.7620    5.1640 C   0  0  0  0  0  0
   22.6660   85.2200    7.3240 C   0  0  0  0  0  0
   22.5410   85.5760    8.6720 N   0  0  0  0  0  0
   23.9230   84.9750    6.8780 N   0  0  0  0  0  0
   24.0840   84.6250    5.5840 C   0  0  0  0  0  0
   23.0440   84.5010    4.6710 C   0  0  0  0  0  0
   23.3350   84.0870    3.3020 C   0  0  0  0  0  0
   22.5200   83.6280    2.2370 C   0  0  0  0  0  0
   24.6060   84.0070    2.7650 C   0  0  0  0  0  0
   24.4970   83.5610    1.4840 N   0  0  0  0  0  0
   23.2130   83.3190    1.1370 N   0  0  0  0  0  0
   25.5950   83.3510    0.5360 C   0  0  0  0  0  0
   26.0300   81.8930    0.2920 C   0  0  0  0  0  0
   25.5280   81.2150   -0.9840 C   0  0  0  0  0  0
   25.5020   82.1510   -2.1590 N   0  3  0  0  0  0
   24.8400   83.4750   -1.9280 C   0  0  0  0  0  0
   25.5000   84.1910   -0.7510 C   0  0  0  0  0  0
   17.4960   81.9898    3.6896 H   0  0  0  0  0  0
   17.1655   80.3744    5.5451 H   0  0  0  0  0  0
   19.1364   85.9307    5.5555 H   0  0  0  0  0  0
   17.1041   86.2815    7.0334 H   0  0  0  0  0  0
   18.5045   87.2733    7.5641 H   0  0  0  0  0  0
   18.0823   85.7688    8.4500 H   0  0  0  0  0  0
   20.8909   84.6709    4.4917 H   0  0  0  0  0  0
   21.5479   85.7876    9.0952 H   0  0  0  0  0  0
   23.4358   85.6442    9.3081 H   0  0  0  0  0  0
   25.0965   84.4267    5.2324 H   0  0  0  0  0  0
   21.4362   83.5362    2.3082 H   0  0  0  0  0  0
   25.5343   84.2576    3.2783 H   0  0  0  0  0  0
   26.3970   83.7827    1.1528 H   0  0  0  0  0  0
   27.1275   81.8420    0.2380 H   0  0  0  0  0  0
   25.6738   81.2608    1.1187 H   0  0  0  0  0  0
   26.1889   80.3726   -1.2359 H   0  0  0  0  0  0
   24.5052   80.8433   -0.8237 H   0  0  0  0  0  0
   26.5324   82.3748   -2.4723 H   0  0  0  0  0  0
   24.9599   81.6792   -2.9917 H   0  0  0  0  0  0
   24.9379   84.0963   -2.8305 H   0  0  0  0  0  0
   23.7744   83.3182   -1.7047 H   0  0  0  0  0  0
   24.9074   85.0967   -0.5548 H   0  0  0  0  0  0
   26.5106   84.4777   -1.0772 H   0  0  0  0  0  0
  1  2  1  0  0  0
  2  3  2  0  0  0
  2  7  1  0  0  0
  3  4  1  0  0  0
  3 31  1  0  0  0
  4  5  2  0  0  0
  4 32  1  0  0  0
  5  6  1  0  0  0
  5  8  1  0  0  0
  7  8  2  0  0  0
  7 10  1  0  0  0
  8  9  1  0  0  0
 10 11  1  0  0  0
 10 12  1  0  0  0
 10 33  1  0  0  0
 11 34  1  0  0  0
 11 35  1  0  0  0
 11 36  1  0  0  0
 12 13  1  0  0  0
 13 14  2  0  0  0
 13 15  1  0  0  0
 14 19  1  0  0  0
 14 37  1  0  0  0
 15 16  1  0  0  0
 15 17  2  0  0  0
 16 38  1  0  0  0
 16 39  1  0  0  0
 17 18  1  0  0  0
 18 19  2  0  0  0
 18 40  1  0  0  0
 19 20  1  0  0  0
 20 21  1  0  0  0
 20 22  2  0  0  0
 21 24  2  0  0  0
 21 41  1  0  0  0
 22 23  1  0  0  0
 22 42  1  0  0  0
 23 24  1  0  0  0
 23 25  1  0  0  0
 25 26  1  0  0  0
 25 30  1  0  0  0
 25 43  1  0  0  0
 26 27  1  0  0  0
 26 44  1  0  0  0
 26 45  1  0  0  0
 27 28  1  0  0  0
 27 46  1  0  0  0
 27 47  1  0  0  0
 28 29  1  0  0  0
 28 48  1  0  0  0
 28 49  1  0  0  0
 29 30  1  0  0  0
 29 50  1  0  0  0
 29 51  1  0  0  0
 30 52  1  0  0  0
 30 53  1  0  0  0
M  CHG  1  28   1
M  END
> <s_m_source_file>
../2wgj_ligand.sdf

> <i_m_source_file_index>
1

> <s_epik_input>
Q2xjMVtjSF1bY0hdYyhGKWMoQ2wpYzFbQ0BASF0oW0NIM10pT2MyW2NIXWMoW2NIXW5jMltOSDJdKS1jM1tjSF1ubihbY0hdMylbQ0hdNFtDSDJdW0NIMl1bTkgyK11bQ0gyXVtDSDJdNA==

> <s_epik_cmdline>
J2VwaWtfYXBwJywgJy1pbWFlJywgJ2xpZ2FuZF9wcm8ubWFlJywgJy1vbWFlJywgJ2xpZ2FuZF9wcmVwLm1hZScsICctbXMnLCAnMScsICctcGgnLCAnNycsICctcGh0JywgJzAuNScsICctbnQn

> <r_lp_tautomer_probability>
0.999999404453161

> <r_epik_Ionization_Penalty>
  0.3436

> <r_epik_Ionization_Penalty_Charging>
  0.0019

> <r_epik_Ionization_Penalty_Neutral>
  0.3417

> <r_epik_State_Penalty>
  0.3362

> <r_epik_Charging_Adjusted_Penalty>
0.338089038862592

> <i_epik_Tot_Q>
1

> <i_epik_Tot_abs_Q>
1

$$$$
