2wgs_ligand
                    3D
 Schrodinger Suite 2020-3.
 47 50  0  0  1  0            999 V2000
  -35.0140  -39.2490  -25.3770 O   0  0  0  0  0  0
  -35.5790  -38.5740  -24.4770 C   0  0  0  0  0  0
  -36.8990  -38.7310  -24.2350 N   0  0  0  0  0  0
  -37.6990  -39.6800  -25.0310 C   0  0  0  0  0  0
  -37.7850  -41.0490  -24.4040 C   0  0  0  0  0  0
  -36.9830  -42.0680  -24.9020 C   0  0  0  0  0  0
  -37.0760  -43.3320  -24.3240 C   0  0  0  0  0  0
  -36.0650  -44.7010  -24.9190 Cl  0  0  0  0  0  0
  -38.6780  -41.2880  -23.3570 C   0  0  0  0  0  0
  -38.7720  -42.5540  -22.7770 C   0  0  0  0  0  0
  -37.9570  -43.5620  -23.2790 C   0  0  0  0  0  0
  -38.0120  -45.2100  -22.6010 Cl  0  0  0  0  0  0
  -34.8500  -37.6450  -23.7120 C   0  0  0  0  0  0
  -33.5480  -37.2640  -23.6970 N   0  0  0  0  0  0
  -32.4570  -37.7870  -24.5730 C   0  0  0  0  0  0
  -33.3990  -36.3240  -22.7510 C   0  0  0  0  0  0
  -34.5940  -36.1100  -22.1610 N   0  0  0  0  0  0
  -35.5180  -36.9090  -22.7260 C   0  0  0  0  0  0
  -36.8370  -37.0760  -22.4950 N   0  0  0  0  0  0
  -37.5390  -36.3140  -21.4590 C   0  0  0  0  0  0
  -37.5350  -37.9560  -23.2250 C   0  0  0  0  0  0
  -38.7560  -38.0950  -22.9990 O   0  0  0  0  0  0
  -32.1400  -35.6370  -22.3770 N   0  0  0  0  0  0
  -31.7050  -34.6850  -23.3950 C   0  0  0  0  0  0
  -30.2640  -34.3800  -22.9790 C   0  0  0  0  0  0
  -30.2340  -33.8070  -21.6540 O   0  0  0  0  0  0
  -30.8260  -34.6260  -20.6420 C   0  0  0  0  0  0
  -32.2480  -35.0000  -21.0630 C   0  0  0  0  0  0
  -38.7244  -39.2962  -25.1372 H   0  0  0  0  0  0
  -37.2461  -39.7964  -26.0267 H   0  0  0  0  0  0
  -36.2956  -41.8825  -25.7274 H   0  0  0  0  0  0
  -39.3077  -40.4778  -22.9893 H   0  0  0  0  0  0
  -39.4628  -42.7463  -21.9561 H   0  0  0  0  0  0
  -32.8662  -38.5484  -25.2533 H   0  0  0  0  0  0
  -31.6703  -38.2370  -23.9497 H   0  0  0  0  0  0
  -32.0311  -36.9607  -25.1611 H   0  0  0  0  0  0
  -36.8298  -35.6410  -20.9549 H   0  0  0  0  0  0
  -37.9720  -37.0079  -20.7235 H   0  0  0  0  0  0
  -38.3422  -35.7210  -21.9208 H   0  0  0  0  0  0
  -31.7702  -35.1544  -24.3877 H   0  0  0  0  0  0
  -32.3525  -33.7962  -23.3665 H   0  0  0  0  0  0
  -29.6772  -35.3104  -22.9806 H   0  0  0  0  0  0
  -29.8208  -33.6658  -23.6886 H   0  0  0  0  0  0
  -30.2275  -35.5399  -20.5133 H   0  0  0  0  0  0
  -30.8567  -34.0711  -19.6927 H   0  0  0  0  0  0
  -32.8828  -34.1050  -21.1405 H   0  0  0  0  0  0
  -32.6960  -35.7065  -20.3487 H   0  0  0  0  0  0
  1  2  2  0  0  0
  2  3  1  0  0  0
  2 13  1  0  0  0
  3  4  1  0  0  0
  3 21  1  0  0  0
  4  5  1  0  0  0
  4 29  1  0  0  0
  4 30  1  0  0  0
  5  6  2  0  0  0
  5  9  1  0  0  0
  6  7  1  0  0  0
  6 31  1  0  0  0
  7  8  1  0  0  0
  7 11  2  0  0  0
  9 10  2  0  0  0
  9 32  1  0  0  0
 10 11  1  0  0  0
 10 33  1  0  0  0
 11 12  1  0  0  0
 13 14  1  0  0  0
 13 18  2  0  0  0
 14 15  1  0  0  0
 14 16  1  0  0  0
 15 34  1  0  0  0
 15 35  1  0  0  0
 15 36  1  0  0  0
 16 17  2  0  0  0
 16 23  1  0  0  0
 17 18  1  0  0  0
 18 19  1  0  0  0
 19 20  1  0  0  0
 19 21  1  0  0  0
 20 37  1  0  0  0
 20 38  1  0  0  0
 20 39  1  0  0  0
 21 22  2  0  0  0
 23 24  1  0  0  0
 23 28  1  0  0  0
 24 25  1  0  0  0
 24 40  1  0  0  0
 24 41  1  0  0  0
 25 26  1  0  0  0
 25 42  1  0  0  0
 25 43  1  0  0  0
 26 27  1  0  0  0
 27 28  1  0  0  0
 27 44  1  0  0  0
 27 45  1  0  0  0
 28 46  1  0  0  0
 28 47  1  0  0  0
M  END
> <s_m_source_file>
../2wgs_ligand.sdf

> <i_m_source_file_index>
1

> <s_epik_input>
W2NIXTFbY0hdYyhDbCljKENsKVtjSF1jMVtDSDJdbihjMj1PKWMoPU8pbihbQ0gzXSljKGMyMyluYyhuM1tDSDNdKU40W0NIMl1bQ0gyXU9bQ0gyXVtDSDJdNA==

> <s_epik_cmdline>
J2VwaWtfYXBwJywgJy1pbWFlJywgJ2xpZ2FuZF9wcm8ubWFlJywgJy1vbWFlJywgJ2xpZ2FuZF9wcmVwLm1hZScsICctbXMnLCAnMScsICctcGgnLCAnNycsICctcGh0JywgJzAuNScsICctbnQn

> <r_lp_tautomer_probability>
1

> <r_epik_Ionization_Penalty>
  0.0000

> <r_epik_Ionization_Penalty_Charging>
  0.0000

> <r_epik_Ionization_Penalty_Neutral>
  0.0000

> <r_epik_State_Penalty>
 -0.0000

> <r_epik_Charging_Adjusted_Penalty>
7.53784063842418e-09

> <i_epik_Tot_Q>
0

> <i_epik_Tot_abs_Q>
0

$$$$
