2whp_ligand
                    3D
 Schrodinger Suite 2020-3.
 33 34  0  0  1  0            999 V2000
   38.2140   18.7180    9.4850 O   0  0  0  0  0  0
   38.2310   19.7890   10.0720 C   0  0  0  0  0  0
   39.1910   20.0700   10.9530 N   0  0  0  0  0  0
   37.1420   20.8180    9.8650 C   0  0  0  0  0  0
   37.1480   21.9650   10.6540 C   0  0  0  0  0  0
   36.1520   22.9160   10.4970 C   0  0  0  0  0  0
   35.1770   22.7430    9.6000 N   0  0  0  0  0  0
   35.1360   21.6390    8.8260 C   0  0  0  0  0  0
   36.1180   20.6480    8.9290 C   0  0  0  0  0  0
   34.1400   23.7670    9.4620 C   0  0  0  0  0  0
   32.9780   23.0280    9.1060 O   0  0  0  0  0  0
   31.7830   23.7950    9.0810 C   0  0  0  0  0  0
   30.9410   23.2940   10.1610 N   0  0  0  0  0  0
   30.2010   22.2040    9.9540 C   0  0  0  0  0  0
   29.4050   21.7240   10.9850 C   0  0  0  0  0  0
   29.3700   22.3750   12.2190 C   0  0  0  0  0  0
   30.1420   23.5080   12.3970 C   0  0  0  0  0  0
   30.9260   23.9400   11.3340 C   0  0  0  0  0  0
   40.0012   19.3480   11.1326 H   0  0  0  0  0  0
   39.1730   21.0239   11.5004 H   0  0  0  0  0  0
   37.9421   22.1151   11.4002 H   0  0  0  0  0  0
   36.1643   23.8155   11.1125 H   0  0  0  0  0  0
   34.3131   21.5250    8.1050 H   0  0  0  0  0  0
   36.0731   19.7598    8.2816 H   0  0  0  0  0  0
   34.0189   24.2974   10.4180 H   0  0  0  0  0  0
   34.4334   24.4829    8.6801 H   0  0  0  0  0  0
   32.0256   24.8569    9.2343 H   0  0  0  0  0  0
   31.2868   23.6692    8.1074 H   0  0  0  0  0  0
   30.2151   21.6865    8.9834 H   0  0  0  0  0  0
   28.7937   20.8221   10.8337 H   0  0  0  0  0  0
   28.7451   21.9969   13.0281 H   0  0  0  0  0  0
   30.1477   24.0640   13.3461 H   0  0  0  0  0  0
   31.5564   24.8347   11.4435 H   0  0  0  0  0  0
  1  2  2  0  0  0
  2  3  1  0  0  0
  2  4  1  0  0  0
  3 19  1  0  0  0
  3 20  1  0  0  0
  4  5  2  0  0  0
  4  9  1  0  0  0
  5  6  1  0  0  0
  5 21  1  0  0  0
  6  7  1  0  0  0
  6 22  1  0  0  0
  7  8  1  0  0  0
  7 10  1  0  0  0
  8  9  2  0  0  0
  8 23  1  0  0  0
  9 24  1  0  0  0
 10 11  1  0  0  0
 10 25  1  0  0  0
 10 26  1  0  0  0
 11 12  1  0  0  0
 12 13  1  0  0  0
 12 27  1  0  0  0
 12 28  1  0  0  0
 13 14  1  0  0  0
 13 18  1  0  0  0
 14 15  2  0  0  0
 14 29  1  0  0  0
 15 16  1  0  0  0
 15 30  1  0  0  0
 16 17  1  0  0  0
 16 31  1  0  0  0
 17 18  2  0  0  0
 17 32  1  0  0  0
 18 33  1  0  0  0
M  END
> <s_m_source_file>
../2whp_ligand.sdf

> <i_m_source_file_index>
1

> <s_epik_input>
Tz1DKFtOSDJdKUMxPVtDSF1bQ0gyXU4oW0NIXT1bQ0hdMSlbQ0gyXU9bQ0gyXU4yW0NIXT1bQ0hdW0NIMl1bQ0hdPVtDSF0y

> <s_epik_cmdline>
J2VwaWtfYXBwJywgJy1pbWFlJywgJ2xpZ2FuZF9wcm8ubWFlJywgJy1vbWFlJywgJ2xpZ2FuZF9wcmVwLm1hZScsICctbXMnLCAnMScsICctcGgnLCAnNycsICctcGh0JywgJzAuNScsICctbnQn

> <r_lp_tautomer_probability>
1

> <r_epik_Ionization_Penalty>
  0.0000

> <r_epik_Ionization_Penalty_Charging>
  0.0000

> <r_epik_Ionization_Penalty_Neutral>
  0.0000

> <r_epik_State_Penalty>
 -0.0000

> <r_epik_Charging_Adjusted_Penalty>
6.84102993955267e-15

> <i_epik_Tot_Q>
0

> <i_epik_Tot_abs_Q>
0

> <s_epik_Chemistry_Notes>
This compound has an imine and may undergo hydrolysis. This compound contains an acetal/aminal-like group ( X-CH(R)-Y where X, Y are N, S, or O) that may be acid/base labile, releasing an aldehyde.

$$$$
