2wi5_ligand
                    3D
 Schrodinger Suite 2020-3.
 40 42  0  0  1  0            999 V2000
   31.9090   11.8660   21.6460 N   0  0  0  0  0  0
   31.6460   11.3750   22.6610 C   0  0  0  0  0  0
   31.3540   10.8300   23.7880 C   0  0  0  0  0  0
   29.9940   10.9960   24.3770 C   0  0  0  0  0  0
   29.0690   11.7290   23.7110 N   0  0  0  0  0  0
   29.6630   10.4300   25.5650 N   0  0  0  0  0  0
   30.5440    9.6850   26.2810 C   0  0  0  0  0  0
   30.1580    8.9680   27.7650 S   0  0  0  0  0  0
   31.7160    8.2410   28.0130 C   0  0  0  0  0  0
   32.0050    7.4280   29.2280 C   0  0  0  0  0  0
   30.9910    7.0510   30.0050 N   0  0  0  0  0  0
   33.1590    7.1260   29.4850 O   0  0  0  0  0  0
   32.5890    8.5860   26.8570 C   0  0  0  0  0  0
   33.8720    8.1630   26.7600 N   0  0  0  0  0  0
   31.9390    9.4370   25.8110 C   0  0  0  0  0  0
   32.3650   10.0280   24.5190 C   0  0  0  0  0  0
   33.7370    9.8250   23.9830 C   0  0  0  0  0  0
   34.6250   10.8930   23.9250 C   0  0  0  0  0  0
   35.9080   10.7040   23.4250 C   0  0  0  0  0  0
   34.1320    8.5680   23.5410 C   0  0  0  0  0  0
   35.4150    8.3790   23.0400 C   0  0  0  0  0  0
   36.3030    9.4470   22.9820 C   0  0  0  0  0  0
   37.5670    9.2610   22.4890 O   0  0  0  0  0  0
   38.2400   10.3310   21.8290 C   0  0  0  0  0  0
   39.6780   10.3870   22.2980 C   0  0  0  0  0  0
   29.3250   12.1930   22.7470 H   0  0  0  0  0  0
   28.0622   11.8600   24.1344 H   0  0  0  0  0  0
   29.9620    7.3400   29.7451 H   0  0  0  0  0  0
   31.1826    6.4507   30.9066 H   0  0  0  0  0  0
   34.3068    7.5387   27.5544 H   0  0  0  0  0  0
   34.4792    8.4438   25.8868 H   0  0  0  0  0  0
   34.3150   11.8788   24.2717 H   0  0  0  0  0  0
   36.6044   11.5414   23.3803 H   0  0  0  0  0  0
   33.4360    7.7304   23.5871 H   0  0  0  0  0  0
   35.7247    7.3933   22.6926 H   0  0  0  0  0  0
   38.2147   10.1650   20.7419 H   0  0  0  0  0  0
   37.7392   11.2812   22.0665 H   0  0  0  0  0  0
   40.1977   11.2122   21.7892 H   0  0  0  0  0  0
   40.1784    9.4366   22.0605 H   0  0  0  0  0  0
   39.7029   10.5528   23.3851 H   0  0  0  0  0  0
  1  2  3  0  0  0
  2  3  1  0  0  0
  3  4  1  0  0  0
  3 16  2  0  0  0
  4  5  1  0  0  0
  4  6  2  0  0  0
  5 26  1  0  0  0
  5 27  1  0  0  0
  6  7  1  0  0  0
  7  8  1  0  0  0
  7 15  2  0  0  0
  8  9  1  0  0  0
  9 10  1  0  0  0
  9 13  2  0  0  0
 10 11  1  0  0  0
 10 12  2  0  0  0
 11 28  1  0  0  0
 11 29  1  0  0  0
 13 14  1  0  0  0
 13 15  1  0  0  0
 14 30  1  0  0  0
 14 31  1  0  0  0
 15 16  1  0  0  0
 16 17  1  0  0  0
 17 18  2  0  0  0
 17 20  1  0  0  0
 18 19  1  0  0  0
 18 32  1  0  0  0
 19 22  2  0  0  0
 19 33  1  0  0  0
 20 21  2  0  0  0
 20 34  1  0  0  0
 21 22  1  0  0  0
 21 35  1  0  0  0
 22 23  1  0  0  0
 23 24  1  0  0  0
 24 25  1  0  0  0
 24 36  1  0  0  0
 24 37  1  0  0  0
 25 38  1  0  0  0
 25 39  1  0  0  0
 25 40  1  0  0  0
M  END
> <s_m_source_file>
../2wi5_ligand.sdf

> <i_m_source_file_index>
1

> <s_epik_input>
W05IMl1DKD1PKWMoczEpYyhbTkgyXSljKGMxMiljKGMoQyNOKWMobjIpW05IMl0pLWMzW2NIXVtjSF1jKFtjSF1bY0hdMylPW0NIMl1bQ0gzXQ==

> <s_epik_cmdline>
J2VwaWtfYXBwJywgJy1pbWFlJywgJ2xpZ2FuZF9wcm8ubWFlJywgJy1vbWFlJywgJ2xpZ2FuZF9wcmVwLm1hZScsICctbXMnLCAnMScsICctcGgnLCAnNycsICctcGh0JywgJzAuNScsICctbnQn

> <r_lp_tautomer_probability>
1

> <r_epik_Ionization_Penalty>
  0.0011

> <r_epik_Ionization_Penalty_Charging>
  0.0000

> <r_epik_Ionization_Penalty_Neutral>
  0.0011

> <r_epik_State_Penalty>
 -0.0000

> <r_epik_Charging_Adjusted_Penalty>
0

> <i_epik_Tot_Q>
0

> <i_epik_Tot_abs_Q>
0

$$$$
