2wi6_ligand
                    3D
 Schrodinger Suite 2020-3.
 35 37  0  0  1  0            999 V2000
   32.8790   13.3650   24.5910 Cl  0  0  0  0  0  0
   33.9130   11.9440   24.2230 C   0  0  0  0  0  0
   35.2100   12.1180   23.7590 C   0  0  0  0  0  0
   36.0030   11.0090   23.4770 C   0  0  0  0  0  0
   37.6780   11.2480   22.8790 Cl  0  0  0  0  0  0
   35.5130    9.7170   23.6530 C   0  0  0  0  0  0
   34.2200    9.4910   24.1150 C   0  0  0  0  0  0
   33.3930   10.5670   24.4090 C   0  0  0  0  0  0
   32.0090   10.3420   24.9040 C   0  0  0  0  0  0
   30.9500   10.8790   24.2530 N   0  0  0  0  0  0
   29.6670   10.7020   24.6670 C   0  0  0  0  0  0
   28.6650   11.2740   23.9580 N   0  0  0  0  0  0
   29.3560    9.9710   25.7670 N   0  0  0  0  0  0
   30.3460    9.3940   26.4840 C   0  0  0  0  0  0
   30.1900    8.4560   27.8650 S   0  0  0  0  0  0
   31.7650    9.5260   26.1190 C   0  0  0  0  0  0
   32.6570    8.8270   27.0260 C   0  0  0  0  0  0
   31.9080    8.1950   28.0340 C   0  0  0  0  0  0
   32.2960    7.3580   29.2040 C   0  0  0  0  0  0
   33.4550    6.9970   29.3230 O   0  0  0  0  0  0
   31.3630    7.0240   30.0910 N   0  0  0  0  0  0
   31.6350    6.0830   31.1600 C   0  0  0  0  0  0
   31.6120    6.7470   32.5190 C   0  0  0  0  0  0
   35.6073   13.1228   23.6155 H   0  0  0  0  0  0
   36.1550    8.8663   23.4243 H   0  0  0  0  0  0
   33.8571    8.4715   24.2458 H   0  0  0  0  0  0
   28.8955   11.8706   23.0631 H   0  0  0  0  0  0
   27.6206   11.1420   24.2770 H   0  0  0  0  0  0
   33.7431    8.7967   26.9388 H   0  0  0  0  0  0
   30.3660    7.4797   29.9999 H   0  0  0  0  0  0
   30.8733    5.2894   31.1526 H   0  0  0  0  0  0
   32.6299    5.6376   31.0122 H   0  0  0  0  0  0
   31.8226    5.9980   33.2966 H   0  0  0  0  0  0
   30.6200    7.1888   32.6945 H   0  0  0  0  0  0
   32.3766    7.5370   32.5541 H   0  0  0  0  0  0
  1  2  1  0  0  0
  2  3  2  0  0  0
  2  8  1  0  0  0
  3  4  1  0  0  0
  3 24  1  0  0  0
  4  5  1  0  0  0
  4  6  2  0  0  0
  6  7  1  0  0  0
  6 25  1  0  0  0
  7  8  2  0  0  0
  7 26  1  0  0  0
  8  9  1  0  0  0
  9 10  1  0  0  0
  9 16  2  0  0  0
 10 11  2  0  0  0
 11 12  1  0  0  0
 11 13  1  0  0  0
 12 27  1  0  0  0
 12 28  1  0  0  0
 13 14  2  0  0  0
 14 15  1  0  0  0
 14 16  1  0  0  0
 15 18  1  0  0  0
 16 17  1  0  0  0
 17 18  2  0  0  0
 17 29  1  0  0  0
 18 19  1  0  0  0
 19 20  2  0  0  0
 19 21  1  0  0  0
 21 22  1  0  0  0
 21 30  1  0  0  0
 22 23  1  0  0  0
 22 31  1  0  0  0
 22 32  1  0  0  0
 23 33  1  0  0  0
 23 34  1  0  0  0
 23 35  1  0  0  0
M  END
> <s_m_source_file>
../2wi6_ligand.sdf

> <i_m_source_file_index>
1

> <s_epik_input>
Q2xjMVtjSF1jKENsKVtjSF1bY0hdYzEtYyhuYyhuMilbTkgyXSljKGMyMylbY0hdYyhzMylDKD1PKVtOSF1bQ0gyXVtDSDNd

> <s_epik_cmdline>
J2VwaWtfYXBwJywgJy1pbWFlJywgJ2xpZ2FuZF9wcm8ubWFlJywgJy1vbWFlJywgJ2xpZ2FuZF9wcmVwLm1hZScsICctbXMnLCAnMScsICctcGgnLCAnNycsICctcGh0JywgJzAuNScsICctbnQn

> <r_lp_tautomer_probability>
1

> <r_epik_Ionization_Penalty>
  0.0000

> <r_epik_Ionization_Penalty_Charging>
  0.0000

> <r_epik_Ionization_Penalty_Neutral>
  0.0000

> <r_epik_State_Penalty>
 -0.0000

> <r_epik_Charging_Adjusted_Penalty>
0

> <i_epik_Tot_Q>
0

> <i_epik_Tot_abs_Q>
0

$$$$
