2wi7_ligand
                    3D
 Schrodinger Suite 2020-3.
 55 58  0  0  1  0            999 V2000
    2.0590    7.2400   28.9490 O   0  0  0  0  0  0
    1.0510    7.8850   29.2430 C   0  0  0  0  0  0
    0.4890    7.8520   30.4580 N   0  0  0  0  0  0
    1.1850    7.3050   31.6140 C   0  0  0  0  0  0
    0.7380    5.8830   31.9100 C   0  0  0  0  0  0
    0.5000    8.7030   28.1290 C   0  0  0  0  0  0
   -1.2130    9.1500   28.0880 S   0  0  0  0  0  0
    1.2360    9.1630   27.0410 C   0  0  0  0  0  0
    0.3500    9.8830   26.1570 C   0  0  0  0  0  0
   -1.0460    9.9550   26.6150 C   0  0  0  0  0  0
   -1.9840   10.5990   25.8930 N   0  0  0  0  0  0
   -1.6120   11.1800   24.7230 C   0  0  0  0  0  0
   -2.5630   11.8080   23.9950 N   0  0  0  0  0  0
   -0.3390   11.1480   24.2480 N   0  0  0  0  0  0
    0.6450   10.5320   24.8900 C   0  0  0  0  0  0
    2.0470   10.4780   24.3850 C   0  0  0  0  0  0
    2.6530    9.2510   24.0890 C   0  0  0  0  0  0
    2.8310   11.7270   24.2480 C   0  0  0  0  0  0
    2.1430   13.3140   24.6450 Cl  0  0  0  0  0  0
    4.1180   11.7140   23.8160 C   0  0  0  0  0  0
    4.6690   10.5210   23.5120 C   0  0  0  0  0  0
    6.3200   10.5950   22.9300 Cl  0  0  0  0  0  0
    3.9650    9.2440   23.6360 C   0  0  0  0  0  0
    4.6230    8.0960   23.2690 O   0  0  0  0  0  0
    3.9300    6.9030   22.8830 C   0  0  0  0  0  0
    4.9160    5.7480   22.7220 C   0  0  0  0  0  0
    5.1070    5.1180   24.0350 N   0  3  0  0  0  0
    5.0340    3.6520   24.1870 C   0  0  0  0  0  0
    5.3820    5.8810   25.2640 C   0  0  0  0  0  0
    5.1010    4.8430   26.3650 C   0  0  0  0  0  0
    4.9900    3.4550   25.7190 C   0  0  0  0  0  0
   -0.5289    8.2541   30.5684 H   0  0  0  0  0  0
    2.2677    7.2969   31.4201 H   0  0  0  0  0  0
    0.9753    7.9272   32.4965 H   0  0  0  0  0  0
    1.2826    5.5025   32.7867 H   0  0  0  0  0  0
    0.9502    5.2435   31.0405 H   0  0  0  0  0  0
   -0.3423    5.8738   32.1170 H   0  0  0  0  0  0
    2.3029    9.0060   26.8827 H   0  0  0  0  0  0
   -3.5998   11.8460   24.3605 H   0  0  0  0  0  0
   -2.2998   12.2808   23.0373 H   0  0  0  0  0  0
    2.1040    8.3175   24.2122 H   0  0  0  0  0  0
    4.6878   12.6380   23.7180 H   0  0  0  0  0  0
    3.1923    6.6412   23.6558 H   0  0  0  0  0  0
    3.4143    7.0718   21.9261 H   0  0  0  0  0  0
    4.5101    5.0162   22.0080 H   0  0  0  0  0  0
    5.8749    6.1342   22.3459 H   0  0  0  0  0  0
    4.0265    5.1918   24.2276 H   0  0  0  0  0  0
    4.1281    3.2764   23.6888 H   0  0  0  0  0  0
    5.9219    3.1912   23.7294 H   0  0  0  0  0  0
    6.4269    6.2248   25.2561 H   0  0  0  0  0  0
    4.7103    6.7507   25.3137 H   0  0  0  0  0  0
    5.9244    4.8501   27.0943 H   0  0  0  0  0  0
    4.1585    5.0940   26.8737 H   0  0  0  0  0  0
    4.0411    2.9747   25.9998 H   0  0  0  0  0  0
    5.8301    2.8172   26.0310 H   0  0  0  0  0  0
  1  2  2  0  0  0
  2  3  1  0  0  0
  2  6  1  0  0  0
  3  4  1  0  0  0
  3 32  1  0  0  0
  4  5  1  0  0  0
  4 33  1  0  0  0
  4 34  1  0  0  0
  5 35  1  0  0  0
  5 36  1  0  0  0
  5 37  1  0  0  0
  6  7  1  0  0  0
  6  8  2  0  0  0
  7 10  1  0  0  0
  8  9  1  0  0  0
  8 38  1  0  0  0
  9 10  2  0  0  0
  9 15  1  0  0  0
 10 11  1  0  0  0
 11 12  2  0  0  0
 12 13  1  0  0  0
 12 14  1  0  0  0
 13 39  1  0  0  0
 13 40  1  0  0  0
 14 15  2  0  0  0
 15 16  1  0  0  0
 16 17  2  0  0  0
 16 18  1  0  0  0
 17 23  1  0  0  0
 17 41  1  0  0  0
 18 19  1  0  0  0
 18 20  2  0  0  0
 20 21  1  0  0  0
 20 42  1  0  0  0
 21 22  1  0  0  0
 21 23  2  0  0  0
 23 24  1  0  0  0
 24 25  1  0  0  0
 25 26  1  0  0  0
 25 43  1  0  0  0
 25 44  1  0  0  0
 26 27  1  0  0  0
 26 45  1  0  0  0
 26 46  1  0  0  0
 27 28  1  0  0  0
 27 29  1  0  0  0
 27 47  1  0  0  0
 28 31  1  0  0  0
 28 48  1  0  0  0
 28 49  1  0  0  0
 29 30  1  0  0  0
 29 50  1  0  0  0
 29 51  1  0  0  0
 30 31  1  0  0  0
 30 52  1  0  0  0
 30 53  1  0  0  0
 31 54  1  0  0  0
 31 55  1  0  0  0
M  CHG  1  27   1
M  END
> <s_m_source_file>
../2wi7_ligand.sdf

> <i_m_source_file_index>
1

> <s_epik_input>
W0NIM11bQ0gyXVtOSF1DKD1PKWMoW2NIXTEpc2MoYzEyKW5jKFtOSDJdKW5jMi1jM1tjSF1jKGMoQ2wpW2NIXWMzQ2wpT1tDSDJdW0NIMl1bTkgrXTRbQ0gyXVtDSDJdW0NIMl1bQ0gyXTQ=

> <s_epik_cmdline>
J2VwaWtfYXBwJywgJy1pbWFlJywgJ2xpZ2FuZF9wcm8ubWFlJywgJy1vbWFlJywgJ2xpZ2FuZF9wcmVwLm1hZScsICctbXMnLCAnMScsICctcGgnLCAnNycsICctcGh0JywgJzAuNScsICctbnQn

> <r_lp_tautomer_probability>
1

> <r_epik_Ionization_Penalty>
  0.0217

> <r_epik_Ionization_Penalty_Charging>
  0.0217

> <r_epik_Ionization_Penalty_Neutral>
  0.0000

> <r_epik_State_Penalty>
  0.0175

> <r_epik_Charging_Adjusted_Penalty>
0.0391688484839612

> <i_epik_Tot_Q>
1

> <i_epik_Tot_abs_Q>
1

$$$$
