2wib_ligand
                    3D
 Schrodinger Suite 2020-3.
 40 42  0  0  1  0            999 V2000
   18.0860   36.7840   24.1840 P   0  0  0  0  0  0
   16.6710   36.2760   24.3100 O   0  5  0  0  0  0
   19.0520   36.1660   23.4010 O   0  0  0  0  0  0
   18.7950   36.6610   25.6610 O   0  5  0  0  0  0
   18.1930   38.2210   23.5360 O   0  0  0  0  0  0
   16.8310   39.1450   23.4980 P   0  0  1  0  0  0
   15.6470   38.7140   22.6230 O   0  0  0  0  0  0
   16.4410   39.3640   25.0690 O   0  5  0  0  0  0
   17.2800   40.5940   22.9490 O   0  0  0  0  0  0
   18.6090   41.0420   23.1870 C   0  0  0  0  0  0
   18.6320   42.6120   22.9490 C   0  0  1  0  0  0
   18.7630   42.6020   21.4960 O   0  0  0  0  0  0
   17.2270   43.1230   23.2760 C   0  0  1  0  0  0
   17.2920   44.5000   23.6890 O   0  0  0  0  0  0
   16.5480   43.0810   21.9710 C   0  0  1  0  0  0
   15.6950   44.2020   21.9130 O   0  0  0  0  0  0
   17.6270   43.2970   20.9760 C   0  0  2  0  0  0
   17.4570   42.7070   19.6970 N   0  0  0  0  0  0
   16.9540   41.5060   19.3530 C   0  0  0  0  0  0
   17.0600   41.4070   17.9400 N   0  0  0  0  0  0
   17.5730   42.5030   17.4060 C   0  0  0  0  0  0
   17.8640   42.9250   16.0750 C   0  0  0  0  0  0
   17.6360   42.2090   15.0530 O   0  0  0  0  0  0
   18.5310   44.2080   15.9590 N   0  3  0  0  0  0
   18.7620   45.0130   17.1000 C   0  0  0  0  0  0
   19.2790   46.2570   17.0290 N   0  0  0  0  0  0
   18.4110   44.5180   18.3200 N   0  0  0  0  0  0
   17.8460   43.3210   18.5210 C   0  0  0  0  0  0
   18.8958   40.8055   24.2223 H   0  0  0  0  0  0
   19.2961   40.5373   22.4919 H   0  0  0  0  0  0
   19.3825   43.2306   23.4629 H   0  0  0  0  0  0
   16.7061   42.5804   24.0787 H   0  0  0  0  0  0
   17.7643   44.7654   24.6463 H   0  0  0  0  0  0
   15.9514   42.1719   21.8049 H   0  0  0  0  0  0
   14.8158   44.2588   22.5716 H   0  0  0  0  0  0
   17.7086   44.3807   20.8056 H   0  0  0  0  0  0
   16.5446   40.7549   20.0285 H   0  0  0  0  0  0
   19.5694   46.6771   16.0548 H   0  0  0  0  0  0
   19.4101   46.8512   17.9453 H   0  0  0  0  0  0
   18.8649   44.5673   14.9744 H   0  0  0  0  0  0
  1  2  1  0  0  0
  1  3  2  0  0  0
  1  4  1  0  0  0
  1  5  1  0  0  0
  5  6  1  0  0  0
  6  7  2  0  0  0
  6  8  1  0  0  0
  6  9  1  0  0  0
  9 10  1  0  0  0
 10 11  1  0  0  0
 10 29  1  0  0  0
 10 30  1  0  0  0
 11 12  1  0  0  0
 11 13  1  0  0  0
 11 31  1  0  0  0
 12 17  1  0  0  0
 13 14  1  0  0  0
 13 15  1  0  0  0
 13 32  1  0  0  0
 14 33  1  0  0  0
 15 16  1  0  0  0
 15 17  1  0  0  0
 15 34  1  0  0  0
 16 35  1  0  0  0
 17 18  1  0  0  0
 17 36  1  0  0  0
 18 19  1  0  0  0
 18 28  1  0  0  0
 19 20  2  0  0  0
 19 37  1  0  0  0
 20 21  1  0  0  0
 21 22  1  0  0  0
 21 28  2  0  0  0
 22 23  2  0  0  0
 22 24  1  0  0  0
 24 25  1  0  0  0
 24 40  1  0  0  0
 25 26  1  0  0  0
 25 27  2  0  0  0
 26 38  1  0  0  0
 26 39  1  0  0  0
 27 28  1  0  0  0
M  CHG  4   2  -1   4  -1   8  -1  24   1
M  END
> <s_m_source_file>
../2wib_ligand.sdf

> <i_m_source_file_index>
1

> <s_epik_input>
W09IXVAoPU8pKFtPSF0pT1tQQEBdKD1PKShbT0hdKU9bQ0gyXVtDQEhdMU9bQ0BIXShbQ0BIXShbT0hdKVtDQEBIXTFbT0hdKW4oW2NIXW4yKWMoYzIzKVtuSF1jKD1OXFtIXSlcW25IXWMzPU8=

> <s_epik_cmdline>
J2VwaWtfYXBwJywgJy1pbWFlJywgJ2xpZ2FuZF9wcm8ubWFlJywgJy1vbWFlJywgJ2xpZ2FuZF9wcmVwLm1hZScsICctbXMnLCAnMScsICctcGgnLCAnNycsICctcGh0JywgJzAuNScsICctbnQn

> <r_epik_Ionization_Penalty>
  2.4918

> <r_epik_Ionization_Penalty_Charging>
  2.4918

> <r_epik_Ionization_Penalty_Neutral>
  0.0000

> <r_epik_State_Penalty>
  0.1302

> <r_epik_Charging_Adjusted_Penalty>
2.62193179535438

> <i_epik_Tot_Q>
-2

> <i_epik_Tot_abs_Q>
4

> <s_epik_Chemistry_Notes>
This compound has an imine and may undergo hydrolysis. This compound contains an acetal/aminal-like group ( X-CH(R)-Y where X, Y are N, S, or O) that may be acid/base labile, releasing an aldehyde.

$$$$
