2wic_ligand
                    3D
 Schrodinger Suite 2020-3.
 46 48  0  0  1  0            999 V2000
   26.8810    9.2710   65.0420 P   0  0  0  0  0  0
   27.1890    9.3910   63.5410 O   0  5  0  0  0  0
   27.8640    8.2290   65.4990 O   0  0  0  0  0  0
   26.7770   10.7360   65.7860 O   0  0  0  0  0  0
   25.3620    8.6570   65.1780 N   0  0  1  0  0  0
   25.0810    6.9590   65.3600 P   0  0  2  0  0  0
   26.0220    6.0530   66.0080 O   0  0  0  0  0  0
   24.3520    6.7760   63.8660 O   0  5  0  0  0  0
   23.6700    6.9760   66.2460 O   0  0  0  0  0  0
   23.2780    6.4800   67.7580 P   0  0  1  0  0  0
   23.3910    5.0290   67.9630 O   0  0  0  0  0  0
   24.3170    7.3300   68.5610 O   0  5  0  0  0  0
   21.8580    6.9670   67.8040 O   0  0  0  0  0  0
   21.3590    8.3320   67.8000 C   0  0  0  0  0  0
   20.1590    8.2480   68.6850 C   0  0  1  0  0  0
   19.0170    7.4680   68.0190 O   0  0  0  0  0  0
   20.3220    7.5780   70.0600 C   0  0  1  0  0  0
   19.6590    8.3010   71.1450 O   0  0  0  0  0  0
   19.4920    6.3100   69.9630 C   0  0  1  0  0  0
   18.8810    6.0970   71.1840 O   0  0  0  0  0  0
   18.3590    6.6520   68.8860 C   0  0  2  0  0  0
   18.0420    5.4760   68.0700 N   0  0  0  0  0  0
   18.8830    4.6250   67.4520 C   0  0  0  0  0  0
   18.1600    3.6290   66.8530 N   0  0  0  0  0  0
   16.8650    3.8630   67.0760 C   0  0  0  0  0  0
   15.6730    3.3700   66.6040 C   0  0  0  0  0  0
   15.4790    2.3120   65.9680 O   0  0  0  0  0  0
   14.4660    4.0340   67.0550 N   0  3  0  0  0  0
   14.4870    5.1540   67.8760 C   0  0  0  0  0  0
   13.2750    5.6190   68.2450 N   0  0  0  0  0  0
   15.6540    5.7350   68.1890 N   0  0  0  0  0  0
   16.8210    5.0820   67.8450 C   0  0  0  0  0  0
   27.6628   11.3852   65.8486 H   0  0  0  0  0  0
   24.8707    9.0868   66.0634 H   0  0  0  0  0  0
   22.1324    9.0063   68.1964 H   0  0  0  0  0  0
   21.1075    8.6275   66.7707 H   0  0  0  0  0  0
   19.9847    9.3252   68.8238 H   0  0  0  0  0  0
   21.3903    7.4974   70.3096 H   0  0  0  0  0  0
   20.0364    9.2845   71.4617 H   0  0  0  0  0  0
   20.0881    5.3990   69.8058 H   0  0  0  0  0  0
   19.4880    5.8464   72.0665 H   0  0  0  0  0  0
   17.4279    7.0954   69.2688 H   0  0  0  0  0  0
   19.9691    4.7152   67.4319 H   0  0  0  0  0  0
   12.3644    5.0798   67.9450 H   0  0  0  0  0  0
   13.1978    6.5372   68.8458 H   0  0  0  0  0  0
   13.4810    3.6532   66.7472 H   0  0  0  0  0  0
  1  2  1  0  0  0
  1  3  2  0  0  0
  1  4  1  0  0  0
  1  5  1  0  0  0
  4 33  1  0  0  0
  5  6  1  0  0  0
  5 34  1  0  0  0
  6  7  2  0  0  0
  6  8  1  0  0  0
  6  9  1  0  0  0
  9 10  1  0  0  0
 10 11  2  0  0  0
 10 12  1  0  0  0
 10 13  1  0  0  0
 13 14  1  0  0  0
 14 15  1  0  0  0
 14 35  1  0  0  0
 14 36  1  0  0  0
 15 16  1  0  0  0
 15 17  1  0  0  0
 15 37  1  0  0  0
 16 21  1  0  0  0
 17 18  1  0  0  0
 17 19  1  0  0  0
 17 38  1  0  0  0
 18 39  1  0  0  0
 19 20  1  0  0  0
 19 21  1  0  0  0
 19 40  1  0  0  0
 20 41  1  0  0  0
 21 22  1  0  0  0
 21 42  1  0  0  0
 22 23  1  0  0  0
 22 32  1  0  0  0
 23 24  2  0  0  0
 23 43  1  0  0  0
 24 25  1  0  0  0
 25 26  1  0  0  0
 25 32  2  0  0  0
 26 27  2  0  0  0
 26 28  1  0  0  0
 28 29  1  0  0  0
 28 46  1  0  0  0
 29 30  1  0  0  0
 29 31  2  0  0  0
 30 44  1  0  0  0
 30 45  1  0  0  0
 31 32  1  0  0  0
M  CHG  4   2  -1   8  -1  12  -1  28   1
M  END
> <s_m_source_file>
../2wic_ligand.sdf

> <i_m_source_file_index>
1

> <s_epik_input>
W09IXVAoPU8pKFtPSF0pW05IXVtQQF0oPU8pKFtPSF0pT1tQQEBdKD1PKShbT0hdKU9bQ0gyXVtDQEhdMU9bQ0BIXShbQ0BIXShbT0hdKVtDQEBIXTFbT0hdKW4oW2NIXW4yKWMoYzIzKVtuSF1jKD1OXFtIXSlcW25IXWMzPU8=

> <s_epik_cmdline>
J2VwaWtfYXBwJywgJy1pbWFlJywgJ2xpZ2FuZF9wcm8ubWFlJywgJy1vbWFlJywgJ2xpZ2FuZF9wcmVwLm1hZScsICctbXMnLCAnMScsICctcGgnLCAnNycsICctcGh0JywgJzAuNScsICctbnQn

> <r_lp_tautomer_probability>
1

> <r_epik_Ionization_Penalty>
  2.8872

> <r_epik_Ionization_Penalty_Charging>
  2.3888

> <r_epik_Ionization_Penalty_Neutral>
  0.4985

> <r_epik_State_Penalty>
 -0.0000

> <r_epik_Charging_Adjusted_Penalty>
2.3887781483746

> <i_epik_Tot_Q>
-2

> <i_epik_Tot_abs_Q>
4

> <s_epik_Chemistry_Notes>
This compound has an imine and may undergo hydrolysis. This compound contains an acetal/aminal-like group ( X-CH(R)-Y where X, Y are N, S, or O) that may be acid/base labile, releasing an aldehyde.

$$$$
