2wih_ligand
                    3D
 Schrodinger Suite 2020-3.
 67 71  0  0  1  0            999 V2000
  -15.9130  200.9020  114.1660 O   0  0  0  0  0  0
  -15.2110  201.6130  114.8390 C   0  0  0  0  0  0
  -15.3640  201.8670  116.1430 N   0  0  0  0  0  0
  -16.3810  201.3650  117.0520 C   0  0  0  0  0  0
  -14.0830  202.2570  114.1740 C   0  0  0  0  0  0
  -12.9810  202.5980  114.8120 N   0  0  0  0  0  0
  -12.1130  203.1850  113.9230 N   0  0  0  0  0  0
  -10.8340  203.6060  114.5430 C   0  0  0  0  0  0
  -12.6140  203.2340  112.6960 C   0  0  0  0  0  0
  -13.9670  202.6330  112.7350 C   0  0  0  0  0  0
  -12.0410  203.8020  111.4510 C   0  0  0  0  0  0
  -12.8610  203.8550  110.3050 C   0  0  0  0  0  0
  -14.3240  203.3730  110.2980 C   0  0  0  0  0  0
  -14.8330  202.5140  111.4660 C   0  0  0  0  0  0
  -16.3020  202.8570  111.7020 C   0  0  0  0  0  0
  -14.7320  201.0740  111.0440 C   0  0  0  0  0  0
  -10.7650  204.2700  111.4250 N   0  0  0  0  0  0
  -10.2070  204.8070  110.3170 C   0  0  0  0  0  0
  -10.9730  204.8600  109.1750 N   0  0  0  0  0  0
  -12.2690  204.4110  109.1540 C   0  0  0  0  0  0
   -8.9410  205.2890  110.3210 N   0  0  0  0  0  0
   -8.0090  205.3720  111.3390 C   0  0  0  0  0  0
   -8.3700  205.6860  112.6930 C   0  0  0  0  0  0
   -7.4070  205.7870  113.7010 C   0  0  0  0  0  0
   -6.0400  205.5790  113.3840 C   0  0  0  0  0  0
   -5.6540  205.2630  112.0330 C   0  0  0  0  0  0
   -6.6360  205.1610  111.0230 C   0  0  0  0  0  0
   -5.0560  205.6870  114.3790 N   0  0  0  0  0  0
   -4.9830  206.8790  115.2350 C   0  0  0  0  0  0
   -5.0720  206.2830  116.6340 C   0  0  0  0  0  0
   -4.0110  205.2680  116.6620 N   0  3  0  0  0  0
   -2.7900  205.4890  117.4260 C   0  0  0  0  0  0
   -4.1570  204.0360  115.8970 C   0  0  0  0  0  0
   -4.0870  204.5650  114.4650 C   0  0  0  0  0  0
  -14.5860  202.5515  116.5120 H   0  0  0  0  0  0
  -16.2095  201.7768  118.0575 H   0  0  0  0  0  0
  -16.3278  200.2670  117.0914 H   0  0  0  0  0  0
  -17.3753  201.6713  116.6950 H   0  0  0  0  0  0
  -10.8502  203.3657  115.6163 H   0  0  0  0  0  0
  -10.7024  204.6902  114.4120 H   0  0  0  0  0  0
  -10.0003  203.0745  114.0608 H   0  0  0  0  0  0
  -14.9967  204.2432  110.2831 H   0  0  0  0  0  0
  -14.5026  202.7562  109.4049 H   0  0  0  0  0  0
  -16.3877  203.9091  112.0114 H   0  0  0  0  0  0
  -16.7076  202.2081  112.4922 H   0  0  0  0  0  0
  -16.8689  202.7009  110.7724 H   0  0  0  0  0  0
  -13.6768  200.8158  110.8711 H   0  0  0  0  0  0
  -15.3033  200.9229  110.1162 H   0  0  0  0  0  0
  -15.1420  200.4302  111.8361 H   0  0  0  0  0  0
  -12.8488  204.4855  108.2340 H   0  0  0  0  0  0
   -8.5067  205.7018  109.3985 H   0  0  0  0  0  0
   -9.4189  205.8493  112.9403 H   0  0  0  0  0  0
   -7.7040  206.0237  114.7227 H   0  0  0  0  0  0
   -4.6037  205.1025  111.7899 H   0  0  0  0  0  0
   -6.3431  204.9207  110.0010 H   0  0  0  0  0  0
   -4.0333  207.4034  115.0531 H   0  0  0  0  0  0
   -5.8229  207.5500  115.0017 H   0  0  0  0  0  0
   -4.9064  207.0737  117.3806 H   0  0  0  0  0  0
   -6.0688  205.8420  116.7820 H   0  0  0  0  0  0
   -4.4856  205.1324  117.6451 H   0  0  0  0  0  0
   -2.8488  206.4607  117.9381 H   0  0  0  0  0  0
   -1.9258  205.4849  116.7454 H   0  0  0  0  0  0
   -2.6737  204.6882  118.1711 H   0  0  0  0  0  0
   -3.3366  203.3481  116.1496 H   0  0  0  0  0  0
   -5.1199  203.5640  116.1422 H   0  0  0  0  0  0
   -4.3668  203.7828  113.7440 H   0  0  0  0  0  0
   -3.0772  204.9339  114.2322 H   0  0  0  0  0  0
  1  2  2  0  0  0
  2  3  1  0  0  0
  2  5  1  0  0  0
  3  4  1  0  0  0
  3 35  1  0  0  0
  4 36  1  0  0  0
  4 37  1  0  0  0
  4 38  1  0  0  0
  5  6  2  0  0  0
  5 10  1  0  0  0
  6  7  1  0  0  0
  7  8  1  0  0  0
  7  9  1  0  0  0
  8 39  1  0  0  0
  8 40  1  0  0  0
  8 41  1  0  0  0
  9 10  2  0  0  0
  9 11  1  0  0  0
 10 14  1  0  0  0
 11 12  2  0  0  0
 11 17  1  0  0  0
 12 13  1  0  0  0
 12 20  1  0  0  0
 13 14  1  0  0  0
 13 42  1  0  0  0
 13 43  1  0  0  0
 14 15  1  0  0  0
 14 16  1  0  0  0
 15 44  1  0  0  0
 15 45  1  0  0  0
 15 46  1  0  0  0
 16 47  1  0  0  0
 16 48  1  0  0  0
 16 49  1  0  0  0
 17 18  2  0  0  0
 18 19  1  0  0  0
 18 21  1  0  0  0
 19 20  2  0  0  0
 20 50  1  0  0  0
 21 22  1  0  0  0
 21 51  1  0  0  0
 22 23  2  0  0  0
 22 27  1  0  0  0
 23 24  1  0  0  0
 23 52  1  0  0  0
 24 25  2  0  0  0
 24 53  1  0  0  0
 25 26  1  0  0  0
 25 28  1  0  0  0
 26 27  2  0  0  0
 26 54  1  0  0  0
 27 55  1  0  0  0
 28 29  1  0  0  0
 28 34  1  0  0  0
 29 30  1  0  0  0
 29 56  1  0  0  0
 29 57  1  0  0  0
 30 31  1  0  0  0
 30 58  1  0  0  0
 30 59  1  0  0  0
 31 32  1  0  0  0
 31 33  1  0  0  0
 31 60  1  0  0  0
 32 61  1  0  0  0
 32 62  1  0  0  0
 32 63  1  0  0  0
 33 34  1  0  0  0
 33 64  1  0  0  0
 33 65  1  0  0  0
 34 66  1  0  0  0
 34 67  1  0  0  0
M  CHG  1  31   1
M  END
> <s_m_source_file>
../2wih_ligand.sdf

> <i_m_source_file_index>
1

> <s_epik_input>
W0NIM11bTkhdQyg9TyljKG5uMVtDSDNdKWMoYzEyKUMoW0NIM10pKFtDSDNdKVtDSDJdYzNjMm5jKG5bY0hdMylbTkhdYzRbY0hdW2NIXWMoW2NIXVtjSF00KU41W0NIMl1bQ0gyXVtOSCtdKFtDSDNdKVtDSDJdW0NIMl01

> <s_epik_cmdline>
J2VwaWtfYXBwJywgJy1pbWFlJywgJ2xpZ2FuZF9wcm8ubWFlJywgJy1vbWFlJywgJ2xpZ2FuZF9wcmVwLm1hZScsICctbXMnLCAnMScsICctcGgnLCAnNycsICctcGh0JywgJzAuNScsICctbnQn

> <r_lp_tautomer_probability>
1

> <r_epik_Ionization_Penalty>
  0.0726

> <r_epik_Ionization_Penalty_Charging>
  0.0647

> <r_epik_Ionization_Penalty_Neutral>
  0.0078

> <r_epik_State_Penalty>
 -0.0000

> <r_epik_Charging_Adjusted_Penalty>
0.0647487349615153

> <i_epik_Tot_Q>
1

> <i_epik_Tot_abs_Q>
1

$$$$
