2wik_ligand
                    3D
 Schrodinger Suite 2020-3.
 22 21  0  0  1  0            999 V2000
  -13.8430  -41.0100  -22.3330 C   0  0  0  0  0  0
  -13.5100  -39.6010  -21.9450 C   0  0  0  0  0  0
  -14.8460  -38.9410  -21.5000 C   0  0  0  0  0  0
  -14.8070  -37.7050  -22.2170 N   0  0  3  0  0  0
  -16.3240  -36.8760  -22.9060 P   0  0  0  0  0  0
  -16.2370  -36.5580  -24.3850 O   0  0  0  0  0  0
  -17.7870  -37.8370  -22.5790 O   0  0  0  0  0  0
  -17.7750  -39.2950  -22.5800 C   0  0  0  0  0  0
  -19.1970  -39.8320  -22.1960 C   0  0  0  0  0  0
  -12.9280  -41.5267  -22.6583 H   0  0  0  0  0  0
  -14.5716  -41.0009  -23.1570 H   0  0  0  0  0  0
  -14.2737  -41.5363  -21.4684 H   0  0  0  0  0  0
  -12.7814  -39.6101  -21.1210 H   0  0  0  0  0  0
  -13.0793  -39.0746  -22.8095 H   0  0  0  0  0  0
  -15.6883  -39.5859  -21.7909 H   0  0  0  0  0  0
  -14.8445  -38.8103  -20.4078 H   0  0  0  0  0  0
  -13.9026  -37.2550  -22.3580 H   0  0  0  0  0  0
  -17.5050  -39.6587  -23.5824 H   0  0  0  0  0  0
  -17.0376  -39.6561  -21.8480 H   0  0  0  0  0  0
  -19.1862  -40.9319  -22.1972 H   0  0  0  0  0  0
  -19.9349  -39.4717  -22.9279 H   0  0  0  0  0  0
  -19.4676  -39.4691  -21.1935 H   0  0  0  0  0  0
  1  2  1  0  0  0
  1 10  1  0  0  0
  1 11  1  0  0  0
  1 12  1  0  0  0
  2  3  1  0  0  0
  2 13  1  0  0  0
  2 14  1  0  0  0
  3  4  1  0  0  0
  3 15  1  0  0  0
  3 16  1  0  0  0
  4  5  1  0  0  0
  4 17  1  0  0  0
  5  6  1  0  0  0
  5  7  1  0  0  0
  7  8  1  0  0  0
  8  9  1  0  0  0
  8 18  1  0  0  0
  8 19  1  0  0  0
  9 20  1  0  0  0
  9 21  1  0  0  0
  9 22  1  0  0  0
M  END
> <s_m_source_file>
../2wik_ligand.sdf

> <i_m_source_file_index>
1

> <s_epik_input>
W0NIM11bQ0gyXVtDSDJdW05IXVAoW09IXSlPW0NIMl1bQ0gzXQ==

> <s_epik_cmdline>
J2VwaWtfYXBwJywgJy1pbWFlJywgJ2xpZ2FuZF9wcm8ubWFlJywgJy1vbWFlJywgJ2xpZ2FuZF9wcmVwLm1hZScsICctbXMnLCAnMScsICctcGgnLCAnNycsICctcGh0JywgJzAuNScsICctbnQn

> <r_lp_tautomer_probability>
1

> <r_epik_Ionization_Penalty>
  0.0000

> <r_epik_Ionization_Penalty_Charging>
  0.0000

> <r_epik_Ionization_Penalty_Neutral>
  0.0000

> <r_epik_State_Penalty>
 -0.0000

> <r_epik_Charging_Adjusted_Penalty>
0

> <i_epik_Tot_Q>
0

> <i_epik_Tot_abs_Q>
0

$$$$
