2wj1_ligand
                    3D
 Schrodinger Suite 2020-3.
 49 51  0  0  1  0            999 V2000
    1.8240  -40.1690   13.7180 C   0  0  0  0  0  0
    0.9500  -40.2330   14.8150 C   0  0  0  0  0  0
    1.4310  -40.1330   16.1160 C   0  0  0  0  0  0
    2.8050  -39.9550   16.3460 C   0  0  0  0  0  0
    3.6970  -39.9010   15.2750 C   0  0  0  0  0  0
    3.2020  -40.0090   13.9590 C   0  0  0  0  0  0
    4.2130  -39.9180   12.7950 C   0  0  0  0  0  0
    3.5690  -39.8140   11.3870 C   0  0  0  0  0  0
    4.7170  -39.6620   10.3570 C   0  0  0  0  0  0
    4.2140  -39.5270    8.9170 C   0  0  0  0  0  0
    5.3550  -38.9560    8.0400 C   0  0  0  0  0  0
    5.2380  -37.4110    7.9600 C   0  0  0  0  0  0
    6.3420  -36.8060    7.0790 C   0  0  2  0  0  0
    7.5920  -37.1470    7.6100 O   0  0  0  0  0  0
    6.2500  -35.2840    7.0870 C   0  0  0  0  0  0
    5.3850  -34.5350    7.7660 N   0  0  0  0  0  0
    7.1150  -34.4780    6.4090 O   0  0  0  0  0  0
    6.7040  -33.1850    6.6730 C   0  0  0  0  0  0
    5.6540  -33.2390    7.4930 C   0  0  0  0  0  0
    4.9710  -32.1410    8.0100 C   0  0  0  0  0  0
    3.7480  -32.3270    8.6640 C   0  0  0  0  0  0
    3.0660  -31.2190    9.2010 C   0  0  0  0  0  0
    3.6610  -29.9590    9.0750 C   0  0  0  0  0  0
    4.8990  -29.8250    8.4320 C   0  0  0  0  0  0
    5.5070  -30.9010    7.9360 N   0  0  0  0  0  0
    1.4431  -40.2418   12.6993 H   0  0  0  0  0  0
   -0.1188  -40.3627   14.6448 H   0  0  0  0  0  0
    0.7411  -40.1928   16.9578 H   0  0  0  0  0  0
    3.1761  -39.8586   17.3663 H   0  0  0  0  0  0
    4.7651  -39.7767   15.4534 H   0  0  0  0  0  0
    4.8421  -39.0250   12.9247 H   0  0  0  0  0  0
    4.8480  -40.8162   12.7897 H   0  0  0  0  0  0
    2.9876  -40.7249   11.1816 H   0  0  0  0  0  0
    2.9038  -38.9387   11.3518 H   0  0  0  0  0  0
    5.3036  -38.7616   10.5920 H   0  0  0  0  0  0
    5.3693  -40.5466   10.4017 H   0  0  0  0  0  0
    3.9134  -40.5155    8.5395 H   0  0  0  0  0  0
    3.3498  -38.8469    8.8927 H   0  0  0  0  0  0
    6.3261  -39.2236    8.4820 H   0  0  0  0  0  0
    5.2847  -39.3778    7.0265 H   0  0  0  0  0  0
    4.2625  -37.1389    7.5306 H   0  0  0  0  0  0
    5.3261  -36.9838    8.9698 H   0  0  0  0  0  0
    6.3033  -37.2192    6.0603 H   0  0  0  0  0  0
    7.8806  -38.2045    7.7018 H   0  0  0  0  0  0
    7.1600  -32.2770    6.2785 H   0  0  0  0  0  0
    3.3247  -33.3271    8.7573 H   0  0  0  0  0  0
    2.1041  -31.3389    9.6996 H   0  0  0  0  0  0
    3.1601  -29.0789    9.4782 H   0  0  0  0  0  0
    5.3628  -28.8431    8.3382 H   0  0  0  0  0  0
  1  2  2  0  0  0
  1  6  1  0  0  0
  1 26  1  0  0  0
  2  3  1  0  0  0
  2 27  1  0  0  0
  3  4  2  0  0  0
  3 28  1  0  0  0
  4  5  1  0  0  0
  4 29  1  0  0  0
  5  6  2  0  0  0
  5 30  1  0  0  0
  6  7  1  0  0  0
  7  8  1  0  0  0
  7 31  1  0  0  0
  7 32  1  0  0  0
  8  9  1  0  0  0
  8 33  1  0  0  0
  8 34  1  0  0  0
  9 10  1  0  0  0
  9 35  1  0  0  0
  9 36  1  0  0  0
 10 11  1  0  0  0
 10 37  1  0  0  0
 10 38  1  0  0  0
 11 12  1  0  0  0
 11 39  1  0  0  0
 11 40  1  0  0  0
 12 13  1  0  0  0
 12 41  1  0  0  0
 12 42  1  0  0  0
 13 14  1  0  0  0
 13 15  1  0  0  0
 13 43  1  0  0  0
 14 44  1  0  0  0
 15 16  2  0  0  0
 15 17  1  0  0  0
 16 19  1  0  0  0
 17 18  1  0  0  0
 18 19  2  0  0  0
 18 45  1  0  0  0
 19 20  1  0  0  0
 20 21  2  0  0  0
 20 25  1  0  0  0
 21 22  1  0  0  0
 21 46  1  0  0  0
 22 23  2  0  0  0
 22 47  1  0  0  0
 23 24  1  0  0  0
 23 48  1  0  0  0
 24 25  2  0  0  0
 24 49  1  0  0  0
M  END
> <s_m_source_file>
../2wj1_ligand.sdf

> <i_m_source_file_index>
1

> <s_epik_input>
W2NIXTFbY0hdW2NIXVtjSF1bY0hdYzFbQ0gyXVtDSDJdW0NIMl1bQ0gyXVtDSDJdW0NIMl1bQ0BIXShbT0hdKWMybmMoW2NIXW8yKS1jM1tjSF1bY0hdW2NIXVtjSF1uMw==

> <s_epik_cmdline>
J2VwaWtfYXBwJywgJy1pbWFlJywgJ2xpZ2FuZF9wcm8ubWFlJywgJy1vbWFlJywgJ2xpZ2FuZF9wcmVwLm1hZScsICctbXMnLCAnMScsICctcGgnLCAnNycsICctcGh0JywgJzAuNScsICctbnQn

> <r_lp_tautomer_probability>
1

> <r_epik_Ionization_Penalty>
  0.0051

> <r_epik_Ionization_Penalty_Charging>
  0.0000

> <r_epik_Ionization_Penalty_Neutral>
  0.0051

> <r_epik_State_Penalty>
 -0.0000

> <r_epik_Charging_Adjusted_Penalty>
0

> <i_epik_Tot_Q>
0

> <i_epik_Tot_abs_Q>
0

$$$$
