2wj2_ligand
                    3D
 Schrodinger Suite 2020-3.
 49 51  0  0  1  0            999 V2000
   39.5060  -38.0880    7.7650 O   0  0  0  0  0  0
   38.9520  -38.7790    6.6320 C   0  0  2  0  0  0
   37.4910  -39.1750    6.9660 C   0  0  0  0  0  0
   37.0540  -40.4260    7.1780 O   0  0  0  0  0  0
   35.7180  -40.3350    7.4830 C   0  0  0  0  0  0
   34.8900  -41.4470    7.7520 C   0  0  0  0  0  0
   35.3260  -42.7610    7.4500 C   0  0  0  0  0  0
   34.4590  -43.8350    7.7200 C   0  0  0  0  0  0
   33.1980  -43.5770    8.2840 C   0  0  0  0  0  0
   32.8330  -42.2530    8.5560 C   0  0  0  0  0  0
   33.6600  -41.2420    8.3030 N   0  0  0  0  0  0
   35.3900  -39.0490    7.4320 C   0  0  0  0  0  0
   36.4750  -38.3430    7.1310 N   0  0  0  0  0  0
   39.7780  -40.0230    6.3580 C   0  0  0  0  0  0
   41.2250  -39.6820    6.0510 C   0  0  0  0  0  0
   42.0510  -40.9280    5.7280 C   0  0  0  0  0  0
   42.5170  -41.5520    7.0340 C   0  0  0  0  0  0
   43.0760  -42.9540    6.8500 C   0  0  0  0  0  0
   43.7600  -43.3460    8.1740 C   0  0  0  0  0  0
   44.2290  -44.7870    8.2750 C   0  0  0  0  0  0
   44.2010  -45.6490    7.1750 C   0  0  0  0  0  0
   44.7030  -45.2530    9.5110 C   0  0  0  0  0  0
   45.1440  -46.5700    9.6410 C   0  0  0  0  0  0
   45.1100  -47.4240    8.5380 C   0  0  0  0  0  0
   44.6370  -46.9670    7.3140 C   0  0  0  0  0  0
   39.0429  -37.1560    8.1211 H   0  0  0  0  0  0
   39.0104  -38.0952    5.7724 H   0  0  0  0  0  0
   36.3114  -42.9355    7.0180 H   0  0  0  0  0  0
   34.7622  -44.8573    7.4940 H   0  0  0  0  0  0
   32.5139  -44.3959    8.5065 H   0  0  0  0  0  0
   31.8518  -42.0464    8.9835 H   0  0  0  0  0  0
   34.3951  -38.6401    7.6080 H   0  0  0  0  0  0
   39.7574  -40.6786    7.2410 H   0  0  0  0  0  0
   39.3584  -40.5587    5.4937 H   0  0  0  0  0  0
   41.2666  -39.0078    5.1828 H   0  0  0  0  0  0
   41.6777  -39.1861    6.9223 H   0  0  0  0  0  0
   41.4304  -41.6450    5.1705 H   0  0  0  0  0  0
   42.9205  -40.6434    5.1174 H   0  0  0  0  0  0
   43.3091  -40.9295    7.4757 H   0  0  0  0  0  0
   41.6696  -41.6169    7.7323 H   0  0  0  0  0  0
   42.2552  -43.6483    6.6169 H   0  0  0  0  0  0
   43.8019  -42.9538    6.0235 H   0  0  0  0  0  0
   44.6528  -42.7212    8.3245 H   0  0  0  0  0  0
   43.0597  -43.1918    9.0082 H   0  0  0  0  0  0
   43.8393  -45.2922    6.2106 H   0  0  0  0  0  0
   44.7266  -44.5843   10.3714 H   0  0  0  0  0  0
   45.5138  -46.9307   10.6008 H   0  0  0  0  0  0
   45.4556  -48.4530    8.6369 H   0  0  0  0  0  0
   44.6064  -47.6415    6.4583 H   0  0  0  0  0  0
  1  2  1  0  0  0
  1 26  1  0  0  0
  2  3  1  0  0  0
  2 14  1  0  0  0
  2 27  1  0  0  0
  3  4  1  0  0  0
  3 13  2  0  0  0
  4  5  1  0  0  0
  5  6  1  0  0  0
  5 12  2  0  0  0
  6  7  2  0  0  0
  6 11  1  0  0  0
  7  8  1  0  0  0
  7 28  1  0  0  0
  8  9  2  0  0  0
  8 29  1  0  0  0
  9 10  1  0  0  0
  9 30  1  0  0  0
 10 11  2  0  0  0
 10 31  1  0  0  0
 12 13  1  0  0  0
 12 32  1  0  0  0
 14 15  1  0  0  0
 14 33  1  0  0  0
 14 34  1  0  0  0
 15 16  1  0  0  0
 15 35  1  0  0  0
 15 36  1  0  0  0
 16 17  1  0  0  0
 16 37  1  0  0  0
 16 38  1  0  0  0
 17 18  1  0  0  0
 17 39  1  0  0  0
 17 40  1  0  0  0
 18 19  1  0  0  0
 18 41  1  0  0  0
 18 42  1  0  0  0
 19 20  1  0  0  0
 19 43  1  0  0  0
 19 44  1  0  0  0
 20 21  2  0  0  0
 20 22  1  0  0  0
 21 25  1  0  0  0
 21 45  1  0  0  0
 22 23  2  0  0  0
 22 46  1  0  0  0
 23 24  1  0  0  0
 23 47  1  0  0  0
 24 25  2  0  0  0
 24 48  1  0  0  0
 25 49  1  0  0  0
M  END
> <s_m_source_file>
../2wj2_ligand.sdf

> <i_m_source_file_index>
1

> <s_epik_input>
bjFbY0hdW2NIXVtjSF1bY0hdYzEtYyhbY0hdbjIpb2MyW0NAQEhdKFtPSF0pW0NIMl1bQ0gyXVtDSDJdW0NIMl1bQ0gyXVtDSDJdYzNbY0hdW2NIXVtjSF1bY0hdW2NIXTM=

> <s_epik_cmdline>
J2VwaWtfYXBwJywgJy1pbWFlJywgJ2xpZ2FuZF9wcm8ubWFlJywgJy1vbWFlJywgJ2xpZ2FuZF9wcmVwLm1hZScsICctbXMnLCAnMScsICctcGgnLCAnNycsICctcGh0JywgJzAuNScsICctbnQn

> <r_lp_tautomer_probability>
1

> <r_epik_Ionization_Penalty>
  0.0022

> <r_epik_Ionization_Penalty_Charging>
  0.0000

> <r_epik_Ionization_Penalty_Neutral>
  0.0022

> <r_epik_State_Penalty>
 -0.0000

> <r_epik_Charging_Adjusted_Penalty>
0

> <i_epik_Tot_Q>
0

> <i_epik_Tot_abs_Q>
0

$$$$
