2wjg_ligand
                    3D
 Schrodinger Suite 2020-3.
 40 42  0  0  1  0            999 V2000
   -7.5630   25.9100  -19.0170 P   0  0  0  0  0  0
   -8.4760   27.1210  -18.9600 O   0  5  0  0  0  0
   -8.3690   24.6790  -18.6650 O   0  0  0  0  0  0
   -6.4330   26.1080  -18.0200 O   0  5  0  0  0  0
   -6.9220   25.6130  -20.4570 O   0  0  0  0  0  0
   -6.7230   26.6880  -21.6380 P   0  0  2  0  0  0
   -5.9680   27.9350  -21.2680 O   0  0  0  0  0  0
   -8.0690   27.0330  -22.2390 O   0  5  0  0  0  0
   -5.8060   25.7750  -22.6040 O   0  0  0  0  0  0
   -4.5320   25.3640  -22.1040 C   0  0  0  0  0  0
   -3.6540   24.9750  -23.2810 C   0  0  1  0  0  0
   -4.2450   23.8810  -23.9930 O   0  0  0  0  0  0
   -3.5810   26.1390  -24.2490 C   0  0  1  0  0  0
   -2.2350   26.1760  -24.7270 O   0  0  0  0  0  0
   -4.5350   25.7580  -25.3580 C   0  0  1  0  0  0
   -4.1710   26.2730  -26.6410 O   0  0  0  0  0  0
   -4.3930   24.2570  -25.3580 C   0  0  2  0  0  0
   -5.6040   23.6470  -25.9170 N   0  0  0  0  0  0
   -6.8760   23.9660  -25.6400 C   0  0  0  0  0  0
   -7.7220   23.1740  -26.3450 N   0  0  0  0  0  0
   -6.9740   22.3250  -27.0840 C   0  0  0  0  0  0
   -7.2300   21.2320  -28.0600 C   0  0  0  0  0  0
   -8.4120   20.8940  -28.3620 O   0  0  0  0  0  0
   -6.1560   20.6200  -28.5960 N   0  3  0  0  0  0
   -4.8900   20.9760  -28.2730 C   0  0  0  0  0  0
   -3.8570   20.3210  -28.8340 N   0  0  0  0  0  0
   -4.5840   21.9710  -27.3990 N   0  0  0  0  0  0
   -5.5780   22.6480  -26.7840 C   0  0  0  0  0  0
   -4.0703   26.1945  -21.5499 H   0  0  0  0  0  0
   -4.6622   24.5027  -21.4323 H   0  0  0  0  0  0
   -2.6653   24.6499  -22.9248 H   0  0  0  0  0  0
   -3.7923   27.1377  -23.8391 H   0  0  0  0  0  0
   -1.4151   26.4377  -24.0420 H   0  0  0  0  0  0
   -5.5451   26.1766  -25.2376 H   0  0  0  0  0  0
   -4.2123   27.3557  -26.8310 H   0  0  0  0  0  0
   -3.5314   23.8888  -25.9343 H   0  0  0  0  0  0
   -7.1860   24.7490  -24.9480 H   0  0  0  0  0  0
   -4.0453   19.5064  -29.5488 H   0  0  0  0  0  0
   -2.8243   20.6002  -28.5778 H   0  0  0  0  0  0
   -6.2928   19.8036  -29.3204 H   0  0  0  0  0  0
  1  2  1  0  0  0
  1  3  2  0  0  0
  1  4  1  0  0  0
  1  5  1  0  0  0
  5  6  1  0  0  0
  6  7  2  0  0  0
  6  8  1  0  0  0
  6  9  1  0  0  0
  9 10  1  0  0  0
 10 11  1  0  0  0
 10 29  1  0  0  0
 10 30  1  0  0  0
 11 12  1  0  0  0
 11 13  1  0  0  0
 11 31  1  0  0  0
 12 17  1  0  0  0
 13 14  1  0  0  0
 13 15  1  0  0  0
 13 32  1  0  0  0
 14 33  1  0  0  0
 15 16  1  0  0  0
 15 17  1  0  0  0
 15 34  1  0  0  0
 16 35  1  0  0  0
 17 18  1  0  0  0
 17 36  1  0  0  0
 18 19  1  0  0  0
 18 28  1  0  0  0
 19 20  2  0  0  0
 19 37  1  0  0  0
 20 21  1  0  0  0
 21 22  1  0  0  0
 21 28  2  0  0  0
 22 23  2  0  0  0
 22 24  1  0  0  0
 24 25  1  0  0  0
 24 40  1  0  0  0
 25 26  1  0  0  0
 25 27  2  0  0  0
 26 38  1  0  0  0
 26 39  1  0  0  0
 27 28  1  0  0  0
M  CHG  4   2  -1   4  -1   8  -1  24   1
M  END
> <s_m_source_file>
../2wjg_ligand.sdf

> <i_m_source_file_index>
1

> <s_epik_input>
W09IXVAoPU8pKFtPSF0pT1tQQF0oPU8pKFtPSF0pT1tDSDJdW0NASF0xT1tDQEhdKFtDQEhdKFtPSF0pW0NAQEhdMVtPSF0pbihbY0hdbjIpYyhjMjMpW25IXWMoPU5cW0hdKVxbbkhdYzM9Tw==

> <s_epik_cmdline>
J2VwaWtfYXBwJywgJy1pbWFlJywgJ2xpZ2FuZF9wcm8ubWFlJywgJy1vbWFlJywgJ2xpZ2FuZF9wcmVwLm1hZScsICctbXMnLCAnMScsICctcGgnLCAnNycsICctcGh0JywgJzAuNScsICctbnQn

> <r_epik_Ionization_Penalty>
  2.4918

> <r_epik_Ionization_Penalty_Charging>
  2.4918

> <r_epik_Ionization_Penalty_Neutral>
  0.0000

> <r_epik_State_Penalty>
  0.1302

> <r_epik_Charging_Adjusted_Penalty>
2.62193179535438

> <i_epik_Tot_Q>
-2

> <i_epik_Tot_abs_Q>
4

> <s_epik_Chemistry_Notes>
This compound has an imine and may undergo hydrolysis. This compound contains an acetal/aminal-like group ( X-CH(R)-Y where X, Y are N, S, or O) that may be acid/base labile, releasing an aldehyde.

$$$$
