2wji_ligand
                    3D
 Schrodinger Suite 2020-3.
 46 48  0  0  1  0            999 V2000
   10.0360    2.6690   26.8960 P   0  0  0  0  0  0
   10.7720    3.4670   27.9240 O   0  0  0  0  0  0
   10.8150    1.4690   26.3890 O   0  5  0  0  0  0
    9.7430    3.7070   25.8400 O   0  0  0  0  0  0
    8.6330    2.1510   27.4770 N   0  0  1  0  0  0
    8.3170    1.6310   28.9590 P   0  0  1  0  0  0
    8.9230    0.2990   29.1520 O   0  5  0  0  0  0
    8.7390    2.6620   29.9070 O   0  0  0  0  0  0
    6.7950    1.4590   29.0970 O   0  0  0  0  0  0
    5.8010    2.4030   29.8160 P   0  0  1  0  0  0
    5.8350    2.1240   31.2750 O   0  5  0  0  0  0
    5.9840    3.8150   29.4100 O   0  0  0  0  0  0
    4.3910    1.9450   29.3110 O   0  0  0  0  0  0
    4.2470    1.4370   27.9910 C   0  0  0  0  0  0
    2.7800    1.1840   27.6970 C   0  0  1  0  0  0
    2.3320   -0.0390   28.3400 O   0  0  0  0  0  0
    1.8370    2.2850   28.1710 C   0  0  1  0  0  0
    0.7440    2.3890   27.2670 O   0  0  0  0  0  0
    1.3550    1.7460   29.5020 C   0  0  1  0  0  0
    0.0780    2.2420   29.8410 O   0  0  0  0  0  0
    1.2460    0.2640   29.1800 C   0  0  2  0  0  0
    1.2960   -0.5440   30.3870 N   0  0  0  0  0  0
    2.2140   -0.4450   31.4070 C   0  0  0  0  0  0
    1.9920   -1.2970   32.3710 N   0  0  0  0  0  0
    0.8500   -1.9910   31.9710 C   0  0  0  0  0  0
    0.1350   -3.0350   32.6080 C   0  0  0  0  0  0
    0.3730   -3.5740   33.7010 O   0  0  0  0  0  0
   -0.9680   -3.4540   31.8590 N   0  3  0  0  0  0
   -1.3350   -2.9270   30.6400 C   0  0  0  0  0  0
   -2.4300   -3.4580   30.0650 N   0  0  0  0  0  0
   -0.6680   -1.9510   30.0320 N   0  0  0  0  0  0
    0.4060   -1.5320   30.7510 C   0  0  0  0  0  0
   10.5705    4.1980   25.3068 H   0  0  0  0  0  0
    7.8849    2.9536   27.3986 H   0  0  0  0  0  0
    4.6419    2.1691   27.2713 H   0  0  0  0  0  0
    4.8052    0.4937   27.8982 H   0  0  0  0  0  0
    2.7211    1.0825   26.6033 H   0  0  0  0  0  0
    2.2554    3.3018   28.2021 H   0  0  0  0  0  0
    0.9083    2.7645   26.2462 H   0  0  0  0  0  0
    1.9553    2.0429   30.3746 H   0  0  0  0  0  0
   -0.0475    3.3019   30.1071 H   0  0  0  0  0  0
    0.3147   -0.0135   28.6646 H   0  0  0  0  0  0
    3.0382    0.2683   31.4099 H   0  0  0  0  0  0
   -2.9799   -4.2655   30.5705 H   0  0  0  0  0  0
   -2.7750   -3.0844   29.0896 H   0  0  0  0  0  0
   -1.6145   -4.2602   32.2358 H   0  0  0  0  0  0
  1  2  2  0  0  0
  1  3  1  0  0  0
  1  4  1  0  0  0
  1  5  1  0  0  0
  4 33  1  0  0  0
  5  6  1  0  0  0
  5 34  1  0  0  0
  6  7  1  0  0  0
  6  8  2  0  0  0
  6  9  1  0  0  0
  9 10  1  0  0  0
 10 11  1  0  0  0
 10 12  2  0  0  0
 10 13  1  0  0  0
 13 14  1  0  0  0
 14 15  1  0  0  0
 14 35  1  0  0  0
 14 36  1  0  0  0
 15 16  1  0  0  0
 15 17  1  0  0  0
 15 37  1  0  0  0
 16 21  1  0  0  0
 17 18  1  0  0  0
 17 19  1  0  0  0
 17 38  1  0  0  0
 18 39  1  0  0  0
 19 20  1  0  0  0
 19 21  1  0  0  0
 19 40  1  0  0  0
 20 41  1  0  0  0
 21 22  1  0  0  0
 21 42  1  0  0  0
 22 23  1  0  0  0
 22 32  1  0  0  0
 23 24  2  0  0  0
 23 43  1  0  0  0
 24 25  1  0  0  0
 25 26  1  0  0  0
 25 32  2  0  0  0
 26 27  2  0  0  0
 26 28  1  0  0  0
 28 29  1  0  0  0
 28 46  1  0  0  0
 29 30  1  0  0  0
 29 31  2  0  0  0
 30 44  1  0  0  0
 30 45  1  0  0  0
 31 32  1  0  0  0
M  CHG  4   3  -1   7  -1  11  -1  28   1
M  END
> <s_m_source_file>
../2wji_ligand.sdf

> <i_m_source_file_index>
1

> <s_epik_input>
Tz1QKFtPSF0pKFtPSF0pW05IXVtQQF0oPU8pKFtPSF0pT1tQQF0oPU8pKFtPSF0pT1tDSDJdW0NASF0xT1tDQEhdKFtDQEhdKFtPSF0pW0NAQEhdMVtPSF0pbihbY0hdbjIpYyhjMjMpW25IXWMoPU5cW0hdKVxbbkhdYzM9Tw==

> <s_epik_cmdline>
J2VwaWtfYXBwJywgJy1pbWFlJywgJ2xpZ2FuZF9wcm8ubWFlJywgJy1vbWFlJywgJ2xpZ2FuZF9wcmVwLm1hZScsICctbXMnLCAnMScsICctcGgnLCAnNycsICctcGh0JywgJzAuNScsICctbnQn

> <r_lp_tautomer_probability>
1

> <r_epik_Ionization_Penalty>
  2.8872

> <r_epik_Ionization_Penalty_Charging>
  2.3888

> <r_epik_Ionization_Penalty_Neutral>
  0.4985

> <r_epik_State_Penalty>
 -0.0000

> <r_epik_Charging_Adjusted_Penalty>
2.3887781483746

> <i_epik_Tot_Q>
-2

> <i_epik_Tot_abs_Q>
4

> <s_epik_Chemistry_Notes>
This compound has an imine and may undergo hydrolysis. This compound contains an acetal/aminal-like group ( X-CH(R)-Y where X, Y are N, S, or O) that may be acid/base labile, releasing an aldehyde.

$$$$
