2wk2_ligand
                    3D
 Schrodinger Suite 2020-3.
 81 84  0  0  1  0            999 V2000
   31.0410   70.9600   -8.3340 C   0  0  1  0  0  0
   31.0550   67.0220   -7.9370 S   0  0  0  0  0  0
   31.7290   69.7200   -8.8990 C   0  0  1  0  0  0
   32.7480   70.0580   -9.9580 C   0  0  2  0  0  0
   32.1040   70.9180  -11.0170 C   0  0  1  0  0  0
   31.4970   72.1640  -10.4140 C   0  0  1  0  0  0
   30.8210   72.9410  -11.5340 C   0  0  0  0  0  0
   32.1710   67.8890   -7.3400 C   0  0  0  0  0  0
   32.9790   67.3350   -6.1920 C   0  0  0  0  0  0
   32.4630   69.1100   -7.7970 N   0  0  0  0  0  0
   33.2780   68.9070  -10.5590 O   0  0  0  0  0  0
   32.9970   71.2470  -12.0700 O   0  0  0  0  0  0
   30.5900   71.7970   -9.3870 O   0  0  0  0  0  0
   30.3420   74.2460  -11.1680 O   0  0  0  0  0  0
   28.8050   73.2120   -4.0810 C   0  0  1  0  0  0
   29.5410   77.0140   -5.5100 S   0  0  0  0  0  0
   29.1670   74.0080   -5.3270 C   0  0  1  0  0  0
   29.3590   73.1390   -6.5640 C   0  0  2  0  0  0
   30.1420   71.8500   -6.2960 C   0  0  1  0  0  0
   29.5600   71.1660   -5.0790 C   0  0  1  0  0  0
   30.3510   69.9420   -4.6730 C   0  0  0  0  0  0
   28.2300   76.2320   -5.7060 C   0  0  0  0  0  0
   27.0090   77.0280   -6.0360 C   0  0  0  0  0  0
   28.0890   74.9190   -5.6160 N   0  0  0  0  0  0
   29.9890   73.9110   -7.5450 O   0  0  0  0  0  0
   30.2860   71.0480   -7.4630 O   0  0  0  0  0  0
   29.6440   72.0890   -4.0410 O   0  0  0  0  0  0
   29.8770   69.3970   -3.4990 O   0  0  0  0  0  0
   28.2890   74.3190    1.0010 C   0  0  1  0  0  0
   28.4460   72.8370    0.6480 C   0  0  1  0  0  0
   28.9850   72.7700   -0.7920 C   0  0  2  0  0  0
   28.2870   73.7220   -1.7880 C   0  0  1  0  0  0
   28.3990   75.1170   -1.2050 C   0  0  1  0  0  0
   27.7450   76.2120   -2.0320 C   0  0  0  0  0  0
   30.2080   73.3120    2.0510 C   0  0  0  0  0  0
   31.4220   72.9230    2.8430 C   0  0  0  0  0  0
   29.5650   72.4250    1.4440 N   0  0  0  0  0  0
   29.6760   74.8640    1.9240 S   0  0  0  0  0  0
   29.0960   71.4670   -1.3190 O   0  0  0  0  0  0
   28.8710   73.7140   -3.0960 O   0  0  0  0  0  0
   27.7560   75.1610    0.0260 O   0  0  0  0  0  0
   26.3750   76.2360   -1.7990 O   0  0  0  0  0  0
   31.6333   71.3202   -7.4799 H   0  0  0  0  0  0
   30.9792   69.0385   -9.3271 H   0  0  0  0  0  0
   33.6205   70.5424   -9.4952 H   0  0  0  0  0  0
   31.3300   70.3230  -11.5238 H   0  0  0  0  0  0
   32.2316   72.7932   -9.8901 H   0  0  0  0  0  0
   31.5327   73.0879  -12.3598 H   0  0  0  0  0  0
   29.9493   72.3770  -11.8973 H   0  0  0  0  0  0
   32.6144   66.3284   -5.9391 H   0  0  0  0  0  0
   32.8730   67.9938   -5.3175 H   0  0  0  0  0  0
   34.0384   67.2790   -6.4827 H   0  0  0  0  0  0
   33.2861   69.6575   -7.3146 H   0  0  0  0  0  0
   33.7912   68.1525   -9.9448 H   0  0  0  0  0  0
   33.5232   70.4490  -12.6144 H   0  0  0  0  0  0
   29.8401   74.8774  -11.9159 H   0  0  0  0  0  0
   27.7313   73.0637   -3.8937 H   0  0  0  0  0  0
   30.0916   74.5666   -5.1196 H   0  0  0  0  0  0
   28.3819   72.8573   -6.9833 H   0  0  0  0  0  0
   31.2115   72.0226   -6.1051 H   0  0  0  0  0  0
   28.5080   70.8895   -5.2429 H   0  0  0  0  0  0
   30.2788   69.1801   -5.4631 H   0  0  0  0  0  0
   31.4054   70.2189   -4.5260 H   0  0  0  0  0  0
   27.2682   78.0962   -6.0788 H   0  0  0  0  0  0
   26.2455   76.8667   -5.2607 H   0  0  0  0  0  0
   26.6146   76.7070   -7.0114 H   0  0  0  0  0  0
   27.0715   74.5335   -5.7776 H   0  0  0  0  0  0
   29.5514   74.8718   -7.8538 H   0  0  0  0  0  0
   30.3536   68.4998   -3.0773 H   0  0  0  0  0  0
   27.2717   74.4146    1.4085 H   0  0  0  0  0  0
   27.5431   72.2336    0.8231 H   0  0  0  0  0  0
   30.0489   73.0383   -0.7136 H   0  0  0  0  0  0
   27.2546   73.3998   -1.9887 H   0  0  0  0  0  0
   29.4729   75.3121   -1.0686 H   0  0  0  0  0  0
   28.1744   77.1863   -1.7555 H   0  0  0  0  0  0
   27.9252   76.0218   -3.1003 H   0  0  0  0  0  0
   31.5713   71.8353    2.7747 H   0  0  0  0  0  0
   31.2798   73.2083    3.8958 H   0  0  0  0  0  0
   32.3047   73.4403    2.4389 H   0  0  0  0  0  0
   29.5722   70.6725   -0.7257 H   0  0  0  0  0  0
   25.7417   76.9707   -2.3178 H   0  0  0  0  0  0
  1  3  1  0  0  0
  1 13  1  0  0  0
  1 26  1  0  0  0
  1 43  1  0  0  0
  2  8  2  0  0  0
  3  4  1  0  0  0
  3 10  1  0  0  0
  3 44  1  0  0  0
  4  5  1  0  0  0
  4 11  1  0  0  0
  4 45  1  0  0  0
  5  6  1  0  0  0
  5 12  1  0  0  0
  5 46  1  0  0  0
  6  7  1  0  0  0
  6 13  1  0  0  0
  6 47  1  0  0  0
  7 14  1  0  0  0
  7 48  1  0  0  0
  7 49  1  0  0  0
  8  9  1  0  0  0
  8 10  1  0  0  0
  9 50  1  0  0  0
  9 51  1  0  0  0
  9 52  1  0  0  0
 10 53  1  0  0  0
 11 54  1  0  0  0
 12 55  1  0  0  0
 14 56  1  0  0  0
 15 17  1  0  0  0
 15 27  1  0  0  0
 15 40  1  0  0  0
 15 57  1  0  0  0
 16 22  2  0  0  0
 17 18  1  0  0  0
 17 24  1  0  0  0
 17 58  1  0  0  0
 18 19  1  0  0  0
 18 25  1  0  0  0
 18 59  1  0  0  0
 19 20  1  0  0  0
 19 26  1  0  0  0
 19 60  1  0  0  0
 20 21  1  0  0  0
 20 27  1  0  0  0
 20 61  1  0  0  0
 21 28  1  0  0  0
 21 62  1  0  0  0
 21 63  1  0  0  0
 22 23  1  0  0  0
 22 24  1  0  0  0
 23 64  1  0  0  0
 23 65  1  0  0  0
 23 66  1  0  0  0
 24 67  1  0  0  0
 25 68  1  0  0  0
 28 69  1  0  0  0
 29 30  1  0  0  0
 29 38  1  0  0  0
 29 41  1  0  0  0
 29 70  1  0  0  0
 30 31  1  0  0  0
 30 37  1  0  0  0
 30 71  1  0  0  0
 31 32  1  0  0  0
 31 39  1  0  0  0
 31 72  1  0  0  0
 32 33  1  0  0  0
 32 40  1  0  0  0
 32 73  1  0  0  0
 33 34  1  0  0  0
 33 41  1  0  0  0
 33 74  1  0  0  0
 34 42  1  0  0  0
 34 75  1  0  0  0
 34 76  1  0  0  0
 35 36  1  0  0  0
 35 37  2  0  0  0
 35 38  1  0  0  0
 36 77  1  0  0  0
 36 78  1  0  0  0
 36 79  1  0  0  0
 39 80  1  0  0  0
 42 81  1  0  0  0
M  END
> <s_m_source_file>
../2wk2_ligand.sdf

> <i_m_source_file_index>
1

> <s_epik_input>
W09IXVtDSDJdW0NAQEhdKE8xKVtDQEBIXShbT0hdKVtDQEhdKFtPSF0pW0NAQEhdKFtOSF1DKD1TKVtDSDNdKVtDQEBIXTFPW0NASF0oW0NASF0oTzIpW0NIMl1bT0hdKVtDQEhdKFtPSF0pW0NAQEhdKFtOSF1DKD1TKVtDSDNdKVtDQEBIXTJPW0NASF0oW0NASF0oTzMpW0NIMl1bT0hdKVtDQEhdKFtPSF0pW0NASF0oW0NASF0zNClOPUMoUzQpW0NIM10=

> <s_epik_cmdline>
J2VwaWtfYXBwJywgJy1pbWFlJywgJ2xpZ2FuZF9wcm8ubWFlJywgJy1vbWFlJywgJ2xpZ2FuZF9wcmVwLm1hZScsICctbXMnLCAnMScsICctcGgnLCAnNycsICctcGh0JywgJzAuNScsICctbnQn

> <r_lp_tautomer_probability>
1

> <r_epik_Ionization_Penalty>
  0.0003

> <r_epik_Ionization_Penalty_Charging>
  0.0000

> <r_epik_Ionization_Penalty_Neutral>
  0.0003

> <r_epik_State_Penalty>
 -0.0000

> <r_epik_Charging_Adjusted_Penalty>
0

> <i_epik_Tot_Q>
0

> <i_epik_Tot_abs_Q>
0

> <s_epik_Chemistry_Notes>
This compound has an imine and may undergo hydrolysis. This compound contains an acetal/aminal-like group ( X-CH(R)-Y where X, Y are N, S, or O) that may be acid/base labile, releasing an aldehyde.

$$$$
