2wk6_ligand
                    3D
 Schrodinger Suite 2020-3.
 12 12  0  0  1  0            999 V2000
   16.6580   16.1180   45.6180 N   0  0  0  0  0  0
   15.4900   16.7150   46.1710 C   0  0  0  0  0  0
   14.8440   17.6110   45.6880 O   0  0  0  0  0  0
   15.0900   16.1560   47.4150 N   0  0  0  0  0  0
   15.7070   15.1100   48.1510 C   0  0  0  0  0  0
   15.2390   14.7370   49.2240 O   0  0  0  0  0  0
   16.9130   14.5550   47.5070 C   0  0  1  0  0  0
   17.3380   15.0780   46.2740 C   0  0  0  0  0  0
   17.9680   13.0080   48.4700 I   0  0  0  0  0  0
   14.1946   16.5381   47.9272 H   0  0  0  0  0  0
   16.2914   13.8165   46.9795 H   0  0  0  0  0  0
   18.2410   14.6409   45.8230 H   0  0  0  0  0  0
  1  2  1  0  0  0
  1  8  2  0  0  0
  2  3  2  0  0  0
  2  4  1  0  0  0
  4  5  1  0  0  0
  4 10  1  0  0  0
  5  6  2  0  0  0
  5  7  1  0  0  0
  7  8  1  0  0  0
  7  9  1  0  0  0
  7 11  1  0  0  0
  8 12  1  0  0  0
M  END
> <s_m_source_file>
../2wk6_ligand.sdf

> <i_m_source_file_index>
1

> <s_epik_input>
Tz1DMU49W0NIXVtDQEBIXShJKUMoPU8pW05IXTE=

> <s_epik_cmdline>
J2VwaWtfYXBwJywgJy1pbWFlJywgJ2xpZ2FuZF9wcm8ubWFlJywgJy1vbWFlJywgJ2xpZ2FuZF9wcmVwLm1hZScsICctbXMnLCAnMScsICctcGgnLCAnNycsICctcGh0JywgJzAuNScsICctbnQn

> <r_lp_tautomer_probability>
2.59503626005217e-08

> <r_epik_Ionization_Penalty>
  0.0656

> <r_epik_Ionization_Penalty_Charging>
  0.0000

> <r_epik_Ionization_Penalty_Neutral>
  0.0656

> <r_epik_State_Penalty>
  0.0572

> <r_epik_Charging_Adjusted_Penalty>
0.057220594302438

> <i_epik_Tot_Q>
0

> <i_epik_Tot_abs_Q>
0

> <s_epik_Chemistry_Notes>
This compound has an imine and may undergo hydrolysis.

$$$$
