2wks_ligand
                    3D
 Schrodinger Suite 2020-3.
 41 43  0  0  1  0            999 V2000
    4.4270   16.6490  -22.2010 C   0  0  0  0  0  0
    5.5080   17.4540  -22.3560 C   0  0  0  0  0  0
    6.3960   17.8980  -21.3630 C   0  0  0  0  0  0
    7.4810   18.7230  -21.6680 C   0  0  0  0  0  0
    7.6940   19.1210  -23.0030 C   0  0  0  0  0  0
    6.8260   18.6940  -24.0240 C   0  0  0  0  0  0
    5.7410   17.8600  -23.6970 C   0  0  0  0  0  0
    4.4930   17.1500  -24.6080 S   0  0  0  0  0  0
    3.7560   16.3770  -23.3240 C   0  0  0  0  0  0
    2.6380   15.5770  -23.3920 C   0  0  0  0  0  0
    2.1990   14.9690  -22.1750 O   0  0  0  0  0  0
    2.2160   13.6070  -22.0680 C   0  0  0  0  0  0
    1.9630   12.7360  -23.1440 C   0  0  0  0  0  0
    1.9390   11.3320  -23.0720 C   0  0  2  0  0  0
    2.7450   10.8030  -24.2630 C   0  0  0  0  0  0
    2.2780   11.1000  -25.4020 O   0  5  0  0  0  0
    3.7770   10.1190  -24.0370 O   0  0  0  0  0  0
    0.5990   10.8530  -23.2140 O   0  0  0  0  0  0
    2.4760   10.8050  -21.7300 C   0  0  0  0  0  0
    1.8910   11.6280  -20.5700 C   0  0  1  0  0  0
    2.2870   11.0580  -19.3390 O   0  0  0  0  0  0
    2.4150   13.0650  -20.6540 C   0  0  2  0  0  0
    1.7410   13.9390  -19.7390 O   0  0  0  0  0  0
    8.4010   19.1550  -20.5190 C   0  0  0  0  0  0
    4.1276   16.2528  -21.2307 H   0  0  0  0  0  0
    6.2347   17.5915  -20.3295 H   0  0  0  0  0  0
    8.5388   19.7654  -23.2464 H   0  0  0  0  0  0
    6.9917   19.0052  -25.0554 H   0  0  0  0  0  0
    1.7839   16.1703  -23.7505 H   0  0  0  0  0  0
    2.8241   14.7451  -24.0872 H   0  0  0  0  0  0
    1.7616   13.1434  -24.1457 H   0  0  0  0  0  0
    0.0148   11.1107  -24.1097 H   0  0  0  0  0  0
    2.1867    9.7508  -21.6079 H   0  0  0  0  0  0
    3.5728   10.8882  -21.7158 H   0  0  0  0  0  0
    0.7915   11.5959  -20.5605 H   0  0  0  0  0  0
    2.0025   10.0238  -19.0949 H   0  0  0  0  0  0
    3.4693   13.0808  -20.3408 H   0  0  0  0  0  0
    2.0159   15.0030  -19.6911 H   0  0  0  0  0  0
    8.0363   18.7234  -19.5752 H   0  0  0  0  0  0
    8.4030   20.2524  -20.4437 H   0  0  0  0  0  0
    9.4233   18.7990  -20.7142 H   0  0  0  0  0  0
  1  2  1  0  0  0
  1  9  2  0  0  0
  1 25  1  0  0  0
  2  3  2  0  0  0
  2  7  1  0  0  0
  3  4  1  0  0  0
  3 26  1  0  0  0
  4  5  2  0  0  0
  4 24  1  0  0  0
  5  6  1  0  0  0
  5 27  1  0  0  0
  6  7  2  0  0  0
  6 28  1  0  0  0
  7  8  1  0  0  0
  8  9  1  0  0  0
  9 10  1  0  0  0
 10 11  1  0  0  0
 10 29  1  0  0  0
 10 30  1  0  0  0
 11 12  1  0  0  0
 12 13  2  0  0  0
 12 22  1  0  0  0
 13 14  1  0  0  0
 13 31  1  0  0  0
 14 15  1  0  0  0
 14 18  1  0  0  0
 14 19  1  0  0  0
 15 16  1  0  0  0
 15 17  2  0  0  0
 18 32  1  0  0  0
 19 20  1  0  0  0
 19 33  1  0  0  0
 19 34  1  0  0  0
 20 21  1  0  0  0
 20 22  1  0  0  0
 20 35  1  0  0  0
 21 36  1  0  0  0
 22 23  1  0  0  0
 22 37  1  0  0  0
 23 38  1  0  0  0
 24 39  1  0  0  0
 24 40  1  0  0  0
 24 41  1  0  0  0
M  CHG  1  16  -1
M  END
> <s_m_source_file>
../2wks_ligand.sdf

> <i_m_source_file_index>
1

> <s_epik_input>
W2NIXTFjKFtDSDNdKVtjSF1bY0hdYyhjMTIpc2MoW2NIXTIpW0NIMl1PQyhbQ0BASF0oW09IXSlbQ0BASF0oW0NIMl0zKVtPSF0pPVtDSF1bQ0BAXTMoW09IXSlDKD1PKVtPSF0=

> <s_epik_cmdline>
J2VwaWtfYXBwJywgJy1pbWFlJywgJ2xpZ2FuZF9wcm8ubWFlJywgJy1vbWFlJywgJ2xpZ2FuZF9wcmVwLm1hZScsICctbXMnLCAnMScsICctcGgnLCAnNycsICctcGh0JywgJzAuNScsICctbnQn

> <r_lp_tautomer_probability>
1

> <r_epik_Ionization_Penalty>
  0.0000

> <r_epik_Ionization_Penalty_Charging>
  0.0000

> <r_epik_Ionization_Penalty_Neutral>
  0.0000

> <r_epik_State_Penalty>
 -0.0000

> <r_epik_Charging_Adjusted_Penalty>
4.10533768232396e-05

> <i_epik_Tot_Q>
-1

> <i_epik_Tot_abs_Q>
1

$$$$
