2wkt_ligand
                    3D
 Schrodinger Suite 2020-3.
 80 82  0  0  1  0            999 V2000
   36.6620  -28.1840   21.3630 N   0  0  0  0  0  0
   36.7010  -28.2060   22.7140 C   0  0  0  0  0  0
   36.0110  -27.2560   23.4400 N   0  0  0  0  0  0
   35.3060  -26.3080   22.7840 C   0  0  0  0  0  0
   35.2690  -26.2840   21.4620 C   0  0  0  0  0  0
   35.9580  -27.2440   20.7370 C   0  0  0  0  0  0
   35.8950  -27.1990   19.2950 N   0  0  0  0  0  0
   34.4800  -25.2160   21.0580 N   0  0  0  0  0  0
   34.0080  -24.5550   22.2130 C   0  0  0  0  0  0
   34.5020  -25.2000   23.2410 N   0  0  0  0  0  0
   34.2770  -24.8600   24.6250 C   0  0  2  0  0  0
   35.1480  -24.5020   25.7760 C   0  0  1  0  0  0
   36.2870  -23.6940   25.5830 O   0  0  0  0  0  0
   34.2100  -24.1680   26.8690 C   0  0  2  0  0  0
   34.4260  -24.7280   28.1170 O   0  0  0  0  0  0
   34.6890  -23.7270   29.3840 P   0  0  0  0  0  0
   36.1990  -24.0060   29.9930 O   0  5  0  0  0  0
   33.5390  -24.0290   30.5180 O   0  5  0  0  0  0
   34.6070  -22.3000   28.9060 O   0  0  0  0  0  0
   32.8050  -24.2060   26.2650 C   0  0  2  0  0  0
   32.9370  -25.1460   25.1240 O   0  0  0  0  0  0
   32.1900  -22.8630   25.8740 C   0  0  0  0  0  0
   33.0300  -22.1880   24.9590 O   0  0  0  0  0  0
   32.6060  -20.6470   24.5700 P   0  0  1  0  0  0
   32.9500  -19.6720   25.8480 O   0  5  0  0  0  0
   33.3310  -20.1970   23.3260 O   0  0  0  0  0  0
   30.9880  -20.7710   24.2960 O   0  0  0  0  0  0
   29.9660  -19.5000   24.5620 P   0  0  2  0  0  0
   30.6780  -18.2470   25.0270 O   0  0  0  0  0  0
   28.8420  -20.0380   25.6150 O   0  5  0  0  0  0
   29.2030  -19.2560   23.1180 O   0  0  0  0  0  0
   27.2650  -19.9530   21.7730 C   0  0  0  0  0  0
   28.3970  -20.3300   22.7260 C   0  0  0  0  0  0
   26.0680  -19.5250   22.6140 C   0  0  0  0  0  0
   26.9320  -21.1420   20.8730 C   0  0  0  0  0  0
   27.7580  -18.7570   20.9610 C   0  0  1  0  0  0
   29.0500  -18.8990   20.4170 O   0  0  0  0  0  0
   26.7170  -18.3970   19.9020 C   0  0  0  0  0  0
   25.6520  -17.9540   20.2150 O   0  0  0  0  0  0
   27.0350  -18.7960   18.5320 N   0  0  0  0  0  0
   26.0390  -18.6160   17.4920 C   0  0  0  0  0  0
   25.9330  -17.1850   16.9540 C   0  0  0  0  0  0
   25.0150  -16.9900   15.7530 C   0  0  0  0  0  0
   23.9030  -17.3820   15.8050 O   0  0  0  0  0  0
   25.4490  -16.0740   14.7160 N   0  0  0  0  0  0
   24.6880  -15.8740   13.4970 C   0  0  0  0  0  0
   23.8860  -17.0480   12.9250 C   0  0  0  0  0  0
   22.7490  -16.5490   11.5930 S   0  0  0  0  0  0
   37.2773  -28.9739   23.2302 H   0  0  0  0  0  0
   36.4330  -27.9495   18.6973 H   0  0  0  0  0  0
   35.3090  -26.4142   18.7943 H   0  0  0  0  0  0
   33.3595  -23.6794   22.2435 H   0  0  0  0  0  0
   34.8740  -24.2043   23.9742 H   0  0  0  0  0  0
   35.8424  -25.3145   26.0361 H   0  0  0  0  0  0
   36.9961  -23.9270   24.7750 H   0  0  0  0  0  0
   34.4694  -23.2049   27.3330 H   0  0  0  0  0  0
   32.0703  -24.5574   27.0044 H   0  0  0  0  0  0
   31.2094  -23.0315   25.4050 H   0  0  0  0  0  0
   32.0646  -22.2415   26.7729 H   0  0  0  0  0  0
   29.0131  -21.0820   22.2113 H   0  0  0  0  0  0
   27.9318  -20.7826   23.6141 H   0  0  0  0  0  0
   25.2351  -19.2470   21.9515 H   0  0  0  0  0  0
   26.3465  -18.6610   23.2352 H   0  0  0  0  0  0
   25.7586  -20.3582   23.2622 H   0  0  0  0  0  0
   26.1164  -20.8664   20.1883 H   0  0  0  0  0  0
   26.6179  -21.9946   21.4931 H   0  0  0  0  0  0
   27.8220  -21.4209   20.2898 H   0  0  0  0  0  0
   27.9658  -17.9171   21.6403 H   0  0  0  0  0  0
   29.8964  -19.1576   21.0702 H   0  0  0  0  0  0
   28.0159  -19.2283   18.2852 H   0  0  0  0  0  0
   26.2821  -19.2623   16.6357 H   0  0  0  0  0  0
   25.0469  -18.8845   17.8840 H   0  0  0  0  0  0
   25.5474  -16.5239   17.7441 H   0  0  0  0  0  0
   26.9277  -16.8374   16.6381 H   0  0  0  0  0  0
   26.3870  -15.5220   14.8756 H   0  0  0  0  0  0
   23.9430  -15.0805   13.6559 H   0  0  0  0  0  0
   25.3684  -15.5807   12.6839 H   0  0  0  0  0  0
   24.5771  -17.7974   12.5117 H   0  0  0  0  0  0
   23.2846  -17.5053   13.7245 H   0  0  0  0  0  0
   22.1160  -17.3013   11.0996 H   0  0  0  0  0  0
  1  2  1  0  0  0
  1  6  2  0  0  0
  2  3  2  0  0  0
  2 49  1  0  0  0
  3  4  1  0  0  0
  4  5  2  0  0  0
  4 10  1  0  0  0
  5  6  1  0  0  0
  5  8  1  0  0  0
  6  7  1  0  0  0
  7 50  1  0  0  0
  7 51  1  0  0  0
  8  9  2  0  0  0
  9 10  1  0  0  0
  9 52  1  0  0  0
 10 11  1  0  0  0
 11 12  1  0  0  0
 11 21  1  0  0  0
 11 53  1  0  0  0
 12 13  1  0  0  0
 12 14  1  0  0  0
 12 54  1  0  0  0
 13 55  1  0  0  0
 14 15  1  0  0  0
 14 20  1  0  0  0
 14 56  1  0  0  0
 15 16  1  0  0  0
 16 17  1  0  0  0
 16 18  1  0  0  0
 16 19  2  0  0  0
 20 21  1  0  0  0
 20 22  1  0  0  0
 20 57  1  0  0  0
 22 23  1  0  0  0
 22 58  1  0  0  0
 22 59  1  0  0  0
 23 24  1  0  0  0
 24 25  1  0  0  0
 24 26  2  0  0  0
 24 27  1  0  0  0
 27 28  1  0  0  0
 28 29  2  0  0  0
 28 30  1  0  0  0
 28 31  1  0  0  0
 31 33  1  0  0  0
 32 36  1  0  0  0
 32 35  1  0  0  0
 32 34  1  0  0  0
 32 33  1  0  0  0
 33 60  1  0  0  0
 33 61  1  0  0  0
 34 62  1  0  0  0
 34 63  1  0  0  0
 34 64  1  0  0  0
 35 65  1  0  0  0
 35 66  1  0  0  0
 35 67  1  0  0  0
 36 37  1  0  0  0
 36 38  1  0  0  0
 36 68  1  0  0  0
 37 69  1  0  0  0
 38 39  2  0  0  0
 38 40  1  0  0  0
 40 41  1  0  0  0
 40 70  1  0  0  0
 41 42  1  0  0  0
 41 71  1  0  0  0
 41 72  1  0  0  0
 42 43  1  0  0  0
 42 73  1  0  0  0
 42 74  1  0  0  0
 43 44  2  0  0  0
 43 45  1  0  0  0
 45 46  1  0  0  0
 45 75  1  0  0  0
 46 47  1  0  0  0
 46 76  1  0  0  0
 46 77  1  0  0  0
 47 48  1  0  0  0
 47 78  1  0  0  0
 47 79  1  0  0  0
 48 80  1  0  0  0
M  CHG  4  17  -1  18  -1  25  -1  30  -1
M  END
> <s_m_source_file>
../2wkt_ligand.sdf

> <i_m_source_file_index>
1

> <s_epik_input>
bjFbY0hdbmMoW05IMl0pYyhjMTIpbltjSF1uMltDQEBIXTNbQ0BASF0oW09IXSlbQ0BIXShPUCg9TykoW09IXSlbT0hdKVtDQEhdKE8zKVtDSDJdT1tQQF0oPU8pKFtPSF0pT1tQQF0oPU8pKFtPSF0pT1tDSDJdQyhbQ0gzXSkoW0NIM10pW0NAQEhdKFtPSF0pQyg9TylbTkhdW0NIMl1bQ0gyXUMoPU8pW05IXVtDSDJdW0NIMl1bU0hd

> <s_epik_cmdline>
J2VwaWtfYXBwJywgJy1pbWFlJywgJ2xpZ2FuZF9wcm8ubWFlJywgJy1vbWFlJywgJ2xpZ2FuZF9wcmVwLm1hZScsICctbXMnLCAnMScsICctcGgnLCAnNycsICctcGh0JywgJzAuNScsICctbnQn

> <r_lp_tautomer_probability>
0.999997216410988

> <r_epik_Ionization_Penalty>
  0.0786

> <r_epik_Ionization_Penalty_Charging>
  0.0752

> <r_epik_Ionization_Penalty_Neutral>
  0.0034

> <r_epik_State_Penalty>
  0.0657

> <r_epik_Charging_Adjusted_Penalty>
0.140907442939625

> <i_epik_Tot_Q>
-4

> <i_epik_Tot_abs_Q>
4

> <s_epik_Chemistry_Notes>
This compound contains an acetal/aminal-like group ( X-CH(R)-Y where X, Y are N, S, or O) that may be acid/base labile, releasing an aldehyde.

$$$$
