2wky_ligand
                    3D
 Schrodinger Suite 2020-3.
 31 32  0  0  1  0            999 V2000
   29.6390    2.2440   76.8850 O   0  5  0  0  0  0
   30.6440    2.3560   76.1510 C   0  0  0  0  0  0
   30.8780    3.3040   75.3740 O   0  0  0  0  0  0
   31.6770    1.2270   76.2010 C   0  0  1  0  0  0
   32.8270    1.6070   75.3690 N   0  3  0  0  0  0
   32.1410    1.0080   77.6440 C   0  0  0  0  0  0
   33.3570    0.0820   77.6990 C   0  0  0  0  0  0
   33.1380   -1.2620   77.4230 C   0  0  0  0  0  0
   34.6010    0.6450   77.9750 C   0  0  0  0  0  0
   35.8430    0.0290   78.0890 C   0  0  0  0  0  0
   36.2010   -1.3110   77.9680 C   0  0  0  0  0  0
   35.5650   -2.0120   76.7650 C   0  0  0  0  0  0
   34.0610   -2.1990   76.9810 C   0  0  3  0  0  0
   33.4140   -3.3860   76.7860 O   0  0  0  0  0  0
   32.0460   -3.1810   77.1220 N   0  0  0  0  0  0
   31.9110   -1.9110   77.4990 C   0  0  0  0  0  0
   30.8550   -1.4030   77.8680 O   0  0  0  0  0  0
   31.2571    0.2947   75.7955 H   0  0  0  0  0  0
   32.4937    1.7643   74.3326 H   0  0  0  0  0  0
   33.5791    0.8047   75.3946 H   0  0  0  0  0  0
   33.2691    2.5365   75.7571 H   0  0  0  0  0  0
   32.4153    1.9746   78.0916 H   0  0  0  0  0  0
   31.3263    0.5525   78.2260 H   0  0  0  0  0  0
   34.5123    1.7331   78.1100 H   0  0  0  0  0  0
   36.7372    0.6306   78.3094 H   0  0  0  0  0  0
   37.2922   -1.3901   77.8536 H   0  0  0  0  0  0
   35.8862   -1.8575   78.8693 H   0  0  0  0  0  0
   35.7217   -1.4043   75.8616 H   0  0  0  0  0  0
   36.0300   -2.9994   76.6279 H   0  0  0  0  0  0
   34.8144   -1.4799   76.6271 H   0  0  0  0  0  0
   31.3291   -4.0113   77.0401 H   0  0  0  0  0  0
  1  2  1  0  0  0
  2  3  2  0  0  0
  2  4  1  0  0  0
  4  5  1  0  0  0
  4  6  1  0  0  0
  4 18  1  0  0  0
  5 19  1  0  0  0
  5 20  1  0  0  0
  5 21  1  0  0  0
  6  7  1  0  0  0
  6 22  1  0  0  0
  6 23  1  0  0  0
  7  8  2  0  0  0
  7  9  1  0  0  0
  8 13  1  0  0  0
  8 16  1  0  0  0
  9 10  2  0  0  0
  9 24  1  0  0  0
 10 11  1  0  0  0
 10 25  1  0  0  0
 11 12  1  0  0  0
 11 26  1  0  0  0
 11 27  1  0  0  0
 12 13  1  0  0  0
 12 28  1  0  0  0
 12 29  1  0  0  0
 13 14  1  0  0  0
 13 30  1  0  0  0
 14 15  1  0  0  0
 15 16  1  0  0  0
 15 31  1  0  0  0
 16 17  2  0  0  0
M  CHG  2   1  -1   5   1
M  END
> <s_m_source_file>
../2wky_ligand.sdf

> <i_m_source_file_index>
1

> <s_epik_input>
W09IXUMoPU8pW0NAQEhdKFtOSDMrXSlbQ0gyXUM9MVtDSF09W0NIXVtDSDJdW0NIMl1bQ0hdKEMxMilPW05IXUMyPU8=

> <s_epik_cmdline>
J2VwaWtfYXBwJywgJy1pbWFlJywgJ2xpZ2FuZF9wcm8ubWFlJywgJy1vbWFlJywgJ2xpZ2FuZF9wcmVwLm1hZScsICctbXMnLCAnMScsICctcGgnLCAnNycsICctcGh0JywgJzAuNScsICctbnQn

> <r_epik_Ionization_Penalty>
  0.0146

> <r_epik_Ionization_Penalty_Charging>
  0.0145

> <r_epik_Ionization_Penalty_Neutral>
  0.0001

> <r_epik_State_Penalty>
  0.0113

> <r_epik_Charging_Adjusted_Penalty>
0.0258298360753431

> <i_epik_Tot_Q>
0

> <i_epik_Tot_abs_Q>
2

> <s_epik_Chemistry_Notes>
This compound has a N-S or N-O group and may undergo hydrolysis at high or low pH.

$$$$
