2wl0_ligand
                    3D
 Schrodinger Suite 2020-3.
 98102  0  0  1  0            999 V2000
   16.8060   18.1560    2.3170 C   0  0  0  0  0  0
   18.4890   17.2910   12.2960 C   0  0  0  0  0  0
   18.1060   18.3770   11.5420 N   0  0  0  0  0  0
   16.9770   18.3270   10.6660 C   0  0  0  0  0  0
   16.2470   17.1030   10.5940 C   0  0  0  0  0  0
   16.6630   16.0000   11.3830 C   0  0  0  0  0  0
   17.7970   16.1130   12.2350 C   0  0  0  0  0  0
   11.7550   23.8300    4.1820 C   0  0  1  0  0  0
   12.9560   22.9290    4.6260 C   0  0  0  0  0  0
   14.0340   23.6450    5.4980 C   0  0  0  0  0  0
   12.2800   25.1060    3.7380 O   0  0  0  0  0  0
   10.9850   23.1630    2.9670 C   0  0  0  0  0  0
    9.5900   23.7680    2.6200 C   0  0  0  0  0  0
    9.4930   25.0530    2.0030 C   0  0  0  0  0  0
    8.2240   25.6130    1.6900 C   0  0  0  0  0  0
    7.0310   24.8970    1.9890 C   0  0  0  0  0  0
    7.1130   23.6130    2.6040 C   0  0  0  0  0  0
    8.3830   23.0510    2.9160 C   0  0  0  0  0  0
   10.7310   24.0490    5.3130 C   0  0  0  0  0  0
   10.1090   25.2590    5.3760 N   0  0  0  0  0  0
    9.0900   25.5530    6.3960 C   0  0  2  0  0  0
    7.9470   26.5470    5.9800 C   0  0  2  0  0  0
    8.3530   27.5190    4.9800 O   0  0  0  0  0  0
    7.5120   27.3160    7.2550 C   0  0  0  0  0  0
    8.7390   27.1870    8.1510 C   0  0  0  0  0  0
    9.0300   27.9220    9.3300 C   0  0  0  0  0  0
   10.2430   27.6390   10.0210 C   0  0  0  0  0  0
   11.1430   26.6410    9.5350 C   0  0  0  0  0  0
   10.8430   25.9120    8.3590 C   0  0  0  0  0  0
    9.6270   26.1980    7.6670 C   0  0  0  0  0  0
   10.4790   23.1520    6.1020 O   0  0  0  0  0  0
   14.7760   22.6740    6.3390 N   0  0  2  0  0  0
   15.5140   23.1240    7.5420 C   0  0  0  0  0  0
   15.9070   21.8880    8.3570 C   0  0  0  0  0  0
   14.9000   21.1220    8.9980 C   0  0  0  0  0  0
   15.2420   19.9670    9.7460 C   0  0  0  0  0  0
   16.6060   19.5510    9.8710 C   0  0  0  0  0  0
   17.6180   20.3290    9.2280 C   0  0  0  0  0  0
   17.2710   21.4880    8.4720 C   0  0  0  0  0  0
   15.7120   21.8210    5.4810 N   0  0  0  0  0  0
   15.3910   20.5260    5.1830 C   0  0  0  0  0  0
   16.3410   19.6660    4.3340 C   0  0  1  0  0  0
   17.0050   18.8370    5.3350 N   0  0  0  0  0  0
   18.3010   19.0260    5.6440 C   0  0  0  0  0  0
   18.7090   18.1500    6.5930 O   0  0  0  0  0  0
   20.0890   18.2620    7.0020 C   0  0  0  0  0  0
   19.0130   19.8850    5.1270 O   0  0  0  0  0  0
   15.6710   18.7880    3.1860 C   0  0  0  0  0  0
   14.7960   17.6070    3.7220 C   0  0  0  0  0  0
   14.7790   19.6850    2.2690 C   0  0  0  0  0  0
   14.3490   20.0370    5.6040 O   0  0  0  0  0  0
   17.4426   17.5210    2.9507 H   0  0  0  0  0  0
   17.4148   18.9562    1.8708 H   0  0  0  0  0  0
   16.3594   17.5460    1.5179 H   0  0  0  0  0  0
   19.3564   17.3711   12.9512 H   0  0  0  0  0  0
   15.3793   17.0166    9.9400 H   0  0  0  0  0  0
   16.1112   15.0612   11.3364 H   0  0  0  0  0  0
   18.1136   15.2620   12.8381 H   0  0  0  0  0  0
   12.5800   22.0846    5.2223 H   0  0  0  0  0  0
   13.4761   22.5462    3.7355 H   0  0  0  0  0  0
   14.7512   24.1617    4.8433 H   0  0  0  0  0  0
   13.5452   24.3778    6.1568 H   0  0  0  0  0  0
   13.0274   25.1427    2.9317 H   0  0  0  0  0  0
   11.5912   23.2552    2.0538 H   0  0  0  0  0  0
   10.8087   22.0992    3.1842 H   0  0  0  0  0  0
   10.4007   25.6096    1.7699 H   0  0  0  0  0  0
    8.1648   26.5943    1.2193 H   0  0  0  0  0  0
    6.0590   25.3281    1.7490 H   0  0  0  0  0  0
    6.2019   23.0612    2.8355 H   0  0  0  0  0  0
    8.4390   22.0680    3.3836 H   0  0  0  0  0  0
   10.3862   26.0264    4.6383 H   0  0  0  0  0  0
    8.7693   24.5086    6.5241 H   0  0  0  0  0  0
    7.1348   26.0024    5.4762 H   0  0  0  0  0  0
    8.7004   27.1802    3.9928 H   0  0  0  0  0  0
    7.2817   28.3593    6.9932 H   0  0  0  0  0  0
    6.6179   26.8395    7.6834 H   0  0  0  0  0  0
    8.3425   28.6839    9.6974 H   0  0  0  0  0  0
   10.4872   28.1892   10.9297 H   0  0  0  0  0  0
   12.0685   26.4393   10.0744 H   0  0  0  0  0  0
   11.5265   25.1477    7.9892 H   0  0  0  0  0  0
   16.4152   23.6748    7.2346 H   0  0  0  0  0  0
   14.8692   23.7821    8.1429 H   0  0  0  0  0  0
   13.8558   21.4234    8.9150 H   0  0  0  0  0  0
   14.4563   19.3885   10.2320 H   0  0  0  0  0  0
   18.6637   20.0343    9.3160 H   0  0  0  0  0  0
   18.0510   22.0697    7.9807 H   0  0  0  0  0  0
   16.6507   22.2488    5.0992 H   0  0  0  0  0  0
   17.0625   20.3053    3.8042 H   0  0  0  0  0  0
   16.4452   18.0426    5.8503 H   0  0  0  0  0  0
   20.3060   17.5060    7.7710 H   0  0  0  0  0  0
   20.2690   19.2660    7.4137 H   0  0  0  0  0  0
   20.7434   18.0993    6.1329 H   0  0  0  0  0  0
   15.4074   16.9628    4.3710 H   0  0  0  0  0  0
   14.4158   17.0182    2.8742 H   0  0  0  0  0  0
   13.9496   18.0097    4.2976 H   0  0  0  0  0  0
   15.3775   20.5227    1.8816 H   0  0  0  0  0  0
   13.9326   20.0777    2.8517 H   0  0  0  0  0  0
   14.3989   19.0861    1.4282 H   0  0  0  0  0  0
  1 48  1  0  0  0
  1 52  1  0  0  0
  1 53  1  0  0  0
  1 54  1  0  0  0
  2  3  2  0  0  0
  2  7  1  0  0  0
  2 55  1  0  0  0
  3  4  1  0  0  0
  4  5  2  0  0  0
  4 37  1  0  0  0
  5  6  1  0  0  0
  5 56  1  0  0  0
  6  7  2  0  0  0
  6 57  1  0  0  0
  7 58  1  0  0  0
  8  9  1  0  0  0
  8 11  1  0  0  0
  8 12  1  0  0  0
  8 19  1  0  0  0
  9 10  1  0  0  0
  9 59  1  0  0  0
  9 60  1  0  0  0
 10 32  1  0  0  0
 10 61  1  0  0  0
 10 62  1  0  0  0
 11 63  1  0  0  0
 12 13  1  0  0  0
 12 64  1  0  0  0
 12 65  1  0  0  0
 13 14  2  0  0  0
 13 18  1  0  0  0
 14 15  1  0  0  0
 14 66  1  0  0  0
 15 16  2  0  0  0
 15 67  1  0  0  0
 16 17  1  0  0  0
 16 68  1  0  0  0
 17 18  2  0  0  0
 17 69  1  0  0  0
 18 70  1  0  0  0
 19 20  1  0  0  0
 19 31  2  0  0  0
 20 21  1  0  0  0
 20 71  1  0  0  0
 21 22  1  0  0  0
 21 30  1  0  0  0
 21 72  1  0  0  0
 22 23  1  0  0  0
 22 24  1  0  0  0
 22 73  1  0  0  0
 23 74  1  0  0  0
 24 25  1  0  0  0
 24 75  1  0  0  0
 24 76  1  0  0  0
 25 26  2  0  0  0
 25 30  1  0  0  0
 26 27  1  0  0  0
 26 77  1  0  0  0
 27 28  2  0  0  0
 27 78  1  0  0  0
 28 29  1  0  0  0
 28 79  1  0  0  0
 29 30  2  0  0  0
 29 80  1  0  0  0
 32 33  1  0  0  0
 32 40  1  0  0  0
 33 34  1  0  0  0
 33 81  1  0  0  0
 33 82  1  0  0  0
 34 35  2  0  0  0
 34 39  1  0  0  0
 35 36  1  0  0  0
 35 83  1  0  0  0
 36 37  2  0  0  0
 36 84  1  0  0  0
 37 38  1  0  0  0
 38 39  2  0  0  0
 38 85  1  0  0  0
 39 86  1  0  0  0
 40 41  1  0  0  0
 40 87  1  0  0  0
 41 42  1  0  0  0
 41 51  2  0  0  0
 42 43  1  0  0  0
 42 48  1  0  0  0
 42 88  1  0  0  0
 43 44  1  0  0  0
 43 89  1  0  0  0
 44 45  1  0  0  0
 44 47  2  0  0  0
 45 46  1  0  0  0
 46 90  1  0  0  0
 46 91  1  0  0  0
 46 92  1  0  0  0
 48 49  1  0  0  0
 48 50  1  0  0  0
 49 93  1  0  0  0
 49 94  1  0  0  0
 49 95  1  0  0  0
 50 96  1  0  0  0
 50 97  1  0  0  0
 50 98  1  0  0  0
M  END
> <s_m_source_file>
../2wl0_ligand.sdf

> <i_m_source_file_index>
1

> <s_epik_input>
W2NIXTFbY0hdW2NIXVtjSF1jKGMxMilbQ0BASF0oW0NASF0oW09IXSlbQ0gyXTIpW05IXUMoPU8pW0NAXShbT0hdKShbQ0gyXWMzW2NIXVtjSF1bY0hdW2NIXVtjSF0zKVtDSDJdW0NIMl1bTkBASCtdKFtOSF1DKD1PKVtDQEhdKEMoW0NIM10pKFtDSDNdKVtDSDNdKVtOSF1DKD1PKU9bQ0gzXSlbQ0gyXWM0W2NIXVtjSF1jKFtjSF1bY0hdNCktYzVuW2NIXVtjSF1bY0hdW2NIXTU=

> <s_epik_cmdline>
J2VwaWtfYXBwJywgJy1pbWFlJywgJ2xpZ2FuZF9wcm8ubWFlJywgJy1vbWFlJywgJ2xpZ2FuZF9wcmVwLm1hZScsICctbXMnLCAnMScsICctcGgnLCAnNycsICctcGh0JywgJzAuNScsICctbnQn

> <r_epik_Ionization_Penalty>
  0.0101

> <r_epik_Ionization_Penalty_Charging>
  0.0000

> <r_epik_Ionization_Penalty_Neutral>
  0.0101

> <r_epik_State_Penalty>
  0.0077

> <r_epik_Charging_Adjusted_Penalty>
0.0077056098726133

> <i_epik_Tot_Q>
0

> <i_epik_Tot_abs_Q>
0

> <s_epik_Chemistry_Notes>
This compound has an ester and may undergo hydrolysis at high or low pH.

$$$$
