2wl4_ligand
                    3D
 Schrodinger Suite 2020-3.
 80 82  0  0  1  0            999 V2000
   36.2930  -28.4820   21.1370 N   0  0  0  0  0  0
   36.3580  -28.5450   22.4850 C   0  0  0  0  0  0
   35.7490  -27.6660   23.3050 N   0  0  0  0  0  0
   35.0310  -26.6600   22.7890 C   0  0  0  0  0  0
   34.9220  -26.5460   21.3490 C   0  0  0  0  0  0
   35.6060  -27.5310   20.4940 C   0  0  0  0  0  0
   35.5390  -27.4670   19.1420 N   0  0  0  0  0  0
   34.1610  -25.4880   21.0440 N   0  0  0  0  0  0
   33.7960  -24.9380   22.2210 C   0  0  0  0  0  0
   34.3110  -25.6420   23.2580 N   0  0  0  0  0  0
   34.1460  -25.3720   24.7050 C   0  0  1  0  0  0
   34.7490  -24.0440   25.1010 C   0  0  2  0  0  0
   36.1550  -24.1470   25.3060 O   0  0  0  0  0  0
   34.0540  -23.7830   26.4130 C   0  0  2  0  0  0
   34.8430  -24.3920   27.4260 O   0  0  0  0  0  0
   34.7870  -23.8010   28.9190 P   0  0  0  0  0  0
   35.8890  -24.6500   29.8960 O   0  5  0  0  0  0
   33.2060  -23.9740   29.5100 O   0  5  0  0  0  0
   35.1930  -22.3460   28.8810 O   0  0  0  0  0  0
   32.7210  -24.4930   26.2720 C   0  0  2  0  0  0
   32.7770  -25.2590   25.0710 O   0  0  0  0  0  0
   31.6220  -23.4680   26.1090 C   0  0  0  0  0  0
   31.9200  -22.6810   24.9600 O   0  0  0  0  0  0
   31.4330  -21.1500   24.9770 P   0  0  1  0  0  0
   31.8540  -20.5150   26.2820 O   0  0  0  0  0  0
   32.0110  -20.3160   23.6260 O   0  5  0  0  0  0
   29.8420  -21.3790   24.8860 O   0  0  0  0  0  0
   28.7830  -20.1890   25.0920 P   0  0  1  0  0  0
   27.5290  -20.6920   25.7660 O   0  0  0  0  0  0
   29.5070  -18.9230   25.9590 O   0  5  0  0  0  0
   28.4540  -19.7660   23.5720 O   0  0  0  0  0  0
   27.0780  -20.2210   21.6350 C   0  0  0  0  0  0
   28.1060  -20.7590   22.6180 C   0  0  0  0  0  0
   26.7980  -21.3090   20.6050 C   0  0  0  0  0  0
   25.7950  -19.8430   22.3720 C   0  0  0  0  0  0
   27.6210  -18.9800   20.9270 C   0  0  1  0  0  0
   28.9410  -19.2030   20.3920 O   0  0  0  0  0  0
   26.6430  -18.6400   19.8370 C   0  0  0  0  0  0
   25.5290  -18.2210   20.1510 O   0  0  0  0  0  0
   27.0120  -18.7970   18.5550 N   0  0  0  0  0  0
   26.0230  -18.4800   17.5340 C   0  0  0  0  0  0
   26.5270  -17.8110   16.2590 C   0  0  0  0  0  0
   25.3180  -17.3890   15.4400 C   0  0  0  0  0  0
   24.1900  -17.6990   15.7790 O   0  0  0  0  0  0
   25.5540  -16.6800   14.3410 N   0  0  0  0  0  0
   24.4950  -16.2040   13.4650 C   0  0  0  0  0  0
   23.4590  -17.2640   13.1080 C   0  0  0  0  0  0
   22.5350  -16.7960   11.6230 S   0  0  0  0  0  0
   36.9357  -29.3525   22.9347 H   0  0  0  0  0  0
   36.0605  -28.2171   18.5294 H   0  0  0  0  0  0
   34.9631  -26.6649   18.6572 H   0  0  0  0  0  0
   33.1727  -24.0497   22.3234 H   0  0  0  0  0  0
   34.5915  -26.2401   25.2128 H   0  0  0  0  0  0
   34.6758  -23.2515   24.3417 H   0  0  0  0  0  0
   36.8227  -24.3372   24.4528 H   0  0  0  0  0  0
   33.9532  -22.7278   26.7069 H   0  0  0  0  0  0
   32.5200  -25.1646   27.1197 H   0  0  0  0  0  0
   30.6582  -23.9816   25.9777 H   0  0  0  0  0  0
   31.5790  -22.8309   27.0047 H   0  0  0  0  0  0
   29.0047  -21.0641   22.0619 H   0  0  0  0  0  0
   27.6811  -21.6317   23.1355 H   0  0  0  0  0  0
   26.4071  -22.2029   21.1130 H   0  0  0  0  0  0
   27.7296  -21.5642   20.0788 H   0  0  0  0  0  0
   26.0552  -20.9450   19.8799 H   0  0  0  0  0  0
   25.3933  -20.7284   22.8865 H   0  0  0  0  0  0
   25.0535  -19.4706   21.6499 H   0  0  0  0  0  0
   26.0141  -19.0577   23.1104 H   0  0  0  0  0  0
   27.7720  -18.1357   21.6158 H   0  0  0  0  0  0
   29.7710  -19.4620   21.0658 H   0  0  0  0  0  0
   28.0122  -19.1485   18.2616 H   0  0  0  0  0  0
   25.5272  -19.4049   17.2041 H   0  0  0  0  0  0
   25.2737  -17.7909   17.9507 H   0  0  0  0  0  0
   27.1335  -16.9317   16.5215 H   0  0  0  0  0  0
   27.1416  -18.5236   15.6893 H   0  0  0  0  0  0
   26.6049  -16.4564   14.1052 H   0  0  0  0  0  0
   23.9578  -15.3782   13.9544 H   0  0  0  0  0  0
   24.9326  -15.8481   12.5206 H   0  0  0  0  0  0
   23.9649  -18.2226   12.9206 H   0  0  0  0  0  0
   22.7508  -17.3800   13.9416 H   0  0  0  0  0  0
   21.7478  -17.4583   11.2335 H   0  0  0  0  0  0
  1  2  1  0  0  0
  1  6  2  0  0  0
  2  3  2  0  0  0
  2 49  1  0  0  0
  3  4  1  0  0  0
  4  5  2  0  0  0
  4 10  1  0  0  0
  5  6  1  0  0  0
  5  8  1  0  0  0
  6  7  1  0  0  0
  7 50  1  0  0  0
  7 51  1  0  0  0
  8  9  2  0  0  0
  9 10  1  0  0  0
  9 52  1  0  0  0
 10 11  1  0  0  0
 11 12  1  0  0  0
 11 21  1  0  0  0
 11 53  1  0  0  0
 12 13  1  0  0  0
 12 14  1  0  0  0
 12 54  1  0  0  0
 13 55  1  0  0  0
 14 15  1  0  0  0
 14 20  1  0  0  0
 14 56  1  0  0  0
 15 16  1  0  0  0
 16 17  1  0  0  0
 16 18  1  0  0  0
 16 19  2  0  0  0
 20 21  1  0  0  0
 20 22  1  0  0  0
 20 57  1  0  0  0
 22 23  1  0  0  0
 22 58  1  0  0  0
 22 59  1  0  0  0
 23 24  1  0  0  0
 24 25  2  0  0  0
 24 26  1  0  0  0
 24 27  1  0  0  0
 27 28  1  0  0  0
 28 29  2  0  0  0
 28 30  1  0  0  0
 28 31  1  0  0  0
 31 33  1  0  0  0
 32 33  1  0  0  0
 32 34  1  0  0  0
 32 35  1  0  0  0
 32 36  1  0  0  0
 33 60  1  0  0  0
 33 61  1  0  0  0
 34 62  1  0  0  0
 34 63  1  0  0  0
 34 64  1  0  0  0
 35 65  1  0  0  0
 35 66  1  0  0  0
 35 67  1  0  0  0
 36 37  1  0  0  0
 36 38  1  0  0  0
 36 68  1  0  0  0
 37 69  1  0  0  0
 38 39  2  0  0  0
 38 40  1  0  0  0
 40 41  1  0  0  0
 40 70  1  0  0  0
 41 42  1  0  0  0
 41 71  1  0  0  0
 41 72  1  0  0  0
 42 43  1  0  0  0
 42 73  1  0  0  0
 42 74  1  0  0  0
 43 44  2  0  0  0
 43 45  1  0  0  0
 45 46  1  0  0  0
 45 75  1  0  0  0
 46 47  1  0  0  0
 46 76  1  0  0  0
 46 77  1  0  0  0
 47 48  1  0  0  0
 47 78  1  0  0  0
 47 79  1  0  0  0
 48 80  1  0  0  0
M  CHG  4  17  -1  18  -1  26  -1  30  -1
M  END
> <s_m_source_file>
../2wl4_ligand.sdf

> <i_m_source_file_index>
1

> <s_epik_input>
bjFbY0hdbmMoW05IMl0pYyhjMTIpbltjSF1uMltDQEhdM1tDQEhdKFtPSF0pW0NASF0oT1AoPU8pKFtPSF0pW09IXSlbQ0BIXShPMylbQ0gyXU9bUEBAXSg9TykoW09IXSlPW1BAQF0oPU8pKFtPSF0pT1tDSDJdQyhbQ0gzXSkoW0NIM10pW0NAQEhdKFtPSF0pQyg9TylbTkhdW0NIMl1bQ0gyXUMoPU8pW05IXVtDSDJdW0NIMl1bU0hd

> <s_epik_cmdline>
J2VwaWtfYXBwJywgJy1pbWFlJywgJ2xpZ2FuZF9wcm8ubWFlJywgJy1vbWFlJywgJ2xpZ2FuZF9wcmVwLm1hZScsICctbXMnLCAnMScsICctcGgnLCAnNycsICctcGh0JywgJzAuNScsICctbnQn

> <r_lp_tautomer_probability>
0.999997216410988

> <r_epik_Ionization_Penalty>
  0.0786

> <r_epik_Ionization_Penalty_Charging>
  0.0752

> <r_epik_Ionization_Penalty_Neutral>
  0.0034

> <r_epik_State_Penalty>
  0.0657

> <r_epik_Charging_Adjusted_Penalty>
0.140910501814439

> <i_epik_Tot_Q>
-4

> <i_epik_Tot_abs_Q>
4

> <s_epik_Chemistry_Notes>
This compound contains an acetal/aminal-like group ( X-CH(R)-Y where X, Y are N, S, or O) that may be acid/base labile, releasing an aldehyde.

$$$$
