2wl5_ligand
                    3D
 Schrodinger Suite 2020-3.
 80 82  0  0  1  0            999 V2000
    5.7620   28.3270   21.1490 N   0  0  0  0  0  0
    5.7250   28.4080   22.5040 C   0  0  0  0  0  0
    6.4000   27.4510   23.2580 N   0  0  0  0  0  0
    7.0720   26.4770   22.6500 C   0  0  0  0  0  0
    7.1080   26.3980   21.3080 C   0  0  0  0  0  0
    6.4290   27.3560   20.5580 C   0  0  0  0  0  0
    6.4320   27.2350   19.1160 N   0  0  0  0  0  0
    7.8780   25.2900   20.9370 N   0  0  0  0  0  0
    8.3400   24.6670   22.1240 C   0  0  0  0  0  0
    7.8580   25.3740   23.1500 N   0  0  0  0  0  0
    8.0690   25.0370   24.5430 C   0  0  1  0  0  0
    7.4040   23.9240   25.2750 C   0  0  2  0  0  0
    6.0100   23.7610   25.2070 O   0  0  0  0  0  0
    8.0900   23.9410   26.5890 C   0  0  2  0  0  0
    7.3910   24.4270   27.7040 O   0  0  0  0  0  0
    7.5370   23.6700   29.1510 P   0  0  0  0  0  0
    6.8280   24.5990   30.3220 O   0  5  0  0  0  0
    9.1400   23.4950   29.4930 O   0  5  0  0  0  0
    6.8630   22.3190   29.0770 O   0  0  0  0  0  0
    9.5390   24.3510   26.2600 C   0  0  2  0  0  0
    9.4470   25.1460   25.0140 O   0  0  0  0  0  0
   10.5880   23.2340   26.1160 C   0  0  0  0  0  0
   10.5480   22.5850   24.8560 O   0  0  0  0  0  0
   10.8910   20.9570   24.8940 P   0  0  1  0  0  0
    9.9960   20.2320   26.0800 O   0  5  0  0  0  0
   10.6810   20.2670   23.5720 O   0  0  0  0  0  0
   12.4990   20.8410   25.3190 O   0  0  0  0  0  0
   13.1450   19.3380   25.0500 P   0  0  1  0  0  0
   14.3710   19.0780   26.1230 O   0  5  0  0  0  0
   12.0340   18.3280   25.2270 O   0  0  0  0  0  0
   13.6470   19.2970   23.4570 O   0  0  0  0  0  0
   15.1020   20.2900   21.7590 C   0  0  0  0  0  0
   14.0050   20.5180   22.8130 C   0  0  0  0  0  0
   15.2400   21.4690   20.7910 C   0  0  0  0  0  0
   16.4110   20.0460   22.5130 C   0  0  0  0  0  0
   14.6700   18.9930   21.0370 C   0  0  1  0  0  0
   13.3420   18.9740   20.6090 O   0  0  0  0  0  0
   15.6140   18.6340   19.8720 C   0  0  0  0  0  0
   16.6980   18.1870   20.0930 O   0  0  0  0  0  0
   15.1730   19.0700   18.5330 N   0  0  0  0  0  0
   16.0670   18.8640   17.3840 C   0  0  0  0  0  0
   16.3060   17.3730   17.0700 C   0  0  0  0  0  0
   17.2840   17.0570   15.9280 C   0  0  0  0  0  0
   18.3030   17.6590   15.8280 O   0  0  0  0  0  0
   16.8590   16.1270   14.8790 N   0  0  0  0  0  0
   17.6730   15.9670   13.6890 C   0  0  0  0  0  0
   17.9920   17.2570   12.9420 C   0  0  0  0  0  0
   19.6310   17.2800   12.1570 S   0  0  0  0  0  0
    5.1747   29.2108   22.9948 H   0  0  0  0  0  0
    5.9036   27.9780   18.5006 H   0  0  0  0  0  0
    6.9627   26.4000   18.6352 H   0  0  0  0  0  0
    8.9693   23.7793   22.1874 H   0  0  0  0  0  0
    7.4240   25.8940   24.7871 H   0  0  0  0  0  0
    7.4472   22.9534   24.7591 H   0  0  0  0  0  0
    5.5047   23.7489   24.2300 H   0  0  0  0  0  0
    8.0215   22.9999   27.1543 H   0  0  0  0  0  0
    9.9313   24.9346   27.1059 H   0  0  0  0  0  0
   11.5953   23.6591   26.2374 H   0  0  0  0  0  0
   10.4174   22.4690   26.8878 H   0  0  0  0  0  0
   13.1213   20.9420   22.3137 H   0  0  0  0  0  0
   14.3805   21.2311   23.5617 H   0  0  0  0  0  0
   15.5479   22.3664   21.3477 H   0  0  0  0  0  0
   14.2734   21.6556   20.3003 H   0  0  0  0  0  0
   15.9979   21.2317   20.0299 H   0  0  0  0  0  0
   16.7164   20.9700   23.0259 H   0  0  0  0  0  0
   17.1939   19.7459   21.8009 H   0  0  0  0  0  0
   16.2637   19.2467   23.2542 H   0  0  0  0  0  0
   14.6283   18.1952   21.7931 H   0  0  0  0  0  0
   12.5328   19.2079   21.3164 H   0  0  0  0  0  0
   14.1907   19.5433   18.3877 H   0  0  0  0  0  0
   15.6271   19.3287   16.4893 H   0  0  0  0  0  0
   17.0444   19.3234   17.5929 H   0  0  0  0  0  0
   16.7139   16.8717   17.9601 H   0  0  0  0  0  0
   15.3537   16.9006   16.7872 H   0  0  0  0  0  0
   15.9281   15.5516   14.9901 H   0  0  0  0  0  0
   18.6387   15.5171   13.9631 H   0  0  0  0  0  0
   17.1531   15.3120   12.9744 H   0  0  0  0  0  0
   17.2507   17.4116   12.1442 H   0  0  0  0  0  0
   17.9587   18.1043   13.6427 H   0  0  0  0  0  0
   19.9583   18.1658   11.5929 H   0  0  0  0  0  0
  1  2  1  0  0  0
  1  6  2  0  0  0
  2  3  2  0  0  0
  2 49  1  0  0  0
  3  4  1  0  0  0
  4  5  2  0  0  0
  4 10  1  0  0  0
  5  6  1  0  0  0
  5  8  1  0  0  0
  6  7  1  0  0  0
  7 50  1  0  0  0
  7 51  1  0  0  0
  8  9  2  0  0  0
  9 10  1  0  0  0
  9 52  1  0  0  0
 10 11  1  0  0  0
 11 12  1  0  0  0
 11 21  1  0  0  0
 11 53  1  0  0  0
 12 13  1  0  0  0
 12 14  1  0  0  0
 12 54  1  0  0  0
 13 55  1  0  0  0
 14 15  1  0  0  0
 14 20  1  0  0  0
 14 56  1  0  0  0
 15 16  1  0  0  0
 16 17  1  0  0  0
 16 18  1  0  0  0
 16 19  2  0  0  0
 20 21  1  0  0  0
 20 22  1  0  0  0
 20 57  1  0  0  0
 22 23  1  0  0  0
 22 58  1  0  0  0
 22 59  1  0  0  0
 23 24  1  0  0  0
 24 25  1  0  0  0
 24 26  2  0  0  0
 24 27  1  0  0  0
 27 28  1  0  0  0
 28 29  1  0  0  0
 28 30  2  0  0  0
 28 31  1  0  0  0
 31 33  1  0  0  0
 32 33  1  0  0  0
 32 34  1  0  0  0
 32 35  1  0  0  0
 32 36  1  0  0  0
 33 60  1  0  0  0
 33 61  1  0  0  0
 34 62  1  0  0  0
 34 63  1  0  0  0
 34 64  1  0  0  0
 35 65  1  0  0  0
 35 66  1  0  0  0
 35 67  1  0  0  0
 36 37  1  0  0  0
 36 38  1  0  0  0
 36 68  1  0  0  0
 37 69  1  0  0  0
 38 39  2  0  0  0
 38 40  1  0  0  0
 40 41  1  0  0  0
 40 70  1  0  0  0
 41 42  1  0  0  0
 41 71  1  0  0  0
 41 72  1  0  0  0
 42 43  1  0  0  0
 42 73  1  0  0  0
 42 74  1  0  0  0
 43 44  2  0  0  0
 43 45  1  0  0  0
 45 46  1  0  0  0
 45 75  1  0  0  0
 46 47  1  0  0  0
 46 76  1  0  0  0
 46 77  1  0  0  0
 47 48  1  0  0  0
 47 78  1  0  0  0
 47 79  1  0  0  0
 48 80  1  0  0  0
M  CHG  4  17  -1  18  -1  25  -1  29  -1
M  END
> <s_m_source_file>
../2wl5_ligand.sdf

> <i_m_source_file_index>
1

> <s_epik_input>
bjFbY0hdbmMoW05IMl0pYyhjMTIpbltjSF1uMltDQEhdM1tDQEhdKFtPSF0pW0NASF0oT1AoPU8pKFtPSF0pW09IXSlbQ0BIXShPMylbQ0gyXU9bUEBdKD1PKShbT0hdKU9bUEBdKD1PKShbT0hdKU9bQ0gyXUMoW0NIM10pKFtDSDNdKVtDQEBIXShbT0hdKUMoPU8pW05IXVtDSDJdW0NIMl1DKD1PKVtOSF1bQ0gyXVtDSDJdW1NIXQ==

> <s_epik_cmdline>
J2VwaWtfYXBwJywgJy1pbWFlJywgJ2xpZ2FuZF9wcm8ubWFlJywgJy1vbWFlJywgJ2xpZ2FuZF9wcmVwLm1hZScsICctbXMnLCAnMScsICctcGgnLCAnNycsICctcGh0JywgJzAuNScsICctbnQn

> <r_lp_tautomer_probability>
0.999997216410988

> <r_epik_Ionization_Penalty>
  0.0786

> <r_epik_Ionization_Penalty_Charging>
  0.0752

> <r_epik_Ionization_Penalty_Neutral>
  0.0034

> <r_epik_State_Penalty>
  0.0657

> <r_epik_Charging_Adjusted_Penalty>
0.140910501814439

> <i_epik_Tot_Q>
-4

> <i_epik_Tot_abs_Q>
4

> <s_epik_Chemistry_Notes>
This compound contains an acetal/aminal-like group ( X-CH(R)-Y where X, Y are N, S, or O) that may be acid/base labile, releasing an aldehyde.

$$$$
