2wly_ligand
                    3D
 Schrodinger Suite 2020-3.
 54 56  0  0  1  0            999 V2000
   28.1140   73.5570   -4.2230 C   0  0  1  0  0  0
   29.2080   77.2730   -5.7190 S   0  0  0  0  0  0
   28.3700   74.3420   -5.5300 C   0  0  1  0  0  0
   28.2920   73.3820   -6.7470 C   0  0  2  0  0  0
   29.1390   72.1230   -6.4910 C   0  0  1  0  0  0
   28.9020   71.4690   -5.1250 C   0  0  1  0  0  0
   29.8650   70.2980   -4.8730 C   0  0  0  0  0  0
   27.6130   76.7020   -5.7060 C   0  0  0  0  0  0
   26.4550   77.6750   -5.8250 C   0  0  0  0  0  0
   27.3350   75.3660   -5.6220 N   0  0  0  0  0  0
   29.0150   73.9200   -7.8420 O   0  0  0  0  0  0
   28.7560   71.2220   -7.4810 O   0  0  0  0  0  0
   29.0280   72.4440   -4.0960 O   0  0  0  0  0  0
   29.4780   69.5060   -3.7380 O   0  0  0  0  0  0
   27.8580   74.6070    0.8840 C   0  0  1  0  0  0
   27.8620   73.1010    0.5680 C   0  0  1  0  0  0
   28.5030   73.0640   -0.8470 C   0  0  2  0  0  0
   27.8500   74.0390   -1.8920 C   0  0  1  0  0  0
   27.8180   75.4690   -1.4020 C   0  0  1  0  0  0
   27.0860   76.4740   -2.2830 C   0  0  0  0  0  0
   29.7150   73.3520    1.9800 C   0  0  0  0  0  0
   30.8720   72.8570    2.8080 C   0  0  0  0  0  0
   28.9210   72.5390    1.3980 N   0  0  0  0  0  0
   29.3770   74.9730    1.7370 S   0  0  0  0  0  0
   28.5340   71.7430   -1.4360 O   0  0  0  0  0  0
   28.5970   74.1480   -3.1200 O   0  0  0  0  0  0
   27.2890   75.5140   -0.0890 O   0  0  0  0  0  0
   25.7120   76.4000   -1.9740 O   0  0  0  0  0  0
   27.0288   73.3843   -4.1725 H   0  0  0  0  0  0
   29.3433   74.8546   -5.5286 H   0  0  0  0  0  0
   27.2304   73.2280   -6.9905 H   0  0  0  0  0  0
   30.2138   72.3399   -6.5789 H   0  0  0  0  0  0
   27.8642   71.1105   -5.0585 H   0  0  0  0  0  0
   29.8828   69.6415   -5.7554 H   0  0  0  0  0  0
   30.8762   70.6885   -4.6861 H   0  0  0  0  0  0
   26.8438   78.7024   -5.8822 H   0  0  0  0  0  0
   25.8028   77.5782   -4.9445 H   0  0  0  0  0  0
   25.8789   77.4498   -6.7346 H   0  0  0  0  0  0
   26.2738   75.0766   -5.6260 H   0  0  0  0  0  0
   28.6865   74.8601   -8.3093 H   0  0  0  0  0  0
   28.8469   71.4989   -8.5417 H   0  0  0  0  0  0
   30.0810   68.6341   -3.4444 H   0  0  0  0  0  0
   26.8813   74.8455    1.3304 H   0  0  0  0  0  0
   26.9013   72.5873    0.7204 H   0  0  0  0  0  0
   29.5566   73.3218   -0.6643 H   0  0  0  0  0  0
   26.8542   73.6285   -2.1155 H   0  0  0  0  0  0
   28.8678   75.7936   -1.3525 H   0  0  0  0  0  0
   27.4681   77.4855   -2.0808 H   0  0  0  0  0  0
   27.2527   76.2238   -3.3411 H   0  0  0  0  0  0
   30.8761   71.7570    2.8117 H   0  0  0  0  0  0
   30.7698   73.2268    3.8389 H   0  0  0  0  0  0
   31.8149   73.2257    2.3779 H   0  0  0  0  0  0
   28.9549   70.8985   -0.8707 H   0  0  0  0  0  0
   24.9945   77.0474   -2.4994 H   0  0  0  0  0  0
  1  3  1  0  0  0
  1 13  1  0  0  0
  1 26  1  0  0  0
  1 29  1  0  0  0
  2  8  2  0  0  0
  3  4  1  0  0  0
  3 10  1  0  0  0
  3 30  1  0  0  0
  4  5  1  0  0  0
  4 11  1  0  0  0
  4 31  1  0  0  0
  5  6  1  0  0  0
  5 12  1  0  0  0
  5 32  1  0  0  0
  6  7  1  0  0  0
  6 13  1  0  0  0
  6 33  1  0  0  0
  7 14  1  0  0  0
  7 34  1  0  0  0
  7 35  1  0  0  0
  8  9  1  0  0  0
  8 10  1  0  0  0
  9 36  1  0  0  0
  9 37  1  0  0  0
  9 38  1  0  0  0
 10 39  1  0  0  0
 11 40  1  0  0  0
 12 41  1  0  0  0
 14 42  1  0  0  0
 15 16  1  0  0  0
 15 24  1  0  0  0
 15 27  1  0  0  0
 15 43  1  0  0  0
 16 17  1  0  0  0
 16 23  1  0  0  0
 16 44  1  0  0  0
 17 18  1  0  0  0
 17 25  1  0  0  0
 17 45  1  0  0  0
 18 19  1  0  0  0
 18 26  1  0  0  0
 18 46  1  0  0  0
 19 20  1  0  0  0
 19 27  1  0  0  0
 19 47  1  0  0  0
 20 28  1  0  0  0
 20 48  1  0  0  0
 20 49  1  0  0  0
 21 22  1  0  0  0
 21 23  2  0  0  0
 21 24  1  0  0  0
 22 50  1  0  0  0
 22 51  1  0  0  0
 22 52  1  0  0  0
 25 53  1  0  0  0
 28 54  1  0  0  0
M  END
> <s_m_source_file>
../2wly_ligand.sdf

> <i_m_source_file_index>
1

> <s_epik_input>
W09IXVtDSDJdW0NAQEhdKE8xKVtDQEBIXShbT0hdKVtDQEhdKFtPSF0pW0NAQEhdKFtOSF1DKD1TKVtDSDNdKVtDQEBIXTFPW0NASF0oW0NASF0oTzIpW0NIMl1bT0hdKVtDQEhdKFtPSF0pW0NASF0oW0NASF0yMylOPUMoUzMpW0NIM10=

> <s_epik_cmdline>
J2VwaWtfYXBwJywgJy1pbWFlJywgJ2xpZ2FuZF9wcm8ubWFlJywgJy1vbWFlJywgJ2xpZ2FuZF9wcmVwLm1hZScsICctbXMnLCAnMScsICctcGgnLCAnNycsICctcGh0JywgJzAuNScsICctbnQn

> <r_lp_tautomer_probability>
1

> <r_epik_Ionization_Penalty>
  0.0003

> <r_epik_Ionization_Penalty_Charging>
  0.0000

> <r_epik_Ionization_Penalty_Neutral>
  0.0003

> <r_epik_State_Penalty>
 -0.0000

> <r_epik_Charging_Adjusted_Penalty>
0

> <i_epik_Tot_Q>
0

> <i_epik_Tot_abs_Q>
0

> <s_epik_Chemistry_Notes>
This compound has an imine and may undergo hydrolysis. This compound contains an acetal/aminal-like group ( X-CH(R)-Y where X, Y are N, S, or O) that may be acid/base labile, releasing an aldehyde.

$$$$
