2wlz_ligand
                    3D
 Schrodinger Suite 2020-3.
 54 56  0  0  1  0            999 V2000
   28.2890   74.4350    1.0540 C   0  0  1  0  0  0
   28.3970   72.9490    0.6140 C   0  0  1  0  0  0
   28.9560   72.9300   -0.8280 C   0  0  2  0  0  0
   28.2800   73.9850   -1.7740 C   0  0  1  0  0  0
   28.2890   75.4200   -1.1740 C   0  0  1  0  0  0
   27.5550   76.5210   -1.9730 C   0  0  0  0  0  0
   30.1390   73.2310    2.1350 C   0  0  0  0  0  0
   31.2910   72.7610    2.9300 C   0  0  0  0  0  0
   29.4890   72.4090    1.4180 N   0  0  0  0  0  0
   29.6930   74.8430    2.0740 S   0  0  0  0  0  0
   29.0590   71.5870   -1.3970 O   0  0  0  0  0  0
   29.0350   74.2340   -2.9690 O   0  0  0  0  0  0
   27.7510   75.4240    0.1440 O   0  0  0  0  0  0
   26.1420   76.3400   -1.8650 O   0  0  0  0  0  0
   28.7810   73.3230   -4.0570 C   0  0  1  0  0  0
   28.9960   74.1740   -5.3290 C   0  0  1  0  0  0
   28.9510   73.2960   -6.5970 C   0  0  2  0  0  0
   29.6420   71.9190   -6.4630 C   0  0  1  0  0  0
   29.4060   71.2720   -5.0800 C   0  0  1  0  0  0
   30.1730   69.9780   -4.7830 C   0  0  0  0  0  0
   28.5570   76.6610   -5.2310 C   0  0  0  0  0  0
   27.5530   77.7840   -5.2350 C   0  0  0  0  0  0
   28.1160   75.3690   -5.3450 N   0  0  0  0  0  0
   29.6630   73.9680   -7.5920 O   0  0  0  0  0  0
   29.1540   71.1020   -7.5040 O   0  0  0  0  0  0
   29.6740   72.2110   -4.0500 O   0  0  0  0  0  0
   29.7600   69.6080   -3.4870 O   0  0  0  0  0  0
   29.7220   77.0130   -5.1310 O   0  0  0  0  0  0
   27.2511   74.5298    1.4057 H   0  0  0  0  0  0
   27.4597   72.3859    0.7343 H   0  0  0  0  0  0
   30.0241   73.1838   -0.7591 H   0  0  0  0  0  0
   27.2962   73.5553   -2.0138 H   0  0  0  0  0  0
   29.3522   75.6939   -1.1068 H   0  0  0  0  0  0
   27.8261   77.5083   -1.5709 H   0  0  0  0  0  0
   27.8483   76.4631   -3.0316 H   0  0  0  0  0  0
   31.3927   71.6713    2.8193 H   0  0  0  0  0  0
   31.1306   73.0085    3.9897 H   0  0  0  0  0  0
   32.2079   73.2530    2.5732 H   0  0  0  0  0  0
   29.5177   70.7758   -0.8126 H   0  0  0  0  0  0
   25.4580   77.0356   -2.3732 H   0  0  0  0  0  0
   27.7950   72.8525   -3.9289 H   0  0  0  0  0  0
   29.9921   74.6406   -5.3185 H   0  0  0  0  0  0
   27.8990   73.1703   -6.8927 H   0  0  0  0  0  0
   30.7283   71.9858   -6.6227 H   0  0  0  0  0  0
   28.3349   71.0259   -5.0328 H   0  0  0  0  0  0
   29.9082   69.2151   -5.5299 H   0  0  0  0  0  0
   31.2544   70.1744   -4.8271 H   0  0  0  0  0  0
   26.5387   77.3687   -5.3283 H   0  0  0  0  0  0
   27.7548   78.4532   -6.0844 H   0  0  0  0  0  0
   27.6324   78.3501   -4.2952 H   0  0  0  0  0  0
   27.0280   75.2494   -5.4543 H   0  0  0  0  0  0
   29.3702   74.9871   -7.8849 H   0  0  0  0  0  0
   29.2493   71.4285   -8.5501 H   0  0  0  0  0  0
   30.1644   68.6980   -3.0197 H   0  0  0  0  0  0
  1  2  1  0  0  0
  1 10  1  0  0  0
  1 13  1  0  0  0
  1 29  1  0  0  0
  2  3  1  0  0  0
  2  9  1  0  0  0
  2 30  1  0  0  0
  3  4  1  0  0  0
  3 11  1  0  0  0
  3 31  1  0  0  0
  4  5  1  0  0  0
  4 12  1  0  0  0
  4 32  1  0  0  0
  5  6  1  0  0  0
  5 13  1  0  0  0
  5 33  1  0  0  0
  6 14  1  0  0  0
  6 34  1  0  0  0
  6 35  1  0  0  0
  7  8  1  0  0  0
  7  9  2  0  0  0
  7 10  1  0  0  0
  8 36  1  0  0  0
  8 37  1  0  0  0
  8 38  1  0  0  0
 11 39  1  0  0  0
 12 15  1  0  0  0
 14 40  1  0  0  0
 15 16  1  0  0  0
 15 26  1  0  0  0
 15 41  1  0  0  0
 16 17  1  0  0  0
 16 23  1  0  0  0
 16 42  1  0  0  0
 17 18  1  0  0  0
 17 24  1  0  0  0
 17 43  1  0  0  0
 18 19  1  0  0  0
 18 25  1  0  0  0
 18 44  1  0  0  0
 19 20  1  0  0  0
 19 26  1  0  0  0
 19 45  1  0  0  0
 20 27  1  0  0  0
 20 46  1  0  0  0
 20 47  1  0  0  0
 21 22  1  0  0  0
 21 23  1  0  0  0
 21 28  2  0  0  0
 22 48  1  0  0  0
 22 49  1  0  0  0
 22 50  1  0  0  0
 23 51  1  0  0  0
 24 52  1  0  0  0
 25 53  1  0  0  0
 27 54  1  0  0  0
M  END
> <s_m_source_file>
../2wlz_ligand.sdf

> <i_m_source_file_index>
1

> <s_epik_input>
W0NIM11DKFMxKT1OW0NAQEhdKFtDQEBIXTEyKVtDQEBIXShbT0hdKVtDQEBIXShbQ0BIXShPMilbQ0gyXVtPSF0pT1tDQEhdM1tDQEhdKFtOSF1DKD1PKVtDSDNdKVtDQEBIXShbT0hdKVtDQEhdKFtPSF0pW0NASF0oTzMpW0NIMl1bT0hd

> <s_epik_cmdline>
J2VwaWtfYXBwJywgJy1pbWFlJywgJ2xpZ2FuZF9wcm8ubWFlJywgJy1vbWFlJywgJ2xpZ2FuZF9wcmVwLm1hZScsICctbXMnLCAnMScsICctcGgnLCAnNycsICctcGh0JywgJzAuNScsICctbnQn

> <r_lp_tautomer_probability>
1

> <r_epik_Ionization_Penalty>
  0.0003

> <r_epik_Ionization_Penalty_Charging>
  0.0000

> <r_epik_Ionization_Penalty_Neutral>
  0.0003

> <r_epik_State_Penalty>
 -0.0000

> <r_epik_Charging_Adjusted_Penalty>
0

> <i_epik_Tot_Q>
0

> <i_epik_Tot_abs_Q>
0

> <s_epik_Chemistry_Notes>
This compound has an imine and may undergo hydrolysis. This compound contains an acetal/aminal-like group ( X-CH(R)-Y where X, Y are N, S, or O) that may be acid/base labile, releasing an aldehyde.

$$$$
