2wm0_ligand
                    3D
 Schrodinger Suite 2020-3.
 81 84  0  0  1  0            999 V2000
   31.1540   71.3070   -8.2240 C   0  0  1  0  0  0
   31.7290   69.9540   -8.6280 C   0  0  1  0  0  0
   32.7490   70.1670   -9.7440 C   0  0  2  0  0  0
   32.1770   70.9380  -10.9320 C   0  0  1  0  0  0
   31.4960   72.1930  -10.4630 C   0  0  1  0  0  0
   30.7140   72.7220  -11.6570 C   0  0  0  0  0  0
   31.9810   68.1480   -6.9630 C   0  0  0  0  0  0
   32.8550   67.5040   -5.8940 C   0  0  0  0  0  0
   32.4460   69.2810   -7.5460 N   0  0  0  0  0  0
   33.1930   68.9270  -10.2000 O   0  0  0  0  0  0
   33.1470   71.2380  -11.9300 O   0  0  0  0  0  0
   30.6040   71.9210   -9.3900 O   0  0  0  0  0  0
   29.8620   73.7690  -11.2290 O   0  0  0  0  0  0
   30.8710   67.6550   -7.2440 O   0  0  0  0  0  0
   28.7040   73.2640   -4.0500 C   0  0  1  0  0  0
   29.2040   74.1810   -5.1900 C   0  0  1  0  0  0
   29.3420   73.3310   -6.4570 C   0  0  2  0  0  0
   30.0760   71.9930   -6.1790 C   0  0  1  0  0  0
   29.4860   71.2600   -4.9710 C   0  0  1  0  0  0
   30.2630   70.0140   -4.5610 C   0  0  0  0  0  0
   28.6130   76.6030   -5.2760 C   0  0  0  0  0  0
   27.4970   77.6030   -5.4940 C   0  0  0  0  0  0
   28.2780   75.2900   -5.3750 N   0  0  0  0  0  0
   30.1200   74.0900   -7.3290 O   0  0  0  0  0  0
   30.1190   71.0970   -7.2570 O   0  0  0  0  0  0
   29.6200   72.1750   -3.9050 O   0  0  0  0  0  0
   29.6330   69.5210   -3.4030 O   0  0  0  0  0  0
   29.7380   77.0180   -5.0270 O   0  0  0  0  0  0
   28.2810   74.3900    1.1040 C   0  0  1  0  0  0
   28.4020   72.8820    0.7470 C   0  0  1  0  0  0
   28.9590   72.8340   -0.7150 C   0  0  2  0  0  0
   28.3160   73.8900   -1.6860 C   0  0  1  0  0  0
   28.3430   75.3050   -1.0850 C   0  0  1  0  0  0
   27.6030   76.3800   -1.8970 C   0  0  0  0  0  0
   30.2180   73.2590    2.1760 C   0  0  0  0  0  0
   31.4180   72.8250    2.9670 C   0  0  0  0  0  0
   29.5250   72.3990    1.5540 N   0  0  0  0  0  0
   29.7320   74.8780    2.0140 S   0  0  0  0  0  0
   29.0800   71.5080   -1.3210 O   0  0  0  0  0  0
   29.0290   74.1080   -2.9200 O   0  0  0  0  0  0
   27.7370   75.3140    0.1810 O   0  0  0  0  0  0
   26.2010   76.1340   -1.7800 O   0  0  0  0  0  0
   31.8891   71.9977   -7.7851 H   0  0  0  0  0  0
   30.8833   69.3041   -8.8973 H   0  0  0  0  0  0
   33.6284   70.6895   -9.3395 H   0  0  0  0  0  0
   31.4692   70.2935  -11.4738 H   0  0  0  0  0  0
   32.2116   72.9122  -10.0378 H   0  0  0  0  0  0
   31.4147   73.1027  -12.4147 H   0  0  0  0  0  0
   30.1117   71.9097  -12.0899 H   0  0  0  0  0  0
   33.7878   68.0774   -5.7886 H   0  0  0  0  0  0
   33.0911   66.4704   -6.1872 H   0  0  0  0  0  0
   32.3171   67.4992   -4.9345 H   0  0  0  0  0  0
   33.3975   69.6920   -7.1777 H   0  0  0  0  0  0
   33.6436   68.2114   -9.4965 H   0  0  0  0  0  0
   33.7391   70.4288  -12.3824 H   0  0  0  0  0  0
   29.2125   74.2809  -11.9544 H   0  0  0  0  0  0
   27.6805   72.8689   -4.1294 H   0  0  0  0  0  0
   30.1615   74.6702   -4.9580 H   0  0  0  0  0  0
   28.3693   73.1391   -6.9334 H   0  0  0  0  0  0
   31.1419   72.2351   -6.0558 H   0  0  0  0  0  0
   28.4389   70.9796   -5.1580 H   0  0  0  0  0  0
   30.2276   69.2754   -5.3753 H   0  0  0  0  0  0
   31.3094   70.2850   -4.3570 H   0  0  0  0  0  0
   26.5602   77.0666   -5.7053 H   0  0  0  0  0  0
   27.7478   78.2524   -6.3457 H   0  0  0  0  0  0
   27.3724   78.2163   -4.5894 H   0  0  0  0  0  0
   27.2226   75.0914   -5.6132 H   0  0  0  0  0  0
   29.7734   75.0823   -7.6534 H   0  0  0  0  0  0
   30.0165   68.6146   -2.9117 H   0  0  0  0  0  0
   27.2500   74.4863    1.4751 H   0  0  0  0  0  0
   27.4819   72.3054    0.9229 H   0  0  0  0  0  0
   30.0306   73.0545   -0.6008 H   0  0  0  0  0  0
   27.3257   73.4768   -1.9280 H   0  0  0  0  0  0
   29.4066   75.5614   -0.9711 H   0  0  0  0  0  0
   27.8488   77.3751   -1.4977 H   0  0  0  0  0  0
   27.9124   76.3212   -2.9509 H   0  0  0  0  0  0
   31.5152   71.7305    2.9149 H   0  0  0  0  0  0
   31.2965   73.1328    4.0161 H   0  0  0  0  0  0
   32.3214   73.2937    2.5496 H   0  0  0  0  0  0
   29.5150   70.6778   -0.7452 H   0  0  0  0  0  0
   25.4826   76.7931   -2.2894 H   0  0  0  0  0  0
  1  2  1  0  0  0
  1 12  1  0  0  0
  1 25  1  0  0  0
  1 43  1  0  0  0
  2  3  1  0  0  0
  2  9  1  0  0  0
  2 44  1  0  0  0
  3  4  1  0  0  0
  3 10  1  0  0  0
  3 45  1  0  0  0
  4  5  1  0  0  0
  4 11  1  0  0  0
  4 46  1  0  0  0
  5  6  1  0  0  0
  5 12  1  0  0  0
  5 47  1  0  0  0
  6 13  1  0  0  0
  6 48  1  0  0  0
  6 49  1  0  0  0
  7  8  1  0  0  0
  7  9  1  0  0  0
  7 14  2  0  0  0
  8 50  1  0  0  0
  8 51  1  0  0  0
  8 52  1  0  0  0
  9 53  1  0  0  0
 10 54  1  0  0  0
 11 55  1  0  0  0
 13 56  1  0  0  0
 15 16  1  0  0  0
 15 26  1  0  0  0
 15 40  1  0  0  0
 15 57  1  0  0  0
 16 17  1  0  0  0
 16 23  1  0  0  0
 16 58  1  0  0  0
 17 18  1  0  0  0
 17 24  1  0  0  0
 17 59  1  0  0  0
 18 19  1  0  0  0
 18 25  1  0  0  0
 18 60  1  0  0  0
 19 20  1  0  0  0
 19 26  1  0  0  0
 19 61  1  0  0  0
 20 27  1  0  0  0
 20 62  1  0  0  0
 20 63  1  0  0  0
 21 22  1  0  0  0
 21 23  1  0  0  0
 21 28  2  0  0  0
 22 64  1  0  0  0
 22 65  1  0  0  0
 22 66  1  0  0  0
 23 67  1  0  0  0
 24 68  1  0  0  0
 27 69  1  0  0  0
 29 30  1  0  0  0
 29 38  1  0  0  0
 29 41  1  0  0  0
 29 70  1  0  0  0
 30 31  1  0  0  0
 30 37  1  0  0  0
 30 71  1  0  0  0
 31 32  1  0  0  0
 31 39  1  0  0  0
 31 72  1  0  0  0
 32 33  1  0  0  0
 32 40  1  0  0  0
 32 73  1  0  0  0
 33 34  1  0  0  0
 33 41  1  0  0  0
 33 74  1  0  0  0
 34 42  1  0  0  0
 34 75  1  0  0  0
 34 76  1  0  0  0
 35 36  1  0  0  0
 35 37  2  0  0  0
 35 38  1  0  0  0
 36 77  1  0  0  0
 36 78  1  0  0  0
 36 79  1  0  0  0
 39 80  1  0  0  0
 42 81  1  0  0  0
M  END
> <s_m_source_file>
../2wm0_ligand.sdf

> <i_m_source_file_index>
1

> <s_epik_input>
W09IXVtDSDJdW0NAQEhdKE8xKVtDQEBIXShbT0hdKVtDQEhdKFtPSF0pW0NAQEhdKFtOSF1DKD1PKVtDSDNdKVtDQEBIXTFPW0NASF0oW0NASF0oTzIpW0NIMl1bT0hdKVtDQEhdKFtPSF0pW0NAQEhdKFtOSF1DKD1PKVtDSDNdKVtDQEBIXTJPW0NASF0oW0NASF0oTzMpW0NIMl1bT0hdKVtDQEhdKFtPSF0pW0NASF0oW0NASF0zNClOPUMoUzQpW0NIM10=

> <s_epik_cmdline>
J2VwaWtfYXBwJywgJy1pbWFlJywgJ2xpZ2FuZF9wcm8ubWFlJywgJy1vbWFlJywgJ2xpZ2FuZF9wcmVwLm1hZScsICctbXMnLCAnMScsICctcGgnLCAnNycsICctcGh0JywgJzAuNScsICctbnQn

> <r_lp_tautomer_probability>
1

> <r_epik_Ionization_Penalty>
  0.0003

> <r_epik_Ionization_Penalty_Charging>
  0.0000

> <r_epik_Ionization_Penalty_Neutral>
  0.0003

> <r_epik_State_Penalty>
 -0.0000

> <r_epik_Charging_Adjusted_Penalty>
0

> <i_epik_Tot_Q>
0

> <i_epik_Tot_abs_Q>
0

> <s_epik_Chemistry_Notes>
This compound has an imine and may undergo hydrolysis. This compound contains an acetal/aminal-like group ( X-CH(R)-Y where X, Y are N, S, or O) that may be acid/base labile, releasing an aldehyde.

$$$$
