2wmr_ligand
                    3D
 Schrodinger Suite 2020-3.
 24 26  0  0  1  0            999 V2000
   13.0010    0.1900    6.1130 O   0  0  0  0  0  0
   12.0620   -0.3060    6.7290 C   0  0  0  0  0  0
   12.2510   -1.4270    7.5230 C   0  0  0  0  0  0
   13.4300   -2.1300    7.8200 C   0  0  0  0  0  0
   14.8020   -1.9610    7.2260 C   0  0  0  0  0  0
   16.0810   -2.5240    7.9160 C   0  0  0  0  0  0
   15.7590   -4.0170    8.0060 C   0  0  0  0  0  0
   14.5060   -4.0160    8.9270 C   0  0  0  0  0  0
   13.2590   -3.2600    8.5660 C   0  0  0  0  0  0
   11.6730   -3.2760    9.0630 S   0  0  0  0  0  0
   11.1420   -1.9420    8.1990 C   0  0  0  0  0  0
    9.9330   -1.3780    8.0910 N   0  0  0  0  0  0
    9.7380   -0.3140    7.3430 C   0  0  0  0  0  0
   10.7950    0.2570    6.6370 N   0  0  0  0  0  0
   14.8326   -2.4342    6.2335 H   0  0  0  0  0  0
   15.0299   -0.8893    7.1284 H   0  0  0  0  0  0
   16.9599   -2.3086    7.2907 H   0  0  0  0  0  0
   16.2060   -2.0489    8.9002 H   0  0  0  0  0  0
   15.5557   -4.4096    6.9988 H   0  0  0  0  0  0
   16.6161   -4.5514    8.4416 H   0  0  0  0  0  0
   14.1429   -5.0466    9.0532 H   0  0  0  0  0  0
   14.7731   -3.5985    9.9090 H   0  0  0  0  0  0
    8.7424    0.1244    7.2748 H   0  0  0  0  0  0
   10.6325    1.1464    6.0105 H   0  0  0  0  0  0
  1  2  2  0  0  0
  2  3  1  0  0  0
  2 14  1  0  0  0
  3  4  1  0  0  0
  3 11  2  0  0  0
  4  5  1  0  0  0
  4  9  2  0  0  0
  5  6  1  0  0  0
  5 15  1  0  0  0
  5 16  1  0  0  0
  6  7  1  0  0  0
  6 17  1  0  0  0
  6 18  1  0  0  0
  7  8  1  0  0  0
  7 19  1  0  0  0
  7 20  1  0  0  0
  8  9  1  0  0  0
  8 21  1  0  0  0
  8 22  1  0  0  0
  9 10  1  0  0  0
 10 11  1  0  0  0
 11 12  1  0  0  0
 12 13  2  0  0  0
 13 14  1  0  0  0
 13 23  1  0  0  0
 14 24  1  0  0  0
M  END
> <s_m_source_file>
../2wmr_ligand.sdf

> <i_m_source_file_index>
1

> <s_epik_input>
Tz1jMVtuSF1bY0hdbmMyc2MoYzNjMTIpW0NIMl1bQ0gyXVtDSDJdW0NIMl0z

> <s_epik_cmdline>
J2VwaWtfYXBwJywgJy1pbWFlJywgJ2xpZ2FuZF9wcm8ubWFlJywgJy1vbWFlJywgJ2xpZ2FuZF9wcmVwLm1hZScsICctbXMnLCAnMScsICctcGgnLCAnNycsICctcGh0JywgJzAuNScsICctbnQn

> <r_lp_tautomer_probability>
1

> <r_epik_Ionization_Penalty>
  0.0003

> <r_epik_Ionization_Penalty_Charging>
  0.0003

> <r_epik_Ionization_Penalty_Neutral>
  0.0000

> <r_epik_State_Penalty>
 -0.0000

> <r_epik_Charging_Adjusted_Penalty>
0.000299228176666875

> <i_epik_Tot_Q>
0

> <i_epik_Tot_abs_Q>
0

$$$$
