2wmu_ligand
                    3D
 Schrodinger Suite 2020-3.
 26 28  0  0  1  0            999 V2000
   14.5360   -3.3190    9.0330 C   0  0  0  0  0  0
   14.3770   -4.8290    8.9910 C   0  0  0  0  0  0
   13.3390   -5.3460    9.8410 O   0  0  0  0  0  0
   12.1420   -4.7290    9.3330 C   0  0  0  0  0  0
   12.1560   -3.2090    9.4020 C   0  0  0  0  0  0
   13.1720   -1.6050    7.7920 C   0  0  0  0  0  0
   14.2450   -1.0080    7.2690 N   0  0  0  0  0  0
   14.0990    0.0540    6.5030 C   0  0  0  0  0  0
   12.9160    0.5840    6.2730 N   0  0  0  0  0  0
   11.8140    0.0530    6.8010 C   0  0  0  0  0  0
   11.9240   -1.0590    7.5900 C   0  0  0  0  0  0
   10.7100   -1.3910    7.9900 N   0  0  0  0  0  0
    9.8560   -0.5220    7.4730 C   0  0  0  0  0  0
   10.5280    0.3620    6.7470 N   0  3  0  0  0  0
   13.2830   -2.6980    8.6270 N   0  0  0  0  0  0
   14.7906   -3.0055   10.0562 H   0  0  0  0  0  0
   15.3397   -3.0157    8.3459 H   0  0  0  0  0  0
   14.1351   -5.1438    7.9652 H   0  0  0  0  0  0
   15.3160   -5.3056    9.3089 H   0  0  0  0  0  0
   12.0064   -5.0061    8.2771 H   0  0  0  0  0  0
   11.2757   -5.0737    9.9167 H   0  0  0  0  0  0
   11.2165   -2.8145    8.9875 H   0  0  0  0  0  0
   12.2567   -2.8904   10.4500 H   0  0  0  0  0  0
   14.9805    0.5055    6.0479 H   0  0  0  0  0  0
    8.7760   -0.5311    7.6199 H   0  0  0  0  0  0
   10.1956    1.2326    6.1626 H   0  0  0  0  0  0
  1  2  1  0  0  0
  1 15  1  0  0  0
  1 16  1  0  0  0
  1 17  1  0  0  0
  2  3  1  0  0  0
  2 18  1  0  0  0
  2 19  1  0  0  0
  3  4  1  0  0  0
  4  5  1  0  0  0
  4 20  1  0  0  0
  4 21  1  0  0  0
  5 15  1  0  0  0
  5 22  1  0  0  0
  5 23  1  0  0  0
  6  7  2  0  0  0
  6 11  1  0  0  0
  6 15  1  0  0  0
  7  8  1  0  0  0
  8  9  2  0  0  0
  8 24  1  0  0  0
  9 10  1  0  0  0
 10 11  2  0  0  0
 10 14  1  0  0  0
 11 12  1  0  0  0
 12 13  1  0  0  0
 13 14  2  0  0  0
 13 25  1  0  0  0
 14 26  1  0  0  0
M  CHG  1  14   1
M  END
> <s_m_source_file>
../2wmu_ligand.sdf

> <i_m_source_file_index>
1

> <s_epik_input>
W0NIMl0xW0NIMl1PW0NIMl1bQ0gyXU4xYyhuW2NIXW4yKWMoYzIzKVtuSF1bY0hdbjM=

> <s_epik_cmdline>
J2VwaWtfYXBwJywgJy1pbWFlJywgJ2xpZ2FuZF9wcm8ubWFlJywgJy1vbWFlJywgJ2xpZ2FuZF9wcmVwLm1hZScsICctbXMnLCAnMScsICctcGgnLCAnNycsICctcGh0JywgJzAuNScsICctbnQn

> <r_epik_Ionization_Penalty>
  0.0319

> <r_epik_Ionization_Penalty_Charging>
  0.0000

> <r_epik_Ionization_Penalty_Neutral>
  0.0319

> <r_epik_State_Penalty>
  0.2308

> <r_epik_Charging_Adjusted_Penalty>
0.230817539262109

> <i_epik_Tot_Q>
1

> <i_epik_Tot_abs_Q>
1

$$$$
