2wmv_ligand
                    3D
 Schrodinger Suite 2020-3.
 31 33  0  0  1  0            999 V2000
   12.1790   -1.6350    7.5780 C   0  0  0  0  0  0
   11.0220   -1.9050    8.1590 N   0  0  0  0  0  0
   10.1690   -0.9350    7.8400 C   0  0  0  0  0  0
   10.7770   -0.0500    7.0580 N   0  0  0  0  0  0
   12.0230   -0.4580    6.8760 C   0  0  0  0  0  0
   13.0570    0.0410    6.1890 N   0  0  0  0  0  0
   14.2190   -0.5830    6.1830 C   0  0  0  0  0  0
   14.4000   -1.7120    6.8440 N   0  0  0  0  0  0
   13.4100   -2.2650    7.5550 C   0  0  0  0  0  0
   13.6300   -3.4650    8.2390 N   0  0  0  0  0  0
   12.5460   -4.2530    8.8430 C   0  0  0  0  0  0
   14.9330   -4.1310    8.2130 C   0  0  0  0  0  0
   15.2900   -4.6580    9.5940 C   0  0  0  0  0  0
   14.3150   -5.5980   10.0630 O   0  0  0  0  0  0
   13.0580   -4.9020   10.1350 C   0  0  1  0  0  0
   13.5060   -3.8390   11.1240 C   0  0  0  0  0  0
   13.9960   -4.4980   12.3410 N   0  3  0  0  0  0
    9.1317   -0.8757    8.1694 H   0  0  0  0  0  0
   15.0652   -0.1643    5.6185 H   0  0  0  0  0  0
   11.6964   -3.5928    9.0717 H   0  0  0  0  0  0
   12.2241   -5.0342    8.1386 H   0  0  0  0  0  0
   14.9000   -4.9737    7.5067 H   0  0  0  0  0  0
   15.7045   -3.4149    7.8936 H   0  0  0  0  0  0
   16.2678   -5.1603    9.5533 H   0  0  0  0  0  0
   15.3375   -3.8202   10.3052 H   0  0  0  0  0  0
   12.2435   -5.5956   10.3910 H   0  0  0  0  0  0
   14.3114   -3.2381   10.6766 H   0  0  0  0  0  0
   12.6557   -3.1864   11.3712 H   0  0  0  0  0  0
   14.3231   -3.7363   13.0641 H   0  0  0  0  0  0
   14.8439   -5.1515   12.0880 H   0  0  0  0  0  0
   13.1881   -5.0999   12.7826 H   0  0  0  0  0  0
  1  2  2  0  0  0
  1  5  1  0  0  0
  1  9  1  0  0  0
  2  3  1  0  0  0
  3  4  1  0  0  0
  3 18  1  0  0  0
  4  5  2  0  0  0
  5  6  1  0  0  0
  6  7  2  0  0  0
  7  8  1  0  0  0
  7 19  1  0  0  0
  8  9  2  0  0  0
  9 10  1  0  0  0
 10 11  1  0  0  0
 10 12  1  0  0  0
 11 15  1  0  0  0
 11 20  1  0  0  0
 11 21  1  0  0  0
 12 13  1  0  0  0
 12 22  1  0  0  0
 12 23  1  0  0  0
 13 14  1  0  0  0
 13 24  1  0  0  0
 13 25  1  0  0  0
 14 15  1  0  0  0
 15 16  1  0  0  0
 15 26  1  0  0  0
 16 17  1  0  0  0
 16 27  1  0  0  0
 16 28  1  0  0  0
 17 29  1  0  0  0
 17 30  1  0  0  0
 17 31  1  0  0  0
M  CHG  1  17   1
M  END
> <s_m_source_file>
../2wmv_ligand.sdf

> <i_m_source_file_index>
1

> <s_epik_input>
TjFbQ0gyXU49YyhjPTEyKW5bY0hdbmMyTjNbQ0gyXVtDQEhdKFtDSDJdW05IMytdKU9bQ0gyXVtDSDJdMw==

> <s_epik_cmdline>
J2VwaWtfYXBwJywgJy1pbWFlJywgJ2xpZ2FuZF9wcm8ubWFlJywgJy1vbWFlJywgJ2xpZ2FuZF9wcmVwLm1hZScsICctbXMnLCAnMScsICctcGgnLCAnNycsICctcGh0JywgJzAuNScsICctbnQn

> <r_lp_tautomer_probability>
1

> <r_epik_Ionization_Penalty>
  0.0090

> <r_epik_Ionization_Penalty_Charging>
  0.0090

> <r_epik_Ionization_Penalty_Neutral>
  0.0000

> <r_epik_State_Penalty>
 -0.0000

> <r_epik_Charging_Adjusted_Penalty>
0.00900214394963913

> <i_epik_Tot_Q>
1

> <i_epik_Tot_abs_Q>
1

> <s_epik_Chemistry_Notes>
This compound has an imine and may undergo hydrolysis.

$$$$
