2wmw_ligand
                    3D
 Schrodinger Suite 2020-3.
 32 34  0  0  1  0            999 V2000
   19.6460   -2.3340    9.6560 Br  0  0  0  0  0  0
   17.9080   -1.6170    9.5880 C   0  0  0  0  0  0
   17.6890   -0.4450    8.8800 C   0  0  0  0  0  0
   16.4900    0.0960    8.8040 N   0  0  0  0  0  0
   15.4490   -0.4750    9.4140 C   0  0  0  0  0  0
   14.1730   -0.1460    9.4980 N   0  0  0  0  0  0
   13.5770   -0.9800   10.1750 N   0  0  0  0  0  0
   14.4080   -1.9270   10.5930 C   0  0  0  0  0  0
   15.6080   -1.6400   10.1290 C   0  0  0  0  0  0
   16.8530   -2.2350   10.2350 C   0  0  0  0  0  0
   17.0150   -3.4240   10.9590 N   0  0  0  0  0  0
   18.0540   -3.6090   12.0000 C   0  0  0  0  0  0
   16.0820   -4.5360   10.7040 C   0  0  0  0  0  0
   15.7630   -5.3090   11.9820 C   0  0  0  0  0  0
   16.9530   -5.5350   12.7210 O   0  0  0  0  0  0
   17.3830   -4.2830   13.2180 C   0  0  1  0  0  0
   18.1480   -4.5350   14.5460 C   0  0  0  0  0  0
   19.6070   -4.5450   14.3670 N   0  3  0  0  0  0
   18.5258    0.0386    8.3761 H   0  0  0  0  0  0
   14.1454   -2.7871   11.2090 H   0  0  0  0  0  0
   18.8591   -4.2462   11.6053 H   0  0  0  0  0  0
   18.4672   -2.6298   12.2838 H   0  0  0  0  0  0
   15.1411   -4.1388   10.2953 H   0  0  0  0  0  0
   16.5308   -5.2326    9.9806 H   0  0  0  0  0  0
   15.0599   -4.7275   12.5964 H   0  0  0  0  0  0
   15.3089   -6.2765   11.7217 H   0  0  0  0  0  0
   16.5696   -3.6119   13.5309 H   0  0  0  0  0  0
   17.9024   -3.7413   15.2669 H   0  0  0  0  0  0
   17.8526   -5.5104   14.9599 H   0  0  0  0  0  0
   20.0941   -4.7269   15.3364 H   0  0  0  0  0  0
   19.9342   -3.5732   13.9689 H   0  0  0  0  0  0
   19.8844   -5.3424   13.6618 H   0  0  0  0  0  0
  1  2  1  0  0  0
  2  3  2  0  0  0
  2 10  1  0  0  0
  3  4  1  0  0  0
  3 19  1  0  0  0
  4  5  2  0  0  0
  5  6  1  0  0  0
  5  9  1  0  0  0
  6  7  2  0  0  0
  7  8  1  0  0  0
  8  9  1  0  0  0
  8 20  1  0  0  0
  9 10  2  0  0  0
 10 11  1  0  0  0
 11 12  1  0  0  0
 11 13  1  0  0  0
 12 16  1  0  0  0
 12 21  1  0  0  0
 12 22  1  0  0  0
 13 14  1  0  0  0
 13 23  1  0  0  0
 13 24  1  0  0  0
 14 15  1  0  0  0
 14 25  1  0  0  0
 14 26  1  0  0  0
 15 16  1  0  0  0
 16 17  1  0  0  0
 16 27  1  0  0  0
 17 18  1  0  0  0
 17 28  1  0  0  0
 17 29  1  0  0  0
 18 30  1  0  0  0
 18 31  1  0  0  0
 18 32  1  0  0  0
M  CHG  1  18   1
M  END
> <s_m_source_file>
../2wmw_ligand.sdf

> <i_m_source_file_index>
1

> <s_epik_input>
TjE9TltDSDJdYyhjMTIpYyhjKEJyKVtjSF1uMilOM1tDSDJdW0NASF0oW0NIMl1bTkgzK10pT1tDSDJdW0NIMl0z

> <s_epik_cmdline>
J2VwaWtfYXBwJywgJy1pbWFlJywgJ2xpZ2FuZF9wcm8ubWFlJywgJy1vbWFlJywgJ2xpZ2FuZF9wcmVwLm1hZScsICctbXMnLCAnMScsICctcGgnLCAnNycsICctcGh0JywgJzAuNScsICctbnQn

> <r_lp_tautomer_probability>
1

> <r_epik_Ionization_Penalty>
  0.0030

> <r_epik_Ionization_Penalty_Charging>
  0.0030

> <r_epik_Ionization_Penalty_Neutral>
  0.0000

> <r_epik_State_Penalty>
 -0.0000

> <r_epik_Charging_Adjusted_Penalty>
0.00300752342104411

> <i_epik_Tot_Q>
1

> <i_epik_Tot_abs_Q>
1

$$$$
