2wmx_ligand
                    3D
 Schrodinger Suite 2020-3.
 42 45  0  0  1  0            999 V2000
   19.9780   -2.2090   10.8430 C   0  0  0  0  0  0
   21.2690   -2.7100   10.8810 C   0  0  0  0  0  0
   21.9790   -2.8640    9.7050 C   0  0  0  0  0  0
   21.3910   -2.5160    8.5010 C   0  0  0  0  0  0
   20.0970   -2.0170    8.4680 C   0  0  0  0  0  0
   19.3760   -1.8780    9.6400 C   0  0  0  0  0  0
   18.0950   -1.3500    9.6320 C   0  0  0  0  0  0
   17.9290   -0.1020    9.0570 C   0  0  0  0  0  0
   16.7570    0.4920    9.0170 N   0  0  0  0  0  0
   15.6760   -0.0870    9.5460 C   0  0  0  0  0  0
   14.4120    0.3090    9.6520 N   0  0  0  0  0  0
   13.7710   -0.5810   10.2160 N   0  0  0  0  0  0
   14.5530   -1.6060   10.5490 C   0  0  0  0  0  0
   15.7770   -1.3280   10.1390 C   0  0  0  0  0  0
   17.0030   -1.9870   10.2000 C   0  0  0  0  0  0
   17.1190   -3.2500   10.8070 N   0  0  0  0  0  0
   18.3410   -3.6730   11.5190 C   0  0  0  0  0  0
   15.9880   -4.1890   10.7750 C   0  0  0  0  0  0
   15.8580   -4.9280   12.1060 C   0  0  0  0  0  0
   17.1270   -5.4460   12.4770 O   0  0  0  0  0  0
   17.9560   -4.3620   12.8350 C   0  0  1  0  0  0
   19.1350   -4.9600   13.6220 C   0  0  0  0  0  0
   19.8180   -3.9430   14.4380 N   0  3  0  0  0  0
   19.4274   -2.0732   11.7739 H   0  0  0  0  0  0
   21.7229   -2.9816   11.8340 H   0  0  0  0  0  0
   22.9955   -3.2570    9.7255 H   0  0  0  0  0  0
   21.9488   -2.6349    7.5721 H   0  0  0  0  0  0
   19.6475   -1.7338    7.5162 H   0  0  0  0  0  0
   18.7938    0.4021    8.6255 H   0  0  0  0  0  0
   14.2390   -2.5121   11.0672 H   0  0  0  0  0  0
   18.9072   -4.3757   10.8900 H   0  0  0  0  0  0
   18.9628   -2.7918   11.7355 H   0  0  0  0  0  0
   15.0569   -3.6351   10.5847 H   0  0  0  0  0  0
   16.1461   -4.9264    9.9742 H   0  0  0  0  0  0
   15.5029   -4.2309   12.8793 H   0  0  0  0  0  0
   15.1389   -5.7535   11.9984 H   0  0  0  0  0  0
   17.4244   -3.6438   13.4765 H   0  0  0  0  0  0
   18.7653   -5.7500   14.2923 H   0  0  0  0  0  0
   19.8656   -5.3874   12.9195 H   0  0  0  0  0  0
   20.6518   -4.4096   14.9830 H   0  0  0  0  0  0
   19.1062   -3.5110   15.1568 H   0  0  0  0  0  0
   20.2064   -3.1484   13.7840 H   0  0  0  0  0  0
  1  2  2  0  0  0
  1  6  1  0  0  0
  1 24  1  0  0  0
  2  3  1  0  0  0
  2 25  1  0  0  0
  3  4  2  0  0  0
  3 26  1  0  0  0
  4  5  1  0  0  0
  4 27  1  0  0  0
  5  6  2  0  0  0
  5 28  1  0  0  0
  6  7  1  0  0  0
  7  8  2  0  0  0
  7 15  1  0  0  0
  8  9  1  0  0  0
  8 29  1  0  0  0
  9 10  2  0  0  0
 10 11  1  0  0  0
 10 14  1  0  0  0
 11 12  2  0  0  0
 12 13  1  0  0  0
 13 14  1  0  0  0
 13 30  1  0  0  0
 14 15  2  0  0  0
 15 16  1  0  0  0
 16 17  1  0  0  0
 16 18  1  0  0  0
 17 21  1  0  0  0
 17 31  1  0  0  0
 17 32  1  0  0  0
 18 19  1  0  0  0
 18 33  1  0  0  0
 18 34  1  0  0  0
 19 20  1  0  0  0
 19 35  1  0  0  0
 19 36  1  0  0  0
 20 21  1  0  0  0
 21 22  1  0  0  0
 21 37  1  0  0  0
 22 23  1  0  0  0
 22 38  1  0  0  0
 22 39  1  0  0  0
 23 40  1  0  0  0
 23 41  1  0  0  0
 23 42  1  0  0  0
M  CHG  1  23   1
M  END
> <s_m_source_file>
../2wmx_ligand.sdf

> <i_m_source_file_index>
1

> <s_epik_input>
W2NIXTFbY0hdW2NIXVtjSF1bY0hdYzEtYyhbY0hdbjIpYyhjKGMyMylbQ0gyXU49TjMpTjRbQ0gyXVtDQEhdKFtDSDJdW05IMytdKU9bQ0gyXVtDSDJdNA==

> <s_epik_cmdline>
J2VwaWtfYXBwJywgJy1pbWFlJywgJ2xpZ2FuZF9wcm8ubWFlJywgJy1vbWFlJywgJ2xpZ2FuZF9wcmVwLm1hZScsICctbXMnLCAnMScsICctcGgnLCAnNycsICctcGh0JywgJzAuNScsICctbnQn

> <r_lp_tautomer_probability>
1

> <r_epik_Ionization_Penalty>
  0.0036

> <r_epik_Ionization_Penalty_Charging>
  0.0030

> <r_epik_Ionization_Penalty_Neutral>
  0.0006

> <r_epik_State_Penalty>
 -0.0000

> <r_epik_Charging_Adjusted_Penalty>
0.00300752342104411

> <i_epik_Tot_Q>
1

> <i_epik_Tot_abs_Q>
1

$$$$
