2wnj_ligand
                    3D
 Schrodinger Suite 2020-3.
 44 46  0  0  1  0            999 V2000
   30.3020   -6.7100   62.7110 C   0  0  0  0  0  0
   31.0570   -7.2610   63.8820 C   0  0  0  0  0  0
   30.6470   -8.5950   64.3840 C   0  0  0  0  0  0
   29.6210   -9.2440   63.7410 O   0  0  0  0  0  0
   29.1900  -10.5610   64.1110 C   0  0  0  0  0  0
   31.3190   -9.1360   65.4880 C   0  0  0  0  0  0
   32.1050   -6.6110   64.5400 C   0  0  0  0  0  0
   32.7410   -7.1750   65.6360 C   0  0  0  0  0  0
   32.3540   -8.4320   66.1050 C   0  0  0  0  0  0
   32.9820   -8.9720   67.1950 O   0  0  0  0  0  0
   30.2700   -5.4240   62.2900 C   0  0  0  0  0  0
   31.0430   -4.2860   62.8960 C   0  0  0  0  0  0
   30.0170   -3.1790   63.1270 C   0  0  0  0  0  0
   29.5340   -2.6710   61.7770 C   0  0  0  0  0  0
   29.0690   -3.8500   61.0520 N   0  3  0  0  0  0
   29.4280   -5.0570   61.1470 C   0  0  0  0  0  0
   28.9980   -5.9840   60.0430 C   0  0  0  0  0  0
   27.6530   -6.1190   59.7620 C   0  0  0  0  0  0
   27.1810   -6.8870   58.7760 N   0  0  0  0  0  0
   28.0280   -7.5600   57.9960 C   0  0  0  0  0  0
   29.4040   -7.4490   58.2090 C   0  0  0  0  0  0
   29.8940   -6.6550   59.2400 C   0  0  0  0  0  0
   33.5530   -8.1350   68.2020 C   0  0  0  0  0  0
   29.7295   -7.4795   62.1723 H   0  0  0  0  0  0
   28.3600  -10.8717   63.4595 H   0  0  0  0  0  0
   28.8522  -10.5556   65.1578 H   0  0  0  0  0  0
   30.0273  -11.2656   63.9995 H   0  0  0  0  0  0
   31.0307  -10.1159   65.8685 H   0  0  0  0  0  0
   32.4313   -5.6345   64.1821 H   0  0  0  0  0  0
   33.5464   -6.6346   66.1334 H   0  0  0  0  0  0
   31.5004   -4.6154   63.8406 H   0  0  0  0  0  0
   31.8314   -3.9660   62.1989 H   0  0  0  0  0  0
   29.1682   -3.5797   63.7005 H   0  0  0  0  0  0
   30.4844   -2.3574   63.6896 H   0  0  0  0  0  0
   28.7190   -1.9478   61.9276 H   0  0  0  0  0  0
   30.3663   -2.1811   61.2504 H   0  0  0  0  0  0
   26.9392   -5.5705   60.3765 H   0  0  0  0  0  0
   27.6479   -8.1943   57.1952 H   0  0  0  0  0  0
   30.0975   -7.9878   57.5634 H   0  0  0  0  0  0
   30.9670   -6.5652   59.4097 H   0  0  0  0  0  0
   34.0059   -8.7606   68.9853 H   0  0  0  0  0  0
   32.7670   -7.5053   68.6444 H   0  0  0  0  0  0
   34.3257   -7.4946   67.7517 H   0  0  0  0  0  0
   28.2882   -3.5634   60.3321 H   0  0  0  0  0  0
  1  2  1  0  0  0
  1 11  2  0  0  0
  1 24  1  0  0  0
  2  3  2  0  0  0
  2  7  1  0  0  0
  3  4  1  0  0  0
  3  6  1  0  0  0
  4  5  1  0  0  0
  5 25  1  0  0  0
  5 26  1  0  0  0
  5 27  1  0  0  0
  6  9  2  0  0  0
  6 28  1  0  0  0
  7  8  2  0  0  0
  7 29  1  0  0  0
  8  9  1  0  0  0
  8 30  1  0  0  0
  9 10  1  0  0  0
 10 23  1  0  0  0
 11 12  1  0  0  0
 11 16  1  0  0  0
 12 13  1  0  0  0
 12 31  1  0  0  0
 12 32  1  0  0  0
 13 14  1  0  0  0
 13 33  1  0  0  0
 13 34  1  0  0  0
 14 15  1  0  0  0
 14 35  1  0  0  0
 14 36  1  0  0  0
 15 16  2  0  0  0
 15 44  1  0  0  0
 16 17  1  0  0  0
 17 18  2  0  0  0
 17 22  1  0  0  0
 18 19  1  0  0  0
 18 37  1  0  0  0
 19 20  2  0  0  0
 20 21  1  0  0  0
 20 38  1  0  0  0
 21 22  2  0  0  0
 21 39  1  0  0  0
 22 40  1  0  0  0
 23 41  1  0  0  0
 23 42  1  0  0  0
 23 43  1  0  0  0
M  CHG  1  15   1
M  END
> <s_m_source_file>
../2wnj_ligand.sdf

> <i_m_source_file_index>
1

> <s_epik_input>
W2NIXTFbY0hdYyhPW0NIM10pW2NIXWMoT1tDSDNdKWMxL1tDSF09QzJcW0NIMl1bQ0gyXVtDSDJdTj1DMmMzW2NIXW5bY0hdW2NIXVtjSF0z

> <s_epik_cmdline>
J2VwaWtfYXBwJywgJy1pbWFlJywgJ2xpZ2FuZF9wcm8ubWFlJywgJy1vbWFlJywgJ2xpZ2FuZF9wcmVwLm1hZScsICctbXMnLCAnMScsICctcGgnLCAnNycsICctcGh0JywgJzAuNScsICctbnQn

> <r_epik_Ionization_Penalty>
  0.0792

> <r_epik_Ionization_Penalty_Charging>
  0.0791

> <r_epik_Ionization_Penalty_Neutral>
  0.0001

> <r_epik_State_Penalty>
  0.0700

> <r_epik_Charging_Adjusted_Penalty>
0.149044775679134

> <i_epik_Tot_Q>
1

> <i_epik_Tot_abs_Q>
1

> <s_epik_Chemistry_Notes>
This compound has an imine and may undergo hydrolysis.

$$$$
