2wnl_ligand
                    3D
 Schrodinger Suite 2020-3.
 28 28  0  0  1  0            999 V2000
   45.6900   25.0290   52.7880 C   0  0  0  0  0  0
   44.6580   25.9580   52.6380 C   0  0  0  0  0  0
   44.9430   27.3130   52.4950 C   0  0  0  0  0  0
   46.2080   27.7350   52.5100 N   0  0  0  0  0  0
   47.2060   26.8420   52.6630 C   0  0  0  0  0  0
   47.0090   25.4720   52.7850 C   0  0  0  0  0  0
   48.2080   24.5580   52.9910 C   0  0  0  0  0  0
   48.8810   23.6720   51.9500 C   0  0  0  0  0  0
   50.3670   23.4510   52.3290 C   0  0  0  0  0  0
   48.6890   24.5320   54.1090 O   0  0  0  0  0  0
   51.4930   21.3550   51.4210 C   0  0  0  0  0  0
   52.1380   20.1140   51.8090 N   0  3  0  0  0  0
   50.7610   21.9950   52.6060 C   0  0  0  0  0  0
   45.4647   23.9691   52.9061 H   0  0  0  0  0  0
   43.6219   25.6196   52.6329 H   0  0  0  0  0  0
   44.1314   28.0299   52.3706 H   0  0  0  0  0  0
   48.2290   27.2171   52.6928 H   0  0  0  0  0  0
   48.3680   22.6998   51.9092 H   0  0  0  0  0  0
   48.8257   24.1574   50.9644 H   0  0  0  0  0  0
   51.0105   23.7985   51.5073 H   0  0  0  0  0  0
   50.6006   24.0176   53.2424 H   0  0  0  0  0  0
   52.2507   22.0628   51.0536 H   0  0  0  0  0  0
   50.7616   21.1546   50.6242 H   0  0  0  0  0  0
   52.6531   19.6808   50.9389 H   0  0  0  0  0  0
   51.3803   19.4062   52.1764 H   0  0  0  0  0  0
   52.8694   20.3145   52.6058 H   0  0  0  0  0  0
   51.4279   21.9555   53.4799 H   0  0  0  0  0  0
   49.8565   21.4024   52.8080 H   0  0  0  0  0  0
  1  2  2  0  0  0
  1  6  1  0  0  0
  1 14  1  0  0  0
  2  3  1  0  0  0
  2 15  1  0  0  0
  3  4  2  0  0  0
  3 16  1  0  0  0
  4  5  1  0  0  0
  5  6  2  0  0  0
  5 17  1  0  0  0
  6  7  1  0  0  0
  7  8  1  0  0  0
  7 10  2  0  0  0
  8  9  1  0  0  0
  8 18  1  0  0  0
  8 19  1  0  0  0
  9 13  1  0  0  0
  9 20  1  0  0  0
  9 21  1  0  0  0
 11 12  1  0  0  0
 11 13  1  0  0  0
 11 22  1  0  0  0
 11 23  1  0  0  0
 12 24  1  0  0  0
 12 25  1  0  0  0
 12 26  1  0  0  0
 13 27  1  0  0  0
 13 28  1  0  0  0
M  CHG  1  12   1
M  END
> <s_m_source_file>
../2wnl_ligand.sdf

> <i_m_source_file_index>
1

> <s_epik_input>
W2NIXTFuW2NIXVtjSF1bY0hdYzFDKD1PKVtDSDJdW0NIMl1bQ0gyXVtDSDJdW05IMytd

> <s_epik_cmdline>
J2VwaWtfYXBwJywgJy1pbWFlJywgJ2xpZ2FuZF9wcm8ubWFlJywgJy1vbWFlJywgJ2xpZ2FuZF9wcmVwLm1hZScsICctbXMnLCAnMScsICctcGgnLCAnNycsICctcGh0JywgJzAuNScsICctbnQn

> <r_lp_tautomer_probability>
1

> <r_epik_Ionization_Penalty>
  0.0007

> <r_epik_Ionization_Penalty_Charging>
  0.0006

> <r_epik_Ionization_Penalty_Neutral>
  0.0001

> <r_epik_State_Penalty>
 -0.0000

> <r_epik_Charging_Adjusted_Penalty>
0.00063200278193002

> <i_epik_Tot_Q>
1

> <i_epik_Tot_abs_Q>
1

$$$$
