2wo8_ligand
                    3D
 Schrodinger Suite 2020-3.
 37 38  0  0  1  0            999 V2000
   20.8540   29.2500   -7.3270 C   0  0  0  0  0  0
   21.3130   26.9900   -5.8850 C   0  0  0  0  0  0
   20.2380   29.0830   -6.0590 C   0  0  0  0  0  0
   21.6950   28.3050   -7.8850 C   0  0  0  0  0  0
   21.9220   27.1490   -7.1350 C   0  0  0  0  0  0
   20.4660   27.9400   -5.3170 C   0  0  0  0  0  0
   19.8640   27.6550   -3.9670 C   0  0  0  0  0  0
   16.0330   25.7210    1.8460 O   0  0  0  0  0  0
   18.6710   28.2090   -3.5320 C   0  0  0  0  0  0
   19.9390   26.2760   -1.9720 C   0  0  0  0  0  0
   17.1720   27.2930    0.5070 C   0  0  0  0  0  0
   17.0100   26.8000    1.9620 C   0  0  1  0  0  0
   18.7350   26.8730   -1.5190 C   0  0  0  0  0  0
   20.4670   26.6610   -3.1780 C   0  0  0  0  0  0
   18.1110   27.8430   -2.3210 C   0  0  0  0  0  0
   18.2120   26.4260   -0.2140 C   0  0  0  0  0  0
   16.6270   27.8710    2.9930 C   0  0  0  0  0  0
   16.9080   29.2950    2.5520 C   0  0  0  0  0  0
   16.1250   29.8660    1.7990 O   0  5  0  0  0  0
   17.9110   29.8510    2.9770 O   0  0  0  0  0  0
   20.6550   30.1644   -7.8859 H   0  0  0  0  0  0
   21.5115   26.0753   -5.3264 H   0  0  0  0  0  0
   19.5816   29.8607   -5.6686 H   0  0  0  0  0  0
   22.1573   28.4547   -8.8607 H   0  0  0  0  0  0
   22.5754   26.3683   -7.5243 H   0  0  0  0  0  0
   16.2044   24.8978    1.1368 H   0  0  0  0  0  0
   18.1646   28.9463   -4.1549 H   0  0  0  0  0  0
   20.4396   25.5191   -1.3681 H   0  0  0  0  0  0
   16.2067   27.2180   -0.0151 H   0  0  0  0  0  0
   17.5068   28.3408    0.5100 H   0  0  0  0  0  0
   17.9508   26.4191    2.3861 H   0  0  0  0  0  0
   21.3794   26.1827   -3.5341 H   0  0  0  0  0  0
   17.1832   28.3085   -1.9883 H   0  0  0  0  0  0
   19.1050   26.3214    0.4198 H   0  0  0  0  0  0
   17.7856   25.4318   -0.4137 H   0  0  0  0  0  0
   15.5494   27.8076    3.2044 H   0  0  0  0  0  0
   17.1932   27.7053    3.9214 H   0  0  0  0  0  0
  1  3  2  0  0  0
  1  4  1  0  0  0
  1 21  1  0  0  0
  2  5  1  0  0  0
  2  6  2  0  0  0
  2 22  1  0  0  0
  3  6  1  0  0  0
  3 23  1  0  0  0
  4  5  2  0  0  0
  4 24  1  0  0  0
  5 25  1  0  0  0
  6  7  1  0  0  0
  7  9  2  0  0  0
  7 14  1  0  0  0
  8 12  1  0  0  0
  8 26  1  0  0  0
  9 15  1  0  0  0
  9 27  1  0  0  0
 10 13  1  0  0  0
 10 14  2  0  0  0
 10 28  1  0  0  0
 11 12  1  0  0  0
 11 16  1  0  0  0
 11 29  1  0  0  0
 11 30  1  0  0  0
 12 17  1  0  0  0
 12 31  1  0  0  0
 13 15  2  0  0  0
 13 16  1  0  0  0
 14 32  1  0  0  0
 15 33  1  0  0  0
 16 34  1  0  0  0
 16 35  1  0  0  0
 17 18  1  0  0  0
 17 36  1  0  0  0
 17 37  1  0  0  0
 18 19  1  0  0  0
 18 20  2  0  0  0
M  CHG  1  19  -1
M  END
> <s_m_source_file>
../2wo8_ligand.sdf

> <i_m_source_file_index>
1

> <s_epik_input>
W2NIXTFbY0hdW2NIXVtjSF1bY0hdYzEtYzJbY0hdW2NIXWMoW2NIXVtjSF0yKVtDSDJdW0NIMl1bQ0BIXShbT0hdKVtDSDJdQyg9TylbT0hd

> <s_epik_cmdline>
J2VwaWtfYXBwJywgJy1pbWFlJywgJ2xpZ2FuZF9wcm8ubWFlJywgJy1vbWFlJywgJ2xpZ2FuZF9wcmVwLm1hZScsICctbXMnLCAnMScsICctcGgnLCAnNycsICctcGh0JywgJzAuNScsICctbnQn

> <r_lp_tautomer_probability>
1

> <r_epik_Ionization_Penalty>
  0.0031

> <r_epik_Ionization_Penalty_Charging>
  0.0031

> <r_epik_Ionization_Penalty_Neutral>
  0.0000

> <r_epik_State_Penalty>
 -0.0000

> <r_epik_Charging_Adjusted_Penalty>
0.00309552006643296

> <i_epik_Tot_Q>
-1

> <i_epik_Tot_abs_Q>
1

$$$$
