2wo9_ligand
                    3D
 Schrodinger Suite 2020-3.
 42 43  0  0  1  0            999 V2000
   21.6250   29.7410   -9.9910 C   0  0  0  0  0  0
   22.5140   29.1990   -8.8700 C   0  0  0  0  0  0
   23.7010   29.0570   -9.0500 O   0  0  0  0  0  0
   21.8580   28.8460   -7.5960 C   0  0  0  0  0  0
   22.5940   28.4840   -6.4710 C   0  0  0  0  0  0
   21.9600   28.1540   -5.2800 C   0  0  0  0  0  0
   20.4740   28.8840   -7.4830 C   0  0  0  0  0  0
   19.8420   28.5550   -6.2700 C   0  0  0  0  0  0
   20.5740   28.1800   -5.1450 C   0  0  0  0  0  0
   19.9140   27.7740   -3.8570 C   0  0  0  0  0  0
   20.4750   26.7400   -3.0950 C   0  0  0  0  0  0
   19.9210   26.2990   -1.9130 C   0  0  0  0  0  0
   18.7140   28.2960   -3.4010 C   0  0  0  0  0  0
   18.1260   27.8650   -2.2260 C   0  0  0  0  0  0
   18.7080   26.8480   -1.4620 C   0  0  0  0  0  0
   18.1030   26.3550   -0.1910 C   0  0  0  0  0  0
   17.1820   27.2900    0.6090 C   0  0  0  0  0  0
   16.9510   26.7710    2.0360 C   0  0  2  0  0  0
   16.2210   25.5390    1.9030 O   0  0  0  0  0  0
   16.2540   27.7590    2.9760 C   0  0  0  0  0  0
   16.8180   29.1870    2.8010 C   0  0  0  0  0  0
   17.9430   29.3770    3.2250 O   0  0  0  0  0  0
   16.1180   30.0340    2.2600 O   0  5  0  0  0  0
   22.2421   29.9603  -10.8748 H   0  0  0  0  0  0
   21.1289   30.6625   -9.6524 H   0  0  0  0  0  0
   20.8649   28.9899  -10.2518 H   0  0  0  0  0  0
   23.6824   28.4592   -6.5256 H   0  0  0  0  0  0
   22.5675   27.8650   -4.4223 H   0  0  0  0  0  0
   19.8708   29.1720   -8.3440 H   0  0  0  0  0  0
   18.7544   28.5943   -6.2086 H   0  0  0  0  0  0
   21.3883   26.2646   -3.4527 H   0  0  0  0  0  0
   20.4219   25.5266   -1.3293 H   0  0  0  0  0  0
   18.2183   29.0702   -3.9866 H   0  0  0  0  0  0
   17.1961   28.3241   -1.8905 H   0  0  0  0  0  0
   17.4835   25.4701   -0.3989 H   0  0  0  0  0  0
   18.9022   26.0855    0.5152 H   0  0  0  0  0  0
   17.6390   28.2886    0.6725 H   0  0  0  0  0  0
   16.2073   27.3643    0.1046 H   0  0  0  0  0  0
   17.9078   26.5510    2.5320 H   0  0  0  0  0  0
   16.6079   24.7375    1.2565 H   0  0  0  0  0  0
   15.1765   27.7772    2.7553 H   0  0  0  0  0  0
   16.4095   27.4450    4.0187 H   0  0  0  0  0  0
  1  2  1  0  0  0
  1 24  1  0  0  0
  1 25  1  0  0  0
  1 26  1  0  0  0
  2  3  2  0  0  0
  2  4  1  0  0  0
  4  5  2  0  0  0
  4  7  1  0  0  0
  5  6  1  0  0  0
  5 27  1  0  0  0
  6  9  2  0  0  0
  6 28  1  0  0  0
  7  8  2  0  0  0
  7 29  1  0  0  0
  8  9  1  0  0  0
  8 30  1  0  0  0
  9 10  1  0  0  0
 10 11  2  0  0  0
 10 13  1  0  0  0
 11 12  1  0  0  0
 11 31  1  0  0  0
 12 15  2  0  0  0
 12 32  1  0  0  0
 13 14  2  0  0  0
 13 33  1  0  0  0
 14 15  1  0  0  0
 14 34  1  0  0  0
 15 16  1  0  0  0
 16 17  1  0  0  0
 16 35  1  0  0  0
 16 36  1  0  0  0
 17 18  1  0  0  0
 17 37  1  0  0  0
 17 38  1  0  0  0
 18 19  1  0  0  0
 18 20  1  0  0  0
 18 39  1  0  0  0
 19 40  1  0  0  0
 20 21  1  0  0  0
 20 41  1  0  0  0
 20 42  1  0  0  0
 21 22  2  0  0  0
 21 23  1  0  0  0
M  CHG  1  23  -1
M  END
> <s_m_source_file>
../2wo9_ligand.sdf

> <i_m_source_file_index>
1

> <s_epik_input>
W0NIM11DKD1PKWMxW2NIXVtjSF1jKFtjSF1bY0hdMSktYzJbY0hdW2NIXWMoW2NIXVtjSF0yKVtDSDJdW0NIMl1bQ0BIXShbT0hdKVtDSDJdQyg9TylbT0hd

> <s_epik_cmdline>
J2VwaWtfYXBwJywgJy1pbWFlJywgJ2xpZ2FuZF9wcm8ubWFlJywgJy1vbWFlJywgJ2xpZ2FuZF9wcmVwLm1hZScsICctbXMnLCAnMScsICctcGgnLCAnNycsICctcGh0JywgJzAuNScsICctbnQn

> <r_lp_tautomer_probability>
1

> <r_epik_Ionization_Penalty>
  0.0031

> <r_epik_Ionization_Penalty_Charging>
  0.0031

> <r_epik_Ionization_Penalty_Neutral>
  0.0000

> <r_epik_State_Penalty>
 -0.0000

> <r_epik_Charging_Adjusted_Penalty>
0.00309552006643296

> <i_epik_Tot_Q>
-1

> <i_epik_Tot_abs_Q>
1

$$$$
