2woa_ligand
                    3D
 Schrodinger Suite 2020-3.
 38 40  0  0  1  0            999 V2000
   16.0320   25.3990    1.3780 O   0  0  0  0  0  0
   16.8480   26.5840    1.5250 C   0  0  2  0  0  0
   16.2970   27.5170    2.6270 C   0  0  0  0  0  0
   16.8190   28.9530    2.5700 C   0  0  0  0  0  0
   16.1310   29.8320    1.9890 O   0  5  0  0  0  0
   17.9250   29.1310    3.1370 O   0  0  0  0  0  0
   17.1360   27.1920    0.1340 C   0  0  0  0  0  0
   18.3950   26.5710   -0.5080 C   0  0  0  0  0  0
   18.8240   27.0780   -1.8750 C   0  0  0  0  0  0
   19.9100   26.4380   -2.5100 C   0  0  0  0  0  0
   20.3140   26.8800   -3.7670 C   0  0  0  0  0  0
   21.4410   26.3180   -4.6230 C   0  0  0  0  0  0
   21.3590   27.2290   -5.8580 C   0  0  0  0  0  0
   22.1830   27.1830   -7.0100 C   0  0  0  0  0  0
   21.9570   28.1070   -8.0620 C   0  0  0  0  0  0
   20.9120   29.0550   -7.9290 C   0  0  0  0  0  0
   20.0980   29.0880   -6.7580 C   0  0  0  0  0  0
   20.3340   28.1660   -5.7230 C   0  0  0  0  0  0
   19.6780   27.9490   -4.4150 C   0  0  0  0  0  0
   18.6110   28.6020   -3.8110 C   0  0  0  0  0  0
   18.1900   28.1560   -2.5350 C   0  0  0  0  0  0
   15.7249   24.8289    2.2672 H   0  0  0  0  0  0
   17.8233   26.2622    1.9191 H   0  0  0  0  0  0
   15.2015   27.5740    2.5452 H   0  0  0  0  0  0
   16.5706   27.1188    3.6152 H   0  0  0  0  0  0
   16.2798   27.0070   -0.5314 H   0  0  0  0  0  0
   17.2956   28.2758    0.2335 H   0  0  0  0  0  0
   19.2629   26.7434    0.1455 H   0  0  0  0  0  0
   18.2441   25.4893   -0.6393 H   0  0  0  0  0  0
   20.4250   25.6097   -2.0234 H   0  0  0  0  0  0
   22.3928   26.4036   -4.0783 H   0  0  0  0  0  0
   21.2397   25.2597   -4.8455 H   0  0  0  0  0  0
   22.9819   26.4454   -7.0868 H   0  0  0  0  0  0
   22.5770   28.0883   -8.9583 H   0  0  0  0  0  0
   20.7278   29.7685   -8.7322 H   0  0  0  0  0  0
   19.2984   29.8231   -6.6662 H   0  0  0  0  0  0
   18.1116   29.4349   -4.3059 H   0  0  0  0  0  0
   17.3539   28.6575   -2.0477 H   0  0  0  0  0  0
  1  2  1  0  0  0
  1 22  1  0  0  0
  2  3  1  0  0  0
  2  7  1  0  0  0
  2 23  1  0  0  0
  3  4  1  0  0  0
  3 24  1  0  0  0
  3 25  1  0  0  0
  4  5  1  0  0  0
  4  6  2  0  0  0
  7  8  1  0  0  0
  7 26  1  0  0  0
  7 27  1  0  0  0
  8  9  1  0  0  0
  8 28  1  0  0  0
  8 29  1  0  0  0
  9 10  2  0  0  0
  9 21  1  0  0  0
 10 11  1  0  0  0
 10 30  1  0  0  0
 11 12  1  0  0  0
 11 19  2  0  0  0
 12 13  1  0  0  0
 12 31  1  0  0  0
 12 32  1  0  0  0
 13 14  2  0  0  0
 13 18  1  0  0  0
 14 15  1  0  0  0
 14 33  1  0  0  0
 15 16  2  0  0  0
 15 34  1  0  0  0
 16 17  1  0  0  0
 16 35  1  0  0  0
 17 18  2  0  0  0
 17 36  1  0  0  0
 18 19  1  0  0  0
 19 20  1  0  0  0
 20 21  2  0  0  0
 20 37  1  0  0  0
 21 38  1  0  0  0
M  CHG  1   5  -1
M  END
> <s_m_source_file>
../2woa_ligand.sdf

> <i_m_source_file_index>
1

> <s_epik_input>
W09IXUMoPU8pW0NIMl1bQ0BASF0oW09IXSlbQ0gyXVtDSDJdYyhbY0hdMSlbY0hdW2NIXWMoYzEyKWMzYyhbQ0gyXTIpW2NIXVtjSF1bY0hdW2NIXTM=

> <s_epik_cmdline>
J2VwaWtfYXBwJywgJy1pbWFlJywgJ2xpZ2FuZF9wcm8ubWFlJywgJy1vbWFlJywgJ2xpZ2FuZF9wcmVwLm1hZScsICctbXMnLCAnMScsICctcGgnLCAnNycsICctcGh0JywgJzAuNScsICctbnQn

> <r_lp_tautomer_probability>
1

> <r_epik_Ionization_Penalty>
  0.0031

> <r_epik_Ionization_Penalty_Charging>
  0.0031

> <r_epik_Ionization_Penalty_Neutral>
  0.0000

> <r_epik_State_Penalty>
 -0.0000

> <r_epik_Charging_Adjusted_Penalty>
0.00309552006643296

> <i_epik_Tot_Q>
-1

> <i_epik_Tot_abs_Q>
1

$$$$
