2won_ligand
                    3D
 Schrodinger Suite 2020-3.
 41 42  0  0  1  0            999 V2000
    8.9060   12.3050   16.8610 C   0  0  0  0  0  0
    7.6130   12.3400   16.3050 C   0  0  0  0  0  0
    9.8860   12.8350   15.9560 C   0  0  0  0  0  0
    9.1330   11.7450   18.1580 O   0  0  0  0  0  0
    7.8440   12.9030   15.0950 N   0  0  0  0  0  0
    6.2870   11.8620   16.9350 C   0  0  0  0  0  0
    9.1680   13.2000   14.9110 N   0  0  0  0  0  0
   11.3890   12.9580   16.1130 C   0  0  0  0  0  0
    9.4200   12.2800   19.3710 C   0  0  0  0  0  0
    6.8640   13.1720   14.1140 C   0  0  0  0  0  0
    6.3670   10.5610   17.4870 C   0  0  0  0  0  0
   12.0720   13.1480   14.7200 C   0  0  0  0  0  0
    9.3580   11.4180   20.5890 C   0  0  0  0  0  0
    9.7800   13.6340   19.3940 C   0  0  0  0  0  0
    6.4340   11.7640   13.5310 C   0  0  0  0  0  0
    9.6860   12.0650   21.8480 C   0  0  0  0  0  0
   10.0580   14.2060   20.6450 C   0  0  0  0  0  0
    5.7710   11.8370   12.2360 O   0  0  0  0  0  0
   10.0220   13.4650   21.9210 C   0  0  0  0  0  0
    9.6320   11.3230   23.0320 C   0  0  0  0  0  0
   10.3710   15.5490   20.3560 C   0  0  0  0  0  0
    9.5840   10.6950   24.0360 N   0  0  0  0  0  0
   10.6350   16.6900   20.1090 N   0  0  0  0  0  0
    5.9973   12.5483   17.7444 H   0  0  0  0  0  0
    5.5000   11.8482   16.1666 H   0  0  0  0  0  0
   11.6216   13.8269   16.7461 H   0  0  0  0  0  0
   11.7845   12.0455   16.5830 H   0  0  0  0  0  0
    6.0109   13.6872   14.5796 H   0  0  0  0  0  0
    7.2956   13.8121   13.3304 H   0  0  0  0  0  0
    5.3929   10.2845   17.9167 H   0  0  0  0  0  0
    7.1338   10.5438   18.2755 H   0  0  0  0  0  0
    6.6365    9.8438   16.6977 H   0  0  0  0  0  0
   13.1603   13.2352   14.8541 H   0  0  0  0  0  0
   11.6868   14.0620   14.2444 H   0  0  0  0  0  0
   11.8496   12.2805   14.0812 H   0  0  0  0  0  0
    9.0827   10.3647   20.5366 H   0  0  0  0  0  0
    9.8417   14.2197   18.4768 H   0  0  0  0  0  0
    7.3253   11.1319   13.4044 H   0  0  0  0  0  0
    5.7349   11.2770   14.2268 H   0  0  0  0  0  0
    5.4304   10.9163   11.7398 H   0  0  0  0  0  0
   10.2388   13.9523   22.8716 H   0  0  0  0  0  0
  1  2  2  0  0  0
  1  3  1  0  0  0
  1  4  1  0  0  0
  2  5  1  0  0  0
  2  6  1  0  0  0
  3  7  2  0  0  0
  3  8  1  0  0  0
  4  9  1  0  0  0
  5  7  1  0  0  0
  5 10  1  0  0  0
  6 11  1  0  0  0
  6 24  1  0  0  0
  6 25  1  0  0  0
  8 12  1  0  0  0
  8 26  1  0  0  0
  8 27  1  0  0  0
  9 13  2  0  0  0
  9 14  1  0  0  0
 10 15  1  0  0  0
 10 28  1  0  0  0
 10 29  1  0  0  0
 11 30  1  0  0  0
 11 31  1  0  0  0
 11 32  1  0  0  0
 12 33  1  0  0  0
 12 34  1  0  0  0
 12 35  1  0  0  0
 13 16  1  0  0  0
 13 36  1  0  0  0
 14 17  2  0  0  0
 14 37  1  0  0  0
 15 18  1  0  0  0
 15 38  1  0  0  0
 15 39  1  0  0  0
 16 19  2  0  0  0
 16 20  1  0  0  0
 17 19  1  0  0  0
 17 21  1  0  0  0
 18 40  1  0  0  0
 19 41  1  0  0  0
 20 22  3  0  0  0
 21 23  3  0  0  0
M  END
> <s_m_source_file>
../2won_ligand.sdf

> <i_m_source_file_index>
1

> <s_epik_input>
W0NIM11bQ0gyXWMxbm4oW0NIMl1bQ0gyXVtPSF0pYyhbQ0gyXVtDSDNdKWMxT2MyW2NIXWMoQyNOKVtjSF1jKFtjSF0yKUMjTg==

> <s_epik_cmdline>
J2VwaWtfYXBwJywgJy1pbWFlJywgJ2xpZ2FuZF9wcm8ubWFlJywgJy1vbWFlJywgJ2xpZ2FuZF9wcmVwLm1hZScsICctbXMnLCAnMScsICctcGgnLCAnNycsICctcGh0JywgJzAuNScsICctbnQn

> <r_lp_tautomer_probability>
1

> <r_epik_Ionization_Penalty>
  0.0001

> <r_epik_Ionization_Penalty_Charging>
  0.0000

> <r_epik_Ionization_Penalty_Neutral>
  0.0001

> <r_epik_State_Penalty>
 -0.0000

> <r_epik_Charging_Adjusted_Penalty>
0

> <i_epik_Tot_Q>
0

> <i_epik_Tot_abs_Q>
0

$$$$
