2woq_ligand
                    3D
 Schrodinger Suite 2020-3.
 26 25  0  0  1  0            999 V2000
  -21.7200   23.3840   17.5290 O   0  0  0  0  0  0
  -22.6370   23.3800   18.3550 C   0  0  0  0  0  0
  -22.7510   24.4750   19.3680 C   0  0  0  0  0  0
  -23.5380   22.4100   18.5320 N   0  0  0  0  0  0
  -23.7490   21.2060   17.7170 C   0  0  2  0  0  0
  -23.4440   19.9110   18.4340 C   0  0  0  0  0  0
  -23.2600   21.2830   16.2730 C   0  0  0  0  0  0
  -23.9490   22.2770   15.3870 C   0  0  0  0  0  0
  -25.0880   21.5700   14.5930 C   0  0  0  0  0  0
  -25.6840   22.4950   13.5360 C   0  0  0  0  0  0
  -25.1650   23.5950   13.2360 O   0  5  0  0  0  0
  -26.7020   22.0900   12.9950 O   0  0  0  0  0  0
  -21.9855   25.2395   19.1692 H   0  0  0  0  0  0
  -22.6013   24.0595   20.3755 H   0  0  0  0  0  0
  -23.7500   24.9310   19.3041 H   0  0  0  0  0  0
  -24.1691   22.5948   19.4138 H   0  0  0  0  0  0
  -24.8447   21.2213   17.6211 H   0  0  0  0  0  0
  -23.8364   19.9590   19.4605 H   0  0  0  0  0  0
  -22.3553   19.7564   18.4645 H   0  0  0  0  0  0
  -23.9183   19.0751   17.8989 H   0  0  0  0  0  0
  -22.1946   21.5565   16.2608 H   0  0  0  0  0  0
  -23.3930   20.3046   15.7882 H   0  0  0  0  0  0
  -24.3780   23.0813   16.0026 H   0  0  0  0  0  0
  -23.2221   22.7041   14.6804 H   0  0  0  0  0  0
  -24.6856   20.6781   14.0905 H   0  0  0  0  0  0
  -25.8874   21.2707   15.2868 H   0  0  0  0  0  0
  1  2  2  0  0  0
  2  3  1  0  0  0
  2  4  1  0  0  0
  3 13  1  0  0  0
  3 14  1  0  0  0
  3 15  1  0  0  0
  4  5  1  0  0  0
  4 16  1  0  0  0
  5  6  1  0  0  0
  5  7  1  0  0  0
  5 17  1  0  0  0
  6 18  1  0  0  0
  6 19  1  0  0  0
  6 20  1  0  0  0
  7  8  1  0  0  0
  7 21  1  0  0  0
  7 22  1  0  0  0
  8  9  1  0  0  0
  8 23  1  0  0  0
  8 24  1  0  0  0
  9 10  1  0  0  0
  9 25  1  0  0  0
  9 26  1  0  0  0
 10 11  1  0  0  0
 10 12  2  0  0  0
M  CHG  1  11  -1
M  END
> <s_m_source_file>
../2woq_ligand.sdf

> <i_m_source_file_index>
1

> <s_epik_input>
Tz1DKFtDSDNdKVtOSF1bQ0BIXShbQ0gzXSlbQ0gyXVtDSDJdW0NIMl1DKD1PKVtPSF0=

> <s_epik_cmdline>
J2VwaWtfYXBwJywgJy1pbWFlJywgJ2xpZ2FuZF9wcm8ubWFlJywgJy1vbWFlJywgJ2xpZ2FuZF9wcmVwLm1hZScsICctbXMnLCAnMScsICctcGgnLCAnNycsICctcGh0JywgJzAuNScsICctbnQn

> <r_lp_tautomer_probability>
1

> <r_epik_Ionization_Penalty>
  0.0040

> <r_epik_Ionization_Penalty_Charging>
  0.0040

> <r_epik_Ionization_Penalty_Neutral>
  0.0000

> <r_epik_State_Penalty>
 -0.0000

> <r_epik_Charging_Adjusted_Penalty>
0.00396738484457149

> <i_epik_Tot_Q>
-1

> <i_epik_Tot_abs_Q>
1

$$$$
