2wot_ligand
                    3D
 Schrodinger Suite 2020-3.
 60 63  0  0  1  0            999 V2000
   -2.8880    5.9580    1.2510 C   0  0  0  0  0  0
   -2.7310    5.9440    2.6750 O   0  0  0  0  0  0
   -1.4730    6.1000    3.1800 C   0  0  0  0  0  0
   -0.3270    6.2740    2.3960 C   0  0  0  0  0  0
    0.9250    6.4250    2.9850 C   0  0  0  0  0  0
    2.0400    6.5880    2.1330 N   0  0  0  0  0  0
    3.2800    7.1530    2.4490 C   0  0  0  0  0  0
    3.3560    8.1050    3.4610 C   0  0  0  0  0  0
    4.5980    8.6530    3.7440 C   0  0  0  0  0  0
    4.7060    9.5910    4.7500 O   0  0  0  0  0  0
    5.9160   10.1870    4.9920 C   0  0  0  0  0  0
    6.4100   11.1080    4.0880 C   0  0  0  0  0  0
    7.6210   11.7310    4.3320 C   0  0  0  0  0  0
    8.1870   12.7330    3.3440 C   0  0  0  0  0  0
    8.2830   11.3910    5.5220 C   0  0  0  0  0  0
    9.6110   12.0100    5.8970 C   0  0  0  0  0  0
    7.7980   10.5110    6.4060 N   0  0  0  0  0  0
    6.6270    9.9100    6.1510 C   0  0  0  0  0  0
    6.1360    8.9740    7.2070 C   0  0  0  0  0  0
    5.4370    7.8090    6.8780 C   0  0  0  0  0  0
    4.9790    6.9850    7.8970 C   0  0  0  0  0  0
    5.2410    7.3560    9.2110 C   0  0  0  0  0  0
    5.9370    8.5320    9.4410 C   0  0  0  0  0  0
    6.3730    9.3330    8.4780 N   0  0  0  0  0  0
    5.7310    8.2490    3.0220 C   0  0  0  0  0  0
    5.5310    7.3000    2.0290 C   0  0  0  0  0  0
    4.3420    6.7570    1.7310 N   0  0  0  0  0  0
    1.0210    6.3970    4.3770 C   0  0  0  0  0  0
   -0.1110    6.2230    5.1760 C   0  0  0  0  0  0
   -0.0310    6.2010    6.5440 O   0  0  0  0  0  0
    1.2610    6.3510    7.1450 C   0  0  0  0  0  0
   -1.3700    6.0830    4.5790 C   0  0  0  0  0  0
   -2.4870    5.8950    5.3630 O   0  0  0  0  0  0
   -2.8500    7.0800    6.0860 C   0  0  0  0  0  0
   -3.9498    5.8221    0.9978 H   0  0  0  0  0  0
   -2.2982    5.1414    0.8091 H   0  0  0  0  0  0
   -2.5365    6.9213    0.8528 H   0  0  0  0  0  0
   -0.4160    6.2915    1.3098 H   0  0  0  0  0  0
    1.9872    6.2505    1.0874 H   0  0  0  0  0  0
    2.4675    8.4103    4.0137 H   0  0  0  0  0  0
    5.8469   11.3431    3.1848 H   0  0  0  0  0  0
    7.4983   12.8375    2.4926 H   0  0  0  0  0  0
    9.1647   12.3804    2.9837 H   0  0  0  0  0  0
    8.3084   13.7077    3.8392 H   0  0  0  0  0  0
    9.9221   12.7144    5.1115 H   0  0  0  0  0  0
   10.3681   11.2188    6.0007 H   0  0  0  0  0  0
    9.5087   12.5470    6.8515 H   0  0  0  0  0  0
    5.2540    7.5509    5.8349 H   0  0  0  0  0  0
    4.4285    6.0713    7.6728 H   0  0  0  0  0  0
    4.9062    6.7354   10.0422 H   0  0  0  0  0  0
    6.1380    8.8154   10.4741 H   0  0  0  0  0  0
    6.7189    8.6598    3.2304 H   0  0  0  0  0  0
    6.3977    6.9748    1.4536 H   0  0  0  0  0  0
    1.9967    6.5130    4.8488 H   0  0  0  0  0  0
    1.1627    6.3128    8.2399 H   0  0  0  0  0  0
    1.6929    7.3184    6.8492 H   0  0  0  0  0  0
    1.9192    5.5369    6.8073 H   0  0  0  0  0  0
   -3.7440    6.8788    6.6945 H   0  0  0  0  0  0
   -3.0651    7.8916    5.3754 H   0  0  0  0  0  0
   -2.0191    7.3780    6.7424 H   0  0  0  0  0  0
  1  2  1  0  0  0
  1 35  1  0  0  0
  1 36  1  0  0  0
  1 37  1  0  0  0
  2  3  1  0  0  0
  3  4  2  0  0  0
  3 32  1  0  0  0
  4  5  1  0  0  0
  4 38  1  0  0  0
  5  6  1  0  0  0
  5 28  2  0  0  0
  6  7  1  0  0  0
  6 39  1  0  0  0
  7  8  2  0  0  0
  7 27  1  0  0  0
  8  9  1  0  0  0
  8 40  1  0  0  0
  9 10  1  0  0  0
  9 25  2  0  0  0
 10 11  1  0  0  0
 11 12  2  0  0  0
 11 18  1  0  0  0
 12 13  1  0  0  0
 12 41  1  0  0  0
 13 14  1  0  0  0
 13 15  2  0  0  0
 14 42  1  0  0  0
 14 43  1  0  0  0
 14 44  1  0  0  0
 15 16  1  0  0  0
 15 17  1  0  0  0
 16 45  1  0  0  0
 16 46  1  0  0  0
 16 47  1  0  0  0
 17 18  2  0  0  0
 18 19  1  0  0  0
 19 20  2  0  0  0
 19 24  1  0  0  0
 20 21  1  0  0  0
 20 48  1  0  0  0
 21 22  2  0  0  0
 21 49  1  0  0  0
 22 23  1  0  0  0
 22 50  1  0  0  0
 23 24  2  0  0  0
 23 51  1  0  0  0
 25 26  1  0  0  0
 25 52  1  0  0  0
 26 27  2  0  0  0
 26 53  1  0  0  0
 28 29  1  0  0  0
 28 54  1  0  0  0
 29 30  1  0  0  0
 29 32  2  0  0  0
 30 31  1  0  0  0
 31 55  1  0  0  0
 31 56  1  0  0  0
 31 57  1  0  0  0
 32 33  1  0  0  0
 33 34  1  0  0  0
 34 58  1  0  0  0
 34 59  1  0  0  0
 34 60  1  0  0  0
M  END
> <s_m_source_file>
../2wot_ligand.sdf

> <i_m_source_file_index>
1

> <s_epik_input>
W0NIM11PYzFjKE9bQ0gzXSlbY0hdYyhbY0hdYzFPW0NIM10pW05IXWMyW2NIXWMoW2NIXVtjSF1uMilPYzNbY0hdYyhbQ0gzXSljKFtDSDNdKW5jMy1jNFtjSF1bY0hdW2NIXVtjSF1uNA==

> <s_epik_cmdline>
J2VwaWtfYXBwJywgJy1pbWFlJywgJ2xpZ2FuZF9wcm8ubWFlJywgJy1vbWFlJywgJ2xpZ2FuZF9wcmVwLm1hZScsICctbXMnLCAnMScsICctcGgnLCAnNycsICctcGh0JywgJzAuNScsICctbnQn

> <r_lp_tautomer_probability>
1

> <r_epik_Ionization_Penalty>
  0.2157

> <r_epik_Ionization_Penalty_Charging>
  0.0000

> <r_epik_Ionization_Penalty_Neutral>
  0.2157

> <r_epik_State_Penalty>
 -0.0000

> <r_epik_Charging_Adjusted_Penalty>
0

> <i_epik_Tot_Q>
0

> <i_epik_Tot_abs_Q>
0

$$$$
