2wou_ligand
                    3D
 Schrodinger Suite 2020-3.
 44 46  0  0  1  0            999 V2000
    9.2100   11.7400    5.1300 C   0  0  0  0  0  0
    7.8490   11.1780    4.9490 C   0  0  0  0  0  0
    6.9910   11.7310    4.0230 C   0  0  0  0  0  0
    5.7310   11.1900    3.8690 C   0  0  0  0  0  0
    5.3730   10.1170    4.6500 C   0  0  0  0  0  0
    6.2680    9.6090    5.5680 C   0  0  0  0  0  0
    7.4920   10.1350    5.7060 N   0  0  0  0  0  0
    5.8940    8.4420    6.4340 C   0  0  0  0  0  0
    4.1140    9.5600    4.5180 O   0  0  0  0  0  0
    4.0120    8.5190    3.6060 C   0  0  0  0  0  0
    5.0920    8.0310    2.9060 C   0  0  0  0  0  0
    4.8660    6.9980    2.0250 C   0  0  0  0  0  0
    3.6690    6.4400    1.8090 N   0  0  0  0  0  0
    2.6390    6.9260    2.5090 C   0  0  0  0  0  0
    2.7690    7.9640    3.4100 C   0  0  0  0  0  0
    1.4210    6.3170    2.2640 N   0  0  0  0  0  0
    0.2840    6.2280    3.0980 C   0  0  0  0  0  0
   -0.9450    6.0610    2.4980 C   0  0  0  0  0  0
   -2.0860    5.9600    3.2630 C   0  0  0  0  0  0
   -2.0030    6.0270    4.6380 C   0  0  0  0  0  0
   -0.7880    6.1960    5.2550 C   0  0  0  0  0  0
    0.3500    6.2900    4.4810 C   0  0  0  0  0  0
   -3.5140    5.8900    5.5870 S   0  0  0  0  0  0
   -3.8080    7.2010    6.1360 O   0  0  0  0  0  0
   -4.3650    5.1960    4.6410 O   0  0  0  0  0  0
   -3.2930    4.9990    6.7100 N   0  0  0  0  0  0
    9.3519   12.5861    4.4415 H   0  0  0  0  0  0
    9.9589   10.9633    4.9157 H   0  0  0  0  0  0
    9.3283   12.0873    6.1670 H   0  0  0  0  0  0
    7.3034   12.5840    3.4206 H   0  0  0  0  0  0
    5.0331   11.6055    3.1421 H   0  0  0  0  0  0
    4.8655    8.1282    6.2023 H   0  0  0  0  0  0
    5.9583    8.7352    7.4922 H   0  0  0  0  0  0
    6.5841    7.6071    6.2422 H   0  0  0  0  0  0
    6.0898    8.4474    3.0443 H   0  0  0  0  0  0
    5.7176    6.6090    1.4668 H   0  0  0  0  0  0
    1.9024    8.3368    3.9560 H   0  0  0  0  0  0
    1.2425    5.8107    1.3039 H   0  0  0  0  0  0
   -1.0148    6.0085    1.4115 H   0  0  0  0  0  0
   -3.0548    5.8271    2.7815 H   0  0  0  0  0  0
   -0.7236    6.2551    6.3415 H   0  0  0  0  0  0
    1.3182    6.4153    4.9657 H   0  0  0  0  0  0
   -4.2195    4.9116    7.2966 H   0  0  0  0  0  0
   -2.4925    5.4034    7.3469 H   0  0  0  0  0  0
  1  2  1  0  0  0
  1 27  1  0  0  0
  1 28  1  0  0  0
  1 29  1  0  0  0
  2  3  2  0  0  0
  2  7  1  0  0  0
  3  4  1  0  0  0
  3 30  1  0  0  0
  4  5  2  0  0  0
  4 31  1  0  0  0
  5  6  1  0  0  0
  5  9  1  0  0  0
  6  7  2  0  0  0
  6  8  1  0  0  0
  8 32  1  0  0  0
  8 33  1  0  0  0
  8 34  1  0  0  0
  9 10  1  0  0  0
 10 11  2  0  0  0
 10 15  1  0  0  0
 11 12  1  0  0  0
 11 35  1  0  0  0
 12 13  2  0  0  0
 12 36  1  0  0  0
 13 14  1  0  0  0
 14 15  2  0  0  0
 14 16  1  0  0  0
 15 37  1  0  0  0
 16 17  1  0  0  0
 16 38  1  0  0  0
 17 18  2  0  0  0
 17 22  1  0  0  0
 18 19  1  0  0  0
 18 39  1  0  0  0
 19 20  2  0  0  0
 19 40  1  0  0  0
 20 21  1  0  0  0
 20 23  1  0  0  0
 21 22  2  0  0  0
 21 41  1  0  0  0
 22 42  1  0  0  0
 23 24  2  0  0  0
 23 25  2  0  0  0
 23 26  1  0  0  0
 26 43  1  0  0  0
 26 44  1  0  0  0
M  END
> <s_m_source_file>
../2wou_ligand.sdf

> <i_m_source_file_index>
1

> <s_epik_input>
W0NIM11jMVtjSF1bY0hdYyhjKG4xKVtDSDNdKU9jMltjSF1bY0hdbmMoW2NIXTIpW05IXWMzW2NIXVtjSF1jKFtjSF1bY0hdMylTKD1PKSg9TylbTkgyXQ==

> <s_epik_cmdline>
J2VwaWtfYXBwJywgJy1pbWFlJywgJ2xpZ2FuZF9wcm8ubWFlJywgJy1vbWFlJywgJ2xpZ2FuZF9wcmVwLm1hZScsICctbXMnLCAnMScsICctcGgnLCAnNycsICctcGh0JywgJzAuNScsICctbnQn

> <r_lp_tautomer_probability>
1

> <r_epik_Ionization_Penalty>
  0.1836

> <r_epik_Ionization_Penalty_Charging>
  0.0000

> <r_epik_Ionization_Penalty_Neutral>
  0.1836

> <r_epik_State_Penalty>
 -0.0000

> <r_epik_Charging_Adjusted_Penalty>
0

> <i_epik_Tot_Q>
0

> <i_epik_Tot_abs_Q>
0

$$$$
