2wp1_ligand
                    3D
 Schrodinger Suite 2020-3.
125125  0  0  1  0            999 V2000
   -5.4600    4.6300  -29.9230 N   0  3  0  0  0  0
   -6.7840    3.9950  -30.1890 C   0  0  2  0  0  0
   -7.9280    4.9790  -29.9340 C   0  0  0  0  0  0
   -7.8710    5.7910  -29.0080 O   0  0  0  0  0  0
   -6.9530    2.7540  -29.3100 C   0  0  0  0  0  0
   -8.9830    4.9240  -30.7630 N   0  0  0  0  0  0
  -10.1340    5.8200  -30.6090 C   0  0  2  0  0  0
  -10.9120    5.5540  -29.3200 C   0  0  0  0  0  0
  -10.8590    4.4570  -28.7580 O   0  0  0  0  0  0
  -10.9770    5.5190  -31.8470 C   0  0  0  0  0  0
   -9.9750    5.0310  -32.8380 C   0  0  0  0  0  0
   -9.0970    4.1450  -32.0060 C   0  0  0  0  0  0
  -11.6280    6.5720  -28.8560 N   0  0  0  0  0  0
  -12.4360    6.4620  -27.6500 C   0  0  2  0  0  0
  -13.6400    7.3850  -27.7550 C   0  0  0  0  0  0
  -13.5120    8.5730  -28.0580 O   0  0  0  0  0  0
  -11.6120    6.8030  -26.4000 C   0  0  0  0  0  0
  -10.5670    5.7510  -26.0480 C   0  0  0  0  0  0
   -9.8340    6.0910  -24.7610 C   0  0  0  0  0  0
  -10.6990    6.0170  -23.5850 N   0  0  0  0  0  0
  -10.2700    6.1390  -22.3310 C   0  0  0  0  0  0
   -8.9820    6.3440  -22.0840 N   0  3  0  0  0  0
  -11.1250    6.0410  -21.3190 N   0  0  0  0  0  0
  -20.8520    2.4910  -26.9230 O   0  0  0  0  0  0
  -21.6380    3.4360  -27.0360 C   0  0  0  0  0  0
  -23.1300    3.2340  -26.8620 C   0  0  0  0  0  0
  -21.2570    4.6790  -27.3090 N   0  0  0  0  0  0
  -19.8770    5.1080  -27.5070 C   0  0  0  0  0  0
  -19.4960    6.1230  -26.4400 C   0  0  0  0  0  0
  -18.5230    7.1710  -26.9560 C   0  0  0  0  0  0
  -17.2090    6.5440  -27.3410 C   0  0  0  0  0  0
  -16.0710    7.5330  -27.5760 C   0  0  2  0  0  0
  -14.8120    6.8110  -27.5180 N   0  0  0  0  0  0
  -16.1180    8.6570  -26.5410 C   0  0  0  0  0  0
  -15.7080    8.4750  -25.3960 O   0  0  0  0  0  0
  -16.6170    9.8190  -26.9490 N   0  0  0  0  0  0
  -16.7100   10.9650  -26.0470 C   0  0  2  0  0  0
  -18.1560   11.4110  -25.8620 C   0  0  0  0  0  0
  -18.7270   12.0890  -26.7150 O   0  0  0  0  0  0
  -15.8730   12.1340  -26.5820 C   0  0  0  0  0  0
  -14.3800   11.8490  -26.6700 C   0  0  0  0  0  0
  -13.7740   11.4960  -25.3250 C   0  0  0  0  0  0
  -13.9130   12.2450  -24.3570 O   0  0  0  0  0  0
  -13.0920   10.3540  -25.2570 N   0  0  0  0  0  0
  -18.7400   11.0270  -24.7360 N   0  0  0  0  0  0
  -20.1190   11.3770  -24.4310 C   0  0  2  0  0  0
  -20.2190   12.8600  -24.1090 C   0  0  0  0  0  0
  -19.8380   13.2900  -23.0180 O   0  0  0  0  0  0
  -20.6070   10.5520  -23.2410 C   0  0  0  0  0  0
  -20.5410    9.0370  -23.4310 C   0  0  0  0  0  0
  -20.8290    8.3500  -22.1120 C   0  0  0  0  0  0
  -21.5340    8.6070  -24.5000 C   0  0  0  0  0  0
  -20.7290   13.6370  -25.0600 N   0  0  0  0  0  0
  -20.8750   15.0790  -24.8780 C   0  0  2  0  0  0
  -19.7020   15.6700  -24.0880 C   0  0  0  0  0  0
  -19.9560   16.2740  -23.0230 O   0  0  0  0  0  0
  -22.1910   15.3780  -24.1650 C   0  0  0  0  0  0
  -18.5420   15.5170  -24.5380 N   0  0  0  0  0  0
   -5.3463    5.5208  -30.5583 H   0  0  0  0  0  0
   -4.6573    3.9129  -30.1498 H   0  0  0  0  0  0
   -5.4005    4.9244  -28.8648 H   0  0  0  0  0  0
   -6.7923    3.7083  -31.2509 H   0  0  0  0  0  0
   -6.1262    2.0540  -29.5011 H   0  0  0  0  0  0
   -7.9096    2.2649  -29.5462 H   0  0  0  0  0  0
   -6.9447    3.0510  -28.2509 H   0  0  0  0  0  0
   -9.7983    6.8649  -30.5354 H   0  0  0  0  0  0
  -11.7298    4.7555  -31.6012 H   0  0  0  0  0  0
  -11.4819    6.4381  -32.1792 H   0  0  0  0  0  0
  -10.4904    4.4859  -33.6425 H   0  0  0  0  0  0
   -9.4335    5.8883  -33.2645 H   0  0  0  0  0  0
   -8.0966    3.9958  -32.4383 H   0  0  0  0  0  0
   -9.5508    3.1674  -31.7858 H   0  0  0  0  0  0
  -11.5976    7.5200  -29.4131 H   0  0  0  0  0  0
  -12.7629    5.4127  -27.6034 H   0  0  0  0  0  0
  -11.0796    7.7522  -26.5596 H   0  0  0  0  0  0
  -12.2830    6.9001  -25.5337 H   0  0  0  0  0  0
  -11.0582    4.7754  -25.9178 H   0  0  0  0  0  0
   -9.8269    5.6836  -26.8590 H   0  0  0  0  0  0
   -9.0036    5.3846  -24.6144 H   0  0  0  0  0  0
   -9.4373    7.1150  -24.8245 H   0  0  0  0  0  0
  -11.7795    5.8507  -23.7066 H   0  0  0  0  0  0
   -8.2685    6.4262  -22.9171 H   0  0  0  0  0  0
  -12.1937    5.8711  -21.5164 H   0  0  0  0  0  0
  -10.7642    6.1297  -20.2836 H   0  0  0  0  0  0
  -23.3334    2.1759  -26.6406 H   0  0  0  0  0  0
  -23.6493    3.5212  -27.7882 H   0  0  0  0  0  0
  -23.4901    3.8583  -26.0310 H   0  0  0  0  0  0
  -22.0760    5.4096  -27.3828 H   0  0  0  0  0  0
  -19.2086    4.2372  -27.4364 H   0  0  0  0  0  0
  -19.7752    5.5687  -28.5007 H   0  0  0  0  0  0
  -20.3997    6.6429  -26.0892 H   0  0  0  0  0  0
  -19.0195    5.6050  -25.5946 H   0  0  0  0  0  0
  -18.9511    7.6646  -27.8409 H   0  0  0  0  0  0
  -18.3401    7.9196  -26.1711 H   0  0  0  0  0  0
  -16.8783    5.8653  -26.5410 H   0  0  0  0  0  0
  -17.3332    5.9767  -28.2752 H   0  0  0  0  0  0
  -16.1270    7.9771  -28.5808 H   0  0  0  0  0  0
  -14.8033    5.7397  -27.2686 H   0  0  0  0  0  0
  -16.9639    9.9081  -27.9890 H   0  0  0  0  0  0
  -16.3139   10.6050  -25.0860 H   0  0  0  0  0  0
  -16.2108   12.3928  -27.5963 H   0  0  0  0  0  0
  -15.9952   13.0050  -25.9214 H   0  0  0  0  0  0
  -14.2079   11.0024  -27.3509 H   0  0  0  0  0  0
  -13.8587   12.7390  -27.0524 H   0  0  0  0  0  0
  -12.9949    9.7174  -26.1488 H   0  0  0  0  0  0
  -12.6258   10.0474  -24.3090 H   0  0  0  0  0  0
  -18.1539   10.4284  -24.0231 H   0  0  0  0  0  0
  -20.7087   11.1474  -25.3308 H   0  0  0  0  0  0
  -19.9941   10.7845  -22.3577 H   0  0  0  0  0  0
  -21.6589   10.7965  -23.0320 H   0  0  0  0  0  0
  -19.5343    8.7396  -23.7598 H   0  0  0  0  0  0
  -20.0971    8.6792  -21.3597 H   0  0  0  0  0  0
  -20.7558    7.2602  -22.2425 H   0  0  0  0  0  0
  -21.8432    8.6117  -21.7760 H   0  0  0  0  0  0
  -21.3011    9.1204  -25.4445 H   0  0  0  0  0  0
  -22.5532    8.8706  -24.1810 H   0  0  0  0  0  0
  -21.4658    7.5191  -24.6475 H   0  0  0  0  0  0
  -21.0447   13.1669  -26.0030 H   0  0  0  0  0  0
  -20.8773   15.5031  -25.8929 H   0  0  0  0  0  0
  -23.0251   14.9497  -24.7401 H   0  0  0  0  0  0
  -22.3238   16.4668  -24.0818 H   0  0  0  0  0  0
  -22.1724   14.9330  -23.1592 H   0  0  0  0  0  0
  -18.3854   14.9748  -25.4822 H   0  0  0  0  0  0
  -17.6807   15.9249  -23.9886 H   0  0  0  0  0  0
   -8.6282    6.4317  -21.0462 H   0  0  0  0  0  0
  1  2  1  0  0  0
  1 59  1  0  0  0
  1 60  1  0  0  0
  1 61  1  0  0  0
  2  3  1  0  0  0
  2  5  1  0  0  0
  2 62  1  0  0  0
  3  4  2  0  0  0
  3  6  1  0  0  0
  5 63  1  0  0  0
  5 64  1  0  0  0
  5 65  1  0  0  0
  6  7  1  0  0  0
  6 12  1  0  0  0
  7  8  1  0  0  0
  7 10  1  0  0  0
  7 66  1  0  0  0
  8  9  2  0  0  0
  8 13  1  0  0  0
 10 11  1  0  0  0
 10 67  1  0  0  0
 10 68  1  0  0  0
 11 12  1  0  0  0
 11 69  1  0  0  0
 11 70  1  0  0  0
 12 71  1  0  0  0
 12 72  1  0  0  0
 13 14  1  0  0  0
 13 73  1  0  0  0
 14 15  1  0  0  0
 14 17  1  0  0  0
 14 74  1  0  0  0
 15 16  2  0  0  0
 15 33  1  0  0  0
 17 18  1  0  0  0
 17 75  1  0  0  0
 17 76  1  0  0  0
 18 19  1  0  0  0
 18 77  1  0  0  0
 18 78  1  0  0  0
 19 20  1  0  0  0
 19 79  1  0  0  0
 19 80  1  0  0  0
 20 21  1  0  0  0
 20 81  1  0  0  0
 21 22  2  0  0  0
 21 23  1  0  0  0
 22 82  1  0  0  0
 22125  1  0  0  0
 23 83  1  0  0  0
 23 84  1  0  0  0
 24 25  2  0  0  0
 25 26  1  0  0  0
 25 27  1  0  0  0
 26 85  1  0  0  0
 26 86  1  0  0  0
 26 87  1  0  0  0
 27 28  1  0  0  0
 27 88  1  0  0  0
 28 29  1  0  0  0
 28 89  1  0  0  0
 28 90  1  0  0  0
 29 30  1  0  0  0
 29 91  1  0  0  0
 29 92  1  0  0  0
 30 31  1  0  0  0
 30 93  1  0  0  0
 30 94  1  0  0  0
 31 32  1  0  0  0
 31 95  1  0  0  0
 31 96  1  0  0  0
 32 33  1  0  0  0
 32 34  1  0  0  0
 32 97  1  0  0  0
 33 98  1  0  0  0
 34 35  2  0  0  0
 34 36  1  0  0  0
 36 37  1  0  0  0
 36 99  1  0  0  0
 37 38  1  0  0  0
 37 40  1  0  0  0
 37100  1  0  0  0
 38 39  2  0  0  0
 38 45  1  0  0  0
 40 41  1  0  0  0
 40101  1  0  0  0
 40102  1  0  0  0
 41 42  1  0  0  0
 41103  1  0  0  0
 41104  1  0  0  0
 42 43  2  0  0  0
 42 44  1  0  0  0
 44105  1  0  0  0
 44106  1  0  0  0
 45 46  1  0  0  0
 45107  1  0  0  0
 46 47  1  0  0  0
 46 49  1  0  0  0
 46108  1  0  0  0
 47 48  2  0  0  0
 47 53  1  0  0  0
 49 50  1  0  0  0
 49109  1  0  0  0
 49110  1  0  0  0
 50 51  1  0  0  0
 50 52  1  0  0  0
 50111  1  0  0  0
 51112  1  0  0  0
 51113  1  0  0  0
 51114  1  0  0  0
 52115  1  0  0  0
 52116  1  0  0  0
 52117  1  0  0  0
 53 54  1  0  0  0
 53118  1  0  0  0
 54 55  1  0  0  0
 54 57  1  0  0  0
 54119  1  0  0  0
 55 56  2  0  0  0
 55 58  1  0  0  0
 57120  1  0  0  0
 57121  1  0  0  0
 57122  1  0  0  0
 58123  1  0  0  0
 58124  1  0  0  0
M  CHG  2   1   1  22   1
M  END
> <s_m_source_file>
../2wp1_ligand.sdf

> <i_m_source_file_index>
1

> <s_epik_input>
W05IMytdW0NAQEhdKFtDSDNdKUMoPU8pTjFbQ0BASF0oW0NIMl1bQ0gyXVtDSDJdMSlDKD1PKVtOSF1bQ0BASF0oW0NIMl1bQ0gyXVtDSDJdW05IXS9DKD1OXFtIXSlbTkgyXSlDKD1PKVtOSF1bQ0BASF0oW0NIMl1bQ0gyXVtDSDJdW0NIMl1bTkhdQyg9TylbQ0gzXSlDKD1PKVtOSF1bQ0BASF0oW0NIMl1bQ0gyXUMoPU8pW05IMl0pQyg9TylbTkhdW0NAQEhdKFtDSDJdW0NIXShbQ0gzXSlbQ0gzXSlDKD1PKVtOSF1bQ0BASF0oW0NIM10pQyg9TylbTkgyXQ==

> <s_epik_cmdline>
J2VwaWtfYXBwJywgJy1pbWFlJywgJ2xpZ2FuZF9wcm8ubWFlJywgJy1vbWFlJywgJ2xpZ2FuZF9wcmVwLm1hZScsICctbXMnLCAnMScsICctcGgnLCAnNycsICctcGh0JywgJzAuNScsICctbnQn

> <r_epik_Ionization_Penalty>
  0.1164

> <r_epik_Ionization_Penalty_Charging>
  0.1164

> <r_epik_Ionization_Penalty_Neutral>
  0.0000

> <r_epik_State_Penalty>
  0.1060

> <r_epik_Charging_Adjusted_Penalty>
0.222417737933738

> <i_epik_Tot_Q>
2

> <i_epik_Tot_abs_Q>
2

> <s_epik_Chemistry_Notes>
This compound has an imine and may undergo hydrolysis.

$$$$
