2wpa_ligand
                    3D
 Schrodinger Suite 2020-3.
 58 60  0  0  1  0            999 V2000
  -15.9880  206.3540  114.0880 O   0  0  0  0  0  0
  -14.9070  206.8760  114.3700 C   0  0  0  0  0  0
  -14.4910  207.0770  115.8640 C   0  0  1  0  0  0
  -14.8150  208.5470  116.3300 C   0  0  0  0  0  0
  -14.4070  208.8460  117.8080 C   0  0  0  0  0  0
  -15.1010  207.7610  118.7960 N   0  3  2  0  0  0
  -14.7170  208.0270  120.1370 C   0  0  0  0  0  0
  -14.8050  206.3440  118.3020 C   0  0  0  0  0  0
  -15.2390  206.1370  116.8460 C   0  0  0  0  0  0
  -14.0060  207.3120  113.3690 N   0  0  0  0  0  0
  -12.7280  207.9500  113.6640 C   0  0  0  0  0  0
  -14.2950  207.1690  111.8890 C   0  0  0  0  0  0
  -15.5020  207.9220  111.3960 C   0  0  0  0  0  0
  -14.4300  205.6920  111.5120 C   0  0  0  0  0  0
  -13.0440  207.8030  111.3540 C   0  0  0  0  0  0
  -12.5440  208.0710  110.1190 N   0  3  0  0  0  0
  -11.3160  208.7180  110.3090 N   0  0  0  0  0  0
  -11.1160  208.8140  111.5900 C   0  0  0  0  0  0
  -12.2170  208.2200  112.3330 C   0  0  0  0  0  0
  -10.0440  209.4350  112.1840 N   0  0  0  0  0  0
   -9.2720  209.0490  113.2270 C   0  0  0  0  0  0
   -9.3910  208.0150  113.8270 O   0  0  0  0  0  0
   -8.2970  210.1290  113.6760 C   0  0  0  0  0  0
   -7.3950  209.9080  114.8800 C   0  0  0  0  0  0
   -6.3270  208.9190  114.4830 C   0  0  0  0  0  0
   -6.6640  211.1690  115.2020 C   0  0  0  0  0  0
  -13.4174  206.8396  115.8972 H   0  0  0  0  0  0
  -14.2744  209.2615  115.6918 H   0  0  0  0  0  0
  -15.8969  208.7277  116.2477 H   0  0  0  0  0  0
  -13.3133  208.7823  117.9065 H   0  0  0  0  0  0
  -14.7416  209.8570  118.0834 H   0  0  0  0  0  0
  -16.1940  207.8135  118.9082 H   0  0  0  0  0  0
  -14.9718  209.0662  120.3921 H   0  0  0  0  0  0
  -13.6323  207.8786  120.2441 H   0  0  0  0  0  0
  -15.2494  207.3423  120.8135 H   0  0  0  0  0  0
  -13.7240  206.1512  118.3674 H   0  0  0  0  0  0
  -15.3454  205.6175  118.9266 H   0  0  0  0  0  0
  -16.3205  206.3281  116.7845 H   0  0  0  0  0  0
  -15.0359  205.0898  116.5776 H   0  0  0  0  0  0
  -12.9011  208.8620  114.2542 H   0  0  0  0  0  0
  -12.0957  207.2564  114.2377 H   0  0  0  0  0  0
  -16.4143  207.4519  111.7919 H   0  0  0  0  0  0
  -15.5249  207.8986  110.2965 H   0  0  0  0  0  0
  -15.4486  208.9656  111.7395 H   0  0  0  0  0  0
  -15.3633  205.2900  111.9330 H   0  0  0  0  0  0
  -13.5742  205.1309  111.9154 H   0  0  0  0  0  0
  -14.4496  205.5935  110.4166 H   0  0  0  0  0  0
   -9.6947  210.4081  111.8084 H   0  0  0  0  0  0
   -7.5917  210.3481  112.8608 H   0  0  0  0  0  0
   -8.8541  211.0417  113.9340 H   0  0  0  0  0  0
   -7.9973  209.5770  115.7388 H   0  0  0  0  0  0
   -6.7948  207.9563  114.2292 H   0  0  0  0  0  0
   -5.6285  208.7777  115.3209 H   0  0  0  0  0  0
   -5.7791  209.3020  113.6094 H   0  0  0  0  0  0
   -7.3845  211.9439  115.5028 H   0  0  0  0  0  0
   -6.1097  211.5083  114.3145 H   0  0  0  0  0  0
   -5.9591  210.9840  116.0260 H   0  0  0  0  0  0
  -13.1079  207.7767  109.2216 H   0  0  0  0  0  0
  1  2  2  0  0  0
  2  3  1  0  0  0
  2 10  1  0  0  0
  3  4  1  0  0  0
  3  9  1  0  0  0
  3 27  1  0  0  0
  4  5  1  0  0  0
  4 28  1  0  0  0
  4 29  1  0  0  0
  5  6  1  0  0  0
  5 30  1  0  0  0
  5 31  1  0  0  0
  6  7  1  0  0  0
  6  8  1  0  0  0
  6 32  1  0  0  0
  7 33  1  0  0  0
  7 34  1  0  0  0
  7 35  1  0  0  0
  8  9  1  0  0  0
  8 36  1  0  0  0
  8 37  1  0  0  0
  9 38  1  0  0  0
  9 39  1  0  0  0
 10 11  1  0  0  0
 10 12  1  0  0  0
 11 19  1  0  0  0
 11 40  1  0  0  0
 11 41  1  0  0  0
 12 13  1  0  0  0
 12 14  1  0  0  0
 12 15  1  0  0  0
 13 42  1  0  0  0
 13 43  1  0  0  0
 13 44  1  0  0  0
 14 45  1  0  0  0
 14 46  1  0  0  0
 14 47  1  0  0  0
 15 16  2  0  0  0
 15 19  1  0  0  0
 16 17  1  0  0  0
 16 58  1  0  0  0
 17 18  1  0  0  0
 18 19  2  0  0  0
 18 20  1  0  0  0
 20 21  1  0  0  0
 20 48  1  0  0  0
 21 22  2  0  0  0
 21 23  1  0  0  0
 23 24  1  0  0  0
 23 49  1  0  0  0
 23 50  1  0  0  0
 24 25  1  0  0  0
 24 26  1  0  0  0
 24 51  1  0  0  0
 25 52  1  0  0  0
 25 53  1  0  0  0
 25 54  1  0  0  0
 26 55  1  0  0  0
 26 56  1  0  0  0
 26 57  1  0  0  0
M  CHG  2   6   1  16   1
M  END
> <s_m_source_file>
../2wpa_ligand.sdf

> <i_m_source_file_index>
1

> <s_epik_input>
W0NIMl0xW0NIMl1bTkBASCtdKFtDSDNdKVtDSDJdW0NIMl1bQ0BASF0xQyg9TylOKEMyKFtDSDNdKVtDSDNdKVtDSDJdYyhjMjMpYyhbbkhdbjMpW05IXUMoPU8pW0NIMl1bQ0hdKFtDSDNdKVtDSDNd

> <s_epik_cmdline>
J2VwaWtfYXBwJywgJy1pbWFlJywgJ2xpZ2FuZF9wcm8ubWFlJywgJy1vbWFlJywgJ2xpZ2FuZF9wcmVwLm1hZScsICctbXMnLCAnMScsICctcGgnLCAnNycsICctcGh0JywgJzAuNScsICctbnQn

> <r_lp_tautomer_probability>
1

> <r_epik_Ionization_Penalty>
  0.0121

> <r_epik_Ionization_Penalty_Charging>
  0.0121

> <r_epik_Ionization_Penalty_Neutral>
  0.0000

> <r_epik_State_Penalty>
 -0.0000

> <r_epik_Charging_Adjusted_Penalty>
0.0121439493177726

> <i_epik_Tot_Q>
2

> <i_epik_Tot_abs_Q>
2

$$$$
