2wpb_ligand
                    3D
 Schrodinger Suite 2020-3.
 36 35  0  0  1  0            999 V2000
    4.5120  -12.6610   27.5690 C   0  0  0  0  0  0
    4.6290  -11.4100   28.4740 C   0  0  0  0  0  0
    4.4550  -11.6820   29.9860 C   0  0  0  0  0  0
    4.1590  -10.4850   30.8390 N   0  0  0  0  0  0
    4.3540   -9.1070   30.2970 C   0  0  0  0  0  0
    5.3390   -8.2580   31.1160 C   0  0  0  0  0  0
    6.7620   -8.8290   31.0350 C   0  0  0  0  0  0
    3.6600  -10.7050   32.0760 C   0  0  0  0  0  0
    3.4760  -11.8310   32.5260 O   0  0  0  0  0  0
    3.3580   -9.5030   32.9890 C   0  0  2  0  0  0
    3.7640   -9.7730   34.3670 O   0  0  0  0  0  0
    1.8770   -9.0980   32.8830 C   0  0  2  0  0  0
    1.7160   -8.5080   31.5990 O   0  0  0  0  0  0
    1.4980   -8.0660   33.9490 C   0  0  0  0  0  0
    2.2510   -6.8610   33.7640 O   0  0  0  0  0  0
    4.6493  -12.3673   26.5179 H   0  0  0  0  0  0
    3.5177  -13.1139   27.6963 H   0  0  0  0  0  0
    5.2859  -13.3905   27.8500 H   0  0  0  0  0  0
    5.6233  -10.9571   28.3467 H   0  0  0  0  0  0
    3.8551  -10.6805   28.1930 H   0  0  0  0  0  0
    3.6191  -12.3804   30.1391 H   0  0  0  0  0  0
    5.3792  -12.1226   30.3881 H   0  0  0  0  0  0
    4.7471   -9.1686   29.2715 H   0  0  0  0  0  0
    3.3905   -8.5763   30.2891 H   0  0  0  0  0  0
    5.3500   -7.2299   30.7250 H   0  0  0  0  0  0
    5.0245   -8.2461   32.1700 H   0  0  0  0  0  0
    7.4430   -8.2021   31.6293 H   0  0  0  0  0  0
    7.0940   -8.8389   29.9863 H   0  0  0  0  0  0
    6.7684   -9.8551   31.4313 H   0  0  0  0  0  0
    3.9807   -8.6435   32.6998 H   0  0  0  0  0  0
    4.7992  -10.0732   34.5866 H   0  0  0  0  0  0
    1.2059   -9.9659   32.9629 H   0  0  0  0  0  0
    1.9392   -9.0916   30.6937 H   0  0  0  0  0  0
    0.4254   -7.8349   33.8707 H   0  0  0  0  0  0
    1.7131   -8.4743   34.9475 H   0  0  0  0  0  0
    2.1036   -6.0102   34.4455 H   0  0  0  0  0  0
  1  2  1  0  0  0
  1 16  1  0  0  0
  1 17  1  0  0  0
  1 18  1  0  0  0
  2  3  1  0  0  0
  2 19  1  0  0  0
  2 20  1  0  0  0
  3  4  1  0  0  0
  3 21  1  0  0  0
  3 22  1  0  0  0
  4  5  1  0  0  0
  4  8  1  0  0  0
  5  6  1  0  0  0
  5 23  1  0  0  0
  5 24  1  0  0  0
  6  7  1  0  0  0
  6 25  1  0  0  0
  6 26  1  0  0  0
  7 27  1  0  0  0
  7 28  1  0  0  0
  7 29  1  0  0  0
  8  9  2  0  0  0
  8 10  1  0  0  0
 10 11  1  0  0  0
 10 12  1  0  0  0
 10 30  1  0  0  0
 11 31  1  0  0  0
 12 13  1  0  0  0
 12 14  1  0  0  0
 12 32  1  0  0  0
 13 33  1  0  0  0
 14 15  1  0  0  0
 14 34  1  0  0  0
 14 35  1  0  0  0
 15 36  1  0  0  0
M  END
> <s_m_source_file>
../2wpb_ligand.sdf

> <i_m_source_file_index>
1

> <s_epik_input>
W0NIM11bQ0gyXVtDSDJdTihbQ0gyXVtDSDJdW0NIM10pQyg9TylbQ0BIXShbT0hdKVtDQEhdKFtPSF0pW0NIMl1bT0hd

> <s_epik_cmdline>
J2VwaWtfYXBwJywgJy1pbWFlJywgJ2xpZ2FuZF9wcm8ubWFlJywgJy1vbWFlJywgJ2xpZ2FuZF9wcmVwLm1hZScsICctbXMnLCAnMScsICctcGgnLCAnNycsICctcGh0JywgJzAuNScsICctbnQn

> <r_lp_tautomer_probability>
1

> <r_epik_Ionization_Penalty>
  0.0001

> <r_epik_Ionization_Penalty_Charging>
  0.0000

> <r_epik_Ionization_Penalty_Neutral>
  0.0001

> <r_epik_State_Penalty>
 -0.0000

> <r_epik_Charging_Adjusted_Penalty>
0

> <i_epik_Tot_Q>
0

> <i_epik_Tot_abs_Q>
0

$$$$
