2wq4_ligand
                    3D
 Schrodinger Suite 2020-3.
 26 26  0  0  1  0            999 V2000
   11.7480   -7.5570   -9.6240 C   0  0  1  0  0  0
   13.0240   -6.8600   -9.1690 C   0  0  2  0  0  0
   13.3370   -5.6900  -10.1060 C   0  0  1  0  0  0
   12.1440   -4.7640  -10.2110 C   0  0  1  0  0  0
   10.8810   -5.5280  -10.6560 C   0  0  2  0  0  0
    9.6200   -4.6880  -10.7040 C   0  0  0  0  0  0
   14.1220   -7.7870   -9.1560 O   0  0  0  0  0  0
   14.5130   -5.0360   -9.6470 O   0  0  0  0  0  0
   11.9140   -4.1960   -8.9070 O   0  0  0  0  0  0
   10.6480   -6.6350   -9.7410 O   0  0  0  0  0  0
   10.2190   -9.1280  -11.4780 C   0  0  0  0  0  0
   12.0730   -8.5680  -11.3060 Se  0  0  0  0  0  0
   11.3943   -7.9863   -8.6750 H   0  0  0  0  0  0
   12.9222   -6.5175   -8.1287 H   0  0  0  0  0  0
   13.5974   -6.0135  -11.1246 H   0  0  0  0  0  0
   12.3626   -3.9463  -10.9135 H   0  0  0  0  0  0
   11.0597   -5.9125  -11.6710 H   0  0  0  0  0  0
    9.7692   -3.8416  -11.3906 H   0  0  0  0  0  0
    9.3942   -4.3078   -9.6968 H   0  0  0  0  0  0
    8.7817   -5.3051  -11.0594 H   0  0  0  0  0  0
   14.0699   -8.6926   -8.5338 H   0  0  0  0  0  0
   15.4477   -5.6039   -9.5290 H   0  0  0  0  0  0
   12.7041   -3.6093   -8.4155 H   0  0  0  0  0  0
   10.1040   -9.7423  -12.3832 H   0  0  0  0  0  0
    9.5734   -8.2405  -11.5526 H   0  0  0  0  0  0
    9.9308   -9.7180  -10.5955 H   0  0  0  0  0  0
  1  2  1  0  0  0
  1 10  1  0  0  0
  1 12  1  0  0  0
  1 13  1  0  0  0
  2  3  1  0  0  0
  2  7  1  0  0  0
  2 14  1  0  0  0
  3  4  1  0  0  0
  3  8  1  0  0  0
  3 15  1  0  0  0
  4  5  1  0  0  0
  4  9  1  0  0  0
  4 16  1  0  0  0
  5  6  1  0  0  0
  5 10  1  0  0  0
  5 17  1  0  0  0
  6 18  1  0  0  0
  6 19  1  0  0  0
  6 20  1  0  0  0
  7 21  1  0  0  0
  8 22  1  0  0  0
  9 23  1  0  0  0
 11 12  1  0  0  0
 11 24  1  0  0  0
 11 25  1  0  0  0
 11 26  1  0  0  0
M  END
> <s_m_source_file>
../2wq4_ligand.sdf

> <i_m_source_file_index>
1

> <s_epik_input>
W0NIM11bU2VdW0NASF0xW0NAQEhdKFtPSF0pW0NASF0oW09IXSlbQ0BIXShbT0hdKVtDQEBIXShPMSlbQ0gzXQ==

> <s_epik_cmdline>
J2VwaWtfYXBwJywgJy1pbWFlJywgJ2xpZ2FuZF9wcm8ubWFlJywgJy1vbWFlJywgJ2xpZ2FuZF9wcmVwLm1hZScsICctbXMnLCAnMScsICctcGgnLCAnNycsICctcGh0JywgJzAuNScsICctbnQn

> <r_lp_tautomer_probability>
1

> <r_epik_Ionization_Penalty>
  0.0000

> <r_epik_Ionization_Penalty_Charging>
  0.0000

> <r_epik_Ionization_Penalty_Neutral>
  0.0000

> <r_epik_State_Penalty>
 -0.0000

> <r_epik_Charging_Adjusted_Penalty>
0

> <i_epik_Tot_Q>
0

> <i_epik_Tot_abs_Q>
0

$$$$
