2wq5_ligand
                    3D
 Schrodinger Suite 2020-3.
 62 65  0  0  1  0            999 V2000
  -13.7090   17.5040   15.1700 O   0  5  0  0  0  0
  -13.0470   16.6000   15.7240 C   0  0  0  0  0  0
  -11.8290   16.8560   16.2090 N   0  0  0  0  0  0
  -13.6040   15.2540   15.8250 C   0  0  1  0  0  0
  -14.8170   14.9630   16.5640 C   0  0  0  0  0  0
  -15.7110   15.7740   16.7120 O   0  0  0  0  0  0
  -13.2320   14.3450   14.9440 C   0  0  2  0  0  0
  -13.0120   14.7870   13.7140 O   0  0  0  0  0  0
  -13.4820   12.8690   15.1850 C   0  0  1  0  0  0
  -12.1880   12.3600   15.7290 N   0  3  0  0  0  0
  -12.2500   10.8890   15.7920 C   0  0  0  0  0  0
  -11.7830   12.8300   17.0640 C   0  0  0  0  0  0
  -14.7580   12.5840   15.9820 C   0  0  1  0  0  0
  -14.9310   13.5760   17.1120 C   0  0  1  0  0  0
  -13.8710   13.3470   18.0320 O   0  0  0  0  0  0
  -16.2480   13.4220   17.8170 C   0  0  0  0  0  0
  -16.3570   14.0150   19.0040 O   0  0  0  0  0  0
  -17.2650   12.7430   17.2740 C   0  0  0  0  0  0
  -17.1760   12.0490   15.9340 C   0  0  2  0  0  0
  -15.9990   12.5490   15.0990 C   0  0  0  0  0  0
  -18.5130   12.6370   18.0160 C   0  0  0  0  0  0
  -18.6120   13.1840   19.1610 O   0  0  0  0  0  0
  -19.6620   11.9330   17.3640 C   0  0  0  0  0  0
  -19.6440   11.7150   15.9880 C   0  0  0  0  0  0
  -18.4730   12.2270   15.1650 C   0  0  0  0  0  0
  -20.7220   11.4660   18.1310 C   0  0  0  0  0  0
  -20.7440   11.6730   19.4460 O   0  0  0  0  0  0
  -21.7790   10.7950   17.5090 C   0  0  0  0  0  0
  -21.7720   10.5910   16.1330 C   0  0  0  0  0  0
  -20.6950   11.0470   15.3600 C   0  0  0  0  0  0
  -20.6560   10.8580   13.9620 N   0  0  0  0  0  0
  -20.9820   12.1140   13.2920 C   0  0  0  0  0  0
  -21.5860    9.8450   13.4760 C   0  0  0  0  0  0
  -11.4087   17.8697   16.1333 H   0  0  0  0  0  0
  -11.2462   16.0531   16.6841 H   0  0  0  0  0  0
  -12.2146   14.6614   15.2173 H   0  0  0  0  0  0
  -12.8306   15.8577   13.5385 H   0  0  0  0  0  0
  -13.7050   12.3014   14.2695 H   0  0  0  0  0  0
  -11.4242   12.7552   15.0431 H   0  0  0  0  0  0
  -12.5504   10.4923   14.8110 H   0  0  0  0  0  0
  -12.9857   10.5852   16.5513 H   0  0  0  0  0  0
  -11.2602   10.4915   16.0608 H   0  0  0  0  0  0
  -11.7235   13.9284   17.0635 H   0  0  0  0  0  0
  -10.7987   12.4095   17.3177 H   0  0  0  0  0  0
  -12.5242   12.5033   17.8082 H   0  0  0  0  0  0
  -14.6468   11.5834   16.4251 H   0  0  0  0  0  0
  -12.8260   13.4163   17.6955 H   0  0  0  0  0  0
  -15.5027   14.5661   19.4240 H   0  0  0  0  0  0
  -17.0133   10.9807   16.1396 H   0  0  0  0  0  0
  -16.2097   13.5608   14.7224 H   0  0  0  0  0  0
  -15.8263   11.8705   14.2506 H   0  0  0  0  0  0
  -18.6257   13.2940   14.9456 H   0  0  0  0  0  0
  -18.4207   11.6626   14.2223 H   0  0  0  0  0  0
  -19.9114   12.2012   19.9336 H   0  0  0  0  0  0
  -22.6142   10.4292   18.1062 H   0  0  0  0  0  0
  -22.6052   10.0758   15.6551 H   0  0  0  0  0  0
  -20.2968   12.9023   13.6371 H   0  0  0  0  0  0
  -22.0176   12.3984   13.5299 H   0  0  0  0  0  0
  -20.8772   11.9873   12.2044 H   0  0  0  0  0  0
  -21.3673    8.8830   13.9625 H   0  0  0  0  0  0
  -21.4758    9.7385   12.3867 H   0  0  0  0  0  0
  -22.6162   10.1496   13.7123 H   0  0  0  0  0  0
  1  2  1  0  0  0
  2  3  1  0  0  0
  2  4  2  0  0  0
  3 34  1  0  0  0
  3 35  1  0  0  0
  4  5  1  0  0  0
  4  7  1  0  0  0
  5  6  2  0  0  0
  5 14  1  0  0  0
  7  8  1  0  0  0
  7  9  1  0  0  0
  7 36  1  0  0  0
  8 37  1  0  0  0
  9 10  1  0  0  0
  9 13  1  0  0  0
  9 38  1  0  0  0
 10 11  1  0  0  0
 10 12  1  0  0  0
 10 39  1  0  0  0
 11 40  1  0  0  0
 11 41  1  0  0  0
 11 42  1  0  0  0
 12 43  1  0  0  0
 12 44  1  0  0  0
 12 45  1  0  0  0
 13 14  1  0  0  0
 13 20  1  0  0  0
 13 46  1  0  0  0
 14 15  1  0  0  0
 14 16  1  0  0  0
 15 47  1  0  0  0
 16 17  1  0  0  0
 16 18  2  0  0  0
 17 48  1  0  0  0
 18 19  1  0  0  0
 18 21  1  0  0  0
 19 20  1  0  0  0
 19 25  1  0  0  0
 19 49  1  0  0  0
 20 50  1  0  0  0
 20 51  1  0  0  0
 21 22  2  0  0  0
 21 23  1  0  0  0
 23 24  2  0  0  0
 23 26  1  0  0  0
 24 25  1  0  0  0
 24 30  1  0  0  0
 25 52  1  0  0  0
 25 53  1  0  0  0
 26 27  1  0  0  0
 26 28  2  0  0  0
 27 54  1  0  0  0
 28 29  1  0  0  0
 28 55  1  0  0  0
 29 30  2  0  0  0
 29 56  1  0  0  0
 30 31  1  0  0  0
 31 32  1  0  0  0
 31 33  1  0  0  0
 32 57  1  0  0  0
 32 58  1  0  0  0
 32 59  1  0  0  0
 33 60  1  0  0  0
 33 61  1  0  0  0
 33 62  1  0  0  0
M  CHG  2   1  -1  10   1
M  END
> <s_m_source_file>
../2wq5_ligand.sdf

> <i_m_source_file_index>
1

> <s_epik_input>
Tz1DKFtOSDJdKVtDQEBIXShDMT1PKVtDQEhdKFtPSF0pW0NAQEhdKFtOSCtdKFtDSDNdKVtDSDNdKVtDQEBIXShbQ0BAXTEyW09IXSlbQ0gyXVtDQEhdM0MoPUMyW09IXSlDKD1PKWM0YyhbQ0gyXTMpYyhOKFtDSDNdKVtDSDNdKVtjSF1bY0hdYzRbT0hd

> <s_epik_cmdline>
J2VwaWtfYXBwJywgJy1pbWFlJywgJ2xpZ2FuZF9wcm8ubWFlJywgJy1vbWFlJywgJ2xpZ2FuZF9wcmVwLm1hZScsICctbXMnLCAnMScsICctcGgnLCAnNycsICctcGh0JywgJzAuNScsICctbnQn

> <r_epik_Ionization_Penalty>
  0.0701

> <r_epik_Ionization_Penalty_Charging>
  0.0579

> <r_epik_Ionization_Penalty_Neutral>
  0.0122

> <r_epik_State_Penalty>
  0.0499

> <r_epik_Charging_Adjusted_Penalty>
0.107860215026727

> <i_epik_Tot_Q>
0

> <i_epik_Tot_abs_Q>
2

$$$$
