2wqb_ligand
                    3D
 Schrodinger Suite 2020-3.
 50 54  0  0  1  0            999 V2000
   33.1710   42.4900   34.6710 C   0  0  0  0  0  0
   34.5110   42.7900   34.6760 C   0  0  0  0  0  0
   32.7440   41.2340   35.0320 C   0  0  0  0  0  0
   35.4390   41.8280   35.0530 C   0  0  0  0  0  0
   33.6570   40.2670   35.4100 C   0  0  0  0  0  0
   39.9340   44.6280   38.6820 C   0  0  0  0  0  0
   36.8400   37.5910   36.0250 C   0  0  0  0  0  0
   35.0190   40.5520   35.4270 C   0  0  0  0  0  0
   37.9490   42.8740   38.2050 C   0  0  0  0  0  0
   36.0050   39.5310   35.8530 C   0  0  0  0  0  0
   37.1460   39.6760   36.5800 C   0  0  0  0  0  0
   37.6820   44.1050   38.8950 C   0  0  0  0  0  0
   39.2540   42.6780   37.8100 C   0  0  0  0  0  0
   37.7570   40.8770   37.1690 C   0  0  0  0  0  0
   38.4270   37.3010   41.5580 C   0  0  0  0  0  0
   39.7630   37.0380   40.9070 C   0  0  0  0  0  0
   37.2910   37.0000   40.6280 C   0  0  0  0  0  0
   39.8590   37.7820   39.5990 C   0  0  0  0  0  0
   37.4570   37.7670   39.3370 C   0  0  0  0  0  0
   38.7410   37.3700   38.6820 C   0  0  0  0  0  0
   38.9070   37.9740   37.3360 C   0  0  0  0  0  0
   38.7140   44.9690   39.1170 N   0  0  0  0  0  0
   40.2640   43.5060   38.0260 N   0  0  0  0  0  0
   35.8190   38.1980   35.5130 N   0  0  0  0  0  0
   37.1090   41.8160   37.8160 N   0  0  0  0  0  0
   37.6780   38.4040   36.6840 N   0  0  0  0  0  0
   36.4830   44.4680   39.3400 N   0  0  0  0  0  0
   39.4560   41.1800   36.9720 S   0  0  0  0  0  0
   32.4446   43.2489   34.3803 H   0  0  0  0  0  0
   34.8469   43.7849   34.3836 H   0  0  0  0  0  0
   31.6796   40.9993   35.0201 H   0  0  0  0  0  0
   36.5014   42.0717   35.0566 H   0  0  0  0  0  0
   33.3077   39.2750   35.6965 H   0  0  0  0  0  0
   40.7402   45.3340   38.8814 H   0  0  0  0  0  0
   37.0040   36.5176   35.9295 H   0  0  0  0  0  0
   38.3226   36.6662   42.4502 H   0  0  0  0  0  0
   38.3641   38.3592   41.8516 H   0  0  0  0  0  0
   40.5691   37.3768   41.5744 H   0  0  0  0  0  0
   39.8727   35.9600   40.7174 H   0  0  0  0  0  0
   37.2736   35.9225   40.4072 H   0  0  0  0  0  0
   36.3422   37.2926   41.1014 H   0  0  0  0  0  0
   39.7899   38.8637   39.7865 H   0  0  0  0  0  0
   40.8213   37.5542   39.1173 H   0  0  0  0  0  0
   36.6169   37.5391   38.6645 H   0  0  0  0  0  0
   37.4731   38.8459   39.5509 H   0  0  0  0  0  0
   38.7410   36.2838   38.5083 H   0  0  0  0  0  0
   39.5461   38.8661   37.4108 H   0  0  0  0  0  0
   39.3758   37.2427   36.6612 H   0  0  0  0  0  0
   35.6165   43.8078   39.1871 H   0  0  0  0  0  0
   36.3574   45.4286   39.8611 H   0  0  0  0  0  0
  1  2  2  0  0  0
  1  3  1  0  0  0
  1 29  1  0  0  0
  2  4  1  0  0  0
  2 30  1  0  0  0
  3  5  2  0  0  0
  3 31  1  0  0  0
  4  8  2  0  0  0
  4 32  1  0  0  0
  5  8  1  0  0  0
  5 33  1  0  0  0
  6 22  2  0  0  0
  6 23  1  0  0  0
  6 34  1  0  0  0
  7 24  2  0  0  0
  7 26  1  0  0  0
  7 35  1  0  0  0
  8 10  1  0  0  0
  9 12  2  0  0  0
  9 13  1  0  0  0
  9 25  1  0  0  0
 10 11  2  0  0  0
 10 24  1  0  0  0
 11 14  1  0  0  0
 11 26  1  0  0  0
 12 22  1  0  0  0
 12 27  1  0  0  0
 13 23  2  0  0  0
 13 28  1  0  0  0
 14 25  2  0  0  0
 14 28  1  0  0  0
 15 16  1  0  0  0
 15 17  1  0  0  0
 15 36  1  0  0  0
 15 37  1  0  0  0
 16 18  1  0  0  0
 16 38  1  0  0  0
 16 39  1  0  0  0
 17 19  1  0  0  0
 17 40  1  0  0  0
 17 41  1  0  0  0
 18 20  1  0  0  0
 18 42  1  0  0  0
 18 43  1  0  0  0
 19 20  1  0  0  0
 19 44  1  0  0  0
 19 45  1  0  0  0
 20 21  1  0  0  0
 20 46  1  0  0  0
 21 26  1  0  0  0
 21 47  1  0  0  0
 21 48  1  0  0  0
 27 49  1  0  0  0
 27 50  1  0  0  0
M  END
> <s_m_source_file>
../2wqb_ligand.sdf

> <i_m_source_file_index>
1

> <s_epik_input>
W05IMl1jMW5bY0hdbmMoYzEyKXNjKG4yKS1jKGMzLWM0W2NIXVtjSF1bY0hdW2NIXVtjSF00KW4oW2NIXW4zKVtDSDJdW0NIXTVbQ0gyXVtDSDJdW0NIMl1bQ0gyXVtDSDJdNQ==

> <s_epik_cmdline>
J2VwaWtfYXBwJywgJy1pbWFlJywgJ2xpZ2FuZF9wcm8ubWFlJywgJy1vbWFlJywgJ2xpZ2FuZF9wcmVwLm1hZScsICctbXMnLCAnMScsICctcGgnLCAnNycsICctcGh0JywgJzAuNScsICctbnQn

> <r_lp_tautomer_probability>
1

> <r_epik_Ionization_Penalty>
  0.0064

> <r_epik_Ionization_Penalty_Charging>
  0.0062

> <r_epik_Ionization_Penalty_Neutral>
  0.0001

> <r_epik_State_Penalty>
 -0.0000

> <r_epik_Charging_Adjusted_Penalty>
0.00623460582056287

> <i_epik_Tot_Q>
0

> <i_epik_Tot_abs_Q>
0

$$$$
