2wqp_ligand
                    3D
 Schrodinger Suite 2020-3.
 44 43  0  0  1  0            999 V2000
   95.7180  -19.7390   55.4620 O   0  0  0  0  0  0
   96.2220  -18.8830   54.3400 P   0  0  0  0  0  0
   96.6930  -17.4820   54.7370 O   0  5  0  0  0  0
   95.3710  -19.0110   53.0950 O   0  5  0  0  0  0
   97.6280  -19.5900   53.9530 O   0  0  0  0  0  0
   97.9380  -20.3200   52.7920 C   0  0  1  0  0  0
   99.4330  -20.4590   52.7460 C   0  0  0  0  0  0
  100.1020  -19.6700   53.4430 O   0  0  0  0  0  0
   99.9400  -21.3300   52.0000 O   0  5  0  0  0  0
   97.2590  -21.6850   52.7730 C   0  0  0  0  0  0
   96.5660  -21.8730   51.4250 C   0  0  2  0  0  0
   95.4130  -21.0130   51.4280 O   0  0  0  0  0  0
   96.1790  -23.3480   51.1770 C   0  0  1  0  0  0
   95.2390  -23.7710   52.2060 N   0  0  0  0  0  0
   95.5590  -24.6390   53.1650 C   0  0  0  0  0  0
   94.4740  -24.9830   54.1330 C   0  0  0  0  0  0
   96.6610  -25.1380   53.2590 O   0  0  0  0  0  0
   95.5570  -23.5740   49.7890 C   0  0  1  0  0  0
   96.3020  -22.9300   48.7410 O   0  0  0  0  0  0
   95.4180  -25.0540   49.4470 C   0  0  2  0  0  0
   96.7320  -25.6300   49.2750 O   0  0  0  0  0  0
   94.5900  -25.2840   48.1710 C   0  0  2  0  0  0
   93.3600  -24.5370   48.1780 O   0  0  0  0  0  0
   94.2630  -26.7630   48.0570 C   0  0  0  0  0  0
   93.2800  -26.9750   47.0410 O   0  0  0  0  0  0
   97.5499  -19.7263   51.9513 H   0  0  0  0  0  0
   98.0140  -22.4721   52.9163 H   0  0  0  0  0  0
   96.5170  -21.7368   53.5834 H   0  0  0  0  0  0
   97.2064  -21.5501   50.5910 H   0  0  0  0  0  0
   95.5335  -19.9321   51.5930 H   0  0  0  0  0  0
   97.0762  -23.9787   51.2618 H   0  0  0  0  0  0
   94.2145  -23.3707   52.2131 H   0  0  0  0  0  0
   93.5612  -24.4267   53.8735 H   0  0  0  0  0  0
   94.7914  -24.7125   55.1509 H   0  0  0  0  0  0
   94.2706  -26.0631   54.0872 H   0  0  0  0  0  0
   94.5719  -23.0846   49.7906 H   0  0  0  0  0  0
   96.5128  -21.8519   48.7986 H   0  0  0  0  0  0
   94.9399  -25.5695   50.2930 H   0  0  0  0  0  0
   97.4715  -25.5651   50.0867 H   0  0  0  0  0  0
   95.1369  -24.9074   47.2940 H   0  0  0  0  0  0
   93.3832  -23.4399   48.2546 H   0  0  0  0  0  0
   95.1747  -27.3211   47.7976 H   0  0  0  0  0  0
   93.8712  -27.1271   49.0182 H   0  0  0  0  0  0
   92.9246  -27.9930   46.8234 H   0  0  0  0  0  0
  1  2  2  0  0  0
  2  3  1  0  0  0
  2  4  1  0  0  0
  2  5  1  0  0  0
  5  6  1  0  0  0
  6  7  1  0  0  0
  6 10  1  0  0  0
  6 26  1  0  0  0
  7  8  2  0  0  0
  7  9  1  0  0  0
 10 11  1  0  0  0
 10 27  1  0  0  0
 10 28  1  0  0  0
 11 12  1  0  0  0
 11 13  1  0  0  0
 11 29  1  0  0  0
 12 30  1  0  0  0
 13 14  1  0  0  0
 13 18  1  0  0  0
 13 31  1  0  0  0
 14 15  1  0  0  0
 14 32  1  0  0  0
 15 16  1  0  0  0
 15 17  2  0  0  0
 16 33  1  0  0  0
 16 34  1  0  0  0
 16 35  1  0  0  0
 18 19  1  0  0  0
 18 20  1  0  0  0
 18 36  1  0  0  0
 19 37  1  0  0  0
 20 21  1  0  0  0
 20 22  1  0  0  0
 20 38  1  0  0  0
 21 39  1  0  0  0
 22 23  1  0  0  0
 22 24  1  0  0  0
 22 40  1  0  0  0
 23 41  1  0  0  0
 24 25  1  0  0  0
 24 42  1  0  0  0
 24 43  1  0  0  0
 25 44  1  0  0  0
M  CHG  3   3  -1   4  -1   9  -1
M  END
> <s_m_source_file>
../2wqp_ligand.sdf

> <i_m_source_file_index>
1

> <s_epik_input>
Tz1QKFtPSF0pKFtPSF0pT1tDQEBIXShDKD1PKVtPSF0pW0NIMl1bQ0BIXShbT0hdKVtDQEBIXShbTkhdQyg9TylbQ0gzXSlbQ0BASF0oW09IXSlbQ0BIXShbT0hdKVtDQEhdKFtPSF0pW0NIMl1bT0hd

> <s_epik_cmdline>
J2VwaWtfYXBwJywgJy1pbWFlJywgJ2xpZ2FuZF9wcm8ubWFlJywgJy1vbWFlJywgJ2xpZ2FuZF9wcmVwLm1hZScsICctbXMnLCAnMScsICctcGgnLCAnNycsICctcGh0JywgJzAuNScsICctbnQn

> <r_epik_Ionization_Penalty>
  0.1337

> <r_epik_Ionization_Penalty_Charging>
  0.1337

> <r_epik_Ionization_Penalty_Neutral>
  0.0000

> <r_epik_State_Penalty>
  0.1228

> <r_epik_Charging_Adjusted_Penalty>
0.256436376224092

> <i_epik_Tot_Q>
-3

> <i_epik_Tot_abs_Q>
3

$$$$
