2wr8_ligand
                    3D
 Schrodinger Suite 2020-3.
 46 48  0  0  1  0            999 V2000
   17.5030  -42.0960    7.0680 N   0  3  0  0  0  0
   17.6730  -43.1640    6.0600 C   0  0  1  0  0  0
   16.2790  -43.6400    5.5350 C   0  0  0  0  0  0
   16.2900  -45.0380    4.9190 C   0  0  0  0  0  0
   14.5580  -45.5190    4.4340 S   0  0  0  0  0  0
   18.4890  -42.6760    4.8770 C   0  0  0  0  0  0
   18.5710  -41.4450    4.6540 O   0  5  0  0  0  0
   19.0410  -43.5620    4.1930 O   0  0  0  0  0  0
   14.7660  -47.3070    4.1410 C   0  0  0  0  0  0
   14.4190  -48.2510    5.2610 C   0  0  1  0  0  0
   15.1730  -47.8750    6.4330 O   0  0  0  0  0  0
   12.9500  -48.1050    5.6990 C   0  0  1  0  0  0
   12.1320  -49.0510    5.0200 O   0  0  0  0  0  0
   13.0220  -48.3300    7.2320 C   0  0  1  0  0  0
   12.2760  -49.5020    7.5920 O   0  0  0  0  0  0
   14.5370  -48.4890    7.5430 C   0  0  2  0  0  0
   14.8580  -47.6200    8.7120 N   0  0  0  0  0  0
   14.8210  -46.2610    8.7530 C   0  0  0  0  0  0
   15.1720  -45.8330    9.9880 N   0  0  0  0  0  0
   15.4500  -46.9320   10.7120 C   0  0  0  0  0  0
   15.8610  -47.0980   12.0410 C   0  0  0  0  0  0
   16.0190  -46.0270   12.8760 N   0  0  0  0  0  0
   16.0820  -48.3500   12.4820 N   0  0  0  0  0  0
   15.9060  -49.4190   11.6790 C   0  0  0  0  0  0
   15.5380  -49.3080   10.3860 N   0  0  0  0  0  0
   15.2810  -48.0540    9.8940 C   0  0  0  0  0  0
   16.9091  -42.4787    7.9111 H   0  0  0  0  0  0
   16.9833  -41.2406    6.6118 H   0  0  0  0  0  0
   18.4902  -41.7741    7.4311 H   0  0  0  0  0  0
   18.2257  -43.9621    6.5773 H   0  0  0  0  0  0
   15.5604  -43.6583    6.3676 H   0  0  0  0  0  0
   15.9232  -42.9466    4.7588 H   0  0  0  0  0  0
   16.9338  -45.0406    4.0271 H   0  0  0  0  0  0
   16.6780  -45.7592    5.6534 H   0  0  0  0  0  0
   14.1303  -47.6169    3.2985 H   0  0  0  0  0  0
   15.8188  -47.5196    3.9035 H   0  0  0  0  0  0
   14.6738  -49.2659    4.9218 H   0  0  0  0  0  0
   12.4398  -47.1757    5.4055 H   0  0  0  0  0  0
   12.0078  -48.9878    3.9289 H   0  0  0  0  0  0
   12.5324  -47.5531    7.8375 H   0  0  0  0  0  0
   11.1887  -49.5336    7.4286 H   0  0  0  0  0  0
   14.8873  -49.5197    7.7012 H   0  0  0  0  0  0
   14.5499  -45.6148    7.9181 H   0  0  0  0  0  0
   15.8355  -45.0081   12.5044 H   0  0  0  0  0  0
   16.3296  -46.1842   13.9194 H   0  0  0  0  0  0
   16.0679  -50.4146   12.0921 H   0  0  0  0  0  0
  1  2  1  0  0  0
  1 27  1  0  0  0
  1 28  1  0  0  0
  1 29  1  0  0  0
  2  3  1  0  0  0
  2  6  1  0  0  0
  2 30  1  0  0  0
  3  4  1  0  0  0
  3 31  1  0  0  0
  3 32  1  0  0  0
  4  5  1  0  0  0
  4 33  1  0  0  0
  4 34  1  0  0  0
  5  9  1  0  0  0
  6  7  1  0  0  0
  6  8  2  0  0  0
  9 10  1  0  0  0
  9 35  1  0  0  0
  9 36  1  0  0  0
 10 11  1  0  0  0
 10 12  1  0  0  0
 10 37  1  0  0  0
 11 16  1  0  0  0
 12 13  1  0  0  0
 12 14  1  0  0  0
 12 38  1  0  0  0
 13 39  1  0  0  0
 14 15  1  0  0  0
 14 16  1  0  0  0
 14 40  1  0  0  0
 15 41  1  0  0  0
 16 17  1  0  0  0
 16 42  1  0  0  0
 17 18  1  0  0  0
 17 26  1  0  0  0
 18 19  2  0  0  0
 18 43  1  0  0  0
 19 20  1  0  0  0
 20 21  2  0  0  0
 20 26  1  0  0  0
 21 22  1  0  0  0
 21 23  1  0  0  0
 22 44  1  0  0  0
 22 45  1  0  0  0
 23 24  2  0  0  0
 24 25  1  0  0  0
 24 46  1  0  0  0
 25 26  2  0  0  0
M  CHG  2   1   1   7  -1
M  END
> <s_m_source_file>
../2wr8_ligand.sdf

> <i_m_source_file_index>
1

> <s_epik_input>
W09IXUMoPU8pW0NAQEhdKFtOSDMrXSlbQ0gyXVtDSDJdU1tDSDJdW0NASF0xT1tDQEhdKFtDQEhdKFtPSF0pW0NAQEhdMVtPSF0pbihbY0hdbjIpYyhjMjMpbltjSF1uYzNbTkgyXQ==

> <s_epik_cmdline>
J2VwaWtfYXBwJywgJy1pbWFlJywgJ2xpZ2FuZF9wcm8ubWFlJywgJy1vbWFlJywgJ2xpZ2FuZF9wcmVwLm1hZScsICctbXMnLCAnMScsICctcGgnLCAnNycsICctcGh0JywgJzAuNScsICctbnQn

> <r_lp_tautomer_probability>
1

> <r_epik_Ionization_Penalty>
  0.0026

> <r_epik_Ionization_Penalty_Charging>
  0.0022

> <r_epik_Ionization_Penalty_Neutral>
  0.0004

> <r_epik_State_Penalty>
 -0.0000

> <r_epik_Charging_Adjusted_Penalty>
0.00216156469931729

> <i_epik_Tot_Q>
0

> <i_epik_Tot_abs_Q>
2

> <s_epik_Chemistry_Notes>
This compound contains an acetal/aminal-like group ( X-CH(R)-Y where X, Y are N, S, or O) that may be acid/base labile, releasing an aldehyde.

$$$$
