2wti_ligand
                    3D
 Schrodinger Suite 2020-3.
 44 47  0  0  1  0            999 V2000
  -45.1480   14.3200  -13.6520 N   0  0  0  0  0  0
  -46.1060   13.4790  -12.9480 C   0  0  0  0  0  0
  -46.5170   12.4830  -13.4470 O   0  0  0  0  0  0
  -46.5490   13.8890  -11.5360 C   0  0  0  0  0  0
  -45.8800   15.0240  -10.8910 C   0  0  0  0  0  0
  -46.2700   15.4250   -9.5640 C   0  0  0  0  0  0
  -47.3370   14.7160   -8.8810 C   0  0  0  0  0  0
  -47.7380   15.1870   -7.6190 C   0  0  0  0  0  0
  -47.2440   16.4570   -7.1920 C   0  0  0  0  0  0
  -47.6290   16.9760   -5.9090 C   0  0  0  0  0  0
  -47.1200   18.2100   -5.4660 C   0  0  3  0  0  0
  -46.0260   19.1250   -6.2590 S   0  0  0  0  0  0
  -45.7230   20.3720   -5.3610 C   0  0  0  0  0  0
  -46.5680   20.2540   -4.0680 C   0  0  3  0  0  0
  -46.6780   21.0800   -2.9010 O   0  0  0  0  0  0
  -47.8170   20.7530   -2.0640 C   0  0  0  0  0  0
  -48.0260   19.2280   -1.8630 C   0  0  0  0  0  0
  -48.3240   18.5310   -3.0950 O   0  0  0  0  0  0
  -47.4420   18.8790   -4.1600 C   0  0  1  0  0  0
  -48.5370   16.2380   -5.0500 C   0  0  0  0  0  0
  -49.0420   14.9690   -5.4860 N   0  0  0  0  0  0
  -48.6630   14.4410   -6.7530 C   0  0  0  0  0  0
  -49.2330   13.1650   -7.1670 N   0  0  0  0  0  0
  -48.0060   13.5860   -9.5310 C   0  0  0  0  0  0
  -47.6100   13.1790  -10.8630 C   0  0  0  0  0  0
  -44.8159   14.0466  -14.6644 H   0  0  0  0  0  0
  -44.7565   15.2287  -13.1714 H   0  0  0  0  0  0
  -45.0900   15.5623  -11.4146 H   0  0  0  0  0  0
  -45.7658   16.2580   -9.0741 H   0  0  0  0  0  0
  -46.5777   17.0301   -7.8368 H   0  0  0  0  0  0
  -47.7725   17.3416   -5.6397 H   0  0  0  0  0  0
  -44.6518   20.3929   -5.1120 H   0  0  0  0  0  0
  -45.9909   21.2896   -5.9053 H   0  0  0  0  0  0
  -45.7565   19.6861   -3.5895 H   0  0  0  0  0  0
  -47.6800   21.1989   -1.0678 H   0  0  0  0  0  0
  -48.7345   21.1519   -2.5212 H   0  0  0  0  0  0
  -47.1117   18.7850   -1.4414 H   0  0  0  0  0  0
  -48.8662   19.0608   -1.1730 H   0  0  0  0  0  0
  -46.6237   18.3264   -3.6752 H   0  0  0  0  0  0
  -48.8321   16.6447   -4.0827 H   0  0  0  0  0  0
  -48.9601   12.7306   -8.1400 H   0  0  0  0  0  0
  -49.9360   12.6365   -6.5064 H   0  0  0  0  0  0
  -48.8017   13.0518   -9.0119 H   0  0  0  0  0  0
  -48.1092   12.3432  -11.3534 H   0  0  0  0  0  0
  1  2  1  0  0  0
  1 26  1  0  0  0
  1 27  1  0  0  0
  2  3  2  0  0  0
  2  4  1  0  0  0
  4  5  2  0  0  0
  4 25  1  0  0  0
  5  6  1  0  0  0
  5 28  1  0  0  0
  6  7  2  0  0  0
  6 29  1  0  0  0
  7  8  1  0  0  0
  7 24  1  0  0  0
  8  9  2  0  0  0
  8 22  1  0  0  0
  9 10  1  0  0  0
  9 30  1  0  0  0
 10 11  1  0  0  0
 10 20  2  0  0  0
 11 12  1  0  0  0
 11 19  1  0  0  0
 11 31  1  0  0  0
 12 13  1  0  0  0
 13 14  1  0  0  0
 13 32  1  0  0  0
 13 33  1  0  0  0
 14 15  1  0  0  0
 14 19  1  0  0  0
 14 34  1  0  0  0
 15 16  1  0  0  0
 16 17  1  0  0  0
 16 35  1  0  0  0
 16 36  1  0  0  0
 17 18  1  0  0  0
 17 37  1  0  0  0
 17 38  1  0  0  0
 18 19  1  0  0  0
 19 39  1  0  0  0
 20 21  1  0  0  0
 20 40  1  0  0  0
 21 22  2  0  0  0
 22 23  1  0  0  0
 23 41  1  0  0  0
 23 42  1  0  0  0
 24 25  2  0  0  0
 24 43  1  0  0  0
 25 44  1  0  0  0
M  END
> <s_m_source_file>
../2wti_ligand.sdf

> <i_m_source_file_index>
1

> <s_epik_input>
W05IMl1DKD1PKWMxW2NIXVtjSF1jKFtjSF1bY0hdMSktYzJbY0hdYyhbY0hdbmMyW05IMl0pW0NIXShTW0NIMl0zKVtDSF0oW0NIXTM0KU9bQ0gyXVtDSDJdTzQ=

> <s_epik_cmdline>
J2VwaWtfYXBwJywgJy1pbWFlJywgJ2xpZ2FuZF9wcm8ubWFlJywgJy1vbWFlJywgJ2xpZ2FuZF9wcmVwLm1hZScsICctbXMnLCAnMScsICctcGgnLCAnNycsICctcGh0JywgJzAuNScsICctbnQn

> <r_lp_tautomer_probability>
0.999999772200052

> <r_epik_Ionization_Penalty>
  0.0253

> <r_epik_Ionization_Penalty_Charging>
  0.0000

> <r_epik_Ionization_Penalty_Neutral>
  0.0253

> <r_epik_State_Penalty>
  0.0206

> <r_epik_Charging_Adjusted_Penalty>
0.0205744583519148

> <i_epik_Tot_Q>
0

> <i_epik_Tot_abs_Q>
0

$$$$
