2wtj_ligand
                    3D
 Schrodinger Suite 2020-3.
 49 51  0  0  1  0            999 V2000
    7.0260  -45.6850    2.4090 C   0  0  0  0  0  0
    8.3880  -46.1290    2.6880 N   0  3  0  0  0  0
    8.7750  -47.2730    1.8720 C   0  0  0  0  0  0
    8.5430  -46.4040    4.1230 C   0  0  0  0  0  0
    9.7140  -47.2970    4.5810 C   0  0  0  0  0  0
    9.6430  -47.8140    5.9700 N   0  0  0  0  0  0
   10.8430  -48.3270    6.6400 C   0  0  0  0  0  0
   11.9160  -48.2500    6.1310 O   0  0  0  0  0  0
   10.6690  -48.9110    8.0610 C   0  0  0  0  0  0
    9.3610  -49.1210    8.5570 C   0  0  0  0  0  0
    9.1850  -49.6230    9.8690 C   0  0  0  0  0  0
    7.9100  -49.8160   10.4170 C   0  0  3  0  0  0
    6.4910  -49.3460    9.7890 S   0  0  0  0  0  0
    5.3600  -49.7880   10.8000 C   0  0  0  0  0  0
    6.0370  -50.4930   12.0110 C   0  0  3  0  0  0
    5.5250  -51.0590   13.2150 O   0  0  0  0  0  0
    6.4500  -51.9490   13.8600 C   0  0  0  0  0  0
    7.8780  -51.3670   14.0020 C   0  0  0  0  0  0
    8.5110  -51.0750   12.7230 O   0  0  0  0  0  0
    7.6320  -50.4950   11.7590 C   0  0  1  0  0  0
   10.3560  -49.9310   10.6910 C   0  0  0  0  0  0
   11.6600  -49.7320   10.1920 N   0  0  0  0  0  0
   11.8410  -49.2320    8.8860 C   0  0  0  0  0  0
   13.1890  -49.0670    8.3770 N   0  0  0  0  0  0
    6.9198  -45.4818    1.3332 H   0  0  0  0  0  0
    6.8157  -44.7674    2.9781 H   0  0  0  0  0  0
    6.3161  -46.4712    2.7055 H   0  0  0  0  0  0
    9.0721  -45.3156    2.4044 H   0  0  0  0  0  0
    8.6442  -47.0256    0.8082 H   0  0  0  0  0  0
    8.1434  -48.1364    2.1280 H   0  0  0  0  0  0
    9.8295  -47.5203    2.0640 H   0  0  0  0  0  0
    8.6847  -45.4571    4.6646 H   0  0  0  0  0  0
    7.6415  -46.9100    4.4989 H   0  0  0  0  0  0
    9.7754  -48.1827    3.9316 H   0  0  0  0  0  0
   10.6544  -46.7298    4.5174 H   0  0  0  0  0  0
    8.6836  -47.8152    6.5080 H   0  0  0  0  0  0
    8.4951  -48.8980    7.9337 H   0  0  0  0  0  0
    8.9330  -49.7772   10.0146 H   0  0  0  0  0  0
    4.8059  -48.9010   11.1409 H   0  0  0  0  0  0
    4.6693  -50.4811   10.2974 H   0  0  0  0  0  0
    5.1450  -50.7940   12.5800 H   0  0  0  0  0  0
    6.0892  -52.1819   14.8727 H   0  0  0  0  0  0
    6.5317  -52.8783   13.2772 H   0  0  0  0  0  0
    7.8360  -50.4277   14.5729 H   0  0  0  0  0  0
    8.5174  -52.0892   14.5308 H   0  0  0  0  0  0
    7.7136  -49.5231   12.2677 H   0  0  0  0  0  0
   10.2188  -50.3186   11.7005 H   0  0  0  0  0  0
   13.3494  -48.6783    7.3605 H   0  0  0  0  0  0
   14.0510  -49.3306    9.0074 H   0  0  0  0  0  0
  1  2  1  0  0  0
  1 25  1  0  0  0
  1 26  1  0  0  0
  1 27  1  0  0  0
  2  3  1  0  0  0
  2  4  1  0  0  0
  2 28  1  0  0  0
  3 29  1  0  0  0
  3 30  1  0  0  0
  3 31  1  0  0  0
  4  5  1  0  0  0
  4 32  1  0  0  0
  4 33  1  0  0  0
  5  6  1  0  0  0
  5 34  1  0  0  0
  5 35  1  0  0  0
  6  7  1  0  0  0
  6 36  1  0  0  0
  7  8  2  0  0  0
  7  9  1  0  0  0
  9 10  2  0  0  0
  9 23  1  0  0  0
 10 11  1  0  0  0
 10 37  1  0  0  0
 11 12  1  0  0  0
 11 21  2  0  0  0
 12 13  1  0  0  0
 12 20  1  0  0  0
 12 38  1  0  0  0
 13 14  1  0  0  0
 14 15  1  0  0  0
 14 39  1  0  0  0
 14 40  1  0  0  0
 15 16  1  0  0  0
 15 20  1  0  0  0
 15 41  1  0  0  0
 16 17  1  0  0  0
 17 18  1  0  0  0
 17 42  1  0  0  0
 17 43  1  0  0  0
 18 19  1  0  0  0
 18 44  1  0  0  0
 18 45  1  0  0  0
 19 20  1  0  0  0
 20 46  1  0  0  0
 21 22  1  0  0  0
 21 47  1  0  0  0
 22 23  2  0  0  0
 23 24  1  0  0  0
 24 48  1  0  0  0
 24 49  1  0  0  0
M  CHG  1   2   1
M  END
> <s_m_source_file>
../2wtj_ligand.sdf

> <i_m_source_file_index>
1

> <s_epik_input>
W0NIM11bTkgrXShbQ0gzXSlbQ0gyXVtDSDJdW05IXUMoPU8pYzFbY0hdYyhbY0hdbmMxW05IMl0pW0NIXShTW0NIMl0yKVtDSF0oW0NIXTIzKU9bQ0gyXVtDSDJdTzM=

> <s_epik_cmdline>
J2VwaWtfYXBwJywgJy1pbWFlJywgJ2xpZ2FuZF9wcm8ubWFlJywgJy1vbWFlJywgJ2xpZ2FuZF9wcmVwLm1hZScsICctbXMnLCAnMScsICctcGgnLCAnNycsICctcGh0JywgJzAuNScsICctbnQn

> <r_lp_tautomer_probability>
1

> <r_epik_Ionization_Penalty>
  0.0059

> <r_epik_Ionization_Penalty_Charging>
  0.0057

> <r_epik_Ionization_Penalty_Neutral>
  0.0002

> <r_epik_State_Penalty>
 -0.0000

> <r_epik_Charging_Adjusted_Penalty>
0.00573698464260363

> <i_epik_Tot_Q>
1

> <i_epik_Tot_abs_Q>
1

$$$$
