2wtw_ligand
                    3D
 Schrodinger Suite 2020-3.
 50 54  0  0  1  0            999 V2000
   14.5600   62.2590   66.3080 C   0  0  0  0  0  0
   14.7300   63.9070   64.4390 C   0  0  1  0  0  0
   13.1860   65.4630   63.1600 C   0  0  0  0  0  0
   13.4290   67.8730   63.2540 C   0  0  0  0  0  0
   14.5010   67.7200   64.1370 C   0  0  0  0  0  0
   14.9190   66.4440   64.5300 C   0  0  0  0  0  0
   15.0540   63.1440   63.1690 C   0  0  0  0  0  0
   15.9490   63.0130   60.9110 C   0  0  0  0  0  0
   15.6240   61.6470   60.8370 C   0  0  0  0  0  0
   11.9750   56.1880   57.2550 O   0  0  0  0  0  0
   11.6370   55.5830   58.2170 C   0  0  0  0  0  0
   11.0800   54.3040   58.0790 O   0  5  0  0  0  0
   11.7990   56.1880   59.6090 C   0  0  0  0  0  0
   12.3580   57.4600   59.7660 C   0  0  0  0  0  0
   12.4990   58.0010   61.0480 C   0  0  0  0  0  0
   12.0770   57.2810   62.1720 C   0  0  0  0  0  0
   12.3070   57.8330   63.4960 N   0  0  0  0  0  0
   12.8730   58.9890   64.1720 C   0  0  0  0  0  0
   12.7250   59.1440   65.5510 N   0  0  0  0  0  0
   13.2690   60.2140   66.1750 C   0  0  0  0  0  0
   13.9510   61.1350   65.4520 C   0  0  0  0  0  0
   14.8120   63.5280   65.6510 N   0  0  1  0  0  0
   14.2630   65.3080   64.0450 C   0  0  0  0  0  0
   12.5220   64.3610   62.7010 F   0  0  0  0  0  0
   12.7660   66.7430   62.7660 C   0  0  0  0  0  0
   15.9510   66.3230   65.4120 F   0  0  0  0  0  0
   15.6600   63.7590   62.0710 C   0  0  0  0  0  0
   16.7310   63.8110   59.5260 Cl  0  0  0  0  0  0
   15.0130   61.0280   61.9330 C   0  0  0  0  0  0
   14.7350   61.7810   63.0920 C   0  0  0  0  0  0
   14.1130   60.9670   64.0610 C   0  0  0  0  0  0
   13.5840   59.9260   63.4430 N   0  0  0  0  0  0
   11.5330   56.0010   62.0150 C   0  0  0  0  0  0
   11.3850   55.4600   60.7290 C   0  0  0  0  0  0
   13.8843   62.4897   67.1448 H   0  0  0  0  0  0
   15.5338   61.9330   66.7023 H   0  0  0  0  0  0
   13.6937   63.5408   64.3946 H   0  0  0  0  0  0
   13.1109   68.8693   62.9469 H   0  0  0  0  0  0
   15.0150   68.6006   64.5222 H   0  0  0  0  0  0
   15.8457   61.0762   59.9352 H   0  0  0  0  0  0
   12.6823   58.0272   58.8935 H   0  0  0  0  0  0
   12.9404   58.9898   61.1728 H   0  0  0  0  0  0
   11.9850   57.2754   64.3879 H   0  0  0  0  0  0
   13.1594   60.3345   67.2528 H   0  0  0  0  0  0
   14.1492   64.2976   66.0735 H   0  0  0  0  0  0
   11.9253   66.8557   62.0815 H   0  0  0  0  0  0
   15.9101   64.8191   62.1116 H   0  0  0  0  0  0
   14.7536   59.9702   61.8910 H   0  0  0  0  0  0
   11.2254   55.4265   62.8888 H   0  0  0  0  0  0
   10.9464   54.4702   60.6026 H   0  0  0  0  0  0
  1 21  1  0  0  0
  1 22  1  0  0  0
  1 35  1  0  0  0
  1 36  1  0  0  0
  2  7  1  0  0  0
  2 22  1  0  0  0
  2 23  1  0  0  0
  2 37  1  0  0  0
  3 23  2  0  0  0
  3 24  1  0  0  0
  3 25  1  0  0  0
  4  5  1  0  0  0
  4 25  2  0  0  0
  4 38  1  0  0  0
  5  6  2  0  0  0
  5 39  1  0  0  0
  6 23  1  0  0  0
  6 26  1  0  0  0
  7 27  2  0  0  0
  7 30  1  0  0  0
  8  9  2  0  0  0
  8 27  1  0  0  0
  8 28  1  0  0  0
  9 29  1  0  0  0
  9 40  1  0  0  0
 10 11  2  0  0  0
 11 12  1  0  0  0
 11 13  1  0  0  0
 13 14  2  0  0  0
 13 34  1  0  0  0
 14 15  1  0  0  0
 14 41  1  0  0  0
 15 16  2  0  0  0
 15 42  1  0  0  0
 16 17  1  0  0  0
 16 33  1  0  0  0
 17 18  1  0  0  0
 17 43  1  0  0  0
 18 19  2  0  0  0
 18 32  1  0  0  0
 19 20  1  0  0  0
 20 21  2  0  0  0
 20 44  1  0  0  0
 21 31  1  0  0  0
 22 45  1  0  0  0
 25 46  1  0  0  0
 27 47  1  0  0  0
 29 30  2  0  0  0
 29 48  1  0  0  0
 30 31  1  0  0  0
 31 32  2  0  0  0
 33 34  2  0  0  0
 33 49  1  0  0  0
 34 50  1  0  0  0
M  CHG  1  12  -1
M  END
> <s_m_source_file>
../2wtw_ligand.sdf

> <i_m_source_file_index>
1

> <s_epik_input>
W2NIXTFbY0hdW2NIXWMoRiljKGMxRilbQ0hdMltOSDIrXVtDSDJdYyhjM2MoYzI0KVtjSF1bY0hdYyhDbClbY0hdNClbY0hdbmMobjMpW05IXWMoW2NIXVtjSF01KVtjSF1bY0hdYzVDKD1PKVtPSF0=

> <s_epik_cmdline>
J2VwaWtfYXBwJywgJy1pbWFlJywgJ2xpZ2FuZF9wcm8ubWFlJywgJy1vbWFlJywgJ2xpZ2FuZF9wcmVwLm1hZScsICctbXMnLCAnMScsICctcGgnLCAnNycsICctcGh0JywgJzAuNScsICctbnQn

> <r_lp_tautomer_probability>
0.999999987636

> <r_epik_Ionization_Penalty>
  0.0807

> <r_epik_Ionization_Penalty_Charging>
  0.0024

> <r_epik_Ionization_Penalty_Neutral>
  0.0784

> <r_epik_State_Penalty>
  0.0692

> <r_epik_Charging_Adjusted_Penalty>
0.071558841629461

> <i_epik_Tot_Q>
-1

> <i_epik_Tot_abs_Q>
1

$$$$
