2wtx_ligand
                    3D
 Schrodinger Suite 2020-3.
 52 53  0  0  1  0            999 V2000
   25.5040  -14.8200   75.7330 O   0  5  0  0  0  0
   24.9690  -15.1990   77.2020 P   0  0  0  0  0  0
   26.2830  -15.1380   78.1700 O   0  5  0  0  0  0
   24.3040  -16.5300   77.2180 O   0  0  0  0  0  0
   23.9630  -14.0690   77.7280 O   0  0  0  0  0  0
   23.3760  -14.2040   79.0380 C   0  0  0  0  0  0
   21.8540  -14.0800   78.9920 C   0  0  1  0  0  0
   21.5000  -12.6160   78.6970 C   0  0  0  0  0  0
   21.2300  -15.0100   77.9340 C   0  0  1  0  0  0
   21.7560  -16.3410   78.0580 O   0  0  0  0  0  0
   19.7030  -14.9470   78.0810 C   0  0  2  0  0  0
   19.0770  -15.8330   77.1470 O   0  0  0  0  0  0
   19.2130  -13.4980   77.8220 C   0  0  1  0  0  0
   17.7990  -13.3830   78.0540 O   0  0  0  0  0  0
   19.9800  -12.3700   78.5990 C   0  0  1  0  0  0
   19.4660  -12.0700   79.9610 N   0  3  0  0  0  0
   18.0870  -11.5540   80.1130 C   0  0  1  0  0  0
   17.5660  -12.1820   81.4160 C   0  0  0  0  0  0
   18.0070   -9.9910   80.1280 C   0  0  2  0  0  0
   19.0560   -9.4110   79.3340 O   0  0  0  0  0  0
   18.0820   -9.3430   81.5130 C   0  0  1  0  0  0
   17.7870   -7.9640   81.3650 O   0  0  0  0  0  0
   17.0800   -9.9210   82.5110 C   0  0  2  0  0  0
   17.3530   -9.3810   83.8220 O   0  0  0  0  0  0
   17.1590  -11.4520   82.5240 C   0  0  0  0  0  0
   16.6770  -12.2130   83.7510 C   0  0  0  0  0  0
   15.2720  -12.4130   83.6320 O   0  0  0  0  0  0
   23.6301  -15.1902   79.4538 H   0  0  0  0  0  0
   23.7673  -13.4159   79.6981 H   0  0  0  0  0  0
   21.4480  -14.3860   79.9675 H   0  0  0  0  0  0
   21.8905  -11.9751   79.5012 H   0  0  0  0  0  0
   21.9489  -12.3161   77.7386 H   0  0  0  0  0  0
   21.5216  -14.7486   76.9061 H   0  0  0  0  0  0
   22.8387  -16.5148   77.9710 H   0  0  0  0  0  0
   19.3992  -15.3166   79.0715 H   0  0  0  0  0  0
   19.3015  -16.9095   77.1747 H   0  0  0  0  0  0
   19.3464  -13.3229   76.7443 H   0  0  0  0  0  0
   17.1049  -14.0956   77.5846 H   0  0  0  0  0  0
   19.7770  -11.4577   78.0189 H   0  0  0  0  0  0
   19.4852  -12.9858   80.5701 H   0  0  0  0  0  0
   20.0994  -11.3035   80.4314 H   0  0  0  0  0  0
   17.5020  -11.8690   79.2363 H   0  0  0  0  0  0
   17.5267  -13.2811   81.4368 H   0  0  0  0  0  0
   17.0446   -9.7232   79.6676 H   0  0  0  0  0  0
   19.1954   -9.7287   78.2901 H   0  0  0  0  0  0
   19.1014   -9.4567   81.9105 H   0  0  0  0  0  0
   18.3897   -7.3423   80.6866 H   0  0  0  0  0  0
   16.0547   -9.6083   82.2641 H   0  0  0  0  0  0
   17.3358   -8.2930   83.9832 H   0  0  0  0  0  0
   17.1921  -13.1834   83.8064 H   0  0  0  0  0  0
   16.8988  -11.6281   84.6558 H   0  0  0  0  0  0
   14.7237  -12.9477   84.4217 H   0  0  0  0  0  0
  1  2  1  0  0  0
  2  3  1  0  0  0
  2  4  2  0  0  0
  2  5  1  0  0  0
  5  6  1  0  0  0
  6  7  1  0  0  0
  6 28  1  0  0  0
  6 29  1  0  0  0
  7  8  1  0  0  0
  7  9  1  0  0  0
  7 30  1  0  0  0
  8 15  1  0  0  0
  8 31  1  0  0  0
  8 32  1  0  0  0
  9 10  1  0  0  0
  9 11  1  0  0  0
  9 33  1  0  0  0
 10 34  1  0  0  0
 11 12  1  0  0  0
 11 13  1  0  0  0
 11 35  1  0  0  0
 12 36  1  0  0  0
 13 14  1  0  0  0
 13 15  1  0  0  0
 13 37  1  0  0  0
 14 38  1  0  0  0
 15 16  1  0  0  0
 15 39  1  0  0  0
 16 17  1  0  0  0
 16 40  1  0  0  0
 16 41  1  0  0  0
 17 18  1  0  0  0
 17 19  1  0  0  0
 17 42  1  0  0  0
 18 25  2  0  0  0
 18 43  1  0  0  0
 19 20  1  0  0  0
 19 21  1  0  0  0
 19 44  1  0  0  0
 20 45  1  0  0  0
 21 22  1  0  0  0
 21 23  1  0  0  0
 21 46  1  0  0  0
 22 47  1  0  0  0
 23 24  1  0  0  0
 23 25  1  0  0  0
 23 48  1  0  0  0
 24 49  1  0  0  0
 25 26  1  0  0  0
 26 27  1  0  0  0
 26 50  1  0  0  0
 26 51  1  0  0  0
 27 52  1  0  0  0
M  CHG  3   1  -1   3  -1  16   1
M  END
> <s_m_source_file>
../2wtx_ligand.sdf

> <i_m_source_file_index>
1

> <s_epik_input>
W09IXVAoPU8pKFtPSF0pT1tDSDJdW0NASF0xW0NIMl1bQ0BASF0oW0NASF0oW09IXSlbQ0BASF0oW09IXSlbQ0BASF0xW09IXSlbTkgyK11bQ0BIXTJbQ0hdPUMoW0NIMl1bT0hdKVtDQEBIXShbT0hdKVtDQEhdKFtPSF0pW0NASF0yW09IXQ==

> <s_epik_cmdline>
J2VwaWtfYXBwJywgJy1pbWFlJywgJ2xpZ2FuZF9wcm8ubWFlJywgJy1vbWFlJywgJ2xpZ2FuZF9wcmVwLm1hZScsICctbXMnLCAnMScsICctcGgnLCAnNycsICctcGh0JywgJzAuNScsICctbnQn

> <r_lp_tautomer_probability>
1

> <r_epik_Ionization_Penalty>
  0.2146

> <r_epik_Ionization_Penalty_Charging>
  0.2146

> <r_epik_Ionization_Penalty_Neutral>
  0.0000

> <r_epik_State_Penalty>
 -0.0000

> <r_epik_Charging_Adjusted_Penalty>
0.214550417490047

> <i_epik_Tot_Q>
-1

> <i_epik_Tot_abs_Q>
3

$$$$
