2wu6_ligand
                    3D
 Schrodinger Suite 2020-3.
 41 43  0  0  1  0            999 V2000
   39.1350   54.6520   17.1200 F   0  0  0  0  0  0
   37.8910   54.3560   17.5690 C   0  0  0  0  0  0
   37.7050   53.6480   18.7670 C   0  0  0  0  0  0
   36.4320   53.3260   19.2380 C   0  0  0  0  0  0
   35.3340   53.7250   18.4960 C   0  0  0  0  0  0
   35.5360   54.4100   17.2970 C   0  0  0  0  0  0
   34.4450   54.7620   16.5980 F   0  0  0  0  0  0
   36.8030   54.7260   16.8050 C   0  0  0  0  0  0
   36.9160   55.4570   15.6400 N   0  0  0  0  0  0
   37.2490   55.0050   14.4190 C   0  0  0  0  0  0
   37.6920   53.3300   14.2740 S   0  0  0  0  0  0
   37.1790   55.8520   13.3620 N   0  0  0  0  0  0
   36.9440   57.0700   13.5150 N   0  0  0  0  0  0
   37.2320   55.5520   12.0420 C   0  0  0  0  0  0
   37.4320   54.3620   11.4430 N   0  0  0  0  0  0
   37.0540   56.6710   11.3730 N   0  0  0  0  0  0
   36.8680   57.6300   12.3120 C   0  0  0  0  0  0
   36.6730   58.9320   12.0060 N   0  0  0  0  0  0
   36.4240   60.0430   12.7330 C   0  0  0  0  0  0
   36.5920   60.0880   14.1180 C   0  0  0  0  0  0
   36.3350   61.2660   14.8290 C   0  0  0  0  0  0
   35.9920   61.2080   12.0590 C   0  0  0  0  0  0
   35.7320   62.3990   12.7560 C   0  0  0  0  0  0
   35.9070   62.4140   14.1510 C   0  0  0  0  0  0
   35.5680   63.8820   15.1160 S   0  0  0  0  0  0
   34.8640   64.8500   14.1930 O   0  0  0  0  0  0
   34.7220   63.5070   16.3000 O   0  0  0  0  0  0
   36.9390   64.5420   15.5150 N   0  0  0  0  0  0
   38.5777   53.3420   19.3439 H   0  0  0  0  0  0
   36.3051   52.7730   20.1687 H   0  0  0  0  0  0
   34.3242   53.5070   18.8437 H   0  0  0  0  0  0
   36.7233   56.5400   15.6493 H   0  0  0  0  0  0
   37.5754   53.4571   12.0517 H   0  0  0  0  0  0
   37.4519   54.2953   10.3452 H   0  0  0  0  0  0
   36.7049   59.2612   10.9569 H   0  0  0  0  0  0
   36.9263   59.1977   14.6507 H   0  0  0  0  0  0
   36.4681   61.2897   15.9106 H   0  0  0  0  0  0
   35.8581   61.1814   10.9776 H   0  0  0  0  0  0
   35.4016   63.2928   12.2268 H   0  0  0  0  0  0
   36.7505   65.4478   16.1100 H   0  0  0  0  0  0
   37.4954   64.8103   14.6048 H   0  0  0  0  0  0
  1  2  1  0  0  0
  2  3  2  0  0  0
  2  8  1  0  0  0
  3  4  1  0  0  0
  3 29  1  0  0  0
  4  5  2  0  0  0
  4 30  1  0  0  0
  5  6  1  0  0  0
  5 31  1  0  0  0
  6  7  1  0  0  0
  6  8  2  0  0  0
  8  9  1  0  0  0
  9 10  1  0  0  0
  9 32  1  0  0  0
 10 11  2  0  0  0
 10 12  1  0  0  0
 12 13  1  0  0  0
 12 14  1  0  0  0
 13 17  2  0  0  0
 14 15  1  0  0  0
 14 16  2  0  0  0
 15 33  1  0  0  0
 15 34  1  0  0  0
 16 17  1  0  0  0
 17 18  1  0  0  0
 18 19  1  0  0  0
 18 35  1  0  0  0
 19 20  2  0  0  0
 19 22  1  0  0  0
 20 21  1  0  0  0
 20 36  1  0  0  0
 21 24  2  0  0  0
 21 37  1  0  0  0
 22 23  2  0  0  0
 22 38  1  0  0  0
 23 24  1  0  0  0
 23 39  1  0  0  0
 24 25  1  0  0  0
 25 26  2  0  0  0
 25 27  2  0  0  0
 25 28  1  0  0  0
 28 40  1  0  0  0
 28 41  1  0  0  0
M  END
> <s_m_source_file>
../2wu6_ligand.sdf

> <i_m_source_file_index>
1

> <s_epik_input>
RmMxW2NIXVtjSF1bY0hdYyhGKWMxW05IXUMoPVMpbjJuYyhuYzJbTkgyXSlbTkhdYzNbY0hdW2NIXWMoW2NIXVtjSF0zKVMoPU8pKD1PKVtOSDJd

> <s_epik_cmdline>
J2VwaWtfYXBwJywgJy1pbWFlJywgJ2xpZ2FuZF9wcm8ubWFlJywgJy1vbWFlJywgJ2xpZ2FuZF9wcmVwLm1hZScsICctbXMnLCAnMScsICctcGgnLCAnNycsICctcGh0JywgJzAuNScsICctbnQn

> <r_lp_tautomer_probability>
1

> <r_epik_Ionization_Penalty>
  0.0014

> <r_epik_Ionization_Penalty_Charging>
  0.0000

> <r_epik_Ionization_Penalty_Neutral>
  0.0014

> <r_epik_State_Penalty>
 -0.0000

> <r_epik_Charging_Adjusted_Penalty>
0

> <i_epik_Tot_Q>
0

> <i_epik_Tot_abs_Q>
0

$$$$
