2wu7_ligand
                    3D
 Schrodinger Suite 2020-3.
 35 36  0  0  1  0            999 V2000
   33.6540   17.4260   20.9730 C   0  0  0  0  0  0
   34.6880   16.3710   21.2420 C   0  0  0  0  0  0
   35.2090   15.8090   19.9910 O   0  0  0  0  0  0
   35.3970   16.1370   18.7310 C   0  0  0  0  0  0
   35.7750   17.2310   18.4890 O   0  0  0  0  0  0
   35.4580   15.3250   17.3800 C   0  0  0  0  0  0
   35.6870   15.7960   15.9550 N   0  0  0  0  0  0
   35.9390   17.1890   15.4380 C   0  0  0  0  0  0
   35.7000   14.7820   15.1310 C   0  0  0  0  0  0
   35.8910   14.6820   13.7070 C   0  0  0  0  0  0
   36.0960   16.1330   12.7270 Cl  0  0  0  0  0  0
   35.8730   13.4630   13.0960 C   0  0  0  0  0  0
   36.0860   13.3560   11.4490 Cl  0  0  0  0  0  0
   35.6500   12.2500   13.8790 C   0  0  0  0  0  0
   35.4410   12.2920   15.2890 C   0  0  0  0  0  0
   35.4650   13.5460   15.9460 C   0  0  0  0  0  0
   35.3220   13.9410   17.2830 C   0  0  0  0  0  0
   35.0620   12.9580   18.1280 C   0  0  0  0  0  0
   35.6880   11.8030   18.6170 C   0  0  0  0  0  0
   35.8220   10.9390   19.1320 N   0  0  0  0  0  0
   33.8050   13.0350   18.6270 C   0  0  0  0  0  0
   32.7780   13.7800   18.5560 N   0  0  0  0  0  0
   33.2830   17.8276   21.9275 H   0  0  0  0  0  0
   32.8177   16.9848   20.4110 H   0  0  0  0  0  0
   34.1039   18.2384   20.3835 H   0  0  0  0  0  0
   35.5243   16.8122   21.8040 H   0  0  0  0  0  0
   34.2382   15.5586   21.8316 H   0  0  0  0  0  0
   35.8885   17.9044   16.2721 H   0  0  0  0  0  0
   35.1760   17.4454   14.6882 H   0  0  0  0  0  0
   36.9364   17.2339   14.9763 H   0  0  0  0  0  0
   35.6432   11.2856   13.3711 H   0  0  0  0  0  0
   35.2658   11.3747   15.8512 H   0  0  0  0  0  0
   33.4426   12.2666   19.3257 H   0  0  0  0  0  0
   32.7924   14.6773   17.9199 H   0  0  0  0  0  0
   31.8746   13.5276   19.1306 H   0  0  0  0  0  0
  1  2  1  0  0  0
  1 23  1  0  0  0
  1 24  1  0  0  0
  1 25  1  0  0  0
  2  3  1  0  0  0
  2 26  1  0  0  0
  2 27  1  0  0  0
  3  4  1  0  0  0
  4  5  2  0  0  0
  4  6  1  0  0  0
  6  7  1  0  0  0
  6 17  2  0  0  0
  7  8  1  0  0  0
  7  9  1  0  0  0
  8 28  1  0  0  0
  8 29  1  0  0  0
  8 30  1  0  0  0
  9 10  1  0  0  0
  9 16  2  0  0  0
 10 11  1  0  0  0
 10 12  2  0  0  0
 12 13  1  0  0  0
 12 14  1  0  0  0
 14 15  2  0  0  0
 14 31  1  0  0  0
 15 16  1  0  0  0
 15 32  1  0  0  0
 16 17  1  0  0  0
 17 18  1  0  0  0
 18 19  1  0  0  0
 18 21  2  0  0  0
 19 20  3  0  0  0
 21 22  1  0  0  0
 21 33  1  0  0  0
 22 34  1  0  0  0
 22 35  1  0  0  0
M  END
> <s_m_source_file>
../2wu7_ligand.sdf

> <i_m_source_file_index>
1

> <s_epik_input>
W0NIM11bQ0gyXU9DKD1PKWMobjFbQ0gzXSljKC9DKEMjTik9W0NIXVxbTkgyXSljKGMxMilbY0hdW2NIXWMoQ2wpYzJDbA==

> <s_epik_cmdline>
J2VwaWtfYXBwJywgJy1pbWFlJywgJ2xpZ2FuZF9wcm8ubWFlJywgJy1vbWFlJywgJ2xpZ2FuZF9wcmVwLm1hZScsICctbXMnLCAnMScsICctcGgnLCAnNycsICctcGh0JywgJzAuNScsICctbnQn

> <r_lp_tautomer_probability>
1

> <r_epik_Ionization_Penalty>
  0.0000

> <r_epik_Ionization_Penalty_Charging>
  0.0000

> <r_epik_Ionization_Penalty_Neutral>
  0.0000

> <r_epik_State_Penalty>
 -0.0000

> <r_epik_Charging_Adjusted_Penalty>
0

> <i_epik_Tot_Q>
0

> <i_epik_Tot_abs_Q>
0

> <s_epik_Chemistry_Notes>
This compound has an ester and may undergo hydrolysis at high or low pH.

$$$$
