2wuf_ligand
                    3D
 Schrodinger Suite 2020-3.
 48 49  0  0  1  0            999 V2000
    9.8520  -39.5360    9.4710 C   0  0  0  0  0  0
   10.0020  -40.8720   10.2100 C   0  0  2  0  0  0
    9.3170  -40.9380   11.5830 C   0  0  0  0  0  0
    9.3580  -39.8410   12.3420 C   0  0  0  0  0  0
    8.8290  -39.7800   13.7770 C   0  0  0  0  0  0
    8.7710  -40.7940   14.3670 O   0  0  0  0  0  0
    8.4360  -38.4380   14.4350 C   0  0  0  0  0  0
    8.1160  -37.2910   13.7200 O   0  5  0  0  0  0
    8.8250  -38.1850   15.5080 O   0  0  0  0  0  0
   11.4110  -41.4270   10.1720 C   0  0  0  0  0  0
   11.7950  -41.8220   11.1990 O   0  0  0  0  0  0
   12.3530  -40.8410    9.0590 C   0  0  0  0  0  0
   11.8860  -40.7930    7.5550 C   0  0  0  0  0  0
   13.1880  -40.7600    6.6710 C   0  0  2  0  0  0
   13.1780  -40.5560    5.0860 C   0  0  1  0  0  0
   13.6170  -39.1350    4.6850 C   0  0  0  0  0  0
   14.2080  -39.2170    3.2680 C   0  0  0  0  0  0
   14.8770  -40.5890    3.1900 C   0  0  0  0  0  0
   15.3420  -41.0980    2.2260 O   0  0  0  0  0  0
   14.2690  -41.4080    4.3180 C   0  0  2  0  0  0
   13.7930  -42.7620    3.7230 C   0  0  0  0  0  0
   15.3830  -41.8210    5.2510 C   0  0  0  0  0  0
   14.6720  -42.8430    6.1110 C   0  0  0  0  0  0
   13.8430  -42.0530    7.0810 C   0  0  0  0  0  0
   13.5430  -42.5400    8.0880 O   0  0  0  0  0  0
    8.8087  -39.1943    9.5394 H   0  0  0  0  0  0
   10.1257  -39.6690    8.4139 H   0  0  0  0  0  0
   10.5141  -38.7869    9.9298 H   0  0  0  0  0  0
    9.4246  -41.5912    9.6105 H   0  0  0  0  0  0
    8.8066  -41.8412   11.9488 H   0  0  0  0  0  0
    9.7903  -38.9117   11.9426 H   0  0  0  0  0  0
   12.5865  -39.7915    9.2915 H   0  0  0  0  0  0
   13.2847  -41.4246    9.0226 H   0  0  0  0  0  0
   11.2848  -41.6860    7.3291 H   0  0  0  0  0  0
   11.2793  -39.8907    7.3880 H   0  0  0  0  0  0
   13.7304  -39.8337    6.9112 H   0  0  0  0  0  0
   12.1428  -40.8014    4.8064 H   0  0  0  0  0  0
   12.7454  -38.4641    4.6999 H   0  0  0  0  0  0
   14.3727  -38.7702    5.3963 H   0  0  0  0  0  0
   13.4004  -39.1189    2.5277 H   0  0  0  0  0  0
   14.9357  -38.4043    3.1266 H   0  0  0  0  0  0
   12.9690  -42.5827    3.0167 H   0  0  0  0  0  0
   13.4440  -43.4168    4.5350 H   0  0  0  0  0  0
   14.6290  -43.2451    3.1961 H   0  0  0  0  0  0
   16.2146  -42.2407    4.6659 H   0  0  0  0  0  0
   15.7358  -40.9431    5.8121 H   0  0  0  0  0  0
   14.0421  -43.4826    5.4753 H   0  0  0  0  0  0
   15.4152  -43.4635    6.6332 H   0  0  0  0  0  0
  1  2  1  0  0  0
  1 26  1  0  0  0
  1 27  1  0  0  0
  1 28  1  0  0  0
  2  3  1  0  0  0
  2 10  1  0  0  0
  2 29  1  0  0  0
  3  4  2  0  0  0
  3 30  1  0  0  0
  4  5  1  0  0  0
  4 31  1  0  0  0
  5  6  2  0  0  0
  5  7  1  0  0  0
  7  8  1  0  0  0
  7  9  2  0  0  0
 10 11  2  0  0  0
 10 12  1  0  0  0
 12 13  1  0  0  0
 12 32  1  0  0  0
 12 33  1  0  0  0
 13 14  1  0  0  0
 13 34  1  0  0  0
 13 35  1  0  0  0
 14 15  1  0  0  0
 14 24  1  0  0  0
 14 36  1  0  0  0
 15 16  1  0  0  0
 15 20  1  0  0  0
 15 37  1  0  0  0
 16 17  1  0  0  0
 16 38  1  0  0  0
 16 39  1  0  0  0
 17 18  1  0  0  0
 17 40  1  0  0  0
 17 41  1  0  0  0
 18 19  2  0  0  0
 18 20  1  0  0  0
 20 21  1  0  0  0
 20 22  1  0  0  0
 21 42  1  0  0  0
 21 43  1  0  0  0
 21 44  1  0  0  0
 22 23  1  0  0  0
 22 45  1  0  0  0
 22 46  1  0  0  0
 23 24  1  0  0  0
 23 47  1  0  0  0
 23 48  1  0  0  0
 24 25  2  0  0  0
M  CHG  1   8  -1
M  END
> <s_m_source_file>
../2wuf_ligand.sdf

> <i_m_source_file_index>
1

> <s_epik_input>
W09IXUMoPU8pQyg9TylcW0NIXT1bQ0hdXFtDQEBIXShbQ0gzXSlDKD1PKVtDSDJdW0NIMl1bQ0BASF0oQyg9TylbQ0gyXVtDSDJdMSlbQ0BIXShbQ0BdMTJbQ0gzXSlbQ0gyXVtDSDJdQzI9Tw==

> <s_epik_cmdline>
J2VwaWtfYXBwJywgJy1pbWFlJywgJ2xpZ2FuZF9wcm8ubWFlJywgJy1vbWFlJywgJ2xpZ2FuZF9wcmVwLm1hZScsICctbXMnLCAnMScsICctcGgnLCAnNycsICctcGh0JywgJzAuNScsICctbnQn

> <r_lp_tautomer_probability>
1

> <r_epik_Ionization_Penalty>
  0.0000

> <r_epik_Ionization_Penalty_Charging>
  0.0000

> <r_epik_Ionization_Penalty_Neutral>
  0.0000

> <r_epik_State_Penalty>
 -0.0000

> <r_epik_Charging_Adjusted_Penalty>
5.02587392522082e-06

> <i_epik_Tot_Q>
-1

> <i_epik_Tot_abs_Q>
1

$$$$
