2wuu_ligand
                    3D
 Schrodinger Suite 2020-3.
124126  0  0  1  0            999 V2000
   -0.4560  -19.1690   15.0070 S   0  0  0  0  0  0
   -0.6320  -18.4570   13.3360 C   0  0  0  0  0  0
    0.2580  -17.1250   13.2320 C   0  0  0  0  0  0
    0.1020  -16.5540   11.8620 N   0  0  0  0  0  0
    0.7530  -17.0210   10.8110 C   0  0  0  0  0  0
    1.6700  -17.8520   10.8620 O   0  0  0  0  0  0
    0.3950  -16.2930    9.4980 C   0  0  0  0  0  0
    1.5760  -16.1370    8.5250 C   0  0  0  0  0  0
    2.7030  -15.3970    9.1120 N   0  0  0  0  0  0
    2.6060  -14.0770    9.2890 C   0  0  0  0  0  0
    1.5530  -13.4560    9.1130 O   0  0  0  0  0  0
   -2.1700  -18.7660   15.7230 C   0  0  0  0  0  0
    3.8390  -13.4650    9.9820 C   0  0  2  0  0  0
    4.9650  -14.2340    9.6830 O   0  0  0  0  0  0
    3.6600  -13.3170   11.5170 C   0  0  0  0  0  0
    4.9760  -12.7810   12.1430 C   0  0  0  0  0  0
    3.3370  -14.6700   12.1820 C   0  0  0  0  0  0
    2.4750  -12.4020   11.8010 C   0  0  0  0  0  0
    2.8450  -16.0940   17.5000 N   0  0  0  0  0  0
    6.5420   -8.7200   12.7370 O   0  5  0  0  0  0
    7.8010   -9.6410   12.9280 P   0  0  2  0  0  0
   -2.1690  -17.3020   16.2800 C   0  0  0  0  0  0
   -2.5790  -16.4430   15.5240 O   0  0  0  0  0  0
    7.1600  -13.4590   16.7780 C   0  0  1  0  0  0
    3.4490  -15.1910   18.3560 C   0  0  0  0  0  0
    9.1630   -9.0770   12.4620 O   0  0  0  0  0  0
    6.7080  -11.2760   10.8320 P   0  0  2  0  0  0
   -1.4560  -17.0180   17.5960 C   0  0  0  0  0  0
    8.5980  -13.9140   16.5620 C   0  0  2  0  0  0
    8.9970  -14.8900   17.5440 O   0  0  0  0  0  0
    4.5670  -14.5820   18.0000 N   0  0  0  0  0  0
    7.5850  -11.0380   12.1020 O   0  0  0  0  0  0
   -0.9580  -15.5780   17.7260 C   0  0  0  0  0  0
    9.3100  -12.6010   16.7870 C   0  0  2  0  0  0
    9.4640  -12.2980   18.1840 O   0  0  0  0  0  0
   10.9100  -12.4620   18.8390 P   0  0  0  0  0  0
    5.1200  -14.8960   16.7870 C   0  0  0  0  0  0
    7.1970  -12.5490   10.2480 O   0  5  0  0  0  0
   -0.4860  -15.3580   19.1240 C   0  0  0  0  0  0
    8.3380  -11.5840   16.1980 C   0  0  2  0  0  0
    7.0990  -12.2440   16.0280 O   0  0  0  0  0  0
    4.5280  -15.8200   15.9440 C   0  0  0  0  0  0
    6.6730  -10.0710   10.0380 O   0  0  0  0  0  0
    0.2200  -13.9470   19.3140 C   0  0  0  0  0  0
    8.7380  -11.1870   14.7670 C   0  0  0  0  0  0
    7.8340  -10.1470   14.4070 O   0  0  0  0  0  0
    3.3700  -16.4720   16.3210 C   0  0  0  0  0  0
    2.7620  -17.4500   15.5490 N   0  0  0  0  0  0
    5.2900  -11.5230   11.4980 O   0  0  0  0  0  0
    0.5510  -13.6750   20.7980 C   0  0  0  0  0  0
    5.3090  -15.9250   14.8300 N   0  0  0  0  0  0
   11.3260  -14.0110   18.7150 O   0  5  0  0  0  0
   -0.6700  -13.2930   21.6280 C   0  0  0  0  0  0
    6.3350  -15.0870   14.9660 C   0  0  0  0  0  0
   10.8190  -12.1670   20.3810 O   0  5  0  0  0  0
   -0.2720  -12.9420   23.0660 C   0  0  0  0  0  0
    6.2350  -14.4490   16.1790 N   0  0  0  0  0  0
   11.8780  -11.5480   18.1380 O   0  0  0  0  0  0
   -1.4760  -12.5660   23.9580 C   0  0  0  0  0  0
   -2.0400  -11.1500   23.5780 C   0  0  0  0  0  0
   -3.2860  -10.7540   24.4510 C   0  0  0  0  0  0
   -2.9300  -10.6930   25.9570 C   0  0  0  0  0  0
   -4.2060  -10.2370   26.7080 C   0  0  0  0  0  0
   -3.9330  -10.1400   28.2120 C   0  0  0  0  0  0
   -0.2906  -19.1879   12.5882 H   0  0  0  0  0  0
   -1.6880  -18.2102   13.1519 H   0  0  0  0  0  0
   -0.0831  -16.3966   13.9824 H   0  0  0  0  0  0
    1.3135  -17.3740   13.4160 H   0  0  0  0  0  0
   -0.5789  -15.7067   11.6936 H   0  0  0  0  0  0
   -0.3885  -16.8553    8.9689 H   0  0  0  0  0  0
    0.0288  -15.2815    9.7277 H   0  0  0  0  0  0
    1.9431  -17.1315    8.2316 H   0  0  0  0  0  0
    1.2441  -15.5900    7.6302 H   0  0  0  0  0  0
    3.6198  -15.9309    9.4027 H   0  0  0  0  0  0
   -2.9287  -18.8578   14.9318 H   0  0  0  0  0  0
   -2.4019  -19.4688   16.5368 H   0  0  0  0  0  0
    4.0674  -12.4802    9.5483 H   0  0  0  0  0  0
    5.2323  -14.4335    8.6348 H   0  0  0  0  0  0
    4.8339  -12.6318   13.2235 H   0  0  0  0  0  0
    5.7842  -13.5084   11.9765 H   0  0  0  0  0  0
    4.1655  -15.3720   12.0063 H   0  0  0  0  0  0
    2.4118  -15.0792   11.7501 H   0  0  0  0  0  0
    3.2033  -14.5241   13.2640 H   0  0  0  0  0  0
    2.6550  -11.4170   11.3457 H   0  0  0  0  0  0
    2.3531  -12.2867   12.8881 H   0  0  0  0  0  0
    1.5616  -12.8419   11.3742 H   0  0  0  0  0  0
    6.8578  -13.3052   17.8244 H   0  0  0  0  0  0
    3.0016  -14.9808   19.3275 H   0  0  0  0  0  0
   -2.1445  -17.2036   18.4335 H   0  0  0  0  0  0
   -0.5803  -17.6773   17.6883 H   0  0  0  0  0  0
    8.8145  -14.4385   15.6197 H   0  0  0  0  0  0
    8.5679  -15.9025   17.5190 H   0  0  0  0  0  0
   -0.1294  -15.4116   17.0219 H   0  0  0  0  0  0
   -1.7796  -14.8837   17.4960 H   0  0  0  0  0  0
   10.3379  -12.6057   16.3953 H   0  0  0  0  0  0
   -1.3433  -15.4026   19.8117 H   0  0  0  0  0  0
    0.2407  -16.1388   19.3928 H   0  0  0  0  0  0
    8.2486  -10.7240   16.8780 H   0  0  0  0  0  0
    1.1573  -13.9256   18.7387 H   0  0  0  0  0  0
   -0.4489  -13.1510   18.9549 H   0  0  0  0  0  0
    9.7812  -10.8383   14.7613 H   0  0  0  0  0  0
    8.6392  -12.0587   14.1034 H   0  0  0  0  0  0
    1.8398  -17.9348   15.9018 H   0  0  0  0  0  0
    3.2018  -17.7411   14.5837 H   0  0  0  0  0  0
    0.9878  -14.5788   21.2478 H   0  0  0  0  0  0
    1.2711  -12.8463   20.8672 H   0  0  0  0  0  0
   -1.1619  -12.4191   21.1759 H   0  0  0  0  0  0
   -1.3744  -14.1375   21.6541 H   0  0  0  0  0  0
    7.1268  -14.9321   14.2331 H   0  0  0  0  0  0
    0.2270  -13.8058   23.5295 H   0  0  0  0  0  0
    0.4150  -12.0830   23.0570 H   0  0  0  0  0  0
   -2.2756  -13.3101   23.8274 H   0  0  0  0  0  0
   -1.1603  -12.5481   25.0116 H   0  0  0  0  0  0
   -1.2591  -10.3908   23.7324 H   0  0  0  0  0  0
   -2.3483  -11.1494   22.5221 H   0  0  0  0  0  0
   -3.6518   -9.7643   24.1402 H   0  0  0  0  0  0
   -4.0828  -11.4996   24.3123 H   0  0  0  0  0  0
   -2.6133  -11.6892   26.2995 H   0  0  0  0  0  0
   -2.1113   -9.9748   26.1115 H   0  0  0  0  0  0
   -4.5175   -9.2499   26.3357 H   0  0  0  0  0  0
   -5.0125  -10.9650   26.5361 H   0  0  0  0  0  0
   -4.8473   -9.8156   28.7304 H   0  0  0  0  0  0
   -3.1303   -9.4098   28.3926 H   0  0  0  0  0  0
   -3.6253  -11.1249   28.5931 H   0  0  0  0  0  0
  1  2  1  0  0  0
  1 12  1  0  0  0
  2  3  1  0  0  0
  2 65  1  0  0  0
  2 66  1  0  0  0
  3  4  1  0  0  0
  3 67  1  0  0  0
  3 68  1  0  0  0
  4  5  1  0  0  0
  4 69  1  0  0  0
  5  6  2  0  0  0
  5  7  1  0  0  0
  7  8  1  0  0  0
  7 70  1  0  0  0
  7 71  1  0  0  0
  8  9  1  0  0  0
  8 72  1  0  0  0
  8 73  1  0  0  0
  9 10  1  0  0  0
  9 74  1  0  0  0
 10 11  2  0  0  0
 10 13  1  0  0  0
 12 22  1  0  0  0
 12 75  1  0  0  0
 12 76  1  0  0  0
 13 14  1  0  0  0
 13 15  1  0  0  0
 13 77  1  0  0  0
 14 78  1  0  0  0
 15 16  1  0  0  0
 15 17  1  0  0  0
 15 18  1  0  0  0
 16 49  1  0  0  0
 16 79  1  0  0  0
 16 80  1  0  0  0
 17 81  1  0  0  0
 17 82  1  0  0  0
 17 83  1  0  0  0
 18 84  1  0  0  0
 18 85  1  0  0  0
 18 86  1  0  0  0
 19 25  1  0  0  0
 19 47  2  0  0  0
 20 21  1  0  0  0
 21 26  2  0  0  0
 21 32  1  0  0  0
 21 46  1  0  0  0
 22 23  2  0  0  0
 22 28  1  0  0  0
 24 29  1  0  0  0
 24 41  1  0  0  0
 24 57  1  0  0  0
 24 87  1  0  0  0
 25 31  2  0  0  0
 25 88  1  0  0  0
 27 32  1  0  0  0
 27 38  1  0  0  0
 27 43  2  0  0  0
 27 49  1  0  0  0
 28 33  1  0  0  0
 28 89  1  0  0  0
 28 90  1  0  0  0
 29 30  1  0  0  0
 29 34  1  0  0  0
 29 91  1  0  0  0
 30 92  1  0  0  0
 31 37  1  0  0  0
 33 39  1  0  0  0
 33 93  1  0  0  0
 33 94  1  0  0  0
 34 35  1  0  0  0
 34 40  1  0  0  0
 34 95  1  0  0  0
 35 36  1  0  0  0
 36 52  1  0  0  0
 36 55  1  0  0  0
 36 58  2  0  0  0
 37 42  2  0  0  0
 37 57  1  0  0  0
 39 44  1  0  0  0
 39 96  1  0  0  0
 39 97  1  0  0  0
 40 41  1  0  0  0
 40 45  1  0  0  0
 40 98  1  0  0  0
 42 47  1  0  0  0
 42 51  1  0  0  0
 44 50  1  0  0  0
 44 99  1  0  0  0
 44100  1  0  0  0
 45 46  1  0  0  0
 45101  1  0  0  0
 45102  1  0  0  0
 47 48  1  0  0  0
 48103  1  0  0  0
 48104  1  0  0  0
 50 53  1  0  0  0
 50105  1  0  0  0
 50106  1  0  0  0
 51 54  2  0  0  0
 53 56  1  0  0  0
 53107  1  0  0  0
 53108  1  0  0  0
 54 57  1  0  0  0
 54109  1  0  0  0
 56 59  1  0  0  0
 56110  1  0  0  0
 56111  1  0  0  0
 59 60  1  0  0  0
 59112  1  0  0  0
 59113  1  0  0  0
 60 61  1  0  0  0
 60114  1  0  0  0
 60115  1  0  0  0
 61 62  1  0  0  0
 61116  1  0  0  0
 61117  1  0  0  0
 62 63  1  0  0  0
 62118  1  0  0  0
 62119  1  0  0  0
 63 64  1  0  0  0
 63120  1  0  0  0
 63121  1  0  0  0
 64122  1  0  0  0
 64123  1  0  0  0
 64124  1  0  0  0
M  CHG  4  20  -1  38  -1  52  -1  55  -1
M  END
> <s_m_source_file>
../2wuu_ligand.sdf

> <i_m_source_file_index>
1

> <s_epik_input>
W0NIM11bQ0gyXVtDSDJdW0NIMl1bQ0gyXVtDSDJdW0NIMl1bQ0gyXVtDSDJdW0NIMl1bQ0gyXVtDSDJdW0NIMl1DKD1PKVtDSDJdU1tDSDJdW0NIMl1bTkhdQyg9TylbQ0gyXVtDSDJdW05IXUMoPU8pW0NASF0oW09IXSlDKFtDSDNdKShbQ0gzXSlbQ0gyXU9bUEBdKD1PKShbT0hdKU9bUEBAXSg9TykoW09IXSlPW0NIMl1bQ0BASF0oTzEpW0NAQEhdKE9QKD1PKShbT0hdKVtPSF0pW0NAQEhdKFtPSF0pW0NAQEhdMW4yW2NIXW5jKGMyMyljKFtOSDJdKW5bY0hdbjM=

> <s_epik_cmdline>
J2VwaWtfYXBwJywgJy1pbWFlJywgJ2xpZ2FuZF9wcm8ubWFlJywgJy1vbWFlJywgJ2xpZ2FuZF9wcmVwLm1hZScsICctbXMnLCAnMScsICctcGgnLCAnNycsICctcGh0JywgJzAuNScsICctbnQn

> <r_lp_tautomer_probability>
0.999997176411156

> <r_epik_Ionization_Penalty>
  0.0758

> <r_epik_Ionization_Penalty_Charging>
  0.0752

> <r_epik_Ionization_Penalty_Neutral>
  0.0006

> <r_epik_State_Penalty>
  0.0657

> <r_epik_Charging_Adjusted_Penalty>
0.140907442939625

> <i_epik_Tot_Q>
-4

> <i_epik_Tot_abs_Q>
4

> <s_epik_Chemistry_Notes>
This compound contains an acetal/aminal-like group ( X-CH(R)-Y where X, Y are N, S, or O) that may be acid/base labile, releasing an aldehyde.

$$$$
