2wvz_ligand
                    3D
 Schrodinger Suite 2020-3.
 28 29  0  0  1  0            999 V2000
  -15.1620  -21.7940   47.1850 C   0  0  1  0  0  0
  -16.3110  -22.4880   47.6020 O   0  0  0  0  0  0
  -15.3790  -20.2730   47.4290 C   0  0  2  0  0  0
  -16.0680  -19.6680   46.3000 O   0  0  0  0  0  0
  -14.0380  -19.5430   47.7070 C   0  0  2  0  0  0
  -14.1070  -18.1820   47.2900 O   0  0  0  0  0  0
  -12.8710  -20.2760   47.0480 C   0  0  1  0  0  0
  -11.5840  -19.5460   47.3080 N   0  0  0  0  0  0
  -10.9190  -20.2010   48.2880 C   0  0  0  0  0  0
   -9.8290  -19.8920   48.7910 O   0  0  0  0  0  0
  -11.6400  -21.3410   48.6720 C   0  0  0  0  0  0
  -11.2800  -22.1100   49.5610 O   0  0  0  0  0  0
  -12.8050  -21.4790   47.8830 N   0  0  0  0  0  0
  -13.9650  -22.3840   47.9640 C   0  0  2  0  0  0
  -13.6040  -23.7940   47.5100 C   0  0  0  0  0  0
  -13.1980  -23.6940   46.1550 O   0  0  0  0  0  0
  -15.0355  -21.9715   46.1068 H   0  0  0  0  0  0
  -17.2924  -22.2336   47.1752 H   0  0  0  0  0  0
  -16.0568  -20.1279   48.2831 H   0  0  0  0  0  0
  -17.0381  -20.0675   45.9694 H   0  0  0  0  0  0
  -13.8442  -19.4617   48.7867 H   0  0  0  0  0  0
  -14.8984  -17.5261   47.6819 H   0  0  0  0  0  0
  -12.9858  -20.4364   45.9658 H   0  0  0  0  0  0
  -11.3382  -18.6421   46.7313 H   0  0  0  0  0  0
  -14.2278  -22.4530   49.0299 H   0  0  0  0  0  0
  -12.7871  -24.1828   48.1357 H   0  0  0  0  0  0
  -14.4836  -24.4472   47.6079 H   0  0  0  0  0  0
  -12.8868  -24.5951   45.6062 H   0  0  0  0  0  0
  1  2  1  0  0  0
  1  3  1  0  0  0
  1 14  1  0  0  0
  1 17  1  0  0  0
  2 18  1  0  0  0
  3  4  1  0  0  0
  3  5  1  0  0  0
  3 19  1  0  0  0
  4 20  1  0  0  0
  5  6  1  0  0  0
  5  7  1  0  0  0
  5 21  1  0  0  0
  6 22  1  0  0  0
  7  8  1  0  0  0
  7 13  1  0  0  0
  7 23  1  0  0  0
  8  9  1  0  0  0
  8 24  1  0  0  0
  9 10  2  0  0  0
  9 11  1  0  0  0
 11 12  2  0  0  0
 11 13  1  0  0  0
 13 14  1  0  0  0
 14 15  1  0  0  0
 14 25  1  0  0  0
 15 16  1  0  0  0
 15 26  1  0  0  0
 15 27  1  0  0  0
 16 28  1  0  0  0
M  END
> <s_m_source_file>
../2wvz_ligand.sdf

> <i_m_source_file_index>
1

> <s_epik_input>
W09IXVtDQEhdMVtDQEBIXShbT0hdKVtDQEhdKFtPSF0pW0NAQEhdKFtDSDJdW09IXSlOKFtDQEBIXTEyKUMoPU8pQyg9TylbTkhdMg==

> <s_epik_cmdline>
J2VwaWtfYXBwJywgJy1pbWFlJywgJ2xpZ2FuZF9wcm8ubWFlJywgJy1vbWFlJywgJ2xpZ2FuZF9wcmVwLm1hZScsICctbXMnLCAnMScsICctcGgnLCAnNycsICctcGh0JywgJzAuNScsICctbnQn

> <r_lp_tautomer_probability>
1

> <r_epik_Ionization_Penalty>
  0.0003

> <r_epik_Ionization_Penalty_Charging>
  0.0000

> <r_epik_Ionization_Penalty_Neutral>
  0.0003

> <r_epik_State_Penalty>
 -0.0000

> <r_epik_Charging_Adjusted_Penalty>
0

> <i_epik_Tot_Q>
0

> <i_epik_Tot_abs_Q>
0

> <s_epik_Chemistry_Notes>
This compound contains an acetal/aminal-like group ( X-CH(R)-Y where X, Y are N, S, or O) that may be acid/base labile, releasing an aldehyde.

$$$$
