2ww0_ligand
                    3D
 Schrodinger Suite 2020-3.
 28 29  0  0  1  0            999 V2000
   45.4520   21.7970  101.7070 C   0  0  1  0  0  0
   46.2560   21.0420  102.5920 O   0  0  0  0  0  0
   46.3180   22.8660  101.0210 C   0  0  1  0  0  0
   45.6960   23.4080   99.7660 N   0  3  1  0  0  0
   44.8190   22.5630   98.9280 C   0  0  0  0  0  0
   43.9610   21.6330   99.7790 C   0  0  0  0  0  0
   44.8410   20.8380  100.7140 C   0  0  0  0  0  0
   45.1090   24.6990  100.1320 C   0  0  0  0  0  0
   46.2820   25.2570  100.9330 C   0  0  1  0  0  0
   45.8820   26.4490  101.6080 O   0  0  0  0  0  0
   46.4970   24.1120  101.9220 C   0  0  1  0  0  0
   45.4540   24.1320  102.9010 O   0  0  0  0  0  0
   44.6608   22.2789  102.3002 H   0  0  0  0  0  0
   46.8013   21.5448  103.4044 H   0  0  0  0  0  0
   47.2592   22.3490  100.7823 H   0  0  0  0  0  0
   46.4987   23.4995   99.0195 H   0  0  0  0  0  0
   44.1525   23.2040   98.3324 H   0  0  0  0  0  0
   45.4355   21.9493   98.2547 H   0  0  0  0  0  0
   43.2485   22.2286  100.3686 H   0  0  0  0  0  0
   43.4085   20.9427   99.1246 H   0  0  0  0  0  0
   45.6405   20.3365  100.1490 H   0  0  0  0  0  0
   44.2438   20.0859  101.2504 H   0  0  0  0  0  0
   44.8657   25.2630   99.2195 H   0  0  0  0  0  0
   44.1916   24.5324  100.7156 H   0  0  0  0  0  0
   47.1668   25.5900  100.3707 H   0  0  0  0  0  0
   45.6870   27.3670  101.0342 H   0  0  0  0  0  0
   47.4250   24.1643  102.5103 H   0  0  0  0  0  0
   45.4376   23.3790  103.7027 H   0  0  0  0  0  0
  1  2  1  0  0  0
  1  3  1  0  0  0
  1  7  1  0  0  0
  1 13  1  0  0  0
  2 14  1  0  0  0
  3  4  1  0  0  0
  3 11  1  0  0  0
  3 15  1  0  0  0
  4  5  1  0  0  0
  4  8  1  0  0  0
  4 16  1  0  0  0
  5  6  1  0  0  0
  5 17  1  0  0  0
  5 18  1  0  0  0
  6  7  1  0  0  0
  6 19  1  0  0  0
  6 20  1  0  0  0
  7 21  1  0  0  0
  7 22  1  0  0  0
  8  9  1  0  0  0
  8 23  1  0  0  0
  8 24  1  0  0  0
  9 10  1  0  0  0
  9 11  1  0  0  0
  9 25  1  0  0  0
 10 26  1  0  0  0
 11 12  1  0  0  0
 11 27  1  0  0  0
 12 28  1  0  0  0
M  CHG  1   4   1
M  END
> <s_m_source_file>
../2ww0_ligand.sdf

> <i_m_source_file_index>
1

> <s_epik_input>
W09IXVtDQEBIXTFbQ0gyXVtDSDJdW0NIMl1bTkBIK10oW0NASF0xMilbQ0gyXVtDQEBIXShbT0hdKVtDQEhdMltPSF0=

> <s_epik_cmdline>
J2VwaWtfYXBwJywgJy1pbWFlJywgJ2xpZ2FuZF9wcm8ubWFlJywgJy1vbWFlJywgJ2xpZ2FuZF9wcmVwLm1hZScsICctbXMnLCAnMScsICctcGgnLCAnNycsICctcGh0JywgJzAuNScsICctbnQn

> <r_lp_tautomer_probability>
1

> <r_epik_Ionization_Penalty>
  0.0008

> <r_epik_Ionization_Penalty_Charging>
  0.0008

> <r_epik_Ionization_Penalty_Neutral>
  0.0000

> <r_epik_State_Penalty>
 -0.0000

> <r_epik_Charging_Adjusted_Penalty>
0.000826370909000464

> <i_epik_Tot_Q>
1

> <i_epik_Tot_abs_Q>
1

$$$$
