2ww2_ligand
                    3D
 Schrodinger Suite 2020-3.
 28 29  0  0  1  0            999 V2000
  -25.3520  -30.6910   88.4460 C   0  0  1  0  0  0
  -25.7860  -31.8930   87.7980 O   0  0  0  0  0  0
  -26.1290  -29.5160   87.8660 C   0  0  1  0  0  0
  -25.7080  -28.2800   88.5330 N   0  3  2  0  0  0
  -26.1110  -28.3050   89.9520 C   0  0  0  0  0  0
  -25.3210  -29.4160   90.6620 C   0  0  0  0  0  0
  -25.5510  -30.7750   89.9740 C   0  0  0  0  0  0
  -26.3940  -27.2500   87.7290 C   0  0  0  0  0  0
  -26.2730  -27.7790   86.2790 C   0  0  1  0  0  0
  -25.3690  -26.9640   85.5080 O   0  0  0  0  0  0
  -25.7280  -29.2110   86.4290 C   0  0  1  0  0  0
  -24.2960  -29.2270   86.3090 O   0  0  0  0  0  0
  -24.2793  -30.6065   88.2178 H   0  0  0  0  0  0
  -25.7083  -31.9873   86.7048 H   0  0  0  0  0  0
  -27.1941  -29.7598   87.9926 H   0  0  0  0  0  0
  -24.6213  -28.1138   88.5704 H   0  0  0  0  0  0
  -25.8885  -27.3316   90.4135 H   0  0  0  0  0  0
  -27.1900  -28.5065   90.0232 H   0  0  0  0  0  0
  -24.2471  -29.1797   90.6307 H   0  0  0  0  0  0
  -25.6502  -29.4882   91.7091 H   0  0  0  0  0  0
  -26.5787  -31.1008   90.1925 H   0  0  0  0  0  0
  -24.8390  -31.4989   90.3973 H   0  0  0  0  0  0
  -27.4406  -27.1658   88.0569 H   0  0  0  0  0  0
  -25.8885  -26.2824   87.8641 H   0  0  0  0  0  0
  -27.2046  -27.7173   85.6974 H   0  0  0  0  0  0
  -25.6126  -25.9100   85.3087 H   0  0  0  0  0  0
  -26.0457  -29.9372   85.6662 H   0  0  0  0  0  0
  -23.7476  -30.1769   86.3926 H   0  0  0  0  0  0
  1  2  1  0  0  0
  1  3  1  0  0  0
  1  7  1  0  0  0
  1 13  1  0  0  0
  2 14  1  0  0  0
  3  4  1  0  0  0
  3 11  1  0  0  0
  3 15  1  0  0  0
  4  5  1  0  0  0
  4  8  1  0  0  0
  4 16  1  0  0  0
  5  6  1  0  0  0
  5 17  1  0  0  0
  5 18  1  0  0  0
  6  7  1  0  0  0
  6 19  1  0  0  0
  6 20  1  0  0  0
  7 21  1  0  0  0
  7 22  1  0  0  0
  8  9  1  0  0  0
  8 23  1  0  0  0
  8 24  1  0  0  0
  9 10  1  0  0  0
  9 11  1  0  0  0
  9 25  1  0  0  0
 10 26  1  0  0  0
 11 12  1  0  0  0
 11 27  1  0  0  0
 12 28  1  0  0  0
M  CHG  1   4   1
M  END
> <s_m_source_file>
../2ww2_ligand.sdf

> <i_m_source_file_index>
1

> <s_epik_input>
W09IXVtDQEBIXTFbQ0gyXVtDSDJdW0NIMl1bTkBASCtdKFtDQEhdMTIpW0NIMl1bQ0BASF0oW09IXSlbQ0BIXTJbT0hd

> <s_epik_cmdline>
J2VwaWtfYXBwJywgJy1pbWFlJywgJ2xpZ2FuZF9wcm8ubWFlJywgJy1vbWFlJywgJ2xpZ2FuZF9wcmVwLm1hZScsICctbXMnLCAnMScsICctcGgnLCAnNycsICctcGh0JywgJzAuNScsICctbnQn

> <r_lp_tautomer_probability>
1

> <r_epik_Ionization_Penalty>
  0.0008

> <r_epik_Ionization_Penalty_Charging>
  0.0008

> <r_epik_Ionization_Penalty_Neutral>
  0.0000

> <r_epik_State_Penalty>
 -0.0000

> <r_epik_Charging_Adjusted_Penalty>
0.000826370909000464

> <i_epik_Tot_Q>
1

> <i_epik_Tot_abs_Q>
1

$$$$
