2wwj_ligand
                    3D
 Schrodinger Suite 2020-3.
 40 41  0  0  1  0            999 V2000
  -19.7810  -18.4080  -18.9070 C   0  0  0  0  0  0
  -19.7600  -17.0120  -18.7460 C   0  0  0  0  0  0
  -20.5210  -16.3680  -17.7610 C   0  0  0  0  0  0
  -21.3320  -17.1330  -16.9250 C   0  0  0  0  0  0
  -21.3590  -18.5310  -17.0890 C   0  0  0  0  0  0
  -20.5840  -19.1790  -18.0700 C   0  0  0  0  0  0
  -20.6340  -20.5740  -18.2190 C   0  0  0  0  0  0
  -21.9460  -21.2140  -18.1430 O   0  0  0  0  0  0
  -22.7590  -20.9480  -19.2460 C   0  0  0  0  0  0
  -22.2180  -20.6430  -20.4970 C   0  0  0  0  0  0
  -23.0580  -20.3930  -21.5970 C   0  0  0  0  0  0
  -24.1600  -20.9890  -19.1520 C   0  0  0  0  0  0
  -25.0040  -20.7490  -20.2520 C   0  0  0  0  0  0
  -24.4550  -20.4460  -21.5000 C   0  0  0  0  0  0
  -25.3590  -20.1970  -22.7460 C   0  0  0  0  0  0
  -25.6550  -21.5450  -23.5030 C   0  0  2  0  0  0
  -24.6600  -21.8030  -24.6230 C   0  0  0  0  0  0
  -23.4800  -22.0650  -24.2950 O   0  5  0  0  0  0
  -25.1090  -21.7860  -25.7900 O   0  0  0  0  0  0
  -26.9730  -21.4360  -24.0960 N   0  0  0  0  0  0
  -28.0400  -21.4240  -23.3140 C   0  0  0  0  0  0
  -27.9430  -21.5990  -22.0980 O   0  0  0  0  0  0
  -29.4420  -21.1610  -23.9150 C   0  0  0  0  0  0
  -29.5660  -21.0060  -25.1690 O   0  5  0  0  0  0
  -30.3870  -21.1120  -23.0800 O   0  0  0  0  0  0
  -19.1751  -18.8824  -19.6790 H   0  0  0  0  0  0
  -19.1335  -16.4126  -19.4066 H   0  0  0  0  0  0
  -20.4791  -15.2844  -17.6504 H   0  0  0  0  0  0
  -21.9373  -16.6555  -16.1545 H   0  0  0  0  0  0
  -21.9977  -19.1285  -16.4384 H   0  0  0  0  0  0
  -20.2314  -20.8522  -19.2041 H   0  0  0  0  0  0
  -20.0327  -21.0489  -17.4298 H   0  0  0  0  0  0
  -21.1361  -20.5984  -20.6218 H   0  0  0  0  0  0
  -22.6065  -20.1495  -22.5588 H   0  0  0  0  0  0
  -24.6122  -21.2162  -18.1866 H   0  0  0  0  0  0
  -26.0860  -20.7995  -20.1302 H   0  0  0  0  0  0
  -26.3135  -19.7551  -22.4240 H   0  0  0  0  0  0
  -24.8503  -19.5080  -23.4363 H   0  0  0  0  0  0
  -25.6356  -22.4049  -22.8173 H   0  0  0  0  0  0
  -27.0804  -21.3640  -25.1884 H   0  0  0  0  0  0
  1  2  2  0  0  0
  1  6  1  0  0  0
  1 26  1  0  0  0
  2  3  1  0  0  0
  2 27  1  0  0  0
  3  4  2  0  0  0
  3 28  1  0  0  0
  4  5  1  0  0  0
  4 29  1  0  0  0
  5  6  2  0  0  0
  5 30  1  0  0  0
  6  7  1  0  0  0
  7  8  1  0  0  0
  7 31  1  0  0  0
  7 32  1  0  0  0
  8  9  1  0  0  0
  9 10  2  0  0  0
  9 12  1  0  0  0
 10 11  1  0  0  0
 10 33  1  0  0  0
 11 14  2  0  0  0
 11 34  1  0  0  0
 12 13  2  0  0  0
 12 35  1  0  0  0
 13 14  1  0  0  0
 13 36  1  0  0  0
 14 15  1  0  0  0
 15 16  1  0  0  0
 15 37  1  0  0  0
 15 38  1  0  0  0
 16 17  1  0  0  0
 16 20  1  0  0  0
 16 39  1  0  0  0
 17 18  1  0  0  0
 17 19  2  0  0  0
 20 21  1  0  0  0
 20 40  1  0  0  0
 21 22  2  0  0  0
 21 23  1  0  0  0
 23 24  1  0  0  0
 23 25  2  0  0  0
M  CHG  2  18  -1  24  -1
M  END
> <s_m_source_file>
../2wwj_ligand.sdf

> <i_m_source_file_index>
1

> <s_epik_input>
W2NIXTFbY0hdW2NIXVtjSF1bY0hdYzFbQ0gyXU9jMltjSF1bY0hdYyhbY0hdW2NIXTIpW0NIMl1bQ0BIXShDKD1PKVtPSF0pW05IXUMoPU8pQyg9TylbT0hd

> <s_epik_cmdline>
J2VwaWtfYXBwJywgJy1pbWFlJywgJ2xpZ2FuZF9wcm8ubWFlJywgJy1vbWFlJywgJ2xpZ2FuZF9wcmVwLm1hZScsICctbXMnLCAnMScsICctcGgnLCAnNycsICctcGh0JywgJzAuNScsICctbnQn

> <r_lp_tautomer_probability>
1

> <r_epik_Ionization_Penalty>
  0.0005

> <r_epik_Ionization_Penalty_Charging>
  0.0005

> <r_epik_Ionization_Penalty_Neutral>
  0.0000

> <r_epik_State_Penalty>
 -0.0000

> <r_epik_Charging_Adjusted_Penalty>
0.000494333168452475

> <i_epik_Tot_Q>
-2

> <i_epik_Tot_abs_Q>
2

$$$$
