2wxd_ligand
                    3D
 Schrodinger Suite 2020-3.
 38 38  0  0  1  0            999 V2000
   48.4250  115.6210   46.7350 O   0  0  0  0  0  0
   47.9040  116.9280   46.7210 S   0  0  0  0  0  0
   46.5110  116.9750   46.1670 O   0  5  0  0  0  0
   48.7180  117.9040   45.9910 O   0  0  0  0  0  0
   47.7430  117.6640   48.1600 O   0  0  0  0  0  0
   46.8930  118.7250   48.2070 N   0  0  0  0  0  0
   47.0640  119.6010   49.1030 C   0  0  0  0  0  0
   48.3910  119.3700   50.1930 S   0  0  0  0  0  0
   48.2930  119.8600   51.9440 C   0  0  0  0  0  0
   47.7810  121.2840   52.1280 C   0  0  0  0  0  0
   48.4010  122.2200   53.1180 N   0  3  0  0  0  0
   48.3140  121.7680   54.5400 C   0  0  0  0  0  0
   47.6230  123.4760   53.0240 C   0  0  0  0  0  0
   46.0100  120.7230   48.9760 C   0  0  0  0  0  0
   46.5720  121.9730   48.3900 C   0  0  0  0  0  0
   46.4560  123.2070   49.0010 C   0  0  0  0  0  0
   47.1160  124.3010   48.5570 C   0  0  0  0  0  0
   47.9140  124.1810   47.4230 C   0  0  0  0  0  0
   48.0620  122.9620   46.8280 C   0  0  0  0  0  0
   47.4340  121.8210   47.3120 C   0  0  0  0  0  0
   47.6076  119.1839   52.4761 H   0  0  0  0  0  0
   49.2931  119.8000   52.3981 H   0  0  0  0  0  0
   47.8704  121.8314   51.1781 H   0  0  0  0  0  0
   46.7259  121.2571   52.4378 H   0  0  0  0  0  0
   49.4696  122.3150   52.8748 H   0  0  0  0  0  0
   48.8796  120.8325   54.6626 H   0  0  0  0  0  0
   47.2606  121.5973   54.8067 H   0  0  0  0  0  0
   48.7379  122.5416   55.1972 H   0  0  0  0  0  0
   47.6562  123.8514   51.9906 H   0  0  0  0  0  0
   48.0560  124.2271   53.7011 H   0  0  0  0  0  0
   46.5787  123.2827   53.3105 H   0  0  0  0  0  0
   45.1901  120.3839   48.3258 H   0  0  0  0  0  0
   45.6115  120.9662   49.9720 H   0  0  0  0  0  0
   45.8088  123.3023   49.8729 H   0  0  0  0  0  0
   47.0249  125.2553   49.0757 H   0  0  0  0  0  0
   48.4180  125.0560   47.0125 H   0  0  0  0  0  0
   48.6939  122.8806   45.9436 H   0  0  0  0  0  0
   47.6112  120.8439   46.8627 H   0  0  0  0  0  0
  1  2  2  0  0  0
  2  3  1  0  0  0
  2  4  2  0  0  0
  2  5  1  0  0  0
  5  6  1  0  0  0
  6  7  2  0  0  0
  7  8  1  0  0  0
  7 14  1  0  0  0
  8  9  1  0  0  0
  9 10  1  0  0  0
  9 21  1  0  0  0
  9 22  1  0  0  0
 10 11  1  0  0  0
 10 23  1  0  0  0
 10 24  1  0  0  0
 11 12  1  0  0  0
 11 13  1  0  0  0
 11 25  1  0  0  0
 12 26  1  0  0  0
 12 27  1  0  0  0
 12 28  1  0  0  0
 13 29  1  0  0  0
 13 30  1  0  0  0
 13 31  1  0  0  0
 14 15  1  0  0  0
 14 32  1  0  0  0
 14 33  1  0  0  0
 15 16  2  0  0  0
 15 20  1  0  0  0
 16 17  1  0  0  0
 16 34  1  0  0  0
 17 18  2  0  0  0
 17 35  1  0  0  0
 18 19  1  0  0  0
 18 36  1  0  0  0
 19 20  2  0  0  0
 19 37  1  0  0  0
 20 38  1  0  0  0
M  CHG  2   3  -1  11   1
M  END
> <s_m_source_file>
../2wxd_ligand.sdf

> <i_m_source_file_index>
1

> <s_epik_input>
W0NIM11bTkgrXShbQ0gzXSlbQ0gyXVtDSDJdUy9DKD1OXE9TKD1PKSg9TylbT0hdKVtDSDJdYzFbY0hdW2NIXVtjSF1bY0hdW2NIXTE=

> <s_epik_cmdline>
J2VwaWtfYXBwJywgJy1pbWFlJywgJ2xpZ2FuZF9wcm8ubWFlJywgJy1vbWFlJywgJ2xpZ2FuZF9wcmVwLm1hZScsICctbXMnLCAnMScsICctcGgnLCAnNycsICctcGh0JywgJzAuNScsICctbnQn

> <r_epik_Ionization_Penalty>
  0.0232

> <r_epik_Ionization_Penalty_Charging>
  0.0232

> <r_epik_Ionization_Penalty_Neutral>
  0.0000

> <r_epik_State_Penalty>
  0.0188

> <r_epik_Charging_Adjusted_Penalty>
0.0420555365029266

> <i_epik_Tot_Q>
0

> <i_epik_Tot_abs_Q>
2

> <s_epik_Chemistry_Notes>
This compound has an imine and may undergo hydrolysis.

$$$$
