2wxf_ligand
                    3D
 Schrodinger Suite 2020-3.
 46 50  0  0  1  0            999 V2000
   -2.3240   -2.1270   24.7810 C   0  0  0  0  0  0
   -3.3890   -1.8100   23.8370 O   0  0  0  0  0  0
   -4.0460   -2.9650   23.6980 C   0  0  0  0  0  0
   -3.7200   -4.1220   24.4530 C   0  0  0  0  0  0
   -4.4650   -5.2750   24.2260 C   0  0  0  0  0  0
   -5.4940   -5.3170   23.2680 C   0  0  0  0  0  0
   -5.7870   -4.1700   22.5440 C   0  0  0  0  0  0
   -5.0450   -2.9990   22.7830 C   0  0  0  0  0  0
   -5.4260   -1.8730   22.0030 N   0  0  0  0  0  0
   -4.8380   -1.6660   20.7800 C   0  0  0  0  0  0
   -3.9150   -2.4190   20.5000 O   0  0  0  0  0  0
   -5.2610   -0.5990   19.9690 C   0  0  0  0  0  0
   -4.6890   -0.2990   18.7210 C   0  0  0  0  0  0
   -3.3900   -1.1920   18.0070 Cl  0  0  0  0  0  0
   -5.1640    0.7740   17.9680 C   0  0  0  0  0  0
   -6.2100    1.5330   18.4570 C   0  0  0  0  0  0
   -6.8020    1.2600   19.6930 C   0  0  0  0  0  0
   -6.3210    0.1860   20.4560 C   0  0  0  0  0  0
   -6.8800   -0.0700   21.6540 N   0  0  0  0  0  0
   -6.4760   -1.0990   22.4200 C   0  0  0  0  0  0
   -7.1170   -1.4000   23.7750 C   0  0  0  0  0  0
   -8.1410    0.0030   24.3990 S   0  0  0  0  0  0
   -6.8810    1.0830   25.0350 C   0  0  0  0  0  0
   -7.3490    2.2800   25.5610 C   0  0  0  0  0  0
   -8.5830    2.7610   25.6980 N   0  0  0  0  0  0
   -8.4530    3.9680   26.3010 C   0  0  0  0  0  0
   -7.1760    4.2230   26.5190 N   0  3  0  0  0  0
   -6.4530    3.1890   26.0820 C   0  0  0  0  0  0
   -5.1270    2.9090   26.0870 N   0  0  0  0  0  0
   -4.6880    1.7640   25.5480 C   0  0  0  0  0  0
   -5.5590    0.8560   25.0410 N   0  0  0  0  0  0
   -1.7171   -1.2281   24.9645 H   0  0  0  0  0  0
   -1.6871   -2.9202   24.3624 H   0  0  0  0  0  0
   -2.7643   -2.4719   25.7282 H   0  0  0  0  0  0
   -2.9133   -4.1077   25.1859 H   0  0  0  0  0  0
   -4.2451   -6.1708   24.8068 H   0  0  0  0  0  0
   -6.0530   -6.2369   23.0968 H   0  0  0  0  0  0
   -6.5826   -4.1763   21.7990 H   0  0  0  0  0  0
   -4.7149    1.0116   17.0037 H   0  0  0  0  0  0
   -6.5833    2.3670   17.8627 H   0  0  0  0  0  0
   -7.6258    1.8729   20.0589 H   0  0  0  0  0  0
   -7.7690   -2.2813   23.6845 H   0  0  0  0  0  0
   -6.3298   -1.6009   24.5165 H   0  0  0  0  0  0
   -9.2785    4.6287   26.5660 H   0  0  0  0  0  0
   -3.6178    1.5594   25.5164 H   0  0  0  0  0  0
   -6.8772    5.1701   26.9921 H   0  0  0  0  0  0
  1  2  1  0  0  0
  1 32  1  0  0  0
  1 33  1  0  0  0
  1 34  1  0  0  0
  2  3  1  0  0  0
  3  4  2  0  0  0
  3  8  1  0  0  0
  4  5  1  0  0  0
  4 35  1  0  0  0
  5  6  2  0  0  0
  5 36  1  0  0  0
  6  7  1  0  0  0
  6 37  1  0  0  0
  7  8  2  0  0  0
  7 38  1  0  0  0
  8  9  1  0  0  0
  9 10  1  0  0  0
  9 20  1  0  0  0
 10 11  2  0  0  0
 10 12  1  0  0  0
 12 13  2  0  0  0
 12 18  1  0  0  0
 13 14  1  0  0  0
 13 15  1  0  0  0
 15 16  2  0  0  0
 15 39  1  0  0  0
 16 17  1  0  0  0
 16 40  1  0  0  0
 17 18  2  0  0  0
 17 41  1  0  0  0
 18 19  1  0  0  0
 19 20  2  0  0  0
 20 21  1  0  0  0
 21 22  1  0  0  0
 21 42  1  0  0  0
 21 43  1  0  0  0
 22 23  1  0  0  0
 23 24  2  0  0  0
 23 31  1  0  0  0
 24 25  1  0  0  0
 24 28  1  0  0  0
 25 26  2  0  0  0
 26 27  1  0  0  0
 26 44  1  0  0  0
 27 28  2  0  0  0
 27 46  1  0  0  0
 28 29  1  0  0  0
 29 30  1  0  0  0
 30 31  2  0  0  0
 30 45  1  0  0  0
M  CHG  1  27   1
M  END
> <s_m_source_file>
../2wxf_ligand.sdf

> <i_m_source_file_index>
1

> <s_epik_input>
W0NIM11PYzFbY0hdW2NIXVtjSF1bY0hdYzEtbihjMj1PKWMobmMoYzIzKVtjSF1bY0hdW2NIXWMzQ2wpW0NIMl1TYzRuW2NIXVtuSF1jKGM0NSluW2NIXW41

> <s_epik_cmdline>
J2VwaWtfYXBwJywgJy1pbWFlJywgJ2xpZ2FuZF9wcm8ubWFlJywgJy1vbWFlJywgJ2xpZ2FuZF9wcmVwLm1hZScsICctbXMnLCAnMScsICctcGgnLCAnNycsICctcGh0JywgJzAuNScsICctbnQn

> <r_lp_tautomer_probability>
1

> <r_epik_Ionization_Penalty>
  0.0008

> <r_epik_Ionization_Penalty_Charging>
  0.0000

> <r_epik_Ionization_Penalty_Neutral>
  0.0008

> <r_epik_State_Penalty>
 -0.0000

> <r_epik_Charging_Adjusted_Penalty>
4.9427230660815e-11

> <i_epik_Tot_Q>
1

> <i_epik_Tot_abs_Q>
1

$$$$
