2wxh_ligand
                    3D
 Schrodinger Suite 2020-3.
 60 65  0  0  1  0            999 V2000
   -3.3030  -33.6830   23.9610 C   0  0  0  0  0  0
   -4.0530  -34.9750   23.8390 C   0  0  0  0  0  0
   -3.6970  -36.0840   24.6400 C   0  0  0  0  0  0
   -4.4230  -37.2630   24.5140 C   0  0  0  0  0  0
   -5.4900  -37.3720   23.6190 C   0  0  0  0  0  0
   -5.8460  -36.2650   22.8470 C   0  0  0  0  0  0
   -5.1050  -35.0700   22.9700 C   0  0  0  0  0  0
   -5.5130  -33.9960   22.1490 N   0  0  0  0  0  0
   -4.9440  -33.8550   20.8740 C   0  0  0  0  0  0
   -4.0310  -34.6410   20.5680 O   0  0  0  0  0  0
   -5.3750  -32.7980   20.0500 C   0  0  0  0  0  0
   -4.8390  -32.5590   18.7580 C   0  0  0  0  0  0
   -3.7060  -33.4080   18.1300 C   0  0  0  0  0  0
   -5.3320  -31.4910   18.0030 C   0  0  0  0  0  0
   -6.3610  -30.6940   18.4660 C   0  0  0  0  0  0
   -6.8990  -30.9400   19.7380 C   0  0  0  0  0  0
   -6.4110  -31.9800   20.5240 C   0  0  0  0  0  0
   -6.9690  -32.1690   21.7520 N   0  0  0  0  0  0
   -6.5410  -33.1750   22.5490 C   0  0  0  0  0  0
   -7.1760  -33.3710   23.9380 C   0  0  0  0  0  0
   -7.6400  -32.0110   24.3330 N   0  0  0  0  0  0
   -8.7820  -31.5840   24.0580 N   0  0  0  0  0  0
   -6.9020  -31.1290   25.0000 C   0  0  0  0  0  0
   -5.6290  -31.1670   25.4610 N   0  0  0  0  0  0
   -5.1170  -30.1030   26.0750 C   0  0  0  0  0  0
   -5.9100  -29.0170   26.2390 N   0  0  0  0  0  0
   -7.1450  -28.9130   25.8000 C   0  0  0  0  0  0
   -7.8640  -27.7890   26.0190 N   0  0  0  0  0  0
   -7.7070  -30.0010   25.1410 C   0  0  0  0  0  0
   -8.9310  -30.3270   24.5270 C   0  0  0  0  0  0
  -10.1560  -29.6760   24.3110 C   0  0  0  0  0  0
  -10.5920  -29.6240   22.9680 C   0  0  0  0  0  0
  -11.8340  -29.0500   22.7240 C   0  0  0  0  0  0
  -12.3530  -28.9310   21.4800 F   0  0  0  0  0  0
  -12.5900  -28.5530   23.7620 C   0  0  0  0  0  0
  -13.7610  -27.9970   23.4750 O   0  0  0  0  0  0
  -12.1850  -28.5800   25.0680 C   0  0  0  0  0  0
  -10.9580  -29.1760   25.3180 C   0  0  0  0  0  0
   -2.4974  -33.7952   24.7016 H   0  0  0  0  0  0
   -3.9914  -32.8887   24.2854 H   0  0  0  0  0  0
   -2.8698  -33.4170   22.9855 H   0  0  0  0  0  0
   -2.8678  -36.0160   25.3442 H   0  0  0  0  0  0
   -4.1533  -38.1223   25.1279 H   0  0  0  0  0  0
   -6.0376  -38.3097   23.5247 H   0  0  0  0  0  0
   -6.6874  -36.3227   22.1564 H   0  0  0  0  0  0
   -3.4170  -34.2076   18.8280 H   0  0  0  0  0  0
   -2.8361  -32.7660   17.9274 H   0  0  0  0  0  0
   -4.0603  -33.8534   17.1886 H   0  0  0  0  0  0
   -4.8946  -31.2822   17.0267 H   0  0  0  0  0  0
   -6.7504  -29.8834   17.8501 H   0  0  0  0  0  0
   -7.7061  -30.3113   20.1141 H   0  0  0  0  0  0
   -8.0111  -34.0829   23.8622 H   0  0  0  0  0  0
   -6.4208  -33.7646   24.6342 H   0  0  0  0  0  0
   -4.0884  -30.1053   26.4358 H   0  0  0  0  0  0
   -7.4061  -26.9363   26.5417 H   0  0  0  0  0  0
   -8.9068  -27.7273   25.6745 H   0  0  0  0  0  0
   -9.9796  -30.0178   22.1568 H   0  0  0  0  0  0
  -14.1122  -27.9611   22.4332 H   0  0  0  0  0  0
  -12.7927  -28.1567   25.8678 H   0  0  0  0  0  0
  -10.6133  -29.2528   26.3492 H   0  0  0  0  0  0
  1  2  1  0  0  0
  1 39  1  0  0  0
  1 40  1  0  0  0
  1 41  1  0  0  0
  2  3  2  0  0  0
  2  7  1  0  0  0
  3  4  1  0  0  0
  3 42  1  0  0  0
  4  5  2  0  0  0
  4 43  1  0  0  0
  5  6  1  0  0  0
  5 44  1  0  0  0
  6  7  2  0  0  0
  6 45  1  0  0  0
  7  8  1  0  0  0
  8  9  1  0  0  0
  8 19  1  0  0  0
  9 10  2  0  0  0
  9 11  1  0  0  0
 11 12  2  0  0  0
 11 17  1  0  0  0
 12 13  1  0  0  0
 12 14  1  0  0  0
 13 46  1  0  0  0
 13 47  1  0  0  0
 13 48  1  0  0  0
 14 15  2  0  0  0
 14 49  1  0  0  0
 15 16  1  0  0  0
 15 50  1  0  0  0
 16 17  2  0  0  0
 16 51  1  0  0  0
 17 18  1  0  0  0
 18 19  2  0  0  0
 19 20  1  0  0  0
 20 21  1  0  0  0
 20 52  1  0  0  0
 20 53  1  0  0  0
 21 22  1  0  0  0
 21 23  1  0  0  0
 22 30  2  0  0  0
 23 24  1  0  0  0
 23 29  2  0  0  0
 24 25  2  0  0  0
 25 26  1  0  0  0
 25 54  1  0  0  0
 26 27  2  0  0  0
 27 28  1  0  0  0
 27 29  1  0  0  0
 28 55  1  0  0  0
 28 56  1  0  0  0
 29 30  1  0  0  0
 30 31  1  0  0  0
 31 32  2  0  0  0
 31 38  1  0  0  0
 32 33  1  0  0  0
 32 57  1  0  0  0
 33 34  1  0  0  0
 33 35  2  0  0  0
 35 36  1  0  0  0
 35 37  1  0  0  0
 36 58  1  0  0  0
 37 38  2  0  0  0
 37 59  1  0  0  0
 38 60  1  0  0  0
M  END
> <s_m_source_file>
../2wxh_ligand.sdf

> <i_m_source_file_index>
1

> <s_epik_input>
W0NIM11jMVtjSF1bY0hdW2NIXVtjSF1jMS1uKGMyPU8pYyhuYyhjMjMpW2NIXVtjSF1bY0hdYzNbQ0gzXSlbQ0gyXW40bmMoYyhjNDUpYyhbTkgyXSluW2NIXW41KS1jNltjSF1jKEYpYyhbT0hdKVtjSF1bY0hdNg==

> <s_epik_cmdline>
J2VwaWtfYXBwJywgJy1pbWFlJywgJ2xpZ2FuZF9wcm8ubWFlJywgJy1vbWFlJywgJ2xpZ2FuZF9wcmVwLm1hZScsICctbXMnLCAnMScsICctcGgnLCAnNycsICctcGh0JywgJzAuNScsICctbnQn

> <r_lp_tautomer_probability>
0.999999999997365

> <r_epik_Ionization_Penalty>
  0.0255

> <r_epik_Ionization_Penalty_Charging>
  0.0000

> <r_epik_Ionization_Penalty_Neutral>
  0.0255

> <r_epik_State_Penalty>
  0.0196

> <r_epik_Charging_Adjusted_Penalty>
0.0195909706719617

> <i_epik_Tot_Q>
0

> <i_epik_Tot_abs_Q>
0

$$$$
