2wxj_ligand
                    3D
 Schrodinger Suite 2020-3.
 70 76  0  0  1  0            999 V2000
   -3.7220  -35.7710   23.5660 C   0  0  0  0  0  0
   -2.7670  -35.9520   24.7100 C   0  0  0  0  0  0
   -1.4140  -35.8510   24.2410 N   0  3  0  0  0  0
   -0.5100  -36.0570   25.3540 C   0  0  0  0  0  0
   -1.1770  -34.5160   23.7890 C   0  0  0  0  0  0
   -2.0400  -34.1870   22.6130 C   0  0  0  0  0  0
   -3.3980  -34.5860   22.8120 N   0  0  0  0  0  0
   -4.2900  -33.8660   22.1230 C   0  0  0  0  0  0
   -3.9150  -33.5890   20.8980 N   0  0  0  0  0  0
   -4.6400  -32.8670   20.0580 C   0  0  0  0  0  0
   -4.2150  -32.5920   18.7750 C   0  0  0  0  0  0
   -4.9650  -31.8210   17.9220 C   0  0  0  0  0  0
   -6.1580  -31.3280   18.3470 C   0  0  0  0  0  0
   -6.5800  -31.6050   19.6150 C   0  0  0  0  0  0
   -5.8240  -32.3670   20.4710 C   0  0  0  0  0  0
   -6.2400  -32.6400   21.7340 C   0  0  0  0  0  0
   -5.4760  -33.3900   22.6040 C   0  0  0  0  0  0
   -6.0490  -33.5880   23.9980 C   0  0  0  0  0  0
   -6.6520  -32.3230   24.4460 N   0  0  0  0  0  0
   -7.8040  -32.0440   24.2510 N   0  0  0  0  0  0
   -6.0640  -31.3560   25.0500 C   0  0  0  0  0  0
   -4.8410  -31.1960   25.4620 N   0  0  0  0  0  0
   -4.4730  -30.1130   26.0630 C   0  0  0  0  0  0
   -5.2870  -29.1490   26.2810 N   0  0  0  0  0  0
   -6.5180  -29.2330   25.9040 C   0  0  0  0  0  0
   -7.2360  -28.2130   26.1890 N   0  0  0  0  0  0
   -6.9770  -30.3760   25.2630 C   0  0  0  0  0  0
   -8.1310  -30.8700   24.6830 C   0  0  0  0  0  0
   -9.4260  -30.3630   24.5890 C   0  0  0  0  0  0
  -10.2780  -30.6480   23.5400 C   0  0  0  0  0  0
   -9.9450  -29.6130   25.5820 C   0  0  0  0  0  0
  -11.2170  -29.1400   25.5240 C   0  0  0  0  0  0
  -12.0440  -29.4030   24.4930 C   0  0  0  0  0  0
  -13.2850  -29.0130   24.3420 N   0  0  0  0  0  0
  -11.5810  -30.1660   23.4630 C   0  0  0  0  0  0
  -12.8390  -30.2800   22.4170 S   0  0  0  0  0  0
  -13.8520  -29.4250   23.2530 C   0  0  0  0  0  0
  -15.0740  -29.1100   22.9450 N   0  0  0  0  0  0
  -15.4920  -29.5890   21.8220 C   0  0  0  0  0  0
  -16.8860  -29.2460   21.3860 C   0  0  0  0  0  0
  -14.7740  -30.2940   21.1760 O   0  0  0  0  0  0
   -3.6638  -36.6433   22.8983 H   0  0  0  0  0  0
   -4.7464  -35.6748   23.9552 H   0  0  0  0  0  0
   -2.9474  -35.1726   25.4650 H   0  0  0  0  0  0
   -2.9201  -36.9430   25.1622 H   0  0  0  0  0  0
   -1.2628  -36.5842   23.4351 H   0  0  0  0  0  0
   -0.6431  -37.0742   25.7510 H   0  0  0  0  0  0
   -0.7282  -35.3235   26.1442 H   0  0  0  0  0  0
    0.5277  -35.9298   25.0119 H   0  0  0  0  0  0
   -1.4024  -33.8086   24.6007 H   0  0  0  0  0  0
   -0.1228  -34.4107   23.4932 H   0  0  0  0  0  0
   -2.0248  -33.1009   22.4395 H   0  0  0  0  0  0
   -1.6584  -34.7061   21.7214 H   0  0  0  0  0  0
   -3.2628  -32.9957   18.4308 H   0  0  0  0  0  0
   -4.6076  -31.6066   16.9148 H   0  0  0  0  0  0
   -6.7707  -30.7184   17.6829 H   0  0  0  0  0  0
   -7.5382  -31.2127   19.9556 H   0  0  0  0  0  0
   -7.2034  -32.2564   22.0697 H   0  0  0  0  0  0
   -6.8147  -34.3773   23.9710 H   0  0  0  0  0  0
   -5.2436  -33.8820   24.6872 H   0  0  0  0  0  0
   -3.4390  -30.0172   26.3942 H   0  0  0  0  0  0
   -6.7859  -27.3490   26.6998 H   0  0  0  0  0  0
   -8.3033  -28.2001   25.9232 H   0  0  0  0  0  0
   -9.9116  -31.2819   22.7325 H   0  0  0  0  0  0
   -9.3297  -29.3809   26.4513 H   0  0  0  0  0  0
  -11.5835  -28.5229   26.3443 H   0  0  0  0  0  0
  -15.6672  -28.4796   23.6237 H   0  0  0  0  0  0
  -17.3528  -28.5885   22.1342 H   0  0  0  0  0  0
  -17.4772  -30.1685   21.2887 H   0  0  0  0  0  0
  -16.8500  -28.7295   20.4154 H   0  0  0  0  0  0
  1  2  1  0  0  0
  1  7  1  0  0  0
  1 42  1  0  0  0
  1 43  1  0  0  0
  2  3  1  0  0  0
  2 44  1  0  0  0
  2 45  1  0  0  0
  3  4  1  0  0  0
  3  5  1  0  0  0
  3 46  1  0  0  0
  4 47  1  0  0  0
  4 48  1  0  0  0
  4 49  1  0  0  0
  5  6  1  0  0  0
  5 50  1  0  0  0
  5 51  1  0  0  0
  6  7  1  0  0  0
  6 52  1  0  0  0
  6 53  1  0  0  0
  7  8  1  0  0  0
  8  9  2  0  0  0
  8 17  1  0  0  0
  9 10  1  0  0  0
 10 11  2  0  0  0
 10 15  1  0  0  0
 11 12  1  0  0  0
 11 54  1  0  0  0
 12 13  2  0  0  0
 12 55  1  0  0  0
 13 14  1  0  0  0
 13 56  1  0  0  0
 14 15  2  0  0  0
 14 57  1  0  0  0
 15 16  1  0  0  0
 16 17  2  0  0  0
 16 58  1  0  0  0
 17 18  1  0  0  0
 18 19  1  0  0  0
 18 59  1  0  0  0
 18 60  1  0  0  0
 19 20  1  0  0  0
 19 21  1  0  0  0
 20 28  2  0  0  0
 21 22  1  0  0  0
 21 27  2  0  0  0
 22 23  2  0  0  0
 23 24  1  0  0  0
 23 61  1  0  0  0
 24 25  2  0  0  0
 25 26  1  0  0  0
 25 27  1  0  0  0
 26 62  1  0  0  0
 26 63  1  0  0  0
 27 28  1  0  0  0
 28 29  1  0  0  0
 29 30  1  0  0  0
 29 31  2  0  0  0
 30 35  2  0  0  0
 30 64  1  0  0  0
 31 32  1  0  0  0
 31 65  1  0  0  0
 32 33  2  0  0  0
 32 66  1  0  0  0
 33 34  1  0  0  0
 33 35  1  0  0  0
 34 37  2  0  0  0
 35 36  1  0  0  0
 36 37  1  0  0  0
 37 38  1  0  0  0
 38 39  1  0  0  0
 38 67  1  0  0  0
 39 40  1  0  0  0
 39 41  2  0  0  0
 40 68  1  0  0  0
 40 69  1  0  0  0
 40 70  1  0  0  0
M  CHG  1   3   1
M  END
> <s_m_source_file>
../2wxj_ligand.sdf

> <i_m_source_file_index>
1

> <s_epik_input>
W0NIM11bTkgrXTFbQ0gyXVtDSDJdTihbQ0gyXVtDSDJdMSljKG4yKWMoW2NIXWMoYzIzKVtjSF1bY0hdW2NIXVtjSF0zKVtDSDJdbjRuYyhjKGM0NSljKFtOSDJdKW5bY0hdbjUpLWMoW2NIXVtjSF02KVtjSF1jKGM2NylzYyhuNylbTkhdQyg9TylbQ0gzXQ==

> <s_epik_cmdline>
J2VwaWtfYXBwJywgJy1pbWFlJywgJ2xpZ2FuZF9wcm8ubWFlJywgJy1vbWFlJywgJ2xpZ2FuZF9wcmVwLm1hZScsICctbXMnLCAnMScsICctcGgnLCAnNycsICctcGh0JywgJzAuNScsICctbnQn

> <r_lp_tautomer_probability>
1

> <r_epik_Ionization_Penalty>
  0.0769

> <r_epik_Ionization_Penalty_Charging>
  0.0736

> <r_epik_Ionization_Penalty_Neutral>
  0.0033

> <r_epik_State_Penalty>
 -0.0000

> <r_epik_Charging_Adjusted_Penalty>
0.0735834844203624

> <i_epik_Tot_Q>
1

> <i_epik_Tot_abs_Q>
1

$$$$
