2wxk_ligand
                    3D
 Schrodinger Suite 2020-3.
 65 71  0  0  1  0            999 V2000
   13.5220   -1.6130   23.1580 C   0  0  0  0  0  0
   14.0270   -0.8820   24.4470 C   0  0  0  0  0  0
   15.5460   -1.0440   24.4290 N   0  3  0  0  0  0
   16.0400   -0.6250   23.0450 C   0  0  0  0  0  0
   15.9520   -2.5120   24.7130 C   0  0  0  0  0  0
   15.5480   -3.3880   23.5030 C   0  0  0  0  0  0
   14.1980   -2.9730   22.9890 N   0  0  0  0  0  0
   13.5050   -3.9130   22.2230 C   0  0  0  0  0  0
   13.2070   -3.5350   20.9430 N   0  0  0  0  0  0
   12.5550   -4.3940   20.1250 C   0  0  0  0  0  0
   12.2560   -3.9550   18.8170 C   0  0  0  0  0  0
   11.5610   -4.8420   17.9650 C   0  0  0  0  0  0
   11.1710   -6.1440   18.4420 C   0  0  0  0  0  0
   11.4600   -6.5730   19.7630 C   0  0  0  0  0  0
   12.1680   -5.6880   20.6010 C   0  0  0  0  0  0
   12.4650   -6.0830   21.9130 C   0  0  0  0  0  0
   13.1460   -5.1830   22.7380 C   0  0  0  0  0  0
   13.4360   -5.6390   24.1580 C   0  0  0  0  0  0
   12.1780   -6.3350   24.5620 N   0  0  0  0  0  0
   11.9840   -7.5600   24.3800 N   0  0  0  0  0  0
   11.0990   -5.7410   25.1300 C   0  0  0  0  0  0
   10.8200   -4.4800   25.4920 N   0  0  0  0  0  0
    9.6270   -4.1940   26.0470 C   0  0  0  0  0  0
    8.6780   -5.1140   26.2540 N   0  0  0  0  0  0
    8.9360   -6.4040   25.9220 C   0  0  0  0  0  0
    7.9920   -7.3270   26.1190 N   0  0  0  0  0  0
   10.1530   -6.7320   25.3450 C   0  0  0  0  0  0
   10.7410   -7.8650   24.8440 C   0  0  0  0  0  0
   10.1560   -9.1140   24.8280 C   0  0  0  0  0  0
   10.5060   -9.9740   23.7860 C   0  0  0  0  0  0
    9.9620  -11.2320   23.7640 C   0  0  0  0  0  0
   10.1890  -12.5350   22.6460 S   0  0  0  0  0  0
    9.0890  -13.5920   23.4840 C   0  0  0  0  0  0
    8.8020  -14.8320   23.0870 N   0  0  0  0  0  0
    8.5860  -12.9680   24.5710 N   0  0  0  0  0  0
    9.0400  -11.6860   24.7540 C   0  0  0  0  0  0
    8.7000  -10.8100   25.7900 C   0  0  0  0  0  0
    9.2690   -9.5220   25.8250 C   0  0  0  0  0  0
   12.4353   -1.7689   23.2269 H   0  0  0  0  0  0
   13.7489   -0.9977   22.2748 H   0  0  0  0  0  0
   13.7325    0.1771   24.4070 H   0  0  0  0  0  0
   13.5803   -1.3535   25.3348 H   0  0  0  0  0  0
   15.9911   -0.4063   25.2069 H   0  0  0  0  0  0
   15.7478    0.4177   22.8515 H   0  0  0  0  0  0
   15.5920   -1.2789   22.2823 H   0  0  0  0  0  0
   17.1358   -0.7122   23.0049 H   0  0  0  0  0  0
   17.0399   -2.5685   24.8658 H   0  0  0  0  0  0
   15.4359   -2.8668   25.6173 H   0  0  0  0  0  0
   16.2907   -3.2695   22.7003 H   0  0  0  0  0  0
   15.5069   -4.4430   23.8116 H   0  0  0  0  0  0
   12.5520   -2.9632   18.4753 H   0  0  0  0  0  0
   11.3196   -4.5408   16.9456 H   0  0  0  0  0  0
   10.6395   -6.8178   17.7699 H   0  0  0  0  0  0
   11.1451   -7.5542   20.1181 H   0  0  0  0  0  0
   12.1724   -7.0666   22.2804 H   0  0  0  0  0  0
   14.3059   -6.3123   24.1564 H   0  0  0  0  0  0
   13.6515   -4.7631   24.7876 H   0  0  0  0  0  0
    9.4249   -3.1642   26.3416 H   0  0  0  0  0  0
    7.0335   -7.0440   26.5787 H   0  0  0  0  0  0
    8.1726   -8.3705   25.8217 H   0  0  0  0  0  0
   11.1969   -9.6523   23.0067 H   0  0  0  0  0  0
    9.2723  -15.2422   22.1811 H   0  0  0  0  0  0
    8.0949  -15.4449   23.6653 H   0  0  0  0  0  0
    7.9996  -11.1219   26.5648 H   0  0  0  0  0  0
    9.0148   -8.8396   26.6361 H   0  0  0  0  0  0
  1  2  1  0  0  0
  1  7  1  0  0  0
  1 39  1  0  0  0
  1 40  1  0  0  0
  2  3  1  0  0  0
  2 41  1  0  0  0
  2 42  1  0  0  0
  3  4  1  0  0  0
  3  5  1  0  0  0
  3 43  1  0  0  0
  4 44  1  0  0  0
  4 45  1  0  0  0
  4 46  1  0  0  0
  5  6  1  0  0  0
  5 47  1  0  0  0
  5 48  1  0  0  0
  6  7  1  0  0  0
  6 49  1  0  0  0
  6 50  1  0  0  0
  7  8  1  0  0  0
  8  9  2  0  0  0
  8 17  1  0  0  0
  9 10  1  0  0  0
 10 11  2  0  0  0
 10 15  1  0  0  0
 11 12  1  0  0  0
 11 51  1  0  0  0
 12 13  2  0  0  0
 12 52  1  0  0  0
 13 14  1  0  0  0
 13 53  1  0  0  0
 14 15  2  0  0  0
 14 54  1  0  0  0
 15 16  1  0  0  0
 16 17  2  0  0  0
 16 55  1  0  0  0
 17 18  1  0  0  0
 18 19  1  0  0  0
 18 56  1  0  0  0
 18 57  1  0  0  0
 19 20  1  0  0  0
 19 21  1  0  0  0
 20 28  2  0  0  0
 21 22  1  0  0  0
 21 27  2  0  0  0
 22 23  2  0  0  0
 23 24  1  0  0  0
 23 58  1  0  0  0
 24 25  2  0  0  0
 25 26  1  0  0  0
 25 27  1  0  0  0
 26 59  1  0  0  0
 26 60  1  0  0  0
 27 28  1  0  0  0
 28 29  1  0  0  0
 29 30  2  0  0  0
 29 38  1  0  0  0
 30 31  1  0  0  0
 30 61  1  0  0  0
 31 32  1  0  0  0
 31 36  2  0  0  0
 32 33  1  0  0  0
 33 34  1  0  0  0
 33 35  2  0  0  0
 34 62  1  0  0  0
 34 63  1  0  0  0
 35 36  1  0  0  0
 36 37  1  0  0  0
 37 38  2  0  0  0
 37 64  1  0  0  0
 38 65  1  0  0  0
M  CHG  1   3   1
M  END
> <s_m_source_file>
../2wxk_ligand.sdf

> <i_m_source_file_index>
1

> <s_epik_input>
W0NIM11bTkgrXTFbQ0gyXVtDSDJdTihbQ0gyXVtDSDJdMSljKG4yKWMoW2NIXWMoYzIzKVtjSF1bY0hdW2NIXVtjSF0zKVtDSDJdbjRuYyhjKGM0NSljKFtOSDJdKW5bY0hdbjUpLWMoW2NIXTYpW2NIXVtjSF1jKGM2NyluYyhzNylbTkgyXQ==

> <s_epik_cmdline>
J2VwaWtfYXBwJywgJy1pbWFlJywgJ2xpZ2FuZF9wcm8ubWFlJywgJy1vbWFlJywgJ2xpZ2FuZF9wcmVwLm1hZScsICctbXMnLCAnMScsICctcGgnLCAnNycsICctcGh0JywgJzAuNScsICctbnQn

> <r_lp_tautomer_probability>
1

> <r_epik_Ionization_Penalty>
  0.0751

> <r_epik_Ionization_Penalty_Charging>
  0.0736

> <r_epik_Ionization_Penalty_Neutral>
  0.0015

> <r_epik_State_Penalty>
 -0.0000

> <r_epik_Charging_Adjusted_Penalty>
0.0735834844203624

> <i_epik_Tot_Q>
1

> <i_epik_Tot_abs_Q>
1

$$$$
