2wxl_ligand
                    3D
 Schrodinger Suite 2020-3.
 51 55  0  0  1  0            999 V2000
   -7.5110  -28.0780   25.9180 C   0  0  0  0  0  0
   -7.0300  -27.9800   27.3500 C   0  0  0  0  0  0
   -5.5830  -28.2150   27.5130 O   0  0  0  0  0  0
   -5.2460  -29.5300   27.1160 C   0  0  0  0  0  0
   -5.5840  -29.6670   25.6300 C   0  0  0  0  0  0
   -6.9920  -29.3460   25.3590 N   0  0  0  0  0  0
   -7.7880  -30.1570   24.5430 C   0  0  0  0  0  0
   -9.0290  -29.7930   24.1990 N   0  0  0  0  0  0
   -7.2810  -31.3140   24.0760 N   0  0  0  0  0  0
   -8.0340  -32.0800   23.2730 C   0  0  0  0  0  0
   -7.5150  -33.2950   22.8330 N   0  0  0  0  0  0
   -6.1660  -33.7130   23.2380 C   0  0  0  0  0  0
   -6.1750  -35.1530   23.7390 C   0  0  0  0  0  0
   -7.2780  -35.9880   23.2920 O   0  0  0  0  0  0
   -8.5400  -35.4890   22.7600 C   0  0  0  0  0  0
   -8.3580  -34.1780   22.0260 C   0  0  0  0  0  0
   -9.2780  -31.7070   22.9160 N   0  0  0  0  0  0
   -9.7640  -30.5370   23.3770 C   0  0  0  0  0  0
  -10.9950  -30.1820   23.0430 N   0  0  0  0  0  0
  -11.8090  -29.4450   23.7730 C   0  0  0  0  0  0
  -11.6630  -28.7950   24.9980 C   0  0  0  0  0  0
  -12.7350  -28.0540   25.4820 C   0  0  0  0  0  0
  -13.9300  -27.9690   24.7660 C   0  0  0  0  0  0
  -14.0570  -28.6190   23.5370 C   0  0  0  0  0  0
  -12.9940  -29.3580   23.0570 C   0  0  0  0  0  0
  -12.8620  -30.0320   21.9300 N   0  0  0  0  0  0
  -11.6590  -30.5610   21.9540 C   0  0  0  0  0  0
  -11.0970  -31.3580   20.8130 C   0  0  0  0  0  0
  -11.9900  -31.4910   19.8050 F   0  0  0  0  0  0
  -10.2510  -30.4460   20.2820 F   0  0  0  0  0  0
   -8.6108  -28.0719   25.8994 H   0  0  0  0  0  0
   -7.1299  -27.2207   25.3437 H   0  0  0  0  0  0
   -7.2418  -26.9734   27.7398 H   0  0  0  0  0  0
   -7.5521  -28.7284   27.9642 H   0  0  0  0  0  0
   -4.1717  -29.6990   27.2816 H   0  0  0  0  0  0
   -5.8264  -30.2522   27.7089 H   0  0  0  0  0  0
   -4.9544  -28.9796   25.0459 H   0  0  0  0  0  0
   -5.3968  -30.7012   25.3052 H   0  0  0  0  0  0
   -5.4857  -33.6408   22.3766 H   0  0  0  0  0  0
   -5.8061  -33.0582   24.0453 H   0  0  0  0  0  0
   -5.2584  -35.6625   23.4069 H   0  0  0  0  0  0
   -6.2199  -35.1586   24.8381 H   0  0  0  0  0  0
   -8.9579  -36.2245   22.0569 H   0  0  0  0  0  0
   -9.2482  -35.3280   23.5862 H   0  0  0  0  0  0
   -9.3372  -33.7035   21.8648 H   0  0  0  0  0  0
   -7.8744  -34.3599   21.0549 H   0  0  0  0  0  0
  -10.7326  -28.8661   25.5614 H   0  0  0  0  0  0
  -12.6409  -27.5320   26.4342 H   0  0  0  0  0  0
  -14.7651  -27.3945   25.1668 H   0  0  0  0  0  0
  -14.9817  -28.5442   22.9648 H   0  0  0  0  0  0
  -10.7111  -32.3567   21.0652 H   0  0  0  0  0  0
  1  2  1  0  0  0
  1  6  1  0  0  0
  1 31  1  0  0  0
  1 32  1  0  0  0
  2  3  1  0  0  0
  2 33  1  0  0  0
  2 34  1  0  0  0
  3  4  1  0  0  0
  4  5  1  0  0  0
  4 35  1  0  0  0
  4 36  1  0  0  0
  5  6  1  0  0  0
  5 37  1  0  0  0
  5 38  1  0  0  0
  6  7  1  0  0  0
  7  8  2  0  0  0
  7  9  1  0  0  0
  8 18  1  0  0  0
  9 10  2  0  0  0
 10 11  1  0  0  0
 10 17  1  0  0  0
 11 12  1  0  0  0
 11 16  1  0  0  0
 12 13  1  0  0  0
 12 39  1  0  0  0
 12 40  1  0  0  0
 13 14  1  0  0  0
 13 41  1  0  0  0
 13 42  1  0  0  0
 14 15  1  0  0  0
 15 16  1  0  0  0
 15 43  1  0  0  0
 15 44  1  0  0  0
 16 45  1  0  0  0
 16 46  1  0  0  0
 17 18  2  0  0  0
 18 19  1  0  0  0
 19 20  1  0  0  0
 19 27  1  0  0  0
 20 21  1  0  0  0
 20 25  2  0  0  0
 21 22  2  0  0  0
 21 47  1  0  0  0
 22 23  1  0  0  0
 22 48  1  0  0  0
 23 24  2  0  0  0
 23 49  1  0  0  0
 24 25  1  0  0  0
 24 50  1  0  0  0
 25 26  1  0  0  0
 26 27  2  0  0  0
 27 28  1  0  0  0
 28 29  1  0  0  0
 28 30  1  0  0  0
 28 51  1  0  0  0
M  END
> <s_m_source_file>
../2wxl_ligand.sdf

> <i_m_source_file_index>
1

> <s_epik_input>
W0NIMl0xW0NIMl1PW0NIMl1bQ0gyXU4xYzJuYyhuYyhuMilOM1tDSDJdW0NIMl1PW0NIMl1bQ0gyXTMpLW40YyhbQ0hdKEYpRiluYyhjNDUpW2NIXVtjSF1bY0hdW2NIXTU=

> <s_epik_cmdline>
J2VwaWtfYXBwJywgJy1pbWFlJywgJ2xpZ2FuZF9wcm8ubWFlJywgJy1vbWFlJywgJ2xpZ2FuZF9wcmVwLm1hZScsICctbXMnLCAnMScsICctcGgnLCAnNycsICctcGh0JywgJzAuNScsICctbnQn

> <r_lp_tautomer_probability>
1

> <r_epik_Ionization_Penalty>
  0.0014

> <r_epik_Ionization_Penalty_Charging>
  0.0000

> <r_epik_Ionization_Penalty_Neutral>
  0.0014

> <r_epik_State_Penalty>
 -0.0000

> <r_epik_Charging_Adjusted_Penalty>
0

> <i_epik_Tot_Q>
0

> <i_epik_Tot_abs_Q>
0

$$$$
