2wxm_ligand
                    3D
 Schrodinger Suite 2020-3.
 35 37  0  0  1  0            999 V2000
   -4.4840   -2.3900   24.1090 C   0  0  0  0  0  0
   -5.9100   -2.0270   23.6960 C   0  0  0  0  0  0
   -6.8930   -3.1060   24.1140 C   0  0  0  0  0  0
   -6.4190   -0.6920   24.1920 N   0  0  0  0  0  0
   -7.5620   -0.3290   23.8730 N   0  0  0  0  0  0
   -5.8250    0.2810   24.9200 C   0  0  0  0  0  0
   -4.6230    0.4490   25.5040 N   0  0  0  0  0  0
   -4.2880    1.5470   26.1820 C   0  0  0  0  0  0
   -5.1380    2.5370   26.3280 N   0  0  0  0  0  0
   -6.3750    2.4660   25.7580 C   0  0  0  0  0  0
   -7.2180    3.4860   25.8750 N   0  0  0  0  0  0
   -6.7310    1.3200   25.0380 C   0  0  0  0  0  0
   -7.8080    0.8930   24.3130 C   0  0  0  0  0  0
   -9.0470    1.5480   24.1570 C   0  0  0  0  0  0
  -10.1100    1.9990   23.9460 C   0  0  0  0  0  0
  -11.3890    2.4550   23.6400 C   0  0  0  0  0  0
  -11.9760    3.4370   24.4120 C   0  0  0  0  0  0
  -13.2480    3.8660   24.0550 C   0  0  0  0  0  0
  -13.8810    3.2860   22.9650 C   0  0  0  0  0  0
  -13.2930    2.3490   22.2520 N   0  0  0  0  0  0
  -12.0790    1.9050   22.5670 C   0  0  0  0  0  0
   -4.2218   -3.3748   23.6949 H   0  0  0  0  0  0
   -4.4176   -2.4242   25.2065 H   0  0  0  0  0  0
   -3.7863   -1.6323   23.7228 H   0  0  0  0  0  0
   -5.8555   -1.9387   22.6009 H   0  0  0  0  0  0
   -6.5360   -4.0843   23.7599 H   0  0  0  0  0  0
   -7.8788   -2.8942   23.6742 H   0  0  0  0  0  0
   -6.9764   -3.1211   25.2107 H   0  0  0  0  0  0
   -3.2936    1.6240   26.6217 H   0  0  0  0  0  0
   -6.9238    4.3801   26.4442 H   0  0  0  0  0  0
   -8.2102    3.4365   25.4027 H   0  0  0  0  0  0
  -11.4590    3.8615   25.2726 H   0  0  0  0  0  0
  -13.7442    4.6509   24.6258 H   0  0  0  0  0  0
  -14.8849    3.6128   22.6939 H   0  0  0  0  0  0
  -11.6240    1.1066   21.9809 H   0  0  0  0  0  0
  1  2  1  0  0  0
  1 22  1  0  0  0
  1 23  1  0  0  0
  1 24  1  0  0  0
  2  3  1  0  0  0
  2  4  1  0  0  0
  2 25  1  0  0  0
  3 26  1  0  0  0
  3 27  1  0  0  0
  3 28  1  0  0  0
  4  5  1  0  0  0
  4  6  1  0  0  0
  5 13  2  0  0  0
  6  7  1  0  0  0
  6 12  2  0  0  0
  7  8  2  0  0  0
  8  9  1  0  0  0
  8 29  1  0  0  0
  9 10  2  0  0  0
 10 11  1  0  0  0
 10 12  1  0  0  0
 11 30  1  0  0  0
 11 31  1  0  0  0
 12 13  1  0  0  0
 13 14  1  0  0  0
 14 15  3  0  0  0
 15 16  1  0  0  0
 16 17  2  0  0  0
 16 21  1  0  0  0
 17 18  1  0  0  0
 17 32  1  0  0  0
 18 19  2  0  0  0
 18 33  1  0  0  0
 19 20  1  0  0  0
 19 34  1  0  0  0
 20 21  2  0  0  0
 21 35  1  0  0  0
M  END
> <s_m_source_file>
../2wxm_ligand.sdf

> <i_m_source_file_index>
1

> <s_epik_input>
bjFbY0hdbmMoW05IMl0pYyhjMTIpYyhubjJbQ0hdKFtDSDNdKVtDSDNdKUMjQ2MzW2NIXVtjSF1bY0hdbltjSF0z

> <s_epik_cmdline>
J2VwaWtfYXBwJywgJy1pbWFlJywgJ2xpZ2FuZF9wcm8ubWFlJywgJy1vbWFlJywgJ2xpZ2FuZF9wcmVwLm1hZScsICctbXMnLCAnMScsICctcGgnLCAnNycsICctcGh0JywgJzAuNScsICctbnQn

> <r_lp_tautomer_probability>
1

> <r_epik_Ionization_Penalty>
  0.0010

> <r_epik_Ionization_Penalty_Charging>
  0.0000

> <r_epik_Ionization_Penalty_Neutral>
  0.0010

> <r_epik_State_Penalty>
 -0.0000

> <r_epik_Charging_Adjusted_Penalty>
0

> <i_epik_Tot_Q>
0

> <i_epik_Tot_abs_Q>
0

$$$$
