2wxn_ligand
                    3D
 Schrodinger Suite 2020-3.
 37 39  0  0  1  0            999 V2000
    6.9700   -3.0320  -23.8510 C   0  0  0  0  0  0
    5.8570   -1.9700  -23.8410 C   0  0  0  0  0  0
    4.5950   -2.4140  -24.5800 C   0  0  0  0  0  0
    6.3940   -0.6710  -24.3200 N   0  0  0  0  0  0
    7.5340   -0.3280  -23.9720 N   0  0  0  0  0  0
    5.7880    0.3200  -25.0250 C   0  0  0  0  0  0
    4.5650    0.5180  -25.5790 N   0  0  0  0  0  0
    4.2970    1.6600  -26.2690 C   0  0  0  0  0  0
    5.1800    2.6850  -26.3400 N   0  0  0  0  0  0
    6.4050    2.5200  -25.7720 C   0  0  0  0  0  0
    7.3300    3.4240  -25.8510 N   0  0  0  0  0  0
    6.7170    1.3510  -25.1220 C   0  0  0  0  0  0
   10.0730    2.1020  -24.1050 C   0  0  0  0  0  0
   11.4180    2.5300  -24.0440 C   0  0  0  0  0  0
   12.1460    2.2050  -22.9390 C   0  0  0  0  0  0
   12.0050    3.1930  -25.1250 C   0  0  0  0  0  0
   13.3420    3.6060  -25.0980 C   0  0  0  0  0  0
   14.0580    3.3080  -23.9720 C   0  0  0  0  0  0
   13.4720    2.6040  -22.9060 C   0  0  0  0  0  0
   14.2300    2.2930  -21.7910 O   0  0  0  0  0  0
    7.8070    0.9000  -24.4410 C   0  0  0  0  0  0
    8.9980    1.6130  -24.2600 C   0  0  0  0  0  0
    6.5651   -3.9909  -23.4952 H   0  0  0  0  0  0
    7.7885   -2.7116  -23.1896 H   0  0  0  0  0  0
    7.3523   -3.1529  -24.8753 H   0  0  0  0  0  0
    5.5298   -1.7954  -22.8054 H   0  0  0  0  0  0
    4.2538   -3.3786  -24.1761 H   0  0  0  0  0  0
    4.8170   -2.5232  -25.6518 H   0  0  0  0  0  0
    3.8059   -1.6598  -24.4439 H   0  0  0  0  0  0
    3.3397    1.7531  -26.7818 H   0  0  0  0  0  0
    7.1261    4.3764  -26.3623 H   0  0  0  0  0  0
    8.3192    3.2390  -25.4068 H   0  0  0  0  0  0
   11.7014    1.6516  -22.1118 H   0  0  0  0  0  0
   11.4056    3.3939  -26.0130 H   0  0  0  0  0  0
   13.7913    4.1401  -25.9353 H   0  0  0  0  0  0
   15.0995    3.6213  -23.8999 H   0  0  0  0  0  0
   13.7765    1.7422  -20.9538 H   0  0  0  0  0  0
  1  2  1  0  0  0
  1 23  1  0  0  0
  1 24  1  0  0  0
  1 25  1  0  0  0
  2  3  1  0  0  0
  2  4  1  0  0  0
  2 26  1  0  0  0
  3 27  1  0  0  0
  3 28  1  0  0  0
  3 29  1  0  0  0
  4  5  1  0  0  0
  4  6  1  0  0  0
  5 21  2  0  0  0
  6  7  1  0  0  0
  6 12  2  0  0  0
  7  8  2  0  0  0
  8  9  1  0  0  0
  8 30  1  0  0  0
  9 10  2  0  0  0
 10 11  1  0  0  0
 10 12  1  0  0  0
 11 31  1  0  0  0
 11 32  1  0  0  0
 12 21  1  0  0  0
 13 14  1  0  0  0
 13 22  3  0  0  0
 14 15  2  0  0  0
 14 16  1  0  0  0
 15 19  1  0  0  0
 15 33  1  0  0  0
 16 17  2  0  0  0
 16 34  1  0  0  0
 17 18  1  0  0  0
 17 35  1  0  0  0
 18 19  2  0  0  0
 18 36  1  0  0  0
 19 20  1  0  0  0
 20 37  1  0  0  0
 21 22  1  0  0  0
M  END
> <s_m_source_file>
../2wxn_ligand.sdf

> <i_m_source_file_index>
1

> <s_epik_input>
bjFbY0hdbmMoW05IMl0pYyhjMTIpYyhubjJbQ0hdKFtDSDNdKVtDSDNdKUMjQ2MzW2NIXWMoW09IXSlbY0hdW2NIXVtjSF0z

> <s_epik_cmdline>
J2VwaWtfYXBwJywgJy1pbWFlJywgJ2xpZ2FuZF9wcm8ubWFlJywgJy1vbWFlJywgJ2xpZ2FuZF9wcmVwLm1hZScsICctbXMnLCAnMScsICctcGgnLCAnNycsICctcGh0JywgJzAuNScsICctbnQn

> <r_lp_tautomer_probability>
1

> <r_epik_Ionization_Penalty>
  0.0028

> <r_epik_Ionization_Penalty_Charging>
  0.0000

> <r_epik_Ionization_Penalty_Neutral>
  0.0028

> <r_epik_State_Penalty>
 -0.0000

> <r_epik_Charging_Adjusted_Penalty>
0

> <i_epik_Tot_Q>
0

> <i_epik_Tot_abs_Q>
0

$$$$
