2wxp_ligand
                    3D
 Schrodinger Suite 2020-3.
 61 66  0  0  1  0            999 V2000
   -5.9970    2.5050   27.6560 O   0  0  0  0  0  0
   -7.9800    0.5790   24.6830 C   0  0  0  0  0  0
   -6.7160   -2.9640   23.8270 C   0  0  0  0  0  0
   -7.9350   -2.7570   23.3360 C   0  0  0  0  0  0
   -9.6310   -1.0480   23.2290 N   0  0  0  0  0  0
   -5.8510   -4.2110   23.7280 C   0  0  0  0  0  0
  -11.2320    0.6570   23.2190 C   0  0  0  0  0  0
   -9.1600    1.0030   24.2860 N   0  0  0  0  0  0
   -5.7630   -5.9570   22.1500 C   0  0  0  0  0  0
   -5.8460   -6.2710   20.6410 C   0  0  0  0  0  0
   -3.9580   -4.6730   20.5110 C   0  0  0  0  0  0
   -4.2790   -4.0140   21.8760 C   0  0  0  0  0  0
   -7.1840    1.4710   25.3990 N   0  0  0  0  0  0
   -4.1790   -7.3910   18.2580 C   0  0  0  0  0  0
   -5.7460    1.2460   25.5190 C   0  0  0  0  0  0
   -5.1950    1.5730   26.9190 C   0  0  0  0  0  0
   -5.5780   -4.5120   22.3420 N   0  0  0  0  0  0
   -6.1870   -5.7400   17.5140 O   0  0  0  0  0  0
   -4.8840   -5.7400   18.2520 S   0  0  0  0  0  0
   -3.9200   -4.8000   17.5660 O   0  0  0  0  0  0
   -5.1730   -5.2130   19.8460 N   0  0  1  0  0  0
   -6.1620   -1.6210   24.6140 S   0  0  0  0  0  0
   -8.4340   -1.5370   23.5720 C   0  0  0  0  0  0
   -7.5790   -0.7110   24.3300 C   0  0  0  0  0  0
   -9.9740    0.2100   23.5640 C   0  0  0  0  0  0
  -11.8750    0.0980   22.1160 C   0  0  0  0  0  0
  -13.1780    0.5240   21.7810 C   0  0  0  0  0  0
  -13.8210    1.4830   22.5740 C   0  0  0  0  0  0
  -13.1820    2.0130   23.7010 C   0  0  0  0  0  0
  -13.5510    2.9060   24.6310 N   0  0  0  0  0  0
  -11.9050    1.5970   24.0170 C   0  0  0  0  0  0
  -11.6100    2.2800   25.1200 C   0  0  0  0  0  0
  -12.6470    3.0590   25.4530 N   0  0  0  0  0  0
   -6.8560    3.3550   26.9210 C   0  0  0  0  0  0
   -7.7840    2.7040   25.9460 C   0  0  0  0  0  0
   -8.4843   -3.5204   22.7850 H   0  0  0  0  0  0
   -4.9011   -4.0412   24.2560 H   0  0  0  0  0  0
   -6.3785   -5.0605   24.1864 H   0  0  0  0  0  0
   -6.6936   -6.2755   22.6425 H   0  0  0  0  0  0
   -4.9118   -6.4967   22.5906 H   0  0  0  0  0  0
   -5.3539   -7.2339   20.4393 H   0  0  0  0  0  0
   -6.9013   -6.3274   20.3357 H   0  0  0  0  0  0
   -3.5059   -3.9269   19.8409 H   0  0  0  0  0  0
   -3.2540   -5.5047   20.6618 H   0  0  0  0  0  0
   -3.4953   -4.2750   22.6024 H   0  0  0  0  0  0
   -4.3181   -2.9213   21.7555 H   0  0  0  0  0  0
   -3.9985   -7.7164   17.2228 H   0  0  0  0  0  0
   -4.8787   -8.0867   18.7443 H   0  0  0  0  0  0
   -3.2279   -7.3815   18.8105 H   0  0  0  0  0  0
   -5.5218    0.1891   25.3126 H   0  0  0  0  0  0
   -5.2138    1.8817   24.7960 H   0  0  0  0  0  0
   -4.1847    1.9862   26.7827 H   0  0  0  0  0  0
   -5.1317    0.6250   27.4734 H   0  0  0  0  0  0
  -11.3751   -0.6627   21.5165 H   0  0  0  0  0  0
  -13.6821    0.1084   20.9085 H   0  0  0  0  0  0
  -14.8245    1.8184   22.3121 H   0  0  0  0  0  0
  -10.6698    2.2155   25.6677 H   0  0  0  0  0  0
   -7.5011    3.9135   27.6152 H   0  0  0  0  0  0
   -6.2549    4.0617   26.3301 H   0  0  0  0  0  0
   -7.9886    3.4075   25.1255 H   0  0  0  0  0  0
   -8.7245    2.4572   26.4604 H   0  0  0  0  0  0
  1 16  1  0  0  0
  1 34  1  0  0  0
  2  8  2  0  0  0
  2 13  1  0  0  0
  2 24  1  0  0  0
  3  4  2  0  0  0
  3  6  1  0  0  0
  3 22  1  0  0  0
  4 23  1  0  0  0
  4 36  1  0  0  0
  5 23  1  0  0  0
  5 25  2  0  0  0
  6 17  1  0  0  0
  6 37  1  0  0  0
  6 38  1  0  0  0
  7 25  1  0  0  0
  7 26  2  0  0  0
  7 31  1  0  0  0
  8 25  1  0  0  0
  9 10  1  0  0  0
  9 17  1  0  0  0
  9 39  1  0  0  0
  9 40  1  0  0  0
 10 21  1  0  0  0
 10 41  1  0  0  0
 10 42  1  0  0  0
 11 12  1  0  0  0
 11 21  1  0  0  0
 11 43  1  0  0  0
 11 44  1  0  0  0
 12 17  1  0  0  0
 12 45  1  0  0  0
 12 46  1  0  0  0
 13 15  1  0  0  0
 13 35  1  0  0  0
 14 19  1  0  0  0
 14 47  1  0  0  0
 14 48  1  0  0  0
 14 49  1  0  0  0
 15 16  1  0  0  0
 15 50  1  0  0  0
 15 51  1  0  0  0
 16 52  1  0  0  0
 16 53  1  0  0  0
 18 19  2  0  0  0
 19 20  2  0  0  0
 19 21  1  0  0  0
 22 24  1  0  0  0
 23 24  2  0  0  0
 26 27  1  0  0  0
 26 54  1  0  0  0
 27 28  2  0  0  0
 27 55  1  0  0  0
 28 29  1  0  0  0
 28 56  1  0  0  0
 29 30  1  0  0  0
 29 31  2  0  0  0
 30 33  2  0  0  0
 31 32  1  0  0  0
 32 33  1  0  0  0
 32 57  1  0  0  0
 34 35  1  0  0  0
 34 58  1  0  0  0
 34 59  1  0  0  0
 35 60  1  0  0  0
 35 61  1  0  0  0
M  END
> <s_m_source_file>
../2wxp_ligand.sdf

> <i_m_source_file_index>
1

> <s_epik_input>
TjE9TltDSDJdYyhjMTIpYyhbY0hdW2NIXVtjSF0yKS1jKG4zKW5jKE40W0NIMl1bQ0gyXU9bQ0gyXVtDSDJdNCljKGMzNSlzYyhbY0hdNSlbQ0gyXVtOSCtdNltDSDJdW0NIMl1OKFtDSDJdW0NIMl02KVMoPU8pKD1PKVtDSDNd

> <s_epik_cmdline>
J2VwaWtfYXBwJywgJy1pbWFlJywgJ2xpZ2FuZF9wcm8ubWFlJywgJy1vbWFlJywgJ2xpZ2FuZF9wcmVwLm1hZScsICctbXMnLCAnMScsICctcGgnLCAnNycsICctcGh0JywgJzAuNScsICctbnQn

> <r_epik_Ionization_Penalty>
  0.2815

> <r_epik_Ionization_Penalty_Charging>
  0.0000

> <r_epik_Ionization_Penalty_Neutral>
  0.2815

> <r_epik_State_Penalty>
  0.2741

> <r_epik_Charging_Adjusted_Penalty>
0.274077424683708

> <i_epik_Tot_Q>
0

> <i_epik_Tot_abs_Q>
0

$$$$
