2wxv_ligand
                    3D
 Schrodinger Suite 2020-3.
 54 57  0  0  1  0            999 V2000
  -34.8740  176.8460   87.2740 C   0  0  0  0  0  0
  -33.8890  176.7910   86.0680 C   0  0  0  0  0  0
  -33.9760  174.2220   86.1400 C   0  0  0  0  0  0
  -33.3770  175.4130   85.6700 C   0  0  0  0  0  0
  -32.2930  174.9140   84.8170 C   0  0  0  0  0  0
  -32.2560  173.6190   84.7850 N   0  0  0  0  0  0
  -33.2560  173.1910   85.5690 N   0  0  0  0  0  0
  -33.4890  171.7570   85.7440 C   0  0  0  0  0  0
  -31.3100  175.7330   84.0440 C   0  0  0  0  0  0
  -31.3200  176.9640   84.0550 O   0  0  0  0  0  0
  -35.6020  175.5360   87.6290 C   0  0  0  0  0  0
  -35.1410  174.1950   87.0540 C   0  0  0  0  0  0
  -35.6980  173.0590   87.3140 N   0  0  0  0  0  0
  -36.8210  173.0910   88.2030 C   0  0  0  0  0  0
  -37.3130  174.1810   88.7570 N   0  0  0  0  0  0
  -36.7000  175.3980   88.4660 C   0  0  0  0  0  0
  -37.4030  171.9080   88.4800 N   0  0  0  0  0  0
  -30.4490  174.9560   83.3560 N   0  0  0  0  0  0
  -37.0000  170.6100   87.9670 C   0  0  0  0  0  0
  -37.1990  170.4150   86.4180 C   0  0  0  0  0  0
  -38.2320  169.3560   86.0680 C   0  0  0  0  0  0
  -37.9700  168.0610   86.7580 N   0  0  3  0  0  0
  -37.5530  168.0890   88.1970 C   0  0  0  0  0  0
  -37.7220  169.5000   88.8200 C   0  0  0  0  0  0
  -38.1570  166.6640   85.9450 S   0  0  0  0  0  0
  -36.5000  166.2200   85.5180 C   0  0  0  0  0  0
  -38.6390  165.6370   86.8380 O   0  0  0  0  0  0
  -38.8850  166.9340   84.7270 O   0  0  0  0  0  0
  -29.3900  175.4380   82.5120 C   0  0  0  0  0  0
  -34.3264  177.1401   88.1815 H   0  0  0  0  0  0
  -35.6649  177.5823   87.0682 H   0  0  0  0  0  0
  -34.3822  177.1980   85.1729 H   0  0  0  0  0  0
  -32.9946  177.3887   86.2975 H   0  0  0  0  0  0
  -34.3457  171.6042   86.4169 H   0  0  0  0  0  0
  -32.5930  171.2904   86.1793 H   0  0  0  0  0  0
  -33.7034  171.2985   84.7674 H   0  0  0  0  0  0
  -37.1088  176.2983   88.9248 H   0  0  0  0  0  0
  -38.2605  171.9868   89.1645 H   0  0  0  0  0  0
  -30.6052  173.8741   83.4789 H   0  0  0  0  0  0
  -35.9104  170.6158   88.1176 H   0  0  0  0  0  0
  -37.5332  171.3620   85.9692 H   0  0  0  0  0  0
  -36.2461  170.1091   85.9615 H   0  0  0  0  0  0
  -39.2312  169.7055   86.3671 H   0  0  0  0  0  0
  -38.2169  169.1734   84.9834 H   0  0  0  0  0  0
  -38.1700  167.3823   88.7714 H   0  0  0  0  0  0
  -36.4944  167.8010   88.2777 H   0  0  0  0  0  0
  -37.2959  169.4817   89.8339 H   0  0  0  0  0  0
  -38.7974  169.7239   88.8782 H   0  0  0  0  0  0
  -35.9289  166.0103   86.4344 H   0  0  0  0  0  0
  -36.0269  167.0501   84.9730 H   0  0  0  0  0  0
  -36.5133  165.3234   84.8809 H   0  0  0  0  0  0
  -28.8487  174.5839   82.0789 H   0  0  0  0  0  0
  -28.6954  176.0484   83.1077 H   0  0  0  0  0  0
  -29.8155  176.0506   81.7035 H   0  0  0  0  0  0
  1  2  1  0  0  0
  1 11  1  0  0  0
  1 30  1  0  0  0
  1 31  1  0  0  0
  2  4  1  0  0  0
  2 32  1  0  0  0
  2 33  1  0  0  0
  3  4  2  0  0  0
  3  7  1  0  0  0
  3 12  1  0  0  0
  4  5  1  0  0  0
  5  6  2  0  0  0
  5  9  1  0  0  0
  6  7  1  0  0  0
  7  8  1  0  0  0
  8 34  1  0  0  0
  8 35  1  0  0  0
  8 36  1  0  0  0
  9 10  2  0  0  0
  9 18  1  0  0  0
 11 12  2  0  0  0
 11 16  1  0  0  0
 12 13  1  0  0  0
 13 14  2  0  0  0
 14 15  1  0  0  0
 14 17  1  0  0  0
 15 16  2  0  0  0
 16 37  1  0  0  0
 17 19  1  0  0  0
 17 38  1  0  0  0
 18 29  1  0  0  0
 18 39  1  0  0  0
 19 20  1  0  0  0
 19 24  1  0  0  0
 19 40  1  0  0  0
 20 21  1  0  0  0
 20 41  1  0  0  0
 20 42  1  0  0  0
 21 22  1  0  0  0
 21 43  1  0  0  0
 21 44  1  0  0  0
 22 23  1  0  0  0
 22 25  1  0  0  0
 23 24  1  0  0  0
 23 45  1  0  0  0
 23 46  1  0  0  0
 24 47  1  0  0  0
 24 48  1  0  0  0
 25 26  1  0  0  0
 25 27  2  0  0  0
 25 28  2  0  0  0
 26 49  1  0  0  0
 26 50  1  0  0  0
 26 51  1  0  0  0
 29 52  1  0  0  0
 29 53  1  0  0  0
 29 54  1  0  0  0
M  END
> <s_m_source_file>
../2wxv_ligand.sdf

> <i_m_source_file_index>
1

> <s_epik_input>
W0NIM11uMW5jKEMoPU8pW05IXVtDSDNdKWMoYzEyKVtDSDJdW0NIMl1jM2MybmMobltjSF0zKVtOSF1bQ0hdNFtDSDJdW0NIMl1OKFtDSDJdW0NIMl00KVMoPU8pKD1PKVtDSDNd

> <s_epik_cmdline>
J2VwaWtfYXBwJywgJy1pbWFlJywgJ2xpZ2FuZF9wcm8ubWFlJywgJy1vbWFlJywgJ2xpZ2FuZF9wcmVwLm1hZScsICctbXMnLCAnMScsICctcGgnLCAnNycsICctcGh0JywgJzAuNScsICctbnQn

> <r_lp_tautomer_probability>
1

> <r_epik_Ionization_Penalty>
  0.0004

> <r_epik_Ionization_Penalty_Charging>
  0.0000

> <r_epik_Ionization_Penalty_Neutral>
  0.0004

> <r_epik_State_Penalty>
 -0.0000

> <r_epik_Charging_Adjusted_Penalty>
0

> <i_epik_Tot_Q>
0

> <i_epik_Tot_abs_Q>
0

$$$$
