2wyi_ligand
                    3D
 Schrodinger Suite 2020-3.
 28 29  0  0  1  0            999 V2000
    7.1940  -33.7210   -3.0740 C   0  0  1  0  0  0
    7.7380  -34.2600   -1.8730 O   0  0  0  0  0  0
    7.1300  -34.8400   -4.1200 C   0  0  1  0  0  0
    6.3970  -34.4460   -5.3610 N   0  3  1  0  0  0
    5.7490  -33.1240   -5.3220 C   0  0  0  0  0  0
    4.9140  -32.9860   -4.0450 C   0  0  0  0  0  0
    5.7840  -33.1690   -2.7870 C   0  0  0  0  0  0
    7.3010  -34.6240   -6.5090 C   0  0  0  0  0  0
    8.2810  -35.7110   -6.0540 C   0  0  1  0  0  0
    9.5120  -35.6170   -6.7770 O   0  0  0  0  0  0
    8.5010  -35.4320   -4.5570 C   0  0  1  0  0  0
    9.6230  -34.5680   -4.3090 O   0  0  0  0  0  0
    7.8710  -32.9159   -3.3957 H   0  0  0  0  0  0
    8.7443  -34.7042   -1.8759 H   0  0  0  0  0  0
    6.5447  -35.6079   -3.5930 H   0  0  0  0  0  0
    5.5254  -35.1069   -5.4773 H   0  0  0  0  0  0
    6.5184  -32.3380   -5.3375 H   0  0  0  0  0  0
    5.0923  -33.0116   -6.1972 H   0  0  0  0  0  0
    4.4564  -31.9862   -4.0124 H   0  0  0  0  0  0
    4.1238  -33.7512   -4.0391 H   0  0  0  0  0  0
    5.2483  -33.8605   -2.1200 H   0  0  0  0  0  0
    5.8670  -32.1842   -2.3040 H   0  0  0  0  0  0
    6.7192  -34.9360   -7.3889 H   0  0  0  0  0  0
    7.8111  -33.6736   -6.7249 H   0  0  0  0  0  0
    7.9503  -36.7359   -6.2779 H   0  0  0  0  0  0
    9.5264  -35.7897   -7.8633 H   0  0  0  0  0  0
    8.8438  -36.2923   -3.9635 H   0  0  0  0  0  0
    9.8867  -34.2913   -3.2775 H   0  0  0  0  0  0
  1  2  1  0  0  0
  1  3  1  0  0  0
  1  7  1  0  0  0
  1 13  1  0  0  0
  2 14  1  0  0  0
  3  4  1  0  0  0
  3 11  1  0  0  0
  3 15  1  0  0  0
  4  5  1  0  0  0
  4  8  1  0  0  0
  4 16  1  0  0  0
  5  6  1  0  0  0
  5 17  1  0  0  0
  5 18  1  0  0  0
  6  7  1  0  0  0
  6 19  1  0  0  0
  6 20  1  0  0  0
  7 21  1  0  0  0
  7 22  1  0  0  0
  8  9  1  0  0  0
  8 23  1  0  0  0
  8 24  1  0  0  0
  9 10  1  0  0  0
  9 11  1  0  0  0
  9 25  1  0  0  0
 10 26  1  0  0  0
 11 12  1  0  0  0
 11 27  1  0  0  0
 12 28  1  0  0  0
M  CHG  1   4   1
M  END
> <s_m_source_file>
../2wyi_ligand.sdf

> <i_m_source_file_index>
1

> <s_epik_input>
W09IXVtDQEBIXTFbQ0gyXVtDSDJdW0NIMl1bTkBIK10oW0NASF0xMilbQ0gyXVtDQEBIXShbT0hdKVtDQEhdMltPSF0=

> <s_epik_cmdline>
J2VwaWtfYXBwJywgJy1pbWFlJywgJ2xpZ2FuZF9wcm8ubWFlJywgJy1vbWFlJywgJ2xpZ2FuZF9wcmVwLm1hZScsICctbXMnLCAnMScsICctcGgnLCAnNycsICctcGh0JywgJzAuNScsICctbnQn

> <r_lp_tautomer_probability>
1

> <r_epik_Ionization_Penalty>
  0.0008

> <r_epik_Ionization_Penalty_Charging>
  0.0008

> <r_epik_Ionization_Penalty_Neutral>
  0.0000

> <r_epik_State_Penalty>
 -0.0000

> <r_epik_Charging_Adjusted_Penalty>
0.000826370909000464

> <i_epik_Tot_Q>
1

> <i_epik_Tot_abs_Q>
1

$$$$
