2wyj_ligand
                    3D
 Schrodinger Suite 2020-3.
 54 56  0  0  1  0            999 V2000
   13.8460    7.2030   26.2060 Cl  0  0  0  0  0  0
   12.1140    7.3220   26.3700 C   0  0  0  0  0  0
   11.3460    6.8890   27.4040 C   0  0  0  0  0  0
    9.9570    7.1490   27.1930 C   0  0  0  0  0  0
   11.2210    8.0530   25.1210 S   0  0  0  0  0  0
    9.7400    7.8050   25.9360 C   0  0  0  0  0  0
    8.4480    8.2260   25.4220 C   0  0  0  0  0  0
    8.1810    8.6580   24.1800 C   0  0  0  0  0  0
    6.5550    9.1380   23.8130 S   0  0  0  0  0  0
    6.6210   10.3440   23.0560 O   0  0  0  0  0  0
    5.8500    9.1080   25.0740 O   0  0  0  0  0  0
    5.8390    8.1320   22.7580 N   0  0  3  0  0  0
    5.8520    6.6830   22.8500 C   0  0  1  0  0  0
    4.5020    6.0540   22.5210 C   0  0  0  0  0  0
    4.8590    4.7080   21.8690 C   0  0  0  0  0  0
    6.7830    6.0510   21.8280 C   0  0  0  0  0  0
    7.8600    6.4720   21.4430 O   0  0  0  0  0  0
    6.2280    4.9070   21.3940 N   0  0  0  0  0  0
    6.9130    3.9680   20.5730 C   0  0  0  0  0  0
    7.6000    4.3670   19.4180 C   0  0  0  0  0  0
    7.6320    5.6500   19.0660 F   0  0  0  0  0  0
    6.8770    2.6120   20.9520 C   0  0  0  0  0  0
    7.5520    1.6880   20.1400 C   0  0  0  0  0  0
    8.2310    2.1090   18.9730 C   0  0  0  0  0  0
    8.2590    3.4630   18.6070 C   0  0  0  0  0  0
    8.9350    1.1180   18.1000 C   0  0  2  0  0  0
   10.3900    1.5450   17.8440 C   0  0  0  0  0  0
    8.1890    0.8820   16.8140 N   0  3  0  0  0  0
    6.8160    0.3800   17.0150 C   0  0  0  0  0  0
    8.1850    1.9860   15.8160 C   0  0  0  0  0  0
   11.7441    6.3993   28.2927 H   0  0  0  0  0  0
    9.1663    6.8838   27.8948 H   0  0  0  0  0  0
    7.6420    8.1646   26.1681 H   0  0  0  0  0  0
    8.9828    8.7001   23.4281 H   0  0  0  0  0  0
    5.4623    8.6220   21.8480 H   0  0  0  0  0  0
    6.1651    6.5468   23.8957 H   0  0  0  0  0  0
    3.9233    5.9225   23.4472 H   0  0  0  0  0  0
    3.9492    6.7110   21.8335 H   0  0  0  0  0  0
    4.7900    3.9071   22.6199 H   0  0  0  0  0  0
    4.1579    4.5013   21.0470 H   0  0  0  0  0  0
    6.3426    2.2911   21.8462 H   0  0  0  0  0  0
    7.5531    0.6325   20.4120 H   0  0  0  0  0  0
    8.7845    3.7918   17.7104 H   0  0  0  0  0  0
    8.9310    0.1607   18.6418 H   0  0  0  0  0  0
   10.8991    1.7071   18.8055 H   0  0  0  0  0  0
   10.4012    2.4779   17.2613 H   0  0  0  0  0  0
   10.9104    0.7554   17.2821 H   0  0  0  0  0  0
    8.7887    0.0855   16.3492 H   0  0  0  0  0  0
    6.8281   -0.4351   17.7535 H   0  0  0  0  0  0
    6.4197    0.0039   16.0603 H   0  0  0  0  0  0
    6.1768    1.1970   17.3810 H   0  0  0  0  0  0
    9.2116    2.3541   15.6723 H   0  0  0  0  0  0
    7.5488    2.8065   16.1794 H   0  0  0  0  0  0
    7.7917    1.6134   14.8587 H   0  0  0  0  0  0
  1  2  1  0  0  0
  2  3  2  0  0  0
  2  5  1  0  0  0
  3  4  1  0  0  0
  3 31  1  0  0  0
  4  6  2  0  0  0
  4 32  1  0  0  0
  5  6  1  0  0  0
  6  7  1  0  0  0
  7  8  2  0  0  0
  7 33  1  0  0  0
  8  9  1  0  0  0
  8 34  1  0  0  0
  9 10  2  0  0  0
  9 11  2  0  0  0
  9 12  1  0  0  0
 12 13  1  0  0  0
 12 35  1  0  0  0
 13 14  1  0  0  0
 13 16  1  0  0  0
 13 36  1  0  0  0
 14 15  1  0  0  0
 14 37  1  0  0  0
 14 38  1  0  0  0
 15 18  1  0  0  0
 15 39  1  0  0  0
 15 40  1  0  0  0
 16 17  2  0  0  0
 16 18  1  0  0  0
 18 19  1  0  0  0
 19 20  2  0  0  0
 19 22  1  0  0  0
 20 21  1  0  0  0
 20 25  1  0  0  0
 22 23  2  0  0  0
 22 41  1  0  0  0
 23 24  1  0  0  0
 23 42  1  0  0  0
 24 25  2  0  0  0
 24 26  1  0  0  0
 25 43  1  0  0  0
 26 27  1  0  0  0
 26 28  1  0  0  0
 26 44  1  0  0  0
 27 45  1  0  0  0
 27 46  1  0  0  0
 27 47  1  0  0  0
 28 29  1  0  0  0
 28 30  1  0  0  0
 28 48  1  0  0  0
 29 49  1  0  0  0
 29 50  1  0  0  0
 29 51  1  0  0  0
 30 52  1  0  0  0
 30 53  1  0  0  0
 30 54  1  0  0  0
M  CHG  1  28   1
M  END
> <s_m_source_file>
../2wyj_ligand.sdf

> <i_m_source_file_index>
1

> <s_epik_input>
Q2xjMVtjSF1bY0hdYyhzMSkvW0NIXT1bQ0hdL1MoPU8pKD1PKVtOSF1bQ0BIXTJbQ0gyXVtDSDJdTihDMj1PKWMzYyhGKVtjSF1jKFtjSF1bY0hdMylbQ0BIXShbQ0gzXSlbTkgrXShbQ0gzXSlbQ0gzXQ==

> <s_epik_cmdline>
J2VwaWtfYXBwJywgJy1pbWFlJywgJ2xpZ2FuZF9wcm8ubWFlJywgJy1vbWFlJywgJ2xpZ2FuZF9wcmVwLm1hZScsICctbXMnLCAnMScsICctcGgnLCAnNycsICctcGh0JywgJzAuNScsICctbnQn

> <r_epik_Ionization_Penalty>
  0.0517

> <r_epik_Ionization_Penalty_Charging>
  0.0516

> <r_epik_Ionization_Penalty_Neutral>
  0.0001

> <r_epik_State_Penalty>
  0.0442

> <r_epik_Charging_Adjusted_Penalty>
0.0957994234385081

> <i_epik_Tot_Q>
1

> <i_epik_Tot_abs_Q>
1

$$$$
