2wyn_ligand
                    3D
 Schrodinger Suite 2020-3.
 54 56  0  0  1  0            999 V2000
    6.0360  -37.9360   82.5400 O   0  0  0  0  0  0
    4.9020  -37.6930   83.3590 C   0  0  0  0  0  0
    4.8510  -38.5700   84.6160 C   0  0  1  0  0  0
    6.0610  -38.3740   85.5300 C   0  0  2  0  0  0
    6.4610  -39.6280   86.3390 C   0  0  1  0  0  0
    7.6530  -40.2830   85.8870 O   0  0  0  0  0  0
    6.6840  -39.1160   87.7680 C   0  0  2  0  0  0
    6.6390  -40.1960   88.6970 O   0  0  0  0  0  0
    5.5130  -38.1360   87.9910 C   0  0  1  0  0  0
    5.5970  -37.0330   89.0530 C   0  0  0  0  0  0
    6.8230  -36.3220   88.9920 O   0  0  0  0  0  0
    5.3440  -37.6890   86.6120 N   0  3  2  0  0  0
    4.2240  -36.8710   86.2270 C   0  0  0  0  0  0
    3.6330  -37.9950   85.3520 C   0  0  2  0  0  0
    2.0630  -38.9960   86.9810 C   0  0  1  0  0  0
    1.6280  -40.3470   87.5330 C   0  0  1  0  0  0
    0.8680  -41.0970   86.4650 C   0  0  2  0  0  0
   -0.3510  -40.2550   86.0450 C   0  0  1  0  0  0
    0.1960  -38.9490   85.4480 C   0  0  1  0  0  0
   -0.9340  -38.0740   84.9180 C   0  0  0  0  0  0
    3.1380  -39.1710   86.0470 O   0  0  0  0  0  0
    2.7510  -41.1250   87.9010 O   0  0  0  0  0  0
    0.4440  -42.3180   86.9930 O   0  0  0  0  0  0
   -1.1130  -41.0020   85.0990 O   0  0  0  0  0  0
    0.9590  -38.2680   86.4340 O   0  0  0  0  0  0
   -0.4310  -36.8370   84.4540 O   0  0  0  0  0  0
    6.1763  -37.3638   81.6111 H   0  0  0  0  0  0
    4.9075  -36.6443   83.6911 H   0  0  0  0  0  0
    3.9853  -37.8907   82.7841 H   0  0  0  0  0  0
    4.8231  -39.6397   84.3609 H   0  0  0  0  0  0
    6.9147  -37.9463   84.9838 H   0  0  0  0  0  0
    5.7236  -40.4351   86.2170 H   0  0  0  0  0  0
    7.6914  -40.7208   84.8786 H   0  0  0  0  0  0
    7.6807  -38.6921   87.9599 H   0  0  0  0  0  0
    7.4092  -40.9808   88.6658 H   0  0  0  0  0  0
    4.6216  -38.6039   88.4342 H   0  0  0  0  0  0
    4.7778  -36.3147   88.9012 H   0  0  0  0  0  0
    5.5113  -37.4806   90.0542 H   0  0  0  0  0  0
    7.0185  -35.5012   89.6977 H   0  0  0  0  0  0
    5.9853  -36.8284   86.8532 H   0  0  0  0  0  0
    3.6581  -36.5786   87.1238 H   0  0  0  0  0  0
    4.5881  -35.9692   85.7130 H   0  0  0  0  0  0
    2.7716  -37.5839   84.8052 H   0  0  0  0  0  0
    2.4527  -38.3257   87.7613 H   0  0  0  0  0  0
    1.0409  -40.2168   88.4541 H   0  0  0  0  0  0
    1.5084  -41.3661   85.6121 H   0  0  0  0  0  0
   -1.0715  -40.0519   86.8510 H   0  0  0  0  0  0
    0.9057  -39.1431   84.6303 H   0  0  0  0  0  0
   -1.4367  -38.5885   84.0858 H   0  0  0  0  0  0
   -1.6591  -37.8840   85.7231 H   0  0  0  0  0  0
    3.4450  -40.7588   88.6718 H   0  0  0  0  0  0
    1.1840  -43.0509   87.3467 H   0  0  0  0  0  0
   -1.5655  -41.9610   85.3916 H   0  0  0  0  0  0
   -1.1177  -36.0855   84.0373 H   0  0  0  0  0  0
  1  2  1  0  0  0
  1 27  1  0  0  0
  2  3  1  0  0  0
  2 28  1  0  0  0
  2 29  1  0  0  0
  3  4  1  0  0  0
  3 14  1  0  0  0
  3 30  1  0  0  0
  4  5  1  0  0  0
  4 12  1  0  0  0
  4 31  1  0  0  0
  5  6  1  0  0  0
  5  7  1  0  0  0
  5 32  1  0  0  0
  6 33  1  0  0  0
  7  8  1  0  0  0
  7  9  1  0  0  0
  7 34  1  0  0  0
  8 35  1  0  0  0
  9 10  1  0  0  0
  9 12  1  0  0  0
  9 36  1  0  0  0
 10 11  1  0  0  0
 10 37  1  0  0  0
 10 38  1  0  0  0
 11 39  1  0  0  0
 12 13  1  0  0  0
 12 40  1  0  0  0
 13 14  1  0  0  0
 13 41  1  0  0  0
 13 42  1  0  0  0
 14 21  1  0  0  0
 14 43  1  0  0  0
 15 16  1  0  0  0
 15 21  1  0  0  0
 15 25  1  0  0  0
 15 44  1  0  0  0
 16 17  1  0  0  0
 16 22  1  0  0  0
 16 45  1  0  0  0
 17 18  1  0  0  0
 17 23  1  0  0  0
 17 46  1  0  0  0
 18 19  1  0  0  0
 18 24  1  0  0  0
 18 47  1  0  0  0
 19 20  1  0  0  0
 19 25  1  0  0  0
 19 48  1  0  0  0
 20 26  1  0  0  0
 20 49  1  0  0  0
 20 50  1  0  0  0
 22 51  1  0  0  0
 23 52  1  0  0  0
 24 53  1  0  0  0
 26 54  1  0  0  0
M  CHG  1  12   1
M  END
> <s_m_source_file>
../2wyn_ligand.sdf

> <i_m_source_file_index>
1

> <s_epik_input>
W09IXVtDQEhdMVtDQEhdKFtPSF0pW0NAQEhdKFtDSDJdW09IXSlbTkBASCtdKFtDQEBIXTEyKVtDSDJdW0NAQEhdKFtDQEhdMltDSDJdW09IXSlPW0NAQEhdM1tDQEhdKFtPSF0pW0NAQEhdKFtPSF0pW0NASF0oW09IXSlbQ0BIXShPMylbQ0gyXVtPSF0=

> <s_epik_cmdline>
J2VwaWtfYXBwJywgJy1pbWFlJywgJ2xpZ2FuZF9wcm8ubWFlJywgJy1vbWFlJywgJ2xpZ2FuZF9wcmVwLm1hZScsICctbXMnLCAnMScsICctcGgnLCAnNycsICctcGh0JywgJzAuNScsICctbnQn

> <r_epik_Ionization_Penalty>
  0.0327

> <r_epik_Ionization_Penalty_Charging>
  0.0327

> <r_epik_Ionization_Penalty_Neutral>
  0.0000

> <r_epik_State_Penalty>
  0.0271

> <r_epik_Charging_Adjusted_Penalty>
0.0597270658405765

> <i_epik_Tot_Q>
1

> <i_epik_Tot_abs_Q>
1

> <s_epik_Chemistry_Notes>
This compound contains an acetal/aminal-like group ( X-CH(R)-Y where X, Y are N, S, or O) that may be acid/base labile, releasing an aldehyde.

$$$$
