2wzf_ligand
                    3D
 Schrodinger Suite 2020-3.
 36 37  0  0  1  0            999 V2000
   -0.3060   -0.0030   24.8420 N   0  0  0  0  0  0
   -1.4880   -0.1370   25.5730 C   0  0  0  0  0  0
   -1.6320   -1.1740   26.4740 N   0  0  0  0  0  0
   -0.5890   -2.0920   26.6630 C   0  0  0  0  0  0
    0.5940   -1.9690   25.9250 C   0  0  0  0  0  0
    0.7530   -0.9150   25.0050 C   0  0  0  0  0  0
   -2.4050    0.6750   25.4120 O   0  0  0  0  0  0
   -0.7690   -2.9950   27.4810 O   0  0  0  0  0  0
   -0.2730    1.1160   23.8910 C   0  0  1  0  0  0
    0.0800    2.4650   24.5330 C   0  0  2  0  0  0
   -0.5360    3.5520   23.8070 O   0  0  0  0  0  0
    1.5550    2.4560   24.3730 C   0  0  1  0  0  0
    1.6660    1.8120   22.9750 C   0  0  2  0  0  0
    0.7450    0.7390   22.9650 O   0  0  0  0  0  0
    2.0940    3.7720   24.2920 O   0  0  0  0  0  0
    3.1170    1.4220   22.6060 C   0  0  0  0  0  0
    3.7350    0.6090   23.6290 O   0  0  0  0  0  0
    5.3200    0.5050   23.7710 P   0  0  1  0  0  0
    5.9610    1.9730   23.9330 O   0  5  0  0  0  0
    5.7370   -0.4270   24.8600 O   0  0  0  0  0  0
    5.7590   -0.0450   22.3360 O   0  0  0  0  0  0
    7.1480    0.1830   21.6250 P   0  0  0  0  0  0
    7.2640    1.7470   21.3590 O   0  5  0  0  0  0
    8.2790   -0.2260   22.6810 O   0  5  0  0  0  0
    7.2150   -0.6240   20.3680 O   0  0  0  0  0  0
   -2.5662   -1.2809   27.0449 H   0  0  0  0  0  0
    1.3967   -2.6933   26.0633 H   0  0  0  0  0  0
    1.6745   -0.8081   24.4327 H   0  0  0  0  0  0
   -1.2527    1.2236   23.4026 H   0  0  0  0  0  0
   -0.2610    2.6476   25.5627 H   0  0  0  0  0  0
   -1.6278    3.6828   23.8346 H   0  0  0  0  0  0
    2.0894    2.0149   25.2273 H   0  0  0  0  0  0
    1.3303    2.4682   22.1585 H   0  0  0  0  0  0
    2.1139    4.4141   25.1849 H   0  0  0  0  0  0
    3.1152    0.8498   21.6665 H   0  0  0  0  0  0
    3.7206    2.3328   22.4794 H   0  0  0  0  0  0
  1  2  1  0  0  0
  1  6  1  0  0  0
  1  9  1  0  0  0
  2  3  1  0  0  0
  2  7  2  0  0  0
  3  4  1  0  0  0
  3 26  1  0  0  0
  4  5  1  0  0  0
  4  8  2  0  0  0
  5  6  2  0  0  0
  5 27  1  0  0  0
  6 28  1  0  0  0
  9 10  1  0  0  0
  9 14  1  0  0  0
  9 29  1  0  0  0
 10 11  1  0  0  0
 10 12  1  0  0  0
 10 30  1  0  0  0
 11 31  1  0  0  0
 12 13  1  0  0  0
 12 15  1  0  0  0
 12 32  1  0  0  0
 13 14  1  0  0  0
 13 16  1  0  0  0
 13 33  1  0  0  0
 15 34  1  0  0  0
 16 17  1  0  0  0
 16 35  1  0  0  0
 16 36  1  0  0  0
 17 18  1  0  0  0
 18 19  1  0  0  0
 18 20  2  0  0  0
 18 21  1  0  0  0
 21 22  1  0  0  0
 22 23  1  0  0  0
 22 24  1  0  0  0
 22 25  2  0  0  0
M  CHG  3  19  -1  23  -1  24  -1
M  END
> <s_m_source_file>
../2wzf_ligand.sdf

> <i_m_source_file_index>
1

> <s_epik_input>
W2NIXTFbY0hdYyg9TylbbkhdYyg9TyluMVtDQEhdMltDQEhdKFtPSF0pW0NASF0oW09IXSlbQ0BIXShPMilbQ0gyXU9bUEBdKD1PKShbT0hdKU9QKD1PKShbT0hdKVtPSF0=

> <s_epik_cmdline>
J2VwaWtfYXBwJywgJy1pbWFlJywgJ2xpZ2FuZF9wcm8ubWFlJywgJy1vbWFlJywgJ2xpZ2FuZF9wcmVwLm1hZScsICctbXMnLCAnMScsICctcGgnLCAnNycsICctcGh0JywgJzAuNScsICctbnQn

> <r_lp_tautomer_probability>
0.999537046341301

> <r_epik_Ionization_Penalty>
  0.1061

> <r_epik_Ionization_Penalty_Charging>
  0.1061

> <r_epik_Ionization_Penalty_Neutral>
  0.0000

> <r_epik_State_Penalty>
  0.0923

> <r_epik_Charging_Adjusted_Penalty>
0.198376686346359

> <i_epik_Tot_Q>
-3

> <i_epik_Tot_abs_Q>
3

> <s_epik_Chemistry_Notes>
This compound contains an acetal/aminal-like group ( X-CH(R)-Y where X, Y are N, S, or O) that may be acid/base labile, releasing an aldehyde.

$$$$
