2wzm_ligand
                    3D
 Schrodinger Suite 2020-3.
 59 62  0  0  1  0            999 V2000
    9.5840   44.9010   -3.1550 P   0  0  1  0  0  0
    8.9740   44.1490   -1.9760 O   0  5  0  0  0  0
   11.0320   45.2990   -3.0320 O   0  0  0  0  0  0
    9.5900   44.0650   -4.5390 O   0  0  0  0  0  0
    8.4280   43.5650   -5.1570 C   0  0  0  0  0  0
    8.7870   42.7870   -6.4230 C   0  0  1  0  0  0
    8.6950   43.6460   -7.5730 O   0  0  0  0  0  0
   10.1880   42.1990   -6.4140 C   0  0  1  0  0  0
   10.0800   40.8420   -6.8660 O   0  0  0  0  0  0
   10.9760   43.0740   -7.3900 C   0  0  1  0  0  0
   11.9330   42.3150   -8.1080 O   0  0  0  0  0  0
    9.8910   43.5710   -8.3410 C   0  0  2  0  0  0
   10.1500   44.8900   -9.0000 N   0  0  0  0  0  0
   10.6560   46.0310   -8.4850 C   0  0  0  0  0  0
   10.7110   46.9780   -9.4610 N   0  0  0  0  0  0
   10.2330   46.4170  -10.6010 C   0  0  0  0  0  0
   10.0410   46.8940  -11.9000 C   0  0  0  0  0  0
   10.3730   48.1730  -12.2560 N   0  0  0  0  0  0
    9.5190   46.0370  -12.8280 N   0  0  0  0  0  0
    9.1970   44.7650  -12.5060 C   0  0  0  0  0  0
    9.3740   44.3000  -11.2570 N   0  0  0  0  0  0
    9.8870   45.1070  -10.3000 C   0  0  0  0  0  0
    8.6640   46.1540   -3.6150 O   0  0  0  0  0  0
    7.5380   46.9630   -2.7780 P   0  0  2  0  0  0
    6.4680   46.0340   -2.2240 O   0  5  0  0  0  0
    7.2030   48.1370   -3.6250 O   0  0  0  0  0  0
    8.2630   47.4240   -1.4550 O   0  0  0  0  0  0
    9.5050   48.0680   -1.5360 C   0  0  0  0  0  0
    9.7240   48.2860   -0.0690 C   0  0  1  0  0  0
   10.7290   47.4270    0.4660 O   0  0  0  0  0  0
   10.2520   49.6890    0.0490 C   0  0  1  0  0  0
    9.1350   50.5970   -0.0750 O   0  0  0  0  0  0
   11.0080   49.6250    1.3810 C   0  0  1  0  0  0
   10.2040   50.0630    2.4930 O   0  0  0  0  0  0
   11.3600   48.1440    1.5530 C   0  0  0  0  0  0
   13.4130   42.8660   -8.3440 P   0  0  0  0  0  0
   13.9560   43.2910   -7.0040 O   0  5  0  0  0  0
   14.1160   41.6880   -8.9600 O   0  0  0  0  0  0
   13.2610   44.0410   -9.2950 O   0  5  0  0  0  0
    7.9030   42.8933   -4.4618 H   0  0  0  0  0  0
    7.7674   44.4019   -5.4274 H   0  0  0  0  0  0
    8.0515   41.9748   -6.5198 H   0  0  0  0  0  0
   10.6802   42.1266   -5.4329 H   0  0  0  0  0  0
    9.5376   40.1018   -6.2595 H   0  0  0  0  0  0
   11.5994   43.8479   -6.9183 H   0  0  0  0  0  0
    9.7744   42.8644   -9.1760 H   0  0  0  0  0  0
   10.9707   46.1715   -7.4509 H   0  0  0  0  0  0
   10.7930   48.8609  -11.5073 H   0  0  0  0  0  0
   10.2199   48.5132  -13.2908 H   0  0  0  0  0  0
    8.7872   44.1054  -13.2709 H   0  0  0  0  0  0
   10.2338   47.3997   -2.0179 H   0  0  0  0  0  0
    9.4028   48.9883   -2.1299 H   0  0  0  0  0  0
    8.8090   48.0590    0.4978 H   0  0  0  0  0  0
   10.8981   50.0953   -0.7432 H   0  0  0  0  0  0
    8.5788   50.6586   -1.0220 H   0  0  0  0  0  0
   11.8622   50.3173    1.4149 H   0  0  0  0  0  0
    9.8540   51.1047    2.5421 H   0  0  0  0  0  0
   10.9794   47.7641    2.5126 H   0  0  0  0  0  0
   12.4491   47.9965    1.5062 H   0  0  0  0  0  0
  1  2  1  0  0  0
  1  3  2  0  0  0
  1  4  1  0  0  0
  1 23  1  0  0  0
  4  5  1  0  0  0
  5  6  1  0  0  0
  5 40  1  0  0  0
  5 41  1  0  0  0
  6  7  1  0  0  0
  6  8  1  0  0  0
  6 42  1  0  0  0
  7 12  1  0  0  0
  8  9  1  0  0  0
  8 10  1  0  0  0
  8 43  1  0  0  0
  9 44  1  0  0  0
 10 11  1  0  0  0
 10 12  1  0  0  0
 10 45  1  0  0  0
 11 36  1  0  0  0
 12 13  1  0  0  0
 12 46  1  0  0  0
 13 14  1  0  0  0
 13 22  1  0  0  0
 14 15  2  0  0  0
 14 47  1  0  0  0
 15 16  1  0  0  0
 16 17  2  0  0  0
 16 22  1  0  0  0
 17 18  1  0  0  0
 17 19  1  0  0  0
 18 48  1  0  0  0
 18 49  1  0  0  0
 19 20  2  0  0  0
 20 21  1  0  0  0
 20 50  1  0  0  0
 21 22  2  0  0  0
 23 24  1  0  0  0
 24 25  1  0  0  0
 24 26  2  0  0  0
 24 27  1  0  0  0
 27 28  1  0  0  0
 28 29  1  0  0  0
 28 51  1  0  0  0
 28 52  1  0  0  0
 29 30  1  0  0  0
 29 31  1  0  0  0
 29 53  1  0  0  0
 30 35  1  0  0  0
 31 32  1  0  0  0
 31 33  1  0  0  0
 31 54  1  0  0  0
 32 55  1  0  0  0
 33 34  1  0  0  0
 33 35  1  0  0  0
 33 56  1  0  0  0
 34 57  1  0  0  0
 35 58  1  0  0  0
 35 59  1  0  0  0
 36 37  1  0  0  0
 36 38  2  0  0  0
 36 39  1  0  0  0
M  CHG  4   2  -1  25  -1  37  -1  39  -1
M  END
> <s_m_source_file>
../2wzm_ligand.sdf

> <i_m_source_file_index>
1

> <s_epik_input>
W09IXVtDQEhdMVtDQEBIXShbT0hdKVtDSDJdT1tDQEBIXTFbQ0gyXU9bUEBdKD1PKShbT0hdKU9bUEBAXSg9TykoW09IXSlPW0NIMl1bQ0BIXTJPW0NASF0oW0NAQEhdKFtDQEBIXTJbT0hdKU9QKD1PKShbT0hdKVtPSF0pbihbY0hdbjMpYyhjMzQpbltjSF1uYzRbTkgyXQ==

> <s_epik_cmdline>
J2VwaWtfYXBwJywgJy1pbWFlJywgJ2xpZ2FuZF9wcm8ubWFlJywgJy1vbWFlJywgJ2xpZ2FuZF9wcmVwLm1hZScsICctbXMnLCAnMScsICctcGgnLCAnNycsICctcGh0JywgJzAuNScsICctbnQn

> <r_lp_tautomer_probability>
0.999997216410988

> <r_epik_Ionization_Penalty>
  0.0693

> <r_epik_Ionization_Penalty_Charging>
  0.0687

> <r_epik_Ionization_Penalty_Neutral>
  0.0006

> <r_epik_State_Penalty>
  0.0596

> <r_epik_Charging_Adjusted_Penalty>
0.12834126793412

> <i_epik_Tot_Q>
-4

> <i_epik_Tot_abs_Q>
4

> <s_epik_Chemistry_Notes>
This compound contains an acetal/aminal-like group ( X-CH(R)-Y where X, Y are N, S, or O) that may be acid/base labile, releasing an aldehyde.

$$$$
