2wzs_ligand
                    3D
 Schrodinger Suite 2020-3.
 27 28  0  0  1  0            999 V2000
   44.1390   24.4400  100.9170 C   0  0  0  0  0  0
   43.9610   23.2130  100.4380 N   0  0  0  0  0  0
   44.9420   23.5900  103.1260 C   0  0  2  0  0  0
   44.3010   22.2600  102.6430 C   0  0  1  0  0  0
   44.4460   21.9950  101.1340 C   0  0  1  0  0  0
   43.6280   20.7630  100.7080 C   0  0  0  0  0  0
   42.8970   24.6140   99.1410 C   0  0  0  0  0  0
   43.1670   23.2840   99.3620 C   0  0  0  0  0  0
   43.5100   25.3170  100.1180 N   0  3  0  0  0  0
   44.2360   24.0740  104.2650 O   0  0  0  0  0  0
   44.4740   25.9530  102.7150 O   0  0  0  0  0  0
   44.8530   21.1480  103.3700 O   0  0  0  0  0  0
   44.9620   24.7450  102.1150 C   0  0  2  0  0  0
   42.2720   20.8240  101.1890 O   0  0  0  0  0  0
   45.9787   23.3486  103.4033 H   0  0  0  0  0  0
   43.2281   22.2977  102.8828 H   0  0  0  0  0  0
   45.4941   21.8133  100.8539 H   0  0  0  0  0  0
   43.6008   20.7027   99.6100 H   0  0  0  0  0  0
   44.0960   19.8539  101.1136 H   0  0  0  0  0  0
   42.2989   25.0250   98.3277 H   0  0  0  0  0  0
   42.8025   22.4437   98.7712 H   0  0  0  0  0  0
   44.0868   23.4214  105.1378 H   0  0  0  0  0  0
   44.4227   26.8791  102.1236 H   0  0  0  0  0  0
   44.8429   21.1505  104.4700 H   0  0  0  0  0  0
   45.9958   24.9407  101.7942 H   0  0  0  0  0  0
   41.5700   20.0087  100.9600 H   0  0  0  0  0  0
   43.5641   26.3943  100.3335 H   0  0  0  0  0  0
  1  2  1  0  0  0
  1  9  2  0  0  0
  1 13  1  0  0  0
  2  5  1  0  0  0
  2  8  1  0  0  0
  3  4  1  0  0  0
  3 10  1  0  0  0
  3 13  1  0  0  0
  3 15  1  0  0  0
  4  5  1  0  0  0
  4 12  1  0  0  0
  4 16  1  0  0  0
  5  6  1  0  0  0
  5 17  1  0  0  0
  6 14  1  0  0  0
  6 18  1  0  0  0
  6 19  1  0  0  0
  7  8  2  0  0  0
  7  9  1  0  0  0
  7 20  1  0  0  0
  8 21  1  0  0  0
  9 27  1  0  0  0
 10 22  1  0  0  0
 11 13  1  0  0  0
 11 23  1  0  0  0
 12 24  1  0  0  0
 13 25  1  0  0  0
 14 26  1  0  0  0
M  CHG  1   9   1
M  END
> <s_m_source_file>
../2wzs_ligand.sdf

> <i_m_source_file_index>
1

> <s_epik_input>
bjFbY0hdW2NIXW4oYzEyKVtDQEhdKFtDSDJdW09IXSlbQ0BASF0oW09IXSlbQ0BIXShbT0hdKVtDQEBIXTJbT0hd

> <s_epik_cmdline>
J2VwaWtfYXBwJywgJy1pbWFlJywgJ2xpZ2FuZF9wcm8ubWFlJywgJy1vbWFlJywgJ2xpZ2FuZF9wcmVwLm1hZScsICctbXMnLCAnMScsICctcGgnLCAnNycsICctcGh0JywgJzAuNScsICctbnQn

> <r_lp_tautomer_probability>
1

> <r_epik_Ionization_Penalty>
  0.2921

> <r_epik_Ionization_Penalty_Charging>
  0.0000

> <r_epik_Ionization_Penalty_Neutral>
  0.2921

> <r_epik_State_Penalty>
  0.2847

> <r_epik_Charging_Adjusted_Penalty>
0.284745957002558

> <i_epik_Tot_Q>
1

> <i_epik_Tot_abs_Q>
1

$$$$
