2wzx_ligand
                    3D
 Schrodinger Suite 2020-3.
 44 45  0  0  1  0            999 V2000
    1.5440   10.3330   18.3910 S   0  0  0  0  0  0
    1.4390   10.6630   16.9810 O   0  5  0  0  0  0
    0.8170   11.2230   19.2770 O   0  0  0  0  0  0
    1.2900    8.9240   18.6310 O   0  0  0  0  0  0
    3.2010   10.5340   18.7750 N   0  0  3  0  0  0
    3.6880   11.9020   19.0510 C   0  0  2  0  0  0
    3.5840   12.8210   17.8470 C   0  0  0  0  0  0
    4.8330   13.6880   17.9030 C   0  0  0  0  0  0
    5.7500   12.9350   18.7230 N   0  0  0  0  0  0
    5.1640   11.7600   19.2810 C   0  0  2  0  0  0
    5.5880   10.6090   18.4220 C   0  0  0  0  0  0
    5.7170   10.5370   17.2020 O   0  0  0  0  0  0
    7.1050   13.1330   18.8430 C   0  0  0  0  0  0
    7.8410   12.2520   19.2660 O   0  0  0  0  0  0
    7.5180   14.3820   18.4660 N   0  0  0  0  0  0
    8.9240   14.6670   18.3420 C   0  0  1  0  0  0
    9.1900   14.9820   16.8870 C   0  0  0  0  0  0
   10.6540   15.2690   16.6460 C   0  0  0  0  0  0
   10.9320   16.7590   16.7380 C   0  0  0  0  0  0
   10.8090   17.2620   18.1370 N   0  3  0  0  0  0
   10.7110   16.2300   19.2050 C   0  0  0  0  0  0
    9.2590   15.8100   19.2850 C   0  0  0  0  0  0
    3.9181    9.7083   18.6569 H   0  0  0  0  0  0
    3.0950   12.2980   19.8886 H   0  0  0  0  0  0
    3.5496   12.2182   16.9275 H   0  0  0  0  0  0
    2.6675   13.4244   17.9244 H   0  0  0  0  0  0
    5.2196   13.8403   16.8845 H   0  0  0  0  0  0
    4.5837   14.6617   18.3499 H   0  0  0  0  0  0
    5.4621   11.6538   20.3345 H   0  0  0  0  0  0
    5.7987    9.7309   19.0501 H   0  0  0  0  0  0
    6.7771   15.1679   18.2578 H   0  0  0  0  0  0
    9.5245   13.7920   18.6314 H   0  0  0  0  0  0
    8.8950   14.1233   16.2661 H   0  0  0  0  0  0
    8.6067   15.8663   16.5907 H   0  0  0  0  0  0
   11.2592   14.7475   17.4021 H   0  0  0  0  0  0
   10.9366   14.9163   15.6431 H   0  0  0  0  0  0
   11.9542   16.9636   16.3868 H   0  0  0  0  0  0
   10.2125   17.3057   16.1107 H   0  0  0  0  0  0
   11.6903   17.8712   18.3864 H   0  0  0  0  0  0
    9.9011   17.8764   18.2273 H   0  0  0  0  0  0
   11.3494   15.3725   18.9459 H   0  0  0  0  0  0
   11.0441   16.6593   20.1614 H   0  0  0  0  0  0
    8.6418   16.6852   19.0341 H   0  0  0  0  0  0
    9.0549   15.5023   20.3212 H   0  0  0  0  0  0
  1  2  1  0  0  0
  1  3  2  0  0  0
  1  4  2  0  0  0
  1  5  1  0  0  0
  5  6  1  0  0  0
  5 23  1  0  0  0
  6  7  1  0  0  0
  6 10  1  0  0  0
  6 24  1  0  0  0
  7  8  1  0  0  0
  7 25  1  0  0  0
  7 26  1  0  0  0
  8  9  1  0  0  0
  8 27  1  0  0  0
  8 28  1  0  0  0
  9 10  1  0  0  0
  9 13  1  0  0  0
 10 11  1  0  0  0
 10 29  1  0  0  0
 11 12  2  0  0  0
 11 30  1  0  0  0
 13 14  2  0  0  0
 13 15  1  0  0  0
 15 16  1  0  0  0
 15 31  1  0  0  0
 16 17  1  0  0  0
 16 22  1  0  0  0
 16 32  1  0  0  0
 17 18  1  0  0  0
 17 33  1  0  0  0
 17 34  1  0  0  0
 18 19  1  0  0  0
 18 35  1  0  0  0
 18 36  1  0  0  0
 19 20  1  0  0  0
 19 37  1  0  0  0
 19 38  1  0  0  0
 20 21  1  0  0  0
 20 39  1  0  0  0
 20 40  1  0  0  0
 21 22  1  0  0  0
 21 41  1  0  0  0
 21 42  1  0  0  0
 22 43  1  0  0  0
 22 44  1  0  0  0
M  CHG  2   2  -1  20   1
M  END
> <s_m_source_file>
../2wzx_ligand.sdf

> <i_m_source_file_index>
1

> <s_epik_input>
W09IXVMoPU8pKD1PKVtOSF1bQ0BASF0xW0NIMl1bQ0gyXU4oW0NAQEhdMVtDSF09TylDKD1PKVtOSF1bQ0BIXTJbQ0gyXVtDSDJdW0NIMl1bTkgyK11bQ0gyXVtDSDJdMg==

> <s_epik_cmdline>
J2VwaWtfYXBwJywgJy1pbWFlJywgJ2xpZ2FuZF9wcm8ubWFlJywgJy1vbWFlJywgJ2xpZ2FuZF9wcmVwLm1hZScsICctbXMnLCAnMScsICctcGgnLCAnNycsICctcGh0JywgJzAuNScsICctbnQn

> <r_lp_tautomer_probability>
1

> <r_epik_Ionization_Penalty>
  0.0057

> <r_epik_Ionization_Penalty_Charging>
  0.0004

> <r_epik_Ionization_Penalty_Neutral>
  0.0052

> <r_epik_State_Penalty>
 -0.0000

> <r_epik_Charging_Adjusted_Penalty>
0.000445324946161562

> <i_epik_Tot_Q>
0

> <i_epik_Tot_abs_Q>
2

$$$$
