2wzy_ligand
                    3D
 Schrodinger Suite 2020-3.
114120  0  0  1  0            999 V2000
  -35.4230    6.1550   44.4510 O   0  0  0  0  0  0
  -34.2720    5.9160   44.1320 C   0  0  0  0  0  0
  -33.9120    4.6890   43.4650 O   0  0  0  0  0  0
  -32.4900    4.6640   43.3580 C   0  0  1  0  0  0
  -31.9570    5.8360   44.1870 C   0  0  0  0  0  0
  -33.1150    6.8160   44.3510 C   0  0  2  0  0  0
  -33.1970    7.5490   45.6840 C   0  0  0  0  0  0
  -32.0610    3.3120   43.8620 C   0  0  0  0  0  0
  -31.4840    2.4130   43.0290 C   0  0  0  0  0  0
  -31.0390    2.8320   41.6540 C   0  0  0  0  0  0
  -31.2590    0.9690   43.4230 C   0  0  1  0  0  0
  -32.0660    0.5360   44.6650 C   0  0  2  0  0  0
  -31.9850    1.6010   45.7510 C   0  0  0  0  0  0
  -32.3460    3.0150   45.3230 C   0  0  0  0  0  0
  -31.5910    0.0750   42.2390 C   0  0  0  0  0  0
  -30.7280   -0.6100   41.4680 C   0  0  0  0  0  0
  -29.2300   -0.5690   41.6400 C   0  0  0  0  0  0
  -31.3520   -1.4040   40.3650 C   0  0  1  0  0  0
  -30.5690   -1.2320   39.1870 O   0  0  0  0  0  0
  -31.4530   -2.8760   40.7260 C   0  0  0  0  0  0
  -32.1510   -3.6620   39.6230 C   0  0  1  0  0  0
  -31.8890   -5.0550   39.8080 O   0  0  0  0  0  0
  -33.6710   -3.4880   39.6540 C   0  0  0  0  0  0
  -34.2330   -4.8900   39.4560 C   0  0  0  0  0  0
  -33.1070   -5.7940   39.9430 C   0  0  2  0  0  0
  -33.3180   -6.0990   41.3090 O   0  0  0  0  0  0
  -32.9880   -7.1610   39.2860 C   0  0  0  0  0  0
  -32.5950   -8.1150   40.4140 C   0  0  0  0  0  0
  -32.6630   -7.2920   41.7080 C   0  0  2  0  0  0
  -33.4380   -7.9840   42.8460 C   0  0  2  0  0  0
  -32.8820   -9.3690   43.1660 C   0  0  0  0  0  0
  -34.7870   -8.1600   42.4110 O   0  0  0  0  0  0
  -33.4420   -7.1110   44.1070 C   0  0  0  0  0  0
  -32.0830   -6.4750   44.4290 C   0  0  0  0  0  0
  -31.3510   -6.8740   42.1100 O   0  0  0  0  0  0
  -31.2930   -5.9590   43.2150 C   0  0  2  0  0  0
  -29.8070   -5.8250   43.5680 C   0  0  0  0  0  0
  -29.5570   -4.7790   44.6290 C   0  0  0  0  0  0
  -28.9150   -5.1220   45.7380 C   0  0  0  0  0  0
  -30.0540   -3.3750   44.3980 C   0  0  0  0  0  0
  -29.4740   -2.3930   45.3960 C   0  0  0  0  0  0
  -29.9120   -0.9700   45.0710 C   0  0  0  0  0  0
  -31.3860   -0.6640   45.3050 C   0  0  0  0  0  0
  -32.0450   -1.4200   46.0920 N   0  3  0  0  0  0
  -33.4550   -1.3900   46.5270 C   0  0  0  0  0  0
  -34.3190   -1.8920   45.3710 C   0  0  2  0  0  0
  -34.2510   -3.4170   45.2960 C   0  0  0  0  0  0
  -33.9390   -1.1940   44.0620 C   0  0  1  0  0  0
  -35.0570   -1.2520   43.0350 C   0  0  0  0  0  0
  -33.5390    0.2690   44.2920 C   0  0  0  0  0  0
  -32.1570    4.7762   42.3156 H   0  0  0  0  0  0
  -31.6137    5.4673   45.1649 H   0  0  0  0  0  0
  -31.1162    6.3075   43.6572 H   0  0  0  0  0  0
  -33.0553    7.6619   43.6504 H   0  0  0  0  0  0
  -34.0674    8.2215   45.6797 H   0  0  0  0  0  0
  -32.2799    8.1371   45.8360 H   0  0  0  0  0  0
  -33.3028    6.8176   46.4987 H   0  0  0  0  0  0
  -31.2629    3.8987   41.5054 H   0  0  0  0  0  0
  -31.5727    2.2366   40.8986 H   0  0  0  0  0  0
  -29.9561    2.6670   41.5529 H   0  0  0  0  0  0
  -30.1946    0.8777   43.6852 H   0  0  0  0  0  0
  -32.6736    1.3434   46.5692 H   0  0  0  0  0  0
  -30.9570    1.6515   46.1391 H   0  0  0  0  0  0
  -31.7669    3.7028   45.9567 H   0  0  0  0  0  0
  -33.4195    3.1493   45.5218 H   0  0  0  0  0  0
  -32.6711    0.0206   42.0377 H   0  0  0  0  0  0
  -28.9772    0.0656   42.5022 H   0  0  0  0  0  0
  -28.7679   -0.1547   40.7318 H   0  0  0  0  0  0
  -28.8526   -1.5879   41.8114 H   0  0  0  0  0  0
  -32.3570   -1.0146   40.1449 H   0  0  0  0  0  0
  -30.3947   -0.2231   38.7849 H   0  0  0  0  0  0
  -30.4433   -3.2887   40.8684 H   0  0  0  0  0  0
  -32.0290   -2.9866   41.6566 H   0  0  0  0  0  0
  -31.7395   -3.3438   38.6538 H   0  0  0  0  0  0
  -33.9717   -3.0634   40.6231 H   0  0  0  0  0  0
  -33.9790   -2.8093   38.8449 H   0  0  0  0  0  0
  -35.1505   -5.0048   40.0519 H   0  0  0  0  0  0
  -34.4650   -5.0452   38.3920 H   0  0  0  0  0  0
  -33.9543   -7.4388   38.8399 H   0  0  0  0  0  0
  -32.2186   -7.1247   38.5007 H   0  0  0  0  0  0
  -33.2998   -8.9590   40.4426 H   0  0  0  0  0  0
  -31.5773   -8.4930   40.2367 H   0  0  0  0  0  0
  -32.8845   -9.9847   42.2544 H   0  0  0  0  0  0
  -33.5085   -9.8473   43.9332 H   0  0  0  0  0  0
  -31.8523   -9.2731   43.5409 H   0  0  0  0  0  0
  -35.0020   -8.7603   41.5147 H   0  0  0  0  0  0
  -34.1636   -6.2902   43.9824 H   0  0  0  0  0  0
  -33.7286   -7.7224   44.9754 H   0  0  0  0  0  0
  -32.2307   -5.6116   45.0944 H   0  0  0  0  0  0
  -31.4402   -7.2159   44.9269 H   0  0  0  0  0  0
  -31.7555   -5.0188   42.8801 H   0  0  0  0  0  0
  -29.4317   -6.7874   43.9460 H   0  0  0  0  0  0
  -29.2411   -5.5382   42.6694 H   0  0  0  0  0  0
  -28.5658   -6.1562   45.8739 H   0  0  0  0  0  0
  -28.7318   -4.3722   46.5217 H   0  0  0  0  0  0
  -29.7676   -3.0462   43.3881 H   0  0  0  0  0  0
  -31.1496   -3.3535   44.4937 H   0  0  0  0  0  0
  -29.8224   -2.6493   46.4074 H   0  0  0  0  0  0
  -28.3756   -2.4424   45.3631 H   0  0  0  0  0  0
  -29.3468   -0.2611   45.6939 H   0  0  0  0  0  0
  -29.7180   -0.7602   44.0088 H   0  0  0  0  0  0
  -33.5817   -2.0403   47.4051 H   0  0  0  0  0  0
  -33.7357   -0.3595   46.7903 H   0  0  0  0  0  0
  -35.3719   -1.6312   45.5540 H   0  0  0  0  0  0
  -34.5360   -3.8450   46.2684 H   0  0  0  0  0  0
  -33.2256   -3.7264   45.0455 H   0  0  0  0  0  0
  -34.9425   -3.7771   44.5201 H   0  0  0  0  0  0
  -33.0780   -1.7484   43.6605 H   0  0  0  0  0  0
  -35.3468   -2.2998   42.8672 H   0  0  0  0  0  0
  -34.7090   -0.8118   42.0889 H   0  0  0  0  0  0
  -35.9247   -0.6864   43.4053 H   0  0  0  0  0  0
  -34.1931    0.6336   45.0977 H   0  0  0  0  0  0
  -33.7815    0.7947   43.3567 H   0  0  0  0  0  0
  -31.5495   -2.2734   46.5780 H   0  0  0  0  0  0
  1  2  2  0  0  0
  2  3  1  0  0  0
  2  6  1  0  0  0
  3  4  1  0  0  0
  4  5  1  0  0  0
  4  8  1  0  0  0
  4 51  1  0  0  0
  5  6  1  0  0  0
  5 52  1  0  0  0
  5 53  1  0  0  0
  6  7  1  0  0  0
  6 54  1  0  0  0
  7 55  1  0  0  0
  7 56  1  0  0  0
  7 57  1  0  0  0
  8  9  2  0  0  0
  8 14  1  0  0  0
  9 10  1  0  0  0
  9 11  1  0  0  0
 10 58  1  0  0  0
 10 59  1  0  0  0
 10 60  1  0  0  0
 11 12  1  0  0  0
 11 15  1  0  0  0
 11 61  1  0  0  0
 12 13  1  0  0  0
 12 43  1  0  0  0
 12 50  1  0  0  0
 13 14  1  0  0  0
 13 62  1  0  0  0
 13 63  1  0  0  0
 14 64  1  0  0  0
 14 65  1  0  0  0
 15 16  2  0  0  0
 15 66  1  0  0  0
 16 17  1  0  0  0
 16 18  1  0  0  0
 17 67  1  0  0  0
 17 68  1  0  0  0
 17 69  1  0  0  0
 18 19  1  0  0  0
 18 20  1  0  0  0
 18 70  1  0  0  0
 19 71  1  0  0  0
 20 21  1  0  0  0
 20 72  1  0  0  0
 20 73  1  0  0  0
 21 22  1  0  0  0
 21 23  1  0  0  0
 21 74  1  0  0  0
 22 25  1  0  0  0
 23 24  1  0  0  0
 23 75  1  0  0  0
 23 76  1  0  0  0
 24 25  1  0  0  0
 24 77  1  0  0  0
 24 78  1  0  0  0
 25 26  1  0  0  0
 25 27  1  0  0  0
 26 29  1  0  0  0
 27 28  1  0  0  0
 27 79  1  0  0  0
 27 80  1  0  0  0
 28 29  1  0  0  0
 28 81  1  0  0  0
 28 82  1  0  0  0
 29 30  1  0  0  0
 29 35  1  0  0  0
 30 31  1  0  0  0
 30 32  1  0  0  0
 30 33  1  0  0  0
 31 83  1  0  0  0
 31 84  1  0  0  0
 31 85  1  0  0  0
 32 86  1  0  0  0
 33 34  1  0  0  0
 33 87  1  0  0  0
 33 88  1  0  0  0
 34 36  1  0  0  0
 34 89  1  0  0  0
 34 90  1  0  0  0
 35 36  1  0  0  0
 36 37  1  0  0  0
 36 91  1  0  0  0
 37 38  1  0  0  0
 37 92  1  0  0  0
 37 93  1  0  0  0
 38 39  2  0  0  0
 38 40  1  0  0  0
 39 94  1  0  0  0
 39 95  1  0  0  0
 40 41  1  0  0  0
 40 96  1  0  0  0
 40 97  1  0  0  0
 41 42  1  0  0  0
 41 98  1  0  0  0
 41 99  1  0  0  0
 42 43  1  0  0  0
 42100  1  0  0  0
 42101  1  0  0  0
 43 44  2  0  0  0
 44 45  1  0  0  0
 44114  1  0  0  0
 45 46  1  0  0  0
 45102  1  0  0  0
 45103  1  0  0  0
 46 47  1  0  0  0
 46 48  1  0  0  0
 46104  1  0  0  0
 47105  1  0  0  0
 47106  1  0  0  0
 47107  1  0  0  0
 48 49  1  0  0  0
 48 50  1  0  0  0
 48108  1  0  0  0
 49109  1  0  0  0
 49110  1  0  0  0
 49111  1  0  0  0
 50112  1  0  0  0
 50113  1  0  0  0
M  CHG  1  44   1
M  END
> <s_m_source_file>
../2wzy_ligand.sdf

> <i_m_source_file_index>
1

> <s_epik_input>
Tz1DMU9bQ0BASF0oW0NIMl1bQ0BASF0xW0NIM10pQyhbQ0gyXVtDSDJdMik9QyhbQ0gzXSlbQ0BASF0oW0NAXTIzNCkvW0NIXT1DKFxbQ0gzXSlbQ0BASF0oW09IXSlbQ0gyXVtDQEhdNU9bQ0BdNihbQ0gyXVtDSDJdNSlPW0NAXTcoW0NIMl1bQ0gyXTYpW0NAXShbQ0gzXSkoW09IXSlbQ0gyXVtDSDJdW0NASF0oTzcpW0NIMl1DKD1bQ0gyXSlbQ0gyXVtDSDJdW0NIMl1DMz1OW0NIMl1bQ0BIXShbQ0gzXSlbQ0BASF0oW0NIM10pW0NIMl00

> <s_epik_cmdline>
J2VwaWtfYXBwJywgJy1pbWFlJywgJ2xpZ2FuZF9wcm8ubWFlJywgJy1vbWFlJywgJ2xpZ2FuZF9wcmVwLm1hZScsICctbXMnLCAnMScsICctcGgnLCAnNycsICctcGh0JywgJzAuNScsICctbnQn

> <r_epik_Ionization_Penalty>
  0.0121

> <r_epik_Ionization_Penalty_Charging>
  0.0121

> <r_epik_Ionization_Penalty_Neutral>
  0.0000

> <r_epik_State_Penalty>
  0.0093

> <r_epik_Charging_Adjusted_Penalty>
0.0213658292511669

> <i_epik_Tot_Q>
1

> <i_epik_Tot_abs_Q>
1

> <s_epik_Chemistry_Notes>
This compound has an ester and may undergo hydrolysis at high or low pH. This compound has an imine and may undergo hydrolysis.

$$$$
