2wzz_ligand
                    3D
 Schrodinger Suite 2020-3.
 44 45  0  0  1  0            999 V2000
    1.5880   10.3640   18.4360 S   0  0  0  0  0  0
    1.5560   10.6450   17.0140 O   0  0  0  0  0  0
    0.8620   11.3130   19.2630 O   0  0  0  0  0  0
    1.3150    8.9720   18.7560 O   0  5  0  0  0  0
    3.2260   10.5980   18.8580 N   0  0  3  0  0  0
    3.6870   11.9850   19.0960 C   0  0  2  0  0  0
    3.5670   12.9030   17.8920 C   0  0  0  0  0  0
    4.7940   13.8020   17.9480 C   0  0  0  0  0  0
    5.7340   13.0670   18.7610 N   0  0  0  0  0  0
    5.1640   11.8880   19.3320 C   0  0  2  0  0  0
    5.6420   10.7470   18.4870 C   0  0  0  0  0  0
    5.7090   10.6310   17.2650 O   0  0  0  0  0  0
    7.0810   13.3490   18.9080 C   0  0  0  0  0  0
    7.8710   12.5290   19.3640 O   0  0  0  0  0  0
    7.4480   14.6140   18.5170 N   0  0  0  0  0  0
    8.8310   15.0070   18.6520 C   0  0  2  0  0  0
    8.9030   16.1480   19.6510 C   0  0  0  0  0  0
   10.3160   16.3560   20.1500 C   0  0  0  0  0  0
   11.0640   17.3930   19.3340 C   0  0  0  0  0  0
   10.9100   17.1790   17.8650 N   0  3  0  0  0  0
   10.8700   15.7690   17.3910 C   0  0  0  0  0  0
    9.4050   15.3770   17.2960 C   0  0  0  0  0  0
    3.9574    9.7790   18.7921 H   0  0  0  0  0  0
    3.0731   12.3728   19.9223 H   0  0  0  0  0  0
    3.5501   12.3005   16.9718 H   0  0  0  0  0  0
    2.6367   13.4853   17.9661 H   0  0  0  0  0  0
    5.1724   13.9699   16.9288 H   0  0  0  0  0  0
    4.5216   14.7664   18.4014 H   0  0  0  0  0  0
    5.4396   11.8013   20.3934 H   0  0  0  0  0  0
    5.9676    9.9211   19.1365 H   0  0  0  0  0  0
    6.7124   15.3222   18.1079 H   0  0  0  0  0  0
    9.3993   14.1449   19.0314 H   0  0  0  0  0  0
    8.5617   17.0773   19.1714 H   0  0  0  0  0  0
    8.2581   15.9220   20.5129 H   0  0  0  0  0  0
   10.2891   16.6976   21.1953 H   0  0  0  0  0  0
   10.8700   15.4077   20.0884 H   0  0  0  0  0  0
   10.6794   18.3953   19.5737 H   0  0  0  0  0  0
   12.1364   17.3447   19.5740 H   0  0  0  0  0  0
    9.9675   17.6332   17.5251 H   0  0  0  0  0  0
   11.7538   17.6461   17.3360 H   0  0  0  0  0  0
   11.3568   15.6990   16.4071 H   0  0  0  0  0  0
   11.3999   15.1257   18.1089 H   0  0  0  0  0  0
    9.3212   14.5170   16.6153 H   0  0  0  0  0  0
    8.8460   16.2287   16.8812 H   0  0  0  0  0  0
  1  2  2  0  0  0
  1  3  2  0  0  0
  1  4  1  0  0  0
  1  5  1  0  0  0
  5  6  1  0  0  0
  5 23  1  0  0  0
  6  7  1  0  0  0
  6 10  1  0  0  0
  6 24  1  0  0  0
  7  8  1  0  0  0
  7 25  1  0  0  0
  7 26  1  0  0  0
  8  9  1  0  0  0
  8 27  1  0  0  0
  8 28  1  0  0  0
  9 10  1  0  0  0
  9 13  1  0  0  0
 10 11  1  0  0  0
 10 29  1  0  0  0
 11 12  2  0  0  0
 11 30  1  0  0  0
 13 14  2  0  0  0
 13 15  1  0  0  0
 15 16  1  0  0  0
 15 31  1  0  0  0
 16 17  1  0  0  0
 16 22  1  0  0  0
 16 32  1  0  0  0
 17 18  1  0  0  0
 17 33  1  0  0  0
 17 34  1  0  0  0
 18 19  1  0  0  0
 18 35  1  0  0  0
 18 36  1  0  0  0
 19 20  1  0  0  0
 19 37  1  0  0  0
 19 38  1  0  0  0
 20 21  1  0  0  0
 20 39  1  0  0  0
 20 40  1  0  0  0
 21 22  1  0  0  0
 21 41  1  0  0  0
 21 42  1  0  0  0
 22 43  1  0  0  0
 22 44  1  0  0  0
M  CHG  2   4  -1  20   1
M  END
> <s_m_source_file>
../2wzz_ligand.sdf

> <i_m_source_file_index>
1

> <s_epik_input>
Tz1TKD1PKShbT0hdKVtOSF1bQ0BASF0xW0NIMl1bQ0gyXU4oW0NAQEhdMVtDSF09TylDKD1PKVtOSF1bQ0BASF0yW0NIMl1bQ0gyXVtDSDJdW05IMitdW0NIMl1bQ0gyXTI=

> <s_epik_cmdline>
J2VwaWtfYXBwJywgJy1pbWFlJywgJ2xpZ2FuZF9wcm8ubWFlJywgJy1vbWFlJywgJ2xpZ2FuZF9wcmVwLm1hZScsICctbXMnLCAnMScsICctcGgnLCAnNycsICctcGh0JywgJzAuNScsICctbnQn

> <r_lp_tautomer_probability>
1

> <r_epik_Ionization_Penalty>
  0.0057

> <r_epik_Ionization_Penalty_Charging>
  0.0004

> <r_epik_Ionization_Penalty_Neutral>
  0.0052

> <r_epik_State_Penalty>
 -0.0000

> <r_epik_Charging_Adjusted_Penalty>
0.000445324946161562

> <i_epik_Tot_Q>
0

> <i_epik_Tot_abs_Q>
2

$$$$
