2x09_ligand
                    3D
 Schrodinger Suite 2020-3.
 30 31  0  0  1  0            999 V2000
   48.8940   41.8300   74.1300 O   0  0  0  0  0  0
   49.0490   41.8200   72.7020 C   0  0  1  0  0  0
   49.6870   43.0950   72.1610 C   0  0  2  0  0  0
   48.8250   44.2140   72.2750 O   0  0  0  0  0  0
   49.7900   42.6640   70.6810 C   0  0  1  0  0  0
   50.8100   43.4110   69.7920 C   0  0  1  0  0  0
   51.7910   44.1020   70.5730 O   0  0  0  0  0  0
   51.4760   42.2690   69.0480 C   0  0  0  0  0  0
   51.6060   41.2390   70.1670 C   0  0  0  0  0  0
   50.2700   41.2520   70.7650 N   0  0  1  0  0  0
   50.2020   40.9020   72.2150 C   0  0  2  0  0  0
   49.9310   39.4130   72.3150 C   0  0  0  0  0  0
   49.3620   39.0310   73.5960 N   0  3  0  0  0  0
   48.1083   42.4446   74.5937 H   0  0  0  0  0  0
   48.0050   41.5858   72.4467 H   0  0  0  0  0  0
   50.5777   43.4692   72.6870 H   0  0  0  0  0  0
   48.6310   44.6606   73.2614 H   0  0  0  0  0  0
   48.8106   42.8280   70.2078 H   0  0  0  0  0  0
   50.3892   44.2151   69.1705 H   0  0  0  0  0  0
   51.4966   44.9664   71.1863 H   0  0  0  0  0  0
   50.8281   41.9429   68.2210 H   0  0  0  0  0  0
   52.4420   42.6076   68.6453 H   0  0  0  0  0  0
   51.8721   40.2621   69.7370 H   0  0  0  0  0  0
   52.3912   41.5570   70.8686 H   0  0  0  0  0  0
   51.1213   41.0518   72.8001 H   0  0  0  0  0  0
   49.2209   39.1160   71.5292 H   0  0  0  0  0  0
   50.8728   38.8594   72.1864 H   0  0  0  0  0  0
   49.1876   37.9450   73.6105 H   0  0  0  0  0  0
   48.4078   39.5576   73.7450 H   0  0  0  0  0  0
   50.0598   39.3011   74.4023 H   0  0  0  0  0  0
  1  2  1  0  0  0
  1 14  1  0  0  0
  2  3  1  0  0  0
  2 11  1  0  0  0
  2 15  1  0  0  0
  3  4  1  0  0  0
  3  5  1  0  0  0
  3 16  1  0  0  0
  4 17  1  0  0  0
  5  6  1  0  0  0
  5 10  1  0  0  0
  5 18  1  0  0  0
  6  7  1  0  0  0
  6  8  1  0  0  0
  6 19  1  0  0  0
  7 20  1  0  0  0
  8  9  1  0  0  0
  8 21  1  0  0  0
  8 22  1  0  0  0
  9 10  1  0  0  0
  9 23  1  0  0  0
  9 24  1  0  0  0
 10 11  1  0  0  0
 11 12  1  0  0  0
 11 25  1  0  0  0
 12 13  1  0  0  0
 12 26  1  0  0  0
 12 27  1  0  0  0
 13 28  1  0  0  0
 13 29  1  0  0  0
 13 30  1  0  0  0
M  CHG  1  13   1
M  END
> <s_m_source_file>
../2x09_ligand.sdf

> <i_m_source_file_index>
1

> <s_epik_input>
W09IXVtDQEhdMVtDQEhdKFtPSF0pW0NAQEhdKFtDSDJdW05IMytdKVtOQEBIK10oW0NAQEhdMTIpW0NIMl1bQ0gyXVtDQEBIXTJbT0hd

> <s_epik_cmdline>
J2VwaWtfYXBwJywgJy1pbWFlJywgJ2xpZ2FuZF9wcm8ubWFlJywgJy1vbWFlJywgJ2xpZ2FuZF9wcmVwLm1hZScsICctbXMnLCAnMScsICctcGgnLCAnNycsICctcGh0JywgJzAuNScsICctbnQn

> <r_epik_Ionization_Penalty>
  0.2466

> <r_epik_Ionization_Penalty_Charging>
  0.0037

> <r_epik_Ionization_Penalty_Neutral>
  0.2428

> <r_epik_State_Penalty>
  0.3593

> <r_epik_Charging_Adjusted_Penalty>
0.36299591419081

> <i_epik_Tot_Q>
1

> <i_epik_Tot_abs_Q>
1

$$$$
