2x24_ligand
                    3D
 Schrodinger Suite 2020-3.
 76 79  0  0  1  0            999 V2000
    3.8420   20.6240   41.0310 C   0  0  0  0  0  0
    4.6080   20.8640   42.3340 C   0  0  0  0  0  0
    3.9380   22.0270   43.0770 C   0  0  0  0  0  0
    4.5250   19.5990   43.1870 C   0  0  0  0  0  0
    6.0200   21.0720   42.0460 O   0  0  0  0  0  0
    6.8480   22.0010   42.5930 C   0  0  0  0  0  0
    6.8030   22.3250   43.7690 O   0  0  0  0  0  0
    7.7770   22.5630   41.7900 N   0  0  0  0  0  0
    7.8850   22.1230   40.3880 C   0  0  0  0  0  0
    7.8500   23.2710   39.3830 C   0  0  1  0  0  0
    6.5150   24.0390   39.4130 C   0  0  0  0  0  0
    6.4720   25.0100   38.2270 C   0  0  0  0  0  0
    7.7260   25.9090   38.2080 C   0  0  2  0  0  0
    7.6900   26.7980   36.9700 C   0  0  0  0  0  0
    6.8650   27.9380   37.3730 N   0  0  0  0  0  0
    6.2420   28.7640   36.5120 C   0  0  0  0  0  0
    6.4120   28.7080   35.3070 O   0  0  0  0  0  0
    5.4610   29.8480   37.1270 C   0  0  0  0  0  0
    6.2100   30.8570   37.6780 C   0  0  0  0  0  0
    5.6190   31.9530   38.3150 C   0  0  0  0  0  0
    4.3000   32.0320   38.4490 N   0  0  0  0  0  0
    3.4900   31.0610   37.9650 C   0  0  0  0  0  0
    2.0790   31.1450   38.1130 C   0  0  0  0  0  0
    1.2700   30.1540   37.6030 C   0  0  0  0  0  0
    1.8130   29.0470   36.9300 C   0  0  0  0  0  0
    3.1770   28.9150   36.7750 C   0  0  0  0  0  0
    4.0440   29.9150   37.2840 C   0  0  0  0  0  0
    6.6000   32.9440   38.8090 C   0  0  0  0  0  0
    7.8960   32.4640   39.0700 C   0  0  0  0  0  0
    8.8930   33.3110   39.5070 C   0  0  0  0  0  0
    8.6260   34.6670   39.6350 C   0  0  0  0  0  0
    9.7320   35.5840   40.0910 C   0  0  0  0  0  0
   10.9730   35.2590   39.3730 N   0  3  0  0  0  0
    7.3390   35.1600   39.3690 C   0  0  0  0  0  0
    6.3230   34.3090   38.9380 C   0  0  0  0  0  0
    9.0810   25.1650   38.3230 C   0  0  0  0  0  0
    9.0720   24.2030   39.5270 C   0  0  0  0  0  0
    2.7766   20.4677   41.2555 H   0  0  0  0  0  0
    4.2452   19.7330   40.5274 H   0  0  0  0  0  0
    3.9537   21.4988   40.3736 H   0  0  0  0  0  0
    2.8788   21.7879   43.2531 H   0  0  0  0  0  0
    4.0115   22.9411   42.4695 H   0  0  0  0  0  0
    4.4433   22.1858   44.0411 H   0  0  0  0  0  0
    3.4735   19.3928   43.4357 H   0  0  0  0  0  0
    5.0995   19.7434   44.1139 H   0  0  0  0  0  0
    4.9422   18.7501   42.6255 H   0  0  0  0  0  0
    8.4499   23.3434   42.1749 H   0  0  0  0  0  0
    8.8357   21.5889   40.2435 H   0  0  0  0  0  0
    7.0472   21.4515   40.1488 H   0  0  0  0  0  0
    7.9158   22.8054   38.3886 H   0  0  0  0  0  0
    5.6803   23.3263   39.3398 H   0  0  0  0  0  0
    6.4361   24.6005   40.3556 H   0  0  0  0  0  0
    6.4308   24.4395   37.2874 H   0  0  0  0  0  0
    5.5798   25.6483   38.3078 H   0  0  0  0  0  0
    7.6726   26.5287   39.1153 H   0  0  0  0  0  0
    8.7140   27.1013   36.7065 H   0  0  0  0  0  0
    7.2453   26.2416   36.1318 H   0  0  0  0  0  0
    6.7229   28.1642   38.4401 H   0  0  0  0  0  0
    7.2970   30.8029   37.6175 H   0  0  0  0  0  0
    1.6362   31.9956   38.6312 H   0  0  0  0  0  0
    0.1894   30.2300   37.7237 H   0  0  0  0  0  0
    1.1485   28.2834   36.5256 H   0  0  0  0  0  0
    3.5873   28.0447   36.2628 H   0  0  0  0  0  0
    8.1159   31.4063   38.9247 H   0  0  0  0  0  0
    9.8809   32.9193   39.7494 H   0  0  0  0  0  0
    9.4527   36.6273   39.8824 H   0  0  0  0  0  0
    9.8920   35.4563   41.1718 H   0  0  0  0  0  0
   11.7773   35.9302   39.7086 H   0  0  0  0  0  0
   10.8155   35.3873   38.2919 H   0  0  0  0  0  0
   11.2548   34.2163   39.5813 H   0  0  0  0  0  0
    7.1316   36.2219   39.5012 H   0  0  0  0  0  0
    5.3321   34.6994   38.7060 H   0  0  0  0  0  0
    9.2600   24.5853   37.4054 H   0  0  0  0  0  0
    9.8909   25.8970   38.4581 H   0  0  0  0  0  0
    8.9919   24.7702   40.4661 H   0  0  0  0  0  0
    9.9927   23.6012   39.5395 H   0  0  0  0  0  0
  1  2  1  0  0  0
  1 38  1  0  0  0
  1 39  1  0  0  0
  1 40  1  0  0  0
  2  3  1  0  0  0
  2  4  1  0  0  0
  2  5  1  0  0  0
  3 41  1  0  0  0
  3 42  1  0  0  0
  3 43  1  0  0  0
  4 44  1  0  0  0
  4 45  1  0  0  0
  4 46  1  0  0  0
  5  6  1  0  0  0
  6  7  2  0  0  0
  6  8  1  0  0  0
  8  9  1  0  0  0
  8 47  1  0  0  0
  9 10  1  0  0  0
  9 48  1  0  0  0
  9 49  1  0  0  0
 10 11  1  0  0  0
 10 37  1  0  0  0
 10 50  1  0  0  0
 11 12  1  0  0  0
 11 51  1  0  0  0
 11 52  1  0  0  0
 12 13  1  0  0  0
 12 53  1  0  0  0
 12 54  1  0  0  0
 13 14  1  0  0  0
 13 36  1  0  0  0
 13 55  1  0  0  0
 14 15  1  0  0  0
 14 56  1  0  0  0
 14 57  1  0  0  0
 15 16  1  0  0  0
 15 58  1  0  0  0
 16 17  2  0  0  0
 16 18  1  0  0  0
 18 19  2  0  0  0
 18 27  1  0  0  0
 19 20  1  0  0  0
 19 59  1  0  0  0
 20 21  2  0  0  0
 20 28  1  0  0  0
 21 22  1  0  0  0
 22 23  1  0  0  0
 22 27  2  0  0  0
 23 24  2  0  0  0
 23 60  1  0  0  0
 24 25  1  0  0  0
 24 61  1  0  0  0
 25 26  2  0  0  0
 25 62  1  0  0  0
 26 27  1  0  0  0
 26 63  1  0  0  0
 28 29  2  0  0  0
 28 35  1  0  0  0
 29 30  1  0  0  0
 29 64  1  0  0  0
 30 31  2  0  0  0
 30 65  1  0  0  0
 31 32  1  0  0  0
 31 34  1  0  0  0
 32 33  1  0  0  0
 32 66  1  0  0  0
 32 67  1  0  0  0
 33 68  1  0  0  0
 33 69  1  0  0  0
 33 70  1  0  0  0
 34 35  2  0  0  0
 34 71  1  0  0  0
 35 72  1  0  0  0
 36 37  1  0  0  0
 36 73  1  0  0  0
 36 74  1  0  0  0
 37 75  1  0  0  0
 37 76  1  0  0  0
M  CHG  1  33   1
M  END
> <s_m_source_file>
../2x24_ligand.sdf

> <i_m_source_file_index>
1

> <s_epik_input>
W0NIM11DKFtDSDNdKShbQ0gzXSlPQyg9TylbTkhdW0NIMl1bQ0BIXTFbQ0gyXVtDSDJdW0NAQEhdKFtDSDJdW0NIMl0xKVtDSDJdW05IXUMoPU8pYyhjKGMyMylbY0hdW2NIXVtjSF1bY0hdMylbY0hdYyhuMiktYzRbY0hdW2NIXWMoW0NIMl1bTkgzK10pW2NIXVtjSF00

> <s_epik_cmdline>
J2VwaWtfYXBwJywgJy1pbWFlJywgJ2xpZ2FuZF9wcm8ubWFlJywgJy1vbWFlJywgJ2xpZ2FuZF9wcmVwLm1hZScsICctbXMnLCAnMScsICctcGgnLCAnNycsICctcGh0JywgJzAuNScsICctbnQn

> <r_epik_Ionization_Penalty>
  0.0280

> <r_epik_Ionization_Penalty_Charging>
  0.0280

> <r_epik_Ionization_Penalty_Neutral>
  0.0000

> <r_epik_State_Penalty>
  0.0230

> <r_epik_Charging_Adjusted_Penalty>
0.0509908129703425

> <i_epik_Tot_Q>
1

> <i_epik_Tot_abs_Q>
1

> <s_epik_Chemistry_Notes>
This compound has an ester and may undergo hydrolysis at high or low pH.

$$$$
