2x2c_ligand
                    3D
 Schrodinger Suite 2020-3.
198198  0  0  1  0            999 V2000
   36.4750    0.5930  -54.9050 N   0  0  0  0  0  0
   36.4180   -0.6040  -55.7620 C   0  0  2  0  0  0
   37.3660   -0.4820  -56.9020 C   0  0  0  0  0  0
   35.0140   -0.7680  -56.2980 C   0  0  0  0  0  0
   34.3550    0.2300  -56.5850 O   0  0  0  0  0  0
   34.5300   -2.0160  -56.4180 N   0  0  0  0  0  0
   35.2940   -3.2280  -56.0680 C   0  0  0  0  0  0
   33.1050   -2.2200  -56.7380 C   0  0  1  0  0  0
   32.9890   -2.9360  -58.0720 C   0  0  0  0  0  0
   33.6120   -2.1820  -59.2450 C   0  0  0  0  0  0
   32.9990   -0.7780  -59.5290 C   0  0  0  0  0  0
   33.5060   -3.0700  -60.4900 C   0  0  0  0  0  0
   32.3380   -2.9960  -55.6810 C   0  0  0  0  0  0
   32.0490   -4.1590  -55.8930 O   0  0  0  0  0  0
   32.0170   -2.3880  -54.5360 N   0  0  0  0  0  0
   32.4400   -1.0150  -54.2330 C   0  0  0  0  0  0
   31.3380   -3.1690  -53.4760 C   0  0  1  0  0  0
   32.0490   -3.0000  -52.1440 C   0  0  0  0  0  0
   33.4670   -3.6000  -52.0610 C   0  0  0  0  0  0
   33.5240   -5.0680  -52.5050 C   0  0  0  0  0  0
   34.0210   -3.5320  -50.6420 C   0  0  0  0  0  0
   29.8920   -2.7200  -53.4070 C   0  0  0  0  0  0
   29.5780   -1.6250  -53.9300 O   0  0  0  0  0  0
   28.9780   -3.4950  -52.8020 N   0  0  0  0  0  0
   29.2420   -4.8380  -52.3290 C   0  0  0  0  0  0
   27.6140   -2.9810  -52.6630 C   0  0  1  0  0  0
   26.5780   -3.8180  -53.3400 C   0  0  0  0  0  0
   27.0330   -4.1670  -54.7330 C   0  0  0  0  0  0
   25.2630   -3.0010  -53.3310 C   0  0  0  0  0  0
   27.1760   -2.8860  -51.2550 C   0  0  0  0  0  0
   26.6600   -3.8590  -50.6940 O   0  0  0  0  0  0
   27.9510   -1.7820  -50.2720 N   0  0  0  0  0  0
   28.3370   -0.5980  -51.0610 C   0  0  0  0  0  0
   27.5740   -1.7990  -48.8740 C   0  0  2  0  0  0
   26.4320   -0.8510  -48.5310 C   0  0  0  0  0  0
   25.8380   -0.2020  -49.4060 O   0  0  0  0  0  0
   28.8810   -1.5560  -48.0910 C   0  0  2  0  0  0
   29.2730   -0.2750  -48.4020 O   0  0  0  0  0  0
   30.0650   -2.5350  -48.3720 C   0  0  2  0  0  0
   29.5950   -3.9860  -48.4520 C   0  0  0  0  0  0
   31.2600   -2.4180  -47.3940 C   0  0  0  0  0  0
   31.0760   -2.8050  -45.9320 C   0  0  0  0  0  0
   31.2860   -1.8510  -44.8360 C   0  0  0  0  0  0
   30.8630   -2.2470  -43.4440 C   0  0  0  0  0  0
   26.0840   -0.7950  -47.2560 N   0  0  0  0  0  0
   24.9800   -0.0140  -46.7850 C   0  0  2  0  0  0
   25.5520    0.8640  -45.6910 C   0  0  0  0  0  0
   25.4130    0.5400  -44.5420 O   0  0  0  0  0  0
   23.9250   -0.9690  -46.1830 C   0  0  0  0  0  0
   23.3480   -1.9490  -47.2110 C   0  0  0  0  0  0
   26.2230    1.9550  -46.0460 N   0  0  0  0  0  0
   26.6830    2.9050  -45.0330 C   0  0  0  0  0  0
   28.1190    3.3410  -45.1590 C   0  0  0  0  0  0
   28.3520    4.5000  -45.4260 O   0  0  0  0  0  0
   26.4450    2.3070  -47.4240 C   0  0  0  0  0  0
   29.1000    2.4550  -44.9480 N   0  0  0  0  0  0
   28.7730    1.0490  -44.8300 C   0  0  0  0  0  0
   30.5090    2.7900  -45.3510 C   0  0  1  0  0  0
   31.5650    2.1800  -44.4590 C   0  0  0  0  0  0
   32.6280    3.0980  -43.8740 C   0  0  0  0  0  0
   32.9160    4.3740  -44.6520 C   0  0  0  0  0  0
   33.8920    2.2660  -43.6590 C   0  0  0  0  0  0
   30.7130    2.2450  -46.7430 C   0  0  0  0  0  0
   30.9150    1.0170  -46.9280 O   0  0  0  0  0  0
   30.5980    3.1180  -47.7380 N   0  0  0  0  0  0
   30.8560    2.7040  -49.0740 C   0  0  2  0  0  0
   32.3700    2.6570  -49.1580 C   0  0  0  0  0  0
   33.0230    3.5990  -48.7310 O   0  0  0  0  0  0
   30.2440    3.6250  -50.1250 C   0  0  0  0  0  0
   30.4940    3.0080  -51.5230 C   0  0  0  0  0  0
   28.7310    3.7750  -49.8510 C   0  0  0  0  0  0
   32.9240    1.5470  -49.6530 N   0  0  0  0  0  0
   32.1910    0.3280  -50.0650 C   0  0  0  0  0  0
   34.3630    1.5120  -49.8550 C   0  0  1  0  0  0
   35.0080    0.3040  -49.1410 C   0  0  0  0  0  0
   34.7220    0.3480  -47.6280 C   0  0  0  0  0  0
   35.4630    1.5050  -46.9940 C   0  0  0  0  0  0
   35.0620   -0.9420  -46.8910 C   0  0  0  0  0  0
   34.7810    1.5150  -51.3210 C   0  0  0  0  0  0
   33.9780    1.2700  -52.2270 O   0  0  0  0  0  0
   36.0530    1.8520  -51.5240 N   0  0  0  0  0  0
   36.7270    1.8110  -52.8200 C   0  0  2  0  0  0
   36.5240    0.5150  -53.5890 C   0  0  0  0  0  0
   36.4630   -0.5390  -53.0080 O   0  0  0  0  0  0
   38.2360    1.9910  -52.5820 C   0  0  0  0  0  0
   36.4777    1.5949  -55.3591 H   0  0  0  0  0  0
   36.7164   -1.4677  -55.1496 H   0  0  0  0  0  0
   38.3893   -0.3624  -56.5167 H   0  0  0  0  0  0
   37.0981    0.3951  -57.5094 H   0  0  0  0  0  0
   37.3115   -1.3885  -57.5228 H   0  0  0  0  0  0
   36.3369   -2.9540  -55.8506 H   0  0  0  0  0  0
   35.2684   -3.9338  -56.9113 H   0  0  0  0  0  0
   34.8464   -3.7001  -55.1810 H   0  0  0  0  0  0
   32.6786   -1.2066  -56.7718 H   0  0  0  0  0  0
   33.4952   -3.9107  -58.0102 H   0  0  0  0  0  0
   31.9271   -3.0891  -58.3149 H   0  0  0  0  0  0
   34.6599   -1.9962  -58.9670 H   0  0  0  0  0  0
   33.0821   -0.1526  -58.6279 H   0  0  0  0  0  0
   31.9392   -0.8890  -59.8019 H   0  0  0  0  0  0
   33.5430   -0.3012  -60.3577 H   0  0  0  0  0  0
   33.9422   -4.0566  -60.2748 H   0  0  0  0  0  0
   34.0518   -2.6014  -61.3222 H   0  0  0  0  0  0
   32.4480   -3.1892  -60.7663 H   0  0  0  0  0  0
   32.9243   -0.5768  -55.1181 H   0  0  0  0  0  0
   33.1514   -1.0272  -53.3941 H   0  0  0  0  0  0
   31.5612   -0.4125  -53.9598 H   0  0  0  0  0  0
   31.3807   -4.2369  -53.7363 H   0  0  0  0  0  0
   32.1543   -1.9286  -51.9179 H   0  0  0  0  0  0
   31.4621   -3.4861  -51.3508 H   0  0  0  0  0  0
   34.0815   -2.9908  -52.7402 H   0  0  0  0  0  0
   33.1308   -5.1570  -53.5285 H   0  0  0  0  0  0
   32.9155   -5.6810  -51.8238 H   0  0  0  0  0  0
   34.5665   -5.4181  -52.4810 H   0  0  0  0  0  0
   33.9961   -2.4908  -50.2882 H   0  0  0  0  0  0
   35.0588   -3.8967  -50.6357 H   0  0  0  0  0  0
   33.4078   -4.1595  -49.9785 H   0  0  0  0  0  0
   30.3005   -5.0848  -52.4980 H   0  0  0  0  0  0
   28.6074   -5.5508  -52.8761 H   0  0  0  0  0  0
   29.0185   -4.8985  -51.2536 H   0  0  0  0  0  0
   27.7009   -1.9891  -53.1305 H   0  0  0  0  0  0
   26.4485   -4.7785  -52.8197 H   0  0  0  0  0  0
   27.9675   -4.7448  -54.6795 H   0  0  0  0  0  0
   27.2053   -3.2431  -55.3047 H   0  0  0  0  0  0
   26.2584   -4.7679  -55.2319 H   0  0  0  0  0  0
   24.9789   -2.7750  -52.2926 H   0  0  0  0  0  0
   24.4645   -3.5861  -53.8106 H   0  0  0  0  0  0
   25.4113   -2.0614  -53.8834 H   0  0  0  0  0  0
   28.5681   -0.9039  -52.0920 H   0  0  0  0  0  0
   29.2244   -0.1301  -50.6097 H   0  0  0  0  0  0
   27.5066    0.1233  -51.0699 H   0  0  0  0  0  0
   27.1329   -2.7821  -48.6526 H   0  0  0  0  0  0
   28.6700   -1.6023  -47.0124 H   0  0  0  0  0  0
   28.5716    0.5621  -48.2704 H   0  0  0  0  0  0
   30.4492   -2.2378  -49.3589 H   0  0  0  0  0  0
   28.7467   -4.0588  -49.1485 H   0  0  0  0  0  0
   29.2802   -4.3250  -47.4540 H   0  0  0  0  0  0
   30.4196   -4.6192  -48.8111 H   0  0  0  0  0  0
   32.0826   -3.0601  -47.7418 H   0  0  0  0  0  0
   31.6016   -1.3731  -47.3557 H   0  0  0  0  0  0
   30.0405   -3.1383  -45.7685 H   0  0  0  0  0  0
   31.7683   -3.6215  -45.6789 H   0  0  0  0  0  0
   32.3586   -1.6234  -44.7485 H   0  0  0  0  0  0
   30.7304   -0.9248  -45.0446 H   0  0  0  0  0  0
   31.0876   -1.4275  -42.7455 H   0  0  0  0  0  0
   31.4105   -3.1505  -43.1375 H   0  0  0  0  0  0
   29.7823   -2.4519  -43.4336 H   0  0  0  0  0  0
   26.6844   -1.3828  -46.5461 H   0  0  0  0  0  0
   24.5582    0.5688  -47.6171 H   0  0  0  0  0  0
   24.3838   -1.5614  -45.3777 H   0  0  0  0  0  0
   23.0889   -0.3817  -45.7755 H   0  0  0  0  0  0
   22.6064   -2.5983  -46.7226 H   0  0  0  0  0  0
   24.1592   -2.5658  -47.6251 H   0  0  0  0  0  0
   22.8643   -1.3861  -48.0229 H   0  0  0  0  0  0
   26.0748    3.8201  -45.0855 H   0  0  0  0  0  0
   26.5817    2.4542  -44.0347 H   0  0  0  0  0  0
   26.0534    1.5103  -48.0736 H   0  0  0  0  0  0
   27.5237    2.4284  -47.6022 H   0  0  0  0  0  0
   25.9276    3.2512  -47.6492 H   0  0  0  0  0  0
   27.7198    0.9413  -44.5314 H   0  0  0  0  0  0
   29.4189    0.5849  -44.0701 H   0  0  0  0  0  0
   28.9320    0.5530  -45.7989 H   0  0  0  0  0  0
   30.6182    3.8823  -45.2799 H   0  0  0  0  0  0
   31.0833    1.7116  -43.5881 H   0  0  0  0  0  0
   32.1252    1.4187  -45.0217 H   0  0  0  0  0  0
   32.2250    3.4886  -42.9279 H   0  0  0  0  0  0
   31.9829    4.9413  -44.7843 H   0  0  0  0  0  0
   33.3315    4.1167  -45.6375 H   0  0  0  0  0  0
   33.6417    4.9862  -44.0965 H   0  0  0  0  0  0
   33.6403    1.3559  -43.0948 H   0  0  0  0  0  0
   34.6278    2.8564  -43.0933 H   0  0  0  0  0  0
   34.3175    1.9869  -44.6342 H   0  0  0  0  0  0
   30.3044    4.1578  -47.5314 H   0  0  0  0  0  0
   30.3688    1.7296  -49.2261 H   0  0  0  0  0  0
   30.7106    4.6198  -50.0727 H   0  0  0  0  0  0
   31.5765    2.9120  -51.6931 H   0  0  0  0  0  0
   30.0579    3.6595  -52.2946 H   0  0  0  0  0  0
   30.0252    2.0142  -51.5743 H   0  0  0  0  0  0
   28.5808    4.2145  -48.8539 H   0  0  0  0  0  0
   28.2512    2.7860  -49.8919 H   0  0  0  0  0  0
   28.2838    4.4313  -50.6122 H   0  0  0  0  0  0
   31.1169    0.4623  -49.8692 H   0  0  0  0  0  0
   32.5630   -0.5346  -49.4927 H   0  0  0  0  0  0
   32.3486    0.1509  -51.1391 H   0  0  0  0  0  0
   34.6702    2.4679  -49.4057 H   0  0  0  0  0  0
   34.5956   -0.6287  -49.5533 H   0  0  0  0  0  0
   36.0967    0.3241  -49.2973 H   0  0  0  0  0  0
   33.6368    0.4885  -47.5153 H   0  0  0  0  0  0
   35.2162    2.4348  -47.5274 H   0  0  0  0  0  0
   36.5463    1.3239  -47.0547 H   0  0  0  0  0  0
   35.1651    1.5972  -45.9391 H   0  0  0  0  0  0
   34.5224   -1.7816  -47.3534 H   0  0  0  0  0  0
   34.7639   -0.8510  -45.8361 H   0  0  0  0  0  0
   36.1451   -1.1243  -46.9516 H   0  0  0  0  0  0
   36.6020    2.1791  -50.6287 H   0  0  0  0  0  0
   36.2518    2.6193  -53.3952 H   0  0  0  0  0  0
   38.4108    2.9239  -52.0259 H   0  0  0  0  0  0
   38.7568    2.0379  -53.5498 H   0  0  0  0  0  0
   38.6195    1.1399  -52.0001 H   0  0  0  0  0  0
  1  2  1  0  0  0
  1 83  1  0  0  0
  1 86  1  0  0  0
  2  3  1  0  0  0
  2  4  1  0  0  0
  2 87  1  0  0  0
  3 88  1  0  0  0
  3 89  1  0  0  0
  3 90  1  0  0  0
  4  5  2  0  0  0
  4  6  1  0  0  0
  6  7  1  0  0  0
  6  8  1  0  0  0
  7 91  1  0  0  0
  7 92  1  0  0  0
  7 93  1  0  0  0
  8  9  1  0  0  0
  8 13  1  0  0  0
  8 94  1  0  0  0
  9 10  1  0  0  0
  9 95  1  0  0  0
  9 96  1  0  0  0
 10 11  1  0  0  0
 10 12  1  0  0  0
 10 97  1  0  0  0
 11 98  1  0  0  0
 11 99  1  0  0  0
 11100  1  0  0  0
 12101  1  0  0  0
 12102  1  0  0  0
 12103  1  0  0  0
 13 14  2  0  0  0
 13 15  1  0  0  0
 15 16  1  0  0  0
 15 17  1  0  0  0
 16104  1  0  0  0
 16105  1  0  0  0
 16106  1  0  0  0
 17 18  1  0  0  0
 17 22  1  0  0  0
 17107  1  0  0  0
 18 19  1  0  0  0
 18108  1  0  0  0
 18109  1  0  0  0
 19 20  1  0  0  0
 19 21  1  0  0  0
 19110  1  0  0  0
 20111  1  0  0  0
 20112  1  0  0  0
 20113  1  0  0  0
 21114  1  0  0  0
 21115  1  0  0  0
 21116  1  0  0  0
 22 23  2  0  0  0
 22 24  1  0  0  0
 24 25  1  0  0  0
 24 26  1  0  0  0
 25117  1  0  0  0
 25118  1  0  0  0
 25119  1  0  0  0
 26 27  1  0  0  0
 26 30  1  0  0  0
 26120  1  0  0  0
 27 28  1  0  0  0
 27 29  1  0  0  0
 27121  1  0  0  0
 28122  1  0  0  0
 28123  1  0  0  0
 28124  1  0  0  0
 29125  1  0  0  0
 29126  1  0  0  0
 29127  1  0  0  0
 30 31  2  0  0  0
 30 32  1  0  0  0
 32 33  1  0  0  0
 32 34  1  0  0  0
 33128  1  0  0  0
 33129  1  0  0  0
 33130  1  0  0  0
 34 35  1  0  0  0
 34 37  1  0  0  0
 34131  1  0  0  0
 35 36  2  0  0  0
 35 45  1  0  0  0
 37 38  1  0  0  0
 37 39  1  0  0  0
 37132  1  0  0  0
 38133  1  0  0  0
 39 40  1  0  0  0
 39 41  1  0  0  0
 39134  1  0  0  0
 40135  1  0  0  0
 40136  1  0  0  0
 40137  1  0  0  0
 41 42  1  0  0  0
 41138  1  0  0  0
 41139  1  0  0  0
 42 43  1  0  0  0
 42140  1  0  0  0
 42141  1  0  0  0
 43 44  1  0  0  0
 43142  1  0  0  0
 43143  1  0  0  0
 44144  1  0  0  0
 44145  1  0  0  0
 44146  1  0  0  0
 45 46  1  0  0  0
 45147  1  0  0  0
 46 47  1  0  0  0
 46 49  1  0  0  0
 46148  1  0  0  0
 47 48  2  0  0  0
 47 51  1  0  0  0
 49 50  1  0  0  0
 49149  1  0  0  0
 49150  1  0  0  0
 50151  1  0  0  0
 50152  1  0  0  0
 50153  1  0  0  0
 51 52  1  0  0  0
 51 55  1  0  0  0
 52 53  1  0  0  0
 52154  1  0  0  0
 52155  1  0  0  0
 53 54  2  0  0  0
 53 56  1  0  0  0
 55156  1  0  0  0
 55157  1  0  0  0
 55158  1  0  0  0
 56 57  1  0  0  0
 56 58  1  0  0  0
 57159  1  0  0  0
 57160  1  0  0  0
 57161  1  0  0  0
 58 59  1  0  0  0
 58 63  1  0  0  0
 58162  1  0  0  0
 59 60  1  0  0  0
 59163  1  0  0  0
 59164  1  0  0  0
 60 61  1  0  0  0
 60 62  1  0  0  0
 60165  1  0  0  0
 61166  1  0  0  0
 61167  1  0  0  0
 61168  1  0  0  0
 62169  1  0  0  0
 62170  1  0  0  0
 62171  1  0  0  0
 63 64  2  0  0  0
 63 65  1  0  0  0
 65 66  1  0  0  0
 65172  1  0  0  0
 66 67  1  0  0  0
 66 69  1  0  0  0
 66173  1  0  0  0
 67 68  2  0  0  0
 67 72  1  0  0  0
 69 70  1  0  0  0
 69 71  1  0  0  0
 69174  1  0  0  0
 70175  1  0  0  0
 70176  1  0  0  0
 70177  1  0  0  0
 71178  1  0  0  0
 71179  1  0  0  0
 71180  1  0  0  0
 72 73  1  0  0  0
 72 74  1  0  0  0
 73181  1  0  0  0
 73182  1  0  0  0
 73183  1  0  0  0
 74 75  1  0  0  0
 74 79  1  0  0  0
 74184  1  0  0  0
 75 76  1  0  0  0
 75185  1  0  0  0
 75186  1  0  0  0
 76 77  1  0  0  0
 76 78  1  0  0  0
 76187  1  0  0  0
 77188  1  0  0  0
 77189  1  0  0  0
 77190  1  0  0  0
 78191  1  0  0  0
 78192  1  0  0  0
 78193  1  0  0  0
 79 80  2  0  0  0
 79 81  1  0  0  0
 81 82  1  0  0  0
 81194  1  0  0  0
 82 83  1  0  0  0
 82 85  1  0  0  0
 82195  1  0  0  0
 83 84  2  0  0  0
 85196  1  0  0  0
 85197  1  0  0  0
 85198  1  0  0  0
M  END
> <s_m_source_file>
../2x2c_ligand.sdf

> <i_m_source_file_index>
1

> <s_epik_input>
W0NIM11bQ0BIXTFbTkhdQyg9TylbQ0BIXShbQ0gzXSlbTkhdQyg9TylbQ0BIXShbQ0gyXVtDSF0oW0NIM10pW0NIM10pTihbQ0gzXSlDKD1PKVtDQEhdKFtDSF0oW0NIM10pW0NIM10pW05IXUMoPU8pW0NASF0oW0NIMl1bQ0hdKFtDSDNdKVtDSDNdKU4oW0NIM10pQyg9TylbQ0gyXU4oW0NIM10pQyg9TylbQ0BIXShbQ0gyXVtDSDNdKVtOSF1DKD1PKVtDQEhdKFtDQEhdKFtPSF0pW0NASF0oW0NIM10pW0NIMl1bQ0gyXVtDSDJdW0NIM10pTihbQ0gzXSlDKD1PKVtDQEhdKFtDSF0oW0NIM10pW0NIM10pTihbQ0gzXSlDKD1PKVtDQEhdKFtDSDJdW0NIXShbQ0gzXSlbQ0gzXSlOKFtDSDNdKUMoPU8pW0NAQEhdKE4oQzE9TylbQ0gzXSlbQ0gyXVtDSF0oW0NIM10pW0NIM10=

> <s_epik_cmdline>
J2VwaWtfYXBwJywgJy1pbWFlJywgJ2xpZ2FuZF9wcm8ubWFlJywgJy1vbWFlJywgJ2xpZ2FuZF9wcmVwLm1hZScsICctbXMnLCAnMScsICctcGgnLCAnNycsICctcGh0JywgJzAuNScsICctbnQn

> <s_epik_pKa_notes>
Molecule size exceeds maximum supported for generating protonation states

$$$$
