2x2i_ligand
                    3D
 Schrodinger Suite 2020-3.
 88 91  0  0  1  0            999 V2000
   24.9240    1.6930   65.9570 C   0  0  2  0  0  0
   25.9790    0.5910   65.9420 C   0  0  1  0  0  0
   26.0680   -0.1140   64.6020 C   0  0  2  0  0  0
   24.7240   -0.7420   64.2270 C   0  0  1  0  0  0
   23.5460    0.1240   64.5520 C   0  0  0  0  0  0
   22.2020   -0.2470   63.9790 C   0  0  0  0  0  0
   23.6390    1.2110   65.3250 C   0  0  0  0  0  0
   27.2630    1.0790   66.3560 O   0  0  0  0  0  0
   26.9730   -1.1900   64.8180 O   0  0  0  0  0  0
   24.6960   -1.0010   62.8270 O   0  0  0  0  0  0
   21.5800   -1.2120   64.8300 O   0  0  0  0  0  0
   23.1740    6.5900   65.4520 C   0  0  2  0  0  0
   23.5940    5.9140   66.7620 C   0  0  1  0  0  0
   24.7910    5.0060   66.5300 C   0  0  2  0  0  0
   24.3750    4.0010   65.4740 C   0  0  1  0  0  0
   23.9670    4.7360   64.1960 C   0  0  1  0  0  0
   23.5730    3.8080   63.0670 C   0  0  0  0  0  0
   25.3570    2.9330   65.3450 N   0  3  0  0  0  0
   23.9210    6.8600   67.7800 O   0  0  0  0  0  0
   25.1050    4.3240   67.7390 O   0  0  0  0  0  0
   22.8350    5.5430   64.5380 O   0  0  0  0  0  0
   24.5080   11.3120   63.2590 C   0  0  2  0  0  0
   24.5190   11.1600   64.7660 C   0  0  1  0  0  0
   24.8270    9.7260   65.1980 C   0  0  2  0  0  0
   23.9010    8.7390   64.4990 C   0  0  1  0  0  0
   23.9670    8.9930   62.9840 C   0  0  1  0  0  0
   23.0670    8.0570   62.1720 C   0  0  0  0  0  0
   25.5420   12.0240   65.2540 O   0  0  0  0  0  0
   24.6620    9.5680   66.6130 O   0  0  0  0  0  0
   24.2480    7.3910   64.8980 O   0  0  0  0  0  0
   23.6270   10.3590   62.6890 O   0  0  0  0  0  0
   23.4160    8.1940   60.7850 O   0  0  0  0  0  0
   28.7270   12.9720   60.6790 C   0  0  2  0  0  0
   27.8880   13.9550   61.4810 C   0  0  1  0  0  0
   27.0650   13.1460   62.4860 C   0  0  2  0  0  0
   26.3100   11.9860   61.8240 C   0  0  1  0  0  0
   27.2640   11.2300   60.9040 C   0  0  1  0  0  0
   26.6490   10.0630   60.1490 C   0  0  0  0  0  0
   29.6640   13.6030   59.7870 O   0  0  0  0  0  0
   28.7500   14.8770   62.1570 O   0  0  0  0  0  0
   26.1490   13.9960   63.1780 O   0  0  0  0  0  0
   25.8340   11.0620   62.8090 O   0  0  0  0  0  0
   27.7960   12.1550   59.9730 O   0  0  0  0  0  0
   27.6550    9.4970   59.2820 O   0  0  0  0  0  0
   24.7549    1.9795   67.0055 H   0  0  0  0  0  0
   25.7118   -0.1525   66.7074 H   0  0  0  0  0  0
   26.4233    0.5583   63.8072 H   0  0  0  0  0  0
   24.6176   -1.6945   64.7669 H   0  0  0  0  0  0
   21.5702    0.6512   63.9149 H   0  0  0  0  0  0
   22.3368   -0.6729   62.9738 H   0  0  0  0  0  0
   22.7439    1.8151   65.5345 H   0  0  0  0  0  0
   27.3658    1.6155   67.3108 H   0  0  0  0  0  0
   28.0154   -0.9833   65.1020 H   0  0  0  0  0  0
   25.4774   -1.6239   62.3672 H   0  0  0  0  0  0
   20.5855   -1.6083   64.5773 H   0  0  0  0  0  0
   22.3192    7.2724   65.5689 H   0  0  0  0  0  0
   22.7360    5.3591   67.1693 H   0  0  0  0  0  0
   25.7053    5.5543   66.2590 H   0  0  0  0  0  0
   23.5017    3.4082   65.7836 H   0  0  0  0  0  0
   24.7917    5.3674   63.8338 H   0  0  0  0  0  0
   24.4330    3.1799   62.7916 H   0  0  0  0  0  0
   23.2594    4.4025   62.1962 H   0  0  0  0  0  0
   22.7403    3.1673   63.3927 H   0  0  0  0  0  0
   26.2871    3.2730   65.8239 H   0  0  0  0  0  0
   25.5356    2.7695   64.2720 H   0  0  0  0  0  0
   23.1793    7.6096   68.0930 H   0  0  0  0  0  0
   25.4291    4.8927   68.6230 H   0  0  0  0  0  0
   24.1759   12.2989   62.9043 H   0  0  0  0  0  0
   23.5535   11.4657   65.1954 H   0  0  0  0  0  0
   25.8836    9.5077   64.9835 H   0  0  0  0  0  0
   22.8538    8.8227   64.8251 H   0  0  0  0  0  0
   25.0084    8.8527   62.6587 H   0  0  0  0  0  0
   23.2247    7.0195   62.5017 H   0  0  0  0  0  0
   22.0141    8.3350   62.3270 H   0  0  0  0  0  0
   25.4969   13.1029   65.0445 H   0  0  0  0  0  0
   25.2441   10.1914   67.3076 H   0  0  0  0  0  0
   22.8849    7.6042   60.0234 H   0  0  0  0  0  0
   29.3810   12.3462   61.3040 H   0  0  0  0  0  0
   27.2512   14.5860   60.8435 H   0  0  0  0  0  0
   27.7384   12.7497   63.2603 H   0  0  0  0  0  0
   25.4194   12.3616   61.2989 H   0  0  0  0  0  0
   28.0859   10.8226   61.5111 H   0  0  0  0  0  0
   26.3016    9.3046   60.8661 H   0  0  0  0  0  0
   25.7971   10.4206   59.5521 H   0  0  0  0  0  0
   30.4449   14.2655   60.1885 H   0  0  0  0  0  0
   29.4118   15.5374   61.5774 H   0  0  0  0  0  0
   26.5188   14.8829   63.7134 H   0  0  0  0  0  0
   27.4096    8.6351   58.6442 H   0  0  0  0  0  0
  1  2  1  0  0  0
  1  7  1  0  0  0
  1 18  1  0  0  0
  1 45  1  0  0  0
  2  3  1  0  0  0
  2  8  1  0  0  0
  2 46  1  0  0  0
  3  4  1  0  0  0
  3  9  1  0  0  0
  3 47  1  0  0  0
  4  5  1  0  0  0
  4 10  1  0  0  0
  4 48  1  0  0  0
  5  6  1  0  0  0
  5  7  2  0  0  0
  6 11  1  0  0  0
  6 49  1  0  0  0
  6 50  1  0  0  0
  7 51  1  0  0  0
  8 52  1  0  0  0
  9 53  1  0  0  0
 10 54  1  0  0  0
 11 55  1  0  0  0
 12 13  1  0  0  0
 12 21  1  0  0  0
 12 30  1  0  0  0
 12 56  1  0  0  0
 13 14  1  0  0  0
 13 19  1  0  0  0
 13 57  1  0  0  0
 14 15  1  0  0  0
 14 20  1  0  0  0
 14 58  1  0  0  0
 15 16  1  0  0  0
 15 18  1  0  0  0
 15 59  1  0  0  0
 16 17  1  0  0  0
 16 21  1  0  0  0
 16 60  1  0  0  0
 17 61  1  0  0  0
 17 62  1  0  0  0
 17 63  1  0  0  0
 18 64  1  0  0  0
 18 65  1  0  0  0
 19 66  1  0  0  0
 20 67  1  0  0  0
 22 23  1  0  0  0
 22 31  1  0  0  0
 22 42  1  0  0  0
 22 68  1  0  0  0
 23 24  1  0  0  0
 23 28  1  0  0  0
 23 69  1  0  0  0
 24 25  1  0  0  0
 24 29  1  0  0  0
 24 70  1  0  0  0
 25 26  1  0  0  0
 25 30  1  0  0  0
 25 71  1  0  0  0
 26 27  1  0  0  0
 26 31  1  0  0  0
 26 72  1  0  0  0
 27 32  1  0  0  0
 27 73  1  0  0  0
 27 74  1  0  0  0
 28 75  1  0  0  0
 29 76  1  0  0  0
 32 77  1  0  0  0
 33 34  1  0  0  0
 33 39  1  0  0  0
 33 43  1  0  0  0
 33 78  1  0  0  0
 34 35  1  0  0  0
 34 40  1  0  0  0
 34 79  1  0  0  0
 35 36  1  0  0  0
 35 41  1  0  0  0
 35 80  1  0  0  0
 36 37  1  0  0  0
 36 42  1  0  0  0
 36 81  1  0  0  0
 37 38  1  0  0  0
 37 43  1  0  0  0
 37 82  1  0  0  0
 38 44  1  0  0  0
 38 83  1  0  0  0
 38 84  1  0  0  0
 39 85  1  0  0  0
 40 86  1  0  0  0
 41 87  1  0  0  0
 44 88  1  0  0  0
M  CHG  1  18   1
M  END
> <s_m_source_file>
../2x2i_ligand.sdf

> <i_m_source_file_index>
1

> <s_epik_input>
W09IXVtDSDJdQyg9W0NIXTEpW0NAQEhdKFtPSF0pW0NASF0oW09IXSlbQ0BASF0oW09IXSlbQ0BIXTFbTkgyK11bQ0BIXShbQ0BIXShPMilbQ0gzXSlbQ0BIXShbT0hdKVtDQEBIXShbT0hdKVtDQEhdMk9bQ0BIXShbQ0BIXShPMylbQ0gyXVtPSF0pW0NASF0oW09IXSlbQ0BASF0oW09IXSlbQ0BIXTNPW0NASF0oW0NASF0oTzQpW0NIMl1bT0hdKVtDQEhdKFtPSF0pW0NAQEhdKFtPSF0pW0NAQEhdNFtPSF0=

> <s_epik_cmdline>
J2VwaWtfYXBwJywgJy1pbWFlJywgJ2xpZ2FuZF9wcm8ubWFlJywgJy1vbWFlJywgJ2xpZ2FuZF9wcmVwLm1hZScsICctbXMnLCAnMScsICctcGgnLCAnNycsICctcGh0JywgJzAuNScsICctbnQn

> <r_epik_Ionization_Penalty>
  0.1167

> <r_epik_Ionization_Penalty_Charging>
  0.1167

> <r_epik_Ionization_Penalty_Neutral>
  0.0001

> <r_epik_State_Penalty>
  0.1063

> <r_epik_Charging_Adjusted_Penalty>
0.222957502643002

> <i_epik_Tot_Q>
1

> <i_epik_Tot_abs_Q>
1

> <s_epik_Chemistry_Notes>
This compound contains an acetal/aminal-like group ( X-CH(R)-Y where X, Y are N, S, or O) that may be acid/base labile, releasing an aldehyde.

$$$$
