2x2k_ligand
                    3D
 Schrodinger Suite 2020-3.
 33 35  0  0  1  0            999 V2000
   -7.9550   10.6140   10.7070 C   0  0  0  0  0  0
   -9.3340   11.1530   11.2050 C   0  0  0  0  0  0
   -9.5600   12.4320   11.5350 C   0  0  0  0  0  0
  -10.8510   12.4830   11.9000 C   0  0  3  0  0  0
  -11.5500   13.7780   12.3660 C   0  0  0  0  0  0
  -11.4450   11.2750   11.8050 N   0  0  0  0  0  0
  -10.5230   10.4010   11.3670 C   0  0  0  0  0  0
  -10.5470    9.0240   11.0560 C   0  0  0  0  0  0
  -11.6100    8.1100   11.1920 C   0  0  0  0  0  0
  -11.5590    6.7460   10.8190 C   0  0  0  0  0  0
  -10.5820    5.8950   10.2480 C   0  0  0  0  0  0
  -10.8990    4.5230   10.0220 C   0  0  0  0  0  0
  -10.0160    3.6230    9.4830 N   0  0  0  0  0  0
  -12.1770    4.0350   10.3460 C   0  0  0  0  0  0
  -13.1300    4.8780   10.9040 C   0  0  0  0  0  0
  -12.8440    6.2290   11.1470 C   0  0  0  0  0  0
  -13.6150    7.2060   11.6800 N   0  0  0  0  0  0
  -12.9000    8.3410   11.7170 C   0  0  0  0  0  0
  -13.3370    9.4080   12.1600 O   0  0  0  0  0  0
   -7.2253   11.4369   10.6870 H   0  0  0  0  0  0
   -8.0675   10.1990    9.6945 H   0  0  0  0  0  0
   -7.6012    9.8266   11.3888 H   0  0  0  0  0  0
   -8.7469   13.1696   11.4664 H   0  0  0  0  0  0
  -10.8308   14.6101   12.3469 H   0  0  0  0  0  0
  -11.9272   13.6428   13.3904 H   0  0  0  0  0  0
  -12.3900   14.0039   11.6927 H   0  0  0  0  0  0
   -9.5779    8.6856   10.6607 H   0  0  0  0  0  0
   -9.5986    6.2841    9.9841 H   0  0  0  0  0  0
   -9.0006    3.9454    9.2089 H   0  0  0  0  0  0
  -10.3230    2.5786    9.3247 H   0  0  0  0  0  0
  -12.4215    2.9895   10.1584 H   0  0  0  0  0  0
  -14.1142    4.4835   11.1565 H   0  0  0  0  0  0
  -14.6453    6.9835   11.9945 H   0  0  0  0  0  0
  1  2  1  0  0  0
  1 20  1  0  0  0
  1 21  1  0  0  0
  1 22  1  0  0  0
  2  3  2  0  0  0
  2  7  1  0  0  0
  3  4  1  0  0  0
  3 23  1  0  0  0
  4  5  1  0  0  0
  4  6  1  0  0  0
  5 24  1  0  0  0
  5 25  1  0  0  0
  5 26  1  0  0  0
  6  7  2  0  0  0
  7  8  1  0  0  0
  8  9  2  0  0  0
  8 27  1  0  0  0
  9 10  1  0  0  0
  9 18  1  0  0  0
 10 11  2  0  0  0
 10 16  1  0  0  0
 11 12  1  0  0  0
 11 28  1  0  0  0
 12 13  1  0  0  0
 12 14  2  0  0  0
 13 29  1  0  0  0
 13 30  1  0  0  0
 14 15  1  0  0  0
 14 31  1  0  0  0
 15 16  2  0  0  0
 15 32  1  0  0  0
 16 17  1  0  0  0
 17 18  1  0  0  0
 17 33  1  0  0  0
 18 19  2  0  0  0
M  END
> <s_m_source_file>
../2x2k_ligand.sdf

> <i_m_source_file_index>
1

> <s_epik_input>
W0NIM11DMT1bQ0hdW0NIXShbQ0gzXSlOPUMxL1tDSF09Qy8yQyg9TylbTkhdYyhjMjMpW2NIXVtjSF1jKFtjSF0zKVtOSDJd

> <s_epik_cmdline>
J2VwaWtfYXBwJywgJy1pbWFlJywgJ2xpZ2FuZF9wcm8ubWFlJywgJy1vbWFlJywgJ2xpZ2FuZF9wcmVwLm1hZScsICctbXMnLCAnMScsICctcGgnLCAnNycsICctcGh0JywgJzAuNScsICctbnQn

> <r_lp_tautomer_probability>
1

> <r_epik_Ionization_Penalty>
  0.0001

> <r_epik_Ionization_Penalty_Charging>
  0.0000

> <r_epik_Ionization_Penalty_Neutral>
  0.0001

> <r_epik_State_Penalty>
 -0.0000

> <r_epik_Charging_Adjusted_Penalty>
0

> <i_epik_Tot_Q>
0

> <i_epik_Tot_abs_Q>
0

> <s_epik_Chemistry_Notes>
This compound has an imine and may undergo hydrolysis.

$$$$
