2x2l_ligand
                    3D
 Schrodinger Suite 2020-3.
 34 36  0  0  1  0            999 V2000
   -9.5690  -23.8960   11.0240 C   0  0  0  0  0  0
   -9.3310  -22.5630   11.3760 C   0  0  0  0  0  0
  -10.3100  -21.8630   12.0870 C   0  0  0  0  0  0
  -10.0260  -20.5570   12.4200 O   0  0  0  0  0  0
  -11.5240  -22.5030   12.4110 C   0  0  0  0  0  0
  -11.7420  -23.8410   12.0380 C   0  0  0  0  0  0
  -10.7600  -24.5710   11.3370 C   0  0  0  0  0  0
  -10.8820  -25.9190   10.8840 C   0  0  0  0  0  0
  -11.8860  -26.9070   11.0450 C   0  0  0  0  0  0
  -11.7210  -28.2440   10.6730 C   0  0  0  0  0  0
  -10.6670  -28.9520   10.0970 C   0  0  0  0  0  0
  -10.8060  -30.3170    9.8550 C   0  0  0  0  0  0
  -11.9620  -31.0210   10.1590 C   0  0  0  0  0  0
  -13.0120  -30.3170   10.7400 C   0  0  0  0  0  0
  -12.9030  -28.9380   10.9970 C   0  0  0  0  0  0
  -10.6720  -19.9110   13.5880 C   0  0  0  0  0  0
  -13.7610  -28.0740   11.5550 N   0  0  0  0  0  0
  -13.1930  -26.8610   11.5620 C   0  0  0  0  0  0
   -9.7800  -30.9630    9.3060 N   0  0  0  0  0  0
  -13.7740  -25.8940   12.0100 O   0  0  0  0  0  0
   -8.7933  -24.4361   10.4812 H   0  0  0  0  0  0
   -8.3952  -22.0771   11.0997 H   0  0  0  0  0  0
  -12.2969  -21.9580   12.9530 H   0  0  0  0  0  0
  -12.6858  -24.3220   12.2950 H   0  0  0  0  0  0
   -9.9738  -26.1468   10.3067 H   0  0  0  0  0  0
   -9.7399  -28.4407    9.8376 H   0  0  0  0  0  0
  -12.0447  -32.0876    9.9501 H   0  0  0  0  0  0
  -13.9318  -30.8410   10.9997 H   0  0  0  0  0  0
  -10.3120  -18.8757   13.6800 H   0  0  0  0  0  0
  -10.4200  -20.4693   14.5017 H   0  0  0  0  0  0
  -11.7632  -19.9088   13.4488 H   0  0  0  0  0  0
  -14.7412  -28.4244   11.9105 H   0  0  0  0  0  0
   -8.8563  -30.4192    9.0590 H   0  0  0  0  0  0
   -9.8557  -32.0407    9.0993 H   0  0  0  0  0  0
  1  2  2  0  0  0
  1  7  1  0  0  0
  1 21  1  0  0  0
  2  3  1  0  0  0
  2 22  1  0  0  0
  3  4  1  0  0  0
  3  5  2  0  0  0
  4 16  1  0  0  0
  5  6  1  0  0  0
  5 23  1  0  0  0
  6  7  2  0  0  0
  6 24  1  0  0  0
  7  8  1  0  0  0
  8  9  2  0  0  0
  8 25  1  0  0  0
  9 10  1  0  0  0
  9 18  1  0  0  0
 10 11  2  0  0  0
 10 15  1  0  0  0
 11 12  1  0  0  0
 11 26  1  0  0  0
 12 13  2  0  0  0
 12 19  1  0  0  0
 13 14  1  0  0  0
 13 27  1  0  0  0
 14 15  2  0  0  0
 14 28  1  0  0  0
 15 17  1  0  0  0
 16 29  1  0  0  0
 16 30  1  0  0  0
 16 31  1  0  0  0
 17 18  1  0  0  0
 17 32  1  0  0  0
 18 20  2  0  0  0
 19 33  1  0  0  0
 19 34  1  0  0  0
M  END
> <s_m_source_file>
../2x2l_ligand.sdf

> <i_m_source_file_index>
1

> <s_epik_input>
W0NIM11PYzFbY0hdW2NIXWMoW2NIXVtjSF0xKS9bQ0hdPUMvMkMoPU8pW05IXWMoYzIzKVtjSF1bY0hdYyhbY0hdMylbTkgyXQ==

> <s_epik_cmdline>
J2VwaWtfYXBwJywgJy1pbWFlJywgJ2xpZ2FuZF9wcm8ubWFlJywgJy1vbWFlJywgJ2xpZ2FuZF9wcmVwLm1hZScsICctbXMnLCAnMScsICctcGgnLCAnNycsICctcGh0JywgJzAuNScsICctbnQn

> <r_lp_tautomer_probability>
1

> <r_epik_Ionization_Penalty>
  0.0007

> <r_epik_Ionization_Penalty_Charging>
  0.0000

> <r_epik_Ionization_Penalty_Neutral>
  0.0007

> <r_epik_State_Penalty>
 -0.0000

> <r_epik_Charging_Adjusted_Penalty>
0

> <i_epik_Tot_Q>
0

> <i_epik_Tot_abs_Q>
0

$$$$
