2x2m_ligand
                    3D
 Schrodinger Suite 2020-3.
 31 33  0  0  1  0            999 V2000
   -0.9450   11.1850    5.1790 C   0  0  0  0  0  0
   -1.5970   10.0670    5.7170 C   0  0  0  0  0  0
    0.6240    9.7170    5.5610 C   0  0  0  0  0  0
   -0.5990    9.1270    5.9690 C   0  0  0  0  0  0
   -0.6210    7.8150    6.4890 C   0  0  0  0  0  0
    0.5680    7.1050    6.5920 C   0  0  0  0  0  0
    1.7780    7.6840    6.1870 C   0  0  0  0  0  0
    1.8190    8.9880    5.6670 C   0  0  0  0  0  0
   -2.9670    9.8750    5.9700 C   0  0  0  0  0  0
   -4.0160   10.7400    5.6280 C   0  0  0  0  0  0
   -1.4870   12.2500    4.8350 O   0  0  0  0  0  0
    0.3780   10.9370    5.0840 N   0  0  0  0  0  0
   -5.3660   10.3610    5.8290 C   0  0  0  0  0  0
   -6.1920   11.3600    5.4660 C   0  0  0  0  0  0
   -5.3680   12.3370    5.0510 C   0  0  0  0  0  0
   -4.0670   11.9880    5.1420 N   0  0  0  0  0  0
   -5.8390    8.9930    6.4000 C   0  0  0  0  0  0
   -5.8480   13.6920    4.5230 C   0  0  0  0  0  0
   -1.5612    7.3639    6.8063 H   0  0  0  0  0  0
    0.5600    6.0905    6.9906 H   0  0  0  0  0  0
    2.7022    7.1132    6.2770 H   0  0  0  0  0  0
    2.7648    9.4276    5.3504 H   0  0  0  0  0  0
   -3.3086    8.9670    6.4884 H   0  0  0  0  0  0
    1.0513   11.6977    4.6619 H   0  0  0  0  0  0
   -7.2814   11.3734    5.5008 H   0  0  0  0  0  0
   -4.9634    8.3621    6.6129 H   0  0  0  0  0  0
   -6.4823    8.4906    5.6626 H   0  0  0  0  0  0
   -6.4056    9.1592    7.3281 H   0  0  0  0  0  0
   -6.9471   13.7278    4.5506 H   0  0  0  0  0  0
   -5.5027   13.8251    3.4871 H   0  0  0  0  0  0
   -5.4390   14.4964    5.1521 H   0  0  0  0  0  0
  1  2  1  0  0  0
  1 11  2  0  0  0
  1 12  1  0  0  0
  2  4  1  0  0  0
  2  9  2  0  0  0
  3  4  2  0  0  0
  3  8  1  0  0  0
  3 12  1  0  0  0
  4  5  1  0  0  0
  5  6  2  0  0  0
  5 19  1  0  0  0
  6  7  1  0  0  0
  6 20  1  0  0  0
  7  8  2  0  0  0
  7 21  1  0  0  0
  8 22  1  0  0  0
  9 10  1  0  0  0
  9 23  1  0  0  0
 10 13  2  0  0  0
 10 16  1  0  0  0
 12 24  1  0  0  0
 13 14  1  0  0  0
 13 17  1  0  0  0
 14 15  1  0  0  0
 14 25  1  0  0  0
 15 16  2  0  0  0
 15 18  1  0  0  0
 17 26  1  0  0  0
 17 27  1  0  0  0
 17 28  1  0  0  0
 18 29  1  0  0  0
 18 30  1  0  0  0
 18 31  1  0  0  0
M  END
> <s_m_source_file>
../2x2m_ligand.sdf

> <i_m_source_file_index>
1

> <s_epik_input>
W2NIXTFbY0hdW2NIXVtjSF1jKGMxMilDKFxDKD1PKVtOSF0yKT1bQ0hdXEMzPUMoW0NIM10pW0NIMl1DKD1OMylbQ0gzXQ==

> <s_epik_cmdline>
J2VwaWtfYXBwJywgJy1pbWFlJywgJ2xpZ2FuZF9wcm8ubWFlJywgJy1vbWFlJywgJ2xpZ2FuZF9wcmVwLm1hZScsICctbXMnLCAnMScsICctcGgnLCAnNycsICctcGh0JywgJzAuNScsICctbnQn

> <r_lp_tautomer_probability>
1

> <r_epik_Ionization_Penalty>
  0.0000

> <r_epik_Ionization_Penalty_Charging>
  0.0000

> <r_epik_Ionization_Penalty_Neutral>
  0.0000

> <r_epik_State_Penalty>
 -0.0000

> <r_epik_Charging_Adjusted_Penalty>
0

> <i_epik_Tot_Q>
0

> <i_epik_Tot_abs_Q>
0

> <s_epik_Chemistry_Notes>
This compound has an imine and may undergo hydrolysis.

$$$$
