2x2r_ligand
                    3D
 Schrodinger Suite 2020-3.
 49 50  0  0  1  0            999 V2000
   54.4910   10.9610   -1.2200 C   0  0  0  0  0  0
   54.5020    9.9070   -2.1230 C   0  0  0  0  0  0
   54.4670    8.6000   -1.6390 C   0  0  0  0  0  0
   54.4340    8.3490   -0.2670 C   0  0  0  0  0  0
   54.4200    9.4060    0.6360 C   0  0  0  0  0  0
   54.4680   10.7150    0.1500 C   0  0  0  0  0  0
   54.4250   11.8880    1.1300 C   0  0  0  0  0  0
   52.6770   11.9680    1.6670 S   0  0  0  0  0  0
   51.8290   12.3840    0.0980 C   0  0  0  0  0  0
   50.3180   12.5750    0.3160 C   0  0  1  0  0  0
   49.6570   13.0000   -1.0020 C   0  0  0  0  0  0
   50.1160   14.0210   -1.5510 O   0  0  0  0  0  0
   48.7190   12.2940   -1.4340 O   0  5  0  0  0  0
   49.7170   11.3290    0.8390 N   0  3  0  0  0  0
   54.8450   13.2180    0.4540 C   0  0  2  0  0  0
   56.2850   13.2070   -0.0870 C   0  0  0  0  0  0
   54.7270   14.4000    1.3940 C   0  0  0  0  0  0
   55.1510   15.6670    0.6510 C   0  0  0  0  0  0
   55.2980   11.6430    2.3760 C   0  0  0  0  0  0
   54.8180   12.0150    3.6340 C   0  0  0  0  0  0
   55.5880   11.8190    4.7750 C   0  0  0  0  0  0
   56.8510   11.2430    4.6670 C   0  0  0  0  0  0
   57.3350   10.8720    3.4140 C   0  0  0  0  0  0
   56.5640   11.0680    2.2700 C   0  0  0  0  0  0
   54.5004   11.9877   -1.5858 H   0  0  0  0  0  0
   54.5375   10.0984   -3.1955 H   0  0  0  0  0  0
   54.4654    7.7653   -2.3400 H   0  0  0  0  0  0
   54.4192    7.3219    0.0977 H   0  0  0  0  0  0
   54.3722    9.2161    1.7083 H   0  0  0  0  0  0
   52.2458   13.3177   -0.3077 H   0  0  0  0  0  0
   51.9789   11.5702   -0.6268 H   0  0  0  0  0  0
   50.1295   13.3409    1.0827 H   0  0  0  0  0  0
   50.2109   11.0513    1.7818 H   0  0  0  0  0  0
   49.8494   10.5214    0.1040 H   0  0  0  0  0  0
   48.6437   11.4876    1.0202 H   0  0  0  0  0  0
   54.1424   13.3418   -0.3833 H   0  0  0  0  0  0
   56.4111   12.3593   -0.7765 H   0  0  0  0  0  0
   56.9907   13.1064    0.7508 H   0  0  0  0  0  0
   56.4828   14.1475   -0.6221 H   0  0  0  0  0  0
   53.6845   14.4977    1.7312 H   0  0  0  0  0  0
   55.3807   14.2428    2.2646 H   0  0  0  0  0  0
   55.0690   16.5322    1.3253 H   0  0  0  0  0  0
   54.4964   15.8176   -0.2201 H   0  0  0  0  0  0
   56.1927   15.5628    0.3133 H   0  0  0  0  0  0
   53.8287   12.4640    3.7221 H   0  0  0  0  0  0
   55.2040   12.1154    5.7511 H   0  0  0  0  0  0
   57.4581   11.0831    5.5580 H   0  0  0  0  0  0
   58.3252   10.4246    3.3281 H   0  0  0  0  0  0
   56.9496   10.7725    1.2943 H   0  0  0  0  0  0
  1  2  2  0  0  0
  1  6  1  0  0  0
  1 25  1  0  0  0
  2  3  1  0  0  0
  2 26  1  0  0  0
  3  4  2  0  0  0
  3 27  1  0  0  0
  4  5  1  0  0  0
  4 28  1  0  0  0
  5  6  2  0  0  0
  5 29  1  0  0  0
  6  7  1  0  0  0
  7  8  1  0  0  0
  7 15  1  0  0  0
  7 19  1  0  0  0
  8  9  1  0  0  0
  9 10  1  0  0  0
  9 30  1  0  0  0
  9 31  1  0  0  0
 10 11  1  0  0  0
 10 14  1  0  0  0
 10 32  1  0  0  0
 11 12  2  0  0  0
 11 13  1  0  0  0
 14 33  1  0  0  0
 14 34  1  0  0  0
 14 35  1  0  0  0
 15 16  1  0  0  0
 15 17  1  0  0  0
 15 36  1  0  0  0
 16 37  1  0  0  0
 16 38  1  0  0  0
 16 39  1  0  0  0
 17 18  1  0  0  0
 17 40  1  0  0  0
 17 41  1  0  0  0
 18 42  1  0  0  0
 18 43  1  0  0  0
 18 44  1  0  0  0
 19 20  2  0  0  0
 19 24  1  0  0  0
 20 21  1  0  0  0
 20 45  1  0  0  0
 21 22  2  0  0  0
 21 46  1  0  0  0
 22 23  1  0  0  0
 22 47  1  0  0  0
 23 24  2  0  0  0
 23 48  1  0  0  0
 24 49  1  0  0  0
M  CHG  2  13  -1  14   1
M  END
> <s_m_source_file>
../2x2r_ligand.sdf

> <i_m_source_file_index>
1

> <s_epik_input>
W2NIXTFbY0hdW2NIXVtjSF1bY0hdYzFDKFtDQEhdKFtDSDNdKVtDSDJdW0NIM10pKFNbQ0gyXVtDQEhdKFtOSDMrXSlDKD1PKVtPSF0pYzJbY0hdW2NIXVtjSF1bY0hdW2NIXTI=

> <s_epik_cmdline>
J2VwaWtfYXBwJywgJy1pbWFlJywgJ2xpZ2FuZF9wcm8ubWFlJywgJy1vbWFlJywgJ2xpZ2FuZF9wcmVwLm1hZScsICctbXMnLCAnMScsICctcGgnLCAnNycsICctcGh0JywgJzAuNScsICctbnQn

> <r_lp_tautomer_probability>
1

> <r_epik_Ionization_Penalty>
  0.0047

> <r_epik_Ionization_Penalty_Charging>
  0.0047

> <r_epik_Ionization_Penalty_Neutral>
  0.0000

> <r_epik_State_Penalty>
 -0.0000

> <r_epik_Charging_Adjusted_Penalty>
0.00465215410124001

> <i_epik_Tot_Q>
0

> <i_epik_Tot_abs_Q>
2

$$$$
