2x39_ligand
                    3D
 Schrodinger Suite 2020-3.
 48 51  0  0  1  0            999 V2000
   45.1570   33.2530  111.3780 N   0  0  0  0  0  0
   43.8220   32.6490  111.4460 C   0  0  0  0  0  0
   43.6270   31.9480  112.7790 C   0  0  0  0  0  0
   44.7570   30.9420  113.0720 C   0  0  0  0  0  0
   44.6610   30.5160  114.5120 N   0  3  0  0  0  0
   46.1250   31.5980  112.8660 C   0  0  0  0  0  0
   46.2180   32.2620  111.5160 C   0  0  0  0  0  0
   44.6570   29.6650  112.2120 C   0  0  0  0  0  0
   45.6360   29.1720  111.7300 O   0  0  0  0  0  0
   43.4520   29.1240  112.0350 N   0  0  0  0  0  0
   43.2720   27.9650  111.1780 C   0  0  0  0  0  0
   42.5540   28.3240  109.9110 C   0  0  0  0  0  0
   43.2660   28.5950  108.7430 C   0  0  0  0  0  0
   42.5980   28.9320  107.5810 C   0  0  0  0  0  0
   41.2170   28.9990  107.5790 C   0  0  0  0  0  0
   40.3790   29.4170  106.1230 Cl  0  0  0  0  0  0
   40.4960   28.7320  108.7270 C   0  0  0  0  0  0
   41.1590   28.3990  109.8880 C   0  0  0  0  0  0
   45.4060   34.6120  111.7620 C   0  0  0  0  0  0
   46.6800   34.8930  112.1080 N   0  0  0  0  0  0
   46.9510   36.1470  112.4690 C   0  0  0  0  0  0
   46.1120   37.1850  112.5230 N   0  0  0  0  0  0
   44.8650   36.8900  112.1650 C   0  0  0  0  0  0
   43.7990   37.7250  112.1150 N   0  0  0  0  0  0
   42.7190   37.0440  111.7100 C   0  0  0  0  0  0
   43.0980   35.7670  111.4990 C   0  0  0  0  0  0
   44.4200   35.6370  111.7750 C   0  0  0  0  0  0
   43.0586   33.4337  111.3382 H   0  0  0  0  0  0
   43.7100   31.9146  110.6347 H   0  0  0  0  0  0
   43.6130   32.6942  113.5871 H   0  0  0  0  0  0
   42.6731   31.4003  112.7692 H   0  0  0  0  0  0
   44.7284   31.4012  115.1615 H   0  0  0  0  0  0
   45.4851   29.8260  114.7459 H   0  0  0  0  0  0
   43.6994   30.0094  114.6812 H   0  0  0  0  0  0
   46.2866   32.3605  113.6422 H   0  0  0  0  0  0
   46.9125   30.8330  112.9340 H   0  0  0  0  0  0
   46.1135   31.5009  110.7287 H   0  0  0  0  0  0
   47.1961   32.7563  111.4207 H   0  0  0  0  0  0
   42.5866   29.5677  112.5490 H   0  0  0  0  0  0
   44.2550   27.5476  110.9146 H   0  0  0  0  0  0
   42.6811   27.2043  111.7093 H   0  0  0  0  0  0
   44.3546   28.5408  108.7465 H   0  0  0  0  0  0
   43.1575   29.1441  106.6699 H   0  0  0  0  0  0
   39.4073   28.7846  108.7142 H   0  0  0  0  0  0
   40.5911   28.1926  110.7952 H   0  0  0  0  0  0
   47.9830   36.3503  112.7550 H   0  0  0  0  0  0
   41.7513   37.5571  111.6088 H   0  0  0  0  0  0
   42.4438   34.9640  111.1594 H   0  0  0  0  0  0
  1  2  1  0  0  0
  1  7  1  0  0  0
  1 19  1  0  0  0
  2  3  1  0  0  0
  2 28  1  0  0  0
  2 29  1  0  0  0
  3  4  1  0  0  0
  3 30  1  0  0  0
  3 31  1  0  0  0
  4  5  1  0  0  0
  4  6  1  0  0  0
  4  8  1  0  0  0
  5 32  1  0  0  0
  5 33  1  0  0  0
  5 34  1  0  0  0
  6  7  1  0  0  0
  6 35  1  0  0  0
  6 36  1  0  0  0
  7 37  1  0  0  0
  7 38  1  0  0  0
  8  9  2  0  0  0
  8 10  1  0  0  0
 10 11  1  0  0  0
 10 39  1  0  0  0
 11 12  1  0  0  0
 11 40  1  0  0  0
 11 41  1  0  0  0
 12 13  2  0  0  0
 12 18  1  0  0  0
 13 14  1  0  0  0
 13 42  1  0  0  0
 14 15  2  0  0  0
 14 43  1  0  0  0
 15 16  1  0  0  0
 15 17  1  0  0  0
 17 18  2  0  0  0
 17 44  1  0  0  0
 18 45  1  0  0  0
 19 20  2  0  0  0
 19 27  1  0  0  0
 20 21  1  0  0  0
 21 22  2  0  0  0
 21 46  1  0  0  0
 22 23  1  0  0  0
 23 24  1  0  0  0
 23 27  2  0  0  0
 24 25  2  0  0  0
 25 26  1  0  0  0
 25 47  1  0  0  0
 26 27  1  0  0  0
 26 48  1  0  0  0
M  CHG  1   5   1
M  END
> <s_m_source_file>
../2x39_ligand.sdf

> <i_m_source_file_index>
1

> <s_epik_input>
TjE9W0NIXVtDSDJdYyhjMTIpYyhuW2NIXW4yKU4oW0NIMl1bQ0gyXTMpW0NIMl1bQ0gyXUMzKFtOSDMrXSlDKD1PKVtOSF1bQ0gyXWM0W2NIXVtjSF1jKENsKVtjSF1bY0hdNA==

> <s_epik_cmdline>
J2VwaWtfYXBwJywgJy1pbWFlJywgJ2xpZ2FuZF9wcm8ubWFlJywgJy1vbWFlJywgJ2xpZ2FuZF9wcmVwLm1hZScsICctbXMnLCAnMScsICctcGgnLCAnNycsICctcGh0JywgJzAuNScsICctbnQn

> <r_lp_tautomer_probability>
1

> <r_epik_Ionization_Penalty>
  0.1713

> <r_epik_Ionization_Penalty_Charging>
  0.1406

> <r_epik_Ionization_Penalty_Neutral>
  0.0307

> <r_epik_State_Penalty>
 -0.0000

> <r_epik_Charging_Adjusted_Penalty>
0.140597191029281

> <i_epik_Tot_Q>
1

> <i_epik_Tot_abs_Q>
1

> <s_epik_Chemistry_Notes>
This compound has an imine and may undergo hydrolysis.

$$$$
