2x4o_ligand
                    3D
 Schrodinger Suite 2020-3.
152152  0  0  1  0            999 V2000
   22.6910   32.4980   44.7320 N   0  3  0  0  0  0
   23.8870   33.2080   45.1650 C   0  0  2  0  0  0
   24.9120   33.4050   44.0440 C   0  0  0  0  0  0
   25.1880   32.4790   43.2800 O   0  0  0  0  0  0
   24.5470   32.4530   46.3140 C   0  0  0  0  0  0
   24.0100   32.8030   47.6810 C   0  0  0  0  0  0
   24.9630   32.2910   48.7520 C   0  0  0  0  0  0
   24.5430   32.7190   50.1430 C   0  0  0  0  0  0
   25.6310   32.4000   51.1200 N   0  3  0  0  0  0
   25.4840   34.6100   43.9740 N   0  0  0  0  0  0
   26.5440   34.9500   43.0210 C   0  0  2  0  0  0
   27.8540   34.2300   43.2960 C   0  0  0  0  0  0
   28.1530   33.8770   44.4390 O   0  0  0  0  0  0
   26.8640   36.4370   43.1020 C   0  0  0  0  0  0
   25.7710   37.4570   42.8730 C   0  0  0  0  0  0
   26.3770   38.8470   42.9740 C   0  0  0  0  0  0
   25.1510   37.2170   41.5160 C   0  0  0  0  0  0
   28.6630   34.0650   42.2550 N   0  0  0  0  0  0
   30.0070   33.5310   42.4360 C   0  0  2  0  0  0
   30.8590   34.5350   43.2080 C   0  0  0  0  0  0
   30.7550   35.7410   42.9870 O   0  0  0  0  0  0
   30.6770   33.1670   41.1000 C   0  0  2  0  0  0
   31.9360   32.5290   41.3560 O   0  0  0  0  0  0
   30.9040   34.4000   40.2460 C   0  0  0  0  0  0
   31.6860   34.0370   44.1380 N   0  0  0  0  0  0
   32.5900   34.8700   44.9400 C   0  0  2  0  0  0
   33.8860   35.2250   44.2150 C   0  0  0  0  0  0
   34.6360   36.0760   44.6960 O   0  0  0  0  0  0
   32.9030   33.9830   46.1530 C   0  0  0  0  0  0
   31.9260   32.8310   46.0850 C   0  0  0  0  0  0
   31.6410   32.6530   44.6300 C   0  0  0  0  0  0
   34.1450   34.5880   43.0770 N   0  0  0  0  0  0
   35.3890   34.8120   42.3380 C   0  0  2  0  0  0
   35.5180   36.2230   41.7600 C   0  0  0  0  0  0
   34.6210   37.0600   41.8970 O   0  0  0  0  0  0
   35.5230   33.8070   41.1870 C   0  0  0  0  0  0
   35.4930   32.3020   41.4810 C   0  0  0  0  0  0
   35.9280   31.5530   40.2360 C   0  0  0  0  0  0
   36.3730   31.9310   42.6730 C   0  0  0  0  0  0
   36.6530   36.4660   41.1080 N   0  0  0  0  0  0
   36.9090   37.7170   40.3960 C   0  0  2  0  0  0
   37.6070   37.4490   39.0630 C   0  0  0  0  0  0
   38.7980   37.7190   38.9090 O   0  0  0  0  0  0
   37.7520   38.6730   41.2510 C   0  0  0  0  0  0
   36.8240   39.6130   42.4970 S   0  0  0  0  0  0
   36.8640   36.9070   38.1050 N   0  0  0  0  0  0
   37.4210   36.6500   36.7820 C   0  0  2  0  0  0
   37.3700   37.9330   35.9550 C   0  0  0  0  0  0
   36.4400   38.7250   36.0930 O   0  0  0  0  0  0
   36.6670   35.5120   36.0520 C   0  0  0  0  0  0
   36.4920   34.3100   36.9800 C   0  0  0  0  0  0
   35.3200   35.9970   35.5430 C   0  0  0  0  0  0
   38.3740   38.1440   35.1100 N   0  0  0  0  0  0
   38.4550   39.3740   34.3230 C   0  0  2  0  0  0
   38.9450   39.1380   32.8940 C   0  0  0  0  0  0
   39.8510   38.3350   32.6590 O   0  0  0  0  0  0
   39.3340   40.4450   35.0280 C   0  0  2  0  0  0
   39.4660   41.5970   34.1870 O   0  0  0  0  0  0
   40.7140   39.8980   35.3460 C   0  0  0  0  0  0
   38.3240   39.8440   31.9480 N   0  0  0  0  0  0
   38.6230   39.7230   30.5180 C   0  0  2  0  0  0
   40.0820   40.0310   30.1490 C   0  0  0  0  0  0
   40.4810   39.8770   28.9920 O   0  0  0  0  0  0
   37.6880   40.6360   29.7090 C   0  0  0  0  0  0
   36.3860   40.0830   29.1100 C   0  0  0  0  0  0
   35.9670   38.7490   29.7110 C   0  0  0  0  0  0
   35.2640   41.1120   29.2320 C   0  0  0  0  0  0
   40.8980   40.4510   30.9710 O   0  0  0  0  0  0
   22.2189   33.0463   43.9035 H   0  0  0  0  0  0
   21.9847   32.4233   45.5720 H   0  0  0  0  0  0
   22.9664   31.4882   44.3936 H   0  0  0  0  0  0
   23.5077   34.1916   45.4792 H   0  0  0  0  0  0
   24.3957   31.3721   46.1773 H   0  0  0  0  0  0
   25.6246   32.6737   46.3267 H   0  0  0  0  0  0
   23.9150   33.8954   47.7689 H   0  0  0  0  0  0
   23.0230   32.3369   47.8176 H   0  0  0  0  0  0
   24.9877   31.1916   48.7255 H   0  0  0  0  0  0
   25.9725   32.6851   48.5633 H   0  0  0  0  0  0
   24.3520   33.8023   50.1513 H   0  0  0  0  0  0
   23.6265   32.1829   50.4305 H   0  0  0  0  0  0
   25.3216   32.7125   52.1283 H   0  0  0  0  0  0
   26.5483   32.9362   50.8353 H   0  0  0  0  0  0
   25.8227   31.3169   51.1145 H   0  0  0  0  0  0
   25.1183   35.3672   44.6831 H   0  0  0  0  0  0
   26.1233   34.6348   42.0548 H   0  0  0  0  0  0
   27.2457   36.6758   44.1057 H   0  0  0  0  0  0
   27.6263   36.6895   42.3502 H   0  0  0  0  0  0
   24.9772   37.3614   43.6285 H   0  0  0  0  0  0
   26.8170   38.9835   43.9729 H   0  0  0  0  0  0
   25.5929   39.6014   42.8125 H   0  0  0  0  0  0
   27.1597   38.9622   42.2097 H   0  0  0  0  0  0
   24.7244   36.2037   41.4818 H   0  0  0  0  0  0
   25.9220   37.3167   40.7378 H   0  0  0  0  0  0
   24.3553   37.9560   41.3406 H   0  0  0  0  0  0
   28.3096   34.3358   41.2491 H   0  0  0  0  0  0
   29.8673   32.6097   43.0206 H   0  0  0  0  0  0
   30.0620   32.4442   40.5438 H   0  0  0  0  0  0
   31.9747   31.6124   41.9629 H   0  0  0  0  0  0
   29.9400   34.8914   40.0480 H   0  0  0  0  0  0
   31.3681   34.1057   39.2931 H   0  0  0  0  0  0
   31.5685   35.0970   40.7776 H   0  0  0  0  0  0
   32.0954   35.8275   45.1603 H   0  0  0  0  0  0
   33.9424   33.6286   46.0896 H   0  0  0  0  0  0
   32.7697   34.5649   47.0769 H   0  0  0  0  0  0
   32.3872   31.9329   46.5217 H   0  0  0  0  0  0
   31.0169   33.0874   46.6488 H   0  0  0  0  0  0
   30.6459   32.2267   44.4348 H   0  0  0  0  0  0
   32.4045   32.0545   44.1114 H   0  0  0  0  0  0
   33.3974   33.8782   42.6931 H   0  0  0  0  0  0
   36.1567   34.6696   43.1128 H   0  0  0  0  0  0
   34.7004   33.9564   40.4722 H   0  0  0  0  0  0
   36.4850   33.9606   40.6762 H   0  0  0  0  0  0
   34.4666   32.0082   41.7458 H   0  0  0  0  0  0
   35.2808   31.8362   39.3928 H   0  0  0  0  0  0
   35.8474   30.4703   40.4126 H   0  0  0  0  0  0
   36.9713   31.8093   39.9997 H   0  0  0  0  0  0
   36.0388   32.4857   43.5622 H   0  0  0  0  0  0
   37.4189   32.1896   42.4512 H   0  0  0  0  0  0
   36.2950   30.8505   42.8641 H   0  0  0  0  0  0
   37.4164   35.6742   41.1206 H   0  0  0  0  0  0
   35.9152   38.1524   40.2150 H   0  0  0  0  0  0
   38.5172   38.1001   41.7953 H   0  0  0  0  0  0
   38.2415   39.4123   40.6000 H   0  0  0  0  0  0
   37.3486   40.3220   43.1543 H   0  0  0  0  0  0
   35.8159   36.6513   38.3196 H   0  0  0  0  0  0
   38.4620   36.3428   36.9608 H   0  0  0  0  0  0
   37.2517   35.1915   35.1772 H   0  0  0  0  0  0
   37.4774   33.9755   37.3364 H   0  0  0  0  0  0
   36.0032   33.4914   36.4314 H   0  0  0  0  0  0
   35.8695   34.5982   37.8399 H   0  0  0  0  0  0
   35.4686   36.8608   34.8783 H   0  0  0  0  0  0
   34.6913   36.2941   36.3953 H   0  0  0  0  0  0
   34.8250   35.1872   34.9869 H   0  0  0  0  0  0
   39.1526   37.3736   35.0082 H   0  0  0  0  0  0
   37.4045   39.6962   34.2716 H   0  0  0  0  0  0
   38.8564   40.7966   35.9545 H   0  0  0  0  0  0
   38.5691   42.1359   33.8476 H   0  0  0  0  0  0
   40.6176   39.0128   35.9919 H   0  0  0  0  0  0
   41.3031   40.6684   35.8651 H   0  0  0  0  0  0
   41.2211   39.6165   34.4114 H   0  0  0  0  0  0
   37.5503   40.5469   32.2906 H   0  0  0  0  0  0
   38.4442   38.6563   30.3177 H   0  0  0  0  0  0
   41.5275   40.1001   28.7368 H   0  0  0  0  0  0
   37.3505   41.4692   30.3429 H   0  0  0  0  0  0
   38.2281   41.0339   28.8372 H   0  0  0  0  0  0
   36.5784   39.8833   28.0455 H   0  0  0  0  0  0
   36.7906   38.0268   29.6107 H   0  0  0  0  0  0
   35.0807   38.3703   29.1809 H   0  0  0  0  0  0
   35.7269   38.8858   30.7757 H   0  0  0  0  0  0
   35.5912   42.0652   28.7913 H   0  0  0  0  0  0
   35.0195   41.2637   30.2937 H   0  0  0  0  0  0
   34.3733   40.7482   28.6989 H   0  0  0  0  0  0
  1  2  1  0  0  0
  1 69  1  0  0  0
  1 70  1  0  0  0
  1 71  1  0  0  0
  2  3  1  0  0  0
  2  5  1  0  0  0
  2 72  1  0  0  0
  3  4  2  0  0  0
  3 10  1  0  0  0
  5  6  1  0  0  0
  5 73  1  0  0  0
  5 74  1  0  0  0
  6  7  1  0  0  0
  6 75  1  0  0  0
  6 76  1  0  0  0
  7  8  1  0  0  0
  7 77  1  0  0  0
  7 78  1  0  0  0
  8  9  1  0  0  0
  8 79  1  0  0  0
  8 80  1  0  0  0
  9 81  1  0  0  0
  9 82  1  0  0  0
  9 83  1  0  0  0
 10 11  1  0  0  0
 10 84  1  0  0  0
 11 12  1  0  0  0
 11 14  1  0  0  0
 11 85  1  0  0  0
 12 13  2  0  0  0
 12 18  1  0  0  0
 14 15  1  0  0  0
 14 86  1  0  0  0
 14 87  1  0  0  0
 15 16  1  0  0  0
 15 17  1  0  0  0
 15 88  1  0  0  0
 16 89  1  0  0  0
 16 90  1  0  0  0
 16 91  1  0  0  0
 17 92  1  0  0  0
 17 93  1  0  0  0
 17 94  1  0  0  0
 18 19  1  0  0  0
 18 95  1  0  0  0
 19 20  1  0  0  0
 19 22  1  0  0  0
 19 96  1  0  0  0
 20 21  2  0  0  0
 20 25  1  0  0  0
 22 23  1  0  0  0
 22 24  1  0  0  0
 22 97  1  0  0  0
 23 98  1  0  0  0
 24 99  1  0  0  0
 24100  1  0  0  0
 24101  1  0  0  0
 25 26  1  0  0  0
 25 31  1  0  0  0
 26 27  1  0  0  0
 26 29  1  0  0  0
 26102  1  0  0  0
 27 28  2  0  0  0
 27 32  1  0  0  0
 29 30  1  0  0  0
 29103  1  0  0  0
 29104  1  0  0  0
 30 31  1  0  0  0
 30105  1  0  0  0
 30106  1  0  0  0
 31107  1  0  0  0
 31108  1  0  0  0
 32 33  1  0  0  0
 32109  1  0  0  0
 33 34  1  0  0  0
 33 36  1  0  0  0
 33110  1  0  0  0
 34 35  2  0  0  0
 34 40  1  0  0  0
 36 37  1  0  0  0
 36111  1  0  0  0
 36112  1  0  0  0
 37 38  1  0  0  0
 37 39  1  0  0  0
 37113  1  0  0  0
 38114  1  0  0  0
 38115  1  0  0  0
 38116  1  0  0  0
 39117  1  0  0  0
 39118  1  0  0  0
 39119  1  0  0  0
 40 41  1  0  0  0
 40120  1  0  0  0
 41 42  1  0  0  0
 41 44  1  0  0  0
 41121  1  0  0  0
 42 43  2  0  0  0
 42 46  1  0  0  0
 44 45  1  0  0  0
 44122  1  0  0  0
 44123  1  0  0  0
 45124  1  0  0  0
 46 47  1  0  0  0
 46125  1  0  0  0
 47 48  1  0  0  0
 47 50  1  0  0  0
 47126  1  0  0  0
 48 49  2  0  0  0
 48 53  1  0  0  0
 50 51  1  0  0  0
 50 52  1  0  0  0
 50127  1  0  0  0
 51128  1  0  0  0
 51129  1  0  0  0
 51130  1  0  0  0
 52131  1  0  0  0
 52132  1  0  0  0
 52133  1  0  0  0
 53 54  1  0  0  0
 53134  1  0  0  0
 54 55  1  0  0  0
 54 57  1  0  0  0
 54135  1  0  0  0
 55 56  2  0  0  0
 55 60  1  0  0  0
 57 58  1  0  0  0
 57 59  1  0  0  0
 57136  1  0  0  0
 58137  1  0  0  0
 59138  1  0  0  0
 59139  1  0  0  0
 59140  1  0  0  0
 60 61  1  0  0  0
 60141  1  0  0  0
 61 62  1  0  0  0
 61 64  1  0  0  0
 61142  1  0  0  0
 62 63  1  0  0  0
 62 68  2  0  0  0
 63143  1  0  0  0
 64 65  1  0  0  0
 64144  1  0  0  0
 64145  1  0  0  0
 65 66  1  0  0  0
 65 67  1  0  0  0
 65146  1  0  0  0
 66147  1  0  0  0
 66148  1  0  0  0
 66149  1  0  0  0
 67150  1  0  0  0
 67151  1  0  0  0
 67152  1  0  0  0
M  CHG  2   1   1   9   1
M  END
> <s_m_source_file>
../2x4o_ligand.sdf

> <i_m_source_file_index>
1

> <s_epik_input>
W05IMytdW0NIMl1bQ0gyXVtDSDJdW0NIMl1bQ0BIXShbTkgzK10pQyg9TylbTkhdW0NAQEhdKFtDSDJdW0NIXShbQ0gzXSlbQ0gzXSlDKD1PKVtOSF1bQ0BASF0oW0NASF0oW09IXSlbQ0gzXSlDKD1PKU4xW0NAQEhdKFtDSDJdW0NIMl1bQ0gyXTEpQyg9TylbTkhdW0NAQEhdKFtDSDJdW0NIXShbQ0gzXSlbQ0gzXSlDKD1PKVtOSF1bQ0BASF0oW0NIMl1bU0hdKUMoPU8pW05IXVtDQEBIXShbQ0hdKFtDSDNdKVtDSDNdKUMoPU8pW05IXVtDQEBIXShbQ0BIXShbT0hdKVtDSDNdKUMoPU8pW05IXVtDQEhdKEMoPU8pW09IXSlbQ0gyXVtDSF0oW0NIM10pW0NIM10=

> <s_epik_cmdline>
J2VwaWtfYXBwJywgJy1pbWFlJywgJ2xpZ2FuZF9wcm8ubWFlJywgJy1vbWFlJywgJ2xpZ2FuZF9wcmVwLm1hZScsICctbXMnLCAnMScsICctcGgnLCAnNycsICctcGh0JywgJzAuNScsICctbnQn

> <s_epik_pKa_notes>
Molecule size exceeds maximum supported for generating protonation states

$$$$
