2x4r_ligand
                    3D
 Schrodinger Suite 2020-3.
139139  0  0  1  0            999 V2000
   22.0490   35.3720   43.8010 N   0  3  0  0  0  0
   23.4520   35.3200   44.2050 C   0  0  2  0  0  0
   24.3820   35.4850   43.0080 C   0  0  0  0  0  0
   24.4680   34.5980   42.1620 O   0  0  0  0  0  0
   23.7500   34.0060   44.9300 C   0  0  0  0  0  0
   25.0270   34.0670   45.7740 C   0  0  0  0  0  0
   25.0360   33.6510   46.9310 O   0  0  0  0  0  0
   26.1060   34.5650   45.1920 N   0  0  0  0  0  0
   25.0730   36.6270   42.9620 N   0  0  0  0  0  0
   25.9790   36.9940   41.8740 C   0  0  2  0  0  0
   27.2800   36.2080   41.8810 C   0  0  0  0  0  0
   27.6990   35.7120   42.9260 O   0  0  0  0  0  0
   26.3570   38.4630   41.9980 C   0  0  0  0  0  0
   25.2680   39.5060   41.8010 C   0  0  0  0  0  0
   25.7220   40.7840   42.4750 C   0  0  0  0  0  0
   25.0080   39.7230   40.3200 C   0  0  0  0  0  0
   27.9290   36.1190   40.7190 N   0  0  0  0  0  0
   29.2800   35.5760   40.6380 C   0  0  2  0  0  0
   30.2360   36.4330   41.5040 C   0  0  0  0  0  0
   30.2050   37.6750   41.4450 O   0  0  0  0  0  0
   29.7600   35.4860   39.1770 C   0  0  0  0  0  0
   30.1150   36.8710   38.6300 C   0  0  0  0  0  0
   30.9450   34.5170   39.0560 C   0  0  0  0  0  0
   31.0710   35.7690   42.3310 N   0  0  0  0  0  0
   31.9310   36.4630   43.3050 C   0  0  2  0  0  0
   33.0810   37.2690   42.7000 C   0  0  0  0  0  0
   33.5040   38.2550   43.2960 O   0  0  0  0  0  0
   32.4870   35.3230   44.1620 C   0  0  0  0  0  0
   31.6570   34.1120   43.8400 C   0  0  0  0  0  0
   31.1790   34.3030   42.4440 C   0  0  0  0  0  0
   33.5700   36.8530   41.5390 N   0  0  0  0  0  0
   34.6770   37.5360   40.8860 C   0  0  2  0  0  0
   34.3600   37.7900   39.4240 C   0  0  0  0  0  0
   33.8710   36.9040   38.7380 O   0  0  0  0  0  0
   35.9630   36.7090   40.9930 C   0  0  0  0  0  0
   36.9880   36.9330   39.8540 C   0  0  0  0  0  0
   37.9280   38.4660   39.9490 S   0  0  0  0  0  0
   38.0640   38.7170   41.7000 C   0  0  0  0  0  0
   34.6570   38.9980   38.9520 N   0  0  0  0  0  0
   34.3890   39.3950   37.5730 C   0  0  2  0  0  0
   35.6570   39.9090   36.8990 C   0  0  0  0  0  0
   36.0690   41.0430   37.1220 O   0  0  0  0  0  0
   33.2860   40.4730   37.5160 C   0  0  0  0  0  0
   33.1950   41.0810   36.1290 C   0  0  0  0  0  0
   31.9540   39.8750   37.9140 C   0  0  0  0  0  0
   36.2780   39.0660   36.0810 N   0  0  0  0  0  0
   37.5200   39.4400   35.4150 C   0  0  2  0  0  0
   37.2810   40.4200   34.2740 C   0  0  0  0  0  0
   36.2200   40.4150   33.6440 O   0  0  0  0  0  0
   38.2640   38.2120   34.9180 C   0  0  0  0  0  0
   38.2940   41.2490   34.0230 N   0  0  0  0  0  0
   38.2600   42.3140   33.0200 C   0  0  2  0  0  0
   38.6080   41.7900   31.6190 C   0  0  0  0  0  0
   39.3520   40.8080   31.4790 O   0  0  0  0  0  0
   39.2200   43.4740   33.4400 C   0  0  2  0  0  0
   38.4820   44.6870   33.6720 O   0  0  0  0  0  0
   40.2640   43.7170   32.3800 C   0  0  0  0  0  0
   38.0490   42.4270   30.5890 N   0  0  0  0  0  0
   38.2740   41.9950   29.2090 C   0  0  2  0  0  0
   39.6280   42.4460   28.6910 C   0  0  0  0  0  0
   40.3360   43.2020   29.3480 O   0  5  0  0  0  0
   37.1810   42.5110   28.2350 C   0  0  0  0  0  0
   35.7980   42.0850   28.7070 C   0  0  0  0  0  0
   37.2740   44.0200   28.0890 C   0  0  0  0  0  0
   40.0350   42.0630   27.6010 O   0  0  0  0  0  0
   21.8519   36.3216   43.2820 H   0  0  0  0  0  0
   21.4080   35.3012   44.6921 H   0  0  0  0  0  0
   21.8308   34.5323   43.1247 H   0  0  0  0  0  0
   23.5881   36.1730   44.8861 H   0  0  0  0  0  0
   22.9151   33.7610   45.6030 H   0  0  0  0  0  0
   23.8745   33.2000   44.1919 H   0  0  0  0  0  0
   26.0540   34.9264   44.1544 H   0  0  0  0  0  0
   27.0550   34.6176   45.7458 H   0  0  0  0  0  0
   24.9280   37.3109   43.8113 H   0  0  0  0  0  0
   25.4035   36.7588   40.9665 H   0  0  0  0  0  0
   26.7544   38.6555   43.0055 H   0  0  0  0  0  0
   27.1235   38.7090   41.2483 H   0  0  0  0  0  0
   24.3213   39.1725   42.2511 H   0  0  0  0  0  0
   25.9008   40.5916   43.5432 H   0  0  0  0  0  0
   24.9427   41.5527   42.3663 H   0  0  0  0  0  0
   26.6522   41.1359   42.0051 H   0  0  0  0  0  0
   24.6809   38.7775   39.8628 H   0  0  0  0  0  0
   25.9322   40.0659   39.8319 H   0  0  0  0  0  0
   24.2227   40.4827   40.1931 H   0  0  0  0  0  0
   27.4207   36.4674   39.8078 H   0  0  0  0  0  0
   29.2137   34.5539   41.0391 H   0  0  0  0  0  0
   28.9373   35.0933   38.5615 H   0  0  0  0  0  0
   29.2468   37.5388   38.7315 H   0  0  0  0  0  0
   30.3904   36.7864   37.5684 H   0  0  0  0  0  0
   30.9628   37.2829   39.1971 H   0  0  0  0  0  0
   30.6571   33.5339   39.4569 H   0  0  0  0  0  0
   31.7995   34.9098   39.6266 H   0  0  0  0  0  0
   31.2272   34.4132   37.9979 H   0  0  0  0  0  0
   31.3165   37.2096   43.8294 H   0  0  0  0  0  0
   33.5444   35.1562   43.9090 H   0  0  0  0  0  0
   32.4021   35.5890   45.2260 H   0  0  0  0  0  0
   32.2778   33.2082   43.9277 H   0  0  0  0  0  0
   30.8140   34.0475   44.5437 H   0  0  0  0  0  0
   30.1931   33.8481   42.2678 H   0  0  0  0  0  0
   31.8942   33.9293   41.6964 H   0  0  0  0  0  0
   33.1166   35.9674   41.0699 H   0  0  0  0  0  0
   34.7820   38.4918   41.4202 H   0  0  0  0  0  0
   36.4801   36.9550   41.9322 H   0  0  0  0  0  0
   35.7122   35.6380   40.9822 H   0  0  0  0  0  0
   37.7247   36.1162   39.8579 H   0  0  0  0  0  0
   36.4639   36.9495   38.8870 H   0  0  0  0  0  0
   38.6288   39.6405   41.8952 H   0  0  0  0  0  0
   38.5892   37.8632   42.1531 H   0  0  0  0  0  0
   37.0583   38.8029   42.1373 H   0  0  0  0  0  0
   35.1233   39.7102   39.6486 H   0  0  0  0  0  0
   34.0551   38.4736   37.0734 H   0  0  0  0  0  0
   33.5282   41.2814   38.2215 H   0  0  0  0  0  0
   34.1689   41.5115   35.8528 H   0  0  0  0  0  0
   32.4302   41.8716   36.1247 H   0  0  0  0  0  0
   32.9200   40.3008   35.4040 H   0  0  0  0  0  0
   32.0342   39.4383   38.9204 H   0  0  0  0  0  0
   31.6748   39.0907   37.1951 H   0  0  0  0  0  0
   31.1849   40.6614   37.9158 H   0  0  0  0  0  0
   35.8399   38.0716   35.9098 H   0  0  0  0  0  0
   38.1121   39.9397   36.1959 H   0  0  0  0  0  0
   38.4265   37.5178   35.7557 H   0  0  0  0  0  0
   39.2350   38.5159   34.4999 H   0  0  0  0  0  0
   37.6691   37.7133   34.1386 H   0  0  0  0  0  0
   39.1988   41.0927   34.6288 H   0  0  0  0  0  0
   37.2124   42.6489   33.0028 H   0  0  0  0  0  0
   39.7197   43.2478   34.3935 H   0  0  0  0  0  0
   37.6727   44.7045   34.4168 H   0  0  0  0  0  0
   40.8286   42.7899   32.2021 H   0  0  0  0  0  0
   40.9519   44.5064   32.7171 H   0  0  0  0  0  0
   39.7732   44.0320   31.4474 H   0  0  0  0  0  0
   37.4063   43.2955   30.7956 H   0  0  0  0  0  0
   38.2458   40.8989   29.2968 H   0  0  0  0  0  0
   37.3323   42.0754   27.2363 H   0  0  0  0  0  0
   35.7644   40.9896   28.8022 H   0  0  0  0  0  0
   35.0441   42.4129   27.9762 H   0  0  0  0  0  0
   35.5862   42.5447   29.6837 H   0  0  0  0  0  0
   38.2831   44.2938   27.7475 H   0  0  0  0  0  0
   37.0742   44.4954   29.0606 H   0  0  0  0  0  0
   36.5320   44.3636   27.3532 H   0  0  0  0  0  0
  1  2  1  0  0  0
  1 66  1  0  0  0
  1 67  1  0  0  0
  1 68  1  0  0  0
  2  3  1  0  0  0
  2  5  1  0  0  0
  2 69  1  0  0  0
  3  4  2  0  0  0
  3  9  1  0  0  0
  5  6  1  0  0  0
  5 70  1  0  0  0
  5 71  1  0  0  0
  6  7  2  0  0  0
  6  8  1  0  0  0
  8 72  1  0  0  0
  8 73  1  0  0  0
  9 10  1  0  0  0
  9 74  1  0  0  0
 10 11  1  0  0  0
 10 13  1  0  0  0
 10 75  1  0  0  0
 11 12  2  0  0  0
 11 17  1  0  0  0
 13 14  1  0  0  0
 13 76  1  0  0  0
 13 77  1  0  0  0
 14 15  1  0  0  0
 14 16  1  0  0  0
 14 78  1  0  0  0
 15 79  1  0  0  0
 15 80  1  0  0  0
 15 81  1  0  0  0
 16 82  1  0  0  0
 16 83  1  0  0  0
 16 84  1  0  0  0
 17 18  1  0  0  0
 17 85  1  0  0  0
 18 19  1  0  0  0
 18 21  1  0  0  0
 18 86  1  0  0  0
 19 20  2  0  0  0
 19 24  1  0  0  0
 21 22  1  0  0  0
 21 23  1  0  0  0
 21 87  1  0  0  0
 22 88  1  0  0  0
 22 89  1  0  0  0
 22 90  1  0  0  0
 23 91  1  0  0  0
 23 92  1  0  0  0
 23 93  1  0  0  0
 24 25  1  0  0  0
 24 30  1  0  0  0
 25 26  1  0  0  0
 25 28  1  0  0  0
 25 94  1  0  0  0
 26 27  2  0  0  0
 26 31  1  0  0  0
 28 29  1  0  0  0
 28 95  1  0  0  0
 28 96  1  0  0  0
 29 30  1  0  0  0
 29 97  1  0  0  0
 29 98  1  0  0  0
 30 99  1  0  0  0
 30100  1  0  0  0
 31 32  1  0  0  0
 31101  1  0  0  0
 32 33  1  0  0  0
 32 35  1  0  0  0
 32102  1  0  0  0
 33 34  2  0  0  0
 33 39  1  0  0  0
 35 36  1  0  0  0
 35103  1  0  0  0
 35104  1  0  0  0
 36 37  1  0  0  0
 36105  1  0  0  0
 36106  1  0  0  0
 37 38  1  0  0  0
 38107  1  0  0  0
 38108  1  0  0  0
 38109  1  0  0  0
 39 40  1  0  0  0
 39110  1  0  0  0
 40 41  1  0  0  0
 40 43  1  0  0  0
 40111  1  0  0  0
 41 42  2  0  0  0
 41 46  1  0  0  0
 43 44  1  0  0  0
 43 45  1  0  0  0
 43112  1  0  0  0
 44113  1  0  0  0
 44114  1  0  0  0
 44115  1  0  0  0
 45116  1  0  0  0
 45117  1  0  0  0
 45118  1  0  0  0
 46 47  1  0  0  0
 46119  1  0  0  0
 47 48  1  0  0  0
 47 50  1  0  0  0
 47120  1  0  0  0
 48 49  2  0  0  0
 48 51  1  0  0  0
 50121  1  0  0  0
 50122  1  0  0  0
 50123  1  0  0  0
 51 52  1  0  0  0
 51124  1  0  0  0
 52 53  1  0  0  0
 52 55  1  0  0  0
 52125  1  0  0  0
 53 54  2  0  0  0
 53 58  1  0  0  0
 55 56  1  0  0  0
 55 57  1  0  0  0
 55126  1  0  0  0
 56127  1  0  0  0
 57128  1  0  0  0
 57129  1  0  0  0
 57130  1  0  0  0
 58 59  1  0  0  0
 58131  1  0  0  0
 59 60  1  0  0  0
 59 62  1  0  0  0
 59132  1  0  0  0
 60 61  1  0  0  0
 60 65  2  0  0  0
 62 63  1  0  0  0
 62 64  1  0  0  0
 62133  1  0  0  0
 63134  1  0  0  0
 63135  1  0  0  0
 63136  1  0  0  0
 64137  1  0  0  0
 64138  1  0  0  0
 64139  1  0  0  0
M  CHG  2   1   1  61  -1
M  END
> <s_m_source_file>
../2x4r_ligand.sdf

> <i_m_source_file_index>
1

> <s_epik_input>
Tz1DKFtOSDJdKVtDSDJdW0NASF0oW05IMytdKUMoPU8pW05IXVtDQEBIXShbQ0gyXVtDSF0oW0NIM10pW0NIM10pQyg9TylbTkhdW0NAQEhdKFtDSF0oW0NIM10pW0NIM10pQyg9TylOMVtDQEBIXShbQ0gyXVtDSDJdW0NIMl0xKUMoPU8pW05IXVtDQEBIXShbQ0gyXVtDSDJdU1tDSDNdKUMoPU8pW05IXVtDQEBIXShbQ0hdKFtDSDNdKVtDSDNdKUMoPU8pW05IXVtDQEBIXShbQ0gzXSlDKD1PKVtOSF1bQ0BASF0oW0NASF0oW09IXSlbQ0gzXSlDKD1PKVtOSF1bQ0BIXShDKD1PKVtPSF0pW0NIXShbQ0gzXSlbQ0gzXQ==

> <s_epik_cmdline>
J2VwaWtfYXBwJywgJy1pbWFlJywgJ2xpZ2FuZF9wcm8ubWFlJywgJy1vbWFlJywgJ2xpZ2FuZF9wcmVwLm1hZScsICctbXMnLCAnMScsICctcGgnLCAnNycsICctcGh0JywgJzAuNScsICctbnQn

> <r_epik_Ionization_Penalty>
  0.2007

> <r_epik_Ionization_Penalty_Charging>
  0.2007

> <r_epik_Ionization_Penalty_Neutral>
  0.0000

> <r_epik_State_Penalty>
  0.1904

> <r_epik_Charging_Adjusted_Penalty>
0.391093992154179

> <i_epik_Tot_Q>
0

> <i_epik_Tot_abs_Q>
2

$$$$
