2x4s_ligand
                    3D
 Schrodinger Suite 2020-3.
134133  0  0  1  0            999 V2000
    7.8780    7.9370   27.1780 N   0  3  0  0  0  0
    6.6510    7.3450   27.6980 C   0  0  2  0  0  0
    5.6560    7.0140   26.5910 C   0  0  0  0  0  0
    5.2090    7.8860   25.8450 O   0  0  0  0  0  0
    6.0140    8.2600   28.7280 C   0  0  0  0  0  0
    5.3180    5.7350   26.5010 N   0  0  0  0  0  0
    4.3840    5.2310   25.5070 C   0  0  2  0  0  0
    3.0830    6.0250   25.4950 C   0  0  0  0  0  0
    2.8480    6.8860   26.3490 O   0  0  0  0  0  0
    4.0790    3.7710   25.8200 C   0  0  0  0  0  0
    3.9040    2.8690   24.6270 C   0  0  0  0  0  0
    4.4310    1.2080   25.0960 S   0  0  0  0  0  0
    6.1370    1.5420   25.5230 C   0  0  0  0  0  0
    2.2370    5.7230   24.5170 N   0  0  0  0  0  0
    0.9290    6.3510   24.4060 C   0  0  2  0  0  0
   -0.1330    5.4760   25.0630 C   0  0  0  0  0  0
   -0.1260    4.2560   24.9110 O   0  0  0  0  0  0
    0.5880    6.5890   22.9370 C   0  0  0  0  0  0
   -0.8580    6.9930   22.7310 C   0  0  0  0  0  0
   -1.3080    7.9720   23.3670 O   0  0  0  0  0  0
   -1.5420    6.3280   21.9210 O   0  5  0  0  0  0
   -1.0490    6.1070   25.7900 N   0  0  0  0  0  0
   -2.0550    5.3850   26.5640 C   0  0  2  0  0  0
   -3.2910    4.9630   25.7660 C   0  0  0  0  0  0
   -4.0770    4.1340   26.2240 O   0  0  0  0  0  0
   -2.4920    6.2280   27.7610 C   0  0  0  0  0  0
   -3.8060    5.8820   28.1630 O   0  0  0  0  0  0
   -3.4640    5.5300   24.5780 N   0  0  0  0  0  0
   -4.6820    5.3050   23.8100 C   0  0  2  0  0  0
   -4.7480    3.9500   23.0980 C   0  0  0  0  0  0
   -3.9010    3.6280   22.2610 O   0  0  0  0  0  0
   -4.9090    6.4430   22.8050 C   0  0  0  0  0  0
   -5.0550    7.8050   23.4790 C   0  0  0  0  0  0
   -4.0700    8.4190   23.8950 O   0  0  0  0  0  0
   -6.2870    8.2870   23.5700 N   0  0  0  0  0  0
   -5.7600    3.1620   23.4530 N   0  0  0  0  0  0
   -6.1380    1.9770   22.6910 C   0  0  2  0  0  0
   -6.5200    2.4010   21.2740 C   0  0  0  0  0  0
   -7.3440    3.2970   21.0930 O   0  0  0  0  0  0
   -7.3570    1.2820   23.3310 C   0  0  2  0  0  0
   -7.0030    0.7810   24.6270 O   0  0  0  0  0  0
   -7.8500    0.1380   22.4550 C   0  0  0  0  0  0
   -5.9360    1.7740   20.2630 N   0  0  0  0  0  0
   -6.2170    2.2110   18.9050 C   0  0  2  0  0  0
   -6.3840    1.0530   17.9300 C   0  0  0  0  0  0
   -5.4070    0.4240   17.5280 O   0  0  0  0  0  0
   -5.1200    3.1560   18.4230 C   0  0  0  0  0  0
   -5.5010    3.9090   17.1530 C   0  0  0  0  0  0
   -6.8470    4.5750   17.3520 C   0  0  0  0  0  0
   -4.4380    4.9250   16.7640 C   0  0  0  0  0  0
   -7.6250    0.7910   17.5330 N   0  0  0  0  0  0
   -7.9250   -0.3830   16.7150 C   0  0  2  0  0  0
   -8.2430   -0.0480   15.2660 C   0  0  0  0  0  0
   -8.9180    0.9390   14.9840 O   0  0  0  0  0  0
   -9.0630   -1.1810   17.3450 C   0  0  0  0  0  0
   -8.6820   -1.8000   18.6790 C   0  0  0  0  0  0
   -9.8680   -2.3660   19.4290 C   0  0  0  0  0  0
  -10.8120   -1.5980   19.7230 O   0  5  0  0  0  0
   -9.8450   -3.5790   19.7330 O   0  0  0  0  0  0
   -7.7520   -0.8840   14.3530 N   0  0  0  0  0  0
   -7.8760   -0.6310   12.9180 C   0  0  2  0  0  0
   -9.2400   -1.0350   12.3940 C   0  0  0  0  0  0
   -9.9570   -1.7870   13.0520 O   0  0  0  0  0  0
   -6.7950   -1.3830   12.1350 C   0  0  0  0  0  0
   -5.3380   -1.0100   12.4160 C   0  0  0  0  0  0
   -4.3980   -1.7850   11.5090 C   0  0  0  0  0  0
   -5.1270    0.4840   12.2460 C   0  0  0  0  0  0
   -9.6410   -0.6300   11.3010 O   0  5  0  0  0  0
    8.3248    7.2608   26.4342 H   0  0  0  0  0  0
    8.5877    8.0943   28.0036 H   0  0  0  0  0  0
    7.6471    8.9024   26.7040 H   0  0  0  0  0  0
    6.9739    6.4074   28.1740 H   0  0  0  0  0  0
    6.7449    8.4880   29.5178 H   0  0  0  0  0  0
    5.1394    7.7609   29.1707 H   0  0  0  0  0  0
    5.6961    9.1941   28.2419 H   0  0  0  0  0  0
    5.7790    5.0445   27.2226 H   0  0  0  0  0  0
    4.8876    5.3524   24.5366 H   0  0  0  0  0  0
    4.9020    3.3431   26.4113 H   0  0  0  0  0  0
    3.1430    3.7069   26.3943 H   0  0  0  0  0  0
    2.8459    2.8597   24.3265 H   0  0  0  0  0  0
    4.5186    3.2399   23.7935 H   0  0  0  0  0  0
    6.6247    0.6089   25.8416 H   0  0  0  0  0  0
    6.1731    2.2734   26.3438 H   0  0  0  0  0  0
    6.6616    1.9490   24.6459 H   0  0  0  0  0  0
    2.5514    4.9726   23.7767 H   0  0  0  0  0  0
    1.0011    7.3111   24.9380 H   0  0  0  0  0  0
    1.2230    7.3942   22.5390 H   0  0  0  0  0  0
    0.7649    5.6660   22.3653 H   0  0  0  0  0  0
   -1.0343    7.2069   25.7975 H   0  0  0  0  0  0
   -1.5216    4.4709   26.8639 H   0  0  0  0  0  0
   -1.8050    6.0540   28.6023 H   0  0  0  0  0  0
   -2.4727    7.2929   27.4861 H   0  0  0  0  0  0
   -4.2742    6.3971   29.0147 H   0  0  0  0  0  0
   -2.6714    6.1776   24.1750 H   0  0  0  0  0  0
   -5.4498    5.2984   24.5977 H   0  0  0  0  0  0
   -4.0541    6.4988   22.1151 H   0  0  0  0  0  0
   -5.8290    6.2498   22.2339 H   0  0  0  0  0  0
   -7.1359    7.7031   23.1847 H   0  0  0  0  0  0
   -6.4601    9.2707   24.0308 H   0  0  0  0  0  0
   -6.3195    3.4341   24.3602 H   0  0  0  0  0  0
   -5.2569    1.3185   22.7018 H   0  0  0  0  0  0
   -8.1734    2.0002   23.4973 H   0  0  0  0  0  0
   -6.6239    1.4683   25.3976 H   0  0  0  0  0  0
   -8.1204    0.5267   21.4621 H   0  0  0  0  0  0
   -8.7324   -0.3258   22.9200 H   0  0  0  0  0  0
   -7.0533   -0.6132   22.3502 H   0  0  0  0  0  0
   -5.2475    0.9344   20.4392 H   0  0  0  0  0  0
   -7.1837    2.7299   18.9840 H   0  0  0  0  0  0
   -4.9091    3.9015   19.2039 H   0  0  0  0  0  0
   -4.2074    2.5800   18.2099 H   0  0  0  0  0  0
   -5.5765    3.1934   16.3210 H   0  0  0  0  0  0
   -7.5934    3.8170   17.6318 H   0  0  0  0  0  0
   -7.1553    5.0654   16.4169 H   0  0  0  0  0  0
   -6.7697    5.3262   18.1518 H   0  0  0  0  0  0
   -3.4742    4.4129   16.6268 H   0  0  0  0  0  0
   -4.3428    5.6788   17.5594 H   0  0  0  0  0  0
   -4.7283    5.4180   15.8245 H   0  0  0  0  0  0
   -8.4333    1.4753   17.8302 H   0  0  0  0  0  0
   -6.9880   -0.9593   16.7158 H   0  0  0  0  0  0
   -9.9243   -0.5186   17.5165 H   0  0  0  0  0  0
   -9.3571   -1.9970   16.6685 H   0  0  0  0  0  0
   -7.9697   -2.6214   18.5119 H   0  0  0  0  0  0
   -8.2166   -1.0355   19.3184 H   0  0  0  0  0  0
   -7.2394   -1.7896   14.7095 H   0  0  0  0  0  0
   -7.7532    0.4576   12.8191 H   0  0  0  0  0  0
   -6.8684   -2.4593   12.3500 H   0  0  0  0  0  0
   -6.9380   -1.2137   11.0575 H   0  0  0  0  0  0
   -5.1033   -1.2753   13.4574 H   0  0  0  0  0  0
   -4.5641   -2.8639   11.6448 H   0  0  0  0  0  0
   -3.3566   -1.5393   11.7643 H   0  0  0  0  0  0
   -4.5925   -1.5131   10.4610 H   0  0  0  0  0  0
   -5.8147    1.0292   12.9091 H   0  0  0  0  0  0
   -5.3247    0.7657   11.2012 H   0  0  0  0  0  0
   -4.0888    0.7394   12.5045 H   0  0  0  0  0  0
  1  2  1  0  0  0
  1 69  1  0  0  0
  1 70  1  0  0  0
  1 71  1  0  0  0
  2  3  1  0  0  0
  2  5  1  0  0  0
  2 72  1  0  0  0
  3  4  2  0  0  0
  3  6  1  0  0  0
  5 73  1  0  0  0
  5 74  1  0  0  0
  5 75  1  0  0  0
  6  7  1  0  0  0
  6 76  1  0  0  0
  7  8  1  0  0  0
  7 10  1  0  0  0
  7 77  1  0  0  0
  8  9  2  0  0  0
  8 14  1  0  0  0
 10 11  1  0  0  0
 10 78  1  0  0  0
 10 79  1  0  0  0
 11 12  1  0  0  0
 11 80  1  0  0  0
 11 81  1  0  0  0
 12 13  1  0  0  0
 13 82  1  0  0  0
 13 83  1  0  0  0
 13 84  1  0  0  0
 14 15  1  0  0  0
 14 85  1  0  0  0
 15 16  1  0  0  0
 15 18  1  0  0  0
 15 86  1  0  0  0
 16 17  2  0  0  0
 16 22  1  0  0  0
 18 19  1  0  0  0
 18 87  1  0  0  0
 18 88  1  0  0  0
 19 20  2  0  0  0
 19 21  1  0  0  0
 22 23  1  0  0  0
 22 89  1  0  0  0
 23 24  1  0  0  0
 23 26  1  0  0  0
 23 90  1  0  0  0
 24 25  2  0  0  0
 24 28  1  0  0  0
 26 27  1  0  0  0
 26 91  1  0  0  0
 26 92  1  0  0  0
 27 93  1  0  0  0
 28 29  1  0  0  0
 28 94  1  0  0  0
 29 30  1  0  0  0
 29 32  1  0  0  0
 29 95  1  0  0  0
 30 31  2  0  0  0
 30 36  1  0  0  0
 32 33  1  0  0  0
 32 96  1  0  0  0
 32 97  1  0  0  0
 33 34  2  0  0  0
 33 35  1  0  0  0
 35 98  1  0  0  0
 35 99  1  0  0  0
 36 37  1  0  0  0
 36100  1  0  0  0
 37 38  1  0  0  0
 37 40  1  0  0  0
 37101  1  0  0  0
 38 39  2  0  0  0
 38 43  1  0  0  0
 40 41  1  0  0  0
 40 42  1  0  0  0
 40102  1  0  0  0
 41103  1  0  0  0
 42104  1  0  0  0
 42105  1  0  0  0
 42106  1  0  0  0
 43 44  1  0  0  0
 43107  1  0  0  0
 44 45  1  0  0  0
 44 47  1  0  0  0
 44108  1  0  0  0
 45 46  2  0  0  0
 45 51  1  0  0  0
 47 48  1  0  0  0
 47109  1  0  0  0
 47110  1  0  0  0
 48 49  1  0  0  0
 48 50  1  0  0  0
 48111  1  0  0  0
 49112  1  0  0  0
 49113  1  0  0  0
 49114  1  0  0  0
 50115  1  0  0  0
 50116  1  0  0  0
 50117  1  0  0  0
 51 52  1  0  0  0
 51118  1  0  0  0
 52 53  1  0  0  0
 52 55  1  0  0  0
 52119  1  0  0  0
 53 54  2  0  0  0
 53 60  1  0  0  0
 55 56  1  0  0  0
 55120  1  0  0  0
 55121  1  0  0  0
 56 57  1  0  0  0
 56122  1  0  0  0
 56123  1  0  0  0
 57 58  1  0  0  0
 57 59  2  0  0  0
 60 61  1  0  0  0
 60124  1  0  0  0
 61 62  1  0  0  0
 61 64  1  0  0  0
 61125  1  0  0  0
 62 63  2  0  0  0
 62 68  1  0  0  0
 64 65  1  0  0  0
 64126  1  0  0  0
 64127  1  0  0  0
 65 66  1  0  0  0
 65 67  1  0  0  0
 65128  1  0  0  0
 66129  1  0  0  0
 66130  1  0  0  0
 66131  1  0  0  0
 67132  1  0  0  0
 67133  1  0  0  0
 67134  1  0  0  0
M  CHG  4   1   1  21  -1  58  -1  68  -1
M  END
> <s_m_source_file>
../2x4s_ligand.sdf

> <i_m_source_file_index>
1

> <s_epik_input>
W05IMytdW0NAQEhdKFtDSDNdKUMoPU8pW05IXVtDQEBIXShbQ0gyXVtDSDJdU1tDSDNdKUMoPU8pW05IXVtDQEBIXShbQ0gyXUMoPU8pW09IXSlDKD1PKVtOSF1bQ0BASF0oW0NIMl1bT0hdKUMoPU8pW05IXVtDQEBIXShbQ0gyXUMoPU8pW05IMl0pQyg9TylbTkhdW0NAQEhdKFtDQEhdKFtPSF0pW0NIM10pQyg9TylbTkhdW0NAQEhdKFtDSDJdW0NIXShbQ0gzXSlbQ0gzXSlDKD1PKVtOSF1bQ0BASF0oW0NIMl1bQ0gyXUMoPU8pW09IXSlDKD1PKVtOSF1bQ0BIXShDKD1PKVtPSF0pW0NIMl1bQ0hdKFtDSDNdKVtDSDNd

> <s_epik_cmdline>
J2VwaWtfYXBwJywgJy1pbWFlJywgJ2xpZ2FuZF9wcm8ubWFlJywgJy1vbWFlJywgJ2xpZ2FuZF9wcmVwLm1hZScsICctbXMnLCAnMScsICctcGgnLCAnNycsICctcGh0JywgJzAuNScsICctbnQn

> <r_epik_Ionization_Penalty>
  0.1307

> <r_epik_Ionization_Penalty_Charging>
  0.1307

> <r_epik_Ionization_Penalty_Neutral>
  0.0000

> <r_epik_State_Penalty>
  0.1169

> <r_epik_Charging_Adjusted_Penalty>
0.247646632952704

> <i_epik_Tot_Q>
-2

> <i_epik_Tot_abs_Q>
4

$$$$
