2x4t_ligand
                    3D
 Schrodinger Suite 2020-3.
140139  0  0  1  0            999 V2000
   22.0570   34.6260   43.9840 N   0  3  0  0  0  0
   23.3540   34.8670   44.6080 C   0  0  2  0  0  0
   24.4500   35.1020   43.5690 C   0  0  0  0  0  0
   24.8430   34.1750   42.8660 O   0  0  0  0  0  0
   23.7270   33.6820   45.5010 C   0  0  0  0  0  0
   24.9110   33.9780   46.4140 C   0  0  0  0  0  0
   25.9380   34.5000   45.9790 O   0  0  0  0  0  0
   24.7720   33.6280   47.6890 N   0  0  0  0  0  0
   24.9460   36.3350   43.4930 N   0  0  0  0  0  0
   25.9570   36.7270   42.5130 C   0  0  2  0  0  0
   27.2020   35.8470   42.4640 C   0  0  0  0  0  0
   27.4260   35.0030   43.3320 O   0  0  0  0  0  0
   26.3960   38.1610   42.7690 C   0  0  0  0  0  0
   25.3330   39.1940   42.4390 C   0  0  0  0  0  0
   25.8240   40.5810   42.7800 C   0  0  0  0  0  0
   24.9910   39.0990   40.9790 C   0  0  0  0  0  0
   28.0180   36.0760   41.4360 N   0  0  0  0  0  0
   29.2990   35.3870   41.2790 C   0  0  2  0  0  0
   30.3950   36.1570   42.0120 C   0  0  0  0  0  0
   30.2700   37.3630   42.2370 O   0  0  0  0  0  0
   29.6950   35.2280   39.7840 C   0  0  0  0  0  0
   30.4100   36.4730   39.2900 C   0  0  0  0  0  0
   30.5790   34.0120   39.5830 C   0  0  0  0  0  0
   34.8590   39.0930   43.3630 O   0  0  0  0  0  0
   34.3480   38.0200   43.0570 C   0  0  0  0  0  0
   33.0950   37.6230   43.8380 C   0  0  2  0  0  0
   32.9680   38.4670   44.9960 O   0  0  0  0  0  0
   33.0580   36.1570   44.3000 C   0  0  2  0  0  0
   34.0540   35.3660   43.6400 O   0  0  0  0  0  0
   31.6730   35.5230   44.1130 C   0  0  0  0  0  0
   31.3780   35.3330   42.6970 N   0  0  0  0  0  0
   34.4700   37.5250   41.6800 N   0  0  0  0  0  0
   35.6910   37.7420   40.8900 C   0  0  2  0  0  0
   36.0360   39.2420   40.7490 C   0  0  0  0  0  0
   36.6800   39.7860   41.6520 O   0  0  0  0  0  0
   35.6350   37.0160   39.5350 C   0  0  0  0  0  0
   35.1730   35.5670   39.5880 C   0  0  0  0  0  0
   35.1830   34.8350   37.9370 S   0  0  0  0  0  0
   34.4660   33.2290   38.2770 C   0  0  0  0  0  0
   35.6540   39.9270   39.6610 N   0  0  0  0  0  0
   35.0350   39.3900   38.4440 C   0  0  2  0  0  0
   35.9330   39.7510   37.2660 C   0  0  0  0  0  0
   36.0680   40.9280   36.9350 O   0  0  0  0  0  0
   33.6480   40.0110   38.1930 C   0  0  0  0  0  0
   33.0940   39.5620   36.8490 C   0  0  0  0  0  0
   32.6970   39.6360   39.3070 C   0  0  0  0  0  0
   36.5450   38.7510   36.6330 N   0  0  0  0  0  0
   37.6010   39.0080   35.6410 C   0  0  2  0  0  0
   37.2300   40.0690   34.5890 C   0  0  0  0  0  0
   36.0850   40.1350   34.1420 O   0  0  0  0  0  0
   38.0360   37.7100   34.9740 C   0  0  0  0  0  0
   38.1930   40.9080   34.2100 N   0  0  0  0  0  0
   37.9560   41.9360   33.1900 C   0  0  2  0  0  0
   38.4030   41.4560   31.8160 C   0  0  0  0  0  0
   39.1870   40.5070   31.7130 O   0  0  0  0  0  0
   38.6680   43.2680   33.5020 C   0  0  2  0  0  0
   40.0530   43.0200   33.7530 O   0  0  0  0  0  0
   38.0500   43.9460   34.7130 C   0  0  0  0  0  0
   37.9000   42.1180   30.7690 N   0  0  0  0  0  0
   38.1460   41.7090   29.3840 C   0  0  2  0  0  0
   39.5710   42.0140   28.9520 C   0  0  0  0  0  0
   40.1720   43.0090   29.3730 O   0  5  0  0  0  0
   37.1800   42.3910   28.3780 C   0  0  0  0  0  0
   35.7480   41.8660   28.5380 C   0  0  0  0  0  0
   37.2390   43.9090   28.5170 C   0  0  0  0  0  0
   40.1370   41.2600   28.1580 O   0  0  0  0  0  0
   21.7939   35.4806   43.3434 H   0  0  0  0  0  0
   21.2917   34.5035   44.7646 H   0  0  0  0  0  0
   22.1079   33.7122   43.3737 H   0  0  0  0  0  0
   23.2216   35.7840   45.2009 H   0  0  0  0  0  0
   22.8698   33.4190   46.1382 H   0  0  0  0  0  0
   23.9952   32.8197   44.8729 H   0  0  0  0  0  0
   23.8358   33.1642   48.0331 H   0  0  0  0  0  0
   25.5932   33.8022   48.3998 H   0  0  0  0  0  0
   24.5610   37.0736   44.2115 H   0  0  0  0  0  0
   25.4182   36.5973   41.5628 H   0  0  0  0  0  0
   26.6509   38.2822   43.8322 H   0  0  0  0  0  0
   27.2775   38.3903   42.1522 H   0  0  0  0  0  0
   24.4256   39.0001   43.0297 H   0  0  0  0  0  0
   26.0688   40.6302   43.8513 H   0  0  0  0  0  0
   25.0380   41.3152   42.5493 H   0  0  0  0  0  0
   26.7228   40.8077   42.1877 H   0  0  0  0  0  0
   24.6360   38.0831   40.7509 H   0  0  0  0  0  0
   25.8857   39.3184   40.3778 H   0  0  0  0  0  0
   24.2009   39.8259   40.7394 H   0  0  0  0  0  0
   27.6961   36.8157   40.6882 H   0  0  0  0  0  0
   29.1389   34.4003   41.7382 H   0  0  0  0  0  0
   28.7867   35.0861   39.1800 H   0  0  0  0  0  0
   29.7635   37.3504   39.4388 H   0  0  0  0  0  0
   30.6394   36.3637   38.2197 H   0  0  0  0  0  0
   31.3451   36.6067   39.8536 H   0  0  0  0  0  0
   30.0550   33.1143   39.9429 H   0  0  0  0  0  0
   31.5144   34.1414   40.1471 H   0  0  0  0  0  0
   30.8087   33.8985   38.5132 H   0  0  0  0  0  0
   32.2351   37.8007   43.1755 H   0  0  0  0  0  0
   32.9716   39.5611   44.8822 H   0  0  0  0  0  0
   33.3435   36.1237   45.3618 H   0  0  0  0  0  0
   35.1097   35.6735   43.6705 H   0  0  0  0  0  0
   31.6467   34.5447   44.6153 H   0  0  0  0  0  0
   30.9068   36.1803   44.5500 H   0  0  0  0  0  0
   31.9035   34.5538   42.1255 H   0  0  0  0  0  0
   33.6206   36.9807   41.2414 H   0  0  0  0  0  0
   36.4826   37.2689   41.4896 H   0  0  0  0  0  0
   34.9364   37.5406   38.8666 H   0  0  0  0  0  0
   36.6376   37.0060   39.0826 H   0  0  0  0  0  0
   35.8483   34.9904   40.2373 H   0  0  0  0  0  0
   34.1504   35.5227   39.9910 H   0  0  0  0  0  0
   34.4044   32.6500   37.3438 H   0  0  0  0  0  0
   33.4569   33.3591   38.6951 H   0  0  0  0  0  0
   35.0964   32.6918   39.0009 H   0  0  0  0  0  0
   35.8512   41.0057   39.7478 H   0  0  0  0  0  0
   34.9421   38.3045   38.5955 H   0  0  0  0  0  0
   33.7375   41.1072   38.1771 H   0  0  0  0  0  0
   33.7969   39.8421   36.0506 H   0  0  0  0  0  0
   32.1240   40.0492   36.6710 H   0  0  0  0  0  0
   32.9606   38.4701   36.8537 H   0  0  0  0  0  0
   33.1119   39.9673   40.2704 H   0  0  0  0  0  0
   32.5619   38.5444   39.3219 H   0  0  0  0  0  0
   31.7253   40.1235   39.1392 H   0  0  0  0  0  0
   36.2472   37.7176   36.8641 H   0  0  0  0  0  0
   38.4243   39.4180   36.2444 H   0  0  0  0  0  0
   38.2951   36.9701   35.7457 H   0  0  0  0  0  0
   38.9139   37.9003   34.3391 H   0  0  0  0  0  0
   37.2133   37.3220   34.3555 H   0  0  0  0  0  0
   39.1834   40.8175   34.6800 H   0  0  0  0  0  0
   36.8651   42.0735   33.2228 H   0  0  0  0  0  0
   38.6266   43.9464   32.6371 H   0  0  0  0  0  0
   40.6722   42.5320   32.9859 H   0  0  0  0  0  0
   36.9839   44.1377   34.5216 H   0  0  0  0  0  0
   38.5656   44.8990   34.9026 H   0  0  0  0  0  0
   38.1531   43.2922   35.5916 H   0  0  0  0  0  0
   37.2798   43.0017   30.9796 H   0  0  0  0  0  0
   37.9802   40.6223   29.4253 H   0  0  0  0  0  0
   37.4993   42.1470   27.3541 H   0  0  0  0  0  0
   35.7449   40.7711   28.4319 H   0  0  0  0  0  0
   35.1056   42.3112   27.7640 H   0  0  0  0  0  0
   35.3664   42.1391   29.5329 H   0  0  0  0  0  0
   38.2785   44.2481   28.3968 H   0  0  0  0  0  0
   36.8709   44.2007   29.5117 H   0  0  0  0  0  0
   36.6101   44.3728   27.7428 H   0  0  0  0  0  0
  1  2  1  0  0  0
  1 67  1  0  0  0
  1 68  1  0  0  0
  1 69  1  0  0  0
  2  3  1  0  0  0
  2  5  1  0  0  0
  2 70  1  0  0  0
  3  4  2  0  0  0
  3  9  1  0  0  0
  5  6  1  0  0  0
  5 71  1  0  0  0
  5 72  1  0  0  0
  6  7  2  0  0  0
  6  8  1  0  0  0
  8 73  1  0  0  0
  8 74  1  0  0  0
  9 10  1  0  0  0
  9 75  1  0  0  0
 10 11  1  0  0  0
 10 13  1  0  0  0
 10 76  1  0  0  0
 11 12  2  0  0  0
 11 17  1  0  0  0
 13 14  1  0  0  0
 13 77  1  0  0  0
 13 78  1  0  0  0
 14 15  1  0  0  0
 14 16  1  0  0  0
 14 79  1  0  0  0
 15 80  1  0  0  0
 15 81  1  0  0  0
 15 82  1  0  0  0
 16 83  1  0  0  0
 16 84  1  0  0  0
 16 85  1  0  0  0
 17 18  1  0  0  0
 17 86  1  0  0  0
 18 19  1  0  0  0
 18 21  1  0  0  0
 18 87  1  0  0  0
 19 20  2  0  0  0
 19 31  1  0  0  0
 21 22  1  0  0  0
 21 23  1  0  0  0
 21 88  1  0  0  0
 22 89  1  0  0  0
 22 90  1  0  0  0
 22 91  1  0  0  0
 23 92  1  0  0  0
 23 93  1  0  0  0
 23 94  1  0  0  0
 24 25  2  0  0  0
 25 26  1  0  0  0
 25 32  1  0  0  0
 26 27  1  0  0  0
 26 28  1  0  0  0
 26 95  1  0  0  0
 27 96  1  0  0  0
 28 29  1  0  0  0
 28 30  1  0  0  0
 28 97  1  0  0  0
 29 98  1  0  0  0
 30 31  1  0  0  0
 30 99  1  0  0  0
 30100  1  0  0  0
 31101  1  0  0  0
 32 33  1  0  0  0
 32102  1  0  0  0
 33 34  1  0  0  0
 33 36  1  0  0  0
 33103  1  0  0  0
 34 35  2  0  0  0
 34 40  1  0  0  0
 36 37  1  0  0  0
 36104  1  0  0  0
 36105  1  0  0  0
 37 38  1  0  0  0
 37106  1  0  0  0
 37107  1  0  0  0
 38 39  1  0  0  0
 39108  1  0  0  0
 39109  1  0  0  0
 39110  1  0  0  0
 40 41  1  0  0  0
 40111  1  0  0  0
 41 42  1  0  0  0
 41 44  1  0  0  0
 41112  1  0  0  0
 42 43  2  0  0  0
 42 47  1  0  0  0
 44 45  1  0  0  0
 44 46  1  0  0  0
 44113  1  0  0  0
 45114  1  0  0  0
 45115  1  0  0  0
 45116  1  0  0  0
 46117  1  0  0  0
 46118  1  0  0  0
 46119  1  0  0  0
 47 48  1  0  0  0
 47120  1  0  0  0
 48 49  1  0  0  0
 48 51  1  0  0  0
 48121  1  0  0  0
 49 50  2  0  0  0
 49 52  1  0  0  0
 51122  1  0  0  0
 51123  1  0  0  0
 51124  1  0  0  0
 52 53  1  0  0  0
 52125  1  0  0  0
 53 54  1  0  0  0
 53 56  1  0  0  0
 53126  1  0  0  0
 54 55  2  0  0  0
 54 59  1  0  0  0
 56 57  1  0  0  0
 56 58  1  0  0  0
 56127  1  0  0  0
 57128  1  0  0  0
 58129  1  0  0  0
 58130  1  0  0  0
 58131  1  0  0  0
 59 60  1  0  0  0
 59132  1  0  0  0
 60 61  1  0  0  0
 60 63  1  0  0  0
 60133  1  0  0  0
 61 62  1  0  0  0
 61 66  2  0  0  0
 63 64  1  0  0  0
 63 65  1  0  0  0
 63134  1  0  0  0
 64135  1  0  0  0
 64136  1  0  0  0
 64137  1  0  0  0
 65138  1  0  0  0
 65139  1  0  0  0
 65140  1  0  0  0
M  CHG  2   1   1  62  -1
M  END
> <s_m_source_file>
../2x4t_ligand.sdf

> <i_m_source_file_index>
1

> <s_epik_input>
Tz1DKFtOSDJdKVtDSDJdW0NASF0oW05IMytdKUMoPU8pW05IXVtDQEBIXShbQ0gyXVtDSF0oW0NIM10pW0NIM10pQyg9TylbTkhdW0NAQEhdKFtDSF0oW0NIM10pW0NIM10pQyg9TylbTkhdW0NIMl1bQ0BASF0oW09IXSlbQ0BASF0oW09IXSlDKD1PKVtOSF1bQ0BASF0oW0NIMl1bQ0gyXVNbQ0gzXSlDKD1PKVtOSF1bQ0BASF0oW0NIXShbQ0gzXSlbQ0gzXSlDKD1PKVtOSF1bQ0BASF0oW0NIM10pQyg9TylbTkhdW0NAQEhdKFtDQEhdKFtPSF0pW0NIM10pQyg9TylbTkhdW0NASF0oQyg9TylbT0hdKVtDSF0oW0NIM10pW0NIM10=

> <s_epik_cmdline>
J2VwaWtfYXBwJywgJy1pbWFlJywgJ2xpZ2FuZF9wcm8ubWFlJywgJy1vbWFlJywgJ2xpZ2FuZF9wcmVwLm1hZScsICctbXMnLCAnMScsICctcGgnLCAnNycsICctcGh0JywgJzAuNScsICctbnQn

> <r_epik_Ionization_Penalty>
  0.2007

> <r_epik_Ionization_Penalty_Charging>
  0.2007

> <r_epik_Ionization_Penalty_Neutral>
  0.0000

> <r_epik_State_Penalty>
  0.1904

> <r_epik_Charging_Adjusted_Penalty>
0.391093992154179

> <i_epik_Tot_Q>
0

> <i_epik_Tot_abs_Q>
2

$$$$
