2x4u_ligand
                    3D
 Schrodinger Suite 2020-3.
147148  0  0  1  0            999 V2000
   22.7220   32.9340   44.4840 N   0  3  0  0  0  0
   23.9350   33.6080   44.9310 C   0  0  2  0  0  0
   24.9300   33.8370   43.7850 C   0  0  0  0  0  0
   25.1410   32.9520   42.9590 O   0  0  0  0  0  0
   24.6070   32.8240   46.0740 C   0  0  2  0  0  0
   24.1270   33.3480   47.4280 C   0  0  0  0  0  0
   26.1140   32.9120   45.9730 C   0  0  0  0  0  0
   24.9200   32.8160   48.6080 C   0  0  0  0  0  0
   25.5270   35.0300   43.7450 N   0  0  0  0  0  0
   26.5160   35.3960   42.7290 C   0  0  2  0  0  0
   27.8370   34.6760   42.9150 C   0  0  0  0  0  0
   28.1520   34.1860   43.9950 O   0  0  0  0  0  0
   26.8510   36.8840   42.8010 C   0  0  0  0  0  0
   25.7920   37.9660   42.7350 C   0  0  0  0  0  0
   26.4900   39.3270   42.7890 C   0  0  0  0  0  0
   25.0010   37.8000   41.4630 C   0  0  0  0  0  0
   28.6330   34.6880   41.8560 N   0  0  0  0  0  0
   29.9790   34.1430   41.8790 C   0  0  2  0  0  0
   30.9440   35.1070   42.5620 C   0  0  0  0  0  0
   30.6800   36.3050   42.6400 O   0  0  0  0  0  0
   30.4500   33.9090   40.4460 C   0  0  0  0  0  0
   31.6870   33.0520   40.3400 C   0  0  0  0  0  0
   32.4430   33.3230   39.0600 C   0  0  0  0  0  0
   33.4580   32.2290   38.8450 C   0  0  0  0  0  0
   33.7290   31.5700   40.1490 N   0  3  0  0  0  0
   32.0590   34.5730   43.0540 N   0  0  0  0  0  0
   33.2000   35.3860   43.4760 C   0  0  2  0  0  0
   34.4720   34.5380   43.4440 C   0  0  0  0  0  0
   34.4470   33.3750   43.8510 O   0  0  0  0  0  0
   32.9810   35.9700   44.8750 C   0  0  0  0  0  0
   32.8930   34.9440   45.9990 C   0  0  0  0  0  0
   33.2380   35.5390   47.3560 C   0  0  0  0  0  0
   32.5280   35.2370   48.3410 O   0  5  0  0  0  0
   34.2170   36.3130   47.4370 O   0  0  0  0  0  0
   35.5940   35.1080   42.9600 N   0  0  0  0  0  0
   35.8210   36.4560   42.4200 C   0  0  2  0  0  0
   35.7930   36.5210   40.8860 C   0  0  0  0  0  0
   36.2710   35.6040   40.2210 O   0  0  0  0  0  0
   37.2430   36.7850   42.9050 C   0  0  0  0  0  0
   37.7420   35.5370   43.6500 C   0  0  0  0  0  0
   36.8700   34.4200   43.1980 C   0  0  0  0  0  0
   35.2660   37.6110   40.3330 N   0  0  0  0  0  0
   35.1820   37.7790   38.8800 C   0  0  2  0  0  0
   36.5310   38.1640   38.2620 C   0  0  0  0  0  0
   37.3610   38.7930   38.9190 O   0  0  0  0  0  0
   34.1380   38.8480   38.5080 C   0  0  0  0  0  0
   33.7780   38.7520   37.0320 C   0  0  0  0  0  0
   32.9000   38.6960   39.3740 C   0  0  0  0  0  0
   36.7380   37.7910   36.9990 N   0  0  0  0  0  0
   38.0030   38.0500   36.3040 C   0  0  2  0  0  0
   37.8760   38.9720   35.0900 C   0  0  0  0  0  0
   36.9450   38.8470   34.2900 O   0  0  0  0  0  0
   38.6630   36.7390   35.8760 C   0  0  0  0  0  0
   39.8060   36.3250   36.7490 C   0  0  0  0  0  0
   41.1040   36.7200   36.5090 N   0  0  0  0  0  0
   39.8480   35.5490   37.8590 C   0  0  0  0  0  0
   41.8970   36.2080   37.4340 C   0  0  0  0  0  0
   41.1590   35.4940   38.2650 N   0  0  0  0  0  0
   38.8350   39.8840   34.9500 N   0  0  0  0  0  0
   38.8270   40.8510   33.8660 C   0  0  0  0  0  0
   39.1460   40.2450   32.5130 C   0  0  0  0  0  0
   39.8850   39.2640   32.4220 O   0  0  0  0  0  0
   38.5880   40.8340   31.4580 N   0  0  0  0  0  0
   38.8220   40.3590   30.0980 C   0  0  2  0  0  0
   40.1580   40.8550   29.5420 C   0  0  0  0  0  0
   40.7930   41.7530   30.0950 O   0  0  0  0  0  0
   37.6890   40.7910   29.1400 C   0  0  0  0  0  0
   36.3360   40.6250   29.8130 C   0  0  0  0  0  0
   37.8930   42.2270   28.6900 C   0  0  0  0  0  0
   40.6400   40.3680   28.5170 O   0  5  0  0  0  0
   22.2608   33.5114   43.6692 H   0  0  0  0  0  0
   22.0155   32.8557   45.3235 H   0  0  0  0  0  0
   22.9746   31.9264   44.1221 H   0  0  0  0  0  0
   23.5745   34.5839   45.2883 H   0  0  0  0  0  0
   24.3367   31.7610   45.9902 H   0  0  0  0  0  0
   24.2101   34.4447   47.4471 H   0  0  0  0  0  0
   23.0775   33.0571   47.5827 H   0  0  0  0  0  0
   26.4387   32.5310   44.9935 H   0  0  0  0  0  0
   26.5708   32.3083   46.7711 H   0  0  0  0  0  0
   26.4281   33.9607   46.0810 H   0  0  0  0  0  0
   24.5162   33.2367   49.5407 H   0  0  0  0  0  0
   25.9755   33.1067   48.5014 H   0  0  0  0  0  0
   24.8429   31.7191   48.6369 H   0  0  0  0  0  0
   25.2446   35.7539   44.5236 H   0  0  0  0  0  0
   26.0246   35.0999   41.7905 H   0  0  0  0  0  0
   27.3539   37.1009   43.7550 H   0  0  0  0  0  0
   27.5164   37.1508   41.9667 H   0  0  0  0  0  0
   25.0872   37.8836   43.5755 H   0  0  0  0  0  0
   27.0557   39.4119   43.7285 H   0  0  0  0  0  0
   25.7370   40.1274   42.7408 H   0  0  0  0  0  0
   27.1789   39.4198   41.9365 H   0  0  0  0  0  0
   24.5149   36.8132   41.4597 H   0  0  0  0  0  0
   25.6763   37.8790   40.5983 H   0  0  0  0  0  0
   24.2344   38.5866   41.4026 H   0  0  0  0  0  0
   28.2361   35.1345   40.9323 H   0  0  0  0  0  0
   29.9127   33.2041   42.4482 H   0  0  0  0  0  0
   29.6554   33.4046   39.8766 H   0  0  0  0  0  0
   30.6825   34.8750   39.9741 H   0  0  0  0  0  0
   32.3538   33.2641   41.1887 H   0  0  0  0  0  0
   31.3999   31.9902   40.3557 H   0  0  0  0  0  0
   31.7383   33.3450   38.2156 H   0  0  0  0  0  0
   32.9554   34.2934   39.1352 H   0  0  0  0  0  0
   33.0593   31.4943   38.1300 H   0  0  0  0  0  0
   34.3861   32.6633   38.4451 H   0  0  0  0  0  0
   34.4689   30.7683   40.0079 H   0  0  0  0  0  0
   32.7959   31.1424   40.5446 H   0  0  0  0  0  0
   34.1228   32.3115   40.8597 H   0  0  0  0  0  0
   32.1035   33.4771   43.1380 H   0  0  0  0  0  0
   33.2674   36.2113   42.7519 H   0  0  0  0  0  0
   33.8158   36.6405   45.1272 H   0  0  0  0  0  0
   32.0379   36.5360   44.8926 H   0  0  0  0  0  0
   31.8688   34.5463   46.0531 H   0  0  0  0  0  0
   33.5957   34.1213   45.8004 H   0  0  0  0  0  0
   35.0141   37.1156   42.7719 H   0  0  0  0  0  0
   37.8827   37.0108   42.0391 H   0  0  0  0  0  0
   37.2096   37.6578   43.5737 H   0  0  0  0  0  0
   38.7948   35.3516   43.3906 H   0  0  0  0  0  0
   37.6545   35.6980   44.7346 H   0  0  0  0  0  0
   36.7306   33.6439   43.9649 H   0  0  0  0  0  0
   37.2153   33.9540   42.2633 H   0  0  0  0  0  0
   34.8872   38.3989   41.0006 H   0  0  0  0  0  0
   34.8809   36.7836   38.5216 H   0  0  0  0  0  0
   34.5587   39.8482   38.6887 H   0  0  0  0  0  0
   34.6881   38.8646   36.4245 H   0  0  0  0  0  0
   33.0651   39.5496   36.7758 H   0  0  0  0  0  0
   33.3206   37.7724   36.8291 H   0  0  0  0  0  0
   33.1832   38.7685   40.4344 H   0  0  0  0  0  0
   32.4378   37.7161   39.1841 H   0  0  0  0  0  0
   32.1823   39.4933   39.1308 H   0  0  0  0  0  0
   35.9200   37.2726   36.4774 H   0  0  0  0  0  0
   38.5946   38.5737   37.0693 H   0  0  0  0  0  0
   38.3715   36.1146   35.0186 H   0  0  0  0  0  0
   39.0736   35.0119   38.4262 H   0  0  0  0  0  0
   42.9756   36.3505   37.4999 H   0  0  0  0  0  0
   39.6513   39.8911   35.6873 H   0  0  0  0  0  0
   37.8311   41.3125   33.7937 H   0  0  0  0  0  0
   39.5785   41.6296   34.0636 H   0  0  0  0  0  0
   37.9349   41.7017   31.6328 H   0  0  0  0  0  0
   38.8462   39.2658   30.2180 H   0  0  0  0  0  0
   37.7012   40.1545   28.2430 H   0  0  0  0  0  0
   36.2101   39.5793   30.1301 H   0  0  0  0  0  0
   35.5386   40.8917   29.1038 H   0  0  0  0  0  0
   36.2804   41.2840   30.6920 H   0  0  0  0  0  0
   38.8764   42.3236   28.2068 H   0  0  0  0  0  0
   37.8461   42.8949   29.5628 H   0  0  0  0  0  0
   37.1042   42.5026   27.9745 H   0  0  0  0  0  0
   41.3323   37.3652   35.6478 H   0  0  0  0  0  0
  1  2  1  0  0  0
  1 71  1  0  0  0
  1 72  1  0  0  0
  1 73  1  0  0  0
  2  3  1  0  0  0
  2  5  1  0  0  0
  2 74  1  0  0  0
  3  4  2  0  0  0
  3  9  1  0  0  0
  5  6  1  0  0  0
  5  7  1  0  0  0
  5 75  1  0  0  0
  6  8  1  0  0  0
  6 76  1  0  0  0
  6 77  1  0  0  0
  7 78  1  0  0  0
  7 79  1  0  0  0
  7 80  1  0  0  0
  8 81  1  0  0  0
  8 82  1  0  0  0
  8 83  1  0  0  0
  9 10  1  0  0  0
  9 84  1  0  0  0
 10 11  1  0  0  0
 10 13  1  0  0  0
 10 85  1  0  0  0
 11 12  2  0  0  0
 11 17  1  0  0  0
 13 14  1  0  0  0
 13 86  1  0  0  0
 13 87  1  0  0  0
 14 15  1  0  0  0
 14 16  1  0  0  0
 14 88  1  0  0  0
 15 89  1  0  0  0
 15 90  1  0  0  0
 15 91  1  0  0  0
 16 92  1  0  0  0
 16 93  1  0  0  0
 16 94  1  0  0  0
 17 18  1  0  0  0
 17 95  1  0  0  0
 18 19  1  0  0  0
 18 21  1  0  0  0
 18 96  1  0  0  0
 19 20  2  0  0  0
 19 26  1  0  0  0
 21 22  1  0  0  0
 21 97  1  0  0  0
 21 98  1  0  0  0
 22 23  1  0  0  0
 22 99  1  0  0  0
 22100  1  0  0  0
 23 24  1  0  0  0
 23101  1  0  0  0
 23102  1  0  0  0
 24 25  1  0  0  0
 24103  1  0  0  0
 24104  1  0  0  0
 25105  1  0  0  0
 25106  1  0  0  0
 25107  1  0  0  0
 26 27  1  0  0  0
 26108  1  0  0  0
 27 28  1  0  0  0
 27 30  1  0  0  0
 27109  1  0  0  0
 28 29  2  0  0  0
 28 35  1  0  0  0
 30 31  1  0  0  0
 30110  1  0  0  0
 30111  1  0  0  0
 31 32  1  0  0  0
 31112  1  0  0  0
 31113  1  0  0  0
 32 33  1  0  0  0
 32 34  2  0  0  0
 35 36  1  0  0  0
 35 41  1  0  0  0
 36 37  1  0  0  0
 36 39  1  0  0  0
 36114  1  0  0  0
 37 38  2  0  0  0
 37 42  1  0  0  0
 39 40  1  0  0  0
 39115  1  0  0  0
 39116  1  0  0  0
 40 41  1  0  0  0
 40117  1  0  0  0
 40118  1  0  0  0
 41119  1  0  0  0
 41120  1  0  0  0
 42 43  1  0  0  0
 42121  1  0  0  0
 43 44  1  0  0  0
 43 46  1  0  0  0
 43122  1  0  0  0
 44 45  2  0  0  0
 44 49  1  0  0  0
 46 47  1  0  0  0
 46 48  1  0  0  0
 46123  1  0  0  0
 47124  1  0  0  0
 47125  1  0  0  0
 47126  1  0  0  0
 48127  1  0  0  0
 48128  1  0  0  0
 48129  1  0  0  0
 49 50  1  0  0  0
 49130  1  0  0  0
 50 51  1  0  0  0
 50 53  1  0  0  0
 50131  1  0  0  0
 51 52  2  0  0  0
 51 59  1  0  0  0
 53 54  2  0  0  0
 53132  1  0  0  0
 54 55  1  0  0  0
 54 56  1  0  0  0
 55 57  1  0  0  0
 55147  1  0  0  0
 56 58  2  0  0  0
 56133  1  0  0  0
 57 58  1  0  0  0
 57134  1  0  0  0
 59 60  1  0  0  0
 59135  1  0  0  0
 60 61  1  0  0  0
 60136  1  0  0  0
 60137  1  0  0  0
 61 62  2  0  0  0
 61 63  1  0  0  0
 63 64  1  0  0  0
 63138  1  0  0  0
 64 65  1  0  0  0
 64 67  1  0  0  0
 64139  1  0  0  0
 65 66  2  0  0  0
 65 70  1  0  0  0
 67 68  1  0  0  0
 67 69  1  0  0  0
 67140  1  0  0  0
 68141  1  0  0  0
 68142  1  0  0  0
 68143  1  0  0  0
 69144  1  0  0  0
 69145  1  0  0  0
 69146  1  0  0  0
M  CHG  4   1   1  25   1  33  -1  70  -1
M  END
> <s_m_source_file>
../2x4u_ligand.sdf

> <i_m_source_file_index>
1

> <s_epik_input>
W0NIM11bQ0gyXVtDQEhdKFtDSDNdKVtDQEhdKFtOSDMrXSlDKD1PKVtOSF1bQ0BASF0oW0NIMl1bQ0hdKFtDSDNdKVtDSDNdKUMoPU8pW05IXVtDQEBIXShbQ0gyXVtDSDJdW0NIMl1bQ0gyXVtOSDMrXSlDKD1PKVtOSF1bQ0BASF0oW0NIMl1bQ0gyXUMoPU8pW09IXSlDKD1PKU4xW0NAQEhdKFtDSDJdW0NIMl1bQ0gyXTEpQyg9TylbTkhdW0NAQEhdKFtDSF0oW0NIM10pW0NIM10pQyg9TylbTkhdW0NAQEhdKFtDSDJdQzI9TltDSDJdTj1bQ0hdMilDKD1PKVtOSF1bQ0gyXUMoPU8pW05IXVtDQEhdKEMoPU8pW09IXSlbQ0hdKFtDSDNdKVtDSDNd

> <s_epik_cmdline>
J2VwaWtfYXBwJywgJy1pbWFlJywgJ2xpZ2FuZF9wcm8ubWFlJywgJy1vbWFlJywgJ2xpZ2FuZF9wcmVwLm1hZScsICctbXMnLCAnMScsICctcGgnLCAnNycsICctcGh0JywgJzAuNScsICctbnQn

> <r_epik_Ionization_Penalty>
  0.0883

> <r_epik_Ionization_Penalty_Charging>
  0.0883

> <r_epik_Ionization_Penalty_Neutral>
  0.0000

> <r_epik_State_Penalty>
  0.0768

> <r_epik_Charging_Adjusted_Penalty>
0.165110216071404

> <i_epik_Tot_Q>
0

> <i_epik_Tot_abs_Q>
4

> <s_epik_Chemistry_Notes>
This compound has an imine and may undergo hydrolysis.

$$$$
