2x52_ligand
                    3D
 Schrodinger Suite 2020-3.
 99100  0  0  1  0            999 V2000
   32.5940   37.5340    4.8570 C   0  0  0  0  0  0
   34.1040   37.3560    5.0060 C   0  0  0  0  0  0
   34.7990   37.0300    4.0510 O   0  0  0  0  0  0
   34.5780   37.5800    6.2280 N   0  0  0  0  0  0
   36.0030   37.4530    6.5430 C   0  0  2  0  0  0
   36.1610   36.3820    7.6170 C   0  0  1  0  0  0
   35.8300   35.1030    7.0920 O   0  0  0  0  0  0
   37.5900   36.3630    8.1470 C   0  0  2  0  0  0
   37.6610   35.4740    9.2560 O   0  0  0  0  0  0
   38.0280   37.7680    8.5660 C   0  0  1  0  0  0
   39.4780   37.7500    9.0400 C   0  0  0  0  0  0
   40.3280   37.3160    7.9800 O   0  0  0  0  0  0
   37.8950   38.6700    7.4610 O   0  0  0  0  0  0
   36.5240   38.7930    7.0640 C   0  0  2  0  0  0
   35.7560   39.0500    8.2250 O   0  0  0  0  0  0
   35.6240   40.3700    8.4920 C   0  0  0  0  0  0
   36.1500   41.1950    7.7490 O   0  0  0  0  0  0
   34.9150   40.6910    9.5680 N   0  0  0  0  0  0
   34.6260   42.0720    9.9530 C   0  0  0  0  0  0
   34.4090   42.1160   11.4620 C   0  0  0  0  0  0
   33.0800   41.4630   11.8610 C   0  0  0  0  0  0
   33.1730   41.0600   13.2340 O   0  0  0  0  0  0
   31.8710   40.9180   13.8070 C   0  0  0  0  0  0
   31.4840   42.1700   14.5640 C   0  0  0  0  0  0
   30.1050   42.1000   14.9220 O   0  0  0  0  0  0
   29.6900   43.3300   15.5190 C   0  0  0  0  0  0
   28.8470   44.1460   14.5530 C   0  0  0  0  0  0
   27.5760   43.5190   14.3230 O   0  0  0  0  0  0
   27.3860   43.3310   12.9190 C   0  0  0  0  0  0
   26.6840   44.5420   12.3030 C   0  0  0  0  0  0
   25.2520   44.1950   11.8950 C   0  0  0  0  0  0
   25.2500   42.9450   11.1240 N   0  0  0  0  0  0
   24.4400   42.0560   11.6930 C   0  0  0  0  0  0
   23.9620   42.1680   12.7990 O   0  0  0  0  0  0
   24.2550   40.9820   10.7700 O   0  0  0  0  0  0
   23.3990   39.9810   11.2970 C   0  0  1  0  0  0
   22.0220   40.3270   11.0810 O   0  0  0  0  0  0
   21.7190   40.5130    9.6950 C   0  0  2  0  0  0
   20.2590   40.9450    9.5450 C   0  0  0  0  0  0
   20.0800   42.2270   10.1440 O   0  0  0  0  0  0
   22.0070   39.2390    8.8980 C   0  0  1  0  0  0
   21.7430   39.4590    7.5120 O   0  0  0  0  0  0
   23.4660   38.8340    9.0860 C   0  0  2  0  0  0
   23.7380   37.6040    8.4170 O   0  0  0  0  0  0
   23.7620   38.6930   10.5690 C   0  0  1  0  0  0
   25.1920   38.4330   10.7440 N   0  0  0  0  0  0
   25.3790   37.6480   11.8010 C   0  0  0  0  0  0
   26.8740   37.3830   11.9740 C   0  0  0  0  0  0
   24.4840   37.2190   12.5080 O   0  0  0  0  0  0
   32.3014   37.3277    3.8169 H   0  0  0  0  0  0
   32.3191   38.5668    5.1173 H   0  0  0  0  0  0
   32.0744   36.8357    5.5295 H   0  0  0  0  0  0
   33.8646   37.8685    7.0140 H   0  0  0  0  0  0
   36.5381   37.1690    5.6249 H   0  0  0  0  0  0
   35.4437   36.5552    8.4328 H   0  0  0  0  0  0
   34.8329   34.9260    6.6626 H   0  0  0  0  0  0
   38.2836   35.9596    7.3946 H   0  0  0  0  0  0
   37.3803   34.4176    9.1329 H   0  0  0  0  0  0
   37.3681   38.1592    9.3543 H   0  0  0  0  0  0
   39.7743   38.7623    9.3522 H   0  0  0  0  0  0
   39.5770   37.0601    9.8910 H   0  0  0  0  0  0
   41.4136   37.2412    8.1411 H   0  0  0  0  0  0
   36.4674   39.6260    6.3478 H   0  0  0  0  0  0
   34.5391   39.8589   10.1814 H   0  0  0  0  0  0
   35.4744   42.7150    9.6760 H   0  0  0  0  0  0
   33.7200   42.4159    9.4324 H   0  0  0  0  0  0
   35.2252   41.5774   11.9657 H   0  0  0  0  0  0
   34.3967   43.1626   11.8003 H   0  0  0  0  0  0
   32.2626   42.1882   11.7345 H   0  0  0  0  0  0
   32.8953   40.5871   11.2217 H   0  0  0  0  0  0
   31.1358   40.7428   13.0078 H   0  0  0  0  0  0
   31.8672   40.0654   14.5020 H   0  0  0  0  0  0
   32.0961   42.2520   15.4743 H   0  0  0  0  0  0
   31.6540   43.0508   13.9273 H   0  0  0  0  0  0
   29.0918   43.1180   16.4174 H   0  0  0  0  0  0
   30.5759   43.9190   15.7989 H   0  0  0  0  0  0
   28.6751   45.1481   14.9727 H   0  0  0  0  0  0
   29.3747   44.2365   13.5921 H   0  0  0  0  0  0
   28.3631   43.1997   12.4311 H   0  0  0  0  0  0
   26.7682   42.4369   12.7491 H   0  0  0  0  0  0
   26.6535   45.3607   13.0370 H   0  0  0  0  0  0
   27.2358   44.8707   11.4100 H   0  0  0  0  0  0
   24.6340   44.0701   12.7964 H   0  0  0  0  0  0
   24.8398   45.0066   11.2774 H   0  0  0  0  0  0
   25.8667   42.8570   10.2174 H   0  0  0  0  0  0
   23.5164   39.9372   12.3898 H   0  0  0  0  0  0
   22.3941   41.3117    9.3539 H   0  0  0  0  0  0
   20.0006   40.9993    8.4772 H   0  0  0  0  0  0
   19.6068   40.2126   10.0433 H   0  0  0  0  0  0
   19.0892   42.7048   10.1350 H   0  0  0  0  0  0
   21.3296   38.4257    9.1975 H   0  0  0  0  0  0
   20.7368   39.7598    7.1847 H   0  0  0  0  0  0
   24.1393   39.5640    8.6129 H   0  0  0  0  0  0
   23.5796   37.5215    7.3316 H   0  0  0  0  0  0
   23.2025   37.8446   10.9899 H   0  0  0  0  0  0
   25.9203   38.8720   10.0462 H   0  0  0  0  0  0
   27.4327   37.9044   11.1828 H   0  0  0  0  0  0
   27.0650   36.3018   11.9062 H   0  0  0  0  0  0
   27.2004   37.7520   12.9575 H   0  0  0  0  0  0
  1  2  1  0  0  0
  1 50  1  0  0  0
  1 51  1  0  0  0
  1 52  1  0  0  0
  2  3  2  0  0  0
  2  4  1  0  0  0
  4  5  1  0  0  0
  4 53  1  0  0  0
  5  6  1  0  0  0
  5 14  1  0  0  0
  5 54  1  0  0  0
  6  7  1  0  0  0
  6  8  1  0  0  0
  6 55  1  0  0  0
  7 56  1  0  0  0
  8  9  1  0  0  0
  8 10  1  0  0  0
  8 57  1  0  0  0
  9 58  1  0  0  0
 10 11  1  0  0  0
 10 13  1  0  0  0
 10 59  1  0  0  0
 11 12  1  0  0  0
 11 60  1  0  0  0
 11 61  1  0  0  0
 12 62  1  0  0  0
 13 14  1  0  0  0
 14 15  1  0  0  0
 14 63  1  0  0  0
 15 16  1  0  0  0
 16 17  2  0  0  0
 16 18  1  0  0  0
 18 19  1  0  0  0
 18 64  1  0  0  0
 19 20  1  0  0  0
 19 65  1  0  0  0
 19 66  1  0  0  0
 20 21  1  0  0  0
 20 67  1  0  0  0
 20 68  1  0  0  0
 21 22  1  0  0  0
 21 69  1  0  0  0
 21 70  1  0  0  0
 22 23  1  0  0  0
 23 24  1  0  0  0
 23 71  1  0  0  0
 23 72  1  0  0  0
 24 25  1  0  0  0
 24 73  1  0  0  0
 24 74  1  0  0  0
 25 26  1  0  0  0
 26 27  1  0  0  0
 26 75  1  0  0  0
 26 76  1  0  0  0
 27 28  1  0  0  0
 27 77  1  0  0  0
 27 78  1  0  0  0
 28 29  1  0  0  0
 29 30  1  0  0  0
 29 79  1  0  0  0
 29 80  1  0  0  0
 30 31  1  0  0  0
 30 81  1  0  0  0
 30 82  1  0  0  0
 31 32  1  0  0  0
 31 83  1  0  0  0
 31 84  1  0  0  0
 32 33  1  0  0  0
 32 85  1  0  0  0
 33 34  2  0  0  0
 33 35  1  0  0  0
 35 36  1  0  0  0
 36 37  1  0  0  0
 36 45  1  0  0  0
 36 86  1  0  0  0
 37 38  1  0  0  0
 38 39  1  0  0  0
 38 41  1  0  0  0
 38 87  1  0  0  0
 39 40  1  0  0  0
 39 88  1  0  0  0
 39 89  1  0  0  0
 40 90  1  0  0  0
 41 42  1  0  0  0
 41 43  1  0  0  0
 41 91  1  0  0  0
 42 92  1  0  0  0
 43 44  1  0  0  0
 43 45  1  0  0  0
 43 93  1  0  0  0
 44 94  1  0  0  0
 45 46  1  0  0  0
 45 95  1  0  0  0
 46 47  1  0  0  0
 46 96  1  0  0  0
 47 48  1  0  0  0
 47 49  2  0  0  0
 48 97  1  0  0  0
 48 98  1  0  0  0
 48 99  1  0  0  0
M  END
> <s_m_source_file>
../2x52_ligand.sdf

> <i_m_source_file_index>
1

> <s_epik_input>
W0NIM11DKD1PKVtOSF1bQ0BASF0xW0NAQEhdKFtPSF0pW0NASF0oW09IXSlbQ0BASF0oW0NIMl1bT0hdKU9bQ0BASF0xT0MoPU8pW05IXVtDSDJdW0NIMl1bQ0gyXU9bQ0gyXVtDSDJdT1tDSDJdW0NIMl1PW0NIMl1bQ0gyXVtDSDJdW05IXUMoPU8pT1tDQEhdMk9bQ0BIXShbQ0gyXVtPSF0pW0NAQEhdKFtPSF0pW0NASF0oW09IXSlbQ0BIXTJbTkhdQyg9TylbQ0gzXQ==

> <s_epik_cmdline>
J2VwaWtfYXBwJywgJy1pbWFlJywgJ2xpZ2FuZF9wcm8ubWFlJywgJy1vbWFlJywgJ2xpZ2FuZF9wcmVwLm1hZScsICctbXMnLCAnMScsICctcGgnLCAnNycsICctcGh0JywgJzAuNScsICctbnQn

> <r_lp_tautomer_probability>
1

> <r_epik_Ionization_Penalty>
  0.0001

> <r_epik_Ionization_Penalty_Charging>
  0.0000

> <r_epik_Ionization_Penalty_Neutral>
  0.0001

> <r_epik_State_Penalty>
 -0.0000

> <r_epik_Charging_Adjusted_Penalty>
0

> <i_epik_Tot_Q>
0

> <i_epik_Tot_abs_Q>
0

> <s_epik_Chemistry_Notes>
This compound has an ester and may undergo hydrolysis at high or low pH. This compound contains an acetal/aminal-like group ( X-CH(R)-Y where X, Y are N, S, or O) that may be acid/base labile, releasing an aldehyde.

$$$$
