2x5o_ligand
                    3D
 Schrodinger Suite 2020-3.
 52 54  0  0  1  0            999 V2000
   -5.2560   32.2760   20.3570 O   0  5  0  0  0  0
   -5.1380   31.4770   21.3430 C   0  0  0  0  0  0
   -4.2400   31.5580   22.2100 O   0  0  0  0  0  0
   -6.1220   30.4400   21.6740 C   0  0  0  0  0  0
   -7.0320   30.2010   20.5310 C   0  0  0  0  0  0
   -7.4690   27.7330   20.9710 C   0  0  0  0  0  0
   -7.3780   27.0000   19.9660 O   0  0  0  0  0  0
   -7.2160   27.2660   22.1080 O   0  5  0  0  0  0
   -9.1420   29.2310   20.0480 N   0  0  0  0  0  0
  -10.3900   28.6220   20.4100 C   0  0  0  0  0  0
  -10.4880   27.7830   21.3110 O   0  0  0  0  0  0
  -11.4820   29.0280   19.4990 C   0  0  0  0  0  0
  -11.4510   30.3290   18.9490 C   0  0  0  0  0  0
  -12.5580   28.1810   19.2840 C   0  0  0  0  0  0
  -13.6150   28.6070   18.5120 C   0  0  0  0  0  0
  -13.6080   29.8530   17.9540 C   0  0  0  0  0  0
  -12.5530   30.7260   18.1630 C   0  0  0  0  0  0
  -12.5560   32.0470   17.4000 C   0  0  0  0  0  0
  -13.7920   32.6660   17.3600 N   0  0  0  0  0  0
  -14.4480   33.1070   18.4730 C   0  0  0  0  0  0
  -13.9230   32.9450   19.7650 C   0  0  0  0  0  0
  -14.6430   33.2930   20.9030 C   0  0  0  0  0  0
  -15.7120   33.7040   18.3310 C   0  0  0  0  0  0
  -16.4430   34.0720   19.4680 C   0  0  0  0  0  0
  -15.9330   33.8370   20.7430 C   0  0  0  0  0  0
  -16.6900   34.1480   22.0080 C   0  0  0  0  0  0
  -18.0230   34.3970   22.2250 C   0  0  0  0  0  0
  -19.3050   34.5130   21.0350 S   0  0  0  0  0  0
  -20.4640   34.8440   22.2920 C   0  0  0  0  0  0
  -20.0110   34.7720   23.6050 N   0  0  0  0  0  0
   -8.0570   29.1470   20.9980 C   0  0  2  0  0  0
  -18.6290   34.5130   23.5390 C   0  0  0  0  0  0
  -17.9270   34.5010   24.5410 O   0  5  0  0  0  0
  -21.6530   35.0060   22.0820 O   0  0  0  0  0  0
   -5.5996   29.5026   21.9155 H   0  0  0  0  0  0
   -6.7167   30.7623   22.5415 H   0  0  0  0  0  0
   -7.5328   31.1416   20.2581 H   0  0  0  0  0  0
   -6.4526   29.8315   19.6720 H   0  0  0  0  0  0
   -8.9940   29.7479   19.0883 H   0  0  0  0  0  0
  -10.6094   30.9990   19.1249 H   0  0  0  0  0  0
  -12.5671   27.1836   19.7236 H   0  0  0  0  0  0
  -14.4642   27.9444   18.3449 H   0  0  0  0  0  0
  -14.4473   30.1663   17.3331 H   0  0  0  0  0  0
  -11.8554   32.7478   17.8775 H   0  0  0  0  0  0
  -12.2457   31.8702   16.3596 H   0  0  0  0  0  0
  -14.2967   32.8247   16.3956 H   0  0  0  0  0  0
  -12.9201   32.5338   19.8798 H   0  0  0  0  0  0
  -14.2188   33.1481   21.8966 H   0  0  0  0  0  0
  -16.1234   33.8806   17.3372 H   0  0  0  0  0  0
  -17.4181   34.5457   19.3543 H   0  0  0  0  0  0
  -15.9841   34.1585   22.8515 H   0  0  0  0  0  0
   -8.4288   29.3414   22.0148 H   0  0  0  0  0  0
  1  2  1  0  0  0
  2  3  2  0  0  0
  2  4  1  0  0  0
  4  5  1  0  0  0
  4 35  1  0  0  0
  4 36  1  0  0  0
  5 31  1  0  0  0
  5 37  1  0  0  0
  5 38  1  0  0  0
  6  7  2  0  0  0
  6  8  1  0  0  0
  6 31  1  0  0  0
  9 10  1  0  0  0
  9 31  1  0  0  0
  9 39  1  0  0  0
 10 11  2  0  0  0
 10 12  1  0  0  0
 12 13  2  0  0  0
 12 14  1  0  0  0
 13 17  1  0  0  0
 13 40  1  0  0  0
 14 15  2  0  0  0
 14 41  1  0  0  0
 15 16  1  0  0  0
 15 42  1  0  0  0
 16 17  2  0  0  0
 16 43  1  0  0  0
 17 18  1  0  0  0
 18 19  1  0  0  0
 18 44  1  0  0  0
 18 45  1  0  0  0
 19 20  1  0  0  0
 19 46  1  0  0  0
 20 21  2  0  0  0
 20 23  1  0  0  0
 21 22  1  0  0  0
 21 47  1  0  0  0
 22 25  2  0  0  0
 22 48  1  0  0  0
 23 24  2  0  0  0
 23 49  1  0  0  0
 24 25  1  0  0  0
 24 50  1  0  0  0
 25 26  1  0  0  0
 26 27  2  0  0  0
 26 51  1  0  0  0
 27 28  1  0  0  0
 27 32  1  0  0  0
 28 29  1  0  0  0
 29 30  1  0  0  0
 29 34  2  0  0  0
 30 32  2  0  0  0
 31 52  1  0  0  0
 32 33  1  0  0  0
M  CHG  3   1  -1   8  -1  33  -1
M  END
> <s_m_source_file>
../2x5o_ligand.sdf

> <i_m_source_file_index>
1

> <s_epik_input>
W09IXUMoPU8pW0NIMl1bQ0gyXVtDQEhdKEMoPU8pW09IXSlbTkhdQyg9TyljMVtjSF1jKFtjSF1bY0hdW2NIXTEpW0NIMl1bTkhdYzJbY0hdW2NIXWMoW2NIXVtjSF0yKS9bQ0hdPUMzXFNDKD1PKVtOSF1DMz1P

> <s_epik_cmdline>
J2VwaWtfYXBwJywgJy1pbWFlJywgJ2xpZ2FuZF9wcm8ubWFlJywgJy1vbWFlJywgJ2xpZ2FuZF9wcmVwLm1hZScsICctbXMnLCAnMScsICctcGgnLCAnNycsICctcGh0JywgJzAuNScsICctbnQn

> <r_epik_Ionization_Penalty>
  0.0686

> <r_epik_Ionization_Penalty_Charging>
  0.0673

> <r_epik_Ionization_Penalty_Neutral>
  0.0013

> <r_epik_State_Penalty>
  0.0548

> <r_epik_Charging_Adjusted_Penalty>
0.122119097511534

> <i_epik_Tot_Q>
-3

> <i_epik_Tot_abs_Q>
3

$$$$
