2x6d_ligand
                    3D
 Schrodinger Suite 2020-3.
 66 71  0  0  1  0            999 V2000
    0.6340   37.5200   83.6740 C   0  0  0  0  0  0
    0.0700   38.8790   83.9810 C   0  0  0  0  0  0
    0.7720   39.3980   85.1580 O   0  0  0  0  0  0
    0.5940   38.5710   86.3010 C   0  0  0  0  0  0
    1.1480   37.1950   85.9770 C   0  0  0  0  0  0
    0.4230   36.6410   84.8320 N   0  0  0  0  0  0
    0.9830   35.3240   84.5400 C   0  0  0  0  0  0
    0.3440   34.6340   83.3450 C   0  0  0  0  0  0
   -0.5490   33.6410   83.6420 C   0  0  0  0  0  0
   -1.1630   32.9660   82.6130 C   0  0  0  0  0  0
    0.6570   34.9420   82.0250 C   0  0  0  0  0  0
    0.0480   34.2600   80.9960 C   0  0  0  0  0  0
   -0.9050   33.3100   81.3010 C   0  0  0  0  0  0
   -1.4880   32.5150   80.3210 C   0  0  0  0  0  0
   -1.4030   32.6240   79.0030 N   0  0  0  0  0  0
   -2.1950   31.4210   80.5810 N   0  0  0  0  0  0
   -2.5600   30.8250   79.4650 C   0  0  0  0  0  0
   -2.0680   31.6280   78.4390 C   0  0  0  0  0  0
   -2.2810   31.3310   77.1490 N   0  0  0  0  0  0
   -2.9770   30.2450   76.8410 C   0  0  0  0  0  0
   -3.5390   29.3990   77.8140 C   0  0  0  0  0  0
   -4.4550   27.8960   77.1200 Br  0  0  0  0  0  0
   -3.3240   29.6820   79.1680 C   0  0  0  0  0  0
   -3.8650   28.9300   80.2910 N   0  0  0  0  0  0
   -5.2050   28.7610   80.4210 C   0  0  0  0  0  0
   -5.8400   27.6630   81.2610 C   0  0  0  0  0  0
   -3.5800   29.2630   81.7370 C   0  0  0  0  0  0
   -4.8700   29.1780   82.7260 C   0  0  0  0  0  0
   -5.3440   27.7840   82.6750 N   0  0  0  0  0  0
   -6.3090   26.7680   83.1740 C   0  0  0  0  0  0
   -6.0590   25.3090   82.7820 C   0  0  0  0  0  0
   -6.8860   24.6310   81.8460 C   0  0  0  0  0  0
   -6.5840   23.3040   81.5670 C   0  0  0  0  0  0
   -5.5340   22.6480   82.2120 C   0  0  0  0  0  0
   -5.1970   21.0150   81.8100 Cl  0  0  0  0  0  0
   -4.7450   23.3210   83.1420 C   0  0  0  0  0  0
   -5.0120   24.6550   83.4380 C   0  0  0  0  0  0
    0.1242   37.1018   82.7935 H   0  0  0  0  0  0
    1.7107   37.6081   83.4668 H   0  0  0  0  0  0
    0.2260   39.5440   83.1188 H   0  0  0  0  0  0
   -1.0071   38.7912   84.1862 H   0  0  0  0  0  0
    1.1333   39.0056   87.1556 H   0  0  0  0  0  0
   -0.4774   38.5019   86.5404 H   0  0  0  0  0  0
    2.2170   37.2786   85.7315 H   0  0  0  0  0  0
    1.0224   36.5348   86.8478 H   0  0  0  0  0  0
    2.0570   35.4221   84.3234 H   0  0  0  0  0  0
    0.8431   34.6650   85.4096 H   0  0  0  0  0  0
   -0.7706   33.3885   84.6789 H   0  0  0  0  0  0
   -1.8570   32.1552   82.8344 H   0  0  0  0  0  0
    1.3845   35.7234   81.8055 H   0  0  0  0  0  0
    0.3137   34.4667   79.9593 H   0  0  0  0  0  0
   -3.1196   29.9975   75.7891 H   0  0  0  0  0  0
   -5.6482   29.6677   80.8585 H   0  0  0  0  0  0
   -5.6490   28.5766   79.4316 H   0  0  0  0  0  0
   -6.9344   27.7719   81.2400 H   0  0  0  0  0  0
   -5.5614   26.6807   80.8518 H   0  0  0  0  0  0
   -2.8305   28.5624   82.1338 H   0  0  0  0  0  0
   -3.1946   30.2908   81.8075 H   0  0  0  0  0  0
   -4.5679   29.4537   83.7471 H   0  0  0  0  0  0
   -5.6482   29.8713   82.3741 H   0  0  0  0  0  0
   -6.3161   26.7782   84.2739 H   0  0  0  0  0  0
   -7.3159   27.0032   82.7987 H   0  0  0  0  0  0
   -7.7255   25.1332   81.3652 H   0  0  0  0  0  0
   -7.1786   22.7644   80.8299 H   0  0  0  0  0  0
   -3.9217   22.8052   83.6361 H   0  0  0  0  0  0
   -4.4094   25.1853   84.1754 H   0  0  0  0  0  0
  1  2  1  0  0  0
  1  6  1  0  0  0
  1 38  1  0  0  0
  1 39  1  0  0  0
  2  3  1  0  0  0
  2 40  1  0  0  0
  2 41  1  0  0  0
  3  4  1  0  0  0
  4  5  1  0  0  0
  4 42  1  0  0  0
  4 43  1  0  0  0
  5  6  1  0  0  0
  5 44  1  0  0  0
  5 45  1  0  0  0
  6  7  1  0  0  0
  7  8  1  0  0  0
  7 46  1  0  0  0
  7 47  1  0  0  0
  8  9  2  0  0  0
  8 11  1  0  0  0
  9 10  1  0  0  0
  9 48  1  0  0  0
 10 13  2  0  0  0
 10 49  1  0  0  0
 11 12  2  0  0  0
 11 50  1  0  0  0
 12 13  1  0  0  0
 12 51  1  0  0  0
 13 14  1  0  0  0
 14 15  2  0  0  0
 14 16  1  0  0  0
 15 18  1  0  0  0
 16 17  2  0  0  0
 17 18  1  0  0  0
 17 23  1  0  0  0
 18 19  2  0  0  0
 19 20  1  0  0  0
 20 21  1  0  0  0
 20 52  1  0  0  0
 21 22  1  0  0  0
 21 23  2  0  0  0
 23 24  1  0  0  0
 24 25  1  0  0  0
 24 27  1  0  0  0
 25 26  1  0  0  0
 25 53  1  0  0  0
 25 54  1  0  0  0
 26 29  1  0  0  0
 26 55  1  0  0  0
 26 56  1  0  0  0
 27 28  1  0  0  0
 27 57  1  0  0  0
 27 58  1  0  0  0
 28 29  1  0  0  0
 28 59  1  0  0  0
 28 60  1  0  0  0
 29 30  1  0  0  0
 30 31  1  0  0  0
 30 61  1  0  0  0
 30 62  1  0  0  0
 31 32  2  0  0  0
 31 37  1  0  0  0
 32 33  1  0  0  0
 32 63  1  0  0  0
 33 34  2  0  0  0
 33 64  1  0  0  0
 34 35  1  0  0  0
 34 36  1  0  0  0
 36 37  2  0  0  0
 36 65  1  0  0  0
 37 66  1  0  0  0
M  END
> <s_m_source_file>
../2x6d_ligand.sdf

> <i_m_source_file_index>
1

> <s_epik_input>
W0NIMl0xW0NIMl1PW0NIMl1bQ0gyXVtOSCtdMVtDSDJdYzJbY0hdW2NIXWMoW2NIXVtjSF0yKUMoTj0zKT1OQyhDMzQpPU5bQ0gyXUMoQnIpPUM0TjVbQ0gyXVtDSDJdW05IK10oW0NIMl1bQ0gyXTUpW0NIMl1jNltjSF1bY0hdYyhDbClbY0hdW2NIXTY=

> <s_epik_cmdline>
J2VwaWtfYXBwJywgJy1pbWFlJywgJ2xpZ2FuZF9wcm8ubWFlJywgJy1vbWFlJywgJ2xpZ2FuZF9wcmVwLm1hZScsICctbXMnLCAnMScsICctcGgnLCAnNycsICctcGh0JywgJzAuNScsICctbnQn

> <r_epik_Ionization_Penalty>
  0.3709

> <r_epik_Ionization_Penalty_Charging>
  0.0000

> <r_epik_Ionization_Penalty_Neutral>
  0.3709

> <r_epik_State_Penalty>
  0.2773

> <r_epik_Charging_Adjusted_Penalty>
0.27732729700603

> <i_epik_Tot_Q>
0

> <i_epik_Tot_abs_Q>
0

> <s_epik_Chemistry_Notes>
This compound has an imine and may undergo hydrolysis.

$$$$
