2x6e_ligand
                    3D
 Schrodinger Suite 2020-3.
 68 73  0  0  1  0            999 V2000
   -6.6370   22.4780   -4.4510 C   0  0  0  0  0  0
   -6.4230   23.9110   -3.9240 C   0  0  0  0  0  0
   -7.2110   25.0340   -4.2030 C   0  0  0  0  0  0
   -6.6330   26.1570   -3.4900 C   0  0  0  0  0  0
   -7.1090   27.6100   -3.5110 C   0  0  0  0  0  0
   -6.1560   28.3610   -4.3380 N   0  0  0  0  0  0
   -6.8340   28.9010   -5.5480 C   0  0  0  0  0  0
   -6.1080   30.1540   -6.0420 C   0  0  0  0  0  0
   -4.6740   30.0980   -5.8510 N   0  0  0  0  0  0
   -3.9650   31.0160   -6.7640 C   0  0  0  0  0  0
   -4.0690   30.8660   -8.1240 C   0  0  0  0  0  0
   -5.0240   29.3360   -8.8510 Br  0  0  0  0  0  0
   -3.4590   31.7840   -9.0450 C   0  0  0  0  0  0
   -2.7400   32.8880   -8.5460 N   0  3  0  0  0  0
   -2.6370   33.0600   -7.1590 C   0  0  0  0  0  0
   -1.9880   34.0600   -6.4190 N   0  0  0  0  0  0
   -2.2190   33.7760   -5.1000 C   0  0  0  0  0  0
   -1.6860   34.5060   -4.0200 C   0  0  0  0  0  0
   -2.0950   34.1100   -2.6940 C   0  0  0  0  0  0
   -1.5380   34.8390   -1.5550 C   0  0  0  0  0  0
   -0.6150   35.8960   -1.7810 C   0  0  0  0  0  0
   -0.1170   36.6090   -0.5830 N   0  0  0  0  0  0
    0.1750   35.7120    0.5820 C   0  0  0  0  0  0
    1.2420   36.3850    1.4780 C   0  0  0  0  0  0
    1.1320   37.8670    1.5050 N   0  3  0  0  0  0
    0.8570   38.4620    2.8200 C   0  0  0  0  0  0
    0.6090   38.7090    0.3970 C   0  0  0  0  0  0
   -0.4320   38.0330   -0.4910 C   0  0  0  0  0  0
   -0.1930   36.2890   -3.1180 C   0  0  0  0  0  0
   -0.7450   35.5600   -4.2680 C   0  0  0  0  0  0
   -2.9730   32.5720   -4.9880 N   0  0  0  0  0  0
   -3.2340   32.1640   -6.2640 C   0  0  0  0  0  0
   -4.0410   29.6140   -4.6300 C   0  0  0  0  0  0
   -5.1090   29.1410   -3.6320 C   0  0  0  0  0  0
   -5.5180   25.7120   -2.7980 N   0  0  0  0  0  0
   -5.3720   24.3090   -3.0550 O   0  0  0  0  0  0
   -7.5230   22.4554   -5.1025 H   0  0  0  0  0  0
   -6.7881   21.7941   -3.6028 H   0  0  0  0  0  0
   -5.7526   22.1621   -5.0237 H   0  0  0  0  0  0
   -8.0959   25.0597   -4.8389 H   0  0  0  0  0  0
   -8.1201   27.6584   -3.9415 H   0  0  0  0  0  0
   -7.1283   28.0044   -2.4843 H   0  0  0  0  0  0
   -6.8247   28.1411   -6.3433 H   0  0  0  0  0  0
   -7.8740   29.1602   -5.3006 H   0  0  0  0  0  0
   -6.2938   30.2851   -7.1182 H   0  0  0  0  0  0
   -6.4807   31.0331   -5.4958 H   0  0  0  0  0  0
   -3.5515   31.6280  -10.1198 H   0  0  0  0  0  0
   -2.7989   33.2911   -2.5455 H   0  0  0  0  0  0
   -1.8290   34.5733   -0.5387 H   0  0  0  0  0  0
   -0.7468   35.5496    1.1598 H   0  0  0  0  0  0
    0.5529   34.7462    0.2155 H   0  0  0  0  0  0
    1.1332   36.0245    2.5115 H   0  0  0  0  0  0
    2.2458   36.1327    1.1054 H   0  0  0  0  0  0
    2.1941   37.9365    1.2271 H   0  0  0  0  0  0
    1.2592   37.8095    3.6090 H   0  0  0  0  0  0
   -0.2294   38.5714    2.9530 H   0  0  0  0  0  0
    1.3354   39.4505    2.8824 H   0  0  0  0  0  0
    0.1314   39.6081    0.8137 H   0  0  0  0  0  0
    1.4390   39.0062   -0.2609 H   0  0  0  0  0  0
   -0.4112   38.4788   -1.4964 H   0  0  0  0  0  0
   -1.4337   38.1595   -0.0545 H   0  0  0  0  0  0
    0.5156   37.1046   -3.2623 H   0  0  0  0  0  0
   -0.4467   35.8139   -5.2852 H   0  0  0  0  0  0
   -3.3749   28.7725   -4.8711 H   0  0  0  0  0  0
   -3.4556   30.4259   -4.1738 H   0  0  0  0  0  0
   -5.5670   30.0176   -3.1505 H   0  0  0  0  0  0
   -4.6340   28.5090   -2.8672 H   0  0  0  0  0  0
   -2.2702   33.5985   -9.2420 H   0  0  0  0  0  0
  1  2  1  0  0  0
  1 37  1  0  0  0
  1 38  1  0  0  0
  1 39  1  0  0  0
  2  3  2  0  0  0
  2 36  1  0  0  0
  3  4  1  0  0  0
  3 40  1  0  0  0
  4  5  1  0  0  0
  4 35  2  0  0  0
  5  6  1  0  0  0
  5 41  1  0  0  0
  5 42  1  0  0  0
  6  7  1  0  0  0
  6 34  1  0  0  0
  7  8  1  0  0  0
  7 43  1  0  0  0
  7 44  1  0  0  0
  8  9  1  0  0  0
  8 45  1  0  0  0
  8 46  1  0  0  0
  9 10  1  0  0  0
  9 33  1  0  0  0
 10 11  2  0  0  0
 10 32  1  0  0  0
 11 12  1  0  0  0
 11 13  1  0  0  0
 13 14  2  0  0  0
 13 47  1  0  0  0
 14 15  1  0  0  0
 14 68  1  0  0  0
 15 16  1  0  0  0
 15 32  2  0  0  0
 16 17  2  0  0  0
 17 18  1  0  0  0
 17 31  1  0  0  0
 18 19  2  0  0  0
 18 30  1  0  0  0
 19 20  1  0  0  0
 19 48  1  0  0  0
 20 21  2  0  0  0
 20 49  1  0  0  0
 21 22  1  0  0  0
 21 29  1  0  0  0
 22 23  1  0  0  0
 22 28  1  0  0  0
 23 24  1  0  0  0
 23 50  1  0  0  0
 23 51  1  0  0  0
 24 25  1  0  0  0
 24 52  1  0  0  0
 24 53  1  0  0  0
 25 26  1  0  0  0
 25 27  1  0  0  0
 25 54  1  0  0  0
 26 55  1  0  0  0
 26 56  1  0  0  0
 26 57  1  0  0  0
 27 28  1  0  0  0
 27 58  1  0  0  0
 27 59  1  0  0  0
 28 60  1  0  0  0
 28 61  1  0  0  0
 29 30  2  0  0  0
 29 62  1  0  0  0
 30 63  1  0  0  0
 31 32  1  0  0  0
 33 34  1  0  0  0
 33 64  1  0  0  0
 33 65  1  0  0  0
 34 66  1  0  0  0
 34 67  1  0  0  0
 35 36  1  0  0  0
M  CHG  2  14   1  25   1
M  END
> <s_m_source_file>
../2x6e_ligand.sdf

> <i_m_source_file_index>
1

> <s_epik_input>
W0NIM11jMVtjSF1jKG5vMSlbQ0gyXVtOSCtdMltDSDJdW0NIMl1OKFtDSDJdW0NIMl0yKWMoYyhCcilbY0hdbjMpYyhjMzQpW25IXWMobjQpLWM1W2NIXVtjSF1jKFtjSF1bY0hdNSlONltDSDJdW0NIMl1bTkgrXShbQ0gzXSlbQ0gyXVtDSDJdNg==

> <s_epik_cmdline>
J2VwaWtfYXBwJywgJy1pbWFlJywgJ2xpZ2FuZF9wcm8ubWFlJywgJy1vbWFlJywgJ2xpZ2FuZF9wcmVwLm1hZScsICctbXMnLCAnMScsICctcGgnLCAnNycsICctcGh0JywgJzAuNScsICctbnQn

> <r_lp_tautomer_probability>
1

> <r_epik_Ionization_Penalty>
  3.8700

> <r_epik_Ionization_Penalty_Charging>
  0.0647

> <r_epik_Ionization_Penalty_Neutral>
  3.8053

> <r_epik_State_Penalty>
 -0.0000

> <r_epik_Charging_Adjusted_Penalty>
0.0647487349615153

> <i_epik_Tot_Q>
2

> <i_epik_Tot_abs_Q>
2

$$$$
