2x6i_ligand
                    3D
 Schrodinger Suite 2020-3.
 46 49  0  0  1  0            999 V2000
   20.2550   34.4150    7.0350 O   0  0  0  0  0  0
   19.9490   34.3170    8.2050 C   0  0  0  0  0  0
   20.7390   33.4230    9.1890 C   0  0  0  0  0  0
   20.2670   33.3120   10.6140 C   0  0  0  0  0  0
   20.8630   32.4680   11.4830 N   0  0  0  0  0  0
   21.9710   31.7220   11.0780 C   0  0  0  0  0  0
   22.4680   31.8640    9.7280 C   0  0  0  0  0  0
   21.8090   32.6880    8.8020 C   0  0  0  0  0  0
   18.5990   34.6830    8.6100 N   0  0  0  0  0  0
   18.0000   35.8260    8.0030 C   0  0  0  0  0  0
   18.7490   36.4340    6.9170 N   0  3  0  0  0  0
   18.1760   37.6000    6.2640 C   0  0  0  0  0  0
   18.7570   38.0850    5.1380 C   0  0  0  0  0  0
   19.9930   37.5540    4.7890 O   0  0  0  0  0  0
   21.1390   38.3470    5.0080 C   0  0  0  0  0  0
   16.8620   38.0630    6.6240 C   0  0  0  0  0  0
   16.1730   37.4990    7.8430 C   0  0  3  0  0  0
   16.7130   36.3770    8.4870 N   0  0  0  0  0  0
   16.0510   35.9200    9.6020 C   0  0  0  0  0  0
   14.8420   36.8770    9.7290 C   0  0  0  0  0  0
   14.9710   37.8700    8.5770 N   0  0  1  0  0  0
   16.2270   39.0410    5.8890 C   0  0  0  0  0  0
   16.8440   39.5650    4.7500 C   0  0  0  0  0  0
   18.1350   39.1130    4.3980 C   0  0  0  0  0  0
   18.7440   39.6470    3.2490 O   0  0  0  0  0  0
   18.1290   40.6320    2.4480 C   0  0  0  0  0  0
   19.4296   33.9235   10.9501 H   0  0  0  0  0  0
   22.4573   31.0382   11.7737 H   0  0  0  0  0  0
   23.3655   31.3246    9.4253 H   0  0  0  0  0  0
   22.1586   32.7364    7.7707 H   0  0  0  0  0  0
   19.7177   36.0110    6.6126 H   0  0  0  0  0  0
   22.0340   37.7952    4.6847 H   0  0  0  0  0  0
   21.2215   38.5843    6.0789 H   0  0  0  0  0  0
   21.0551   39.2798    4.4312 H   0  0  0  0  0  0
   15.5724   36.8401    7.1987 H   0  0  0  0  0  0
   15.7416   34.8765    9.4427 H   0  0  0  0  0  0
   16.7196   35.9752   10.4737 H   0  0  0  0  0  0
   13.9084   36.3001    9.6546 H   0  0  0  0  0  0
   14.8801   37.3889   10.7019 H   0  0  0  0  0  0
   15.0744   38.8981    8.9542 H   0  0  0  0  0  0
   15.2462   39.4047    6.1954 H   0  0  0  0  0  0
   16.3357   40.3127    4.1412 H   0  0  0  0  0  0
   18.7936   40.8911    1.6106 H   0  0  0  0  0  0
   17.9359   41.5294    3.0541 H   0  0  0  0  0  0
   17.1780   40.2435    2.0547 H   0  0  0  0  0  0
   18.0697   34.0833    9.3651 H   0  0  0  0  0  0
  1  2  2  0  0  0
  2  3  1  0  0  0
  2  9  1  0  0  0
  3  4  2  0  0  0
  3  8  1  0  0  0
  4  5  1  0  0  0
  4 27  1  0  0  0
  5  6  2  0  0  0
  6  7  1  0  0  0
  6 28  1  0  0  0
  7  8  2  0  0  0
  7 29  1  0  0  0
  8 30  1  0  0  0
  9 10  1  0  0  0
  9 46  1  0  0  0
 10 11  2  0  0  0
 10 18  1  0  0  0
 11 12  1  0  0  0
 11 31  1  0  0  0
 12 13  2  0  0  0
 12 16  1  0  0  0
 13 14  1  0  0  0
 13 24  1  0  0  0
 14 15  1  0  0  0
 15 32  1  0  0  0
 15 33  1  0  0  0
 15 34  1  0  0  0
 16 17  1  0  0  0
 16 22  2  0  0  0
 17 18  1  0  0  0
 17 21  1  0  0  0
 17 35  1  0  0  0
 18 19  1  0  0  0
 19 20  1  0  0  0
 19 36  1  0  0  0
 19 37  1  0  0  0
 20 21  1  0  0  0
 20 38  1  0  0  0
 20 39  1  0  0  0
 21 40  1  0  0  0
 22 23  1  0  0  0
 22 41  1  0  0  0
 23 24  2  0  0  0
 23 42  1  0  0  0
 24 25  1  0  0  0
 25 26  1  0  0  0
 26 43  1  0  0  0
 26 44  1  0  0  0
 26 45  1  0  0  0
M  CHG  1  11   1
M  END
> <s_m_source_file>
../2x6i_ligand.sdf

> <i_m_source_file_index>
1

> <s_epik_input>
W2NIXTFbY0hdW2NIXW5bY0hdYzFDKD1PKS9OPUMoXFtOSF0yKU4oW0NIMl1bQ0gyXVtOSDIrXTMpW0NIXTNjKGMyNClbY0hdW2NIXWMoT1tDSDNdKWM0T1tDSDNd

> <s_epik_cmdline>
J2VwaWtfYXBwJywgJy1pbWFlJywgJ2xpZ2FuZF9wcm8ubWFlJywgJy1vbWFlJywgJ2xpZ2FuZF9wcmVwLm1hZScsICctbXMnLCAnMScsICctcGgnLCAnNycsICctcGh0JywgJzAuNScsICctbnQn

> <r_lp_tautomer_probability>
1

> <r_epik_Ionization_Penalty>
  0.0179

> <r_epik_Ionization_Penalty_Charging>
  0.0015

> <r_epik_Ionization_Penalty_Neutral>
  0.0165

> <r_epik_State_Penalty>
 -0.0000

> <r_epik_Charging_Adjusted_Penalty>
0.00149093158913476

> <i_epik_Tot_Q>
1

> <i_epik_Tot_abs_Q>
1

> <s_epik_Chemistry_Notes>
This compound has an imine and may undergo hydrolysis. This compound contains an acetal/aminal-like group ( X-CH(R)-Y where X, Y are N, S, or O) that may be acid/base labile, releasing an aldehyde.

$$$$
