2x6j_ligand
                    3D
 Schrodinger Suite 2020-3.
 44 45  0  0  1  0            999 V2000
   20.6980   32.0750    6.1230 O   0  0  0  0  0  0
   21.2220   33.3680    6.5630 S   0  0  0  0  0  0
   21.3360   34.2560    5.3920 O   0  0  0  0  0  0
   22.7420   33.2050    7.3710 N   0  0  3  0  0  0
   23.4600   34.4800    7.4270 C   0  0  0  0  0  0
   24.9010   34.4980    7.9640 C   0  0  0  0  0  0
   25.6070   35.7100    7.8990 O   0  0  0  0  0  0
   19.9740   33.9790    7.7240 C   0  0  0  0  0  0
   19.8240   33.4140    8.9550 C   0  0  0  0  0  0
   21.0130   32.2130    9.4960 Cl  0  0  0  0  0  0
   18.8150   33.8830    9.8630 C   0  0  0  0  0  0
   17.8590   34.8910    9.4000 C   0  0  0  0  0  0
   19.0240   35.0150    7.2610 C   0  0  0  0  0  0
   17.9970   35.4070    8.1020 C   0  0  0  0  0  0
   17.1280   36.4880    7.5040 C   0  0  3  0  0  0
   15.8990   37.1700    8.2190 C   0  0  3  0  0  0
   15.4060   36.8140    9.6170 C   0  0  0  0  0  0
   15.2340   38.2630    7.2700 N   0  0  1  0  0  0
   17.3430   37.2140    6.0760 S   0  0  0  0  0  0
   15.9940   38.3110    5.9620 C   0  0  3  0  0  0
   15.8010   39.1800    4.8120 N   0  0  0  0  0  0
   16.9450   39.4540    3.9420 C   0  0  0  0  0  0
   18.0140   38.9850    4.1630 O   0  0  0  0  0  0
   16.7860   40.3580    2.7170 C   0  0  0  0  0  0
   23.2504   32.2742    7.6627 H   0  0  0  0  0  0
   23.5365   34.9025    6.4143 H   0  0  0  0  0  0
   22.9138   35.1802    8.0761 H   0  0  0  0  0  0
   24.8989   34.2220    9.0288 H   0  0  0  0  0  0
   25.5116   33.7778    7.3997 H   0  0  0  0  0  0
   26.6402   35.7654    8.2724 H   0  0  0  0  0  0
   18.7617   33.4950   10.8802 H   0  0  0  0  0  0
   17.0552   35.2342   10.0513 H   0  0  0  0  0  0
   19.1314   35.4624    6.2729 H   0  0  0  0  0  0
   17.5525   35.5307    7.8407 H   0  0  0  0  0  0
   15.2281   36.4115    7.7893 H   0  0  0  0  0  0
   16.0486   36.0299   10.0438 H   0  0  0  0  0  0
   14.3704   36.4478    9.5584 H   0  0  0  0  0  0
   15.4432   37.7075   10.2575 H   0  0  0  0  0  0
   14.1849   37.9931    7.0788 H   0  0  0  0  0  0
   15.2078   38.8590    5.4220 H   0  0  0  0  0  0
   14.8110   39.6156    4.6118 H   0  0  0  0  0  0
   15.7454   40.7089    2.6528 H   0  0  0  0  0  0
   17.0388   39.7920    1.8083 H   0  0  0  0  0  0
   17.4595   41.2228    2.8096 H   0  0  0  0  0  0
  1  2  2  0  0  0
  2  3  2  0  0  0
  2  4  1  0  0  0
  2  8  1  0  0  0
  4  5  1  0  0  0
  4 25  1  0  0  0
  5  6  1  0  0  0
  5 26  1  0  0  0
  5 27  1  0  0  0
  6  7  1  0  0  0
  6 28  1  0  0  0
  6 29  1  0  0  0
  7 30  1  0  0  0
  8  9  2  0  0  0
  8 13  1  0  0  0
  9 10  1  0  0  0
  9 11  1  0  0  0
 11 12  2  0  0  0
 11 31  1  0  0  0
 12 14  1  0  0  0
 12 32  1  0  0  0
 13 14  2  0  0  0
 13 33  1  0  0  0
 14 15  1  0  0  0
 15 16  1  0  0  0
 15 19  1  0  0  0
 15 34  1  0  0  0
 16 17  1  0  0  0
 16 18  1  0  0  0
 16 35  1  0  0  0
 17 36  1  0  0  0
 17 37  1  0  0  0
 17 38  1  0  0  0
 18 20  1  0  0  0
 18 39  1  0  0  0
 19 20  1  0  0  0
 20 21  1  0  0  0
 20 40  1  0  0  0
 21 22  1  0  0  0
 21 41  1  0  0  0
 22 23  2  0  0  0
 22 24  1  0  0  0
 24 42  1  0  0  0
 24 43  1  0  0  0
 24 44  1  0  0  0
M  END
> <s_m_source_file>
../2x6j_ligand.sdf

> <i_m_source_file_index>
1

> <s_epik_input>
W09IXVtDSDJdW0NIMl1bTkhdUyg9TykoPU8pYzFjKENsKVtjSF1bY0hdYyhbY0hdMSlbQ0hdMltDSF0oW0NIM10pW05IMitdW0NIXShTMilbTkhdQyg9TylbQ0gzXQ==

> <s_epik_cmdline>
J2VwaWtfYXBwJywgJy1pbWFlJywgJ2xpZ2FuZF9wcm8ubWFlJywgJy1vbWFlJywgJ2xpZ2FuZF9wcmVwLm1hZScsICctbXMnLCAnMScsICctcGgnLCAnNycsICctcGh0JywgJzAuNScsICctbnQn

> <r_lp_tautomer_probability>
1

> <r_epik_Ionization_Penalty>
  0.0004

> <r_epik_Ionization_Penalty_Charging>
  0.0000

> <r_epik_Ionization_Penalty_Neutral>
  0.0004

> <r_epik_State_Penalty>
 -0.0000

> <r_epik_Charging_Adjusted_Penalty>
0

> <i_epik_Tot_Q>
0

> <i_epik_Tot_abs_Q>
0

> <s_epik_Chemistry_Notes>
This compound contains an acetal/aminal-like group ( X-CH(R)-Y where X, Y are N, S, or O) that may be acid/base labile, releasing an aldehyde.

$$$$
