2x6w_ligand
                    3D
 Schrodinger Suite 2020-3.
140145  0  0  1  0            999 V2000
    6.0240  -16.1530   28.3260 C   0  0  1  0  0  0
    5.6450  -15.3830   27.0580 C   0  0  1  0  0  0
    6.7980  -15.2990   26.0610 C   0  0  1  0  0  0
    7.3760  -16.6780   25.8710 C   0  0  2  0  0  0
    7.8090  -17.2560   27.2160 C   0  0  2  0  0  0
    8.3900  -18.6460   27.0350 C   0  0  0  0  0  0
    4.5280  -16.0260   26.5100 O   0  0  0  0  0  0
    6.3610  -14.7610   24.8240 O   0  0  0  0  0  0
    8.4940  -16.5410   25.0150 O   0  0  0  0  0  0
    6.6790  -17.3830   28.0670 O   0  0  0  0  0  0
    7.2420  -12.8190   32.4430 C   0  0  2  0  0  0
    5.8190  -12.2970   32.4430 C   0  0  1  0  0  0
    4.9260  -13.5550   32.5200 C   0  0  2  0  0  0
    5.2890  -14.4990   31.3700 C   0  0  1  0  0  0
    6.7900  -14.8240   31.4200 C   0  0  1  0  0  0
    7.3390  -15.7100   30.3050 C   0  0  0  0  0  0
    5.6020  -11.4680   33.5400 O   0  0  0  0  0  0
    3.5520  -13.1910   32.4740 O   0  0  0  0  0  0
    4.5070  -15.6650   31.5160 O   0  0  0  0  0  0
    7.5460  -13.6200   31.3270 O   0  0  0  0  0  0
    6.8670  -15.3120   29.0710 O   0  0  0  0  0  0
    9.4390  -13.7540   36.6340 C   0  0  2  0  0  0
    9.0040  -14.9370   35.7610 C   0  0  1  0  0  0
    9.4910  -14.7470   34.3300 C   0  0  2  0  0  0
    9.0510  -13.3800   33.7940 C   0  0  2  0  0  0
    9.5820  -12.3040   34.7650 C   0  0  1  0  0  0
    9.2450  -10.8730   34.3540 C   0  0  0  0  0  0
    9.3800  -16.1450   36.3570 O   0  0  0  0  0  0
    9.0080  -15.7940   33.5290 O   0  0  0  0  0  0
    7.7090  -13.2770   33.6860 O   0  0  0  0  0  0
    9.0980  -12.5090   36.0820 O   0  0  0  0  0  0
    9.8120  -10.6270   33.0880 O   0  0  0  0  0  0
    9.8350  -16.8090   33.2110 C   0  0  1  0  0  0
    9.0010  -18.0410   32.8470 C   0  0  1  0  0  0
    9.8470  -19.1610   32.2240 C   0  0  2  0  0  0
   10.8540  -18.6180   31.2290 C   0  0  1  0  0  0
   11.5770  -17.3820   31.7750 C   0  0  1  0  0  0
   12.5830  -16.7760   30.7930 C   0  0  0  0  0  0
    7.0660  -18.4680   34.2680 C   0  0  0  0  0  0
    6.5470  -19.0240   35.5750 C   0  0  0  0  0  0
    8.3620  -18.5410   34.0420 N   0  0  0  0  0  0
    8.9930  -20.1120   31.6010 O   0  0  0  0  0  0
   11.8240  -19.6130   30.9100 O   0  0  0  0  0  0
   10.6360  -16.3710   32.1250 O   0  0  0  0  0  0
   11.9110  -16.3150   29.6330 O   0  0  0  0  0  0
    6.3210  -17.9820   33.4360 O   0  0  0  0  0  0
   13.5020  -12.2130   38.7310 C   0  0  2  0  0  0
   12.6980  -12.6710   37.5180 C   0  0  1  0  0  0
   11.3460  -13.1980   37.9820 C   0  0  2  0  0  0
   11.5400  -14.1960   39.1230 C   0  0  1  0  0  0
   12.3220  -13.5560   40.2710 C   0  0  1  0  0  0
   12.5900  -14.5510   41.3930 C   0  0  0  0  0  0
   13.1880  -11.6630   35.3310 C   0  0  0  0  0  0
   13.0750  -10.4420   34.4540 C   0  0  0  0  0  0
   13.5870  -13.1220   39.8000 O   0  0  0  0  0  0
   10.8490  -13.8460   36.8030 O   0  0  0  0  0  0
   10.2690  -14.6380   39.5690 O   0  0  0  0  0  0
   12.4880  -13.9250   42.6540 O   0  0  0  0  0  0
   13.7400  -12.6810   34.8930 O   0  0  0  0  0  0
   12.6250  -11.5830   36.5420 N   0  0  0  0  0  0
   13.0210  -11.0130   39.2860 O   0  0  0  0  0  0
   11.2780  -13.8830   43.2750 C   0  0  2  0  0  0
   11.2750  -13.0110   44.5260 C   0  0  1  0  0  0
   12.2460  -13.6530   45.5260 C   0  0  2  0  0  0
   11.8700  -15.1060   45.7850 C   0  0  1  0  0  0
   11.6710  -15.8990   44.5030 C   0  0  1  0  0  0
   11.1210  -17.3010   44.7750 C   0  0  0  0  0  0
   11.6030  -11.6770   44.2150 O   0  0  0  0  0  0
   12.3090  -12.9180   46.7380 O   0  0  0  0  0  0
   12.9040  -15.7240   46.5180 O   0  0  0  0  0  0
   10.7920  -15.1780   43.6360 O   0  0  0  0  0  0
    9.8960  -17.2550   45.4720 O   0  0  0  0  0  0
    5.1555  -16.4487   28.9329 H   0  0  0  0  0  0
    5.3234  -14.3532   27.2726 H   0  0  0  0  0  0
    7.5727  -14.5909   26.3902 H   0  0  0  0  0  0
    6.6684  -17.3602   25.3772 H   0  0  0  0  0  0
    8.5210  -16.5752   27.7054 H   0  0  0  0  0  0
    9.2715  -18.5924   26.3792 H   0  0  0  0  0  0
    7.6340  -19.3030   26.5802 H   0  0  0  0  0  0
    8.6857  -19.0502   28.0144 H   0  0  0  0  0  0
    3.6188  -16.1597   27.1145 H   0  0  0  0  0  0
    5.9123  -13.7573   24.7886 H   0  0  0  0  0  0
    8.3634  -16.1374   24.0001 H   0  0  0  0  0  0
    7.9649  -12.0019   32.3022 H   0  0  0  0  0  0
    5.5959  -11.6190   31.6060 H   0  0  0  0  0  0
    5.0157  -14.0704   33.4877 H   0  0  0  0  0  0
    5.0272  -14.0968   30.3802 H   0  0  0  0  0  0
    6.9412  -15.3199   32.3902 H   0  0  0  0  0  0
    8.4373  -15.6497   30.2959 H   0  0  0  0  0  0
    7.0305  -16.7515   30.4787 H   0  0  0  0  0  0
    6.1620  -10.5262   33.6370 H   0  0  0  0  0  0
    3.1363  -12.5150   33.2357 H   0  0  0  0  0  0
    3.4092  -15.5964   31.5012 H   0  0  0  0  0  0
    8.9434  -13.7305   37.6158 H   0  0  0  0  0  0
    7.9132  -15.0757   35.7291 H   0  0  0  0  0  0
   10.5839  -14.8478   34.2571 H   0  0  0  0  0  0
    9.3306  -13.2383   32.7396 H   0  0  0  0  0  0
   10.6740  -12.4252   34.8175 H   0  0  0  0  0  0
    8.1526  -10.7529   34.3062 H   0  0  0  0  0  0
    9.6589  -10.1719   35.0937 H   0  0  0  0  0  0
    9.0727  -16.3680   37.3894 H   0  0  0  0  0  0
    9.6836   -9.6450   32.6093 H   0  0  0  0  0  0
   10.4925  -16.9780   34.0765 H   0  0  0  0  0  0
    8.2127  -17.7472   32.1382 H   0  0  0  0  0  0
   10.3891  -19.7180   33.0024 H   0  0  0  0  0  0
   10.3276  -18.3863   30.2913 H   0  0  0  0  0  0
   12.0932  -17.6809   32.6992 H   0  0  0  0  0  0
   13.0994  -15.9310   31.2719 H   0  0  0  0  0  0
   13.3198  -17.5401   30.5046 H   0  0  0  0  0  0
    7.3885  -19.4092   36.1695 H   0  0  0  0  0  0
    5.8384  -19.8402   35.3706 H   0  0  0  0  0  0
    6.0365  -18.2270   36.1356 H   0  0  0  0  0  0
    8.9644  -19.0166   34.8299 H   0  0  0  0  0  0
    8.2014  -20.6054   32.1840 H   0  0  0  0  0  0
   11.5034  -20.5825   30.5009 H   0  0  0  0  0  0
   12.4809  -15.8476   28.8164 H   0  0  0  0  0  0
   14.5338  -12.0694   38.3776 H   0  0  0  0  0  0
   13.1916  -13.4809   36.9608 H   0  0  0  0  0  0
   10.6310  -12.4353   38.3242 H   0  0  0  0  0  0
   12.0582  -15.1034   38.7793 H   0  0  0  0  0  0
   11.7717  -12.6759   40.6352 H   0  0  0  0  0  0
   11.8547  -15.3676   41.3423 H   0  0  0  0  0  0
   13.6039  -14.9633   41.2831 H   0  0  0  0  0  0
   13.5741  -10.6336   33.4927 H   0  0  0  0  0  0
   13.5551   -9.5869   34.9524 H   0  0  0  0  0  0
   12.0134  -10.2146   34.2771 H   0  0  0  0  0  0
    9.5773  -15.1235   38.8649 H   0  0  0  0  0  0
   12.0916  -10.6542   36.7926 H   0  0  0  0  0  0
   12.8652  -10.1336   38.6438 H   0  0  0  0  0  0
   10.6729  -13.4928   42.4434 H   0  0  0  0  0  0
   10.2731  -12.8725   44.9585 H   0  0  0  0  0  0
   13.2771  -13.5920   45.1478 H   0  0  0  0  0  0
   10.9554  -15.1377   46.3953 H   0  0  0  0  0  0
   12.6283  -15.9862   43.9683 H   0  0  0  0  0  0
   10.9565  -17.8219   43.8202 H   0  0  0  0  0  0
   11.8433  -17.8669   45.3817 H   0  0  0  0  0  0
   10.9809  -11.1081   43.5084 H   0  0  0  0  0  0
   12.5692  -11.8494   46.7203 H   0  0  0  0  0  0
   13.2140  -15.3092   47.4885 H   0  0  0  0  0  0
    9.3794  -18.1889   45.7385 H   0  0  0  0  0  0
  1  2  1  0  0  0
  1 10  1  0  0  0
  1 21  1  0  0  0
  1 73  1  0  0  0
  2  3  1  0  0  0
  2  7  1  0  0  0
  2 74  1  0  0  0
  3  4  1  0  0  0
  3  8  1  0  0  0
  3 75  1  0  0  0
  4  5  1  0  0  0
  4  9  1  0  0  0
  4 76  1  0  0  0
  5  6  1  0  0  0
  5 10  1  0  0  0
  5 77  1  0  0  0
  6 78  1  0  0  0
  6 79  1  0  0  0
  6 80  1  0  0  0
  7 81  1  0  0  0
  8 82  1  0  0  0
  9 83  1  0  0  0
 11 12  1  0  0  0
 11 20  1  0  0  0
 11 30  1  0  0  0
 11 84  1  0  0  0
 12 13  1  0  0  0
 12 17  1  0  0  0
 12 85  1  0  0  0
 13 14  1  0  0  0
 13 18  1  0  0  0
 13 86  1  0  0  0
 14 15  1  0  0  0
 14 19  1  0  0  0
 14 87  1  0  0  0
 15 16  1  0  0  0
 15 20  1  0  0  0
 15 88  1  0  0  0
 16 21  1  0  0  0
 16 89  1  0  0  0
 16 90  1  0  0  0
 17 91  1  0  0  0
 18 92  1  0  0  0
 19 93  1  0  0  0
 22 23  1  0  0  0
 22 31  1  0  0  0
 22 56  1  0  0  0
 22 94  1  0  0  0
 23 24  1  0  0  0
 23 28  1  0  0  0
 23 95  1  0  0  0
 24 25  1  0  0  0
 24 29  1  0  0  0
 24 96  1  0  0  0
 25 26  1  0  0  0
 25 30  1  0  0  0
 25 97  1  0  0  0
 26 27  1  0  0  0
 26 31  1  0  0  0
 26 98  1  0  0  0
 27 32  1  0  0  0
 27 99  1  0  0  0
 27100  1  0  0  0
 28101  1  0  0  0
 29 33  1  0  0  0
 32102  1  0  0  0
 33 34  1  0  0  0
 33 44  1  0  0  0
 33103  1  0  0  0
 34 35  1  0  0  0
 34 41  1  0  0  0
 34104  1  0  0  0
 35 36  1  0  0  0
 35 42  1  0  0  0
 35105  1  0  0  0
 36 37  1  0  0  0
 36 43  1  0  0  0
 36106  1  0  0  0
 37 38  1  0  0  0
 37 44  1  0  0  0
 37107  1  0  0  0
 38 45  1  0  0  0
 38108  1  0  0  0
 38109  1  0  0  0
 39 40  1  0  0  0
 39 41  1  0  0  0
 39 46  2  0  0  0
 40110  1  0  0  0
 40111  1  0  0  0
 40112  1  0  0  0
 41113  1  0  0  0
 42114  1  0  0  0
 43115  1  0  0  0
 45116  1  0  0  0
 47 48  1  0  0  0
 47 55  1  0  0  0
 47 61  1  0  0  0
 47117  1  0  0  0
 48 49  1  0  0  0
 48 60  1  0  0  0
 48118  1  0  0  0
 49 50  1  0  0  0
 49 56  1  0  0  0
 49119  1  0  0  0
 50 51  1  0  0  0
 50 57  1  0  0  0
 50120  1  0  0  0
 51 52  1  0  0  0
 51 55  1  0  0  0
 51121  1  0  0  0
 52 58  1  0  0  0
 52122  1  0  0  0
 52123  1  0  0  0
 53 54  1  0  0  0
 53 59  2  0  0  0
 53 60  1  0  0  0
 54124  1  0  0  0
 54125  1  0  0  0
 54126  1  0  0  0
 57127  1  0  0  0
 58 62  1  0  0  0
 60128  1  0  0  0
 61129  1  0  0  0
 62 63  1  0  0  0
 62 71  1  0  0  0
 62130  1  0  0  0
 63 64  1  0  0  0
 63 68  1  0  0  0
 63131  1  0  0  0
 64 65  1  0  0  0
 64 69  1  0  0  0
 64132  1  0  0  0
 65 66  1  0  0  0
 65 70  1  0  0  0
 65133  1  0  0  0
 66 67  1  0  0  0
 66 71  1  0  0  0
 66134  1  0  0  0
 67 72  1  0  0  0
 67135  1  0  0  0
 67136  1  0  0  0
 68137  1  0  0  0
 69138  1  0  0  0
 70139  1  0  0  0
 72140  1  0  0  0
M  END
> <s_m_source_file>
../2x6w_ligand.sdf

> <i_m_source_file_index>
1

> <s_epik_input>
W0NIM11bQ0BIXShPMSlbQ0BIXShbT0hdKVtDQEBIXShbT0hdKVtDQEBIXShbT0hdKVtDQEBIXTFPW0NIMl1bQ0BASF0oTzIpW0NAQEhdKFtPSF0pW0NASF0oW09IXSlbQ0BASF0oW09IXSlbQ0BIXTJPW0NAQEhdKFtDQEhdKE8zKVtDSDJdW09IXSlbQ0BIXShPW0NASF00W0NASF0oW05IXUMoPU8pW0NIM10pW0NAQEhdKFtPSF0pW0NASF0oW09IXSlbQ0BIXShPNClbQ0gyXVtPSF0pW0NAQEhdKFtPSF0pW0NASF0zT1tDQEhdKFtDQEhdKFtDQEhdNVtPSF0pW05IXUMoPU8pW0NIM10pW0NASF0oW09IXSlbQ0BIXShPNSlbQ0gyXU9bQ0BASF02W0NASF0oW09IXSlbQ0BASF0oW09IXSlbQ0BIXShbT0hdKVtDQEhdKE82KVtDSDJdW09IXQ==

> <s_epik_cmdline>
J2VwaWtfYXBwJywgJy1pbWFlJywgJ2xpZ2FuZF9wcm8ubWFlJywgJy1vbWFlJywgJ2xpZ2FuZF9wcmVwLm1hZScsICctbXMnLCAnMScsICctcGgnLCAnNycsICctcGh0JywgJzAuNScsICctbnQn

> <r_lp_tautomer_probability>
1

> <r_epik_Ionization_Penalty>
  0.0001

> <r_epik_Ionization_Penalty_Charging>
  0.0000

> <r_epik_Ionization_Penalty_Neutral>
  0.0001

> <r_epik_State_Penalty>
 -0.0000

> <r_epik_Charging_Adjusted_Penalty>
0

> <i_epik_Tot_Q>
0

> <i_epik_Tot_abs_Q>
0

> <s_epik_Chemistry_Notes>
This compound contains an acetal/aminal-like group ( X-CH(R)-Y where X, Y are N, S, or O) that may be acid/base labile, releasing an aldehyde.

$$$$
