2x6x_ligand
                    3D
 Schrodinger Suite 2020-3.
 92 95  0  0  1  0            999 V2000
  -16.9810    2.9320   28.4080 C   0  0  1  0  0  0
  -16.0990    2.8920   27.1560 C   0  0  1  0  0  0
  -16.5800    1.8650   26.1390 C   0  0  1  0  0  0
  -18.0850    1.9910   25.9250 C   0  0  2  0  0  0
  -18.8380    1.9520   27.2700 C   0  0  2  0  0  0
  -20.3360    2.1990   27.1110 C   0  0  0  0  0  0
  -16.1450    4.1770   26.6010 O   0  0  0  0  0  0
  -15.9110    2.0000   24.8930 O   0  0  0  0  0  0
  -18.4790    0.9510   25.0490 O   0  0  0  0  0  0
  -18.3700    2.9920   28.1130 O   0  0  0  0  0  0
  -14.6750   -0.0580   32.3210 C   0  0  2  0  0  0
  -13.5850    1.0030   32.3240 C   0  0  1  0  0  0
  -14.1930    2.3930   32.5020 C   0  0  2  0  0  0
  -15.2500    2.6240   31.4330 C   0  0  1  0  0  0
  -16.2840    1.4910   31.4820 C   0  0  1  0  0  0
  -17.3280    1.5270   30.3730 C   0  0  0  0  0  0
  -12.7400    0.7030   33.3960 O   0  0  0  0  0  0
  -13.1960    3.4090   32.4290 O   0  0  0  0  0  0
  -15.8630    3.8590   31.6590 O   0  0  0  0  0  0
  -15.6210    0.2550   31.3340 O   0  0  0  0  0  0
  -16.7250    1.7850   29.1840 O   0  0  0  0  0  0
  -16.3370   -1.1860   36.6610 C   0  0  1  0  0  0
  -17.3220   -0.2840   35.9340 C   0  0  1  0  0  0
  -17.4230   -0.8120   34.4880 C   0  0  2  0  0  0
  -16.0490   -1.2100   33.8960 C   0  0  2  0  0  0
  -15.3380   -2.2690   34.7850 C   0  0  1  0  0  0
  -13.8980   -2.5860   34.3920 C   0  0  0  0  0  0
  -17.1830   -2.3250   36.7890 O   0  0  0  0  0  0
  -18.5760   -0.2970   36.5640 O   0  0  0  0  0  0
  -18.0900    0.1650   33.7330 O   0  0  0  0  0  0
  -15.2870   -0.1460   33.5930 O   0  0  0  0  0  0
  -15.2650   -1.9430   36.1720 O   0  0  0  0  0  0
  -13.8430   -3.7470   33.6210 O   0  0  0  0  0  0
  -19.3720   -0.0450   33.3680 C   0  0  1  0  0  0
  -20.0070    1.3070   33.0420 C   0  0  1  0  0  0
  -21.3660    1.2320   32.3390 C   0  0  2  0  0  0
  -21.4080    0.1250   31.2960 C   0  0  1  0  0  0
  -20.7480   -1.1400   31.8200 C   0  0  1  0  0  0
  -20.7740   -2.2770   30.8130 C   0  0  0  0  0  0
  -19.4190    3.1650   34.5060 C   0  0  0  0  0  0
  -19.6930    3.8710   35.8040 C   0  0  0  0  0  0
  -20.1570    2.0860   34.2560 N   0  0  0  0  0  0
  -21.6840    2.4840   31.7520 O   0  0  0  0  0  0
  -22.7650   -0.1260   30.9780 O   0  0  0  0  0  0
  -19.4040   -0.8930   32.2380 O   0  0  0  0  0  0
  -20.0230   -1.9350   29.6710 O   0  0  0  0  0  0
  -18.5450    3.5730   33.7360 O   0  0  0  0  0  0
  -16.7821    3.8249   29.0189 H   0  0  0  0  0  0
  -15.0484    2.6698   27.3946 H   0  0  0  0  0  0
  -16.3026    0.8584   26.4852 H   0  0  0  0  0  0
  -18.3603    2.9175   25.3998 H   0  0  0  0  0  0
  -18.6358    0.9843   27.7524 H   0  0  0  0  0  0
  -20.7689    1.4226   26.4630 H   0  0  0  0  0  0
  -20.4984    3.1878   26.6572 H   0  0  0  0  0  0
  -20.8201    2.1646   28.0982 H   0  0  0  0  0  0
  -15.8313    5.0457   27.1985 H   0  0  0  0  0  0
  -14.8137    1.9367   24.8482 H   0  0  0  0  0  0
  -18.0173    0.8652   24.0543 H   0  0  0  0  0  0
  -14.3069   -1.0695   32.0945 H   0  0  0  0  0  0
  -12.9641    0.9819   31.4163 H   0  0  0  0  0  0
  -14.6127    2.5025   33.5129 H   0  0  0  0  0  0
  -14.8095    2.7203   30.4296 H   0  0  0  0  0  0
  -16.7754    1.5414   32.4648 H   0  0  0  0  0  0
  -17.8391    0.5544   30.3189 H   0  0  0  0  0  0
  -18.0636    2.3163   30.5873 H   0  0  0  0  0  0
  -12.2161   -0.2636   33.4295 H   0  0  0  0  0  0
  -12.3492    3.4001   33.1310 H   0  0  0  0  0  0
  -15.2616    4.7800   31.6576 H   0  0  0  0  0  0
  -15.8333   -0.5264   37.3830 H   0  0  0  0  0  0
  -17.0493    0.7796   35.9996 H   0  0  0  0  0  0
  -18.0698   -1.6982   34.4087 H   0  0  0  0  0  0
  -16.1362   -1.5649   32.8585 H   0  0  0  0  0  0
  -15.9965   -3.1459   34.6988 H   0  0  0  0  0  0
  -13.4851   -1.7506   33.8075 H   0  0  0  0  0  0
  -13.2940   -2.7324   35.2996 H   0  0  0  0  0  0
  -18.2094   -2.2081   37.1669 H   0  0  0  0  0  0
  -18.6731    0.0506   37.6031 H   0  0  0  0  0  0
  -12.8748   -4.1176   33.2532 H   0  0  0  0  0  0
  -19.8413   -0.5898   34.2005 H   0  0  0  0  0  0
  -19.3066    1.8263   32.3713 H   0  0  0  0  0  0
  -22.1620    1.0567   33.0777 H   0  0  0  0  0  0
  -20.9173    0.4314   30.3604 H   0  0  0  0  0  0
  -21.2856   -1.4464   32.7294 H   0  0  0  0  0  0
  -20.3433   -3.1806   31.2690 H   0  0  0  0  0  0
  -21.8131   -2.4774   30.5130 H   0  0  0  0  0  0
  -20.5023    3.3530   36.3394 H   0  0  0  0  0  0
  -19.9939    4.9092   35.6003 H   0  0  0  0  0  0
  -18.7833    3.8675   36.4224 H   0  0  0  0  0  0
  -20.9018    1.7914   35.0100 H   0  0  0  0  0  0
  -21.6988    3.3935   32.3705 H   0  0  0  0  0  0
  -23.3963    0.6838   30.5834 H   0  0  0  0  0  0
  -19.9348   -2.6470   28.8372 H   0  0  0  0  0  0
  1  2  1  0  0  0
  1 10  1  0  0  0
  1 21  1  0  0  0
  1 48  1  0  0  0
  2  3  1  0  0  0
  2  7  1  0  0  0
  2 49  1  0  0  0
  3  4  1  0  0  0
  3  8  1  0  0  0
  3 50  1  0  0  0
  4  5  1  0  0  0
  4  9  1  0  0  0
  4 51  1  0  0  0
  5  6  1  0  0  0
  5 10  1  0  0  0
  5 52  1  0  0  0
  6 53  1  0  0  0
  6 54  1  0  0  0
  6 55  1  0  0  0
  7 56  1  0  0  0
  8 57  1  0  0  0
  9 58  1  0  0  0
 11 12  1  0  0  0
 11 20  1  0  0  0
 11 31  1  0  0  0
 11 59  1  0  0  0
 12 13  1  0  0  0
 12 17  1  0  0  0
 12 60  1  0  0  0
 13 14  1  0  0  0
 13 18  1  0  0  0
 13 61  1  0  0  0
 14 15  1  0  0  0
 14 19  1  0  0  0
 14 62  1  0  0  0
 15 16  1  0  0  0
 15 20  1  0  0  0
 15 63  1  0  0  0
 16 21  1  0  0  0
 16 64  1  0  0  0
 16 65  1  0  0  0
 17 66  1  0  0  0
 18 67  1  0  0  0
 19 68  1  0  0  0
 22 23  1  0  0  0
 22 28  1  0  0  0
 22 32  1  0  0  0
 22 69  1  0  0  0
 23 24  1  0  0  0
 23 29  1  0  0  0
 23 70  1  0  0  0
 24 25  1  0  0  0
 24 30  1  0  0  0
 24 71  1  0  0  0
 25 26  1  0  0  0
 25 31  1  0  0  0
 25 72  1  0  0  0
 26 27  1  0  0  0
 26 32  1  0  0  0
 26 73  1  0  0  0
 27 33  1  0  0  0
 27 74  1  0  0  0
 27 75  1  0  0  0
 28 76  1  0  0  0
 29 77  1  0  0  0
 30 34  1  0  0  0
 33 78  1  0  0  0
 34 35  1  0  0  0
 34 45  1  0  0  0
 34 79  1  0  0  0
 35 36  1  0  0  0
 35 42  1  0  0  0
 35 80  1  0  0  0
 36 37  1  0  0  0
 36 43  1  0  0  0
 36 81  1  0  0  0
 37 38  1  0  0  0
 37 44  1  0  0  0
 37 82  1  0  0  0
 38 39  1  0  0  0
 38 45  1  0  0  0
 38 83  1  0  0  0
 39 46  1  0  0  0
 39 84  1  0  0  0
 39 85  1  0  0  0
 40 41  1  0  0  0
 40 42  1  0  0  0
 40 47  2  0  0  0
 41 86  1  0  0  0
 41 87  1  0  0  0
 41 88  1  0  0  0
 42 89  1  0  0  0
 43 90  1  0  0  0
 44 91  1  0  0  0
 46 92  1  0  0  0
M  END
> <s_m_source_file>
../2x6x_ligand.sdf

> <i_m_source_file_index>
1

> <s_epik_input>
W0NIM11bQ0BIXShPMSlbQ0BIXShbT0hdKVtDQEBIXShbT0hdKVtDQEBIXShbT0hdKVtDQEBIXTFPW0NIMl1bQ0BASF0oTzIpW0NAQEhdKFtPSF0pW0NASF0oW09IXSlbQ0BASF0oW09IXSlbQ0BIXTJPW0NAQEhdKFtDQEhdKE8zKVtDSDJdW09IXSlbQ0BASF0oW0NAQEhdKFtPSF0pW0NASF0zW09IXSlPW0NASF00W0NASF0oW05IXUMoPU8pW0NIM10pW0NAQEhdKFtPSF0pW0NASF0oW09IXSlbQ0BIXShPNClbQ0gyXVtPSF0=

> <s_epik_cmdline>
J2VwaWtfYXBwJywgJy1pbWFlJywgJ2xpZ2FuZF9wcm8ubWFlJywgJy1vbWFlJywgJ2xpZ2FuZF9wcmVwLm1hZScsICctbXMnLCAnMScsICctcGgnLCAnNycsICctcGh0JywgJzAuNScsICctbnQn

> <r_lp_tautomer_probability>
1

> <r_epik_Ionization_Penalty>
  0.0000

> <r_epik_Ionization_Penalty_Charging>
  0.0000

> <r_epik_Ionization_Penalty_Neutral>
  0.0000

> <r_epik_State_Penalty>
 -0.0000

> <r_epik_Charging_Adjusted_Penalty>
0

> <i_epik_Tot_Q>
0

> <i_epik_Tot_abs_Q>
0

> <s_epik_Chemistry_Notes>
This compound contains an acetal/aminal-like group ( X-CH(R)-Y where X, Y are N, S, or O) that may be acid/base labile, releasing an aldehyde.

$$$$
