2x6y_ligand
                    3D
 Schrodinger Suite 2020-3.
140145  0  0  1  0            999 V2000
    5.8020  -16.5310   28.4310 C   0  0  1  0  0  0
    5.4300  -15.7620   27.1650 C   0  0  1  0  0  0
    6.5890  -15.6550   26.1830 C   0  0  1  0  0  0
    7.2430  -17.0140   26.0000 C   0  0  2  0  0  0
    7.6400  -17.6050   27.3590 C   0  0  2  0  0  0
    8.2600  -18.9920   27.2410 C   0  0  0  0  0  0
    4.3580  -16.4000   26.5280 O   0  0  0  0  0  0
    6.1290  -15.1540   24.9390 O   0  0  0  0  0  0
    8.3600  -16.8500   25.1560 O   0  0  0  0  0  0
    6.4790  -17.7560   28.1590 O   0  0  0  0  0  0
    7.0140  -13.0560   32.4410 C   0  0  2  0  0  0
    5.5430  -12.6450   32.4630 C   0  0  1  0  0  0
    4.6250  -13.8750   32.5520 C   0  0  2  0  0  0
    4.9770  -14.8740   31.4570 C   0  0  1  0  0  0
    6.4810  -15.1970   31.5340 C   0  0  1  0  0  0
    7.0120  -16.1040   30.4320 C   0  0  0  0  0  0
    5.3220  -11.7540   33.5430 O   0  0  0  0  0  0
    3.2650  -13.4750   32.4450 O   0  0  0  0  0  0
    4.1780  -16.0390   31.5930 O   0  0  0  0  0  0
    7.2260  -13.9930   31.4070 O   0  0  0  0  0  0
    6.6450  -15.6890   29.1870 O   0  0  0  0  0  0
    9.0170  -14.0380   36.7280 C   0  0  2  0  0  0
    8.6640  -15.2590   35.8710 C   0  0  1  0  0  0
    9.1620  -15.0670   34.4350 C   0  0  2  0  0  0
    8.7440  -13.7050   33.8710 C   0  0  2  0  0  0
    9.2430  -12.6020   34.8260 C   0  0  1  0  0  0
    8.8940  -11.1740   34.4150 C   0  0  0  0  0  0
    9.1030  -16.4630   36.4810 O   0  0  0  0  0  0
    8.6680  -16.1310   33.6400 O   0  0  0  0  0  0
    7.4260  -13.5370   33.7120 O   0  0  0  0  0  0
    8.7470  -12.7720   36.1540 O   0  0  0  0  0  0
    9.4490  -10.8910   33.1570 O   0  0  0  0  0  0
    9.5260  -17.1260   33.3170 C   0  0  1  0  0  0
    8.7560  -18.3940   32.9380 C   0  0  1  0  0  0
    9.6670  -19.4570   32.3210 C   0  0  2  0  0  0
   10.6990  -18.8640   31.3630 C   0  0  1  0  0  0
   11.3710  -17.6330   31.9580 C   0  0  1  0  0  0
   12.3770  -17.0060   30.9920 C   0  0  0  0  0  0
    6.8070  -19.0170   34.2940 C   0  0  0  0  0  0
    6.3580  -19.5900   35.6150 C   0  0  0  0  0  0
    8.1140  -18.9330   34.1270 N   0  0  0  0  0  0
    8.8690  -20.3950   31.6240 O   0  0  0  0  0  0
   11.6530  -19.8770   31.0870 O   0  0  0  0  0  0
   10.3840  -16.6670   32.2830 O   0  0  0  0  0  0
   11.7510  -16.4760   29.8450 O   0  0  0  0  0  0
    6.0150  -18.6660   33.4340 O   0  0  0  0  0  0
   12.5960  -11.9440   39.0760 C   0  0  2  0  0  0
   12.1940  -12.6540   37.7890 C   0  0  1  0  0  0
   10.8830  -13.3630   38.0600 C   0  0  2  0  0  0
   11.0580  -14.3140   39.2450 C   0  0  1  0  0  0
   11.6390  -13.5970   40.4690 C   0  0  1  0  0  0
   12.0650  -14.6020   41.5290 C   0  0  0  0  0  0
   12.7720  -11.8020   35.5630 C   0  0  0  0  0  0
   12.6590  -10.6560   34.5970 C   0  0  0  0  0  0
   12.1260  -11.6530   36.7310 N   0  0  0  0  0  0
   13.8400  -11.3230   38.9970 O   0  0  0  0  0  0
   10.4170  -14.0570   36.9040 O   0  0  0  0  0  0
    9.8480  -14.9600   39.5970 O   0  0  0  0  0  0
   12.7730  -12.8110   40.1650 O   0  0  0  0  0  0
   12.0270  -13.9740   42.8070 O   0  0  0  0  0  0
   13.4010  -12.8280   35.2450 O   0  0  0  0  0  0
   10.9120  -14.0730   43.5510 C   0  0  2  0  0  0
   10.9260  -13.2430   44.8230 C   0  0  1  0  0  0
   12.0190  -13.8030   45.7320 C   0  0  2  0  0  0
   11.7350  -15.2800   45.9900 C   0  0  1  0  0  0
   11.4870  -16.0640   44.6930 C   0  0  1  0  0  0
   11.0810  -17.5120   44.9660 C   0  0  0  0  0  0
   11.1890  -11.8880   44.5230 O   0  0  0  0  0  0
   12.0830  -13.0640   46.9340 O   0  0  0  0  0  0
   12.8100  -15.8310   46.6970 O   0  0  0  0  0  0
   10.5310  -15.3790   43.9040 O   0  0  0  0  0  0
    9.8660  -17.5110   45.6780 O   0  0  0  0  0  0
    4.9261  -16.8255   29.0277 H   0  0  0  0  0  0
    5.0752  -14.7572   27.4379 H   0  0  0  0  0  0
    7.3285  -14.9155   26.5240 H   0  0  0  0  0  0
    6.5895  -17.7222   25.4696 H   0  0  0  0  0  0
    8.3302  -16.9082   27.8571 H   0  0  0  0  0  0
    9.1706  -18.9355   26.6266 H   0  0  0  0  0  0
    7.5403  -19.6763   26.7679 H   0  0  0  0  0  0
    8.5166  -19.3654   28.2434 H   0  0  0  0  0  0
    3.4188  -16.5740   27.0735 H   0  0  0  0  0  0
    5.6283  -14.1757   24.8913 H   0  0  0  0  0  0
    8.2297  -16.4351   24.1456 H   0  0  0  0  0  0
    7.7087  -12.2300   32.2286 H   0  0  0  0  0  0
    5.2840  -12.0599   31.5682 H   0  0  0  0  0  0
    4.6938  -14.3571   33.5383 H   0  0  0  0  0  0
    4.7074  -14.5005   30.4581 H   0  0  0  0  0  0
    6.6524  -15.6630   32.5156 H   0  0  0  0  0  0
    8.1112  -16.1228   30.4705 H   0  0  0  0  0  0
    6.6226  -17.1226   30.5760 H   0  0  0  0  0  0
    5.9058  -10.8247   33.6176 H   0  0  0  0  0  0
    2.8458  -12.7536   33.1619 H   0  0  0  0  0  0
    3.0813  -15.9610   31.5577 H   0  0  0  0  0  0
    8.4380  -14.0574   37.6631 H   0  0  0  0  0  0
    7.5785  -15.4349   35.8449 H   0  0  0  0  0  0
   10.2573  -15.1493   34.3752 H   0  0  0  0  0  0
    9.0545  -13.6345   32.8181 H   0  0  0  0  0  0
   10.3353  -12.7280   34.8569 H   0  0  0  0  0  0
    7.8007  -11.0643   34.3627 H   0  0  0  0  0  0
    9.2981  -10.4697   35.1571 H   0  0  0  0  0  0
    8.8019  -16.6986   37.5124 H   0  0  0  0  0  0
    9.2989   -9.9019   32.6995 H   0  0  0  0  0  0
   10.1546  -17.2778   34.2068 H   0  0  0  0  0  0
    7.9665  -18.1402   32.2153 H   0  0  0  0  0  0
   10.1870  -20.0084   33.1182 H   0  0  0  0  0  0
   10.2507  -18.5810   30.3992 H   0  0  0  0  0  0
   11.8684  -17.9088   32.8995 H   0  0  0  0  0  0
   12.9119  -16.1893   31.4988 H   0  0  0  0  0  0
   13.0982  -17.7702   30.6666 H   0  0  0  0  0  0
    7.2387  -19.8335   36.2274 H   0  0  0  0  0  0
    5.7707  -20.5031   35.4379 H   0  0  0  0  0  0
    5.7371  -18.8513   36.1430 H   0  0  0  0  0  0
    8.7261  -19.3043   34.9621 H   0  0  0  0  0  0
    8.0648  -20.9309   32.1494 H   0  0  0  0  0  0
   11.3288  -20.8341   30.6525 H   0  0  0  0  0  0
   12.3547  -15.9930   29.0625 H   0  0  0  0  0  0
   11.8091  -11.2057   39.2899 H   0  0  0  0  0  0
   12.9172  -13.3957   37.4189 H   0  0  0  0  0  0
   10.0846  -12.6304   38.2494 H   0  0  0  0  0  0
   11.7093  -15.1419   38.9283 H   0  0  0  0  0  0
   10.8875  -12.8785   40.8282 H   0  0  0  0  0  0
   11.3775  -15.4606   41.5175 H   0  0  0  0  0  0
   13.0873  -14.9480   41.3165 H   0  0  0  0  0  0
   12.0707   -9.8472   35.0549 H   0  0  0  0  0  0
   12.1593  -10.9984   33.6788 H   0  0  0  0  0  0
   13.6643  -10.2838   34.3504 H   0  0  0  0  0  0
   11.5311  -10.7392   36.8759 H   0  0  0  0  0  0
   14.0285  -10.5659   38.2216 H   0  0  0  0  0  0
    9.2874  -15.5280   38.8400 H   0  0  0  0  0  0
   10.2352  -13.7319   42.7538 H   0  0  0  0  0  0
    9.9401  -13.2173   45.3101 H   0  0  0  0  0  0
   13.0255  -13.6666   45.3096 H   0  0  0  0  0  0
   10.8651  -15.3912   46.6540 H   0  0  0  0  0  0
   12.3876  -16.0810   44.0616 H   0  0  0  0  0  0
   10.9553  -18.0438   44.0113 H   0  0  0  0  0  0
   11.8633  -18.0063   45.5607 H   0  0  0  0  0  0
   10.5003  -11.3241   43.8767 H   0  0  0  0  0  0
   12.2816  -11.9825   46.9048 H   0  0  0  0  0  0
   13.1236  -15.3884   47.6540 H   0  0  0  0  0  0
    9.4010  -18.4630   45.9736 H   0  0  0  0  0  0
  1  2  1  0  0  0
  1 10  1  0  0  0
  1 21  1  0  0  0
  1 73  1  0  0  0
  2  3  1  0  0  0
  2  7  1  0  0  0
  2 74  1  0  0  0
  3  4  1  0  0  0
  3  8  1  0  0  0
  3 75  1  0  0  0
  4  5  1  0  0  0
  4  9  1  0  0  0
  4 76  1  0  0  0
  5  6  1  0  0  0
  5 10  1  0  0  0
  5 77  1  0  0  0
  6 78  1  0  0  0
  6 79  1  0  0  0
  6 80  1  0  0  0
  7 81  1  0  0  0
  8 82  1  0  0  0
  9 83  1  0  0  0
 11 12  1  0  0  0
 11 20  1  0  0  0
 11 30  1  0  0  0
 11 84  1  0  0  0
 12 13  1  0  0  0
 12 17  1  0  0  0
 12 85  1  0  0  0
 13 14  1  0  0  0
 13 18  1  0  0  0
 13 86  1  0  0  0
 14 15  1  0  0  0
 14 19  1  0  0  0
 14 87  1  0  0  0
 15 16  1  0  0  0
 15 20  1  0  0  0
 15 88  1  0  0  0
 16 21  1  0  0  0
 16 89  1  0  0  0
 16 90  1  0  0  0
 17 91  1  0  0  0
 18 92  1  0  0  0
 19 93  1  0  0  0
 22 23  1  0  0  0
 22 31  1  0  0  0
 22 57  1  0  0  0
 22 94  1  0  0  0
 23 24  1  0  0  0
 23 28  1  0  0  0
 23 95  1  0  0  0
 24 25  1  0  0  0
 24 29  1  0  0  0
 24 96  1  0  0  0
 25 26  1  0  0  0
 25 30  1  0  0  0
 25 97  1  0  0  0
 26 27  1  0  0  0
 26 31  1  0  0  0
 26 98  1  0  0  0
 27 32  1  0  0  0
 27 99  1  0  0  0
 27100  1  0  0  0
 28101  1  0  0  0
 29 33  1  0  0  0
 32102  1  0  0  0
 33 34  1  0  0  0
 33 44  1  0  0  0
 33103  1  0  0  0
 34 35  1  0  0  0
 34 41  1  0  0  0
 34104  1  0  0  0
 35 36  1  0  0  0
 35 42  1  0  0  0
 35105  1  0  0  0
 36 37  1  0  0  0
 36 43  1  0  0  0
 36106  1  0  0  0
 37 38  1  0  0  0
 37 44  1  0  0  0
 37107  1  0  0  0
 38 45  1  0  0  0
 38108  1  0  0  0
 38109  1  0  0  0
 39 40  1  0  0  0
 39 41  1  0  0  0
 39 46  2  0  0  0
 40110  1  0  0  0
 40111  1  0  0  0
 40112  1  0  0  0
 41113  1  0  0  0
 42114  1  0  0  0
 43115  1  0  0  0
 45116  1  0  0  0
 47 48  1  0  0  0
 47 56  1  0  0  0
 47 59  1  0  0  0
 47117  1  0  0  0
 48 49  1  0  0  0
 48 55  1  0  0  0
 48118  1  0  0  0
 49 50  1  0  0  0
 49 57  1  0  0  0
 49119  1  0  0  0
 50 51  1  0  0  0
 50 58  1  0  0  0
 50120  1  0  0  0
 51 52  1  0  0  0
 51 59  1  0  0  0
 51121  1  0  0  0
 52 60  1  0  0  0
 52122  1  0  0  0
 52123  1  0  0  0
 53 54  1  0  0  0
 53 55  1  0  0  0
 53 61  2  0  0  0
 54124  1  0  0  0
 54125  1  0  0  0
 54126  1  0  0  0
 55127  1  0  0  0
 56128  1  0  0  0
 58129  1  0  0  0
 60 62  1  0  0  0
 62 63  1  0  0  0
 62 71  1  0  0  0
 62130  1  0  0  0
 63 64  1  0  0  0
 63 68  1  0  0  0
 63131  1  0  0  0
 64 65  1  0  0  0
 64 69  1  0  0  0
 64132  1  0  0  0
 65 66  1  0  0  0
 65 70  1  0  0  0
 65133  1  0  0  0
 66 67  1  0  0  0
 66 71  1  0  0  0
 66134  1  0  0  0
 67 72  1  0  0  0
 67135  1  0  0  0
 67136  1  0  0  0
 68137  1  0  0  0
 69138  1  0  0  0
 70139  1  0  0  0
 72140  1  0  0  0
M  END
> <s_m_source_file>
../2x6y_ligand.sdf

> <i_m_source_file_index>
1

> <s_epik_input>
W0NIM11bQ0BIXShPMSlbQ0BIXShbT0hdKVtDQEBIXShbT0hdKVtDQEBIXShbT0hdKVtDQEBIXTFPW0NIMl1bQ0BASF0oTzIpW0NAQEhdKFtPSF0pW0NASF0oW09IXSlbQ0BASF0oW09IXSlbQ0BIXTJPW0NAQEhdKFtDQEhdKE8zKVtDSDJdW09IXSlbQ0BIXShPW0NASF00W0NASF0oW05IXUMoPU8pW0NIM10pW0NAQEhdKFtPSF0pW0NASF0oW09IXSlbQ0BIXShPNClbQ0gyXVtPSF0pW0NAQEhdKFtPSF0pW0NASF0zT1tDQEhdKFtDQEhdKFtDQEBIXTVbT0hdKVtOSF1DKD1PKVtDSDNdKVtDQEhdKFtPSF0pW0NASF0oTzUpW0NIMl1PW0NAQEhdNltDQEhdKFtPSF0pW0NAQEhdKFtPSF0pW0NASF0oW09IXSlbQ0BIXShPNilbQ0gyXVtPSF0=

> <s_epik_cmdline>
J2VwaWtfYXBwJywgJy1pbWFlJywgJ2xpZ2FuZF9wcm8ubWFlJywgJy1vbWFlJywgJ2xpZ2FuZF9wcmVwLm1hZScsICctbXMnLCAnMScsICctcGgnLCAnNycsICctcGh0JywgJzAuNScsICctbnQn

> <r_lp_tautomer_probability>
1

> <r_epik_Ionization_Penalty>
  0.0001

> <r_epik_Ionization_Penalty_Charging>
  0.0000

> <r_epik_Ionization_Penalty_Neutral>
  0.0001

> <r_epik_State_Penalty>
 -0.0000

> <r_epik_Charging_Adjusted_Penalty>
0

> <i_epik_Tot_Q>
0

> <i_epik_Tot_abs_Q>
0

> <s_epik_Chemistry_Notes>
This compound contains an acetal/aminal-like group ( X-CH(R)-Y where X, Y are N, S, or O) that may be acid/base labile, releasing an aldehyde.

$$$$
