2x7c_ligand
                    3D
 Schrodinger Suite 2020-3.
 33 35  0  0  1  0            999 V2000
   -8.3520   12.1700   34.2410 O   0  0  0  0  0  0
   -7.3740   12.9590   33.6690 C   0  0  0  0  0  0
   -7.4190   13.1760   32.2840 C   0  0  0  0  0  0
   -6.3600   13.5450   34.4360 C   0  0  0  0  0  0
   -5.3640   14.3420   33.8580 C   0  0  0  0  0  0
   -5.4170   14.5470   32.4590 C   0  0  0  0  0  0
   -6.4420   13.9610   31.6810 C   0  0  0  0  0  0
   -6.5040   14.1000   30.1470 C   0  0  1  0  0  0
   -6.8190   15.5570   29.7580 C   0  0  0  0  0  0
   -8.0410   16.1280   30.1230 C   0  0  0  0  0  0
   -8.9340   15.3830   30.5310 O   0  0  0  0  0  0
   -8.4090   17.5990   29.8640 C   0  0  0  0  0  0
   -7.1400   18.4700   29.8780 C   0  0  0  0  0  0
   -6.0490   17.8720   28.9460 C   0  0  0  0  0  0
   -5.8640   16.3620   29.1630 C   0  0  0  0  0  0
   -4.6130   15.8200   28.8480 N   0  0  0  0  0  0
   -4.3080   14.4730   29.0090 C   0  0  0  0  0  0
   -2.7750   13.9450   28.4270 S   0  0  0  0  0  0
   -5.2230   13.6110   29.6090 N   0  0  0  0  0  0
   -9.1359   11.7231   33.6119 H   0  0  0  0  0  0
   -8.2140   12.7326   31.6845 H   0  0  0  0  0  0
   -6.3453   13.3763   35.5128 H   0  0  0  0  0  0
   -4.5759   14.7885   34.4643 H   0  0  0  0  0  0
   -4.6592   15.1636   31.9756 H   0  0  0  0  0  0
   -7.2820   13.4726   29.6876 H   0  0  0  0  0  0
   -8.8975   17.6874   28.8824 H   0  0  0  0  0  0
   -9.0963   17.9486   30.6484 H   0  0  0  0  0  0
   -7.3871   19.4836   29.5294 H   0  0  0  0  0  0
   -6.7418   18.5214   30.9021 H   0  0  0  0  0  0
   -5.4399   18.3986   28.1966 H   0  0  0  0  0  0
   -3.8166   16.4679   28.4531 H   0  0  0  0  0  0
   -4.9703   12.5425   29.6760 H   0  0  0  0  0  0
   -8.7178   14.3230   30.7302 H   0  0  0  0  0  0
  1  2  1  0  0  0
  1 20  1  0  0  0
  2  3  2  0  0  0
  2  4  1  0  0  0
  3  7  1  0  0  0
  3 21  1  0  0  0
  4  5  2  0  0  0
  4 22  1  0  0  0
  5  6  1  0  0  0
  5 23  1  0  0  0
  6  7  2  0  0  0
  6 24  1  0  0  0
  7  8  1  0  0  0
  8  9  1  0  0  0
  8 19  1  0  0  0
  8 25  1  0  0  0
  9 10  2  0  0  0
  9 15  1  0  0  0
 10 11  1  0  0  0
 10 12  1  0  0  0
 11 33  1  0  0  0
 12 13  1  0  0  0
 12 26  1  0  0  0
 12 27  1  0  0  0
 13 14  1  0  0  0
 13 28  1  0  0  0
 13 29  1  0  0  0
 14 15  2  0  0  0
 14 30  1  0  0  0
 15 16  1  0  0  0
 16 17  1  0  0  0
 16 31  1  0  0  0
 17 18  2  0  0  0
 17 19  1  0  0  0
 19 32  1  0  0  0
M  END
> <s_m_source_file>
../2x7c_ligand.sdf

> <i_m_source_file_index>
1

> <s_epik_input>
W09IXWMxW2NIXWMoW2NIXVtjSF1bY0hdMSlbQ0BASF0yW05IXUMoPVMpW05IXUMoPUMyMylbQ0gyXVtDSDJdW0NIMl1DMz1P

> <s_epik_cmdline>
J2VwaWtfYXBwJywgJy1pbWFlJywgJ2xpZ2FuZF9wcm8ubWFlJywgJy1vbWFlJywgJ2xpZ2FuZF9wcmVwLm1hZScsICctbXMnLCAnMScsICctcGgnLCAnNycsICctcGh0JywgJzAuNScsICctbnQn

> <r_lp_tautomer_probability>
0.999999999997365

> <r_epik_Ionization_Penalty>
  0.0418

> <r_epik_Ionization_Penalty_Charging>
  0.0000

> <r_epik_Ionization_Penalty_Neutral>
  0.0418

> <r_epik_State_Penalty>
  0.0338

> <r_epik_Charging_Adjusted_Penalty>
0.0338082337639977

> <i_epik_Tot_Q>
0

> <i_epik_Tot_abs_Q>
0

$$$$
