2x7d_ligand
                    3D
 Schrodinger Suite 2020-3.
 41 43  0  0  1  0            999 V2000
   -8.3160   12.2300   34.3450 O   0  0  0  0  0  0
   -7.3830   13.0190   33.7290 C   0  0  0  0  0  0
   -7.4140   13.1510   32.3250 C   0  0  0  0  0  0
   -6.4240   13.6850   34.4880 C   0  0  0  0  0  0
   -5.4880   14.4790   33.8150 C   0  0  0  0  0  0
   -5.5150   14.5990   32.4090 C   0  0  0  0  0  0
   -6.4620   13.9050   31.6310 C   0  0  0  0  0  0
   -6.5500   14.0070   30.0820 C   0  0  1  0  0  0
   -6.9250   15.4310   29.6360 C   0  0  0  0  0  0
   -8.1950   15.9250   29.9200 C   0  0  0  0  0  0
   -8.9970   15.1350   30.4080 O   0  0  0  0  0  0
   -8.6820   17.3460   29.5590 C   0  0  0  0  0  0
   -7.4820   18.3370   29.5540 C   0  0  0  0  0  0
   -6.8650   18.4810   30.9520 C   0  0  0  0  0  0
   -7.9560   19.7280   29.0970 C   0  0  0  0  0  0
   -6.4070   17.7490   28.6130 C   0  0  0  0  0  0
   -6.0230   16.2830   29.0230 C   0  0  0  0  0  0
   -4.7990   15.8390   28.6810 N   0  0  0  0  0  0
   -4.3290   14.6130   29.3070 C   0  0  2  0  0  0
   -2.8540   14.0330   28.4520 S   0  0  0  0  0  0
   -5.3260   13.5580   29.3740 N   0  0  1  0  0  0
   -9.0735   11.7039   33.7455 H   0  0  0  0  0  0
   -8.2033   12.6505   31.7642 H   0  0  0  0  0  0
   -6.4029   13.5908   35.5737 H   0  0  0  0  0  0
   -4.7273   15.0123   34.3851 H   0  0  0  0  0  0
   -4.7873   15.2426   31.9146 H   0  0  0  0  0  0
   -7.3191   13.2905   29.7578 H   0  0  0  0  0  0
   -9.1436   17.3328   28.5606 H   0  0  0  0  0  0
   -9.4225   17.6794   30.3009 H   0  0  0  0  0  0
   -7.6131   18.8989   31.6417 H   0  0  0  0  0  0
   -5.9963   19.1539   30.9018 H   0  0  0  0  0  0
   -6.5434   17.4934   31.3143 H   0  0  0  0  0  0
   -8.7180   20.1036   29.7958 H   0  0  0  0  0  0
   -8.3880   19.6550   28.0880 H   0  0  0  0  0  0
   -7.1008   20.4197   29.0806 H   0  0  0  0  0  0
   -5.9209   18.2233   27.7477 H   0  0  0  0  0  0
   -4.1604   16.3670   27.9575 H   0  0  0  0  0  0
   -4.3350   14.9186   30.3637 H   0  0  0  0  0  0
   -1.9973   14.7089   28.3130 H   0  0  0  0  0  0
   -4.8885   12.7003   29.9060 H   0  0  0  0  0  0
   -8.6745   14.1174   30.6735 H   0  0  0  0  0  0
  1  2  1  0  0  0
  1 22  1  0  0  0
  2  3  2  0  0  0
  2  4  1  0  0  0
  3  7  1  0  0  0
  3 23  1  0  0  0
  4  5  2  0  0  0
  4 24  1  0  0  0
  5  6  1  0  0  0
  5 25  1  0  0  0
  6  7  2  0  0  0
  6 26  1  0  0  0
  7  8  1  0  0  0
  8  9  1  0  0  0
  8 21  1  0  0  0
  8 27  1  0  0  0
  9 10  2  0  0  0
  9 17  1  0  0  0
 10 11  1  0  0  0
 10 12  1  0  0  0
 11 41  1  0  0  0
 12 13  1  0  0  0
 12 28  1  0  0  0
 12 29  1  0  0  0
 13 14  1  0  0  0
 13 15  1  0  0  0
 13 16  1  0  0  0
 14 30  1  0  0  0
 14 31  1  0  0  0
 14 32  1  0  0  0
 15 33  1  0  0  0
 15 34  1  0  0  0
 15 35  1  0  0  0
 16 17  2  0  0  0
 16 36  1  0  0  0
 17 18  1  0  0  0
 18 19  1  0  0  0
 18 37  1  0  0  0
 19 20  1  0  0  0
 19 21  1  0  0  0
 19 38  1  0  0  0
 20 39  1  0  0  0
 21 40  1  0  0  0
M  END
> <s_m_source_file>
../2x7d_ligand.sdf

> <i_m_source_file_index>
1

> <s_epik_input>
W09IXWMxW2NIXWMoW2NIXVtjSF1bY0hdMSlbQ0BASF0yW05IMitdW0NAQEhdKFtTSF0pW05IXUMoPUMyMylbQ0gyXUMoW0NIM10pKFtDSDNdKVtDSDJdQzM9Tw==

> <s_epik_cmdline>
J2VwaWtfYXBwJywgJy1pbWFlJywgJ2xpZ2FuZF9wcm8ubWFlJywgJy1vbWFlJywgJ2xpZ2FuZF9wcmVwLm1hZScsICctbXMnLCAnMScsICctcGgnLCAnNycsICctcGh0JywgJzAuNScsICctbnQn

> <r_lp_tautomer_probability>
1

> <r_epik_Ionization_Penalty>
  0.2060

> <r_epik_Ionization_Penalty_Charging>
  0.0000

> <r_epik_Ionization_Penalty_Neutral>
  0.2060

> <r_epik_State_Penalty>
 -0.0000

> <r_epik_Charging_Adjusted_Penalty>
2.11789841049172e-08

> <i_epik_Tot_Q>
0

> <i_epik_Tot_abs_Q>
0

> <s_epik_Chemistry_Notes>
This compound has an imine and may undergo hydrolysis. This compound contains an acetal/aminal-like group ( X-CH(R)-Y where X, Y are N, S, or O) that may be acid/base labile, releasing an aldehyde.

$$$$
