2x7o_ligand
                    3D
 Schrodinger Suite 2020-3.
 72 76  0  0  1  0            999 V2000
   92.3130   50.3580   48.3520 C   0  0  0  0  0  0
   91.4290   50.5400   47.1010 C   0  0  0  0  0  0
   90.5540   49.2900   46.8640 C   0  0  0  0  0  0
   89.7580   48.9180   48.1330 C   0  0  0  0  0  0
   90.6940   48.7960   49.3520 C   0  0  0  0  0  0
   91.4760   50.0410   49.5280 N   0  3  0  0  0  0
   92.2620   50.0300   50.7760 C   0  0  0  0  0  0
   91.5000   50.7740   51.8470 C   0  0  0  0  0  0
   91.2090   52.1380   51.6770 C   0  0  0  0  0  0
   90.4950   52.8320   52.6630 C   0  0  0  0  0  0
   91.0740   50.1060   53.0100 C   0  0  0  0  0  0
   90.3600   50.8030   54.0000 C   0  0  0  0  0  0
   90.0790   52.1820   53.8500 C   0  0  0  0  0  0
   89.3350   52.8070   54.8770 N   0  0  0  0  0  0
   89.2850   54.1250   55.3260 C   0  0  0  0  0  0
   89.8770   55.2570   54.5750 C   0  0  0  0  0  0
   89.1560   55.8210   53.4890 C   0  0  0  0  0  0
   89.6870   56.8960   52.7660 C   0  0  0  0  0  0
   90.9380   57.4250   53.1170 C   0  0  0  0  0  0
   91.6560   56.8780   54.1950 C   0  0  0  0  0  0
   91.1390   55.8000   54.9280 C   0  0  0  0  0  0
   88.6100   54.3810   56.5460 C   0  0  0  0  0  0
   88.3990   55.6850   57.2440 C   0  0  0  0  0  0
   88.7600   57.0400   56.9920 C   0  0  0  0  0  0
   87.9640   53.4130   57.3890 C   0  0  0  0  0  0
   87.8920   52.2160   57.1780 O   0  0  0  0  0  0
   87.4100   54.0160   58.4420 N   0  0  0  0  0  0
   87.6490   55.3750   58.4150 C   0  0  0  0  0  0
   87.2690   56.4010   59.2870 C   0  0  0  0  0  0
   87.6550   57.7390   59.0280 C   0  0  0  0  0  0
   88.3980   58.0510   57.8660 C   0  0  0  0  0  0
   86.4700   59.6500   59.5290 O   0  0  0  0  0  0
   86.2990   59.3850   63.1620 C   0  0  0  0  0  0
   87.3000   59.9470   62.1500 C   0  0  0  0  0  0
   87.2530   58.8130   59.9600 C   0  0  0  0  0  0
   87.7240   58.8750   61.2500 N   0  0  0  0  0  0
   88.6650   57.8920   61.8100 C   0  0  0  0  0  0
   93.0224   49.5345   48.1830 H   0  0  0  0  0  0
   92.8691   51.2869   48.5463 H   0  0  0  0  0  0
   90.7729   51.4120   47.2394 H   0  0  0  0  0  0
   92.0684   50.6984   46.2201 H   0  0  0  0  0  0
   89.8425   49.4896   46.0492 H   0  0  0  0  0  0
   91.1958   48.4396   46.5902 H   0  0  0  0  0  0
   89.0095   49.6976   48.3380 H   0  0  0  0  0  0
   89.2507   47.9543   47.9783 H   0  0  0  0  0  0
   90.0954   48.6176   50.2575 H   0  0  0  0  0  0
   91.3873   47.9557   49.1993 H   0  0  0  0  0  0
   90.7446   50.8576   49.6184 H   0  0  0  0  0  0
   92.4288   48.9906   51.0951 H   0  0  0  0  0  0
   93.2313   50.5205   50.6032 H   0  0  0  0  0  0
   91.5390   52.6570   50.7771 H   0  0  0  0  0  0
   90.2569   53.8852   52.5143 H   0  0  0  0  0  0
   91.2978   49.0476   53.1432 H   0  0  0  0  0  0
   90.0195   50.2765   54.8916 H   0  0  0  0  0  0
   88.6378   52.2158   55.4889 H   0  0  0  0  0  0
   88.1823   55.4140   53.2165 H   0  0  0  0  0  0
   89.1292   57.3212   51.9317 H   0  0  0  0  0  0
   91.3536   58.2605   52.5537 H   0  0  0  0  0  0
   92.6257   57.2967   54.4641 H   0  0  0  0  0  0
   91.7025   55.3826   55.7625 H   0  0  0  0  0  0
   89.3307   57.2848   56.0962 H   0  0  0  0  0  0
   86.8533   53.4251   59.1842 H   0  0  0  0  0  0
   86.6731   56.1696   60.1699 H   0  0  0  0  0  0
   88.6843   59.0822   57.6594 H   0  0  0  0  0  0
   85.9760   60.1868   63.8423 H   0  0  0  0  0  0
   86.7763   58.5817   63.7425 H   0  0  0  0  0  0
   85.4252   58.9825   62.6286 H   0  0  0  0  0  0
   86.8227   60.7503   61.5695 H   0  0  0  0  0  0
   88.1738   60.3495   62.6833 H   0  0  0  0  0  0
   88.8913   58.1545   62.8540 H   0  0  0  0  0  0
   89.5940   57.8969   61.2210 H   0  0  0  0  0  0
   88.2131   56.8898   61.7736 H   0  0  0  0  0  0
  1  2  1  0  0  0
  1  6  1  0  0  0
  1 38  1  0  0  0
  1 39  1  0  0  0
  2  3  1  0  0  0
  2 40  1  0  0  0
  2 41  1  0  0  0
  3  4  1  0  0  0
  3 42  1  0  0  0
  3 43  1  0  0  0
  4  5  1  0  0  0
  4 44  1  0  0  0
  4 45  1  0  0  0
  5  6  1  0  0  0
  5 46  1  0  0  0
  5 47  1  0  0  0
  6  7  1  0  0  0
  6 48  1  0  0  0
  7  8  1  0  0  0
  7 49  1  0  0  0
  7 50  1  0  0  0
  8  9  2  0  0  0
  8 11  1  0  0  0
  9 10  1  0  0  0
  9 51  1  0  0  0
 10 13  2  0  0  0
 10 52  1  0  0  0
 11 12  2  0  0  0
 11 53  1  0  0  0
 12 13  1  0  0  0
 12 54  1  0  0  0
 13 14  1  0  0  0
 14 15  1  0  0  0
 14 55  1  0  0  0
 15 16  1  0  0  0
 15 22  2  0  0  0
 16 17  2  0  0  0
 16 21  1  0  0  0
 17 18  1  0  0  0
 17 56  1  0  0  0
 18 19  2  0  0  0
 18 57  1  0  0  0
 19 20  1  0  0  0
 19 58  1  0  0  0
 20 21  2  0  0  0
 20 59  1  0  0  0
 21 60  1  0  0  0
 22 23  1  0  0  0
 22 25  1  0  0  0
 23 24  2  0  0  0
 23 28  1  0  0  0
 24 31  1  0  0  0
 24 61  1  0  0  0
 25 26  2  0  0  0
 25 27  1  0  0  0
 27 28  1  0  0  0
 27 62  1  0  0  0
 28 29  2  0  0  0
 29 30  1  0  0  0
 29 63  1  0  0  0
 30 31  2  0  0  0
 30 35  1  0  0  0
 31 64  1  0  0  0
 32 35  2  0  0  0
 33 34  1  0  0  0
 33 65  1  0  0  0
 33 66  1  0  0  0
 33 67  1  0  0  0
 34 36  1  0  0  0
 34 68  1  0  0  0
 34 69  1  0  0  0
 35 36  1  0  0  0
 36 37  1  0  0  0
 37 70  1  0  0  0
 37 71  1  0  0  0
 37 72  1  0  0  0
M  CHG  1   6   1
M  END
> <s_m_source_file>
../2x7o_ligand.sdf

> <i_m_source_file_index>
1

> <s_epik_input>
W0NIMl0xW0NIMl1bQ0gyXVtDSDJdW0NIMl1bTkgrXTFbQ0gyXWMyW2NIXVtjSF1jKFtjSF1bY0hdMilbTkhdL0MoYzNbY0hdW2NIXVtjSF1bY0hdW2NIXTMpPUMvNEMoPU8pW05IXWMoYzQ1KVtjSF1jKFtjSF1bY0hdNSlDKD1PKU4oW0NIM10pW0NIMl1bQ0gzXQ==

> <s_epik_cmdline>
J2VwaWtfYXBwJywgJy1pbWFlJywgJ2xpZ2FuZF9wcm8ubWFlJywgJy1vbWFlJywgJ2xpZ2FuZF9wcmVwLm1hZScsICctbXMnLCAnMScsICctcGgnLCAnNycsICctcGh0JywgJzAuNScsICctbnQn

> <r_lp_tautomer_probability>
0.499999999999422

> <r_epik_Ionization_Penalty>
  0.0102

> <r_epik_Ionization_Penalty_Charging>
  0.0100

> <r_epik_Ionization_Penalty_Neutral>
  0.0002

> <r_epik_State_Penalty>
  0.0076

> <r_epik_Charging_Adjusted_Penalty>
0.0176309086153974

> <i_epik_Tot_Q>
1

> <i_epik_Tot_abs_Q>
1

$$$$
