2x7s_ligand
                    3D
 Schrodinger Suite 2020-3.
 53 56  0  0  1  0            999 V2000
   17.8960   25.5750   19.6270 O   0  0  0  0  0  0
   19.2940   25.9400   19.3530 S   0  0  0  0  0  0
   20.0610   25.5190   20.5250 O   0  0  0  0  0  0
   19.8540   25.1190   18.1880 N   0  0  0  0  0  0
   19.3420   27.4390   19.0180 O   0  0  0  0  0  0
   20.5550   28.0960   18.6680 C   0  0  1  0  0  0
   20.7340   28.1940   17.1430 C   0  0  0  0  0  0
   21.3300   29.5740   16.8590 C   0  0  0  0  0  0
   21.7200   30.0270   18.2590 C   0  0  1  0  0  0
   22.0500   31.4930   18.5130 C   0  0  2  0  0  0
   23.0110   32.0740   17.4870 C   0  0  0  0  0  0
   23.1990   33.5600   17.7770 C   0  0  0  0  0  0
   23.3530   33.8570   19.2580 C   0  0  0  0  0  0
   23.7670   35.1420   19.6090 C   0  0  0  0  0  0
   23.9390   35.5020   20.9400 C   0  0  0  0  0  0
   24.3440   36.7730   21.2380 O   0  0  0  0  0  0
   23.6940   34.5790   21.9430 C   0  0  0  0  0  0
   23.8720   34.9500   23.2600 O   0  0  0  0  0  0
   24.4200   34.0470   24.2250 C   0  0  0  0  0  0
   23.2730   33.2860   21.6030 C   0  0  0  0  0  0
   23.1050   32.9170   20.2620 C   0  0  0  0  0  0
   22.6520   31.5380   19.9260 C   0  0  1  0  0  0
   21.6610   31.0210   20.9790 C   0  0  0  0  0  0
   21.0700   29.6430   20.6500 C   0  0  0  0  0  0
   20.6290   29.5240   19.1880 C   0  0  2  0  0  0
   19.2810   30.2340   18.9960 C   0  0  0  0  0  0
   19.8138   24.0492   18.4407 H   0  0  0  0  0  0
   20.8974   25.4126   18.0007 H   0  0  0  0  0  0
   21.2827   27.4373   19.1645 H   0  0  0  0  0  0
   21.4110   27.3972   16.8013 H   0  0  0  0  0  0
   19.7567   28.0807   16.6510 H   0  0  0  0  0  0
   22.1887   29.4697   16.1795 H   0  0  0  0  0  0
   20.5673   30.2135   16.3906 H   0  0  0  0  0  0
   22.7111   29.5879   18.4459 H   0  0  0  0  0  0
   21.1445   32.1099   18.4153 H   0  0  0  0  0  0
   23.9785   31.5552   17.5558 H   0  0  0  0  0  0
   22.5944   31.9407   16.4777 H   0  0  0  0  0  0
   24.1038   33.9216   17.2665 H   0  0  0  0  0  0
   22.3243   34.1183   17.4121 H   0  0  0  0  0  0
   23.9588   35.8759   18.8262 H   0  0  0  0  0  0
   24.5342   37.4936   20.4289 H   0  0  0  0  0  0
   24.4734   34.5451   25.2043 H   0  0  0  0  0  0
   25.4302   33.7445   23.9119 H   0  0  0  0  0  0
   23.7777   33.1572   24.3007 H   0  0  0  0  0  0
   23.0741   32.5594   22.3908 H   0  0  0  0  0  0
   23.5460   30.8973   19.9448 H   0  0  0  0  0  0
   22.1701   30.9344   21.9503 H   0  0  0  0  0  0
   20.8198   31.7243   21.0674 H   0  0  0  0  0  0
   21.8250   28.8656   20.8389 H   0  0  0  0  0  0
   20.1896   29.4608   21.2838 H   0  0  0  0  0  0
   18.9671   30.1468   17.9454 H   0  0  0  0  0  0
   19.3853   31.2966   19.2606 H   0  0  0  0  0  0
   18.5251   29.7672   19.6445 H   0  0  0  0  0  0
  1  2  2  0  0  0
  2  3  2  0  0  0
  2  4  1  0  0  0
  2  5  1  0  0  0
  4 27  1  0  0  0
  4 28  1  0  0  0
  5  6  1  0  0  0
  6  7  1  0  0  0
  6 25  1  0  0  0
  6 29  1  0  0  0
  7  8  1  0  0  0
  7 30  1  0  0  0
  7 31  1  0  0  0
  8  9  1  0  0  0
  8 32  1  0  0  0
  8 33  1  0  0  0
  9 10  1  0  0  0
  9 25  1  0  0  0
  9 34  1  0  0  0
 10 11  1  0  0  0
 10 22  1  0  0  0
 10 35  1  0  0  0
 11 12  1  0  0  0
 11 36  1  0  0  0
 11 37  1  0  0  0
 12 13  1  0  0  0
 12 38  1  0  0  0
 12 39  1  0  0  0
 13 14  2  0  0  0
 13 21  1  0  0  0
 14 15  1  0  0  0
 14 40  1  0  0  0
 15 16  1  0  0  0
 15 17  2  0  0  0
 16 41  1  0  0  0
 17 18  1  0  0  0
 17 20  1  0  0  0
 18 19  1  0  0  0
 19 42  1  0  0  0
 19 43  1  0  0  0
 19 44  1  0  0  0
 20 21  2  0  0  0
 20 45  1  0  0  0
 21 22  1  0  0  0
 22 23  1  0  0  0
 22 46  1  0  0  0
 23 24  1  0  0  0
 23 47  1  0  0  0
 23 48  1  0  0  0
 24 25  1  0  0  0
 24 49  1  0  0  0
 24 50  1  0  0  0
 25 26  1  0  0  0
 26 51  1  0  0  0
 26 52  1  0  0  0
 26 53  1  0  0  0
M  END
> <s_m_source_file>
../2x7s_ligand.sdf

> <i_m_source_file_index>
1

> <s_epik_input>
Tz1TKD1PKShbTkgyXSlPW0NASF0xW0NIMl1bQ0gyXVtDQEhdKFtDQEBdMTJbQ0gzXSlbQ0BIXTNbQ0BIXShbQ0gyXVtDSDJdMiljNGMoW0NIMl1bQ0gyXTMpW2NIXWMoW09IXSljKFtjSF00KU9bQ0gzXQ==

> <s_epik_cmdline>
J2VwaWtfYXBwJywgJy1pbWFlJywgJ2xpZ2FuZF9wcm8ubWFlJywgJy1vbWFlJywgJ2xpZ2FuZF9wcmVwLm1hZScsICctbXMnLCAnMScsICctcGgnLCAnNycsICctcGh0JywgJzAuNScsICctbnQn

> <r_lp_tautomer_probability>
1

> <r_epik_Ionization_Penalty>
  0.0020

> <r_epik_Ionization_Penalty_Charging>
  0.0000

> <r_epik_Ionization_Penalty_Neutral>
  0.0020

> <r_epik_State_Penalty>
 -0.0000

> <r_epik_Charging_Adjusted_Penalty>
0

> <i_epik_Tot_Q>
0

> <i_epik_Tot_abs_Q>
0

$$$$
