2x7t_ligand
                    3D
 Schrodinger Suite 2020-3.
 60 63  0  0  1  0            999 V2000
   -7.2590    1.0810   17.1950 O   0  0  0  0  0  0
   -5.8440    1.1230   16.8590 S   0  0  0  0  0  0
   -5.0640    1.7200   17.8900 O   0  0  0  0  0  0
   -5.2570   -0.2570   16.5960 N   0  0  0  0  0  0
   -5.7450    1.9740   15.4580 O   0  0  0  0  0  0
   -4.4780    2.1930   14.8150 C   0  0  1  0  0  0
   -4.3360    1.3680   13.5120 C   0  0  0  0  0  0
   -3.3380    2.1590   12.6430 C   0  0  0  0  0  0
   -4.2720    3.6400   14.3690 C   0  0  1  0  0  0
   -2.9700    3.3090   13.5950 C   0  0  2  0  0  0
   -5.5180    4.0930   13.5180 C   0  0  0  0  0  0
   -4.0290    4.7390   15.4340 C   0  0  0  0  0  0
   -3.2790    5.9790   14.8850 C   0  0  0  0  0  0
   -1.9960    5.5750   14.1090 C   0  0  1  0  0  0
   -2.3100    4.5640   12.9310 C   0  0  1  0  0  0
   -1.0130    4.1990   12.1530 C   0  0  0  0  0  0
   -0.4090    5.4620   11.4650 C   0  0  0  0  0  0
   -0.4900    6.7330   12.3220 C   0  0  0  0  0  0
    0.2120    7.9250   11.8830 C   0  0  0  0  0  0
   -1.2440    6.7840   13.5670 C   0  0  0  0  0  0
   -1.0960    7.9940   14.0470 C   0  0  0  0  0  0
   -0.5640    9.1860   13.8900 C   0  0  0  0  0  0
   -0.6830   10.3940   14.8140 C   0  0  0  0  0  0
   -1.8820   11.2210   14.3680 C   0  0  0  0  0  0
    0.1890    9.1500   12.6430 C   0  0  0  0  0  0
    0.8930   10.2470   12.1610 O   0  0  0  0  0  0
    2.5430   10.2540   12.2570 S   0  0  0  0  0  0
    3.0080   11.6470   12.0590 O   0  0  0  0  0  0
    3.1160    9.4060   11.1880 O   0  0  0  0  0  0
    3.0410    9.7330   13.6050 N   0  0  0  0  0  0
   -5.3065   -0.8579   17.5160 H   0  0  0  0  0  0
   -4.2082   -0.1552   16.2805 H   0  0  0  0  0  0
   -3.8011    1.8962   15.6297 H   0  0  0  0  0  0
   -3.9564    0.3641   13.7532 H   0  0  0  0  0  0
   -5.3180    1.2812   13.0241 H   0  0  0  0  0  0
   -2.4860    1.5135   12.3834 H   0  0  0  0  0  0
   -3.8384    2.4935   11.7223 H   0  0  0  0  0  0
   -2.1680    2.9628   14.2636 H   0  0  0  0  0  0
   -5.7282    3.3387   12.7454 H   0  0  0  0  0  0
   -5.3026    5.0591   13.0382 H   0  0  0  0  0  0
   -6.3931    4.1975   14.1762 H   0  0  0  0  0  0
   -4.9950    5.0872   15.8285 H   0  0  0  0  0  0
   -3.4247    4.3264   16.2554 H   0  0  0  0  0  0
   -3.9383    6.5330   14.2006 H   0  0  0  0  0  0
   -2.9875    6.6313   15.7214 H   0  0  0  0  0  0
   -1.3333    5.1029   14.8493 H   0  0  0  0  0  0
   -2.9842    4.9958   12.1767 H   0  0  0  0  0  0
   -0.2706    3.7853   12.8514 H   0  0  0  0  0  0
   -1.2467    3.4511   11.3810 H   0  0  0  0  0  0
    0.6537    5.2855   11.2426 H   0  0  0  0  0  0
   -0.9507    5.6642   10.5292 H   0  0  0  0  0  0
    0.7741    7.8931   10.9497 H   0  0  0  0  0  0
   -1.6568    8.0266   14.9811 H   0  0  0  0  0  0
   -0.8255   10.0510   15.8494 H   0  0  0  0  0  0
    0.2353   10.9962   14.7503 H   0  0  0  0  0  0
   -1.9859   12.0988   15.0227 H   0  0  0  0  0  0
   -2.7933   10.6081   14.4292 H   0  0  0  0  0  0
   -1.7326   11.5533   13.3301 H   0  0  0  0  0  0
    4.1406    9.7558   13.6233 H   0  0  0  0  0  0
    2.6932    8.6995   13.7498 H   0  0  0  0  0  0
  1  2  2  0  0  0
  2  3  2  0  0  0
  2  4  1  0  0  0
  2  5  1  0  0  0
  4 31  1  0  0  0
  4 32  1  0  0  0
  5  6  1  0  0  0
  6  7  1  0  0  0
  6  9  1  0  0  0
  6 33  1  0  0  0
  7  8  1  0  0  0
  7 34  1  0  0  0
  7 35  1  0  0  0
  8 10  1  0  0  0
  8 36  1  0  0  0
  8 37  1  0  0  0
  9 10  1  0  0  0
  9 11  1  0  0  0
  9 12  1  0  0  0
 10 15  1  0  0  0
 10 38  1  0  0  0
 11 39  1  0  0  0
 11 40  1  0  0  0
 11 41  1  0  0  0
 12 13  1  0  0  0
 12 42  1  0  0  0
 12 43  1  0  0  0
 13 14  1  0  0  0
 13 44  1  0  0  0
 13 45  1  0  0  0
 14 15  1  0  0  0
 14 20  1  0  0  0
 14 46  1  0  0  0
 15 16  1  0  0  0
 15 47  1  0  0  0
 16 17  1  0  0  0
 16 48  1  0  0  0
 16 49  1  0  0  0
 17 18  1  0  0  0
 17 50  1  0  0  0
 17 51  1  0  0  0
 18 19  2  0  0  0
 18 20  1  0  0  0
 19 25  1  0  0  0
 19 52  1  0  0  0
 20 21  2  0  0  0
 21 22  1  0  0  0
 21 53  1  0  0  0
 22 23  1  0  0  0
 22 25  2  0  0  0
 23 24  1  0  0  0
 23 54  1  0  0  0
 23 55  1  0  0  0
 24 56  1  0  0  0
 24 57  1  0  0  0
 24 58  1  0  0  0
 25 26  1  0  0  0
 26 27  1  0  0  0
 27 28  2  0  0  0
 27 29  2  0  0  0
 27 30  1  0  0  0
 30 59  1  0  0  0
 30 60  1  0  0  0
M  END
> <s_m_source_file>
../2x7t_ligand.sdf

> <i_m_source_file_index>
1

> <s_epik_input>
Tz1TKD1PKShbTkgyXSlPW0NASF0xW0NIMl1bQ0gyXVtDQEhdKFtDQEBdMTJbQ0gzXSlbQ0BIXTNbQ0BIXShbQ0gyXVtDSDJdMiljNGMoW0NIMl1bQ0gyXTMpW2NIXWMoYyhbY0hdNClbQ0gyXVtDSDNdKU9TKD1PKSg9TylbTkgyXQ==

> <s_epik_cmdline>
J2VwaWtfYXBwJywgJy1pbWFlJywgJ2xpZ2FuZF9wcm8ubWFlJywgJy1vbWFlJywgJ2xpZ2FuZF9wcmVwLm1hZScsICctbXMnLCAnMScsICctcGgnLCAnNycsICctcGh0JywgJzAuNScsICctbnQn

> <r_epik_Ionization_Penalty>
  0.0212

> <r_epik_Ionization_Penalty_Charging>
  0.0000

> <r_epik_Ionization_Penalty_Neutral>
  0.0212

> <r_epik_State_Penalty>
  0.0155

> <r_epik_Charging_Adjusted_Penalty>
0.0154800641039723

> <i_epik_Tot_Q>
0

> <i_epik_Tot_abs_Q>
0

$$$$
