2x7u_ligand
                    3D
 Schrodinger Suite 2020-3.
 53 56  0  0  1  0            999 V2000
    2.0780    4.8580  -17.8680 C   0  0  0  0  0  0
    1.6100    7.6880  -19.3780 O   0  0  0  0  0  0
   -0.4850    7.1710  -18.4600 O   0  0  0  0  0  0
    1.2370    3.7880  -18.4550 C   0  0  0  0  0  0
    1.7790    2.5940  -18.8920 C   0  0  0  0  0  0
    3.1370    2.3610  -18.7950 C   0  0  0  0  0  0
    0.9190    7.3540  -18.1810 S   0  0  0  0  0  0
    1.1080    8.5450  -17.1320 N   0  0  0  0  0  0
    1.5310    6.0330  -17.3960 O   0  0  0  0  0  0
    4.0130    3.4010  -18.1940 C   0  0  0  0  0  0
    3.4510    4.6110  -17.7520 C   0  0  0  0  0  0
   -0.0980    3.9070  -18.5740 O   0  0  0  0  0  0
   -0.8100    2.8730  -17.8960 C   0  0  0  0  0  0
    3.6520    1.0560  -19.2750 C   0  0  1  0  0  0
    5.8200    1.6400  -18.0950 C   0  0  0  0  0  0
    5.5060    3.1400  -18.0830 C   0  0  0  0  0  0
    3.0630    0.6460  -20.6320 C   0  0  0  0  0  0
    3.4200   -0.8190  -20.9370 C   0  0  0  0  0  0
    4.9140   -1.0980  -20.7630 C   0  0  1  0  0  0
    5.2380   -2.5660  -20.5550 C   0  0  2  0  0  0
    5.6410   -0.4890  -21.9720 C   0  0  0  0  0  0
    5.3860   -0.5510  -19.4160 C   0  0  1  0  0  0
    6.7480   -1.1950  -19.1610 C   0  0  0  0  0  0
    6.6160   -2.5720  -19.8730 C   0  0  0  0  0  0
    5.1760    0.9620  -19.3030 C   0  0  1  0  0  0
    5.2270   -3.2950  -21.7860 O   0  0  0  0  0  0
    1.1393    1.8330  -19.3139 H   0  0  0  0  0  0
    0.7258    9.4804  -17.5666 H   0  0  0  0  0  0
    4.0990    5.3572  -17.3164 H   0  0  0  0  0  0
   -1.8914    3.0242  -18.0294 H   0  0  0  0  0  0
   -0.5653    2.9015  -16.8239 H   0  0  0  0  0  0
   -0.5222    1.8962  -18.3120 H   0  0  0  0  0  0
    3.2909    0.3674  -18.4969 H   0  0  0  0  0  0
    6.9091    1.4938  -18.1445 H   0  0  0  0  0  0
    5.4292    1.1762  -17.1773 H   0  0  0  0  0  0
    6.0244    3.6096  -18.9319 H   0  0  0  0  0  0
    5.8837    3.5658  -17.1417 H   0  0  0  0  0  0
    1.9687    0.7545  -20.6046 H   0  0  0  0  0  0
    3.4758    1.2917  -21.4211 H   0  0  0  0  0  0
    2.8671   -1.4809  -20.2542 H   0  0  0  0  0  0
    3.1474   -1.0541  -21.9764 H   0  0  0  0  0  0
    4.4642   -3.1098  -19.9934 H   0  0  0  0  0  0
    5.2465   -0.9320  -22.8984 H   0  0  0  0  0  0
    6.7183   -0.6979  -21.8954 H   0  0  0  0  0  0
    5.4786    0.5988  -21.9877 H   0  0  0  0  0  0
    4.7802   -0.8379  -18.5438 H   0  0  0  0  0  0
    7.5383   -0.5658  -19.5963 H   0  0  0  0  0  0
    6.9111   -1.2911  -18.0774 H   0  0  0  0  0  0
    6.6636   -3.3995  -19.1498 H   0  0  0  0  0  0
    7.4006   -2.7034  -20.6327 H   0  0  0  0  0  0
    5.6663    1.5043  -20.1249 H   0  0  0  0  0  0
    4.3001   -3.3678  -22.3739 H   0  0  0  0  0  0
    2.1763    8.6598  -16.8962 H   0  0  0  0  0  0
  1  4  2  0  0  0
  1  9  1  0  0  0
  1 11  1  0  0  0
  2  7  2  0  0  0
  3  7  2  0  0  0
  4  5  1  0  0  0
  4 12  1  0  0  0
  5  6  2  0  0  0
  5 27  1  0  0  0
  6 10  1  0  0  0
  6 14  1  0  0  0
  7  8  1  0  0  0
  7  9  1  0  0  0
  8 28  1  0  0  0
  8 53  1  0  0  0
 10 11  2  0  0  0
 10 16  1  0  0  0
 11 29  1  0  0  0
 12 13  1  0  0  0
 13 30  1  0  0  0
 13 31  1  0  0  0
 13 32  1  0  0  0
 14 17  1  0  0  0
 14 25  1  0  0  0
 14 33  1  0  0  0
 15 16  1  0  0  0
 15 25  1  0  0  0
 15 34  1  0  0  0
 15 35  1  0  0  0
 16 36  1  0  0  0
 16 37  1  0  0  0
 17 18  1  0  0  0
 17 38  1  0  0  0
 17 39  1  0  0  0
 18 19  1  0  0  0
 18 40  1  0  0  0
 18 41  1  0  0  0
 19 20  1  0  0  0
 19 21  1  0  0  0
 19 22  1  0  0  0
 20 24  1  0  0  0
 20 26  1  0  0  0
 20 42  1  0  0  0
 21 43  1  0  0  0
 21 44  1  0  0  0
 21 45  1  0  0  0
 22 23  1  0  0  0
 22 25  1  0  0  0
 22 46  1  0  0  0
 23 24  1  0  0  0
 23 47  1  0  0  0
 23 48  1  0  0  0
 24 49  1  0  0  0
 24 50  1  0  0  0
 25 51  1  0  0  0
 26 52  1  0  0  0
M  END
> <i_m_stars>
0

> <s_m_entry_id>
100

> <s_m_entry_name>
Structure100

> <s_m_Source_Path>
/disk1/aquila/PDBbind2020/fail/2x7u

> <s_m_Source_File>
2x7u_protein.pdb

> <i_m_Source_File_Index>
1

> <s_pdb_PDB_TITLE>
2x7u_protein

> <i_pdb_PDB_Model>
1

> <s_pdb_PDB_format_version>
3.0

> <s_ppw_entry_id_backup>
98

> <b_ppw_prepared>
1

> <s_ppw_prepared_with_version>
2020-2

> <b_ppw_assigned_bond_orders>
1

> <b_ppw_added_hydrogens>
1

> <b_ppw_treated_metals>
1

> <s_ppw_het_states>
eJztVT1PwzAQ/SuWV9rgs+O7pN2YWBgQY9UhKp1IUyTCgKr+d/xR+ogFYuqA1EiVXl99987v+pSDJr1Qq/BY481M2fV6plbhY6rw7XA8Af00duNWvW6Hrh8/FpE06mXT9be7fb9U9/O7/fCsNvv3YQw/LtXjQt1YHXtpi/50if4O/W3oFtsH6ABrQA/IgALYALZnyAaQAKHGUGOoMdQYagw1hhpDTaAmUBOoCdQEagI1gZoktYhP/mQT7OmOiYjXowlhQbhU0qCkLgmfCEZJIqIlBKuzyxaGZytpQngQTSppC+LbpLE6T2onhOBEGj3ug7CPbPqEEIzOXPbg8kSeA4NFmHdGWF/e3JSwJQGDJI0uviQwh6S7SF0SGExq9MjpcsbngFHVcut/zJj7NWOUMmZ0+utcIlvzLwOv4bqG63+Fy1bUuNDloKONOiapttSEqLWVaz2Z8xMO6Yft2PXqrcxebf/I3pzC++34Cdhxpx0=

> <b_ppw_created_disulfur>
1

> <s_m_source_file>
../2x7u_ligand.sdf

> <i_m_source_file_index>
1

> <s_epik_input>
Tz1TKD1PKShbTkgtXSlPYyhjKFtjSF0xKU9bQ0gzXSlbY0hdYyhbQ0gyXVtDSDJdMiljMVtDQEBIXShbQ0gyXVtDSDJdMylbQ0BASF0yW0NAQEhdKFtDQF0zNFtDSDNdKVtDSDJdW0NIMl1bQ0BASF00W09IXQ==

> <s_epik_cmdline>
J2VwaWtfYXBwJywgJy1pbWFlJywgJ2xpZ2FuZF9wcm8ubWFlJywgJy1vbWFlJywgJ2xpZ2FuZF9wcmVwLm1hZScsICctbXMnLCAnMScsICctcGgnLCAnNycsICctcGh0JywgJzAuNScsICctbnQn

> <r_epik_Ionization_Penalty>
  0.0194

> <r_epik_Ionization_Penalty_Charging>
  0.0000

> <r_epik_Ionization_Penalty_Neutral>
  0.0194

> <r_epik_State_Penalty>
  0.0155

> <r_epik_Charging_Adjusted_Penalty>
0.0154584674361411

> <i_epik_Tot_Q>
0

> <i_epik_Tot_abs_Q>
0

$$$$
