2x81_ligand
                    3D
 Schrodinger Suite 2020-3.
 48 52  0  0  1  0            999 V2000
    4.6920  -28.6780   -9.0680 C   0  0  0  0  0  0
    6.5130  -28.2690   -7.3510 C   0  0  0  0  0  0
    8.5990  -29.0370   -6.3780 C   0  0  0  0  0  0
   10.6650  -27.8530   -6.7940 C   0  0  0  0  0  0
    9.9760  -26.9400   -7.5900 C   0  0  0  0  0  0
    8.6010  -27.0700   -7.7800 C   0  0  0  0  0  0
    5.6650  -28.2580   -6.2310 C   0  0  0  0  0  0
    5.2700  -27.2390   -4.0920 C   0  0  0  0  0  0
    4.1490  -28.0390   -3.8920 C   0  0  0  0  0  0
   -0.5150  -34.6770   -1.3120 O   0  5  0  0  0  0
    0.6910  -34.3820   -1.4410 C   0  0  0  0  0  0
    1.5030  -34.3410   -0.4950 O   0  0  0  0  0  0
    1.1870  -34.0380   -2.8490 C   0  0  0  0  0  0
    2.2200  -33.1200   -3.0390 C   0  0  0  0  0  0
    2.6530  -32.8120   -4.3280 C   0  0  0  0  0  0
    2.0470  -33.4100   -5.4370 C   0  0  0  0  0  0
    2.4290  -33.1690   -6.7010 N   0  0  0  0  0  0
    2.9880  -32.0550   -7.1910 C   0  0  0  0  0  0
    3.0360  -31.9220   -8.5340 N   0  0  0  0  0  0
    3.5720  -30.8570   -9.1120 C   0  0  0  0  0  0
    4.0930  -29.8590   -8.3020 C   0  0  0  0  0  0
    6.0790  -28.4640   -8.6030 N   0  0  0  0  0  0
    7.8970  -28.1220   -7.1720 C   0  0  0  0  0  0
    7.9540  -30.0570   -5.7800 F   0  0  0  0  0  0
    9.9740  -28.8990   -6.1890 C   0  0  0  0  0  0
    7.9700  -26.1630   -8.5550 F   0  0  0  0  0  0
    6.0350  -27.3380   -5.2530 C   0  0  0  0  0  0
    5.7160  -26.0990   -2.8800 Cl  0  0  0  0  0  0
    3.7750  -28.9560   -4.8670 C   0  0  0  0  0  0
    4.5440  -29.0670   -6.0260 C   0  0  0  0  0  0
    4.0540  -30.0060   -6.9280 C   0  0  0  0  0  0
    3.4990  -31.1010   -6.3880 N   0  0  0  0  0  0
    1.0160  -34.3260   -5.2350 C   0  0  0  0  0  0
    0.5850  -34.6390   -3.9500 C   0  0  0  0  0  0
    4.6898  -28.9006  -10.1452 H   0  0  0  0  0  0
    4.0917  -27.7759   -8.8788 H   0  0  0  0  0  0
   11.7398  -27.7486   -6.6458 H   0  0  0  0  0  0
   10.5145  -26.1206   -8.0662 H   0  0  0  0  0  0
    3.5671  -27.9468   -2.9750 H   0  0  0  0  0  0
    2.6893  -32.6429   -2.1786 H   0  0  0  0  0  0
    3.4674  -32.1020   -4.4717 H   0  0  0  0  0  0
    2.2926  -33.9403   -7.4733 H   0  0  0  0  0  0
    3.6027  -30.7674  -10.1979 H   0  0  0  0  0  0
   10.5101  -29.6137   -5.5645 H   0  0  0  0  0  0
    6.9106  -26.7042   -5.3935 H   0  0  0  0  0  0
    2.8924  -29.5804   -4.7281 H   0  0  0  0  0  0
    0.5423  -34.8023   -6.0934 H   0  0  0  0  0  0
   -0.2241  -35.3549   -3.8057 H   0  0  0  0  0  0
  1 21  1  0  0  0
  1 22  1  0  0  0
  1 35  1  0  0  0
  1 36  1  0  0  0
  2  7  1  0  0  0
  2 22  2  0  0  0
  2 23  1  0  0  0
  3 23  2  0  0  0
  3 24  1  0  0  0
  3 25  1  0  0  0
  4  5  1  0  0  0
  4 25  2  0  0  0
  4 37  1  0  0  0
  5  6  2  0  0  0
  5 38  1  0  0  0
  6 23  1  0  0  0
  6 26  1  0  0  0
  7 27  2  0  0  0
  7 30  1  0  0  0
  8  9  2  0  0  0
  8 27  1  0  0  0
  8 28  1  0  0  0
  9 29  1  0  0  0
  9 39  1  0  0  0
 10 11  1  0  0  0
 11 12  2  0  0  0
 11 13  1  0  0  0
 13 14  2  0  0  0
 13 34  1  0  0  0
 14 15  1  0  0  0
 14 40  1  0  0  0
 15 16  2  0  0  0
 15 41  1  0  0  0
 16 17  1  0  0  0
 16 33  1  0  0  0
 17 18  1  0  0  0
 17 42  1  0  0  0
 18 19  2  0  0  0
 18 32  1  0  0  0
 19 20  1  0  0  0
 20 21  2  0  0  0
 20 43  1  0  0  0
 21 31  1  0  0  0
 25 44  1  0  0  0
 27 45  1  0  0  0
 29 30  2  0  0  0
 29 46  1  0  0  0
 30 31  1  0  0  0
 31 32  2  0  0  0
 33 34  2  0  0  0
 33 47  1  0  0  0
 34 48  1  0  0  0
M  CHG  1  10  -1
M  END
> <s_m_source_file>
../2x81_ligand.sdf

> <i_m_source_file_index>
1

> <s_epik_input>
W2NIXTFbY0hdW2NIXWMoRiljKGMxRilDMj1OW0NIMl1jKGMzYyhjMjQpW2NIXVtjSF1jKENsKVtjSF00KVtjSF1uYyhuMylbTkhdYyhbY0hdW2NIXTUpW2NIXVtjSF1jNUMoPU8pW09IXQ==

> <s_epik_cmdline>
J2VwaWtfYXBwJywgJy1pbWFlJywgJ2xpZ2FuZF9wcm8ubWFlJywgJy1vbWFlJywgJ2xpZ2FuZF9wcmVwLm1hZScsICctbXMnLCAnMScsICctcGgnLCAnNycsICctcGh0JywgJzAuNScsICctbnQn

> <r_lp_tautomer_probability>
0.999999987636

> <r_epik_Ionization_Penalty>
  0.1927

> <r_epik_Ionization_Penalty_Charging>
  0.0024

> <r_epik_Ionization_Penalty_Neutral>
  0.1903

> <r_epik_State_Penalty>
  0.1798

> <r_epik_Charging_Adjusted_Penalty>
0.18212240011735

> <i_epik_Tot_Q>
-1

> <i_epik_Tot_abs_Q>
1

> <s_epik_Chemistry_Notes>
This compound has an imine and may undergo hydrolysis.

$$$$
