2x85_ligand
                    3D
 Schrodinger Suite 2020-3.
140145  0  0  1  0            999 V2000
  -11.5190  -13.3140   28.3840 C   0  0  1  0  0  0
  -11.0950  -12.6110   27.1000 C   0  0  1  0  0  0
  -10.4050  -13.5750   26.1460 C   0  0  1  0  0  0
  -11.2160  -14.8530   25.9780 C   0  0  2  0  0  0
  -11.5610  -15.4550   27.3480 C   0  0  2  0  0  0
  -12.4120  -16.7120   27.2280 C   0  0  0  0  0  0
  -12.2710  -12.1340   26.4980 O   0  0  0  0  0  0
  -10.2710  -12.9490   24.8870 O   0  0  0  0  0  0
  -10.5020  -15.7490   25.1400 O   0  0  0  0  0  0
  -12.2740  -14.4870   28.1220 O   0  0  0  0  0  0
   -7.9180  -12.6680   32.4050 C   0  0  2  0  0  0
   -8.1330  -11.1520   32.3640 C   0  0  1  0  0  0
   -9.6450  -10.9310   32.4200 C   0  0  2  0  0  0
  -10.3400  -11.7720   31.3500 C   0  0  1  0  0  0
   -9.9470  -13.2640   31.4500 C   0  0  1  0  0  0
  -10.5230  -14.1860   30.3850 C   0  0  0  0  0  0
   -7.4450  -10.4970   33.4140 O   0  0  0  0  0  0
   -9.9430   -9.5610   32.2390 O   0  0  0  0  0  0
  -11.7220  -11.6280   31.5060 O   0  0  0  0  0  0
   -8.5310  -13.3290   31.3140 O   0  0  0  0  0  0
  -10.3640  -13.6400   29.1480 O   0  0  0  0  0  0
   -7.5990  -14.8740   36.6170 C   0  0  2  0  0  0
   -8.8370  -15.0710   35.7650 C   0  0  1  0  0  0
   -8.4390  -15.5020   34.3530 C   0  0  2  0  0  0
   -7.3800  -14.6180   33.7050 C   0  0  2  0  0  0
   -6.3930  -14.3050   34.7240 C   0  0  1  0  0  0
   -5.1970  -13.3890   34.3780 C   0  0  0  0  0  0
   -9.6120  -16.0920   36.3410 O   0  0  0  0  0  0
   -9.6210  -15.5960   33.5830 O   0  0  0  0  0  0
   -7.7090  -13.3010   33.6670 O   0  0  0  0  0  0
   -6.7140  -13.9340   36.0780 O   0  0  0  0  0  0
   -4.8280  -13.7080   33.0690 O   0  0  0  0  0  0
  -10.0880  -16.8040   33.2190 C   0  0  1  0  0  0
  -11.5840  -16.8000   32.9070 C   0  0  1  0  0  0
  -12.0590  -18.1210   32.3070 C   0  0  2  0  0  0
  -11.0880  -18.7000   31.2910 C   0  0  1  0  0  0
   -9.6660  -18.6680   31.8570 C   0  0  1  0  0  0
   -8.6470  -19.2610   30.9040 C   0  0  0  0  0  0
  -13.0320  -15.4110   34.3400 C   0  0  0  0  0  0
  -13.6770  -15.2590   35.6910 C   0  0  0  0  0  0
  -12.2930  -16.5070   34.1460 N   0  0  0  0  0  0
  -13.2910  -17.9070   31.6510 O   0  0  0  0  0  0
  -11.5060  -20.0200   30.9670 O   0  0  0  0  0  0
   -9.3120  -17.3260   32.1620 O   0  0  0  0  0  0
   -8.6250  -18.4710   29.7440 O   0  0  0  0  0  0
  -13.1910  -14.5490   33.4760 O   0  0  0  0  0  0
   -4.0150  -16.9560   38.9170 C   0  0  2  0  0  0
   -4.8870  -16.9500   37.6670 C   0  0  1  0  0  0
   -6.1510  -16.1580   37.9780 C   0  0  2  0  0  0
   -6.9130  -16.8030   39.1250 C   0  0  1  0  0  0
   -5.9810  -17.0170   40.3190 C   0  0  1  0  0  0
   -6.6160  -17.9220   41.3520 C   0  0  0  0  0  0
   -3.9650  -16.9640   35.3740 C   0  0  0  0  0  0
   -3.0430  -16.2850   34.4090 C   0  0  0  0  0  0
   -4.0780  -16.4080   36.5900 N   0  0  0  0  0  0
   -2.7810  -17.6100   38.6740 O   0  0  0  0  0  0
   -6.9380  -16.1270   36.7860 O   0  0  0  0  0  0
   -7.9600  -15.9310   39.5010 O   0  0  0  0  0  0
   -4.7100  -17.5680   39.9870 O   0  0  0  0  0  0
   -6.1680  -17.5110   42.6250 O   0  0  0  0  0  0
   -4.5800  -17.9840   35.0360 O   0  0  0  0  0  0
   -6.7180  -16.5200   43.3440 C   0  0  2  0  0  0
   -5.9840  -16.1060   44.5990 C   0  0  1  0  0  0
   -5.9770  -17.2980   45.5570 C   0  0  2  0  0  0
   -7.4100  -17.7620   45.8270 C   0  0  1  0  0  0
   -8.1770  -17.9940   44.5300 C   0  0  1  0  0  0
   -9.6540  -18.3030   44.7540 C   0  0  0  0  0  0
   -4.6740  -15.6890   44.2520 O   0  0  0  0  0  0
   -5.3050  -16.9040   46.7420 O   0  0  0  0  0  0
   -7.3590  -18.9690   46.5500 O   0  0  0  0  0  0
   -8.0270  -16.8470   43.6950 O   0  0  0  0  0  0
  -10.2590  -17.3150   45.5320 O   0  0  0  0  0  0
  -12.1724  -12.6828   29.0041 H   0  0  0  0  0  0
  -10.4376  -11.7513   27.2965 H   0  0  0  0  0  0
   -9.3888  -13.8069   26.4976 H   0  0  0  0  0  0
  -12.1501  -14.6788   25.4239 H   0  0  0  0  0  0
  -10.6349  -15.6928   27.8919 H   0  0  0  0  0  0
  -11.8728  -17.4645   26.6338 H   0  0  0  0  0  0
  -13.3624  -16.4654   26.7321 H   0  0  0  0  0  0
  -12.6155  -17.1141   28.2314 H   0  0  0  0  0  0
  -12.9133  -11.4204   27.0349 H   0  0  0  0  0  0
   -9.7135  -12.0048   24.7988 H   0  0  0  0  0  0
  -10.1970  -15.4338   24.1312 H   0  0  0  0  0  0
   -6.9022  -13.0323   32.1917 H   0  0  0  0  0  0
   -7.6703  -10.6657   31.4925 H   0  0  0  0  0  0
  -10.0416  -11.1663   33.4187 H   0  0  0  0  0  0
  -10.1169  -11.3873   30.3439 H   0  0  0  0  0  0
  -10.2825  -13.6431   32.4266 H   0  0  0  0  0  0
  -10.0030  -15.1547   30.4185 H   0  0  0  0  0  0
  -11.5958  -14.3391   30.5738 H   0  0  0  0  0  0
   -6.3504  -10.5765   33.4880 H   0  0  0  0  0  0
   -9.5223   -8.8113   32.9253 H   0  0  0  0  0  0
  -12.1792  -10.6284   31.4629 H   0  0  0  0  0  0
   -7.8482  -14.4613   37.6057 H   0  0  0  0  0  0
   -9.4593  -14.1640   35.7534 H   0  0  0  0  0  0
   -8.0073  -16.5137   34.3580 H   0  0  0  0  0  0
   -7.1398  -15.0649   32.7290 H   0  0  0  0  0  0
   -6.2673  -15.3977   34.7363 H   0  0  0  0  0  0
   -5.5066  -12.3364   34.4565 H   0  0  0  0  0  0
   -4.3723  -13.5820   35.0799 H   0  0  0  0  0  0
  -10.0010  -15.9769   37.3635 H   0  0  0  0  0  0
   -3.9882  -13.1826   32.5907 H   0  0  0  0  0  0
   -9.8645  -17.4136   34.1069 H   0  0  0  0  0  0
  -11.8227  -16.0104   32.1793 H   0  0  0  0  0  0
  -12.2211  -18.8451   33.1190 H   0  0  0  0  0  0
  -11.1131  -18.1601   30.3330 H   0  0  0  0  0  0
   -9.6278  -19.2271   32.8036 H   0  0  0  0  0  0
   -7.6559  -19.2620   31.3812 H   0  0  0  0  0  0
   -8.9350  -20.2930   30.6548 H   0  0  0  0  0  0
  -13.4195  -16.1242   36.3196 H   0  0  0  0  0  0
  -14.7692  -15.2044   35.5718 H   0  0  0  0  0  0
  -13.3138  -14.3373   36.1691 H   0  0  0  0  0  0
  -12.2371  -17.2091   34.9909 H   0  0  0  0  0  0
  -14.1440  -17.4888   32.2055 H   0  0  0  0  0  0
  -12.5091  -20.1924   30.5497 H   0  0  0  0  0  0
   -7.9478  -18.7281   28.9162 H   0  0  0  0  0  0
   -3.7477  -15.9445   39.2566 H   0  0  0  0  0  0
   -5.1983  -17.9413   37.3057 H   0  0  0  0  0  0
   -5.9389  -15.1117   38.2429 H   0  0  0  0  0  0
   -7.3828  -17.7490   38.8179 H   0  0  0  0  0  0
   -5.7431  -16.0188   40.7152 H   0  0  0  0  0  0
   -7.7110  -17.8384   41.2891 H   0  0  0  0  0  0
   -6.3162  -18.9630   41.1613 H   0  0  0  0  0  0
   -2.5931  -15.4039   34.8899 H   0  0  0  0  0  0
   -3.6099  -15.9687   33.5210 H   0  0  0  0  0  0
   -2.2487  -16.9837   34.1073 H   0  0  0  0  0  0
   -3.5058  -15.4814   36.7447 H   0  0  0  0  0  0
   -2.1188  -17.2543   37.8709 H   0  0  0  0  0  0
   -8.7356  -15.6559   38.7711 H   0  0  0  0  0  0
   -6.6963  -15.7350   42.5737 H   0  0  0  0  0  0
   -6.4195  -15.2178   45.0801 H   0  0  0  0  0  0
   -5.3934  -18.1505   45.1794 H   0  0  0  0  0  0
   -7.9445  -17.0351   46.4562 H   0  0  0  0  0  0
   -7.7335  -18.8414   43.9867 H   0  0  0  0  0  0
  -10.1695  -18.3528   43.7835 H   0  0  0  0  0  0
   -9.7522  -19.2688   45.2713 H   0  0  0  0  0  0
   -4.5303  -14.8396   43.5680 H   0  0  0  0  0  0
   -4.2655  -16.5478   46.6922 H   0  0  0  0  0  0
   -6.8442  -19.0069   47.5214 H   0  0  0  0  0  0
  -11.3269  -17.3910   45.7847 H   0  0  0  0  0  0
  1  2  1  0  0  0
  1 10  1  0  0  0
  1 21  1  0  0  0
  1 73  1  0  0  0
  2  3  1  0  0  0
  2  7  1  0  0  0
  2 74  1  0  0  0
  3  4  1  0  0  0
  3  8  1  0  0  0
  3 75  1  0  0  0
  4  5  1  0  0  0
  4  9  1  0  0  0
  4 76  1  0  0  0
  5  6  1  0  0  0
  5 10  1  0  0  0
  5 77  1  0  0  0
  6 78  1  0  0  0
  6 79  1  0  0  0
  6 80  1  0  0  0
  7 81  1  0  0  0
  8 82  1  0  0  0
  9 83  1  0  0  0
 11 12  1  0  0  0
 11 20  1  0  0  0
 11 30  1  0  0  0
 11 84  1  0  0  0
 12 13  1  0  0  0
 12 17  1  0  0  0
 12 85  1  0  0  0
 13 14  1  0  0  0
 13 18  1  0  0  0
 13 86  1  0  0  0
 14 15  1  0  0  0
 14 19  1  0  0  0
 14 87  1  0  0  0
 15 16  1  0  0  0
 15 20  1  0  0  0
 15 88  1  0  0  0
 16 21  1  0  0  0
 16 89  1  0  0  0
 16 90  1  0  0  0
 17 91  1  0  0  0
 18 92  1  0  0  0
 19 93  1  0  0  0
 22 23  1  0  0  0
 22 31  1  0  0  0
 22 57  1  0  0  0
 22 94  1  0  0  0
 23 24  1  0  0  0
 23 28  1  0  0  0
 23 95  1  0  0  0
 24 25  1  0  0  0
 24 29  1  0  0  0
 24 96  1  0  0  0
 25 26  1  0  0  0
 25 30  1  0  0  0
 25 97  1  0  0  0
 26 27  1  0  0  0
 26 31  1  0  0  0
 26 98  1  0  0  0
 27 32  1  0  0  0
 27 99  1  0  0  0
 27100  1  0  0  0
 28101  1  0  0  0
 29 33  1  0  0  0
 32102  1  0  0  0
 33 34  1  0  0  0
 33 44  1  0  0  0
 33103  1  0  0  0
 34 35  1  0  0  0
 34 41  1  0  0  0
 34104  1  0  0  0
 35 36  1  0  0  0
 35 42  1  0  0  0
 35105  1  0  0  0
 36 37  1  0  0  0
 36 43  1  0  0  0
 36106  1  0  0  0
 37 38  1  0  0  0
 37 44  1  0  0  0
 37107  1  0  0  0
 38 45  1  0  0  0
 38108  1  0  0  0
 38109  1  0  0  0
 39 40  1  0  0  0
 39 41  1  0  0  0
 39 46  2  0  0  0
 40110  1  0  0  0
 40111  1  0  0  0
 40112  1  0  0  0
 41113  1  0  0  0
 42114  1  0  0  0
 43115  1  0  0  0
 45116  1  0  0  0
 47 48  1  0  0  0
 47 56  1  0  0  0
 47 59  1  0  0  0
 47117  1  0  0  0
 48 49  1  0  0  0
 48 55  1  0  0  0
 48118  1  0  0  0
 49 50  1  0  0  0
 49 57  1  0  0  0
 49119  1  0  0  0
 50 51  1  0  0  0
 50 58  1  0  0  0
 50120  1  0  0  0
 51 52  1  0  0  0
 51 59  1  0  0  0
 51121  1  0  0  0
 52 60  1  0  0  0
 52122  1  0  0  0
 52123  1  0  0  0
 53 54  1  0  0  0
 53 55  1  0  0  0
 53 61  2  0  0  0
 54124  1  0  0  0
 54125  1  0  0  0
 54126  1  0  0  0
 55127  1  0  0  0
 56128  1  0  0  0
 58129  1  0  0  0
 60 62  1  0  0  0
 62 63  1  0  0  0
 62 71  1  0  0  0
 62130  1  0  0  0
 63 64  1  0  0  0
 63 68  1  0  0  0
 63131  1  0  0  0
 64 65  1  0  0  0
 64 69  1  0  0  0
 64132  1  0  0  0
 65 66  1  0  0  0
 65 70  1  0  0  0
 65133  1  0  0  0
 66 67  1  0  0  0
 66 71  1  0  0  0
 66134  1  0  0  0
 67 72  1  0  0  0
 67135  1  0  0  0
 67136  1  0  0  0
 68137  1  0  0  0
 69138  1  0  0  0
 70139  1  0  0  0
 72140  1  0  0  0
M  END
> <s_m_source_file>
../2x85_ligand.sdf

> <i_m_source_file_index>
1

> <s_epik_input>
W0NIM11bQ0BIXShPMSlbQ0BIXShbT0hdKVtDQEBIXShbT0hdKVtDQEBIXShbT0hdKVtDQEBIXTFPW0NIMl1bQ0BASF0oTzIpW0NAQEhdKFtPSF0pW0NASF0oW09IXSlbQ0BASF0oW09IXSlbQ0BIXTJPW0NAQEhdKFtDQEhdKE8zKVtDSDJdW09IXSlbQ0BIXShPW0NASF00W0NASF0oW05IXUMoPU8pW0NIM10pW0NAQEhdKFtPSF0pW0NASF0oW09IXSlbQ0BIXShPNClbQ0gyXVtPSF0pW0NAQEhdKFtPSF0pW0NASF0zT1tDQEhdKFtDQEhdKFtDQEBIXTVbT0hdKVtOSF1DKD1PKVtDSDNdKVtDQEhdKFtPSF0pW0NASF0oTzUpW0NIMl1PW0NAQEhdNltDQEhdKFtPSF0pW0NAQEhdKFtPSF0pW0NASF0oW09IXSlbQ0BIXShPNilbQ0gyXVtPSF0=

> <s_epik_cmdline>
J2VwaWtfYXBwJywgJy1pbWFlJywgJ2xpZ2FuZF9wcm8ubWFlJywgJy1vbWFlJywgJ2xpZ2FuZF9wcmVwLm1hZScsICctbXMnLCAnMScsICctcGgnLCAnNycsICctcGh0JywgJzAuNScsICctbnQn

> <r_lp_tautomer_probability>
1

> <r_epik_Ionization_Penalty>
  0.0001

> <r_epik_Ionization_Penalty_Charging>
  0.0000

> <r_epik_Ionization_Penalty_Neutral>
  0.0001

> <r_epik_State_Penalty>
 -0.0000

> <r_epik_Charging_Adjusted_Penalty>
0

> <i_epik_Tot_Q>
0

> <i_epik_Tot_abs_Q>
0

> <s_epik_Chemistry_Notes>
This compound contains an acetal/aminal-like group ( X-CH(R)-Y where X, Y are N, S, or O) that may be acid/base labile, releasing an aldehyde.

$$$$
