2x8d_ligand
                    3D
 Schrodinger Suite 2020-3.
 25 27  0  0  1  0            999 V2000
    3.4390   -7.0760   17.0400 C   0  0  0  0  0  0
    4.7560   -6.6960   17.0540 C   0  0  0  0  0  0
    2.4910   -6.3010   17.6790 C   0  0  0  0  0  0
    5.1290   -5.5390   17.7070 C   0  0  0  0  0  0
    2.8500   -5.1390   18.3400 C   0  0  0  0  0  0
    4.1770   -4.7760   18.3490 C   0  0  0  0  0  0
    2.2300   -3.1990   19.6790 C   0  0  0  0  0  0
    1.8550   -4.3050   19.0270 C   0  0  0  0  0  0
    3.6690   -2.8450   19.6220 C   0  0  3  0  0  0
    5.8700   -2.8530   19.1750 C   0  0  0  0  0  0
    0.4360   -4.7280   19.0070 C   0  0  0  0  0  0
    4.1850   -1.7690   20.1450 N   0  0  3  0  0  0
    5.5300   -1.7480   19.8820 N   0  0  0  0  0  0
    4.5290   -3.5840   19.0180 N   0  0  0  0  0  0
    6.9340   -3.2650   18.7330 O   0  0  0  0  0  0
    3.1402   -7.9890   16.5250 H   0  0  0  0  0  0
    5.5063   -7.3059   16.5509 H   0  0  0  0  0  0
    1.4455   -6.6087   17.6626 H   0  0  0  0  0  0
    6.1740   -5.2290   17.7152 H   0  0  0  0  0  0
    1.4836   -2.6012   20.2226 H   0  0  0  0  0  0
    0.3378   -5.6544   18.4221 H   0  0  0  0  0  0
   -0.1758   -3.9376   18.5476 H   0  0  0  0  0  0
    0.0920   -4.9062   20.0365 H   0  0  0  0  0  0
    3.7237   -0.9508   20.7174 H   0  0  0  0  0  0
    6.1472   -0.9104   20.2390 H   0  0  0  0  0  0
  1  2  2  0  0  0
  1  3  1  0  0  0
  1 16  1  0  0  0
  2  4  1  0  0  0
  2 17  1  0  0  0
  3  5  2  0  0  0
  3 18  1  0  0  0
  4  6  2  0  0  0
  4 19  1  0  0  0
  5  6  1  0  0  0
  5  8  1  0  0  0
  6 14  1  0  0  0
  7  8  2  0  0  0
  7  9  1  0  0  0
  7 20  1  0  0  0
  8 11  1  0  0  0
  9 12  1  0  0  0
  9 14  1  0  0  0
 10 13  1  0  0  0
 10 14  1  0  0  0
 10 15  2  0  0  0
 11 21  1  0  0  0
 11 22  1  0  0  0
 11 23  1  0  0  0
 12 13  1  0  0  0
 12 24  1  0  0  0
 13 25  1  0  0  0
M  END
> <s_m_source_file>
../2x8d_ligand.sdf

> <i_m_source_file_index>
1

> <s_epik_input>
W2NIXTFbY0hdW2NIXVtjSF1jKGMxMilOM1tDSF0oW0NIXT1DMltDSDNdKVtOSF1bTkhdQzM9Tw==

> <s_epik_cmdline>
J2VwaWtfYXBwJywgJy1pbWFlJywgJ2xpZ2FuZF9wcm8ubWFlJywgJy1vbWFlJywgJ2xpZ2FuZF9wcmVwLm1hZScsICctbXMnLCAnMScsICctcGgnLCAnNycsICctcGh0JywgJzAuNScsICctbnQn

> <r_lp_tautomer_probability>
1

> <r_epik_Ionization_Penalty>
  0.0001

> <r_epik_Ionization_Penalty_Charging>
  0.0000

> <r_epik_Ionization_Penalty_Neutral>
  0.0001

> <r_epik_State_Penalty>
 -0.0000

> <r_epik_Charging_Adjusted_Penalty>
0

> <i_epik_Tot_Q>
0

> <i_epik_Tot_abs_Q>
0

$$$$
