2x8e_ligand
                    3D
 Schrodinger Suite 2020-3.
 34 37  0  0  1  0            999 V2000
    1.5480   -5.1810   18.6410 C   0  0  0  0  0  0
    2.6590   -5.5920   17.9370 C   0  0  0  0  0  0
   -0.4970   -4.4670   20.5640 C   0  0  0  0  0  0
    0.3060   -2.2540   20.7060 C   0  0  0  0  0  0
    2.7850   -3.3640   19.5330 C   0  0  0  0  0  0
   -1.6260   -3.9600   21.3670 C   0  0  0  0  0  0
   -0.7300   -1.8750   21.4510 C   0  0  0  0  0  0
    1.5980   -4.0610   19.4480 C   0  0  0  0  0  0
    0.4490   -3.5910   20.2270 C   0  0  0  0  0  0
    3.8420   -4.8910   18.0220 C   0  0  0  0  0  0
    3.8890   -3.7770   18.8260 C   0  0  0  0  0  0
    6.1790   -4.6280   17.4340 C   0  0  0  0  0  0
    5.0360   -5.3070   17.2970 C   0  0  0  0  0  0
    6.1520   -3.4370   18.2940 C   0  0  3  0  0  0
    5.4970   -1.7890   19.6670 C   0  0  0  0  0  0
    4.9640   -6.5220   16.4520 C   0  0  0  0  0  0
   -1.6600   -2.6500   21.7850 N   0  0  0  0  0  0
    7.1660   -2.6530   18.4970 N   0  0  3  0  0  0
    6.8050   -1.6440   19.3400 N   0  0  0  0  0  0
    5.0940   -3.0730   18.9100 N   0  0  0  0  0  0
    4.7270   -1.1320   20.3510 O   0  0  0  0  0  0
    0.6194   -5.7460   18.5602 H   0  0  0  0  0  0
    2.6013   -6.4797   17.3072 H   0  0  0  0  0  0
   -0.4392   -5.5121   20.2598 H   0  0  0  0  0  0
    1.0704   -1.5191   20.4534 H   0  0  0  0  0  0
    2.8481   -2.4787   20.1658 H   0  0  0  0  0  0
   -2.4427   -4.6314   21.6321 H   0  0  0  0  0  0
   -0.7733   -0.8394   21.7883 H   0  0  0  0  0  0
    7.0866   -4.9682   16.9139 H   0  0  0  0  0  0
    3.9407   -6.9249   16.4756 H   0  0  0  0  0  0
    5.6647   -7.2779   16.8363 H   0  0  0  0  0  0
    5.2332   -6.2651   15.4168 H   0  0  0  0  0  0
    8.1925   -2.7010   18.1045 H   0  0  0  0  0  0
    7.5444   -0.8867   19.6398 H   0  0  0  0  0  0
  1  2  2  0  0  0
  1  8  1  0  0  0
  1 22  1  0  0  0
  2 10  1  0  0  0
  2 23  1  0  0  0
  3  6  2  0  0  0
  3  9  1  0  0  0
  3 24  1  0  0  0
  4  7  1  0  0  0
  4  9  2  0  0  0
  4 25  1  0  0  0
  5  8  2  0  0  0
  5 11  1  0  0  0
  5 26  1  0  0  0
  6 17  1  0  0  0
  6 27  1  0  0  0
  7 17  2  0  0  0
  7 28  1  0  0  0
  8  9  1  0  0  0
 10 11  2  0  0  0
 10 13  1  0  0  0
 11 20  1  0  0  0
 12 13  2  0  0  0
 12 14  1  0  0  0
 12 29  1  0  0  0
 13 16  1  0  0  0
 14 18  1  0  0  0
 14 20  1  0  0  0
 15 19  1  0  0  0
 15 20  1  0  0  0
 15 21  2  0  0  0
 16 30  1  0  0  0
 16 31  1  0  0  0
 16 32  1  0  0  0
 18 19  1  0  0  0
 18 33  1  0  0  0
 19 34  1  0  0  0
M  END
> <s_m_source_file>
../2x8e_ligand.sdf

> <i_m_source_file_index>
1

> <s_epik_input>
W2NIXTFbY0hdbltjSF1bY0hdYzEtYyhbY0hdW2NIXTIpW2NIXWMoYzIzKU40W0NIXShbQ0hdPUMzW0NIM10pW05IXVtOSF1DND1P

> <s_epik_cmdline>
J2VwaWtfYXBwJywgJy1pbWFlJywgJ2xpZ2FuZF9wcm8ubWFlJywgJy1vbWFlJywgJ2xpZ2FuZF9wcmVwLm1hZScsICctbXMnLCAnMScsICctcGgnLCAnNycsICctcGh0JywgJzAuNScsICctbnQn

> <r_lp_tautomer_probability>
1

> <r_epik_Ionization_Penalty>
  0.0055

> <r_epik_Ionization_Penalty_Charging>
  0.0000

> <r_epik_Ionization_Penalty_Neutral>
  0.0055

> <r_epik_State_Penalty>
 -0.0000

> <r_epik_Charging_Adjusted_Penalty>
0

> <i_epik_Tot_Q>
0

> <i_epik_Tot_abs_Q>
0

$$$$
