2x8i_ligand
                    3D
 Schrodinger Suite 2020-3.
 36 39  0  0  1  0            999 V2000
    5.7500   -7.8680   38.1250 C   0  0  0  0  0  0
    5.4030   -6.9260   39.0690 C   0  0  0  0  0  0
    5.2900   -4.5210   40.7990 C   0  0  0  0  0  0
    4.9810   -3.5660   41.7390 C   0  0  0  0  0  0
    5.5700   -7.6100   36.7850 C   0  0  0  0  0  0
    3.3710   -3.9220   39.5430 C   0  0  0  0  0  0
    4.6890   -5.4510   37.3540 C   0  0  0  0  0  0
    4.4950   -4.7130   39.6910 C   0  0  0  0  0  0
    4.8630   -5.7080   38.7000 C   0  0  0  0  0  0
    3.0470   -2.9550   40.4770 C   0  0  0  0  0  0
    3.8610   -2.7870   41.5730 C   0  0  0  0  0  0
    5.0390   -6.3970   36.4140 C   0  0  0  0  0  0
    1.5940   -1.1570   41.2300 C   0  0  0  0  0  0
    1.8680   -2.1040   40.3240 C   0  0  0  0  0  0
    2.5210   -1.0130   42.3640 C   0  0  3  0  0  0
    4.2330   -1.3090   43.7860 C   0  0  0  0  0  0
    0.9850   -2.3180   39.1440 C   0  0  0  0  0  0
    2.4060   -0.1200   43.3100 N   0  0  3  0  0  0
    3.4450   -0.2750   44.1910 N   0  0  0  0  0  0
    3.5310   -1.7880   42.5020 N   0  0  0  0  0  0
    5.2470   -1.8320   44.2280 O   0  0  0  0  0  0
    4.8530   -6.1260   35.0750 O   0  0  0  0  0  0
    6.1695   -8.8230   38.4413 H   0  0  0  0  0  0
    5.5570   -7.1451   40.1256 H   0  0  0  0  0  0
    6.1795   -5.1366   40.9332 H   0  0  0  0  0  0
    5.6207   -3.4277   42.6107 H   0  0  0  0  0  0
    5.8426   -8.3514   36.0339 H   0  0  0  0  0  0
    2.7282   -4.0631   38.6741 H   0  0  0  0  0  0
    4.2730   -4.4958   37.0335 H   0  0  0  0  0  0
    0.7035   -0.5224   41.1102 H   0  0  0  0  0  0
    1.3863   -3.1374   38.5296 H   0  0  0  0  0  0
    0.9441   -1.3965   38.5448 H   0  0  0  0  0  0
   -0.0275   -2.5782   39.4861 H   0  0  0  0  0  0
    1.6556    0.6666   43.4775 H   0  0  0  0  0  0
    3.5323    0.3920   45.0613 H   0  0  0  0  0  0
    5.1296   -6.8753   34.3186 H   0  0  0  0  0  0
  1  2  2  0  0  0
  1  5  1  0  0  0
  1 23  1  0  0  0
  2  9  1  0  0  0
  2 24  1  0  0  0
  3  4  2  0  0  0
  3  8  1  0  0  0
  3 25  1  0  0  0
  4 11  1  0  0  0
  4 26  1  0  0  0
  5 12  2  0  0  0
  5 27  1  0  0  0
  6  8  2  0  0  0
  6 10  1  0  0  0
  6 28  1  0  0  0
  7  9  2  0  0  0
  7 12  1  0  0  0
  7 29  1  0  0  0
  8  9  1  0  0  0
 10 11  2  0  0  0
 10 14  1  0  0  0
 11 20  1  0  0  0
 12 22  1  0  0  0
 13 14  2  0  0  0
 13 15  1  0  0  0
 13 30  1  0  0  0
 14 17  1  0  0  0
 15 18  1  0  0  0
 15 20  1  0  0  0
 16 19  1  0  0  0
 16 20  1  0  0  0
 16 21  2  0  0  0
 17 31  1  0  0  0
 17 32  1  0  0  0
 17 33  1  0  0  0
 18 19  1  0  0  0
 18 34  1  0  0  0
 19 35  1  0  0  0
 22 36  1  0  0  0
M  END
> <s_m_source_file>
../2x8i_ligand.sdf

> <i_m_source_file_index>
1

> <s_epik_input>
W2NIXTFjKFtPSF0pW2NIXVtjSF1bY0hdYzEtYyhbY0hdMilbY0hdW2NIXWMoYzIzKU40W0NIXShbQ0hdPUMzW0NIM10pW05IXVtOSF1DND1P

> <s_epik_cmdline>
J2VwaWtfYXBwJywgJy1pbWFlJywgJ2xpZ2FuZF9wcm8ubWFlJywgJy1vbWFlJywgJ2xpZ2FuZF9wcmVwLm1hZScsICctbXMnLCAnMScsICctcGgnLCAnNycsICctcGh0JywgJzAuNScsICctbnQn

> <r_lp_tautomer_probability>
1

> <r_epik_Ionization_Penalty>
  0.0015

> <r_epik_Ionization_Penalty_Charging>
  0.0000

> <r_epik_Ionization_Penalty_Neutral>
  0.0015

> <r_epik_State_Penalty>
 -0.0000

> <r_epik_Charging_Adjusted_Penalty>
0

> <i_epik_Tot_Q>
0

> <i_epik_Tot_abs_Q>
0

$$$$
