2x91_ligand
                    3D
 Schrodinger Suite 2020-3.
 60 61  0  0  1  0            999 V2000
   29.7170   -3.0590   43.2660 O   0  0  0  0  0  0
   27.6470   -1.4010   46.8380 O   0  0  0  0  0  0
   25.7080   -1.5690   45.8300 O   0  5  0  0  0  0
   30.9370   -5.8120   42.5300 O   0  0  0  0  0  0
   32.6950   -4.6030   43.0570 O   0  5  0  0  0  0
   27.2260   -2.2050   43.5020 N   0  3  0  0  0  0
   29.5760   -4.7520   44.7620 N   0  0  0  0  0  0
   27.5510   -7.4620   38.8350 N   0  3  0  0  0  0
   28.9880   -3.8170   43.9850 C   0  0  0  0  0  0
   27.4320   -3.6340   43.9290 C   0  0  2  0  0  0
   26.9530   -1.3680   45.8110 C   0  0  0  0  0  0
   27.6030   -1.0720   44.4550 C   0  0  2  0  0  0
   31.0830   -4.8930   44.7430 C   0  0  1  0  0  0
   31.2840   -6.1180   45.6500 C   0  0  0  0  0  0
   30.1550   -6.2620   46.4070 C   0  0  0  0  0  0
   28.9680   -5.7550   45.6810 C   0  0  0  0  0  0
   31.5740   -5.1700   43.3080 C   0  0  0  0  0  0
   26.9060   -4.6770   42.9770 C   0  0  0  0  0  0
   27.5120   -4.7990   41.6610 C   0  0  0  0  0  0
   26.9470   -5.9390   40.6730 C   0  0  0  0  0  0
   28.0000   -6.3890   39.7950 C   0  0  0  0  0  0
   27.2030    0.3170   43.8640 C   0  0  0  0  0  0
   27.8870    1.4460   44.6210 C   0  0  0  0  0  0
   27.5990    2.8670   44.2280 C   0  0  0  0  0  0
   28.1750    3.9280   44.9920 C   0  0  0  0  0  0
   27.9260    5.2860   44.6480 C   0  0  0  0  0  0
   27.0840    5.5930   43.5280 C   0  0  0  0  0  0
   26.4990    4.5380   42.7600 C   0  0  0  0  0  0
   26.7580    3.1800   43.1080 C   0  0  0  0  0  0
   27.8169   -2.0042   42.5962 H   0  0  0  0  0  0
   26.1601   -2.0359   43.2893 H   0  0  0  0  0  0
   28.3960   -7.7601   38.1969 H   0  0  0  0  0  0
   26.7359   -7.0739   38.2065 H   0  0  0  0  0  0
   27.1936   -8.3346   39.4015 H   0  0  0  0  0  0
   26.8553   -3.7761   44.8549 H   0  0  0  0  0  0
   28.6932   -1.0414   44.5986 H   0  0  0  0  0  0
   31.6211   -3.9944   45.0791 H   0  0  0  0  0  0
   31.4456   -7.0114   45.0290 H   0  0  0  0  0  0
   32.1601   -5.9567   46.2953 H   0  0  0  0  0  0
   30.0018   -7.3265   46.6381 H   0  0  0  0  0  0
   30.2668   -5.6959   47.3435 H   0  0  0  0  0  0
   28.2401   -5.2565   46.3380 H   0  0  0  0  0  0
   28.4582   -6.5311   45.0912 H   0  0  0  0  0  0
   27.0195   -5.6744   43.4267 H   0  0  0  0  0  0
   25.8420   -4.4851   42.7742 H   0  0  0  0  0  0
   27.3864   -3.8549   41.1106 H   0  0  0  0  0  0
   28.5840   -5.0200   41.7700 H   0  0  0  0  0  0
   26.5794   -6.7892   41.2664 H   0  0  0  0  0  0
   26.1226   -5.5277   40.0720 H   0  0  0  0  0  0
   28.8151   -6.7771   40.4235 H   0  0  0  0  0  0
   28.3574   -5.5164   39.2286 H   0  0  0  0  0  0
   27.5042    0.3663   42.8072 H   0  0  0  0  0  0
   26.1136    0.4484   43.9412 H   0  0  0  0  0  0
   27.6121    1.3934   45.6848 H   0  0  0  0  0  0
   28.9778    1.3478   44.5189 H   0  0  0  0  0  0
   28.8109    3.6951   45.8461 H   0  0  0  0  0  0
   28.3732    6.0896   45.2331 H   0  0  0  0  0  0
   26.8898    6.6320   43.2619 H   0  0  0  0  0  0
   25.8568    4.7716   41.9108 H   0  0  0  0  0  0
   26.3152    2.3756   42.5207 H   0  0  0  0  0  0
  1  9  2  0  0  0
  2 11  2  0  0  0
  3 11  1  0  0  0
  4 17  2  0  0  0
  5 17  1  0  0  0
  6 10  1  0  0  0
  6 12  1  0  0  0
  6 30  1  0  0  0
  6 31  1  0  0  0
  7  9  1  0  0  0
  7 13  1  0  0  0
  7 16  1  0  0  0
  8 21  1  0  0  0
  8 32  1  0  0  0
  8 33  1  0  0  0
  8 34  1  0  0  0
  9 10  1  0  0  0
 10 18  1  0  0  0
 10 35  1  0  0  0
 11 12  1  0  0  0
 12 22  1  0  0  0
 12 36  1  0  0  0
 13 14  1  0  0  0
 13 17  1  0  0  0
 13 37  1  0  0  0
 14 15  1  0  0  0
 14 38  1  0  0  0
 14 39  1  0  0  0
 15 16  1  0  0  0
 15 40  1  0  0  0
 15 41  1  0  0  0
 16 42  1  0  0  0
 16 43  1  0  0  0
 18 19  1  0  0  0
 18 44  1  0  0  0
 18 45  1  0  0  0
 19 20  1  0  0  0
 19 46  1  0  0  0
 19 47  1  0  0  0
 20 21  1  0  0  0
 20 48  1  0  0  0
 20 49  1  0  0  0
 21 50  1  0  0  0
 21 51  1  0  0  0
 22 23  1  0  0  0
 22 52  1  0  0  0
 22 53  1  0  0  0
 23 24  1  0  0  0
 23 54  1  0  0  0
 23 55  1  0  0  0
 24 25  2  0  0  0
 24 29  1  0  0  0
 25 26  1  0  0  0
 25 56  1  0  0  0
 26 27  2  0  0  0
 26 57  1  0  0  0
 27 28  1  0  0  0
 27 58  1  0  0  0
 28 29  2  0  0  0
 28 59  1  0  0  0
 29 60  1  0  0  0
M  CHG  4   3  -1   5  -1   6   1   8   1
M  END
> <s_m_source_file>
../2x91_ligand.sdf

> <i_m_source_file_index>
1

> <s_epik_input>
W0NIMl0xW0NIMl1bQ0gyXVtDQEBIXShDKD1PKVtPSF0pTjFDKD1PKVtDQEhdKFtDSDJdW0NIMl1bQ0gyXVtDSDJdW05IMytdKVtOSDIrXVtDQEhdKEMoPU8pW09IXSlbQ0gyXVtDSDJdYzJbY0hdW2NIXVtjSF1bY0hdW2NIXTI=

> <s_epik_cmdline>
J2VwaWtfYXBwJywgJy1pbWFlJywgJ2xpZ2FuZF9wcm8ubWFlJywgJy1vbWFlJywgJ2xpZ2FuZF9wcmVwLm1hZScsICctbXMnLCAnMScsICctcGgnLCAnNycsICctcGh0JywgJzAuNScsICctbnQn

> <r_epik_Ionization_Penalty>
  0.1334

> <r_epik_Ionization_Penalty_Charging>
  0.1334

> <r_epik_Ionization_Penalty_Neutral>
  0.0000

> <r_epik_State_Penalty>
  0.1219

> <r_epik_Charging_Adjusted_Penalty>
0.255282877585445

> <i_epik_Tot_Q>
0

> <i_epik_Tot_abs_Q>
4

$$$$
