2x9e_ligand
                    3D
 Schrodinger Suite 2020-3.
 89 94  0  0  1  0            999 V2000
  -10.4810   24.7490   -2.5080 C   0  0  0  0  0  0
   -9.6860   25.9970   -1.9600 C   0  0  0  0  0  0
   -9.7410   23.4610   -2.3160 C   0  0  0  0  0  0
   -8.5820   23.3520   -1.7090 C   0  0  0  0  0  0
   -8.2170   21.9930   -1.7640 N   0  0  0  0  0  0
   -9.1780   21.3010   -2.4090 N   0  0  0  0  0  0
  -10.0900   22.1250   -2.7490 C   0  0  0  0  0  0
  -11.2660   21.7010   -3.4480 C   0  0  0  0  0  0
  -11.5020   20.3890   -3.4540 N   0  0  0  0  0  0
  -12.0170   22.5010   -4.0260 O   0  0  0  0  0  0
   -7.0250   21.3890   -1.2290 C   0  0  0  0  0  0
   -7.8760   24.4600   -1.0910 C   0  0  0  0  0  0
   -8.3930   25.7030   -1.1690 C   0  0  0  0  0  0
   -7.6600   26.7790   -0.4960 C   0  0  0  0  0  0
   -6.5640   26.5100    0.1280 N   0  0  0  0  0  0
   -6.0460   25.1740    0.1800 C   0  0  0  0  0  0
   -6.6770   24.2350   -0.3940 N   0  0  0  0  0  0
   -4.8500   24.8510    0.8600 N   0  0  0  0  0  0
   -4.1950   23.5840    1.0170 C   0  0  0  0  0  0
   -2.9030   23.5540    0.6770 C   0  0  0  0  0  0
   -2.1120   22.2880    0.8310 C   0  0  0  0  0  0
   -2.6970   21.1770    1.3090 C   0  0  0  0  0  0
   -4.1360   21.1910    1.6730 C   0  0  0  0  0  0
   -4.8550   22.3420    1.5360 C   0  0  0  0  0  0
   -2.3710   24.7760    0.1820 O   0  0  0  0  0  0
   -1.8990   19.9850    1.4880 C   0  0  0  0  0  0
   -2.2270   18.8240    0.8970 N   0  0  0  0  0  0
   -0.9040   20.0690    2.2390 O   0  0  0  0  0  0
   -1.4690   17.6020    1.1610 C   0  0  2  0  0  0
   -1.8810   16.5010    0.1340 C   0  0  0  0  0  0
   -1.1720   15.1540    0.4740 C   0  0  0  0  0  0
   -1.4920   14.7500    1.8840 N   0  3  2  0  0  0
   -0.9930   15.7620    2.8750 C   0  0  0  0  0  0
   -1.7160   17.1110    2.6370 C   0  0  0  0  0  0
   -0.8790   13.4350    2.1750 C   0  0  0  0  0  0
   -1.1730   25.2770    0.7460 C   0  0  0  0  0  0
   -0.1010   24.7050    0.0800 F   0  0  0  0  0  0
   -1.1040   24.9590    2.0900 F   0  0  0  0  0  0
   -1.1120   26.6650    0.6320 F   0  0  0  0  0  0
  -12.6450   19.7810   -3.9960 C   0  0  0  0  0  0
  -12.5880   19.3760   -5.2920 C   0  0  0  0  0  0
  -13.7770   18.7300   -5.9050 C   0  0  0  0  0  0
  -14.9090   18.5470   -5.1850 C   0  0  0  0  0  0
  -14.9800   18.9820   -3.7770 C   0  0  0  0  0  0
  -13.9110   19.5770   -3.1810 C   0  0  0  0  0  0
  -13.9640   20.0370   -1.7070 C   0  0  0  0  0  0
  -15.3040   19.7770   -0.9860 C   0  0  0  0  0  0
  -11.2890   19.5950   -6.0800 C   0  0  0  0  0  0
  -11.3400   19.0990   -7.5280 C   0  0  0  0  0  0
  -11.4427   24.6664   -1.9804 H   0  0  0  0  0  0
  -10.6635   24.8748   -3.5854 H   0  0  0  0  0  0
   -9.3821   26.6366   -2.8018 H   0  0  0  0  0  0
  -10.3298   26.5709   -1.2772 H   0  0  0  0  0  0
  -10.7710   19.6967   -3.0109 H   0  0  0  0  0  0
   -6.4040   22.1623   -0.7531 H   0  0  0  0  0  0
   -6.4582   20.9130   -2.0427 H   0  0  0  0  0  0
   -7.3019   20.6302   -0.4823 H   0  0  0  0  0  0
   -8.0390   27.8006   -0.5228 H   0  0  0  0  0  0
   -4.2780   25.6392    1.3715 H   0  0  0  0  0  0
   -1.0580   22.2698    0.5538 H   0  0  0  0  0  0
   -4.6154   20.2866    2.0476 H   0  0  0  0  0  0
   -5.9113   22.3588    1.8043 H   0  0  0  0  0  0
   -3.0815   18.8024    0.2046 H   0  0  0  0  0  0
   -0.4131   17.8777    1.0231 H   0  0  0  0  0  0
   -2.9704   16.3537    0.1717 H   0  0  0  0  0  0
   -1.5884   16.8161   -0.8785 H   0  0  0  0  0  0
   -1.5212   14.3715   -0.2158 H   0  0  0  0  0  0
   -0.0838   15.2758    0.3695 H   0  0  0  0  0  0
   -2.5849   14.6729    1.9817 H   0  0  0  0  0  0
   -1.1998   15.4084    3.8959 H   0  0  0  0  0  0
    0.0910   15.8975    2.7465 H   0  0  0  0  0  0
   -1.3263   17.8596    3.3425 H   0  0  0  0  0  0
   -2.7951   16.9773    2.8032 H   0  0  0  0  0  0
   -1.2433   12.6922    1.4501 H   0  0  0  0  0  0
   -1.1534   13.1196    3.1925 H   0  0  0  0  0  0
    0.2154   13.5157    2.0988 H   0  0  0  0  0  0
  -13.7378   18.4005   -6.9433 H   0  0  0  0  0  0
  -15.7747   18.0746   -5.6493 H   0  0  0  0  0  0
  -15.8970   18.8254   -3.2090 H   0  0  0  0  0  0
  -13.1902   19.5093   -1.1302 H   0  0  0  0  0  0
  -13.7850   21.1211   -1.6545 H   0  0  0  0  0  0
  -15.2386   20.1385    0.0509 H   0  0  0  0  0  0
  -15.5166   18.6977   -0.9854 H   0  0  0  0  0  0
  -16.1115   20.3095   -1.5098 H   0  0  0  0  0  0
  -11.0587   20.6700   -6.1157 H   0  0  0  0  0  0
  -10.4652   19.0598   -5.5851 H   0  0  0  0  0  0
  -10.3739   19.2940   -8.0166 H   0  0  0  0  0  0
  -12.1380   19.6285   -8.0690 H   0  0  0  0  0  0
  -11.5446   18.0183   -7.5384 H   0  0  0  0  0  0
  1  2  1  0  0  0
  1  3  1  0  0  0
  1 50  1  0  0  0
  1 51  1  0  0  0
  2 13  1  0  0  0
  2 52  1  0  0  0
  2 53  1  0  0  0
  3  4  2  0  0  0
  3  7  1  0  0  0
  4  5  1  0  0  0
  4 12  1  0  0  0
  5  6  1  0  0  0
  5 11  1  0  0  0
  6  7  2  0  0  0
  7  8  1  0  0  0
  8  9  1  0  0  0
  8 10  2  0  0  0
  9 40  1  0  0  0
  9 54  1  0  0  0
 11 55  1  0  0  0
 11 56  1  0  0  0
 11 57  1  0  0  0
 12 13  2  0  0  0
 12 17  1  0  0  0
 13 14  1  0  0  0
 14 15  2  0  0  0
 14 58  1  0  0  0
 15 16  1  0  0  0
 16 17  2  0  0  0
 16 18  1  0  0  0
 18 19  1  0  0  0
 18 59  1  0  0  0
 19 20  2  0  0  0
 19 24  1  0  0  0
 20 21  1  0  0  0
 20 25  1  0  0  0
 21 22  2  0  0  0
 21 60  1  0  0  0
 22 23  1  0  0  0
 22 26  1  0  0  0
 23 24  2  0  0  0
 23 61  1  0  0  0
 24 62  1  0  0  0
 25 36  1  0  0  0
 26 27  1  0  0  0
 26 28  2  0  0  0
 27 29  1  0  0  0
 27 63  1  0  0  0
 29 30  1  0  0  0
 29 34  1  0  0  0
 29 64  1  0  0  0
 30 31  1  0  0  0
 30 65  1  0  0  0
 30 66  1  0  0  0
 31 32  1  0  0  0
 31 67  1  0  0  0
 31 68  1  0  0  0
 32 33  1  0  0  0
 32 35  1  0  0  0
 32 69  1  0  0  0
 33 34  1  0  0  0
 33 70  1  0  0  0
 33 71  1  0  0  0
 34 72  1  0  0  0
 34 73  1  0  0  0
 35 74  1  0  0  0
 35 75  1  0  0  0
 35 76  1  0  0  0
 36 37  1  0  0  0
 36 38  1  0  0  0
 36 39  1  0  0  0
 40 41  2  0  0  0
 40 45  1  0  0  0
 41 42  1  0  0  0
 41 48  1  0  0  0
 42 43  2  0  0  0
 42 77  1  0  0  0
 43 44  1  0  0  0
 43 78  1  0  0  0
 44 45  2  0  0  0
 44 79  1  0  0  0
 45 46  1  0  0  0
 46 47  1  0  0  0
 46 80  1  0  0  0
 46 81  1  0  0  0
 47 82  1  0  0  0
 47 83  1  0  0  0
 47 84  1  0  0  0
 48 49  1  0  0  0
 48 85  1  0  0  0
 48 86  1  0  0  0
 49 87  1  0  0  0
 49 88  1  0  0  0
 49 89  1  0  0  0
M  CHG  1  32   1
M  END
> <s_m_source_file>
../2x9e_ligand.sdf

> <i_m_source_file_index>
1

> <s_epik_input>
W0NIM11bQ0gyXWMxW2NIXVtjSF1bY0hdYyhbQ0gyXVtDSDNdKWMxW05IXUMoPU8pYzJubihbQ0gzXSljKGMyMyljNGMoW0NIMl1bQ0gyXTMpW2NIXW5jKG40KVtOSF1jNWMoT0MoRikoRilGKVtjSF1jKFtjSF1bY0hdNSlDKD1PKVtOSF1bQ0BASF02W0NIMl1bQ0gyXVtOQEBIK10oW0NIM10pW0NIMl1bQ0gyXTY=

> <s_epik_cmdline>
J2VwaWtfYXBwJywgJy1pbWFlJywgJ2xpZ2FuZF9wcm8ubWFlJywgJy1vbWFlJywgJ2xpZ2FuZF9wcmVwLm1hZScsICctbXMnLCAnMScsICctcGgnLCAnNycsICctcGh0JywgJzAuNScsICctbnQn

> <r_lp_tautomer_probability>
1

> <r_epik_Ionization_Penalty>
  0.0050

> <r_epik_Ionization_Penalty_Charging>
  0.0049

> <r_epik_Ionization_Penalty_Neutral>
  0.0001

> <r_epik_State_Penalty>
 -0.0000

> <r_epik_Charging_Adjusted_Penalty>
0.00493320810848014

> <i_epik_Tot_Q>
1

> <i_epik_Tot_abs_Q>
1

$$$$
