2xa4_ligand
                    3D
 Schrodinger Suite 2020-3.
 38 40  0  0  1  0            999 V2000
    1.8180    1.9460   25.4890 C   0  0  0  0  0  0
    2.3420    5.1100   22.8470 C   0  0  0  0  0  0
    0.8220    6.6900   23.6600 C   0  0  0  0  0  0
   -3.0780    3.5620   27.1820 C   0  0  0  0  0  0
    2.1150    6.3800   23.3160 C   0  0  0  0  0  0
   -1.9200    2.8850   27.7000 C   0  0  0  0  0  0
    3.1070    1.4660   25.3920 C   0  0  0  0  0  0
    1.4420    1.7330   26.8460 C   0  0  0  0  0  0
   -0.8670    2.6630   26.9040 C   0  0  0  0  0  0
    0.1550    4.6260   23.0760 C   0  0  0  0  0  0
   -1.9870    3.6020   25.1610 C   0  0  0  0  0  0
    4.0530    1.3900   24.2700 C   0  0  0  0  0  0
   -1.4570    3.7420   21.5140 C   0  0  0  0  0  0
   -0.9420    3.6290   22.9240 C   0  0  2  0  0  0
    1.3730    4.2070   22.7160 N   0  0  0  0  0  0
   -0.1920    5.8300   23.5450 N   0  0  0  0  0  0
   -3.0410    3.8610   25.8620 N   0  0  0  0  0  0
   -0.8680    3.0000   25.6910 N   0  0  0  0  0  0
    2.4450    1.1580   27.5200 N   0  0  0  0  0  0
    3.4310    1.0080   26.6340 N   0  3  0  0  0  0
    0.2450    2.0460   27.4200 N   0  0  0  0  0  0
   -2.0300    3.9130   23.8290 N   0  0  0  0  0  0
    3.1100    7.2710   23.4400 F   0  0  0  0  0  0
   -1.9790    2.4380   29.3600 Cl  0  0  0  0  0  0
    1.3229    2.3750   24.6054 H   0  0  0  0  0  0
    3.3583    4.8293   22.5703 H   0  0  0  0  0  0
    0.6137    7.6878   24.0461 H   0  0  0  0  0  0
   -3.9304    3.8179   27.8113 H   0  0  0  0  0  0
    3.5870    1.8138   23.3682 H   0  0  0  0  0  0
    4.3194    0.3388   24.0856 H   0  0  0  0  0  0
    4.9606    1.9605   24.5164 H   0  0  0  0  0  0
   -0.6413    3.5287   20.8075 H   0  0  0  0  0  0
   -1.8341    4.7609   21.3420 H   0  0  0  0  0  0
   -2.2719    3.0189   21.3623 H   0  0  0  0  0  0
   -0.5769    2.6231   23.1787 H   0  0  0  0  0  0
    0.0583    1.7948   28.4745 H   0  0  0  0  0  0
   -2.9431    4.3996   23.4557 H   0  0  0  0  0  0
    4.3835    0.5526   26.9429 H   0  0  0  0  0  0
  1  7  2  0  0  0
  1  8  1  0  0  0
  1 25  1  0  0  0
  2  5  2  0  0  0
  2 15  1  0  0  0
  2 26  1  0  0  0
  3  5  1  0  0  0
  3 16  2  0  0  0
  3 27  1  0  0  0
  4  6  2  0  0  0
  4 17  1  0  0  0
  4 28  1  0  0  0
  5 23  1  0  0  0
  6  9  1  0  0  0
  6 24  1  0  0  0
  7 12  1  0  0  0
  7 20  1  0  0  0
  8 19  2  0  0  0
  8 21  1  0  0  0
  9 18  2  0  0  0
  9 21  1  0  0  0
 10 14  1  0  0  0
 10 15  2  0  0  0
 10 16  1  0  0  0
 11 17  2  0  0  0
 11 18  1  0  0  0
 11 22  1  0  0  0
 12 29  1  0  0  0
 12 30  1  0  0  0
 12 31  1  0  0  0
 13 14  1  0  0  0
 13 32  1  0  0  0
 13 33  1  0  0  0
 13 34  1  0  0  0
 14 22  1  0  0  0
 14 35  1  0  0  0
 19 20  1  0  0  0
 20 38  1  0  0  0
 21 36  1  0  0  0
 22 37  1  0  0  0
M  CHG  1  20   1
M  END
> <s_m_source_file>
../2xa4_ligand.sdf

> <i_m_source_file_index>
1

> <s_epik_input>
W0NIM11jMVtjSF1jKG5bbkhdMSlbTkhdYzJuYyhuW2NIXWMyQ2wpW05IXVtDQEBIXShbQ0gzXSljKG5bY0hdMyluW2NIXWMzRg==

> <s_epik_cmdline>
J2VwaWtfYXBwJywgJy1pbWFlJywgJ2xpZ2FuZF9wcm8ubWFlJywgJy1vbWFlJywgJ2xpZ2FuZF9wcmVwLm1hZScsICctbXMnLCAnMScsICctcGgnLCAnNycsICctcGh0JywgJzAuNScsICctbnQn

> <r_lp_tautomer_probability>
1

> <r_epik_Ionization_Penalty>
  0.2011

> <r_epik_Ionization_Penalty_Charging>
  0.0000

> <r_epik_Ionization_Penalty_Neutral>
  0.2011

> <r_epik_State_Penalty>
 -0.0000

> <r_epik_Charging_Adjusted_Penalty>
0

> <i_epik_Tot_Q>
1

> <i_epik_Tot_abs_Q>
1

> <s_epik_Chemistry_Notes>
This compound contains an electron-poor aromatic ring that is susceptible to covalent hydrolysis at low pH, typically resulting in measured values for nitrogen ring protonation that are around two units higher than predicted values. This compound has an imine and may undergo hydrolysis.

$$$$
