2xae_ligand
                    3D
 Schrodinger Suite 2020-3.
 47 49  0  0  1  0            999 V2000
  -14.9870    6.6180  -42.8960 N   0  3  0  0  0  0
  -13.9470    5.7580  -43.4880 C   0  0  1  0  0  0
  -14.4380    4.2840  -43.4910 C   0  0  0  0  0  0
  -13.5650    6.2730  -44.9180 C   0  0  0  0  0  0
  -13.9290    7.4320  -45.2480 O   0  0  0  0  0  0
  -12.8860    5.5130  -45.6590 O   0  5  0  0  0  0
  -15.0550    3.4810  -41.9190 S   0  0  0  0  0  0
  -17.1340    2.7090  -44.6880 C   0  0  0  0  0  0
  -17.9730    3.3170  -45.6120 C   0  0  0  0  0  0
  -19.0510    4.0660  -45.1800 C   0  0  0  0  0  0
  -19.2770    4.2030  -43.8120 C   0  0  0  0  0  0
  -18.4140    3.6100  -42.8980 C   0  0  0  0  0  0
  -17.3430    2.8410  -43.3260 C   0  0  0  0  0  0
  -15.9920   -0.1590  -43.2170 C   0  0  0  0  0  0
  -15.1500   -1.1480  -43.7120 C   0  0  0  0  0  0
  -13.7900   -0.8910  -43.8560 C   0  0  0  0  0  0
  -13.2640    0.3510  -43.5240 C   0  0  0  0  0  0
  -14.1190    1.3180  -43.0260 C   0  0  0  0  0  0
  -15.4790    1.0870  -42.8730 C   0  0  0  0  0  0
  -18.2590    0.9410  -41.2190 C   0  0  0  0  0  0
  -18.9270    0.4850  -40.0800 C   0  0  0  0  0  0
  -18.4830    0.8270  -38.8050 C   0  0  0  0  0  0
  -17.3520    1.6250  -38.6590 C   0  0  0  0  0  0
  -16.6910    2.0690  -39.8000 C   0  0  0  0  0  0
  -17.1270    1.7420  -41.0870 C   0  0  0  0  0  0
  -20.0870    4.8080  -46.3730 Cl  0  0  0  0  0  0
  -16.3630    2.2190  -42.3320 C   0  0  0  0  0  0
  -15.2446    6.2448  -41.8938 H   0  0  0  0  0  0
  -15.8826    6.6027  -43.5344 H   0  0  0  0  0  0
  -14.6100    7.6484  -42.8179 H   0  0  0  0  0  0
  -13.0615    5.8343  -42.8399 H   0  0  0  0  0  0
  -15.2858    4.1814  -44.1843 H   0  0  0  0  0  0
  -13.6185    3.6252  -43.8140 H   0  0  0  0  0  0
  -16.2921    2.1146  -45.0429 H   0  0  0  0  0  0
  -17.7813    3.2035  -46.6790 H   0  0  0  0  0  0
  -20.1332    4.7769  -43.4575 H   0  0  0  0  0  0
  -18.5816    3.7515  -41.8303 H   0  0  0  0  0  0
  -17.0566   -0.3605  -43.0982 H   0  0  0  0  0  0
  -15.5540   -2.1224  -43.9867 H   0  0  0  0  0  0
  -13.1305   -1.6725  -44.2333 H   0  0  0  0  0  0
  -12.2018    0.5590  -43.6529 H   0  0  0  0  0  0
  -13.7126    2.2898  -42.7456 H   0  0  0  0  0  0
  -18.6232    0.6703  -42.2100 H   0  0  0  0  0  0
  -19.8080   -0.1473  -40.1907 H   0  0  0  0  0  0
  -19.0190    0.4712  -37.9251 H   0  0  0  0  0  0
  -16.9902    1.8975  -37.6676 H   0  0  0  0  0  0
  -15.8040    2.6923  -39.6864 H   0  0  0  0  0  0
  1  2  1  0  0  0
  1 28  1  0  0  0
  1 29  1  0  0  0
  1 30  1  0  0  0
  2  3  1  0  0  0
  2  4  1  0  0  0
  2 31  1  0  0  0
  3  7  1  0  0  0
  3 32  1  0  0  0
  3 33  1  0  0  0
  4  5  2  0  0  0
  4  6  1  0  0  0
  7 27  1  0  0  0
  8  9  2  0  0  0
  8 13  1  0  0  0
  8 34  1  0  0  0
  9 10  1  0  0  0
  9 35  1  0  0  0
 10 11  2  0  0  0
 10 26  1  0  0  0
 11 12  1  0  0  0
 11 36  1  0  0  0
 12 13  2  0  0  0
 12 37  1  0  0  0
 13 27  1  0  0  0
 14 15  2  0  0  0
 14 19  1  0  0  0
 14 38  1  0  0  0
 15 16  1  0  0  0
 15 39  1  0  0  0
 16 17  2  0  0  0
 16 40  1  0  0  0
 17 18  1  0  0  0
 17 41  1  0  0  0
 18 19  2  0  0  0
 18 42  1  0  0  0
 19 27  1  0  0  0
 20 21  2  0  0  0
 20 25  1  0  0  0
 20 43  1  0  0  0
 21 22  1  0  0  0
 21 44  1  0  0  0
 22 23  2  0  0  0
 22 45  1  0  0  0
 23 24  1  0  0  0
 23 46  1  0  0  0
 24 25  2  0  0  0
 24 47  1  0  0  0
 25 27  1  0  0  0
M  CHG  2   1   1   6  -1
M  END
> <s_m_source_file>
../2xae_ligand.sdf

> <i_m_source_file_index>
1

> <s_epik_input>
W2NIXTFbY0hdW2NIXVtjSF1bY0hdYzFDKGMoW2NIXVtjSF0yKVtjSF1bY0hdYzJDbCkoU1tDSDJdW0NASF0oW05IMytdKUMoPU8pW09IXSljM1tjSF1bY0hdW2NIXVtjSF1bY0hdMw==

> <s_epik_cmdline>
J2VwaWtfYXBwJywgJy1pbWFlJywgJ2xpZ2FuZF9wcm8ubWFlJywgJy1vbWFlJywgJ2xpZ2FuZF9wcmVwLm1hZScsICctbXMnLCAnMScsICctcGgnLCAnNycsICctcGh0JywgJzAuNScsICctbnQn

> <r_lp_tautomer_probability>
1

> <r_epik_Ionization_Penalty>
  0.0055

> <r_epik_Ionization_Penalty_Charging>
  0.0055

> <r_epik_Ionization_Penalty_Neutral>
  0.0000

> <r_epik_State_Penalty>
 -0.0000

> <r_epik_Charging_Adjusted_Penalty>
0.00548390749953969

> <i_epik_Tot_Q>
0

> <i_epik_Tot_abs_Q>
2

$$$$
