2xaf_ligand
                    3D
 Schrodinger Suite 2020-3.
104110  0  0  1  0            999 V2000
   -6.6050   67.6720   88.7680 P   0  0  2  0  0  0
   -5.6220   68.1570   87.7260 O   0  0  0  0  0  0
   -7.8730   66.8980   88.4250 O   0  5  0  0  0  0
   -7.0410   68.9990   89.5720 O   0  0  0  0  0  0
   -6.1130   70.0720   89.7510 C   0  0  0  0  0  0
   -6.8370   71.4170   89.7010 C   0  0  1  0  0  0
   -5.9220   72.4730   89.9810 O   0  0  0  0  0  0
   -7.3820   71.7150   88.3140 C   0  0  1  0  0  0
   -8.7470   72.1740   88.3740 O   0  0  0  0  0  0
   -6.4480   72.7830   87.7820 C   0  0  1  0  0  0
   -7.0390   73.6180   86.8070 O   0  0  0  0  0  0
   -6.1220   73.5220   89.0460 C   0  0  2  0  0  0
   -4.9290   74.3920   88.9120 N   0  0  0  0  0  0
   -3.7600   74.1710   88.2780 C   0  0  0  0  0  0
   -2.9400   75.2460   88.4330 N   0  0  0  0  0  0
   -3.6160   76.1320   89.1830 C   0  0  0  0  0  0
   -3.2790   77.3980   89.6470 C   0  0  0  0  0  0
   -2.0780   77.9240   89.3320 N   0  0  0  0  0  0
   -4.1690   78.1090   90.3900 N   0  0  0  0  0  0
   -5.5180   77.5860   90.7370 C   0  0  0  0  0  0
   -5.8000   76.2480   90.2160 N   0  0  0  0  0  0
   -4.8720   75.5890   89.4760 C   0  0  0  0  0  0
   -7.8960   58.1820   85.7770 N   0  0  0  0  0  0
   -8.8520   57.2270   85.9480 C   0  0  0  0  0  0
   -9.2360   56.8750   87.2010 O   0  0  0  0  0  0
   -9.4470   56.6170   84.8940 N   0  0  0  0  0  0
   -9.1450   56.9430   83.6240 C   0  0  0  0  0  0
   -9.6860   56.3400   82.5460 O   0  0  0  0  0  0
   -8.0390   57.8580   83.3730 C   0  0  0  0  0  0
   -7.9320   58.3710   82.0080 N   0  0  0  0  0  0
   -7.2640   59.6070   81.9070 C   0  0  0  0  0  0
   -7.3640   60.2500   80.6750 C   0  0  0  0  0  0
   -6.8210   61.5060   80.4620 C   0  0  0  0  0  0
   -6.9200   62.1800   79.1140 C   0  0  0  0  0  0
   -6.1860   62.1270   81.5110 C   0  0  0  0  0  0
   -5.5890   63.4880   81.2770 C   0  0  0  0  0  0
   -6.1030   61.4920   82.7580 C   0  0  0  0  0  0
   -6.6600   60.2320   82.9990 C   0  0  0  0  0  0
   -6.5210   59.5600   84.2720 N   0  0  0  0  0  0
   -7.5290   58.6030   84.5350 C   0  0  0  0  0  0
   -6.0630   60.3580   85.4480 C   0  0  0  0  0  0
   -7.1070   61.1760   86.1980 C   0  0  2  0  0  0
   -7.8510   61.8850   85.2090 O   0  0  0  0  0  0
   -6.4210   62.1510   87.1620 C   0  0  2  0  0  0
   -5.5520   61.4320   88.0210 O   0  0  0  0  0  0
   -7.3420   62.9090   88.1070 C   0  0  2  0  0  0
   -8.4600   63.4140   87.3730 O   0  0  0  0  0  0
   -6.5470   64.0270   88.8120 C   0  0  0  0  0  0
   -7.2660   64.7720   89.8170 O   0  0  0  0  0  0
   -6.4390   65.7340   90.8220 P   0  0  2  0  0  0
   -5.2110   65.0930   91.4510 O   0  5  0  0  0  0
   -7.5200   66.3180   91.7090 O   0  0  0  0  0  0
   -5.7790   66.8890   89.9040 O   0  0  0  0  0  0
   -7.5380   57.2660   81.1160 C   0  0  0  0  0  0
   -8.2790   57.0810   80.1340 O   0  0  0  0  0  0
   -6.3750   56.3290   81.3800 C   0  0  0  0  0  0
   -5.8410   56.5920   82.7570 C   0  0  0  0  0  0
   -5.8440   55.4390   83.7300 C   0  0  0  0  0  0
   -4.6200   55.2200   84.3430 C   0  0  0  0  0  0
   -4.4120   54.2160   85.2810 C   0  0  0  0  0  0
   -6.9250   54.6290   84.0780 C   0  0  0  0  0  0
   -6.7290   53.6080   85.0230 C   0  0  0  0  0  0
   -5.4690   53.3940   85.6340 C   0  0  0  0  0  0
   -5.0690   52.0580   86.9470 Br  0  0  0  0  0  0
   -5.6168   69.9686   90.7272 H   0  0  0  0  0  0
   -5.3585   70.0415   88.9511 H   0  0  0  0  0  0
   -7.6281   71.4105   90.4653 H   0  0  0  0  0  0
   -7.4636   70.8351   87.6589 H   0  0  0  0  0  0
   -9.5373   71.5029   88.7415 H   0  0  0  0  0  0
   -5.5909   72.4213   87.1951 H   0  0  0  0  0  0
   -7.3287   73.2033   85.8302 H   0  0  0  0  0  0
   -6.9141   74.2035   89.3897 H   0  0  0  0  0  0
   -3.5091   73.2664   87.7240 H   0  0  0  0  0  0
   -1.3636   77.3426   88.7307 H   0  0  0  0  0  0
   -1.8127   78.9345   89.6764 H   0  0  0  0  0  0
   -6.2363   78.1523   91.3299 H   0  0  0  0  0  0
   -7.8835   59.7511   79.8569 H   0  0  0  0  0  0
   -7.4607   61.5247   78.4153 H   0  0  0  0  0  0
   -5.9092   62.3748   78.7264 H   0  0  0  0  0  0
   -7.4623   63.1313   79.2187 H   0  0  0  0  0  0
   -5.7693   63.7933   80.2357 H   0  0  0  0  0  0
   -4.5060   63.4507   81.4660 H   0  0  0  0  0  0
   -6.0553   64.2150   81.9582 H   0  0  0  0  0  0
   -5.5843   61.9999   83.5711 H   0  0  0  0  0  0
   -5.6280   59.6845   86.2011 H   0  0  0  0  0  0
   -5.3039   61.0853   85.1244 H   0  0  0  0  0  0
   -7.8186   60.5510   86.7574 H   0  0  0  0  0  0
   -8.4059   61.3320   84.4368 H   0  0  0  0  0  0
   -5.8643   62.8571   86.5283 H   0  0  0  0  0  0
   -4.7689   60.7867   87.5964 H   0  0  0  0  0  0
   -7.8009   62.2452   88.8545 H   0  0  0  0  0  0
   -9.1137   62.7222   86.8215 H   0  0  0  0  0  0
   -5.6732   63.5918   89.3191 H   0  0  0  0  0  0
   -6.2098   64.7628   88.0671 H   0  0  0  0  0  0
   -6.7200   55.2870   81.3080 H   0  0  0  0  0  0
   -5.5852   56.5059   80.6351 H   0  0  0  0  0  0
   -4.7918   56.9149   82.6879 H   0  0  0  0  0  0
   -6.4370   57.3824   83.2367 H   0  0  0  0  0  0
   -3.7824   55.8649   84.0771 H   0  0  0  0  0  0
   -3.4298   54.0774   85.7329 H   0  0  0  0  0  0
   -7.9040   54.7853   83.6250 H   0  0  0  0  0  0
   -7.5668   52.9649   85.2926 H   0  0  0  0  0  0
   -7.4031   58.6298   86.6525 H   0  0  0  0  0  0
  -10.1989   55.8325   85.0652 H   0  0  0  0  0  0
  1  2  2  0  0  0
  1  3  1  0  0  0
  1  4  1  0  0  0
  1 53  1  0  0  0
  4  5  1  0  0  0
  5  6  1  0  0  0
  5 65  1  0  0  0
  5 66  1  0  0  0
  6  7  1  0  0  0
  6  8  1  0  0  0
  6 67  1  0  0  0
  7 12  1  0  0  0
  8  9  1  0  0  0
  8 10  1  0  0  0
  8 68  1  0  0  0
  9 69  1  0  0  0
 10 11  1  0  0  0
 10 12  1  0  0  0
 10 70  1  0  0  0
 11 71  1  0  0  0
 12 13  1  0  0  0
 12 72  1  0  0  0
 13 14  1  0  0  0
 13 22  1  0  0  0
 14 15  2  0  0  0
 14 73  1  0  0  0
 15 16  1  0  0  0
 16 17  2  0  0  0
 16 22  1  0  0  0
 17 18  1  0  0  0
 17 19  1  0  0  0
 18 74  1  0  0  0
 18 75  1  0  0  0
 19 20  2  0  0  0
 20 21  1  0  0  0
 20 76  1  0  0  0
 21 22  2  0  0  0
 23 24  1  0  0  0
 23 40  1  0  0  0
 23103  1  0  0  0
 24 25  2  0  0  0
 24 26  1  0  0  0
 26 27  1  0  0  0
 26104  1  0  0  0
 27 28  2  0  0  0
 27 29  1  0  0  0
 29 30  1  0  0  0
 29 40  2  0  0  0
 30 31  1  0  0  0
 30 54  1  0  0  0
 31 32  2  0  0  0
 31 38  1  0  0  0
 32 33  1  0  0  0
 32 77  1  0  0  0
 33 34  1  0  0  0
 33 35  2  0  0  0
 34 78  1  0  0  0
 34 79  1  0  0  0
 34 80  1  0  0  0
 35 36  1  0  0  0
 35 37  1  0  0  0
 36 81  1  0  0  0
 36 82  1  0  0  0
 36 83  1  0  0  0
 37 38  2  0  0  0
 37 84  1  0  0  0
 38 39  1  0  0  0
 39 40  1  0  0  0
 39 41  1  0  0  0
 41 42  1  0  0  0
 41 85  1  0  0  0
 41 86  1  0  0  0
 42 43  1  0  0  0
 42 44  1  0  0  0
 42 87  1  0  0  0
 43 88  1  0  0  0
 44 45  1  0  0  0
 44 46  1  0  0  0
 44 89  1  0  0  0
 45 90  1  0  0  0
 46 47  1  0  0  0
 46 48  1  0  0  0
 46 91  1  0  0  0
 47 92  1  0  0  0
 48 49  1  0  0  0
 48 93  1  0  0  0
 48 94  1  0  0  0
 49 50  1  0  0  0
 50 51  1  0  0  0
 50 52  2  0  0  0
 50 53  1  0  0  0
 54 55  2  0  0  0
 54 56  1  0  0  0
 56 57  1  0  0  0
 56 95  1  0  0  0
 56 96  1  0  0  0
 57 58  1  0  0  0
 57 97  1  0  0  0
 57 98  1  0  0  0
 58 59  2  0  0  0
 58 61  1  0  0  0
 59 60  1  0  0  0
 59 99  1  0  0  0
 60 63  2  0  0  0
 60100  1  0  0  0
 61 62  2  0  0  0
 61101  1  0  0  0
 62 63  1  0  0  0
 62102  1  0  0  0
 63 64  1  0  0  0
M  CHG  2   3  -1  51  -1
M  END
> <s_m_source_file>
../2xaf_ligand.sdf

> <i_m_source_file_index>
1

> <s_epik_input>
W05IMl1jMW5bY0hdbmMoYzEyKW4oW2NIXW4yKVtDQEBIXShbQ0BIXShbT0hdKVtDQEBIXTNbT0hdKU9bQ0BASF0zW0NIMl1PW1BAXSg9TykoW09IXSlPW1BAXSg9TykoW09IXSlPW0NIMl1bQ0BASF0oW09IXSlbQ0BASF0oW09IXSlbQ0BASF0oW09IXSlbQ0gyXU4oYyhjNDUpbmMoW09IXSluYzRbT0hdKWM2YyhbY0hdYyhbQ0gzXSljKFtDSDNdKVtjSF02KU41Qyg9TylbQ0gyXVtDSDJdYzdbY0hdW2NIXWMoQnIpW2NIXVtjSF03

> <s_epik_cmdline>
J2VwaWtfYXBwJywgJy1pbWFlJywgJ2xpZ2FuZF9wcm8ubWFlJywgJy1vbWFlJywgJ2xpZ2FuZF9wcmVwLm1hZScsICctbXMnLCAnMScsICctcGgnLCAnNycsICctcGh0JywgJzAuNScsICctbnQn

> <r_lp_tautomer_probability>
1

> <r_epik_Ionization_Penalty>
  0.0112

> <r_epik_Ionization_Penalty_Charging>
  0.0029

> <r_epik_Ionization_Penalty_Neutral>
  0.0084

> <r_epik_State_Penalty>
 -0.0000

> <r_epik_Charging_Adjusted_Penalty>
0.00285671522737693

> <i_epik_Tot_Q>
-2

> <i_epik_Tot_abs_Q>
2

> <s_epik_Chemistry_Notes>
This compound contains an acetal/aminal-like group ( X-CH(R)-Y where X, Y are N, S, or O) that may be acid/base labile, releasing an aldehyde.

$$$$
