2xag_ligand
                    3D
 Schrodinger Suite 2020-3.
104110  0  0  1  0            999 V2000
   -6.9590   67.0990   89.2470 P   0  0  2  0  0  0
   -6.0220   67.4750   88.0980 O   0  0  0  0  0  0
   -8.3570   66.4980   89.0530 O   0  5  0  0  0  0
   -7.2380   68.4520   90.0720 O   0  0  0  0  0  0
   -6.2200   69.4570   90.0930 C   0  0  0  0  0  0
   -6.9800   70.7480   89.9690 C   0  0  1  0  0  0
   -6.1220   71.8190   90.2750 O   0  0  0  0  0  0
   -7.4920   70.9820   88.5680 C   0  0  1  0  0  0
   -8.9020   71.2460   88.6740 O   0  0  0  0  0  0
   -6.6740   72.1740   88.0820 C   0  0  1  0  0  0
   -7.3340   72.9710   87.0950 O   0  0  0  0  0  0
   -6.4110   72.8940   89.3900 C   0  0  2  0  0  0
   -5.2330   73.8070   89.3640 N   0  0  0  0  0  0
   -4.0060   73.5490   88.8490 C   0  0  0  0  0  0
   -3.2090   74.6280   89.0410 N   0  0  0  0  0  0
   -3.9450   75.5420   89.6910 C   0  0  0  0  0  0
   -3.6260   76.7980   90.1250 C   0  0  0  0  0  0
   -2.3890   77.2490   89.8770 N   0  0  0  0  0  0
   -4.5320   77.5430   90.7820 N   0  0  0  0  0  0
   -5.9070   77.0700   91.0460 C   0  0  0  0  0  0
   -6.1750   75.7350   90.5410 N   0  0  0  0  0  0
   -5.2170   75.0300   89.9030 C   0  0  0  0  0  0
   -8.4820   57.4030   86.1410 N   0  0  0  0  0  0
   -9.5090   56.5210   86.3000 C   0  0  0  0  0  0
   -9.9200   56.1880   87.5510 O   0  0  0  0  0  0
  -10.1580   55.9620   85.2360 N   0  0  0  0  0  0
   -9.8500   56.2790   83.9570 C   0  0  0  0  0  0
  -10.4830   55.7090   82.8950 O   0  0  0  0  0  0
   -8.6670   57.1300   83.7290 C   0  0  0  0  0  0
   -8.4650   57.6520   82.3680 N   0  0  0  0  0  0
   -7.7450   58.8790   82.3080 C   0  0  0  0  0  0
   -7.7840   59.5690   81.0980 C   0  0  0  0  0  0
   -7.1690   60.7980   80.9420 C   0  0  0  0  0  0
   -7.2120   61.5190   79.6220 C   0  0  0  0  0  0
   -6.5080   61.3660   82.0070 C   0  0  0  0  0  0
   -5.8400   62.7010   81.7970 C   0  0  0  0  0  0
   -6.4720   60.6860   83.2340 C   0  0  0  0  0  0
   -7.1110   59.4400   83.4250 C   0  0  0  0  0  0
   -7.0240   58.7180   84.6830 N   0  0  0  0  0  0
   -8.0920   57.8110   84.9080 C   0  0  0  0  0  0
   -6.6050   59.5330   85.8660 C   0  0  0  0  0  0
   -7.5980   60.4780   86.5680 C   0  0  2  0  0  0
   -8.3080   61.2310   85.5850 O   0  0  0  0  0  0
   -6.8340   61.3970   87.5410 C   0  0  2  0  0  0
   -5.8930   60.6420   88.3150 O   0  0  0  0  0  0
   -7.6650   62.1560   88.5650 C   0  0  2  0  0  0
   -8.7970   62.7750   87.9330 O   0  0  0  0  0  0
   -6.7390   63.1630   89.2990 C   0  0  0  0  0  0
   -7.4250   63.9890   90.2700 O   0  0  0  0  0  0
   -6.7320   65.0980   91.2300 P   0  0  2  0  0  0
   -5.5310   64.5490   91.9980 O   0  0  0  0  0  0
   -7.9110   65.7430   91.9790 O   0  5  0  0  0  0
   -6.0710   66.1660   90.2180 O   0  0  0  0  0  0
   -8.0370   56.5260   81.4890 C   0  0  0  0  0  0
   -8.5950   56.3860   80.3790 O   0  0  0  0  0  0
   -7.0180   55.4820   81.9000 C   0  0  0  0  0  0
   -6.4210   55.8240   83.2460 C   0  0  0  0  0  0
   -6.4520   54.6950   84.2520 C   0  0  0  0  0  0
   -5.2670   54.4750   84.9620 C   0  0  0  0  0  0
   -5.1860   53.4700   85.9110 C   0  0  0  0  0  0
   -7.5890   53.9110   84.5000 C   0  0  0  0  0  0
   -7.5150   52.8950   85.4510 C   0  0  0  0  0  0
   -6.3120   52.6790   86.1460 C   0  0  0  0  0  0
   -6.1450   51.3180   87.4600 Br  0  0  0  0  0  0
   -5.6620   69.3940   91.0389 H   0  0  0  0  0  0
   -5.5314   69.2991   89.2499 H   0  0  0  0  0  0
   -7.8066   70.7375   90.6947 H   0  0  0  0  0  0
   -7.4368   70.1389   87.8636 H   0  0  0  0  0  0
   -9.5856   70.4547   89.0155 H   0  0  0  0  0  0
   -5.7796   71.9348   87.4880 H   0  0  0  0  0  0
   -7.5710   72.5420   86.1102 H   0  0  0  0  0  0
   -7.2608   73.5165   89.7069 H   0  0  0  0  0  0
   -3.7081   72.6221   88.3589 H   0  0  0  0  0  0
   -1.6704   76.6150   89.3369 H   0  0  0  0  0  0
   -2.0920   78.2533   90.2135 H   0  0  0  0  0  0
   -6.6515   77.6681   91.5714 H   0  0  0  0  0  0
   -8.3128   59.1288   80.2526 H   0  0  0  0  0  0
   -7.7789   60.9191   78.8948 H   0  0  0  0  0  0
   -6.1868   61.6698   79.2530 H   0  0  0  0  0  0
   -7.7018   62.4952   79.7532 H   0  0  0  0  0  0
   -6.0036   63.0340   80.7615 H   0  0  0  0  0  0
   -4.7605   62.6044   81.9849 H   0  0  0  0  0  0
   -6.2685   63.4387   82.4914 H   0  0  0  0  0  0
   -5.9327   61.1342   84.0684 H   0  0  0  0  0  0
   -6.2735   58.8636   86.6735 H   0  0  0  0  0  0
   -5.7776   60.1983   85.5784 H   0  0  0  0  0  0
   -8.3868   59.9303   87.1044 H   0  0  0  0  0  0
   -8.9024   60.7123   84.8184 H   0  0  0  0  0  0
   -6.3182   62.1186   86.8904 H   0  0  0  0  0  0
   -5.1604   59.9944   87.8111 H   0  0  0  0  0  0
   -8.1521   61.4803   89.2835 H   0  0  0  0  0  0
   -9.5238   62.1599   87.3821 H   0  0  0  0  0  0
   -5.9524   62.6131   89.8366 H   0  0  0  0  0  0
   -6.2771   63.8390   88.5644 H   0  0  0  0  0  0
   -7.5066   54.4987   81.9659 H   0  0  0  0  0  0
   -6.2123   55.4417   81.1522 H   0  0  0  0  0  0
   -5.3662   56.1086   83.1176 H   0  0  0  0  0  0
   -6.9758   56.6634   83.6906 H   0  0  0  0  0  0
   -4.3972   55.1020   84.7659 H   0  0  0  0  0  0
   -4.2618   53.2999   86.4633 H   0  0  0  0  0  0
   -8.5162   54.0939   83.9570 H   0  0  0  0  0  0
   -8.3852   52.2711   85.6550 H   0  0  0  0  0  0
   -7.9537   57.7967   87.0219 H   0  0  0  0  0  0
  -10.9600   55.2282   85.4046 H   0  0  0  0  0  0
  1  2  2  0  0  0
  1  3  1  0  0  0
  1  4  1  0  0  0
  1 53  1  0  0  0
  4  5  1  0  0  0
  5  6  1  0  0  0
  5 65  1  0  0  0
  5 66  1  0  0  0
  6  7  1  0  0  0
  6  8  1  0  0  0
  6 67  1  0  0  0
  7 12  1  0  0  0
  8  9  1  0  0  0
  8 10  1  0  0  0
  8 68  1  0  0  0
  9 69  1  0  0  0
 10 11  1  0  0  0
 10 12  1  0  0  0
 10 70  1  0  0  0
 11 71  1  0  0  0
 12 13  1  0  0  0
 12 72  1  0  0  0
 13 14  1  0  0  0
 13 22  1  0  0  0
 14 15  2  0  0  0
 14 73  1  0  0  0
 15 16  1  0  0  0
 16 17  2  0  0  0
 16 22  1  0  0  0
 17 18  1  0  0  0
 17 19  1  0  0  0
 18 74  1  0  0  0
 18 75  1  0  0  0
 19 20  2  0  0  0
 20 21  1  0  0  0
 20 76  1  0  0  0
 21 22  2  0  0  0
 23 24  1  0  0  0
 23 40  1  0  0  0
 23103  1  0  0  0
 24 25  2  0  0  0
 24 26  1  0  0  0
 26 27  1  0  0  0
 26104  1  0  0  0
 27 28  2  0  0  0
 27 29  1  0  0  0
 29 30  1  0  0  0
 29 40  2  0  0  0
 30 31  1  0  0  0
 30 54  1  0  0  0
 31 32  2  0  0  0
 31 38  1  0  0  0
 32 33  1  0  0  0
 32 77  1  0  0  0
 33 34  1  0  0  0
 33 35  2  0  0  0
 34 78  1  0  0  0
 34 79  1  0  0  0
 34 80  1  0  0  0
 35 36  1  0  0  0
 35 37  1  0  0  0
 36 81  1  0  0  0
 36 82  1  0  0  0
 36 83  1  0  0  0
 37 38  2  0  0  0
 37 84  1  0  0  0
 38 39  1  0  0  0
 39 40  1  0  0  0
 39 41  1  0  0  0
 41 42  1  0  0  0
 41 85  1  0  0  0
 41 86  1  0  0  0
 42 43  1  0  0  0
 42 44  1  0  0  0
 42 87  1  0  0  0
 43 88  1  0  0  0
 44 45  1  0  0  0
 44 46  1  0  0  0
 44 89  1  0  0  0
 45 90  1  0  0  0
 46 47  1  0  0  0
 46 48  1  0  0  0
 46 91  1  0  0  0
 47 92  1  0  0  0
 48 49  1  0  0  0
 48 93  1  0  0  0
 48 94  1  0  0  0
 49 50  1  0  0  0
 50 51  2  0  0  0
 50 52  1  0  0  0
 50 53  1  0  0  0
 54 55  2  0  0  0
 54 56  1  0  0  0
 56 57  1  0  0  0
 56 95  1  0  0  0
 56 96  1  0  0  0
 57 58  1  0  0  0
 57 97  1  0  0  0
 57 98  1  0  0  0
 58 59  2  0  0  0
 58 61  1  0  0  0
 59 60  1  0  0  0
 59 99  1  0  0  0
 60 63  2  0  0  0
 60100  1  0  0  0
 61 62  2  0  0  0
 61101  1  0  0  0
 62 63  1  0  0  0
 62102  1  0  0  0
 63 64  1  0  0  0
M  CHG  2   3  -1  52  -1
M  END
> <s_m_source_file>
../2xag_ligand.sdf

> <i_m_source_file_index>
1

> <s_epik_input>
W05IMl1jMW5bY0hdbmMoYzEyKW4oW2NIXW4yKVtDQEBIXShbQ0BIXShbT0hdKVtDQEBIXTNbT0hdKU9bQ0BASF0zW0NIMl1PW1BAXSg9TykoW09IXSlPW1BAQF0oPU8pKFtPSF0pT1tDSDJdW0NAQEhdKFtPSF0pW0NAQEhdKFtPSF0pW0NAQEhdKFtPSF0pW0NIMl1OKGMoYzQ1KW5jKFtPSF0pbmM0W09IXSljNmMoW2NIXWMoW0NIM10pYyhbQ0gzXSlbY0hdNilONUMoPU8pW0NIMl1bQ0gyXWM3W2NIXVtjSF1jKEJyKVtjSF1bY0hdNw==

> <s_epik_cmdline>
J2VwaWtfYXBwJywgJy1pbWFlJywgJ2xpZ2FuZF9wcm8ubWFlJywgJy1vbWFlJywgJ2xpZ2FuZF9wcmVwLm1hZScsICctbXMnLCAnMScsICctcGgnLCAnNycsICctcGh0JywgJzAuNScsICctbnQn

> <r_lp_tautomer_probability>
1

> <r_epik_Ionization_Penalty>
  0.0112

> <r_epik_Ionization_Penalty_Charging>
  0.0029

> <r_epik_Ionization_Penalty_Neutral>
  0.0084

> <r_epik_State_Penalty>
 -0.0000

> <r_epik_Charging_Adjusted_Penalty>
0.00285671522737693

> <i_epik_Tot_Q>
-2

> <i_epik_Tot_abs_Q>
2

> <s_epik_Chemistry_Notes>
This compound contains an acetal/aminal-like group ( X-CH(R)-Y where X, Y are N, S, or O) that may be acid/base labile, releasing an aldehyde.

$$$$
