2xah_ligand
                    3D
 Schrodinger Suite 2020-3.
104110  0  0  1  0            999 V2000
   -6.5740   68.7580   88.2110 P   0  0  2  0  0  0
   -5.5480   69.1520   87.1250 O   0  5  0  0  0  0
   -7.9360   68.1110   87.9360 O   0  0  0  0  0  0
   -7.0070   70.1500   88.9570 O   0  0  0  0  0  0
   -6.0990   71.2080   89.3160 C   0  0  0  0  0  0
   -6.7710   72.5530   89.0910 C   0  0  1  0  0  0
   -5.8420   73.5950   89.3730 O   0  0  0  0  0  0
   -7.1840   72.7600   87.6550 C   0  0  1  0  0  0
   -8.5370   73.1860   87.6880 O   0  0  0  0  0  0
   -6.2940   73.8720   87.1420 C   0  0  1  0  0  0
   -6.9270   74.6780   86.1530 O   0  0  0  0  0  0
   -6.0050   74.6330   88.4160 C   0  0  2  0  0  0
   -4.7870   75.4520   88.3120 N   0  0  0  0  0  0
   -3.6520   75.1090   87.6810 C   0  0  0  0  0  0
   -2.7650   76.1290   87.8060 N   0  0  0  0  0  0
   -3.3720   77.1000   88.5400 C   0  0  0  0  0  0
   -2.9470   78.3580   88.9820 C   0  0  0  0  0  0
   -1.6900   78.7950   88.6540 N   0  0  0  0  0  0
   -3.8300   79.1060   89.7130 N   0  0  0  0  0  0
   -5.0820   78.6540   90.0070 C   0  0  0  0  0  0
   -5.5030   77.4520   89.5950 N   0  0  0  0  0  0
   -4.6620   76.6650   88.8590 C   0  0  0  0  0  0
   -8.4110   59.0030   85.5870 N   0  0  0  0  0  0
   -9.4630   58.1460   85.7470 C   0  0  0  0  0  0
   -9.8830   57.8270   86.8740 O   0  0  0  0  0  0
  -10.1050   57.6100   84.6860 N   0  0  0  0  0  0
   -9.7570   57.9050   83.4210 C   0  0  0  0  0  0
  -10.3970   57.3970   82.4790 O   0  0  0  0  0  0
   -8.7110   58.7750   83.1820 C   0  0  0  0  0  0
   -8.2560   58.9780   81.8680 N   0  0  0  0  0  0
   -7.5700   60.1900   81.6990 C   0  0  0  0  0  0
   -7.5780   60.7310   80.4180 C   0  0  0  0  0  0
   -6.9430   61.9370   80.1730 C   0  0  0  0  0  0
   -6.9580   62.5130   78.7820 C   0  0  0  0  0  0
   -6.2980   62.6020   81.2130 C   0  0  0  0  0  0
   -5.6110   63.9260   80.9590 C   0  0  0  0  0  0
   -6.2900   62.0500   82.4980 C   0  0  0  0  0  0
   -6.9450   60.8420   82.7710 C   0  0  0  0  0  0
   -6.9020   60.2400   84.0820 N   0  0  0  0  0  0
   -7.9940   59.3630   84.3430 C   0  0  0  0  0  0
   -6.4180   61.1550   85.1650 C   0  0  0  0  0  0
   -7.4000   62.0120   85.9560 C   0  0  2  0  0  0
   -8.2230   62.7680   85.0690 O   0  0  0  0  0  0
   -6.6200   62.9890   86.8270 C   0  0  2  0  0  0
   -5.6660   62.2870   87.6310 O   0  0  0  0  0  0
   -7.4940   63.8430   87.7590 C   0  0  2  0  0  0
   -8.7060   64.3830   87.1330 O   0  0  0  0  0  0
   -6.5680   64.9000   88.4280 C   0  0  0  0  0  0
   -7.2700   65.7930   89.3140 O   0  0  0  0  0  0
   -6.4440   66.8140   90.2270 P   0  0  1  0  0  0
   -7.6010   67.4810   90.9650 O   0  0  0  0  0  0
   -5.3470   66.1150   91.0370 O   0  5  0  0  0  0
   -5.7360   67.8940   89.2770 O   0  0  0  0  0  0
   -5.2590   56.8210   82.5470 C   0  0  0  0  0  0
   -4.4730   55.9200   82.2280 O   0  0  0  0  0  0
   -5.8760   57.8060   81.5460 C   0  0  0  0  0  0
   -7.3640   57.7580   81.8690 C   0  0  2  0  0  0
   -7.9130   56.5710   81.1800 C   0  0  0  0  0  0
   -8.3560   56.6520   79.8650 C   0  0  0  0  0  0
   -8.8580   55.4730   79.2930 C   0  0  0  0  0  0
   -8.9300   54.2620   80.0080 C   0  0  0  0  0  0
   -8.4900   54.1850   81.3270 C   0  0  0  0  0  0
   -7.9780   55.3520   81.9040 C   0  0  0  0  0  0
   -5.8224   71.1098   90.3761 H   0  0  0  0  0  0
   -5.1945   71.1420   88.6934 H   0  0  0  0  0  0
   -7.6358   72.6229   89.7672 H   0  0  0  0  0  0
   -7.1505   71.8670   87.0136 H   0  0  0  0  0  0
   -9.3217   72.4986   88.0369 H   0  0  0  0  0  0
   -5.4116   73.5467   86.5714 H   0  0  0  0  0  0
   -7.1920   74.2446   85.1773 H   0  0  0  0  0  0
   -6.7919   75.3392   88.7194 H   0  0  0  0  0  0
   -3.4733   74.1701   87.1570 H   0  0  0  0  0  0
   -1.0207   78.1518   88.0638 H   0  0  0  0  0  0
   -1.3505   79.7889   88.9810 H   0  0  0  0  0  0
   -5.7540   79.2842   90.5895 H   0  0  0  0  0  0
   -8.0837   60.2062   79.6074 H   0  0  0  0  0  0
   -7.5146   61.8405   78.1127 H   0  0  0  0  0  0
   -5.9254   62.6201   78.4184 H   0  0  0  0  0  0
   -7.4450   63.4992   78.7988 H   0  0  0  0  0  0
   -5.7211   64.1988   79.8991 H   0  0  0  0  0  0
   -4.5427   63.8381   81.2060 H   0  0  0  0  0  0
   -6.0698   64.7036   81.5873 H   0  0  0  0  0  0
   -5.7653   62.5683   83.3006 H   0  0  0  0  0  0
   -5.9052   60.5666   85.9401 H   0  0  0  0  0  0
   -5.7183   61.8893   84.7392 H   0  0  0  0  0  0
   -8.0810   61.3767   86.5413 H   0  0  0  0  0  0
   -8.8736   62.2516   84.3478 H   0  0  0  0  0  0
   -6.0641   63.6441   86.1401 H   0  0  0  0  0  0
   -4.9371   61.6131   87.1570 H   0  0  0  0  0  0
   -7.9918   63.2140   88.5117 H   0  0  0  0  0  0
   -9.4171   63.7061   86.6368 H   0  0  0  0  0  0
   -5.7940   64.3880   89.0186 H   0  0  0  0  0  0
   -6.0898   65.5133   87.6501 H   0  0  0  0  0  0
   -5.5513   56.9487   83.5997 H   0  0  0  0  0  0
   -5.4460   58.8062   81.7033 H   0  0  0  0  0  0
   -5.6595   57.4709   80.5209 H   0  0  0  0  0  0
   -7.4148   57.6704   82.9643 H   0  0  0  0  0  0
   -8.3154   57.5863   79.3051 H   0  0  0  0  0  0
   -9.2041   55.4954   78.2597 H   0  0  0  0  0  0
   -9.3352   53.3739   79.5230 H   0  0  0  0  0  0
   -8.5425   53.2519   81.8879 H   0  0  0  0  0  0
   -7.6207   55.3245   82.9334 H   0  0  0  0  0  0
  -10.9388   56.9101   84.8438 H   0  0  0  0  0  0
   -7.8929   59.4085   86.4686 H   0  0  0  0  0  0
  1  2  1  0  0  0
  1  3  2  0  0  0
  1  4  1  0  0  0
  1 53  1  0  0  0
  4  5  1  0  0  0
  5  6  1  0  0  0
  5 64  1  0  0  0
  5 65  1  0  0  0
  6  7  1  0  0  0
  6  8  1  0  0  0
  6 66  1  0  0  0
  7 12  1  0  0  0
  8  9  1  0  0  0
  8 10  1  0  0  0
  8 67  1  0  0  0
  9 68  1  0  0  0
 10 11  1  0  0  0
 10 12  1  0  0  0
 10 69  1  0  0  0
 11 70  1  0  0  0
 12 13  1  0  0  0
 12 71  1  0  0  0
 13 14  1  0  0  0
 13 22  1  0  0  0
 14 15  2  0  0  0
 14 72  1  0  0  0
 15 16  1  0  0  0
 16 17  2  0  0  0
 16 22  1  0  0  0
 17 18  1  0  0  0
 17 19  1  0  0  0
 18 73  1  0  0  0
 18 74  1  0  0  0
 19 20  2  0  0  0
 20 21  1  0  0  0
 20 75  1  0  0  0
 21 22  2  0  0  0
 23 24  1  0  0  0
 23 40  1  0  0  0
 23104  1  0  0  0
 24 25  2  0  0  0
 24 26  1  0  0  0
 26 27  1  0  0  0
 26103  1  0  0  0
 27 28  2  0  0  0
 27 29  1  0  0  0
 29 30  1  0  0  0
 29 40  2  0  0  0
 30 31  1  0  0  0
 30 57  1  0  0  0
 31 32  2  0  0  0
 31 38  1  0  0  0
 32 33  1  0  0  0
 32 76  1  0  0  0
 33 34  1  0  0  0
 33 35  2  0  0  0
 34 77  1  0  0  0
 34 78  1  0  0  0
 34 79  1  0  0  0
 35 36  1  0  0  0
 35 37  1  0  0  0
 36 80  1  0  0  0
 36 81  1  0  0  0
 36 82  1  0  0  0
 37 38  2  0  0  0
 37 83  1  0  0  0
 38 39  1  0  0  0
 39 40  1  0  0  0
 39 41  1  0  0  0
 41 42  1  0  0  0
 41 84  1  0  0  0
 41 85  1  0  0  0
 42 43  1  0  0  0
 42 44  1  0  0  0
 42 86  1  0  0  0
 43 87  1  0  0  0
 44 45  1  0  0  0
 44 46  1  0  0  0
 44 88  1  0  0  0
 45 89  1  0  0  0
 46 47  1  0  0  0
 46 48  1  0  0  0
 46 90  1  0  0  0
 47 91  1  0  0  0
 48 49  1  0  0  0
 48 92  1  0  0  0
 48 93  1  0  0  0
 49 50  1  0  0  0
 50 51  2  0  0  0
 50 52  1  0  0  0
 50 53  1  0  0  0
 54 55  2  0  0  0
 54 56  1  0  0  0
 54 94  1  0  0  0
 56 57  1  0  0  0
 56 95  1  0  0  0
 56 96  1  0  0  0
 57 58  1  0  0  0
 57 97  1  0  0  0
 58 59  2  0  0  0
 58 63  1  0  0  0
 59 60  1  0  0  0
 59 98  1  0  0  0
 60 61  2  0  0  0
 60 99  1  0  0  0
 61 62  1  0  0  0
 61100  1  0  0  0
 62 63  2  0  0  0
 62101  1  0  0  0
 63102  1  0  0  0
M  CHG  2   2  -1  52  -1
M  END
> <s_m_source_file>
../2xah_ligand.sdf

> <i_m_source_file_index>
1

> <s_epik_input>
W05IMl1jMW5bY0hdbmMoYzEyKW4oW2NIXW4yKVtDQEBIXShbQ0BIXShbT0hdKVtDQEBIXTNbT0hdKU9bQ0BASF0zW0NIMl1PW1BAQF0oPU8pKFtPSF0pT1tQQF0oPU8pKFtPSF0pT1tDSDJdW0NAQEhdKFtPSF0pW0NAQEhdKFtPSF0pW0NAQEhdKFtPSF0pW0NIMl1OKGMoYzQ1KW5jKFtPSF0pbmM0W09IXSljNmMoW2NIXWMoW0NIM10pYyhbQ0gzXSlbY0hdNilONVtDQEhdKFtDSDJdW0NIXT1PKWM3W2NIXVtjSF1bY0hdW2NIXVtjSF03

> <s_epik_cmdline>
J2VwaWtfYXBwJywgJy1pbWFlJywgJ2xpZ2FuZF9wcm8ubWFlJywgJy1vbWFlJywgJ2xpZ2FuZF9wcmVwLm1hZScsICctbXMnLCAnMScsICctcGgnLCAnNycsICctcGh0JywgJzAuNScsICctbnQn

> <r_lp_tautomer_probability>
1

> <r_epik_Ionization_Penalty>
  0.0011

> <r_epik_Ionization_Penalty_Charging>
  0.0007

> <r_epik_Ionization_Penalty_Neutral>
  0.0004

> <r_epik_State_Penalty>
 -0.0000

> <r_epik_Charging_Adjusted_Penalty>
0.00071548561724299

> <i_epik_Tot_Q>
-2

> <i_epik_Tot_abs_Q>
2

> <s_epik_Chemistry_Notes>
This compound contains an acetal/aminal-like group ( X-CH(R)-Y where X, Y are N, S, or O) that may be acid/base labile, releasing an aldehyde.

$$$$
