2xaj_ligand
                    3D
 Schrodinger Suite 2020-3.
104110  0  0  1  0            999 V2000
   -6.5830   67.9600   88.7690 P   0  0  2  0  0  0
   -5.6420   68.4610   87.6910 O   0  0  0  0  0  0
   -7.8880   67.2330   88.4410 O   0  5  0  0  0  0
   -7.0320   69.2620   89.6110 O   0  0  0  0  0  0
   -6.1320   70.3600   89.7770 C   0  0  0  0  0  0
   -6.8620   71.6910   89.6660 C   0  0  1  0  0  0
   -5.9200   72.7190   89.9400 O   0  0  0  0  0  0
   -7.3750   71.9390   88.2620 C   0  0  1  0  0  0
   -8.7570   72.3350   88.3320 O   0  0  0  0  0  0
   -6.4640   73.0360   87.7360 C   0  0  1  0  0  0
   -7.0690   73.9190   86.8030 O   0  0  0  0  0  0
   -6.1190   73.7640   89.0030 C   0  0  2  0  0  0
   -4.9060   74.5980   88.8790 N   0  0  0  0  0  0
   -3.7400   74.3110   88.2660 C   0  0  0  0  0  0
   -2.9000   75.3670   88.4250 N   0  0  0  0  0  0
   -3.5580   76.3050   89.1460 C   0  0  0  0  0  0
   -3.1910   77.5660   89.5930 C   0  0  0  0  0  0
   -1.9620   78.0380   89.2960 N   0  0  0  0  0  0
   -4.0600   78.3130   90.3140 N   0  0  0  0  0  0
   -5.4230   77.8440   90.6590 C   0  0  0  0  0  0
   -5.7430   76.5150   90.1460 N   0  0  0  0  0  0
   -4.8280   75.8080   89.4340 C   0  0  0  0  0  0
   -8.1210   58.3150   85.7980 N   0  0  0  0  0  0
   -9.1360   57.4250   85.9370 C   0  0  0  0  0  0
   -9.5730   57.0240   87.1540 O   0  0  0  0  0  0
   -9.7610   56.9040   84.8710 N   0  0  0  0  0  0
   -9.4490   57.2480   83.6120 C   0  0  0  0  0  0
  -10.0760   56.7010   82.5330 O   0  0  0  0  0  0
   -8.2910   58.1060   83.3910 C   0  0  0  0  0  0
   -8.2340   58.7150   82.0660 N   0  0  0  0  0  0
   -7.4430   59.8860   82.0110 C   0  0  0  0  0  0
   -7.4850   60.5850   80.8060 C   0  0  0  0  0  0
   -6.7860   61.7760   80.6420 C   0  0  0  0  0  0
   -6.8220   62.5260   79.3300 C   0  0  0  0  0  0
   -6.0370   62.2760   81.6860 C   0  0  0  0  0  0
   -5.2870   63.5600   81.4510 C   0  0  0  0  0  0
   -6.0020   61.5850   82.9080 C   0  0  0  0  0  0
   -6.7220   60.3900   83.1080 C   0  0  0  0  0  0
   -6.6370   59.6650   84.3570 N   0  0  0  0  0  0
   -7.7200   58.7590   84.5770 C   0  0  0  0  0  0
   -6.1190   60.4250   85.5460 C   0  0  0  0  0  0
   -7.0880   61.3020   86.3360 C   0  0  2  0  0  0
   -7.7760   62.0730   85.3740 O   0  0  0  0  0  0
   -6.3720   62.2550   87.2870 C   0  0  2  0  0  0
   -5.6150   61.4530   88.1650 O   0  0  0  0  0  0
   -7.2770   63.0920   88.1860 C   0  0  2  0  0  0
   -8.3940   63.5990   87.4450 O   0  0  0  0  0  0
   -6.4930   64.2520   88.8370 C   0  0  0  0  0  0
   -7.2310   65.0260   89.8220 O   0  0  0  0  0  0
   -6.4100   65.9880   90.8310 P   0  0  2  0  0  0
   -5.2180   65.3170   91.4770 O   0  5  0  0  0  0
   -7.4950   66.5100   91.7350 O   0  0  0  0  0  0
   -5.7560   67.1320   89.8850 O   0  0  0  0  0  0
   -7.9270   57.6260   81.0860 C   0  0  0  0  0  0
   -8.6050   57.5330   80.0360 O   0  0  0  0  0  0
   -6.8790   56.5380   81.2960 C   0  0  0  0  0  0
   -5.9220   56.7570   82.4500 C   0  0  0  0  0  0
   -6.0350   55.6100   83.4350 C   0  0  0  0  0  0
   -4.8910   55.2090   84.1540 C   0  0  0  0  0  0
   -4.9570   54.1610   85.0810 C   0  0  0  0  0  0
   -6.1910   53.5170   85.2710 C   0  0  0  0  0  0
   -7.3410   53.9040   84.5620 C   0  0  0  0  0  0
   -7.2600   54.9510   83.6410 C   0  0  0  0  0  0
   -5.6597   70.3003   90.7687 H   0  0  0  0  0  0
   -5.3561   70.3191   88.9983 H   0  0  0  0  0  0
   -7.6876   71.7302   90.3919 H   0  0  0  0  0  0
   -7.4045   71.0641   87.5958 H   0  0  0  0  0  0
   -9.5144   71.6260   88.6976 H   0  0  0  0  0  0
   -5.6282   72.6691   87.1222 H   0  0  0  0  0  0
   -7.3850   73.5458   85.8177 H   0  0  0  0  0  0
   -6.9056   74.4563   89.3377 H   0  0  0  0  0  0
   -3.5102   73.3883   87.7332 H   0  0  0  0  0  0
   -1.2635   77.4230   88.7096 H   0  0  0  0  0  0
   -1.6588   79.0377   89.6404 H   0  0  0  0  0  0
   -6.1245   78.4387   91.2440 H   0  0  0  0  0  0
   -7.5987   58.6969   86.6876 H   0  0  0  0  0  0
  -10.5633   56.1646   85.0109 H   0  0  0  0  0  0
   -8.0755   60.1917   79.9785 H   0  0  0  0  0  0
   -7.4632   61.9870   78.6170 H   0  0  0  0  0  0
   -5.8030   62.6011   78.9225 H   0  0  0  0  0  0
   -7.2259   63.5356   79.4958 H   0  0  0  0  0  0
   -5.4693   63.9083   80.4237 H   0  0  0  0  0  0
   -4.2101   63.3870   81.5939 H   0  0  0  0  0  0
   -5.6336   64.3228   82.1638 H   0  0  0  0  0  0
   -5.4010   61.9842   83.7250 H   0  0  0  0  0  0
   -5.7168   59.7178   86.2863 H   0  0  0  0  0  0
   -5.3220   61.1112   85.2237 H   0  0  0  0  0  0
   -7.8029   60.6946   86.9104 H   0  0  0  0  0  0
   -8.3622   61.5755   84.5873 H   0  0  0  0  0  0
   -5.7414   62.9250   86.6841 H   0  0  0  0  0  0
   -4.8737   60.7464   87.7635 H   0  0  0  0  0  0
   -7.7226   62.4455   88.9564 H   0  0  0  0  0  0
   -9.0630   62.9051   86.9150 H   0  0  0  0  0  0
   -5.6083   63.8520   89.3539 H   0  0  0  0  0  0
   -6.1737   64.9609   88.0589 H   0  0  0  0  0  0
   -7.3805   55.5786   81.4910 H   0  0  0  0  0  0
   -6.2564   56.4495   80.3935 H   0  0  0  0  0  0
   -4.8919   56.8080   82.0675 H   0  0  0  0  0  0
   -6.1711   57.6997   82.9591 H   0  0  0  0  0  0
   -3.9432   55.7207   83.9866 H   0  0  0  0  0  0
   -4.0737   53.8531   85.6405 H   0  0  0  0  0  0
   -6.2581   52.6970   85.9859 H   0  0  0  0  0  0
   -8.2883   53.3914   84.7294 H   0  0  0  0  0  0
   -8.1449   55.2567   83.0829 H   0  0  0  0  0  0
  1  2  2  0  0  0
  1  3  1  0  0  0
  1  4  1  0  0  0
  1 53  1  0  0  0
  4  5  1  0  0  0
  5  6  1  0  0  0
  5 64  1  0  0  0
  5 65  1  0  0  0
  6  7  1  0  0  0
  6  8  1  0  0  0
  6 66  1  0  0  0
  7 12  1  0  0  0
  8  9  1  0  0  0
  8 10  1  0  0  0
  8 67  1  0  0  0
  9 68  1  0  0  0
 10 11  1  0  0  0
 10 12  1  0  0  0
 10 69  1  0  0  0
 11 70  1  0  0  0
 12 13  1  0  0  0
 12 71  1  0  0  0
 13 14  1  0  0  0
 13 22  1  0  0  0
 14 15  2  0  0  0
 14 72  1  0  0  0
 15 16  1  0  0  0
 16 17  2  0  0  0
 16 22  1  0  0  0
 17 18  1  0  0  0
 17 19  1  0  0  0
 18 73  1  0  0  0
 18 74  1  0  0  0
 19 20  2  0  0  0
 20 21  1  0  0  0
 20 75  1  0  0  0
 21 22  2  0  0  0
 23 24  1  0  0  0
 23 40  1  0  0  0
 23 76  1  0  0  0
 24 25  2  0  0  0
 24 26  1  0  0  0
 26 27  1  0  0  0
 26 77  1  0  0  0
 27 28  2  0  0  0
 27 29  1  0  0  0
 29 30  1  0  0  0
 29 40  2  0  0  0
 30 31  1  0  0  0
 30 54  1  0  0  0
 31 32  2  0  0  0
 31 38  1  0  0  0
 32 33  1  0  0  0
 32 78  1  0  0  0
 33 34  1  0  0  0
 33 35  2  0  0  0
 34 79  1  0  0  0
 34 80  1  0  0  0
 34 81  1  0  0  0
 35 36  1  0  0  0
 35 37  1  0  0  0
 36 82  1  0  0  0
 36 83  1  0  0  0
 36 84  1  0  0  0
 37 38  2  0  0  0
 37 85  1  0  0  0
 38 39  1  0  0  0
 39 40  1  0  0  0
 39 41  1  0  0  0
 41 42  1  0  0  0
 41 86  1  0  0  0
 41 87  1  0  0  0
 42 43  1  0  0  0
 42 44  1  0  0  0
 42 88  1  0  0  0
 43 89  1  0  0  0
 44 45  1  0  0  0
 44 46  1  0  0  0
 44 90  1  0  0  0
 45 91  1  0  0  0
 46 47  1  0  0  0
 46 48  1  0  0  0
 46 92  1  0  0  0
 47 93  1  0  0  0
 48 49  1  0  0  0
 48 94  1  0  0  0
 48 95  1  0  0  0
 49 50  1  0  0  0
 50 51  1  0  0  0
 50 52  2  0  0  0
 50 53  1  0  0  0
 54 55  2  0  0  0
 54 56  1  0  0  0
 56 57  1  0  0  0
 56 96  1  0  0  0
 56 97  1  0  0  0
 57 58  1  0  0  0
 57 98  1  0  0  0
 57 99  1  0  0  0
 58 59  2  0  0  0
 58 63  1  0  0  0
 59 60  1  0  0  0
 59100  1  0  0  0
 60 61  2  0  0  0
 60101  1  0  0  0
 61 62  1  0  0  0
 61102  1  0  0  0
 62 63  2  0  0  0
 62103  1  0  0  0
 63104  1  0  0  0
M  CHG  2   3  -1  51  -1
M  END
> <s_m_source_file>
../2xaj_ligand.sdf

> <i_m_source_file_index>
1

> <s_epik_input>
W05IMl1jMW5bY0hdbmMoYzEyKW4oW2NIXW4yKVtDQEBIXShbQ0BIXShbT0hdKVtDQEBIXTNbT0hdKU9bQ0BASF0zW0NIMl1PW1BAXSg9TykoW09IXSlPW1BAXSg9TykoW09IXSlPW0NIMl1bQ0BASF0oW09IXSlbQ0BASF0oW09IXSlbQ0BASF0oW09IXSlbQ0gyXU4oYyhjNDUpW25IXWMoPU8pW25IXWM0PU8pYzZjKFtjSF1jKFtDSDNdKWMoW0NIM10pW2NIXTYpTjVDKD1PKVtDSDJdW0NIMl1jN1tjSF1bY0hdW2NIXVtjSF1bY0hdNw==

> <s_epik_cmdline>
J2VwaWtfYXBwJywgJy1pbWFlJywgJ2xpZ2FuZF9wcm8ubWFlJywgJy1vbWFlJywgJ2xpZ2FuZF9wcmVwLm1hZScsICctbXMnLCAnMScsICctcGgnLCAnNycsICctcGh0JywgJzAuNScsICctbnQn

> <r_lp_tautomer_probability>
1

> <r_epik_Ionization_Penalty>
  0.0112

> <r_epik_Ionization_Penalty_Charging>
  0.0029

> <r_epik_Ionization_Penalty_Neutral>
  0.0084

> <r_epik_State_Penalty>
 -0.0000

> <r_epik_Charging_Adjusted_Penalty>
0.00285671522737693

> <i_epik_Tot_Q>
-2

> <i_epik_Tot_abs_Q>
2

> <s_epik_Chemistry_Notes>
This compound contains an acetal/aminal-like group ( X-CH(R)-Y where X, Y are N, S, or O) that may be acid/base labile, releasing an aldehyde.

$$$$
