2xas_ligand
                    3D
 Schrodinger Suite 2020-3.
142150  0  0  1  0            999 V2000
   -6.7200   67.7450   88.7910 P   0  0  2  0  0  0
   -5.7870   68.2580   87.6990 O   0  0  0  0  0  0
   -8.0980   67.1570   88.4750 O   0  5  0  0  0  0
   -7.0940   69.0460   89.6830 O   0  0  0  0  0  0
   -6.2210   70.1860   89.7270 C   0  0  0  0  0  0
   -6.9910   71.4910   89.6210 C   0  0  1  0  0  0
   -6.0590   72.5390   89.8050 O   0  0  0  0  0  0
   -7.5610   71.6990   88.2300 C   0  0  1  0  0  0
   -8.9380   72.1100   88.3420 O   0  0  0  0  0  0
   -6.6710   72.7700   87.6110 C   0  0  1  0  0  0
   -7.3590   73.5920   86.6830 O   0  0  0  0  0  0
   -6.3160   73.5480   88.8360 C   0  0  2  0  0  0
   -5.1250   74.4050   88.7470 N   0  0  0  0  0  0
   -3.9360   74.1690   88.1700 C   0  0  0  0  0  0
   -3.1040   75.2320   88.3960 N   0  0  0  0  0  0
   -3.8010   76.1330   89.1380 C   0  0  0  0  0  0
   -3.4810   77.3880   89.6560 C   0  0  0  0  0  0
   -2.2780   77.9310   89.4290 N   0  0  0  0  0  0
   -4.3850   78.0780   90.3750 N   0  0  0  0  0  0
   -5.7520   77.5760   90.6480 C   0  0  0  0  0  0
   -6.0280   76.2660   90.0670 N   0  0  0  0  0  0
   -5.0790   75.5960   89.3550 C   0  0  0  0  0  0
   -8.1500   58.1310   85.8470 N   0  0  0  0  0  0
   -9.1360   57.1970   85.9990 C   0  0  0  0  0  0
   -9.4900   56.7590   87.2380 O   0  0  0  0  0  0
   -9.7920   56.6740   84.9390 N   0  0  0  0  0  0
   -9.5030   57.0610   83.6840 C   0  0  0  0  0  0
  -10.1600   56.5420   82.6100 O   0  0  0  0  0  0
   -8.5180   57.9930   83.4720 C   0  0  0  0  0  0
   -8.2570   58.3960   82.1580 N   0  0  0  0  0  0
   -7.5520   59.6110   82.0200 C   0  0  0  0  0  0
   -7.6260   60.2270   80.7760 C   0  0  0  0  0  0
   -7.0110   61.4410   80.5400 C   0  0  0  0  0  0
   -7.0900   62.0580   79.1680 C   0  0  0  0  0  0
   -6.3180   62.0660   81.5660 C   0  0  0  0  0  0
   -5.6420   63.3910   81.2940 C   0  0  0  0  0  0
   -6.2580   61.4480   82.8310 C   0  0  0  0  0  0
   -6.9020   60.2270   83.0870 C   0  0  0  0  0  0
   -6.8050   59.5620   84.3560 N   0  0  0  0  0  0
   -7.8230   58.6010   84.6190 C   0  0  0  0  0  0
   -6.2870   60.3420   85.5080 C   0  0  0  0  0  0
   -7.2920   61.1480   86.3060 C   0  0  2  0  0  0
   -8.0380   61.9560   85.4060 O   0  0  0  0  0  0
   -6.5520   62.0660   87.2620 C   0  0  2  0  0  0
   -5.6760   61.2700   88.0480 O   0  0  0  0  0  0
   -7.4850   62.8250   88.1930 C   0  0  2  0  0  0
   -8.6310   63.2800   87.4450 O   0  0  0  0  0  0
   -6.6820   63.9520   88.8800 C   0  0  0  0  0  0
   -7.4200   64.7090   89.8710 O   0  0  0  0  0  0
   -6.6010   65.7130   90.8370 P   0  0  2  0  0  0
   -5.4800   65.0170   91.5800 O   0  0  0  0  0  0
   -7.6750   66.3650   91.6880 O   0  5  0  0  0  0
   -5.9010   66.8010   89.8390 O   0  0  0  0  0  0
   -7.8880   57.2900   81.2760 C   0  0  0  0  0  0
   -8.4650   57.2550   80.1840 O   0  0  0  0  0  0
   -6.9230   56.2040   81.7000 C   0  0  0  0  0  0
   -6.0480   56.6430   82.8560 C   0  0  0  0  0  0
   -6.0620   55.5310   83.8730 C   0  0  0  0  0  0
   -7.2660   54.9230   84.2140 C   0  0  0  0  0  0
   -7.2890   53.8880   85.1450 C   0  0  0  0  0  0
   -4.8670   55.0950   84.4560 C   0  0  0  0  0  0
   -4.8890   54.0580   85.3850 C   0  0  0  0  0  0
   -6.1090   53.4490   85.7530 C   0  0  0  0  0  0
   -6.1730   52.3650   86.6810 N   0  0  0  0  0  0
   -5.0730   51.8640   87.2780 C   0  0  0  0  0  0
   -3.9410   52.3340   87.0870 O   0  0  0  0  0  0
   -5.2220   50.6760   88.2050 C   0  0  2  0  0  0
   -3.8020   50.0870   88.3220 C   0  0  0  0  0  0
   -3.6150   48.6620   88.8070 C   0  0  0  0  0  0
   -3.1620   47.6860   87.9130 C   0  0  0  0  0  0
   -2.9640   46.3740   88.3490 C   0  0  0  0  0  0
   -3.1950   46.0520   89.6850 C   0  0  0  0  0  0
   -3.6270   47.0280   90.5780 C   0  0  0  0  0  0
   -3.8370   48.3330   90.1440 C   0  0  0  0  0  0
   -6.0900   49.6260   87.6710 N   0  0  0  0  0  0
   -5.9080   48.9310   86.5150 C   0  0  0  0  0  0
   -6.7380   48.0670   86.2130 O   0  0  0  0  0  0
   -4.7370   49.1590   85.6100 O   0  0  0  0  0  0
   -4.6880   48.8700   84.1900 C   0  0  0  0  0  0
   -5.3230   49.9300   83.2800 C   0  0  0  0  0  0
   -6.6600   49.7940   82.8540 C   0  0  0  0  0  0
   -7.2620   50.7450   82.0190 C   0  0  0  0  0  0
   -6.5090   51.8480   81.6070 C   0  0  0  0  0  0
   -5.1740   51.9940   82.0160 C   0  0  0  0  0  0
   -4.5790   51.0410   82.8480 C   0  0  0  0  0  0
   -5.6679   70.1878   90.6779 H   0  0  0  0  0  0
   -5.5098   70.1358   88.8893 H   0  0  0  0  0  0
   -7.7792   71.5251   90.3876 H   0  0  0  0  0  0
   -7.6198   70.7965   87.6038 H   0  0  0  0  0  0
   -9.6830   71.4253   88.7735 H   0  0  0  0  0  0
   -5.8390   72.4101   86.9879 H   0  0  0  0  0  0
   -7.6948   73.1749   85.7221 H   0  0  0  0  0  0
   -7.1306   74.2411   89.0931 H   0  0  0  0  0  0
   -3.6743   73.2716   87.6095 H   0  0  0  0  0  0
   -1.5276   77.3800   88.8431 H   0  0  0  0  0  0
   -2.0403   78.9279   89.8285 H   0  0  0  0  0  0
   -6.4851   78.1345   91.2300 H   0  0  0  0  0  0
   -8.1798   59.7428   79.9717 H   0  0  0  0  0  0
   -7.6812   61.4073   78.5069 H   0  0  0  0  0  0
   -6.0755   62.1723   78.7584 H   0  0  0  0  0  0
   -7.5709   63.0449   79.2369 H   0  0  0  0  0  0
   -5.8173   63.6842   80.2484 H   0  0  0  0  0  0
   -4.5607   63.2942   81.4713 H   0  0  0  0  0  0
   -6.0562   64.1584   81.9644 H   0  0  0  0  0  0
   -5.6971   61.9304   83.6315 H   0  0  0  0  0  0
   -5.8170   59.6594   86.2313 H   0  0  0  0  0  0
   -5.5422   61.0696   85.1530 H   0  0  0  0  0  0
   -8.0021   60.4941   86.8334 H   0  0  0  0  0  0
   -8.6517   61.4854   84.6238 H   0  0  0  0  0  0
   -5.9508   62.7864   86.6879 H   0  0  0  0  0  0
   -4.9181   60.6400   87.5595 H   0  0  0  0  0  0
   -7.9428   62.1864   88.9628 H   0  0  0  0  0  0
   -9.2681   62.5538   86.9189 H   0  0  0  0  0  0
   -5.8116   63.5201   89.3956 H   0  0  0  0  0  0
   -6.3393   64.6723   88.1225 H   0  0  0  0  0  0
   -7.4878   55.3142   82.0150 H   0  0  0  0  0  0
   -6.2698   55.9432   80.8542 H   0  0  0  0  0  0
   -5.0251   56.8232   82.4938 H   0  0  0  0  0  0
   -6.4517   57.5695   83.2902 H   0  0  0  0  0  0
   -8.1941   55.2580   83.7509 H   0  0  0  0  0  0
   -8.2367   53.4151   85.4025 H   0  0  0  0  0  0
   -3.9222   55.5655   84.1839 H   0  0  0  0  0  0
   -3.9566   53.7133   85.8321 H   0  0  0  0  0  0
   -7.1433   51.9105   86.9297 H   0  0  0  0  0  0
   -5.7096   50.9897   89.1398 H   0  0  0  0  0  0
   -3.3173   50.0998   87.3346 H   0  0  0  0  0  0
   -3.2120   50.6899   89.0279 H   0  0  0  0  0  0
   -2.9632   47.9499   86.8743 H   0  0  0  0  0  0
   -2.6312   45.6074   87.6493 H   0  0  0  0  0  0
   -3.0366   45.0310   90.0322 H   0  0  0  0  0  0
   -3.8016   46.7688   91.6222 H   0  0  0  0  0  0
   -4.1738   49.0955   90.8463 H   0  0  0  0  0  0
   -6.9956   49.3289   88.2201 H   0  0  0  0  0  0
   -3.6395   48.7742   83.8713 H   0  0  0  0  0  0
   -5.2199   47.9284   83.9889 H   0  0  0  0  0  0
   -7.2383   48.9300   83.1813 H   0  0  0  0  0  0
   -8.2967   50.6268   81.6973 H   0  0  0  0  0  0
   -6.9622   52.6013   80.9626 H   0  0  0  0  0  0
   -4.5972   52.8566   81.6825 H   0  0  0  0  0  0
   -3.5415   51.1594   83.1605 H   0  0  0  0  0  0
   -7.6112   58.5103   86.7278 H   0  0  0  0  0  0
  -10.5765   55.9190   85.0956 H   0  0  0  0  0  0
  1  2  2  0  0  0
  1  3  1  0  0  0
  1  4  1  0  0  0
  1 53  1  0  0  0
  4  5  1  0  0  0
  5  6  1  0  0  0
  5 86  1  0  0  0
  5 87  1  0  0  0
  6  7  1  0  0  0
  6  8  1  0  0  0
  6 88  1  0  0  0
  7 12  1  0  0  0
  8  9  1  0  0  0
  8 10  1  0  0  0
  8 89  1  0  0  0
  9 90  1  0  0  0
 10 11  1  0  0  0
 10 12  1  0  0  0
 10 91  1  0  0  0
 11 92  1  0  0  0
 12 13  1  0  0  0
 12 93  1  0  0  0
 13 14  1  0  0  0
 13 22  1  0  0  0
 14 15  2  0  0  0
 14 94  1  0  0  0
 15 16  1  0  0  0
 16 17  2  0  0  0
 16 22  1  0  0  0
 17 18  1  0  0  0
 17 19  1  0  0  0
 18 95  1  0  0  0
 18 96  1  0  0  0
 19 20  2  0  0  0
 20 21  1  0  0  0
 20 97  1  0  0  0
 21 22  2  0  0  0
 23 24  1  0  0  0
 23 40  1  0  0  0
 23141  1  0  0  0
 24 25  2  0  0  0
 24 26  1  0  0  0
 26 27  1  0  0  0
 26142  1  0  0  0
 27 28  2  0  0  0
 27 29  1  0  0  0
 29 30  1  0  0  0
 29 40  2  0  0  0
 30 31  1  0  0  0
 30 54  1  0  0  0
 31 32  2  0  0  0
 31 38  1  0  0  0
 32 33  1  0  0  0
 32 98  1  0  0  0
 33 34  1  0  0  0
 33 35  2  0  0  0
 34 99  1  0  0  0
 34100  1  0  0  0
 34101  1  0  0  0
 35 36  1  0  0  0
 35 37  1  0  0  0
 36102  1  0  0  0
 36103  1  0  0  0
 36104  1  0  0  0
 37 38  2  0  0  0
 37105  1  0  0  0
 38 39  1  0  0  0
 39 40  1  0  0  0
 39 41  1  0  0  0
 41 42  1  0  0  0
 41106  1  0  0  0
 41107  1  0  0  0
 42 43  1  0  0  0
 42 44  1  0  0  0
 42108  1  0  0  0
 43109  1  0  0  0
 44 45  1  0  0  0
 44 46  1  0  0  0
 44110  1  0  0  0
 45111  1  0  0  0
 46 47  1  0  0  0
 46 48  1  0  0  0
 46112  1  0  0  0
 47113  1  0  0  0
 48 49  1  0  0  0
 48114  1  0  0  0
 48115  1  0  0  0
 49 50  1  0  0  0
 50 51  2  0  0  0
 50 52  1  0  0  0
 50 53  1  0  0  0
 54 55  2  0  0  0
 54 56  1  0  0  0
 56 57  1  0  0  0
 56116  1  0  0  0
 56117  1  0  0  0
 57 58  1  0  0  0
 57118  1  0  0  0
 57119  1  0  0  0
 58 59  2  0  0  0
 58 61  1  0  0  0
 59 60  1  0  0  0
 59120  1  0  0  0
 60 63  2  0  0  0
 60121  1  0  0  0
 61 62  2  0  0  0
 61122  1  0  0  0
 62 63  1  0  0  0
 62123  1  0  0  0
 63 64  1  0  0  0
 64 65  1  0  0  0
 64124  1  0  0  0
 65 66  2  0  0  0
 65 67  1  0  0  0
 67 68  1  0  0  0
 67 75  1  0  0  0
 67125  1  0  0  0
 68 69  1  0  0  0
 68126  1  0  0  0
 68127  1  0  0  0
 69 70  2  0  0  0
 69 74  1  0  0  0
 70 71  1  0  0  0
 70128  1  0  0  0
 71 72  2  0  0  0
 71129  1  0  0  0
 72 73  1  0  0  0
 72130  1  0  0  0
 73 74  2  0  0  0
 73131  1  0  0  0
 74132  1  0  0  0
 75 76  1  0  0  0
 75133  1  0  0  0
 76 77  2  0  0  0
 76 78  1  0  0  0
 78 79  1  0  0  0
 79 80  1  0  0  0
 79134  1  0  0  0
 79135  1  0  0  0
 80 81  2  0  0  0
 80 85  1  0  0  0
 81 82  1  0  0  0
 81136  1  0  0  0
 82 83  2  0  0  0
 82137  1  0  0  0
 83 84  1  0  0  0
 83138  1  0  0  0
 84 85  2  0  0  0
 84139  1  0  0  0
 85140  1  0  0  0
M  CHG  2   3  -1  52  -1
M  END
> <s_m_source_file>
../2xas_ligand.sdf

> <i_m_source_file_index>
1

> <s_epik_input>
W05IMl1jMW5bY0hdbmMoYzEyKW4oW2NIXW4yKVtDQEBIXShbQ0BIXShbT0hdKVtDQEBIXTNbT0hdKU9bQ0BASF0zW0NIMl1PW1BAXSg9TykoW09IXSlPW1BAQF0oPU8pKFtPSF0pT1tDSDJdW0NAQEhdKFtPSF0pW0NAQEhdKFtPSF0pW0NAQEhdKFtPSF0pW0NIMl1OKGMoYzQ1KW5jKFtPSF0pbmM0W09IXSljNmMoW2NIXWMoW0NIM10pYyhbQ0gzXSlbY0hdNilONUMoPU8pW0NIMl1bQ0gyXWM3W2NIXVtjSF1jKFtjSF1bY0hdNylbTkhdQyg9TylbQ0BIXShbQ0gyXWM4W2NIXVtjSF1bY0hdW2NIXVtjSF04KVtOSF1DKD1PKU9bQ0gyXWM5W2NIXVtjSF1bY0hdW2NIXVtjSF05

> <s_epik_cmdline>
J2VwaWtfYXBwJywgJy1pbWFlJywgJ2xpZ2FuZF9wcm8ubWFlJywgJy1vbWFlJywgJ2xpZ2FuZF9wcmVwLm1hZScsICctbXMnLCAnMScsICctcGgnLCAnNycsICctcGh0JywgJzAuNScsICctbnQn

> <r_lp_tautomer_probability>
1

> <r_epik_Ionization_Penalty>
  0.0112

> <r_epik_Ionization_Penalty_Charging>
  0.0029

> <r_epik_Ionization_Penalty_Neutral>
  0.0084

> <r_epik_State_Penalty>
 -0.0000

> <r_epik_Charging_Adjusted_Penalty>
0.00285671522737693

> <i_epik_Tot_Q>
-2

> <i_epik_Tot_abs_Q>
2

> <s_epik_Chemistry_Notes>
This compound has an ester and may undergo hydrolysis at high or low pH. This compound contains an acetal/aminal-like group ( X-CH(R)-Y where X, Y are N, S, or O) that may be acid/base labile, releasing an aldehyde.

$$$$
