2xb9_ligand
                    3D
 Schrodinger Suite 2020-3.
 39 40  0  0  1  0            999 V2000
  -25.7840   50.9720   20.0910 C   0  0  0  0  0  0
  -25.3440   49.6590   19.7320 O   0  0  0  0  0  0
  -25.3320   49.3550   18.3840 C   0  0  0  0  0  0
  -24.5500   48.3120   17.9120 C   0  0  0  0  0  0
  -24.5360   47.9630   16.5560 C   0  0  0  0  0  0
  -26.0870   50.0560   17.4450 C   0  0  0  0  0  0
  -26.0610   49.7220   16.0790 C   0  0  0  0  0  0
  -25.2670   48.6720   15.5990 C   0  0  0  0  0  0
  -25.2710   48.2810   14.0750 C   0  0  0  0  0  0
  -24.1480   48.7800   13.2100 C   0  0  1  0  0  0
  -22.9400   48.0570   13.6940 C   0  0  0  0  0  0
  -23.0620   47.1330   14.5070 O   0  0  0  0  0  0
  -21.6050   48.4160   12.9860 C   0  0  1  0  0  0
  -20.4790   47.7140   13.5780 O   0  0  0  0  0  0
  -21.8160   48.1050   11.4780 C   0  0  2  0  0  0
  -20.6560   48.4410   10.7520 O   0  0  0  0  0  0
  -23.0350   48.8630   10.9140 C   0  0  0  0  0  0
  -24.3000   48.4620   11.6770 C   0  0  2  0  0  0
  -25.4730   49.2550   11.1380 C   0  0  0  0  0  0
  -25.3330   50.4930   10.9930 O   0  5  0  0  0  0
  -26.5090   48.6050   10.9410 O   0  0  0  0  0  0
  -24.5540   47.0660   11.3660 O   0  0  0  0  0  0
  -25.7464   51.0851   21.1845 H   0  0  0  0  0  0
  -26.8166   51.1208   19.7423 H   0  0  0  0  0  0
  -25.1273   51.7197   19.6222 H   0  0  0  0  0  0
  -23.9318   47.7507   18.6126 H   0  0  0  0  0  0
  -23.9357   47.1111   16.2367 H   0  0  0  0  0  0
  -26.7132   50.8838   17.7777 H   0  0  0  0  0  0
  -26.6716   50.2921   15.3788 H   0  0  0  0  0  0
  -25.2388   47.1858   13.9774 H   0  0  0  0  0  0
  -26.1862   48.6646   13.6004 H   0  0  0  0  0  0
  -24.1005   49.8712   13.3404 H   0  0  0  0  0  0
  -21.2863   49.4569   13.1438 H   0  0  0  0  0  0
  -20.2373   47.8599   14.6412 H   0  0  0  0  0  0
  -21.9329   47.0242   11.3103 H   0  0  0  0  0  0
  -19.6893   47.9898   11.0202 H   0  0  0  0  0  0
  -22.8754   49.9460   11.0219 H   0  0  0  0  0  0
  -23.1606   48.6152    9.8497 H   0  0  0  0  0  0
  -23.8284   46.2951   11.6647 H   0  0  0  0  0  0
  1  2  1  0  0  0
  1 23  1  0  0  0
  1 24  1  0  0  0
  1 25  1  0  0  0
  2  3  1  0  0  0
  3  4  2  0  0  0
  3  6  1  0  0  0
  4  5  1  0  0  0
  4 26  1  0  0  0
  5  8  2  0  0  0
  5 27  1  0  0  0
  6  7  2  0  0  0
  6 28  1  0  0  0
  7  8  1  0  0  0
  7 29  1  0  0  0
  8  9  1  0  0  0
  9 10  1  0  0  0
  9 30  1  0  0  0
  9 31  1  0  0  0
 10 11  1  0  0  0
 10 18  1  0  0  0
 10 32  1  0  0  0
 11 12  2  0  0  0
 11 13  1  0  0  0
 13 14  1  0  0  0
 13 15  1  0  0  0
 13 33  1  0  0  0
 14 34  1  0  0  0
 15 16  1  0  0  0
 15 17  1  0  0  0
 15 35  1  0  0  0
 16 36  1  0  0  0
 17 18  1  0  0  0
 17 37  1  0  0  0
 17 38  1  0  0  0
 18 19  1  0  0  0
 18 22  1  0  0  0
 19 20  1  0  0  0
 19 21  2  0  0  0
 22 39  1  0  0  0
M  CHG  1  20  -1
M  END
> <s_m_source_file>
../2xb9_ligand.sdf

> <i_m_source_file_index>
1

> <s_epik_input>
W0NIM11PYzFbY0hdW2NIXWMoW2NIXVtjSF0xKVtDSDJdW0NASF0oW0NAQF0yKFtPSF0pQyg9TylbT0hdKUMoPU8pW0NAQEhdKFtPSF0pW0NASF0oW09IXSlbQ0gyXTI=

> <s_epik_cmdline>
J2VwaWtfYXBwJywgJy1pbWFlJywgJ2xpZ2FuZF9wcm8ubWFlJywgJy1vbWFlJywgJ2xpZ2FuZF9wcmVwLm1hZScsICctbXMnLCAnMScsICctcGgnLCAnNycsICctcGh0JywgJzAuNScsICctbnQn

> <r_lp_tautomer_probability>
1

> <r_epik_Ionization_Penalty>
  0.0001

> <r_epik_Ionization_Penalty_Charging>
  0.0001

> <r_epik_Ionization_Penalty_Neutral>
  0.0000

> <r_epik_State_Penalty>
 -0.0000

> <r_epik_Charging_Adjusted_Penalty>
9.39619022213023e-05

> <i_epik_Tot_Q>
-1

> <i_epik_Tot_abs_Q>
1

$$$$
