2xbj_ligand
                    3D
 Schrodinger Suite 2020-3.
 64 67  0  0  1  0            999 V2000
   -5.6570   49.1970    8.3030 C   0  0  0  0  0  0
   -5.0930   49.7040    9.6490 C   0  0  2  0  0  0
   -6.0390   50.1640   10.7390 C   0  0  1  0  0  0
   -7.5380   50.1220   10.5200 C   0  0  0  0  0  0
   -8.0920   49.6180    9.1760 C   0  0  0  0  0  0
   -9.5140   49.5970    9.0270 N   0  3  0  0  0  0
  -10.0780   49.1710    7.7670 C   0  0  0  0  0  0
   -9.2180   48.6660    6.7030 N   0  0  0  0  0  0
   -7.8380   48.6950    6.8440 C   0  0  0  0  0  0
   -7.2020   49.1650    8.0990 C   0  0  0  0  0  0
   -7.2250   48.1390    5.6580 N   0  0  0  0  0  0
   -7.4610   47.3480    4.4390 C   0  0  1  0  0  0
   -6.3830   47.0240    3.4740 C   0  0  1  0  0  0
   -6.7070   45.6410    2.9860 C   0  0  0  0  0  0
   -8.1030   45.3460    3.4240 N   0  3  0  0  0  0
   -8.2530   46.1110    4.6940 C   0  0  0  0  0  0
   -6.2000   48.1170    2.4490 C   0  0  0  0  0  0
   -5.1380   47.7370    1.4370 C   0  0  0  0  0  0
   -7.5300   48.3100    1.7660 C   0  0  0  0  0  0
   -5.8590   49.2890    3.0840 O   0  0  0  0  0  0
  -11.5370   49.0530    7.5400 C   0  0  0  0  0  0
  -12.4270   49.2830    8.6090 C   0  0  0  0  0  0
  -13.8760   49.0610    8.4030 C   0  0  0  0  0  0
  -14.3410   48.6080    7.1160 C   0  0  0  0  0  0
  -13.3570   48.3480    5.9830 C   0  0  0  0  0  0
  -12.0100   48.5520    6.1740 C   0  0  0  0  0  0
  -13.7770   47.9330    4.8020 F   0  0  0  0  0  0
  -11.9090   49.7200    9.8140 O   0  5  0  0  0  0
   -5.6130   50.6330   11.9800 O   0  0  0  0  0  0
   -6.5600   50.6360   13.0110 C   0  0  0  0  0  0
   -3.7240   49.7410    9.8470 O   0  0  0  0  0  0
   -2.8890   49.3220    8.8110 C   0  0  0  0  0  0
   -5.2826   49.8316    7.4862 H   0  0  0  0  0  0
   -5.3340   48.1585    8.1379 H   0  0  0  0  0  0
   -5.0569   50.7278    9.2483 H   0  0  0  0  0  0
   -6.0085   51.1863   10.3341 H   0  0  0  0  0  0
   -7.9996   49.4614   11.2687 H   0  0  0  0  0  0
   -7.9519   51.1361   10.6210 H   0  0  0  0  0  0
   -6.2186   48.5253    5.8767 H   0  0  0  0  0  0
   -8.0025   48.1467    3.9110 H   0  0  0  0  0  0
   -5.3800   46.9960    3.9249 H   0  0  0  0  0  0
   -6.6270   45.6110    1.8893 H   0  0  0  0  0  0
   -5.9996   44.9221    3.4250 H   0  0  0  0  0  0
   -8.8089   45.6841    2.6511 H   0  0  0  0  0  0
   -8.2181   44.2628    3.5771 H   0  0  0  0  0  0
   -7.8324   45.5783    5.5596 H   0  0  0  0  0  0
   -9.2986   46.3815    4.9026 H   0  0  0  0  0  0
   -5.4251   46.7993    0.9388 H   0  0  0  0  0  0
   -4.1749   47.5995    1.9503 H   0  0  0  0  0  0
   -5.0431   48.5364    0.6874 H   0  0  0  0  0  0
   -7.8170   47.3803    1.2529 H   0  0  0  0  0  0
   -7.4500   49.1247    1.0312 H   0  0  0  0  0  0
   -8.2934   48.5658    2.5155 H   0  0  0  0  0  0
   -4.9154   49.3560    3.6454 H   0  0  0  0  0  0
  -14.5823   49.2378    9.2142 H   0  0  0  0  0  0
  -15.4070   48.4500    6.9521 H   0  0  0  0  0  0
  -11.2972   48.3614    5.3718 H   0  0  0  0  0  0
   -6.0996   51.0265   13.9305 H   0  0  0  0  0  0
   -6.9148   49.6096   13.1859 H   0  0  0  0  0  0
   -7.4096   51.2742   12.7266 H   0  0  0  0  0  0
   -1.8392   49.4129    9.1267 H   0  0  0  0  0  0
   -3.0611   49.9502    7.9245 H   0  0  0  0  0  0
   -3.1084   48.2726    8.5649 H   0  0  0  0  0  0
  -10.1593   49.9021    9.8640 H   0  0  0  0  0  0
  1  2  1  0  0  0
  1 10  1  0  0  0
  1 33  1  0  0  0
  1 34  1  0  0  0
  2  3  1  0  0  0
  2 31  1  0  0  0
  2 35  1  0  0  0
  3  4  1  0  0  0
  3 29  1  0  0  0
  3 36  1  0  0  0
  4  5  1  0  0  0
  4 37  1  0  0  0
  4 38  1  0  0  0
  5  6  2  0  0  0
  5 10  1  0  0  0
  6  7  1  0  0  0
  6 64  1  0  0  0
  7  8  2  0  0  0
  7 21  1  0  0  0
  8  9  1  0  0  0
  9 10  2  0  0  0
  9 11  1  0  0  0
 11 12  1  0  0  0
 11 39  1  0  0  0
 12 13  1  0  0  0
 12 16  1  0  0  0
 12 40  1  0  0  0
 13 14  1  0  0  0
 13 17  1  0  0  0
 13 41  1  0  0  0
 14 15  1  0  0  0
 14 42  1  0  0  0
 14 43  1  0  0  0
 15 16  1  0  0  0
 15 44  1  0  0  0
 15 45  1  0  0  0
 16 46  1  0  0  0
 16 47  1  0  0  0
 17 18  1  0  0  0
 17 19  1  0  0  0
 17 20  1  0  0  0
 18 48  1  0  0  0
 18 49  1  0  0  0
 18 50  1  0  0  0
 19 51  1  0  0  0
 19 52  1  0  0  0
 19 53  1  0  0  0
 20 54  1  0  0  0
 21 22  2  0  0  0
 21 26  1  0  0  0
 22 23  1  0  0  0
 22 28  1  0  0  0
 23 24  2  0  0  0
 23 55  1  0  0  0
 24 25  1  0  0  0
 24 56  1  0  0  0
 25 26  2  0  0  0
 25 27  1  0  0  0
 26 57  1  0  0  0
 29 30  1  0  0  0
 30 58  1  0  0  0
 30 59  1  0  0  0
 30 60  1  0  0  0
 31 32  1  0  0  0
 32 61  1  0  0  0
 32 62  1  0  0  0
 32 63  1  0  0  0
M  CHG  3   6   1  15   1  28  -1
M  END
> <s_m_source_file>
../2xbj_ligand.sdf

> <i_m_source_file_index>
1

> <s_epik_input>
W0NIMl0xW05IMitdW0NIMl1bQ0BASF0oQyhbQ0gzXSkoW0NIM10pW09IXSlbQ0BASF0xW05IXWMoYyhjMjMpW0NIMl1bQ0BASF0oT1tDSDNdKVtDSF0oW0NIMl0yKU9bQ0gzXSluYyhuMyktYzRjKFtPSF0pW2NIXVtjSF1jKEYpW2NIXTQ=

> <s_epik_cmdline>
J2VwaWtfYXBwJywgJy1pbWFlJywgJ2xpZ2FuZF9wcm8ubWFlJywgJy1vbWFlJywgJ2xpZ2FuZF9wcmVwLm1hZScsICctbXMnLCAnMScsICctcGgnLCAnNycsICctcGh0JywgJzAuNScsICctbnQn

> <r_lp_tautomer_probability>
1

> <r_epik_Ionization_Penalty>
  0.8657

> <r_epik_Ionization_Penalty_Charging>
  0.8657

> <r_epik_Ionization_Penalty_Neutral>
  0.0000

> <r_epik_State_Penalty>
 -0.0000

> <r_epik_Charging_Adjusted_Penalty>
0.865691615796137

> <i_epik_Tot_Q>
1

> <i_epik_Tot_abs_Q>
3

$$$$
