2xbp_ligand
                    3D
 Schrodinger Suite 2020-3.
 43 45  0  0  1  0            999 V2000
   47.5150  -18.9310   58.8850 P   0  0  0  0  0  0
   47.5810  -19.9710   57.8100 O   0  5  0  0  0  0
   48.0950  -19.3750   60.1840 O   0  0  0  0  0  0
   47.9800  -17.5680   58.4340 O   0  5  0  0  0  0
   45.1140  -17.4420   59.6570 P   0  0  2  0  0  0
   46.0610  -16.4100   60.1810 O   0  5  0  0  0  0
   44.0290  -17.8890   60.5570 O   0  0  0  0  0  0
   45.8940  -18.7500   59.1770 O   0  0  0  0  0  0
   45.1880  -16.2620   57.0200 P   0  0  1  0  0  0
   46.2940  -15.3740   57.5120 O   0  5  0  0  0  0
   45.5110  -17.2770   56.0280 O   0  0  0  0  0  0
   44.4570  -16.8920   58.3160 O   0  0  0  0  0  0
   43.9820  -15.3270   56.5450 O   0  0  0  0  0  0
   43.8560  -15.0490   55.1210 C   0  0  0  0  0  0
   42.8570  -13.9270   54.9590 C   0  0  1  0  0  0
   41.5550  -14.3860   55.3620 O   0  0  0  0  0  0
   43.0720  -12.6490   55.7260 C   0  0  1  0  0  0
   44.0470  -11.8040   55.1740 O   0  0  0  0  0  0
   41.7030  -12.0590   55.7580 C   0  0  1  0  0  0
   41.4040  -11.4730   54.4930 O   0  0  0  0  0  0
   40.8470  -13.2980   55.9610 C   0  0  2  0  0  0
   40.5480  -13.6320   57.3600 N   0  0  0  0  0  0
   41.2830  -14.4650   58.1730 C   0  0  0  0  0  0
   40.7010  -14.6240   59.3540 N   0  0  0  0  0  0
   39.5390  -13.8680   59.2720 C   0  0  0  0  0  0
   38.4240  -13.6800   60.1420 C   0  0  0  0  0  0
   38.3500  -14.2640   61.3540 N   0  0  0  0  0  0
   37.4180  -12.8730   59.7410 N   0  0  0  0  0  0
   37.4640  -12.3380   58.5120 C   0  0  0  0  0  0
   38.4520  -12.4560   57.6010 N   0  0  0  0  0  0
   39.4600  -13.2550   58.0340 C   0  0  0  0  0  0
   44.8350  -14.7509   54.7176 H   0  0  0  0  0  0
   43.5047  -15.9523   54.6007 H   0  0  0  0  0  0
   42.9277  -13.6835   53.8886 H   0  0  0  0  0  0
   43.5397  -12.7696   56.7143 H   0  0  0  0  0  0
   45.0913  -12.1421   55.1028 H   0  0  0  0  0  0
   41.5620  -11.2401   56.4788 H   0  0  0  0  0  0
   41.9295  -10.5619   54.1709 H   0  0  0  0  0  0
   39.8606  -13.1553   55.4955 H   0  0  0  0  0  0
   42.2233  -14.9340   57.8831 H   0  0  0  0  0  0
   39.1603  -14.9243   61.6968 H   0  0  0  0  0  0
   37.4793  -14.0805   62.0007 H   0  0  0  0  0  0
   36.6035  -11.7385   58.2148 H   0  0  0  0  0  0
  1  2  1  0  0  0
  1  3  2  0  0  0
  1  4  1  0  0  0
  1  8  1  0  0  0
  5  6  1  0  0  0
  5  7  2  0  0  0
  5  8  1  0  0  0
  5 12  1  0  0  0
  9 10  1  0  0  0
  9 11  2  0  0  0
  9 12  1  0  0  0
  9 13  1  0  0  0
 13 14  1  0  0  0
 14 15  1  0  0  0
 14 32  1  0  0  0
 14 33  1  0  0  0
 15 16  1  0  0  0
 15 17  1  0  0  0
 15 34  1  0  0  0
 16 21  1  0  0  0
 17 18  1  0  0  0
 17 19  1  0  0  0
 17 35  1  0  0  0
 18 36  1  0  0  0
 19 20  1  0  0  0
 19 21  1  0  0  0
 19 37  1  0  0  0
 20 38  1  0  0  0
 21 22  1  0  0  0
 21 39  1  0  0  0
 22 23  1  0  0  0
 22 31  1  0  0  0
 23 24  2  0  0  0
 23 40  1  0  0  0
 24 25  1  0  0  0
 25 26  2  0  0  0
 25 31  1  0  0  0
 26 27  1  0  0  0
 26 28  1  0  0  0
 27 41  1  0  0  0
 27 42  1  0  0  0
 28 29  2  0  0  0
 29 30  1  0  0  0
 29 43  1  0  0  0
 30 31  2  0  0  0
M  CHG  4   2  -1   4  -1   6  -1  10  -1
M  END
> <s_m_source_file>
../2xbp_ligand.sdf

> <i_m_source_file_index>
1

> <s_epik_input>
W09IXVAoPU8pKFtPSF0pT1tQQEBdKD1PKShbT0hdKU9bUEBdKD1PKShbT0hdKU9bQ0gyXVtDQEhdMU9bQ0BIXShbQ0BIXShbT0hdKVtDQEBIXTFbT0hdKW4oW2NIXW4yKWMoYzIzKW5bY0hdbmMzW05IMl0=

> <s_epik_cmdline>
J2VwaWtfYXBwJywgJy1pbWFlJywgJ2xpZ2FuZF9wcm8ubWFlJywgJy1vbWFlJywgJ2xpZ2FuZF9wcmVwLm1hZScsICctbXMnLCAnMScsICctcGgnLCAnNycsICctcGh0JywgJzAuNScsICctbnQn

> <r_lp_tautomer_probability>
0.999997216410988

> <r_epik_Ionization_Penalty>
  0.0818

> <r_epik_Ionization_Penalty_Charging>
  0.0813

> <r_epik_Ionization_Penalty_Neutral>
  0.0004

> <r_epik_State_Penalty>
  0.0708

> <r_epik_Charging_Adjusted_Penalty>
0.152157994418768

> <i_epik_Tot_Q>
-4

> <i_epik_Tot_abs_Q>
4

> <s_epik_Chemistry_Notes>
This compound contains an acetal/aminal-like group ( X-CH(R)-Y where X, Y are N, S, or O) that may be acid/base labile, releasing an aldehyde.

$$$$
