2xc4_ligand
                    3D
 Schrodinger Suite 2020-3.
 58 61  0  0  1  0            999 V2000
   -3.9090   11.8950   24.8310 C   0  0  2  0  0  0
   -3.8030   12.0200   23.3060 C   0  0  2  0  0  0
   -4.7210   13.2440   23.0170 C   0  0  0  0  0  0
   -4.3020   14.1740   24.1020 N   0  0  2  0  0  0
   -3.8610   13.3480   25.2830 C   0  0  0  0  0  0
   -2.7400   11.0360   25.2640 C   0  0  0  0  0  0
   -4.1260   10.7380   22.5450 C   0  0  0  0  0  0
   -5.1580   10.7090   21.6840 N   0  0  0  0  0  0
   -3.4270    9.7120   22.6660 O   0  0  0  0  0  0
   -1.6090   11.2460   24.8610 O   0  0  0  0  0  0
   -3.0440   10.0840   26.1430 N   0  0  0  0  0  0
   -2.2850    9.0370   26.6440 C   0  0  0  0  0  0
   -0.9600    6.7770   27.4370 C   0  0  0  0  0  0
   -1.9990    7.2350   28.2140 C   0  0  0  0  0  0
   -0.5750    7.4530   26.2720 C   0  0  0  0  0  0
   -2.6990    8.3530   27.7940 C   0  0  0  0  0  0
   -0.0750    5.3720   27.9200 Cl  0  0  0  0  0  0
   -5.4960    9.5860   20.8900 C   0  0  0  0  0  0
   -6.7340    8.9570   20.9530 C   0  0  0  0  0  0
   -6.0800    7.4370   19.1720 C   0  0  0  0  0  0
   -4.8520    8.0840   19.0950 C   0  0  0  0  0  0
   -7.0080    7.8860   20.1100 C   0  0  0  0  0  0
   -4.5690    9.1370   19.9500 C   0  0  0  0  0  0
   -6.3720    6.3640   18.2930 N   0  0  0  0  0  0
   -6.2610    5.0650   18.6570 C   0  0  0  0  0  0
   -6.9000    4.3420   16.4650 C   0  0  0  0  0  0
   -7.0400    5.6510   16.1050 C   0  0  0  0  0  0
   -6.4940    4.0550   17.7840 C   0  0  0  0  0  0
   -6.7570    6.6650   17.0250 C   0  0  0  0  0  0
   -6.8420    7.8290   16.6640 O   0  0  0  0  0  0
   -3.3820    9.7880   19.8760 F   0  0  0  0  0  0
   -5.3490   15.1010   24.5290 C   0  0  0  0  0  0
   -4.6260   16.2930   25.1560 C   0  0  0  0  0  0
   -5.5370   17.3350   25.3690 F   0  0  0  0  0  0
   -3.6040   16.7060   24.3030 F   0  0  0  0  0  0
   -4.0480   15.9250   26.3800 F   0  0  0  0  0  0
   -1.2620    8.5660   25.8520 C   0  0  0  0  0  0
   -4.7985   11.4116   25.2613 H   0  0  0  0  0  0
   -2.7740   12.1598   22.9431 H   0  0  0  0  0  0
   -4.5149   13.6264   22.0064 H   0  0  0  0  0  0
   -5.7748   12.9361   23.0846 H   0  0  0  0  0  0
   -4.5388   13.4886   26.1379 H   0  0  0  0  0  0
   -2.8343   13.6050   25.5829 H   0  0  0  0  0  0
   -5.7995   11.5945   21.5643 H   0  0  0  0  0  0
   -4.0464   10.0524   26.5949 H   0  0  0  0  0  0
   -2.2655    6.7279   29.1413 H   0  0  0  0  0  0
    0.2763    7.0931   25.6943 H   0  0  0  0  0  0
   -3.5672    8.6989   28.3549 H   0  0  0  0  0  0
   -7.4874    9.3023   21.6610 H   0  0  0  0  0  0
   -4.1118    7.7630   18.3621 H   0  0  0  0  0  0
   -7.9730    7.3847   20.1845 H   0  0  0  0  0  0
   -5.9761    4.8245   19.6813 H   0  0  0  0  0  0
   -7.0966    3.5409   15.7525 H   0  0  0  0  0  0
   -7.3729    5.9062   15.0989 H   0  0  0  0  0  0
   -6.3674    3.0201   18.1020 H   0  0  0  0  0  0
   -5.9429   15.4105   23.6564 H   0  0  0  0  0  0
   -6.0033   14.6036   25.2601 H   0  0  0  0  0  0
   -1.0041    9.0629   24.9168 H   0  0  0  0  0  0
  1  2  1  0  0  0
  1  5  1  0  0  0
  1  6  1  0  0  0
  1 38  1  0  0  0
  2  3  1  0  0  0
  2  7  1  0  0  0
  2 39  1  0  0  0
  3  4  1  0  0  0
  3 40  1  0  0  0
  3 41  1  0  0  0
  4  5  1  0  0  0
  4 32  1  0  0  0
  5 42  1  0  0  0
  5 43  1  0  0  0
  6 10  2  0  0  0
  6 11  1  0  0  0
  7  8  1  0  0  0
  7  9  2  0  0  0
  8 18  1  0  0  0
  8 44  1  0  0  0
 11 12  1  0  0  0
 11 45  1  0  0  0
 12 16  2  0  0  0
 12 37  1  0  0  0
 13 14  2  0  0  0
 13 15  1  0  0  0
 13 17  1  0  0  0
 14 16  1  0  0  0
 14 46  1  0  0  0
 15 37  2  0  0  0
 15 47  1  0  0  0
 16 48  1  0  0  0
 18 19  2  0  0  0
 18 23  1  0  0  0
 19 22  1  0  0  0
 19 49  1  0  0  0
 20 21  1  0  0  0
 20 22  2  0  0  0
 20 24  1  0  0  0
 21 23  2  0  0  0
 21 50  1  0  0  0
 22 51  1  0  0  0
 23 31  1  0  0  0
 24 25  1  0  0  0
 24 29  1  0  0  0
 25 28  2  0  0  0
 25 52  1  0  0  0
 26 27  2  0  0  0
 26 28  1  0  0  0
 26 53  1  0  0  0
 27 29  1  0  0  0
 27 54  1  0  0  0
 28 55  1  0  0  0
 29 30  2  0  0  0
 32 33  1  0  0  0
 32 56  1  0  0  0
 32 57  1  0  0  0
 33 34  1  0  0  0
 33 35  1  0  0  0
 33 36  1  0  0  0
 37 58  1  0  0  0
M  END
> <s_m_source_file>
../2xc4_ligand.sdf

> <i_m_source_file_index>
1

> <s_epik_input>
W2NIXTFbY0hdYyhDbClbY0hdW2NIXWMxW05IXUMoPU8pW0NAQEhdMltDQEhdKFtDSDJdW05ASCtdKFtDSDJdMilbQ0gyXUMoRikoRilGKUMoPU8pW05IXWMzW2NIXVtjSF1jKFtjSF1jM0YpLW40W2NIXVtjSF1bY0hdW2NIXWM0PU8=

> <s_epik_cmdline>
J2VwaWtfYXBwJywgJy1pbWFlJywgJ2xpZ2FuZF9wcm8ubWFlJywgJy1vbWFlJywgJ2xpZ2FuZF9wcmVwLm1hZScsICctbXMnLCAnMScsICctcGgnLCAnNycsICctcGh0JywgJzAuNScsICctbnQn

> <r_lp_tautomer_probability>
1

> <r_epik_Ionization_Penalty>
  0.0141

> <r_epik_Ionization_Penalty_Charging>
  0.0000

> <r_epik_Ionization_Penalty_Neutral>
  0.0141

> <r_epik_State_Penalty>
  0.0110

> <r_epik_Charging_Adjusted_Penalty>
0.0110181819923028

> <i_epik_Tot_Q>
0

> <i_epik_Tot_abs_Q>
0

$$$$
