2xch_ligand
                    3D
 Schrodinger Suite 2020-3.
 54 58  0  0  1  0            999 V2000
  -45.1620   17.3950   10.8320 O   0  0  0  0  0  0
  -44.3920   18.1550   11.3860 C   0  0  0  0  0  0
  -44.6700   19.4620   11.5330 N   0  0  0  0  0  0
  -43.0880   17.7000   11.9450 C   0  0  0  0  0  0
  -42.4930   16.4490   11.7980 C   0  0  0  0  0  0
  -42.9630   15.2100   11.0590 C   0  0  0  0  0  0
  -42.2970   18.4730   12.7020 N   0  0  0  0  0  0
  -41.1770   17.7010   13.0310 N   0  0  0  0  0  0
  -40.1900   18.3530   13.8980 C   0  0  0  0  0  0
  -39.2850   19.3540   13.1810 C   0  0  0  0  0  0
  -38.9710   18.8840   11.7640 C   0  0  0  0  0  0
  -38.1290   19.9240   11.0470 C   0  0  0  0  0  0
  -38.6790   21.2690   11.1590 N   0  3  0  0  0  0
  -39.0910   21.7520   12.4720 C   0  0  0  0  0  0
  -39.9840   20.7270   13.1480 C   0  0  0  0  0  0
  -41.2980   16.4620   12.5140 C   0  0  0  0  0  0
  -40.4220   15.3860   12.5380 C   0  0  0  0  0  0
  -39.1250   15.5270   12.8810 N   0  0  0  0  0  0
  -38.2640   14.4670   12.8250 C   0  0  0  0  0  0
  -38.7170   13.2550   12.4260 N   0  0  0  0  0  0
  -39.9980   13.0930   12.0610 C   0  0  0  0  0  0
  -40.8830   14.1520   12.1070 C   0  0  0  0  0  0
  -42.3380   13.9620   11.7070 C   0  0  0  0  0  0
  -36.9650   14.5230   13.1860 N   0  0  0  0  0  0
  -36.2230   15.5310   13.7280 C   0  0  0  0  0  0
  -36.7030   16.8210   13.9440 C   0  0  0  0  0  0
  -35.8420   17.7990   14.4930 C   0  0  0  0  0  0
  -34.5070   17.4990   14.8110 C   0  0  0  0  0  0
  -34.0290   16.2070   14.5860 C   0  0  0  0  0  0
  -34.8970   15.2380   14.0540 C   0  0  0  0  0  0
  -45.6149   19.8703   11.1452 H   0  0  0  0  0  0
  -43.9525   20.1232   12.0411 H   0  0  0  0  0  0
  -43.6378   15.2047   10.2030 H   0  0  0  0  0  0
  -40.7098   18.9040   14.6956 H   0  0  0  0  0  0
  -39.5350   17.5910   14.3456 H   0  0  0  0  0  0
  -38.3307   19.4265   13.7233 H   0  0  0  0  0  0
  -38.4156   17.9355   11.8069 H   0  0  0  0  0  0
  -39.9099   18.7343   11.2108 H   0  0  0  0  0  0
  -37.1171   19.9373   11.4782 H   0  0  0  0  0  0
  -38.0686   19.6731    9.9777 H   0  0  0  0  0  0
  -37.9324   22.0002   10.8155 H   0  0  0  0  0  0
  -39.5830   21.3484   10.5373 H   0  0  0  0  0  0
  -38.2011   21.9229   13.0956 H   0  0  0  0  0  0
  -39.6456   22.6951   12.3583 H   0  0  0  0  0  0
  -40.9271   20.6449   12.5877 H   0  0  0  0  0  0
  -40.1958   21.0555   14.1762 H   0  0  0  0  0  0
  -40.3436   12.1154   11.7247 H   0  0  0  0  0  0
  -42.8849   13.0323   11.8640 H   0  0  0  0  0  0
  -36.3188   13.6428   13.0532 H   0  0  0  0  0  0
  -37.7329   17.0740   13.6921 H   0  0  0  0  0  0
  -36.2214   18.8049   14.6729 H   0  0  0  0  0  0
  -33.8531   18.2650   15.2279 H   0  0  0  0  0  0
  -32.9952   15.9527   14.8200 H   0  0  0  0  0  0
  -34.5238   14.2269   13.8909 H   0  0  0  0  0  0
  1  2  2  0  0  0
  2  3  1  0  0  0
  2  4  1  0  0  0
  3 31  1  0  0  0
  3 32  1  0  0  0
  4  5  1  0  0  0
  4  7  2  0  0  0
  5  6  2  0  0  0
  5 16  1  0  0  0
  6 23  1  0  0  0
  6 33  1  0  0  0
  7  8  1  0  0  0
  8  9  1  0  0  0
  8 16  1  0  0  0
  9 10  1  0  0  0
  9 34  1  0  0  0
  9 35  1  0  0  0
 10 11  1  0  0  0
 10 15  1  0  0  0
 10 36  1  0  0  0
 11 12  1  0  0  0
 11 37  1  0  0  0
 11 38  1  0  0  0
 12 13  1  0  0  0
 12 39  1  0  0  0
 12 40  1  0  0  0
 13 14  1  0  0  0
 13 41  1  0  0  0
 13 42  1  0  0  0
 14 15  1  0  0  0
 14 43  1  0  0  0
 14 44  1  0  0  0
 15 45  1  0  0  0
 15 46  1  0  0  0
 16 17  2  0  0  0
 17 18  1  0  0  0
 17 22  1  0  0  0
 18 19  2  0  0  0
 19 20  1  0  0  0
 19 24  1  0  0  0
 20 21  2  0  0  0
 21 22  1  0  0  0
 21 47  1  0  0  0
 22 23  2  0  0  0
 23 48  1  0  0  0
 24 25  1  0  0  0
 24 49  1  0  0  0
 25 26  2  0  0  0
 25 30  1  0  0  0
 26 27  1  0  0  0
 26 50  1  0  0  0
 27 28  2  0  0  0
 27 51  1  0  0  0
 28 29  1  0  0  0
 28 52  1  0  0  0
 29 30  2  0  0  0
 29 53  1  0  0  0
 30 54  1  0  0  0
M  CHG  1  13   1
M  END
> <s_m_source_file>
../2xch_ligand.sdf

> <i_m_source_file_index>
1

> <s_epik_input>
W0NIMl0xW0NIMl1bTkgyK11bQ0gyXVtDSDJdW0NIXTFbQ0gyXW4obmMyQyg9TylbTkgyXSljKGMyMyljNGMoW2NIXVtjSF0zKVtjSF1uYyhuNClbTkhdYzVbY0hdW2NIXVtjSF1bY0hdW2NIXTU=

> <s_epik_cmdline>
J2VwaWtfYXBwJywgJy1pbWFlJywgJ2xpZ2FuZF9wcm8ubWFlJywgJy1vbWFlJywgJ2xpZ2FuZF9wcmVwLm1hZScsICctbXMnLCAnMScsICctcGgnLCAnNycsICctcGh0JywgJzAuNScsICctbnQn

> <r_lp_tautomer_probability>
1

> <r_epik_Ionization_Penalty>
  0.0004

> <r_epik_Ionization_Penalty_Charging>
  0.0004

> <r_epik_Ionization_Penalty_Neutral>
  0.0000

> <r_epik_State_Penalty>
 -0.0000

> <r_epik_Charging_Adjusted_Penalty>
0.000433073767326883

> <i_epik_Tot_Q>
1

> <i_epik_Tot_abs_Q>
1

$$$$
