2xck_ligand
                    3D
 Schrodinger Suite 2020-3.
 71 76  0  0  1  0            999 V2000
  -38.1290  -30.6020   26.9080 O   0  0  0  0  0  0
  -38.2280  -29.4050   27.1670 C   0  0  0  0  0  0
  -39.3700  -28.7030   26.9690 N   0  0  0  0  0  0
  -40.6930  -29.1300   26.5360 C   0  0  0  0  0  0
  -41.3740  -29.5660   27.8230 C   0  0  0  0  0  0
  -42.5320  -30.3370   27.7970 C   0  0  0  0  0  0
  -43.1170  -30.7150   29.0090 C   0  0  0  0  0  0
  -42.5700  -30.3250   30.1980 N   0  0  0  0  0  0
  -41.4590  -29.5490   30.2640 C   0  0  0  0  0  0
  -40.8880  -29.1500   31.6010 C   0  0  0  0  0  0
  -40.8370  -29.1690   29.0780 C   0  0  0  0  0  0
  -37.0870  -28.5800   27.6950 C   0  0  0  0  0  0
  -35.7200  -28.7870   27.5740 C   0  0  0  0  0  0
  -34.8940  -29.8820   26.8970 C   0  0  0  0  0  0
  -37.2710  -27.4410   28.3800 N   0  0  0  0  0  0
  -36.0340  -26.9220   28.7080 N   0  0  0  0  0  0
  -36.0760  -25.6660   29.5050 C   0  0  0  0  0  0
  -35.0870  -27.7430   28.2540 C   0  0  0  0  0  0
  -33.6940  -27.6290   28.2710 C   0  0  0  0  0  0
  -33.1070  -26.4450   28.5090 N   0  0  0  0  0  0
  -31.7780  -26.2990   28.4610 C   0  0  0  0  0  0
  -31.0320  -27.3700   28.1340 N   0  0  0  0  0  0
  -31.5570  -28.5730   27.8720 C   0  0  0  0  0  0
  -32.9240  -28.7350   27.9140 C   0  0  0  0  0  0
  -33.5610  -30.0630   27.6350 C   0  0  0  0  0  0
  -31.1700  -25.0980   28.6880 N   0  0  0  0  0  0
  -31.7370  -23.9630   29.1600 C   0  0  0  0  0  0
  -30.9820  -23.1080   29.9770 C   0  0  0  0  0  0
  -31.5630  -21.9350   30.4970 C   0  0  0  0  0  0
  -32.9000  -21.6240   30.1760 C   0  0  0  0  0  0
  -33.6220  -22.4810   29.3300 C   0  0  0  0  0  0
  -33.0440  -23.6390   28.8340 C   0  0  0  0  0  0
  -33.5280  -20.4200   30.6370 N   0  0  0  0  0  0
  -32.8120  -19.5420   31.5750 C   0  0  0  0  0  0
  -33.8140  -19.2750   32.6880 C   0  0  0  0  0  0
  -34.8090  -18.4430   31.9780 N   0  3  0  0  0  0
  -35.5470  -17.4640   32.8430 C   0  0  0  0  0  0
  -35.6830  -19.3640   31.2100 C   0  0  0  0  0  0
  -34.8630  -20.0730   30.1220 C   0  0  0  0  0  0
  -39.1807  -27.6432   27.1949 H   0  0  0  0  0  0
  -41.2116  -28.2869   26.0563 H   0  0  0  0  0  0
  -40.5945  -29.9567   25.8171 H   0  0  0  0  0  0
  -42.9750  -30.6408   26.8486 H   0  0  0  0  0  0
  -44.0188  -31.3272   29.0050 H   0  0  0  0  0  0
  -41.5248  -29.5475   32.4050 H   0  0  0  0  0  0
  -40.8509  -28.0529   31.6712 H   0  0  0  0  0  0
  -39.8717  -29.5585   31.7023 H   0  0  0  0  0  0
  -39.9318  -28.5627   29.1118 H   0  0  0  0  0  0
  -35.2061  -30.4496   26.0203 H   0  0  0  0  0  0
  -37.1211  -25.3471   29.6320 H   0  0  0  0  0  0
  -35.5139  -24.8796   28.9799 H   0  0  0  0  0  0
  -35.6240  -25.8429   30.4921 H   0  0  0  0  0  0
  -30.9096  -29.4153   27.6280 H   0  0  0  0  0  0
  -33.1353  -31.0258   27.9178 H   0  0  0  0  0  0
  -30.0961  -24.9776   28.4823 H   0  0  0  0  0  0
  -29.9453  -23.3516   30.2094 H   0  0  0  0  0  0
  -30.9841  -21.2737   31.1418 H   0  0  0  0  0  0
  -34.6485  -22.2328   29.0603 H   0  0  0  0  0  0
  -33.6204  -24.2978   28.1845 H   0  0  0  0  0  0
  -31.9139  -20.0572   31.9466 H   0  0  0  0  0  0
  -32.5166  -18.6168   31.0585 H   0  0  0  0  0  0
  -34.2202  -20.2300   33.0526 H   0  0  0  0  0  0
  -33.3126  -18.7504   33.5147 H   0  0  0  0  0  0
  -34.2776  -17.7763   31.2829 H   0  0  0  0  0  0
  -34.8247  -16.8252   33.3723 H   0  0  0  0  0  0
  -36.1588  -18.0107   33.5757 H   0  0  0  0  0  0
  -36.1985  -16.8385   32.2151 H   0  0  0  0  0  0
  -36.1115  -20.1151   31.8899 H   0  0  0  0  0  0
  -36.4948  -18.7910   30.7382 H   0  0  0  0  0  0
  -34.7591  -19.4033   29.2555 H   0  0  0  0  0  0
  -35.3876  -20.9900   29.8158 H   0  0  0  0  0  0
  1  2  2  0  0  0
  2  3  1  0  0  0
  2 12  1  0  0  0
  3  4  1  0  0  0
  3 40  1  0  0  0
  4  5  1  0  0  0
  4 41  1  0  0  0
  4 42  1  0  0  0
  5  6  2  0  0  0
  5 11  1  0  0  0
  6  7  1  0  0  0
  6 43  1  0  0  0
  7  8  2  0  0  0
  7 44  1  0  0  0
  8  9  1  0  0  0
  9 10  1  0  0  0
  9 11  2  0  0  0
 10 45  1  0  0  0
 10 46  1  0  0  0
 10 47  1  0  0  0
 11 48  1  0  0  0
 12 13  1  0  0  0
 12 15  2  0  0  0
 13 14  2  0  0  0
 13 18  1  0  0  0
 14 25  1  0  0  0
 14 49  1  0  0  0
 15 16  1  0  0  0
 16 17  1  0  0  0
 16 18  1  0  0  0
 17 50  1  0  0  0
 17 51  1  0  0  0
 17 52  1  0  0  0
 18 19  2  0  0  0
 19 20  1  0  0  0
 19 24  1  0  0  0
 20 21  2  0  0  0
 21 22  1  0  0  0
 21 26  1  0  0  0
 22 23  2  0  0  0
 23 24  1  0  0  0
 23 53  1  0  0  0
 24 25  2  0  0  0
 25 54  1  0  0  0
 26 27  1  0  0  0
 26 55  1  0  0  0
 27 28  2  0  0  0
 27 32  1  0  0  0
 28 29  1  0  0  0
 28 56  1  0  0  0
 29 30  2  0  0  0
 29 57  1  0  0  0
 30 31  1  0  0  0
 30 33  1  0  0  0
 31 32  2  0  0  0
 31 58  1  0  0  0
 32 59  1  0  0  0
 33 34  1  0  0  0
 33 39  1  0  0  0
 34 35  1  0  0  0
 34 60  1  0  0  0
 34 61  1  0  0  0
 35 36  1  0  0  0
 35 62  1  0  0  0
 35 63  1  0  0  0
 36 37  1  0  0  0
 36 38  1  0  0  0
 36 64  1  0  0  0
 37 65  1  0  0  0
 37 66  1  0  0  0
 37 67  1  0  0  0
 38 39  1  0  0  0
 38 68  1  0  0  0
 38 69  1  0  0  0
 39 70  1  0  0  0
 39 71  1  0  0  0
M  CHG  1  36   1
M  END
> <s_m_source_file>
../2xck_ligand.sdf

> <i_m_source_file_index>
1

> <s_epik_input>
W0NIM11jKFtjSF0xKW5bY0hdW2NIXWMxW0NIMl1bTkhdQyg9TyljMm5uKFtDSDNdKWMoYzIzKWM0YyhbY0hdW2NIXTMpW2NIXW5jKG40KVtOSF1jNVtjSF1bY0hdYyhbY0hdW2NIXTUpTjZbQ0gyXVtDSDJdW05IK10oW0NIM10pW0NIMl1bQ0gyXTY=

> <s_epik_cmdline>
J2VwaWtfYXBwJywgJy1pbWFlJywgJ2xpZ2FuZF9wcm8ubWFlJywgJy1vbWFlJywgJ2xpZ2FuZF9wcmVwLm1hZScsICctbXMnLCAnMScsICctcGgnLCAnNycsICctcGh0JywgJzAuNScsICctbnQn

> <r_lp_tautomer_probability>
1

> <r_epik_Ionization_Penalty>
  0.1034

> <r_epik_Ionization_Penalty_Charging>
  0.0647

> <r_epik_Ionization_Penalty_Neutral>
  0.0387

> <r_epik_State_Penalty>
 -0.0000

> <r_epik_Charging_Adjusted_Penalty>
0.0647487349615153

> <i_epik_Tot_Q>
1

> <i_epik_Tot_abs_Q>
1

$$$$
