2xcn_ligand
                    3D
 Schrodinger Suite 2020-3.
 83 86  0  0  1  0            999 V2000
    6.5810   33.6180   11.8170 O   0  0  0  0  0  0
    7.6760   33.5790   11.3440 C   0  0  0  0  0  0
    8.5120   34.6260   11.3650 O   0  0  0  0  0  0
    8.2110   35.8660   12.0330 C   0  0  0  0  0  0
    9.4420   36.7590   11.9570 C   0  0  0  0  0  0
   10.2020   36.5640   13.2730 C   0  0  0  0  0  0
    9.1540   36.1830   14.3190 C   0  0  0  0  0  0
    7.9260   35.6890   13.5370 C   0  0  0  0  0  0
    8.1920   32.4690   10.7530 N   0  0  0  0  0  0
    7.3730   31.2430   10.6820 C   0  0  1  0  0  0
    7.0800   30.7510    9.2100 C   0  0  0  0  0  0
    6.8940   29.2270    9.0000 C   0  0  0  0  0  0
    5.8030   31.4870    8.7250 C   0  0  0  0  0  0
    8.2180   31.1430    8.2690 C   0  0  0  0  0  0
    8.0420   30.2140   11.6670 C   0  0  0  0  0  0
    9.2590   30.0310   11.7230 O   0  0  0  0  0  0
    7.1650   29.5420   12.4670 N   0  0  0  0  0  0
    7.5670   28.5670   13.5010 C   0  0  2  0  0  0
    8.1400   27.2510   12.9610 C   0  0  0  0  0  0
    8.7130   26.4180   13.8770 N   0  0  0  0  0  0
    9.2880   25.1240   13.4790 C   0  0  1  0  0  0
   10.8240   25.1660   13.2120 C   0  0  0  0  0  0
   11.1980   26.4370   12.4030 C   0  0  0  0  0  0
   10.8740   26.2110   11.0350 O   0  0  0  0  0  0
    8.9780   23.9860   14.5500 B   0  0  0  0  0  0
    7.7440   23.4990   14.7180 O   0  0  0  0  0  0
    9.7250   22.7130   14.1490 O   0  0  0  0  0  0
    8.0590   27.0200   11.7660 O   0  0  0  0  0  0
    5.7220   29.7600   12.4040 C   0  0  0  0  0  0
    5.3280   29.4510   13.8420 C   0  0  1  0  0  0
    6.2260   28.2290   14.1550 C   0  0  0  0  0  0
    5.7350   30.5990   14.5540 O   0  0  0  0  0  0
    5.1320   30.8090   15.7940 C   0  0  0  0  0  0
    4.1120   30.0100   16.2530 N   0  0  0  0  0  0
    3.6000   30.1900   17.5040 C   0  0  0  0  0  0
    4.0690   31.1860   18.3780 C   0  0  0  0  0  0
    5.1090   32.0310   17.9360 C   0  0  0  0  0  0
    5.6490   31.8450   16.6300 C   0  0  0  0  0  0
    5.6050   33.0370   18.7910 C   0  0  0  0  0  0
    6.6400   33.8630   18.3330 C   0  0  0  0  0  0
    7.1710   33.6880   17.0380 C   0  0  0  0  0  0
    6.6950   32.6860   16.1800 C   0  0  0  0  0  0
    7.3269   36.2375   11.4942 H   0  0  0  0  0  0
   10.0599   36.4592   11.0978 H   0  0  0  0  0  0
    9.1283   37.8063   11.8354 H   0  0  0  0  0  0
   10.9476   35.7646   13.1508 H   0  0  0  0  0  0
   10.7101   37.5008   13.5453 H   0  0  0  0  0  0
    9.5548   35.3902   14.9677 H   0  0  0  0  0  0
    8.9063   37.0649   14.9281 H   0  0  0  0  0  0
    7.0391   36.2778   13.8139 H   0  0  0  0  0  0
    7.7424   34.6261   13.7528 H   0  0  0  0  0  0
    9.2076   32.4773   10.3304 H   0  0  0  0  0  0
    6.3613   31.4928   11.0342 H   0  0  0  0  0  0
    6.0836   28.8637    9.6491 H   0  0  0  0  0  0
    7.8286   28.7052    9.2533 H   0  0  0  0  0  0
    6.6377   29.0304    7.9485 H   0  0  0  0  0  0
    4.9590   31.2281    9.3812 H   0  0  0  0  0  0
    5.5729   31.1812    7.6937 H   0  0  0  0  0  0
    5.9718   32.5735    8.7562 H   0  0  0  0  0  0
    9.1436   30.6383    8.5829 H   0  0  0  0  0  0
    8.3643   32.2326    8.3046 H   0  0  0  0  0  0
    7.9654   30.8403    7.2421 H   0  0  0  0  0  0
    8.3537   29.0236   14.1196 H   0  0  0  0  0  0
    8.7398   26.7308   14.9312 H   0  0  0  0  0  0
    8.7696   24.9663   12.5217 H   0  0  0  0  0  0
   11.3626   25.1804   14.1710 H   0  0  0  0  0  0
   11.1209   24.2758   12.6381 H   0  0  0  0  0  0
   10.6294   27.2967   12.7872 H   0  0  0  0  0  0
   12.2752   26.6340   12.5069 H   0  0  0  0  0  0
   11.0629   26.9961   10.2881 H   0  0  0  0  0  0
    6.9248   24.1685   15.0191 H   0  0  0  0  0  0
   10.8020   22.7535   13.9290 H   0  0  0  0  0  0
    5.5209   30.7991   12.1042 H   0  0  0  0  0  0
    5.2793   29.0736   11.6672 H   0  0  0  0  0  0
    4.2687   29.3045   14.0995 H   0  0  0  0  0  0
    5.8275   27.3022   13.7165 H   0  0  0  0  0  0
    6.3701   28.0904   15.2367 H   0  0  0  0  0  0
    2.7953   29.5357   17.8395 H   0  0  0  0  0  0
    3.6397   31.3028   19.3731 H   0  0  0  0  0  0
    5.1905   33.1696   19.7904 H   0  0  0  0  0  0
    7.0368   34.6447   18.9807 H   0  0  0  0  0  0
    7.9695   34.3466   16.6964 H   0  0  0  0  0  0
    7.1223   32.5572   15.1856 H   0  0  0  0  0  0
  1  2  2  0  0  0
  2  3  1  0  0  0
  2  9  1  0  0  0
  3  4  1  0  0  0
  4  5  1  0  0  0
  4  8  1  0  0  0
  4 43  1  0  0  0
  5  6  1  0  0  0
  5 44  1  0  0  0
  5 45  1  0  0  0
  6  7  1  0  0  0
  6 46  1  0  0  0
  6 47  1  0  0  0
  7  8  1  0  0  0
  7 48  1  0  0  0
  7 49  1  0  0  0
  8 50  1  0  0  0
  8 51  1  0  0  0
  9 10  1  0  0  0
  9 52  1  0  0  0
 10 11  1  0  0  0
 10 15  1  0  0  0
 10 53  1  0  0  0
 11 12  1  0  0  0
 11 13  1  0  0  0
 11 14  1  0  0  0
 12 54  1  0  0  0
 12 55  1  0  0  0
 12 56  1  0  0  0
 13 57  1  0  0  0
 13 58  1  0  0  0
 13 59  1  0  0  0
 14 60  1  0  0  0
 14 61  1  0  0  0
 14 62  1  0  0  0
 15 16  2  0  0  0
 15 17  1  0  0  0
 17 18  1  0  0  0
 17 29  1  0  0  0
 18 19  1  0  0  0
 18 31  1  0  0  0
 18 63  1  0  0  0
 19 20  1  0  0  0
 19 28  2  0  0  0
 20 21  1  0  0  0
 20 64  1  0  0  0
 21 22  1  0  0  0
 21 25  1  0  0  0
 21 65  1  0  0  0
 22 23  1  0  0  0
 22 66  1  0  0  0
 22 67  1  0  0  0
 23 24  1  0  0  0
 23 68  1  0  0  0
 23 69  1  0  0  0
 24 70  1  0  0  0
 25 26  1  0  0  0
 25 27  1  0  0  0
 26 71  1  0  0  0
 27 72  1  0  0  0
 29 30  1  0  0  0
 29 73  1  0  0  0
 29 74  1  0  0  0
 30 31  1  0  0  0
 30 32  1  0  0  0
 30 75  1  0  0  0
 31 76  1  0  0  0
 31 77  1  0  0  0
 32 33  1  0  0  0
 33 34  2  0  0  0
 33 38  1  0  0  0
 34 35  1  0  0  0
 35 36  2  0  0  0
 35 78  1  0  0  0
 36 37  1  0  0  0
 36 79  1  0  0  0
 37 38  2  0  0  0
 37 39  1  0  0  0
 38 42  1  0  0  0
 39 40  2  0  0  0
 39 80  1  0  0  0
 40 41  1  0  0  0
 40 81  1  0  0  0
 41 42  2  0  0  0
 41 82  1  0  0  0
 42 83  1  0  0  0
M  END
> <s_m_source_file>
../2xcn_ligand.sdf

> <i_m_source_file_index>
1

> <s_epik_input>
W0NIMl0xW0NIMl1bQ0gyXVtDSDJdW0NIXTFPQyg9TylbTkhdW0NAQEhdKEMoW0NIM10pKFtDSDNdKVtDSDNdKUMoPU8pTjJbQ0BIXShDKD1PKVtOSF1bQ0BIXShCKFtPSF0pW09IXSlbQ0gyXVtDSDJdW09IXSlbQ0gyXVtDQEhdKFtDSDJdMilPYyhuW2NIXVtjSF0zKWMoYzM0KVtjSF1bY0hdW2NIXVtjSF00

> <s_epik_cmdline>
J2VwaWtfYXBwJywgJy1pbWFlJywgJ2xpZ2FuZF9wcm8ubWFlJywgJy1vbWFlJywgJ2xpZ2FuZF9wcmVwLm1hZScsICctbXMnLCAnMScsICctcGgnLCAnNycsICctcGh0JywgJzAuNScsICctbnQn

> <r_lp_tautomer_probability>
1

> <r_epik_Ionization_Penalty>
  0.0000

> <r_epik_Ionization_Penalty_Charging>
  0.0000

> <r_epik_Ionization_Penalty_Neutral>
  0.0000

> <r_epik_State_Penalty>
 -0.0000

> <r_epik_Charging_Adjusted_Penalty>
0

> <i_epik_Tot_Q>
0

> <i_epik_Tot_abs_Q>
0

> <s_epik_Chemistry_Notes>
This compound has an ester and may undergo hydrolysis at high or low pH. This compound contains a Lewis acid (boronic acid) which adds nucleophiles to form tetrahedral complexes, lowering the experimental pKa

$$$$
