2xcs_ligand
                    3D
 Schrodinger Suite 2020-3.
 61 65  0  0  1  0            999 V2000
    5.9710   49.0510   44.5670 N   0  0  0  0  0  0
    6.0870   49.5640   43.5200 C   0  0  0  0  0  0
    6.2920   50.2440   42.4510 C   0  0  0  0  0  0
    6.4330   49.6200   41.2260 C   0  0  0  0  0  0
    6.6500   50.4070   40.0980 C   0  0  0  0  0  0
    6.7960   49.8230   38.8430 C   0  0  0  0  0  0
    7.0100   50.6260   37.7300 C   0  0  0  0  0  0
    7.1600   50.0630   36.4900 O   0  0  0  0  0  0
    7.3220   48.6520   36.3600 C   0  0  0  0  0  0
    7.0820   52.0060   37.8660 C   0  0  0  0  0  0
    6.9290   52.5930   39.1140 C   0  0  0  0  0  0
    6.7160   51.7930   40.2310 C   0  0  0  0  0  0
    6.5700   52.3730   41.4430 N   0  0  0  0  0  0
    6.3630   51.6290   42.5340 C   0  0  0  0  0  0
    6.3600   48.1110   41.1120 C   0  0  0  0  0  0
    7.7550   47.5550   40.8320 C   0  0  0  0  0  0
    7.8260   46.0890   40.9960 N   0  3  1  0  0  0
    7.0510   45.6470   42.1680 C   0  0  0  0  0  0
    7.1890   44.1340   42.3210 C   0  0  0  0  0  0
    6.6470   43.4390   41.0780 C   0  0  1  0  0  0
    7.4820   43.9180   39.8990 C   0  0  0  0  0  0
    7.3280   45.4310   39.7760 C   0  0  0  0  0  0
    6.6730   41.9930   41.2120 N   0  0  1  0  0  0
    5.5030   41.3140   41.7410 C   0  0  0  0  0  0
    5.6990   39.8160   41.7240 C   0  0  0  0  0  0
    4.9750   39.0340   40.8260 C   0  0  0  0  0  0
    5.1820   37.6610   40.8410 C   0  0  0  0  0  0
    4.4060   36.5300   39.8380 S   0  0  0  0  0  0
    5.3220   35.2190   40.6110 C   0  0  0  0  0  0
    6.1790   35.7680   41.6210 O   0  0  0  0  0  0
    6.0770   37.1230   41.7220 C   0  0  0  0  0  0
    6.7850   37.9240   42.6070 C   0  0  0  0  0  0
    6.5800   39.2490   42.5880 N   0  0  0  0  0  0
    6.7426   48.7398   38.7340 H   0  0  0  0  0  0
    7.4266   48.3914   35.2964 H   0  0  0  0  0  0
    6.4415   48.1418   36.7777 H   0  0  0  0  0  0
    8.2228   48.3346   36.9056 H   0  0  0  0  0  0
    7.2592   52.6299   36.9900 H   0  0  0  0  0  0
    6.9756   53.6770   39.2182 H   0  0  0  0  0  0
    6.2483   52.1158   43.5025 H   0  0  0  0  0  0
    5.9792   47.6901   42.0543 H   0  0  0  0  0  0
    5.6837   47.8378   40.2886 H   0  0  0  0  0  0
    8.0439   47.7933   39.7977 H   0  0  0  0  0  0
    8.4767   48.0078   41.5278 H   0  0  0  0  0  0
    8.8753   45.8033   41.1615 H   0  0  0  0  0  0
    7.4346   46.1454   43.0704 H   0  0  0  0  0  0
    5.9918   45.9083   42.0270 H   0  0  0  0  0  0
    8.2499   43.8738   42.4502 H   0  0  0  0  0  0
    6.6200   43.8011   43.2016 H   0  0  0  0  0  0
    5.5773   43.6464   40.9270 H   0  0  0  0  0  0
    8.5381   43.6618   40.0695 H   0  0  0  0  0  0
    7.1303   43.4298   38.9782 H   0  0  0  0  0  0
    6.2650   45.6762   39.6350 H   0  0  0  0  0  0
    7.9040   45.7839   38.9078 H   0  0  0  0  0  0
    6.8342   41.5361   40.2244 H   0  0  0  0  0  0
    5.3291   41.6372   42.7780 H   0  0  0  0  0  0
    4.6252   41.5638   41.1270 H   0  0  0  0  0  0
    4.2669   39.4869   40.1321 H   0  0  0  0  0  0
    4.6230   34.5049   41.0708 H   0  0  0  0  0  0
    5.9303   34.7013   39.8547 H   0  0  0  0  0  0
    7.4959   37.4833   43.3059 H   0  0  0  0  0  0
  1  2  3  0  0  0
  2  3  1  0  0  0
  3  4  2  0  0  0
  3 14  1  0  0  0
  4  5  1  0  0  0
  4 15  1  0  0  0
  5  6  2  0  0  0
  5 12  1  0  0  0
  6  7  1  0  0  0
  6 34  1  0  0  0
  7  8  1  0  0  0
  7 10  2  0  0  0
  8  9  1  0  0  0
  9 35  1  0  0  0
  9 36  1  0  0  0
  9 37  1  0  0  0
 10 11  1  0  0  0
 10 38  1  0  0  0
 11 12  2  0  0  0
 11 39  1  0  0  0
 12 13  1  0  0  0
 13 14  2  0  0  0
 14 40  1  0  0  0
 15 16  1  0  0  0
 15 41  1  0  0  0
 15 42  1  0  0  0
 16 17  1  0  0  0
 16 43  1  0  0  0
 16 44  1  0  0  0
 17 18  1  0  0  0
 17 22  1  0  0  0
 17 45  1  0  0  0
 18 19  1  0  0  0
 18 46  1  0  0  0
 18 47  1  0  0  0
 19 20  1  0  0  0
 19 48  1  0  0  0
 19 49  1  0  0  0
 20 21  1  0  0  0
 20 23  1  0  0  0
 20 50  1  0  0  0
 21 22  1  0  0  0
 21 51  1  0  0  0
 21 52  1  0  0  0
 22 53  1  0  0  0
 22 54  1  0  0  0
 23 24  1  0  0  0
 23 55  1  0  0  0
 24 25  1  0  0  0
 24 56  1  0  0  0
 24 57  1  0  0  0
 25 26  2  0  0  0
 25 33  1  0  0  0
 26 27  1  0  0  0
 26 58  1  0  0  0
 27 28  1  0  0  0
 27 31  2  0  0  0
 28 29  1  0  0  0
 29 30  1  0  0  0
 29 59  1  0  0  0
 29 60  1  0  0  0
 30 31  1  0  0  0
 31 32  1  0  0  0
 32 33  2  0  0  0
 32 61  1  0  0  0
M  CHG  1  17   1
M  END
> <s_m_source_file>
../2xcs_ligand.sdf

> <i_m_source_file_index>
1

> <s_epik_input>
W0NIM11PYyhbY0hdMSlbY0hdW2NIXWMoYzEyKW5bY0hdYyhDI04pYzJbQ0gyXVtDSDJdW05ASCtdM1tDSDJdW0NIMl1bQ0BASF0oW0NIMl1bQ0gyXTMpW05IMitdW0NIMl1jKFtjSF00KW5bY0hdYyhjNDUpT1tDSDJdUzU=

> <s_epik_cmdline>
J2VwaWtfYXBwJywgJy1pbWFlJywgJ2xpZ2FuZF9wcm8ubWFlJywgJy1vbWFlJywgJ2xpZ2FuZF9wcmVwLm1hZScsICctbXMnLCAnMScsICctcGgnLCAnNycsICctcGh0JywgJzAuNScsICctbnQn

> <r_lp_tautomer_probability>
1

> <r_epik_Ionization_Penalty>
  0.0193

> <r_epik_Ionization_Penalty_Charging>
  0.0010

> <r_epik_Ionization_Penalty_Neutral>
  0.0183

> <r_epik_State_Penalty>
 -0.0000

> <r_epik_Charging_Adjusted_Penalty>
0.00098136377033578

> <i_epik_Tot_Q>
1

> <i_epik_Tot_abs_Q>
1

> <s_epik_Chemistry_Notes>
This compound contains an acetal/aminal-like group ( X-CH(R)-Y where X, Y are N, S, or O) that may be acid/base labile, releasing an aldehyde.

$$$$
