2xct_ligand
                    3D
 Schrodinger Suite 2020-3.
 43 46  0  0  1  0            999 V2000
    3.4710   40.5350   73.0810 O   0  5  0  0  0  0
    2.9970   41.9090   73.0340 C   0  0  0  0  0  0
    2.7240   42.4920   74.0840 O   0  0  0  0  0  0
    2.8510   42.5690   71.6880 C   0  0  0  0  0  0
    2.4030   43.8890   71.5720 C   0  0  0  0  0  0
    2.2870   44.4660   70.3630 N   0  0  0  0  0  0
    2.5820   43.7780   69.2480 C   0  0  0  0  0  0
    2.4370   44.4080   68.0220 C   0  0  0  0  0  0
    2.7360   43.7310   66.8560 C   0  0  0  0  0  0
    2.5970   44.4380   65.6610 N   0  0  0  0  0  0
    2.2360   45.8450   65.7660 C   0  0  0  0  0  0
    3.3020   46.5560   64.9430 C   0  0  0  0  0  0
    3.1910   46.1330   63.5680 N   0  3  0  0  0  0
    2.5000   44.8870   63.3130 C   0  0  0  0  0  0
    2.8590   43.8290   64.3550 C   0  0  0  0  0  0
    3.1880   42.4240   66.9000 C   0  0  0  0  0  0
    3.4910   41.7660   65.7640 F   0  0  0  0  0  0
    3.3330   41.7790   68.1220 C   0  0  0  0  0  0
    3.0320   42.4580   69.3010 C   0  0  0  0  0  0
    3.1650   41.8460   70.5460 C   0  0  0  0  0  0
    3.6030   40.5430   70.6600 O   0  0  0  0  0  0
    1.8090   45.8460   70.2200 C   0  0  0  0  0  0
    1.9450   46.5890   71.5390 C   0  0  0  0  0  0
    2.9770   46.7880   70.4370 C   0  0  0  0  0  0
    2.1427   44.4627   72.4737 H   0  0  0  0  0  0
    2.0833   45.4486   67.9768 H   0  0  0  0  0  0
    1.2258   45.9958   65.3577 H   0  0  0  0  0  0
    2.2537   46.1502   66.8226 H   0  0  0  0  0  0
    3.1524   47.6437   65.0104 H   0  0  0  0  0  0
    4.2981   46.2981   65.3319 H   0  0  0  0  0  0
    2.6444   46.8950   62.9930 H   0  0  0  0  0  0
    4.1968   46.0036   63.1418 H   0  0  0  0  0  0
    1.4137   45.0566   63.3469 H   0  0  0  0  0  0
    2.7812   44.5085   62.3192 H   0  0  0  0  0  0
    3.9209   43.5502   64.2868 H   0  0  0  0  0  0
    2.2358   42.9302   64.2379 H   0  0  0  0  0  0
    3.6806   40.7466   68.1583 H   0  0  0  0  0  0
    3.7004   40.0804   71.6532 H   0  0  0  0  0  0
    1.0145   45.7100   69.4715 H   0  0  0  0  0  0
    1.0585   47.2207   71.6971 H   0  0  0  0  0  0
    2.0296   45.8635   72.3615 H   0  0  0  0  0  0
    3.9203   46.2296   70.3457 H   0  0  0  0  0  0
    2.9492   47.5868   69.6813 H   0  0  0  0  0  0
  1  2  1  0  0  0
  2  3  2  0  0  0
  2  4  1  0  0  0
  4  5  2  0  0  0
  4 20  1  0  0  0
  5  6  1  0  0  0
  5 25  1  0  0  0
  6  7  1  0  0  0
  6 22  1  0  0  0
  7  8  2  0  0  0
  7 19  1  0  0  0
  8  9  1  0  0  0
  8 26  1  0  0  0
  9 10  1  0  0  0
  9 16  2  0  0  0
 10 11  1  0  0  0
 10 15  1  0  0  0
 11 12  1  0  0  0
 11 27  1  0  0  0
 11 28  1  0  0  0
 12 13  1  0  0  0
 12 29  1  0  0  0
 12 30  1  0  0  0
 13 14  1  0  0  0
 13 31  1  0  0  0
 13 32  1  0  0  0
 14 15  1  0  0  0
 14 33  1  0  0  0
 14 34  1  0  0  0
 15 35  1  0  0  0
 15 36  1  0  0  0
 16 17  1  0  0  0
 16 18  1  0  0  0
 18 19  1  0  0  0
 18 37  1  0  0  0
 19 20  2  0  0  0
 20 21  1  0  0  0
 21 38  1  0  0  0
 22 23  1  0  0  0
 22 24  1  0  0  0
 22 39  1  0  0  0
 23 24  1  0  0  0
 23 40  1  0  0  0
 23 41  1  0  0  0
 24 42  1  0  0  0
 24 43  1  0  0  0
M  CHG  2   1  -1  13   1
M  END
> <s_m_source_file>
../2xct_ligand.sdf

> <i_m_source_file_index>
1

> <s_epik_input>
W0NIMl0xW0NIMl1bQ0hdMU4yW0NIXT1DKEMoPU8pW09IXSlDKFtPSF0pPUMoQzI9MylbQ0gyXUMoRik9QyhbQ0hdMylONFtDSDJdW0NIMl1bTkgyK11bQ0gyXVtDSDJdNA==

> <s_epik_cmdline>
J2VwaWtfYXBwJywgJy1pbWFlJywgJ2xpZ2FuZF9wcm8ubWFlJywgJy1vbWFlJywgJ2xpZ2FuZF9wcmVwLm1hZScsICctbXMnLCAnMScsICctcGgnLCAnNycsICctcGh0JywgJzAuNScsICctbnQn

> <r_epik_Ionization_Penalty>
  0.0701

> <r_epik_Ionization_Penalty_Charging>
  0.0654

> <r_epik_Ionization_Penalty_Neutral>
  0.0047

> <r_epik_State_Penalty>
  0.0570

> <r_epik_Charging_Adjusted_Penalty>
0.122423714382019

> <i_epik_Tot_Q>
0

> <i_epik_Tot_abs_Q>
2

> <s_epik_Chemistry_Notes>
This compound has an imine and may undergo hydrolysis.

$$$$
