2xd6_ligand
                    3D
 Schrodinger Suite 2020-3.
 45 46  0  0  1  0            999 V2000
  -18.8570    2.3090   -5.9370 C   0  0  0  0  0  0
  -18.8500    3.2050   -4.7530 C   0  0  0  0  0  0
  -19.8360    4.3840   -4.7180 C   0  0  0  0  0  0
  -19.8370    5.3300   -3.5590 C   0  0  0  0  0  0
  -18.9020    5.1160   -2.4930 C   0  0  0  0  0  0
  -17.8910    3.9030   -2.5390 C   0  0  0  0  0  0
  -17.8900    2.9860   -3.6450 C   0  0  0  0  0  0
  -16.9000    1.8330   -3.6940 C   0  0  0  0  0  0
  -15.4430    2.1980   -3.8190 C   0  0  0  0  0  0
  -14.3840    1.1680   -3.4700 C   0  0  0  0  0  0
  -13.1140    1.1130   -4.3050 C   0  0  0  0  0  0
  -13.2160    0.8620   -5.7960 C   0  0  0  0  0  0
  -13.1920    2.0850   -6.7430 C   0  0  0  0  0  0
  -14.3520    2.2420   -7.6980 C   0  0  0  0  0  0
  -15.2220    1.1770   -7.8560 C   0  0  0  0  0  0
  -16.5000    1.4090   -8.5470 C   0  0  0  0  0  0
  -17.7300    1.3060   -7.7060 C   0  0  0  0  0  0
  -17.7390    2.0470   -6.5110 O   0  0  0  0  0  0
  -19.9310    1.7580   -6.2830 O   0  0  0  0  0  0
  -20.7320    4.5080   -5.7720 O   0  0  0  0  0  0
  -18.8300    5.9760   -1.4070 O   0  5  0  0  0  0
  -16.8490    3.6760   -1.1850 Cl  0  0  0  0  0  0
  -15.1340    3.3100   -4.2850 O   0  0  0  0  0  0
  -14.7050    3.6060   -8.4050 C   0  0  0  0  0  0
  -13.7380    4.5890   -8.5730 O   0  0  0  0  0  0
  -20.5353    6.1662   -3.5255 H   0  0  0  0  0  0
  -16.9817    1.2401   -2.7710 H   0  0  0  0  0  0
  -17.1237    1.1942   -4.5611 H   0  0  0  0  0  0
  -14.0335    1.3366   -2.4411 H   0  0  0  0  0  0
  -14.8137    0.1586   -3.5501 H   0  0  0  0  0  0
  -12.5815    2.0723   -4.2260 H   0  0  0  0  0  0
  -12.4674    0.3032   -3.9361 H   0  0  0  0  0  0
  -12.3736    0.2335   -6.1205 H   0  0  0  0  0  0
  -14.1632    0.3484   -6.0174 H   0  0  0  0  0  0
  -13.1749    3.0096   -6.1474 H   0  0  0  0  0  0
  -12.2940    2.0405   -7.3767 H   0  0  0  0  0  0
  -14.9515    0.1837   -7.4685 H   0  0  0  0  0  0
  -16.5072    2.4228   -8.9739 H   0  0  0  0  0  0
  -16.6201    0.6707   -9.3535 H   0  0  0  0  0  0
  -18.5988    1.6565   -8.2825 H   0  0  0  0  0  0
  -17.8851    0.2580   -7.4099 H   0  0  0  0  0  0
  -20.7009    3.7929   -6.6073 H   0  0  0  0  0  0
  -15.0537    3.4085   -9.4294 H   0  0  0  0  0  0
  -15.4982    4.1174   -7.8399 H   0  0  0  0  0  0
  -13.9971    5.5365   -9.0680 H   0  0  0  0  0  0
  1  2  1  0  0  0
  1 18  1  0  0  0
  1 19  2  0  0  0
  2  3  2  0  0  0
  2  7  1  0  0  0
  3  4  1  0  0  0
  3 20  1  0  0  0
  4  5  2  0  0  0
  4 26  1  0  0  0
  5  6  1  0  0  0
  5 21  1  0  0  0
  6  7  2  0  0  0
  6 22  1  0  0  0
  7  8  1  0  0  0
  8  9  1  0  0  0
  8 27  1  0  0  0
  8 28  1  0  0  0
  9 10  1  0  0  0
  9 23  2  0  0  0
 10 11  1  0  0  0
 10 29  1  0  0  0
 10 30  1  0  0  0
 11 12  1  0  0  0
 11 31  1  0  0  0
 11 32  1  0  0  0
 12 13  1  0  0  0
 12 33  1  0  0  0
 12 34  1  0  0  0
 13 14  1  0  0  0
 13 35  1  0  0  0
 13 36  1  0  0  0
 14 15  2  0  0  0
 14 24  1  0  0  0
 15 16  1  0  0  0
 15 37  1  0  0  0
 16 17  1  0  0  0
 16 38  1  0  0  0
 16 39  1  0  0  0
 17 18  1  0  0  0
 17 40  1  0  0  0
 17 41  1  0  0  0
 20 42  1  0  0  0
 24 25  1  0  0  0
 24 43  1  0  0  0
 24 44  1  0  0  0
 25 45  1  0  0  0
M  CHG  1  21  -1
M  END
> <s_m_source_file>
../2xd6_ligand.sdf

> <i_m_source_file_index>
1

> <s_epik_input>
Tz1DMU9bQ0gyXVtDSDJdXFtDSF09QyhbQ0gyXVtPSF0pXFtDSDJdW0NIMl1bQ0gyXVtDSDJdQyg9TylbQ0gyXWMoYzEyKWMoQ2wpYyhbT0hdKVtjSF1jMltPSF0=

> <s_epik_cmdline>
J2VwaWtfYXBwJywgJy1pbWFlJywgJ2xpZ2FuZF9wcm8ubWFlJywgJy1vbWFlJywgJ2xpZ2FuZF9wcmVwLm1hZScsICctbXMnLCAnMScsICctcGgnLCAnNycsICctcGh0JywgJzAuNScsICctbnQn

> <r_lp_tautomer_probability>
0.99999998

> <r_epik_Ionization_Penalty>
  0.2863

> <r_epik_Ionization_Penalty_Charging>
  0.2862

> <r_epik_Ionization_Penalty_Neutral>
  0.0001

> <r_epik_State_Penalty>
  0.2790

> <r_epik_Charging_Adjusted_Penalty>
0.565138607301955

> <i_epik_Tot_Q>
-1

> <i_epik_Tot_abs_Q>
1

> <s_epik_Chemistry_Notes>
This compound has an ester and may undergo hydrolysis at high or low pH.

$$$$
