2xd9_ligand
                    3D
 Schrodinger Suite 2020-3.
 31 32  0  0  1  0            999 V2000
  -26.8140   48.3580   18.9240 C   0  0  0  0  0  0
  -25.7720   48.2530   17.7820 C   0  0  0  0  0  0
  -26.0810   48.2810   16.4240 C   0  0  0  0  0  0
  -25.1040   48.2110   15.4260 C   0  0  0  0  0  0
  -25.3320   48.2550   14.0870 C   0  0  0  0  0  0
  -23.4050   47.9920   15.6880 S   0  0  0  0  0  0
  -23.0490   48.0310   14.0180 C   0  0  0  0  0  0
  -24.2250   48.1720   13.2780 C   0  0  0  0  0  0
  -24.1500   48.2120   11.7190 C   0  0  2  0  0  0
  -25.3120   49.1050   11.2690 C   0  0  0  0  0  0
  -25.1320   50.3390   11.0160 O   0  5  0  0  0  0
  -26.4170   48.5140   11.2210 O   0  0  0  0  0  0
  -24.3510   46.9460   11.1440 O   0  0  0  0  0  0
  -22.7790   48.7240   11.2060 C   0  0  0  0  0  0
  -21.6130   47.9280   11.8750 C   0  0  1  0  0  0
  -20.3620   48.5350   11.5310 O   0  0  0  0  0  0
  -21.6530   47.9420   13.4340 C   0  0  2  0  0  0
  -20.8670   46.9130   14.1780 O   0  0  0  0  0  0
  -26.2998   48.3090   19.8952 H   0  0  0  0  0  0
  -27.5292   47.5260   18.8454 H   0  0  0  0  0  0
  -27.3527   49.3136   18.8421 H   0  0  0  0  0  0
  -24.7258   48.1503   18.1060 H   0  0  0  0  0  0
  -27.1291   48.3610   16.1000 H   0  0  0  0  0  0
  -26.3377   48.3508   13.6776 H   0  0  0  0  0  0
  -25.2682   46.3806   11.3656 H   0  0  0  0  0  0
  -22.7228   48.5914   10.1155 H   0  0  0  0  0  0
  -22.6707   49.7907   11.4517 H   0  0  0  0  0  0
  -21.6456   46.9020   11.4797 H   0  0  0  0  0  0
  -20.0791   48.6511   10.4743 H   0  0  0  0  0  0
  -21.1006   48.8665   13.6579 H   0  0  0  0  0  0
  -20.8784   46.9013   15.2779 H   0  0  0  0  0  0
  1  2  1  0  0  0
  1 19  1  0  0  0
  1 20  1  0  0  0
  1 21  1  0  0  0
  2  3  2  0  0  0
  2 22  1  0  0  0
  3  4  1  0  0  0
  3 23  1  0  0  0
  4  5  2  0  0  0
  4  6  1  0  0  0
  5  8  1  0  0  0
  5 24  1  0  0  0
  6  7  1  0  0  0
  7  8  2  0  0  0
  7 17  1  0  0  0
  8  9  1  0  0  0
  9 10  1  0  0  0
  9 13  1  0  0  0
  9 14  1  0  0  0
 10 11  1  0  0  0
 10 12  2  0  0  0
 13 25  1  0  0  0
 14 15  1  0  0  0
 14 26  1  0  0  0
 14 27  1  0  0  0
 15 16  1  0  0  0
 15 17  1  0  0  0
 15 28  1  0  0  0
 16 29  1  0  0  0
 17 18  1  0  0  0
 17 30  1  0  0  0
 18 31  1  0  0  0
M  CHG  1  11  -1
M  END
> <s_m_source_file>
../2xd9_ligand.sdf

> <i_m_source_file_index>
1

> <s_epik_input>
W0NIM10vW0NIXT1bQ0hdL2MoczEpW2NIXWMoYzEyKVtDQEBdKFtPSF0pKEMoPU8pW09IXSlbQ0gyXVtDQEBIXShbT0hdKVtDQEBIXTJbT0hd

> <s_epik_cmdline>
J2VwaWtfYXBwJywgJy1pbWFlJywgJ2xpZ2FuZF9wcm8ubWFlJywgJy1vbWFlJywgJ2xpZ2FuZF9wcmVwLm1hZScsICctbXMnLCAnMScsICctcGgnLCAnNycsICctcGh0JywgJzAuNScsICctbnQn

> <r_lp_tautomer_probability>
1

> <r_epik_Ionization_Penalty>
  0.0002

> <r_epik_Ionization_Penalty_Charging>
  0.0002

> <r_epik_Ionization_Penalty_Neutral>
  0.0000

> <r_epik_State_Penalty>
 -0.0000

> <r_epik_Charging_Adjusted_Penalty>
0.000167447921289848

> <i_epik_Tot_Q>
-1

> <i_epik_Tot_abs_Q>
1

$$$$
