2xda_ligand
                    3D
 Schrodinger Suite 2020-3.
 37 39  0  0  1  0            999 V2000
    1.0330   18.5770   26.5630 C   0  0  0  0  0  0
    1.1820   17.4800   25.4960 C   0  0  0  0  0  0
    2.3770   16.5370   25.7270 C   0  0  0  0  0  0
    2.2390   15.3590   24.7630 C   0  0  0  0  0  0
    2.0960   14.0500   25.0410 C   0  0  0  0  0  0
    2.2610   15.5580   23.1290 S   0  0  0  0  0  0
    2.0760   13.9370   22.7770 C   0  0  0  0  0  0
    2.0010   13.2210   23.9740 C   0  0  0  0  0  0
    1.8090   11.6790   23.9580 C   0  0  2  0  0  0
    0.9480   11.2750   25.1550 C   0  0  0  0  0  0
    1.5710   11.1780   26.2130 O   0  0  0  0  0  0
   -0.2760   11.0620   25.0200 O   0  5  0  0  0  0
    3.0760   10.9940   24.1390 O   0  0  0  0  0  0
    1.2290   11.1970   22.6140 C   0  0  0  0  0  0
    2.0610   11.8050   21.4570 C   0  0  1  0  0  0
    1.5430   11.3300   20.2010 O   0  0  0  0  0  0
    1.9390   13.3210   21.4230 C   0  0  2  0  0  0
    2.8510   13.9730   20.5060 O   0  0  0  0  0  0
   -0.3070   19.3200   26.5630 C   0  0  0  0  0  0
    0.9320   20.0080   26.0390 C   0  0  0  0  0  0
    1.6468   18.0653   27.3189 H   0  0  0  0  0  0
    0.2757   16.8567   25.4819 H   0  0  0  0  0  0
    1.3226   17.9450   24.5091 H   0  0  0  0  0  0
    3.3145   17.0791   25.5340 H   0  0  0  0  0  0
    2.3671   16.1806   26.7676 H   0  0  0  0  0  0
    2.0588   13.6786   26.0651 H   0  0  0  0  0  0
    3.6790   11.1818   25.0396 H   0  0  0  0  0  0
    1.2761   10.0990   22.5670 H   0  0  0  0  0  0
    0.1819   11.5230   22.5285 H   0  0  0  0  0  0
    3.1123   11.4957   21.5520 H   0  0  0  0  0  0
    1.5248   10.2513   19.9862 H   0  0  0  0  0  0
    0.9376   13.5331   21.0202 H   0  0  0  0  0  0
    2.8420   15.0685   20.4073 H   0  0  0  0  0  0
   -1.0322   18.7683   25.9468 H   0  0  0  0  0  0
   -0.6842   19.3958   27.5935 H   0  0  0  0  0  0
    1.5893   20.6623   26.6305 H   0  0  0  0  0  0
    1.2414   20.0348   24.9837 H   0  0  0  0  0  0
  1  2  1  0  0  0
  1 19  1  0  0  0
  1 20  1  0  0  0
  1 21  1  0  0  0
  2  3  1  0  0  0
  2 22  1  0  0  0
  2 23  1  0  0  0
  3  4  1  0  0  0
  3 24  1  0  0  0
  3 25  1  0  0  0
  4  5  2  0  0  0
  4  6  1  0  0  0
  5  8  1  0  0  0
  5 26  1  0  0  0
  6  7  1  0  0  0
  7  8  2  0  0  0
  7 17  1  0  0  0
  8  9  1  0  0  0
  9 10  1  0  0  0
  9 13  1  0  0  0
  9 14  1  0  0  0
 10 11  2  0  0  0
 10 12  1  0  0  0
 13 27  1  0  0  0
 14 15  1  0  0  0
 14 28  1  0  0  0
 14 29  1  0  0  0
 15 16  1  0  0  0
 15 17  1  0  0  0
 15 30  1  0  0  0
 16 31  1  0  0  0
 17 18  1  0  0  0
 17 32  1  0  0  0
 18 33  1  0  0  0
 19 20  1  0  0  0
 19 34  1  0  0  0
 19 35  1  0  0  0
 20 36  1  0  0  0
 20 37  1  0  0  0
M  CHG  1  12  -1
M  END
> <s_m_source_file>
../2xda_ligand.sdf

> <i_m_source_file_index>
1

> <s_epik_input>
W0NIMl0xW0NIMl1bQ0hdMVtDSDJdW0NIMl1jKHMyKVtjSF1jKGMyMylbQ0BAXShbT0hdKShDKD1PKVtPSF0pW0NIMl1bQ0BASF0oW09IXSlbQ0BASF0zW09IXQ==

> <s_epik_cmdline>
J2VwaWtfYXBwJywgJy1pbWFlJywgJ2xpZ2FuZF9wcm8ubWFlJywgJy1vbWFlJywgJ2xpZ2FuZF9wcmVwLm1hZScsICctbXMnLCAnMScsICctcGgnLCAnNycsICctcGh0JywgJzAuNScsICctbnQn

> <r_lp_tautomer_probability>
1

> <r_epik_Ionization_Penalty>
  0.0002

> <r_epik_Ionization_Penalty_Charging>
  0.0002

> <r_epik_Ionization_Penalty_Neutral>
  0.0000

> <r_epik_State_Penalty>
 -0.0000

> <r_epik_Charging_Adjusted_Penalty>
0.000167447921289848

> <i_epik_Tot_Q>
-1

> <i_epik_Tot_abs_Q>
1

$$$$
