2xdk_ligand
                    3D
 Schrodinger Suite 2020-3.
 21 22  0  0  1  0            999 V2000
    6.2120    4.1810    9.3060 C   0  0  0  0  0  0
    5.8060    4.2540    7.9860 C   0  0  0  0  0  0
    5.8580    3.2030    7.1600 N   0  0  0  0  0  0
    6.3050    2.0380    7.6540 C   0  0  0  0  0  0
    6.7250    1.8730    8.9730 C   0  0  0  0  0  0
    7.2110    0.5550    9.4690 C   0  0  0  0  0  0
    6.7280    0.1430   10.6520 N   0  0  0  0  0  0
    8.1040   -0.2210    8.7530 C   0  0  0  0  0  0
    8.4900   -1.4350    9.2720 C   0  0  0  0  0  0
    8.0230   -1.8670   10.4440 N   0  0  0  0  0  0
    7.1480   -1.0650   11.0960 C   0  0  0  0  0  0
    6.6440   -1.5080   12.2960 N   0  0  0  0  0  0
    6.6690    2.9810    9.8090 C   0  0  0  0  0  0
    6.1711    5.0643    9.9433 H   0  0  0  0  0  0
    5.4297    5.2032    7.6045 H   0  0  0  0  0  0
    6.3416    1.1753    6.9888 H   0  0  0  0  0  0
    8.4947    0.1229    7.7953 H   0  0  0  0  0  0
    9.1912   -2.0559    8.7145 H   0  0  0  0  0  0
    5.9307   -0.8857   12.8563 H   0  0  0  0  0  0
    6.9541   -2.4847   12.6958 H   0  0  0  0  0  0
    6.9825    2.9029   10.8500 H   0  0  0  0  0  0
  1  2  2  0  0  0
  1 13  1  0  0  0
  1 14  1  0  0  0
  2  3  1  0  0  0
  2 15  1  0  0  0
  3  4  2  0  0  0
  4  5  1  0  0  0
  4 16  1  0  0  0
  5  6  1  0  0  0
  5 13  2  0  0  0
  6  7  2  0  0  0
  6  8  1  0  0  0
  7 11  1  0  0  0
  8  9  2  0  0  0
  8 17  1  0  0  0
  9 10  1  0  0  0
  9 18  1  0  0  0
 10 11  2  0  0  0
 11 12  1  0  0  0
 12 19  1  0  0  0
 12 20  1  0  0  0
 13 21  1  0  0  0
M  END
> <s_m_source_file>
../2xdk_ligand.sdf

> <i_m_source_file_index>
1

> <s_epik_input>
W2NIXTFbY0hdW2NIXW5bY0hdYzEtYzJuYyhbTkgyXSluW2NIXVtjSF0y

> <s_epik_cmdline>
J2VwaWtfYXBwJywgJy1pbWFlJywgJ2xpZ2FuZF9wcm8ubWFlJywgJy1vbWFlJywgJ2xpZ2FuZF9wcmVwLm1hZScsICctbXMnLCAnMScsICctcGgnLCAnNycsICctcGh0JywgJzAuNScsICctbnQn

> <r_lp_tautomer_probability>
1

> <r_epik_Ionization_Penalty>
  0.0008

> <r_epik_Ionization_Penalty_Charging>
  0.0000

> <r_epik_Ionization_Penalty_Neutral>
  0.0008

> <r_epik_State_Penalty>
 -0.0000

> <r_epik_Charging_Adjusted_Penalty>
0

> <i_epik_Tot_Q>
0

> <i_epik_Tot_abs_Q>
0

$$$$
