2xdm_ligand
                    3D
 Schrodinger Suite 2020-3.
 36 35  0  0  1  0            999 V2000
   63.8440   20.0370   34.5000 O   0  0  0  0  0  0
   63.5790   20.1770   33.3060 C   0  0  0  0  0  0
   62.5850   20.9420   32.8580 N   0  0  0  0  0  0
   61.8080   21.5930   33.7270 C   0  0  1  0  0  0
   61.7630   23.0560   33.4660 B   0  0  0  0  0  0
   61.4530   23.3040   31.9900 O   0  0  0  0  0  0
   63.0980   23.7490   33.7820 O   0  0  0  0  0  0
   60.4230   20.9350   33.7040 C   0  0  0  0  0  0
   64.3860   19.4540   32.2510 C   0  0  0  0  0  0
   63.4880   18.3390   31.7210 C   0  0  0  0  0  0
   64.2720   17.2760   30.9570 C   0  0  0  0  0  0
   63.3480   16.0990   30.6480 C   0  0  0  0  0  0
   63.7840   15.2540   29.4570 C   0  0  1  0  0  0
   62.7830   14.2250   29.3150 N   0  3  0  0  0  0
   63.8290   16.0420   28.1750 C   0  0  0  0  0  0
   64.9400   16.3830   27.7220 O   0  0  0  0  0  0
   62.7610   16.3240   27.5870 O   0  5  0  0  0  0
   62.4028   21.0388   31.7775 H   0  0  0  0  0  0
   62.3465   21.4660   34.6778 H   0  0  0  0  0  0
   60.5347   22.8939   31.5444 H   0  0  0  0  0  0
   63.5167   23.6990   34.7980 H   0  0  0  0  0  0
   60.5254   19.8580   33.9031 H   0  0  0  0  0  0
   59.9631   21.0832   32.7158 H   0  0  0  0  0  0
   59.7871   21.3919   34.4766 H   0  0  0  0  0  0
   64.6579   20.1582   31.4509 H   0  0  0  0  0  0
   65.3003   19.0445   32.7054 H   0  0  0  0  0  0
   62.9790   17.8468   32.5628 H   0  0  0  0  0  0
   62.7385   18.7653   31.0380 H   0  0  0  0  0  0
   64.6518   17.7048   30.0179 H   0  0  0  0  0  0
   65.1172   16.9317   31.5711 H   0  0  0  0  0  0
   63.3045   15.4285   31.5190 H   0  0  0  0  0  0
   62.3387   16.4743   30.4234 H   0  0  0  0  0  0
   64.7814   14.8212   29.6240 H   0  0  0  0  0  0
   62.7309   13.6339   30.2412 H   0  0  0  0  0  0
   63.0500   13.5672   28.4748 H   0  0  0  0  0  0
   61.8049   14.6893   29.1208 H   0  0  0  0  0  0
  1  2  2  0  0  0
  2  3  1  0  0  0
  2  9  1  0  0  0
  3  4  1  0  0  0
  3 18  1  0  0  0
  4  5  1  0  0  0
  4  8  1  0  0  0
  4 19  1  0  0  0
  5  6  1  0  0  0
  5  7  1  0  0  0
  6 20  1  0  0  0
  7 21  1  0  0  0
  8 22  1  0  0  0
  8 23  1  0  0  0
  8 24  1  0  0  0
  9 10  1  0  0  0
  9 25  1  0  0  0
  9 26  1  0  0  0
 10 11  1  0  0  0
 10 27  1  0  0  0
 10 28  1  0  0  0
 11 12  1  0  0  0
 11 29  1  0  0  0
 11 30  1  0  0  0
 12 13  1  0  0  0
 12 31  1  0  0  0
 12 32  1  0  0  0
 13 14  1  0  0  0
 13 15  1  0  0  0
 13 33  1  0  0  0
 14 34  1  0  0  0
 14 35  1  0  0  0
 14 36  1  0  0  0
 15 16  2  0  0  0
 15 17  1  0  0  0
M  CHG  2  14   1  17  -1
M  END
> <s_m_source_file>
../2xdm_ligand.sdf

> <i_m_source_file_index>
1

> <s_epik_input>
W09IXUIoW09IXSlbQ0BASF0oW0NIM10pW05IXUMoPU8pW0NIMl1bQ0gyXVtDSDJdW0NIMl1bQ0BASF0oW05IMytdKUMoPU8pW09IXQ==

> <s_epik_cmdline>
J2VwaWtfYXBwJywgJy1pbWFlJywgJ2xpZ2FuZF9wcm8ubWFlJywgJy1vbWFlJywgJ2xpZ2FuZF9wcmVwLm1hZScsICctbXMnLCAnMScsICctcGgnLCAnNycsICctcGh0JywgJzAuNScsICctbnQn

> <r_lp_tautomer_probability>
1

> <r_epik_Ionization_Penalty>
  0.0010

> <r_epik_Ionization_Penalty_Charging>
  0.0010

> <r_epik_Ionization_Penalty_Neutral>
  0.0000

> <r_epik_State_Penalty>
 -0.0000

> <r_epik_Charging_Adjusted_Penalty>
0.00102088499900804

> <i_epik_Tot_Q>
0

> <i_epik_Tot_abs_Q>
2

> <s_epik_Chemistry_Notes>
This compound contains a Lewis acid (boronic acid) which adds nucleophiles to form tetrahedral complexes, lowering the experimental pKa

$$$$
