2xdw_ligand
                    3D
 Schrodinger Suite 2020-3.
 51 53  0  0  1  0            999 V2000
   45.1100   37.4500   88.2230 C   0  0  0  0  0  0
   45.7190   36.4260   88.9420 C   0  0  0  0  0  0
   45.8460   35.1560   88.3670 C   0  0  0  0  0  0
   45.4000   34.8960   87.0770 C   0  0  0  0  0  0
   44.7800   35.9200   86.3600 C   0  0  0  0  0  0
   44.6350   37.1820   86.9300 C   0  0  0  0  0  0
   43.9710   38.2880   86.1530 C   0  0  0  0  0  0
   42.5510   38.0930   86.3090 O   0  0  0  0  0  0
   41.8040   37.5250   85.2350 C   0  0  0  0  0  0
   42.3650   37.2600   84.1690 O   0  0  0  0  0  0
   40.4980   37.3490   85.4990 N   0  0  0  0  0  0
   39.5960   36.8000   84.5140 C   0  0  2  0  0  0
   39.2830   37.8560   83.4850 C   0  0  0  0  0  0
   39.6890   39.0340   83.6500 O   0  0  0  0  0  0
   38.3480   36.5200   85.3550 C   0  0  0  0  0  0
   38.4110   37.5160   86.4960 C   0  0  0  0  0  0
   39.8920   37.6880   86.7900 C   0  0  0  0  0  0
   36.7440   39.0120   81.7070 C   0  0  0  0  0  0
   38.5630   37.5020   82.4160 N   0  0  0  0  0  0
   35.8670   37.8970   81.9070 O   0  0  0  0  0  0
   38.1990   38.5680   81.4270 C   0  0  1  0  0  0
   38.3260   38.0370   79.9700 C   0  0  0  0  0  0
   38.2230   35.6820   80.7310 C   0  0  0  0  0  0
   38.0240   36.1230   82.1780 C   0  0  0  0  0  0
   37.6530   36.6850   79.7300 C   0  0  0  0  0  0
   45.0036   38.4442   88.6571 H   0  0  0  0  0  0
   46.0953   36.6119   89.9480 H   0  0  0  0  0  0
   46.3050   34.3532   88.9441 H   0  0  0  0  0  0
   45.5321   33.9094   86.6329 H   0  0  0  0  0  0
   44.4088   35.7317   85.3526 H   0  0  0  0  0  0
   44.2838   39.2609   86.5600 H   0  0  0  0  0  0
   44.2657   38.2211   85.0953 H   0  0  0  0  0  0
   40.0273   35.9329   83.9924 H   0  0  0  0  0  0
   37.4494   36.6666   84.7377 H   0  0  0  0  0  0
   38.3769   35.4827   85.7199 H   0  0  0  0  0  0
   37.9476   38.4630   86.1821 H   0  0  0  0  0  0
   37.8696   37.1132   87.3647 H   0  0  0  0  0  0
   40.2621   36.9968   87.5615 H   0  0  0  0  0  0
   40.1613   38.7193   87.0620 H   0  0  0  0  0  0
   36.3956   39.6029   80.8471 H   0  0  0  0  0  0
   36.7467   39.6427   82.6082 H   0  0  0  0  0  0
   34.8004   38.0667   82.1158 H   0  0  0  0  0  0
   38.8991   39.4054   81.5635 H   0  0  0  0  0  0
   37.8621   38.7540   79.2767 H   0  0  0  0  0  0
   39.3892   37.9160   79.7152 H   0  0  0  0  0  0
   39.2981   35.5725   80.5256 H   0  0  0  0  0  0
   37.7187   34.7180   80.5688 H   0  0  0  0  0  0
   38.5439   35.4081   82.8327 H   0  0  0  0  0  0
   36.9468   36.1070   82.4000 H   0  0  0  0  0  0
   36.5670   36.7855   79.8731 H   0  0  0  0  0  0
   37.8580   36.3507   78.7023 H   0  0  0  0  0  0
  1  2  2  0  0  0
  1  6  1  0  0  0
  1 26  1  0  0  0
  2  3  1  0  0  0
  2 27  1  0  0  0
  3  4  2  0  0  0
  3 28  1  0  0  0
  4  5  1  0  0  0
  4 29  1  0  0  0
  5  6  2  0  0  0
  5 30  1  0  0  0
  6  7  1  0  0  0
  7  8  1  0  0  0
  7 31  1  0  0  0
  7 32  1  0  0  0
  8  9  1  0  0  0
  9 10  2  0  0  0
  9 11  1  0  0  0
 11 12  1  0  0  0
 11 17  1  0  0  0
 12 13  1  0  0  0
 12 15  1  0  0  0
 12 33  1  0  0  0
 13 14  2  0  0  0
 13 19  1  0  0  0
 15 16  1  0  0  0
 15 34  1  0  0  0
 15 35  1  0  0  0
 16 17  1  0  0  0
 16 36  1  0  0  0
 16 37  1  0  0  0
 17 38  1  0  0  0
 17 39  1  0  0  0
 18 20  1  0  0  0
 18 21  1  0  0  0
 18 40  1  0  0  0
 18 41  1  0  0  0
 19 21  1  0  0  0
 19 24  1  0  0  0
 20 42  1  0  0  0
 21 22  1  0  0  0
 21 43  1  0  0  0
 22 25  1  0  0  0
 22 44  1  0  0  0
 22 45  1  0  0  0
 23 24  1  0  0  0
 23 25  1  0  0  0
 23 46  1  0  0  0
 23 47  1  0  0  0
 24 48  1  0  0  0
 24 49  1  0  0  0
 25 50  1  0  0  0
 25 51  1  0  0  0
M  END
> <s_m_source_file>
../2xdw_ligand.sdf

> <i_m_source_file_index>
1

> <s_epik_input>
W2NIXTFbY0hdW2NIXVtjSF1bY0hdYzFbQ0gyXU9DKD1PKU4yW0NAQEhdKFtDSDJdW0NIMl1bQ0gyXTIpQyg9TylOM1tDQEhdKFtDSDJdW09IXSlbQ0gyXVtDSDJdW0NIMl1bQ0gyXTM=

> <s_epik_cmdline>
J2VwaWtfYXBwJywgJy1pbWFlJywgJ2xpZ2FuZF9wcm8ubWFlJywgJy1vbWFlJywgJ2xpZ2FuZF9wcmVwLm1hZScsICctbXMnLCAnMScsICctcGgnLCAnNycsICctcGh0JywgJzAuNScsICctbnQn

> <r_lp_tautomer_probability>
1

> <r_epik_Ionization_Penalty>
  0.0000

> <r_epik_Ionization_Penalty_Charging>
  0.0000

> <r_epik_Ionization_Penalty_Neutral>
  0.0000

> <r_epik_State_Penalty>
 -0.0000

> <r_epik_Charging_Adjusted_Penalty>
0

> <i_epik_Tot_Q>
0

> <i_epik_Tot_abs_Q>
0

> <s_epik_Chemistry_Notes>
This compound has an ester and may undergo hydrolysis at high or low pH.

$$$$
