2xe4_ligand
                    3D
 Schrodinger Suite 2020-3.
 90 90  0  0  1  0            999 V2000
   -3.5310   24.2540   67.4760 C   0  0  0  0  0  0
   -3.7450   22.9060   67.1500 C   0  0  0  0  0  0
   -4.4130   22.5740   65.9770 C   0  0  0  0  0  0
   -4.8680   23.5960   65.1230 C   0  0  0  0  0  0
   -4.6640   24.9470   65.4650 C   0  0  0  0  0  0
   -3.9970   25.2840   66.6640 C   0  0  0  0  0  0
   -3.7720   26.7790   67.0450 C   0  0  0  0  0  0
   -3.8270   27.0900   68.5840 C   0  0  1  0  0  0
   -3.7760   28.6370   68.8900 C   0  0  0  0  0  0
   -3.5640   29.0220   70.0930 O   0  5  0  0  0  0
   -4.0210   29.3910   67.9320 O   0  0  0  0  0  0
   -5.0430   26.5660   69.2790 N   0  0  0  0  0  0
   -5.0930   26.4850   70.6370 C   0  0  0  0  0  0
   -4.1030   26.8640   71.3010 O   0  0  0  0  0  0
   -6.2240   25.9640   71.2350 N   0  0  0  0  0  0
   -6.4750   25.8520   72.7050 C   0  0  2  0  0  0
   -5.7520   24.5030   73.1310 C   0  0  0  0  0  0
   -6.3630   23.4780   73.5020 O   0  0  0  0  0  0
   -7.9670   25.6240   72.9410 C   0  0  0  0  0  0
   -8.7800   26.8910   72.7380 C   0  0  0  0  0  0
  -10.3340   26.5640   72.8860 C   0  0  0  0  0  0
  -10.8520   25.9250   74.2530 N   0  0  0  0  0  0
  -11.1950   24.7790   75.0580 C   0  0  0  0  0  0
  -11.6200   23.3510   74.7900 N   0  0  0  0  0  0
  -11.3460   25.3200   76.3390 N   0  3  0  0  0  0
   -4.4400   24.4790   73.0300 N   0  0  0  0  0  0
   -3.6670   23.2590   73.2650 C   0  0  2  0  0  0
   -2.8530   23.4040   74.5240 C   0  0  0  0  0  0
   -2.5020   24.4950   74.9430 O   0  0  0  0  0  0
   -2.7600   22.9390   71.9890 C   0  0  0  0  0  0
   -3.7730   22.5520   70.7830 C   0  0  0  0  0  0
   -1.7700   24.1130   71.6820 C   0  0  0  0  0  0
   -2.4120   22.2230   74.9770 N   0  0  0  0  0  0
   -1.4650   22.1680   76.1230 C   0  0  2  0  0  0
   -0.0800   22.3510   75.4320 C   0  0  0  0  0  0
    0.2710   21.2790   74.5170 O   0  0  0  0  0  0
   -1.4950   20.8250   76.8900 C   0  0  0  0  0  0
   -2.9840   20.7780   77.5020 C   0  0  0  0  0  0
   -3.0690   19.4630   78.3310 C   0  0  0  0  0  0
   -4.4500   19.0820   78.5430 N   0  0  0  0  0  0
   -5.2000   19.2860   79.6930 C   0  0  0  0  0  0
   -4.7650   20.1190   80.6800 N   0  0  0  0  0  0
   -6.3570   18.5760   79.6780 N   0  3  0  0  0  0
   -2.9865   24.5005   68.3875 H   0  0  0  0  0  0
   -3.3879   22.1203   67.8157 H   0  0  0  0  0  0
   -4.5834   21.5285   65.7202 H   0  0  0  0  0  0
   -5.3795   23.3414   64.1947 H   0  0  0  0  0  0
   -5.0219   25.7351   64.8025 H   0  0  0  0  0  0
   -2.7804   27.1014   66.6947 H   0  0  0  0  0  0
   -4.5476   27.3988   66.5714 H   0  0  0  0  0  0
   -2.9697   26.5401   68.9995 H   0  0  0  0  0  0
   -5.9140   26.2392   68.6920 H   0  0  0  0  0  0
   -6.9815   25.6120   70.5193 H   0  0  0  0  0  0
   -6.1497   26.7721   73.2125 H   0  0  0  0  0  0
   -8.3375   24.8638   72.2375 H   0  0  0  0  0  0
   -8.1263   25.2774   73.9727 H   0  0  0  0  0  0
   -8.4914   27.6368   73.4933 H   0  0  0  0  0  0
   -8.5868   27.2935   71.7327 H   0  0  0  0  0  0
  -10.9161   27.4903   72.7713 H   0  0  0  0  0  0
  -10.6329   25.8446   72.1094 H   0  0  0  0  0  0
  -11.1205   26.5765   75.0977 H   0  0  0  0  0  0
  -11.5029   22.9219   73.7839 H   0  0  0  0  0  0
  -12.0459   22.7425   75.6013 H   0  0  0  0  0  0
  -11.0384   26.3572   76.5378 H   0  0  0  0  0  0
   -3.9252   25.4128   72.7600 H   0  0  0  0  0  0
   -4.3946   22.4570   73.4584 H   0  0  0  0  0  0
   -2.0618   22.1079   72.1669 H   0  0  0  0  0  0
   -4.4207   21.7215   71.1005 H   0  0  0  0  0  0
   -3.1922   22.2472   69.8999 H   0  0  0  0  0  0
   -4.3931   23.4248   70.5307 H   0  0  0  0  0  0
   -1.1319   24.2935   72.5597 H   0  0  0  0  0  0
   -2.3418   25.0238   71.4508 H   0  0  0  0  0  0
   -1.1409   23.8462   70.8200 H   0  0  0  0  0  0
   -2.7519   21.2923   74.4993 H   0  0  0  0  0  0
   -1.7470   22.9318   76.8626 H   0  0  0  0  0  0
   -0.0804   23.2855   74.8517 H   0  0  0  0  0  0
    0.7087   22.3951   76.1975 H   0  0  0  0  0  0
    1.2282   21.3092   73.9758 H   0  0  0  0  0  0
   -1.3029   19.9986   76.1899 H   0  0  0  0  0  0
   -0.7204   20.8314   77.6710 H   0  0  0  0  0  0
   -3.1464   21.6597   78.1394 H   0  0  0  0  0  0
   -3.7175   20.7780   76.6823 H   0  0  0  0  0  0
   -2.5555   18.6546   77.7899 H   0  0  0  0  0  0
   -2.5871   19.6138   79.3083 H   0  0  0  0  0  0
   -5.0099   18.5757   77.7429 H   0  0  0  0  0  0
   -3.8027   20.6414   80.5744 H   0  0  0  0  0  0
   -5.3762   20.2689   81.5822 H   0  0  0  0  0  0
   -6.5973   17.9341   78.8176 H   0  0  0  0  0  0
  -11.7724   24.7082   77.1477 H   0  0  0  0  0  0
   -7.0542   18.6426   80.5262 H   0  0  0  0  0  0
  1  2  2  0  0  0
  1  6  1  0  0  0
  1 44  1  0  0  0
  2  3  1  0  0  0
  2 45  1  0  0  0
  3  4  2  0  0  0
  3 46  1  0  0  0
  4  5  1  0  0  0
  4 47  1  0  0  0
  5  6  2  0  0  0
  5 48  1  0  0  0
  6  7  1  0  0  0
  7  8  1  0  0  0
  7 49  1  0  0  0
  7 50  1  0  0  0
  8  9  1  0  0  0
  8 12  1  0  0  0
  8 51  1  0  0  0
  9 10  1  0  0  0
  9 11  2  0  0  0
 12 13  1  0  0  0
 12 52  1  0  0  0
 13 14  2  0  0  0
 13 15  1  0  0  0
 15 16  1  0  0  0
 15 53  1  0  0  0
 16 17  1  0  0  0
 16 19  1  0  0  0
 16 54  1  0  0  0
 17 18  2  0  0  0
 17 26  1  0  0  0
 19 20  1  0  0  0
 19 55  1  0  0  0
 19 56  1  0  0  0
 20 21  1  0  0  0
 20 57  1  0  0  0
 20 58  1  0  0  0
 21 22  1  0  0  0
 21 59  1  0  0  0
 21 60  1  0  0  0
 22 23  1  0  0  0
 22 61  1  0  0  0
 23 24  1  0  0  0
 23 25  2  0  0  0
 24 62  1  0  0  0
 24 63  1  0  0  0
 25 64  1  0  0  0
 25 89  1  0  0  0
 26 27  1  0  0  0
 26 65  1  0  0  0
 27 28  1  0  0  0
 27 30  1  0  0  0
 27 66  1  0  0  0
 28 29  2  0  0  0
 28 33  1  0  0  0
 30 31  1  0  0  0
 30 32  1  0  0  0
 30 67  1  0  0  0
 31 68  1  0  0  0
 31 69  1  0  0  0
 31 70  1  0  0  0
 32 71  1  0  0  0
 32 72  1  0  0  0
 32 73  1  0  0  0
 33 34  1  0  0  0
 33 74  1  0  0  0
 34 35  1  0  0  0
 34 37  1  0  0  0
 34 75  1  0  0  0
 35 36  1  0  0  0
 35 76  1  0  0  0
 35 77  1  0  0  0
 36 78  1  0  0  0
 37 38  1  0  0  0
 37 79  1  0  0  0
 37 80  1  0  0  0
 38 39  1  0  0  0
 38 81  1  0  0  0
 38 82  1  0  0  0
 39 40  1  0  0  0
 39 83  1  0  0  0
 39 84  1  0  0  0
 40 41  1  0  0  0
 40 85  1  0  0  0
 41 42  1  0  0  0
 41 43  2  0  0  0
 42 86  1  0  0  0
 42 87  1  0  0  0
 43 88  1  0  0  0
 43 90  1  0  0  0
M  CHG  3  10  -1  25   1  43   1
M  END
> <s_m_source_file>
../2xe4_ligand.sdf

> <i_m_source_file_index>
1

> <s_epik_input>
W2NIXTFbY0hdW2NIXVtjSF1bY0hdYzFbQ0gyXVtDQEBIXShDKD1PKVtPSF0pW05IXUMoPU8pW05IXVtDQEBIXShbQ0gyXVtDSDJdW0NIMl1bTkhdL0MoW05IMl0pPU5cW0hdKUMoPU8pW05IXVtDQEBIXShbQ0hdKFtDSDNdKVtDSDNdKUMoPU8pW05IXVtDQEhdKFtDSDJdW09IXSlbQ0gyXVtDSDJdW0NIMl1bTkhdL0MoW05IMl0pPU5cW0hd

> <s_epik_cmdline>
J2VwaWtfYXBwJywgJy1pbWFlJywgJ2xpZ2FuZF9wcm8ubWFlJywgJy1vbWFlJywgJ2xpZ2FuZF9wcmVwLm1hZScsICctbXMnLCAnMScsICctcGgnLCAnNycsICctcGh0JywgJzAuNScsICctbnQn

> <r_lp_tautomer_probability>
1

> <r_epik_Ionization_Penalty>
  0.0010

> <r_epik_Ionization_Penalty_Charging>
  0.0010

> <r_epik_Ionization_Penalty_Neutral>
  0.0000

> <r_epik_State_Penalty>
 -0.0000

> <r_epik_Charging_Adjusted_Penalty>
0.000986132972669687

> <i_epik_Tot_Q>
1

> <i_epik_Tot_abs_Q>
3

> <s_epik_Chemistry_Notes>
This compound has an imine and may undergo hydrolysis.

$$$$
