2xef_ligand
                    3D
 Schrodinger Suite 2020-3.
119120  0  0  1  0            999 V2000
   13.6780   48.5550   40.4320 O   0  5  0  0  0  0
   13.7100   47.3180   40.1820 C   0  0  0  0  0  0
   12.9160   46.7110   39.4310 O   0  0  0  0  0  0
   14.8640   46.5160   40.8210 C   0  0  0  0  0  0
   14.6130   45.0040   41.0280 C   0  0  0  0  0  0
   15.9530   44.2980   41.3870 C   0  0  1  0  0  0
   16.9260   44.4800   40.1820 C   0  0  0  0  0  0
   16.8290   43.6820   39.2200 O   0  0  0  0  0  0
   17.8310   45.3600   40.2180 O   0  5  0  0  0  0
   16.6050   44.9270   42.5620 N   0  0  0  0  0  0
   17.8670   44.5470   42.8730 C   0  0  0  0  0  0
   18.3030   43.4720   42.4230 O   0  0  0  0  0  0
   18.5170   45.3040   43.7580 N   0  0  0  0  0  0
   19.8540   44.9550   44.2150 C   0  0  2  0  0  0
   20.0470   45.6070   45.5870 C   0  0  0  0  0  0
   20.6410   44.9100   46.4450 O   0  5  0  0  0  0
   19.5110   46.7230   45.7860 O   0  0  0  0  0  0
   20.7270   45.6880   43.1890 C   0  0  0  0  0  0
   22.2140   45.3450   43.1670 C   0  0  0  0  0  0
   22.7530   46.1600   41.9810 C   0  0  0  0  0  0
   24.1760   45.7860   41.5860 C   0  0  0  0  0  0
   24.6640   46.7580   40.5820 N   0  0  0  0  0  0
   24.9100   48.0490   40.8200 C   0  0  0  0  0  0
   24.9000   46.4700   39.3960 N   0  0  0  0  0  0
   25.2980   47.4730   38.7760 N   0  0  0  0  0  0
   25.3180   48.4970   39.6360 C   0  0  0  0  0  0
   25.7160   49.8140   39.3400 C   0  0  0  0  0  0
   24.8670   50.9660   39.6180 O   0  0  0  0  0  0
   25.5780   52.0450   40.2580 C   0  0  0  0  0  0
   25.2060   52.2120   41.7450 C   0  0  0  0  0  0
   25.2280   53.5980   42.1700 O   0  0  0  0  0  0
   26.5500   53.9950   42.5860 C   0  0  0  0  0  0
   27.0290   55.2170   41.8030 C   0  0  0  0  0  0
   27.9940   55.9200   42.6180 O   0  0  0  0  0  0
   29.1800   56.2430   41.8270 C   0  0  0  0  0  0
   29.5210   57.7510   41.9710 C   0  0  0  0  0  0
   29.9510   57.9940   43.3550 O   0  0  0  0  0  0
   29.3900   59.2770   43.8130 C   0  0  0  0  0  0
   28.3590   59.1040   44.9820 C   0  0  0  0  0  0
   27.2840   58.2190   44.5910 O   0  0  0  0  0  0
   26.1090   58.9570   44.0750 C   0  0  0  0  0  0
   25.2120   58.0390   43.2250 C   0  0  0  0  0  0
   23.9380   57.5710   43.8790 O   0  0  0  0  0  0
   24.1860   56.9210   45.1310 C   0  0  0  0  0  0
   23.0620   55.9480   45.4400 C   0  0  0  0  0  0
   23.3750   54.5230   45.4660 O   0  0  0  0  0  0
   24.7760   54.2090   45.4550 C   0  0  0  0  0  0
   25.1800   53.3100   46.6010 C   0  0  0  0  0  0
   26.5540   52.9360   46.4100 O   0  0  0  0  0  0
   27.3190   53.4180   47.5260 C   0  0  0  0  0  0
   28.6570   54.0450   47.1140 C   0  0  0  0  0  0
   29.6730   53.6210   48.0950 N   0  0  0  0  0  0
   31.0010   53.7140   47.9320 C   0  0  0  0  0  0
   31.5480   54.5880   46.9860 C   0  0  0  0  0  0
   32.9320   54.6830   46.8420 C   0  0  0  0  0  0
   33.7840   53.9150   47.6410 C   0  0  0  0  0  0
   35.1200   54.0020   47.4960 N   0  3  0  0  0  0
   35.6970   54.8660   46.5070 O   0  0  0  0  0  0
   36.0120   53.2200   48.3080 O   0  5  0  0  0  0
   33.2310   53.0480   48.5890 C   0  0  0  0  0  0
   31.8470   52.9370   48.7440 C   0  0  0  0  0  0
   31.3570   52.0880   49.6660 N   0  3  0  0  0  0
   29.9680   51.8380   49.7760 O   0  0  0  0  0  0
   32.2200   51.4110   50.5550 O   0  5  0  0  0  0
   15.7584   46.5905   40.1850 H   0  0  0  0  0  0
   15.0874   46.9254   41.8173 H   0  0  0  0  0  0
   13.8929   44.8606   41.8471 H   0  0  0  0  0  0
   14.2069   44.5696   40.1026 H   0  0  0  0  0  0
   15.7561   43.2497   41.6558 H   0  0  0  0  0  0
   16.0638   45.6800   43.1537 H   0  0  0  0  0  0
   18.0226   46.2079   44.1433 H   0  0  0  0  0  0
   20.0235   43.8704   44.2844 H   0  0  0  0  0  0
   20.3606   45.4717   42.1746 H   0  0  0  0  0  0
   20.6781   46.7714   43.3732 H   0  0  0  0  0  0
   22.6729   45.6417   44.1217 H   0  0  0  0  0  0
   22.3383   44.2618   43.0214 H   0  0  0  0  0  0
   22.1125   45.9957   41.1020 H   0  0  0  0  0  0
   22.7526   47.2290   42.2403 H   0  0  0  0  0  0
   24.8225   45.8129   42.4755 H   0  0  0  0  0  0
   24.1834   44.7728   41.1579 H   0  0  0  0  0  0
   24.8028   48.5998   41.7545 H   0  0  0  0  0  0
   26.6362   50.0521   39.8937 H   0  0  0  0  0  0
   25.9036   49.9064   38.2601 H   0  0  0  0  0  0
   26.6600   51.8545   40.2033 H   0  0  0  0  0  0
   25.3460   52.9910   39.7469 H   0  0  0  0  0  0
   24.1919   51.8214   41.9153 H   0  0  0  0  0  0
   25.9225   51.6555   42.3670 H   0  0  0  0  0  0
   26.5375   54.2459   43.6569 H   0  0  0  0  0  0
   27.2533   53.1674   42.4116 H   0  0  0  0  0  0
   27.4938   54.8899   40.8612 H   0  0  0  0  0  0
   26.1717   55.8697   41.5815 H   0  0  0  0  0  0
   30.0317   55.6442   42.1820 H   0  0  0  0  0  0
   28.9877   56.0153   40.7681 H   0  0  0  0  0  0
   30.3295   58.0124   41.2724 H   0  0  0  0  0  0
   28.6290   58.3522   41.7410 H   0  0  0  0  0  0
   30.2027   59.9246   44.1737 H   0  0  0  0  0  0
   28.8719   59.7699   42.9772 H   0  0  0  0  0  0
   28.8677   58.6783   45.8595 H   0  0  0  0  0  0
   27.9341   60.0841   45.2442 H   0  0  0  0  0  0
   25.5193   59.3438   44.9192 H   0  0  0  0  0  0
   26.4485   59.7961   43.4500 H   0  0  0  0  0  0
   24.9088   58.5681   42.3095 H   0  0  0  0  0  0
   25.7689   57.1295   42.9555 H   0  0  0  0  0  0
   25.1371   56.3710   45.0765 H   0  0  0  0  0  0
   24.2434   57.6745   45.9303 H   0  0  0  0  0  0
   22.6505   56.1676   46.4362 H   0  0  0  0  0  0
   22.2691   56.0519   44.6847 H   0  0  0  0  0  0
   25.0289   53.6937   44.5166 H   0  0  0  0  0  0
   25.3605   55.1376   45.5324 H   0  0  0  0  0  0
   25.0627   53.8519   47.5510 H   0  0  0  0  0  0
   24.5405   52.4150   46.6080 H   0  0  0  0  0  0
   26.7422   54.1866   48.0613 H   0  0  0  0  0  0
   27.5387   52.5833   48.2079 H   0  0  0  0  0  0
   28.9300   53.6975   46.1067 H   0  0  0  0  0  0
   28.5628   55.1410   47.1108 H   0  0  0  0  0  0
   29.3617   53.1859   49.0561 H   0  0  0  0  0  0
   30.8923   55.1947   46.3615 H   0  0  0  0  0  0
   33.3528   55.3618   46.1002 H   0  0  0  0  0  0
   33.8906   52.4492   49.2171 H   0  0  0  0  0  0
  1  2  1  0  0  0
  2  3  2  0  0  0
  2  4  1  0  0  0
  4  5  1  0  0  0
  4 65  1  0  0  0
  4 66  1  0  0  0
  5  6  1  0  0  0
  5 67  1  0  0  0
  5 68  1  0  0  0
  6  7  1  0  0  0
  6 10  1  0  0  0
  6 69  1  0  0  0
  7  8  2  0  0  0
  7  9  1  0  0  0
 10 11  1  0  0  0
 10 70  1  0  0  0
 11 12  2  0  0  0
 11 13  1  0  0  0
 13 14  1  0  0  0
 13 71  1  0  0  0
 14 15  1  0  0  0
 14 18  1  0  0  0
 14 72  1  0  0  0
 15 16  1  0  0  0
 15 17  2  0  0  0
 18 19  1  0  0  0
 18 73  1  0  0  0
 18 74  1  0  0  0
 19 20  1  0  0  0
 19 75  1  0  0  0
 19 76  1  0  0  0
 20 21  1  0  0  0
 20 77  1  0  0  0
 20 78  1  0  0  0
 21 22  1  0  0  0
 21 79  1  0  0  0
 21 80  1  0  0  0
 22 23  1  0  0  0
 22 24  1  0  0  0
 23 26  2  0  0  0
 23 81  1  0  0  0
 24 25  2  0  0  0
 25 26  1  0  0  0
 26 27  1  0  0  0
 27 28  1  0  0  0
 27 82  1  0  0  0
 27 83  1  0  0  0
 28 29  1  0  0  0
 29 30  1  0  0  0
 29 84  1  0  0  0
 29 85  1  0  0  0
 30 31  1  0  0  0
 30 86  1  0  0  0
 30 87  1  0  0  0
 31 32  1  0  0  0
 32 33  1  0  0  0
 32 88  1  0  0  0
 32 89  1  0  0  0
 33 34  1  0  0  0
 33 90  1  0  0  0
 33 91  1  0  0  0
 34 35  1  0  0  0
 35 36  1  0  0  0
 35 92  1  0  0  0
 35 93  1  0  0  0
 36 37  1  0  0  0
 36 94  1  0  0  0
 36 95  1  0  0  0
 37 38  1  0  0  0
 38 39  1  0  0  0
 38 96  1  0  0  0
 38 97  1  0  0  0
 39 40  1  0  0  0
 39 98  1  0  0  0
 39 99  1  0  0  0
 40 41  1  0  0  0
 41 42  1  0  0  0
 41100  1  0  0  0
 41101  1  0  0  0
 42 43  1  0  0  0
 42102  1  0  0  0
 42103  1  0  0  0
 43 44  1  0  0  0
 44 45  1  0  0  0
 44104  1  0  0  0
 44105  1  0  0  0
 45 46  1  0  0  0
 45106  1  0  0  0
 45107  1  0  0  0
 46 47  1  0  0  0
 47 48  1  0  0  0
 47108  1  0  0  0
 47109  1  0  0  0
 48 49  1  0  0  0
 48110  1  0  0  0
 48111  1  0  0  0
 49 50  1  0  0  0
 50 51  1  0  0  0
 50112  1  0  0  0
 50113  1  0  0  0
 51 52  1  0  0  0
 51114  1  0  0  0
 51115  1  0  0  0
 52 53  1  0  0  0
 52116  1  0  0  0
 53 54  2  0  0  0
 53 61  1  0  0  0
 54 55  1  0  0  0
 54117  1  0  0  0
 55 56  2  0  0  0
 55118  1  0  0  0
 56 57  1  0  0  0
 56 60  1  0  0  0
 57 58  2  0  0  0
 57 59  1  0  0  0
 60 61  2  0  0  0
 60119  1  0  0  0
 61 62  1  0  0  0
 62 63  2  0  0  0
 62 64  1  0  0  0
M  CHG  7   1  -1   9  -1  16  -1  57   1  59  -1  62   1  64  -1
M  END
> <s_m_source_file>
../2xef_ligand.sdf

> <i_m_source_file_index>
1

> <s_epik_input>
W09IXUMoPU8pW0NIMl1bQ0gyXVtDQEBIXShDKD1PKVtPSF0pW05IXUMoPU8pW05IXVtDQEhdKEMoPU8pW09IXSlbQ0gyXVtDSDJdW0NIMl1bQ0gyXW4xW2NIXWMobm4xKVtDSDJdT1tDSDJdW0NIMl1PW0NIMl1bQ0gyXU9bQ0gyXVtDSDJdT1tDSDJdW0NIMl1PW0NIMl1bQ0gyXU9bQ0gyXVtDSDJdT1tDSDJdW0NIMl1PW0NIMl1bQ0gyXVtOSF1jMltjSF1bY0hdYyhbTitdKD1PKVtPLV0pW2NIXWMyW04rXSg9TylbTy1d

> <s_epik_cmdline>
J2VwaWtfYXBwJywgJy1pbWFlJywgJ2xpZ2FuZF9wcm8ubWFlJywgJy1vbWFlJywgJ2xpZ2FuZF9wcmVwLm1hZScsICctbXMnLCAnMScsICctcGgnLCAnNycsICctcGh0JywgJzAuNScsICctbnQn

> <r_lp_tautomer_probability>
1

> <r_epik_Ionization_Penalty>
  0.0077

> <r_epik_Ionization_Penalty_Charging>
  0.0076

> <r_epik_Ionization_Penalty_Neutral>
  0.0001

> <r_epik_State_Penalty>
 -0.0000

> <r_epik_Charging_Adjusted_Penalty>
0.00757411146063836

> <i_epik_Tot_Q>
-3

> <i_epik_Tot_abs_Q>
7

$$$$
