2xeg_ligand
                    3D
 Schrodinger Suite 2020-3.
 91 92  0  0  1  0            999 V2000
   13.7020   48.5580   40.5760 O   0  5  0  0  0  0
   13.7120   47.3160   40.3690 C   0  0  0  0  0  0
   12.9150   46.7450   39.5870 O   0  0  0  0  0  0
   14.9080   46.5360   41.0030 C   0  0  0  0  0  0
   14.6520   45.0170   41.0800 C   0  0  0  0  0  0
   15.9460   44.2760   41.5020 C   0  0  1  0  0  0
   16.9300   44.4460   40.3110 C   0  0  0  0  0  0
   16.8180   43.6460   39.3350 O   0  5  0  0  0  0
   17.8070   45.3580   40.3270 O   0  0  0  0  0  0
   16.5940   44.8950   42.6820 N   0  0  0  0  0  0
   17.8440   44.5010   43.0280 C   0  0  0  0  0  0
   18.2660   43.4480   42.5360 O   0  0  0  0  0  0
   18.5260   45.2760   43.8900 N   0  0  0  0  0  0
   19.8490   44.8910   44.3680 C   0  0  2  0  0  0
   20.1030   45.5920   45.6950 C   0  0  0  0  0  0
   19.5420   46.7030   45.8650 O   0  0  0  0  0  0
   20.7180   44.9100   46.5530 O   0  5  0  0  0  0
   20.6780   45.5800   43.3050 C   0  0  0  0  0  0
   22.1830   45.3150   43.3580 C   0  0  0  0  0  0
   22.7260   46.0410   42.0950 C   0  0  0  0  0  0
   24.1740   45.7140   41.8460 C   0  0  0  0  0  0
   24.6550   46.5480   40.7160 N   0  0  0  0  0  0
   24.8670   47.8620   40.7470 C   0  0  0  0  0  0
   24.9060   46.0780   39.5870 N   0  0  0  0  0  0
   25.2900   46.9640   38.8100 N   0  0  0  0  0  0
   25.2820   48.1010   39.5020 C   0  0  0  0  0  0
   25.6370   49.3390   38.9910 C   0  0  0  0  0  0
   25.8740   50.4140   39.9140 O   0  0  0  0  0  0
   24.9720   51.4770   39.6480 C   0  0  0  0  0  0
   25.4190   52.6820   40.4430 C   0  0  0  0  0  0
   25.3230   52.3510   41.8400 O   0  0  0  0  0  0
   24.8250   53.4820   42.5480 C   0  0  0  0  0  0
   25.8450   53.8020   43.5980 C   0  0  0  0  0  0
   26.6950   54.8880   43.1500 O   0  0  0  0  0  0
   27.8120   55.0360   44.0710 C   0  0  0  0  0  0
   27.3410   55.1320   45.5460 C   0  0  0  0  0  0
   28.2090   54.4100   46.4380 O   0  0  0  0  0  0
   27.4660   53.6230   47.3750 C   0  0  0  0  0  0
   28.5610   52.8010   48.0570 C   0  0  0  0  0  0
   29.6050   53.6830   48.6110 N   0  0  0  0  0  0
   30.9170   53.7030   48.3080 C   0  0  0  0  0  0
   31.3510   54.5970   47.3180 C   0  0  0  0  0  0
   32.7060   54.6920   46.9960 C   0  0  0  0  0  0
   33.6400   53.8990   47.6700 C   0  0  0  0  0  0
   34.9550   53.9560   47.3790 N   0  3  0  0  0  0
   35.4390   53.7840   46.0280 O   0  0  0  0  0  0
   35.9210   54.1390   48.4280 O   0  5  0  0  0  0
   33.2050   53.0240   48.6670 C   0  0  0  0  0  0
   31.8560   52.9090   49.0060 C   0  0  0  0  0  0
   31.5270   52.0240   49.9740 N   0  3  0  0  0  0
   30.2060   51.6440   50.2310 O   0  0  0  0  0  0
   32.5280   51.3920   50.7440 O   0  5  0  0  0  0
   15.8122   46.6956   40.3972 H   0  0  0  0  0  0
   15.0829   46.9010   42.0258 H   0  0  0  0  0  0
   13.8641   44.8151   41.8205 H   0  0  0  0  0  0
   14.3318   44.6487   40.0942 H   0  0  0  0  0  0
   15.7173   43.2407   41.7950 H   0  0  0  0  0  0
   16.0611   45.6622   43.2628 H   0  0  0  0  0  0
   18.0686   46.2152   44.2345 H   0  0  0  0  0  0
   19.9953   43.8086   44.4985 H   0  0  0  0  0  0
   20.3435   45.2524   42.3096 H   0  0  0  0  0  0
   20.5549   46.6695   43.3930 H   0  0  0  0  0  0
   22.5959   45.7306   44.2890 H   0  0  0  0  0  0
   22.3657   44.2307   43.3278 H   0  0  0  0  0  0
   22.1441   45.7302   41.2148 H   0  0  0  0  0  0
   22.6344   47.1289   42.2296 H   0  0  0  0  0  0
   24.7600   45.9322   42.7510 H   0  0  0  0  0  0
   24.2711   44.6475   41.5946 H   0  0  0  0  0  0
   24.7357   48.5601   41.5737 H   0  0  0  0  0  0
   26.5723   49.2453   38.4197 H   0  0  0  0  0  0
   24.8383   49.7053   38.3293 H   0  0  0  0  0  0
   24.9834   51.7071   38.5724 H   0  0  0  0  0  0
   23.9564   51.1800   39.9487 H   0  0  0  0  0  0
   26.4583   52.9292   40.1809 H   0  0  0  0  0  0
   24.7685   53.5376   40.2090 H   0  0  0  0  0  0
   24.6975   54.3237   41.8513 H   0  0  0  0  0  0
   23.8550   53.2321   43.0025 H   0  0  0  0  0  0
   25.3349   54.1010   44.5256 H   0  0  0  0  0  0
   26.4645   52.9136   43.7903 H   0  0  0  0  0  0
   28.4800   54.1668   43.9799 H   0  0  0  0  0  0
   28.3685   55.9532   43.8280 H   0  0  0  0  0  0
   27.3279   56.1865   45.8588 H   0  0  0  0  0  0
   26.3290   54.7103   45.6360 H   0  0  0  0  0  0
   26.9342   54.2877   48.0717 H   0  0  0  0  0  0
   26.7380   53.0000   46.8347 H   0  0  0  0  0  0
   28.1214   52.2123   48.8756 H   0  0  0  0  0  0
   29.0209   52.1225   47.3234 H   0  0  0  0  0  0
   29.3432   54.4373   49.3676 H   0  0  0  0  0  0
   30.6255   55.2216   46.7968 H   0  0  0  0  0  0
   33.0355   55.3833   46.2203 H   0  0  0  0  0  0
   33.9384   52.4144   49.1948 H   0  0  0  0  0  0
  1  2  1  0  0  0
  2  3  2  0  0  0
  2  4  1  0  0  0
  4  5  1  0  0  0
  4 53  1  0  0  0
  4 54  1  0  0  0
  5  6  1  0  0  0
  5 55  1  0  0  0
  5 56  1  0  0  0
  6  7  1  0  0  0
  6 10  1  0  0  0
  6 57  1  0  0  0
  7  8  1  0  0  0
  7  9  2  0  0  0
 10 11  1  0  0  0
 10 58  1  0  0  0
 11 12  2  0  0  0
 11 13  1  0  0  0
 13 14  1  0  0  0
 13 59  1  0  0  0
 14 15  1  0  0  0
 14 18  1  0  0  0
 14 60  1  0  0  0
 15 16  2  0  0  0
 15 17  1  0  0  0
 18 19  1  0  0  0
 18 61  1  0  0  0
 18 62  1  0  0  0
 19 20  1  0  0  0
 19 63  1  0  0  0
 19 64  1  0  0  0
 20 21  1  0  0  0
 20 65  1  0  0  0
 20 66  1  0  0  0
 21 22  1  0  0  0
 21 67  1  0  0  0
 21 68  1  0  0  0
 22 23  1  0  0  0
 22 24  1  0  0  0
 23 26  2  0  0  0
 23 69  1  0  0  0
 24 25  2  0  0  0
 25 26  1  0  0  0
 26 27  1  0  0  0
 27 28  1  0  0  0
 27 70  1  0  0  0
 27 71  1  0  0  0
 28 29  1  0  0  0
 29 30  1  0  0  0
 29 72  1  0  0  0
 29 73  1  0  0  0
 30 31  1  0  0  0
 30 74  1  0  0  0
 30 75  1  0  0  0
 31 32  1  0  0  0
 32 33  1  0  0  0
 32 76  1  0  0  0
 32 77  1  0  0  0
 33 34  1  0  0  0
 33 78  1  0  0  0
 33 79  1  0  0  0
 34 35  1  0  0  0
 35 36  1  0  0  0
 35 80  1  0  0  0
 35 81  1  0  0  0
 36 37  1  0  0  0
 36 82  1  0  0  0
 36 83  1  0  0  0
 37 38  1  0  0  0
 38 39  1  0  0  0
 38 84  1  0  0  0
 38 85  1  0  0  0
 39 40  1  0  0  0
 39 86  1  0  0  0
 39 87  1  0  0  0
 40 41  1  0  0  0
 40 88  1  0  0  0
 41 42  2  0  0  0
 41 49  1  0  0  0
 42 43  1  0  0  0
 42 89  1  0  0  0
 43 44  2  0  0  0
 43 90  1  0  0  0
 44 45  1  0  0  0
 44 48  1  0  0  0
 45 46  2  0  0  0
 45 47  1  0  0  0
 48 49  2  0  0  0
 48 91  1  0  0  0
 49 50  1  0  0  0
 50 51  2  0  0  0
 50 52  1  0  0  0
M  CHG  7   1  -1   8  -1  17  -1  45   1  47  -1  50   1  52  -1
M  END
> <s_m_source_file>
../2xeg_ligand.sdf

> <i_m_source_file_index>
1

> <s_epik_input>
W09IXUMoPU8pW0NIMl1bQ0gyXVtDQEBIXShDKD1PKVtPSF0pW05IXUMoPU8pW05IXVtDQEhdKEMoPU8pW09IXSlbQ0gyXVtDSDJdW0NIMl1bQ0gyXW4xW2NIXWMobm4xKVtDSDJdT1tDSDJdW0NIMl1PW0NIMl1bQ0gyXU9bQ0gyXVtDSDJdT1tDSDJdW0NIMl1bTkhdYzJbY0hdW2NIXWMoW04rXSg9TylbTy1dKVtjSF1jMltOK10oPU8pW08tXQ==

> <s_epik_cmdline>
J2VwaWtfYXBwJywgJy1pbWFlJywgJ2xpZ2FuZF9wcm8ubWFlJywgJy1vbWFlJywgJ2xpZ2FuZF9wcmVwLm1hZScsICctbXMnLCAnMScsICctcGgnLCAnNycsICctcGh0JywgJzAuNScsICctbnQn

> <r_lp_tautomer_probability>
1

> <r_epik_Ionization_Penalty>
  0.0077

> <r_epik_Ionization_Penalty_Charging>
  0.0076

> <r_epik_Ionization_Penalty_Neutral>
  0.0001

> <r_epik_State_Penalty>
 -0.0000

> <r_epik_Charging_Adjusted_Penalty>
0.00757411146063836

> <i_epik_Tot_Q>
-3

> <i_epik_Tot_abs_Q>
7

$$$$
