2xei_ligand
                    3D
 Schrodinger Suite 2020-3.
 77 78  0  0  1  0            999 V2000
   13.8580   48.6980   40.2150 O   0  5  0  0  0  0
   13.8130   47.4440   40.0450 C   0  0  0  0  0  0
   12.9960   46.8660   39.2970 O   0  0  0  0  0  0
   14.8560   46.5360   40.8130 C   0  0  0  0  0  0
   14.5740   45.0180   41.0420 C   0  0  0  0  0  0
   15.8840   44.2070   41.3900 C   0  0  1  0  0  0
   16.8710   44.4170   40.1890 C   0  0  0  0  0  0
   16.7740   43.6240   39.1930 O   0  5  0  0  0  0
   17.7270   45.3520   40.2580 O   0  0  0  0  0  0
   16.5830   44.7700   42.5550 N   0  0  0  0  0  0
   17.8350   44.4130   42.8540 C   0  0  0  0  0  0
   18.3320   43.3920   42.3470 O   0  0  0  0  0  0
   18.4540   45.1910   43.7420 N   0  0  0  0  0  0
   19.7960   44.9610   44.2420 C   0  0  2  0  0  0
   19.8960   45.5560   45.6450 C   0  0  0  0  0  0
   19.4160   46.7110   45.8000 O   0  0  0  0  0  0
   20.5170   44.8510   46.5040 O   0  5  0  0  0  0
   20.6690   45.8260   43.2640 C   0  0  0  0  0  0
   22.1130   45.3160   43.2340 C   0  0  0  0  0  0
   23.0570   46.4900   43.0370 C   0  0  0  0  0  0
   24.0150   46.2750   41.8720 C   0  0  0  0  0  0
   24.7260   47.5610   41.6450 N   0  0  0  0  0  0
   25.1310   48.3660   42.6430 C   0  0  0  0  0  0
   25.0110   48.0450   40.5320 N   0  0  0  0  0  0
   25.5910   49.1330   40.6720 N   0  0  0  0  0  0
   25.6940   49.3760   41.9910 C   0  0  0  0  0  0
   26.2810   50.4960   42.6020 C   0  0  0  0  0  0
   25.4330   51.6030   42.9880 O   0  0  0  0  0  0
   25.3380   51.6780   44.4300 C   0  0  0  0  0  0
   25.2900   53.1410   44.9550 C   0  0  0  0  0  0
   26.6030   53.5570   45.4100 O   0  0  0  0  0  0
   26.7750   53.2150   46.8050 C   0  0  0  0  0  0
   28.0000   52.3310   47.0920 C   0  0  0  0  0  0
   29.0940   53.1810   47.5930 N   0  0  0  0  0  0
   30.1790   52.7280   48.2440 C   0  0  0  0  0  0
   30.0740   52.0780   49.4750 C   0  0  0  0  0  0
   31.2230   51.6420   50.1160 C   0  0  0  0  0  0
   32.4800   51.8650   49.5500 C   0  0  0  0  0  0
   33.6230   51.4540   50.1130 N   0  3  0  0  0  0
   34.8510   51.6570   49.4320 O   0  0  0  0  0  0
   33.6620   50.6920   51.3290 O   0  5  0  0  0  0
   32.5800   52.5240   48.3420 C   0  0  0  0  0  0
   31.4430   52.9590   47.6900 C   0  0  0  0  0  0
   31.6050   53.5650   46.5170 N   0  3  0  0  0  0
   32.9100   53.7050   45.9770 O   0  0  0  0  0  0
   30.4760   53.9710   45.7520 O   0  5  0  0  0  0
   15.8148   46.5427   40.2739 H   0  0  0  0  0  0
   15.0045   46.9279   41.8300 H   0  0  0  0  0  0
   13.8687   44.8981   41.8776 H   0  0  0  0  0  0
   14.1387   44.5842   40.1297 H   0  0  0  0  0  0
   15.6367   43.1653   41.6425 H   0  0  0  0  0  0
   16.0747   45.5010   43.2010 H   0  0  0  0  0  0
   17.8758   46.0569   44.0967 H   0  0  0  0  0  0
   20.0304   43.8873   44.2896 H   0  0  0  0  0  0
   20.2497   45.7671   42.2488 H   0  0  0  0  0  0
   20.6684   46.8732   43.6008 H   0  0  0  0  0  0
   22.3442   44.8135   44.1848 H   0  0  0  0  0  0
   22.2332   44.6039   42.4042 H   0  0  0  0  0  0
   22.4732   47.3998   42.8335 H   0  0  0  0  0  0
   23.6566   46.6352   43.9477 H   0  0  0  0  0  0
   24.7288   45.4777   42.1266 H   0  0  0  0  0  0
   23.4449   45.9847   40.9772 H   0  0  0  0  0  0
   25.0238   48.2246   43.7185 H   0  0  0  0  0  0
   26.7769   50.1873   43.5341 H   0  0  0  0  0  0
   27.0230   50.9384   41.9210 H   0  0  0  0  0  0
   24.4208   51.1708   44.7639 H   0  0  0  0  0  0
   26.2132   51.1875   44.8811 H   0  0  0  0  0  0
   24.9621   53.8103   44.1460 H   0  0  0  0  0  0
   24.5822   53.2063   45.7945 H   0  0  0  0  0  0
   26.8959   54.1349   47.3958 H   0  0  0  0  0  0
   25.8907   52.6652   47.1595 H   0  0  0  0  0  0
   27.7385   51.5766   47.8486 H   0  0  0  0  0  0
   28.3141   51.8277   46.1657 H   0  0  0  0  0  0
   29.0571   54.2701   47.4432 H   0  0  0  0  0  0
   29.0963   51.9147   49.9284 H   0  0  0  0  0  0
   31.1448   51.1206   51.0700 H   0  0  0  0  0  0
   33.5605   52.7020   47.9004 H   0  0  0  0  0  0
  1  2  1  0  0  0
  2  3  2  0  0  0
  2  4  1  0  0  0
  4  5  1  0  0  0
  4 47  1  0  0  0
  4 48  1  0  0  0
  5  6  1  0  0  0
  5 49  1  0  0  0
  5 50  1  0  0  0
  6  7  1  0  0  0
  6 10  1  0  0  0
  6 51  1  0  0  0
  7  8  1  0  0  0
  7  9  2  0  0  0
 10 11  1  0  0  0
 10 52  1  0  0  0
 11 12  2  0  0  0
 11 13  1  0  0  0
 13 14  1  0  0  0
 13 53  1  0  0  0
 14 15  1  0  0  0
 14 18  1  0  0  0
 14 54  1  0  0  0
 15 16  2  0  0  0
 15 17  1  0  0  0
 18 19  1  0  0  0
 18 55  1  0  0  0
 18 56  1  0  0  0
 19 20  1  0  0  0
 19 57  1  0  0  0
 19 58  1  0  0  0
 20 21  1  0  0  0
 20 59  1  0  0  0
 20 60  1  0  0  0
 21 22  1  0  0  0
 21 61  1  0  0  0
 21 62  1  0  0  0
 22 23  1  0  0  0
 22 24  1  0  0  0
 23 26  2  0  0  0
 23 63  1  0  0  0
 24 25  2  0  0  0
 25 26  1  0  0  0
 26 27  1  0  0  0
 27 28  1  0  0  0
 27 64  1  0  0  0
 27 65  1  0  0  0
 28 29  1  0  0  0
 29 30  1  0  0  0
 29 66  1  0  0  0
 29 67  1  0  0  0
 30 31  1  0  0  0
 30 68  1  0  0  0
 30 69  1  0  0  0
 31 32  1  0  0  0
 32 33  1  0  0  0
 32 70  1  0  0  0
 32 71  1  0  0  0
 33 34  1  0  0  0
 33 72  1  0  0  0
 33 73  1  0  0  0
 34 35  1  0  0  0
 34 74  1  0  0  0
 35 36  2  0  0  0
 35 43  1  0  0  0
 36 37  1  0  0  0
 36 75  1  0  0  0
 37 38  2  0  0  0
 37 76  1  0  0  0
 38 39  1  0  0  0
 38 42  1  0  0  0
 39 40  2  0  0  0
 39 41  1  0  0  0
 42 43  2  0  0  0
 42 77  1  0  0  0
 43 44  1  0  0  0
 44 45  2  0  0  0
 44 46  1  0  0  0
M  CHG  7   1  -1   8  -1  17  -1  39   1  41  -1  44   1  46  -1
M  END
> <s_m_source_file>
../2xei_ligand.sdf

> <i_m_source_file_index>
1

> <s_epik_input>
W09IXUMoPU8pW0NIMl1bQ0gyXVtDQEBIXShDKD1PKVtPSF0pW05IXUMoPU8pW05IXVtDQEhdKEMoPU8pW09IXSlbQ0gyXVtDSDJdW0NIMl1bQ0gyXW4xW2NIXWMobm4xKVtDSDJdT1tDSDJdW0NIMl1PW0NIMl1bQ0gyXVtOSF1jMltjSF1bY0hdYyhbTitdKD1PKVtPLV0pW2NIXWMyW04rXSg9TylbTy1d

> <s_epik_cmdline>
J2VwaWtfYXBwJywgJy1pbWFlJywgJ2xpZ2FuZF9wcm8ubWFlJywgJy1vbWFlJywgJ2xpZ2FuZF9wcmVwLm1hZScsICctbXMnLCAnMScsICctcGgnLCAnNycsICctcGh0JywgJzAuNScsICctbnQn

> <r_lp_tautomer_probability>
1

> <r_epik_Ionization_Penalty>
  0.0077

> <r_epik_Ionization_Penalty_Charging>
  0.0076

> <r_epik_Ionization_Penalty_Neutral>
  0.0001

> <r_epik_State_Penalty>
 -0.0000

> <r_epik_Charging_Adjusted_Penalty>
0.00757411146063836

> <i_epik_Tot_Q>
-3

> <i_epik_Tot_abs_Q>
7

$$$$
