2xej_ligand
                    3D
 Schrodinger Suite 2020-3.
 79 79  0  0  1  0            999 V2000
   28.5360   62.2460   40.7690 C   0  0  0  0  0  0
   29.0310   61.8880   39.4610 O   0  0  0  0  0  0
   28.5600   60.5670   39.0970 C   0  0  0  0  0  0
   29.7120   59.7380   38.5070 C   0  0  0  0  0  0
   29.3250   58.3530   38.3020 O   0  0  0  0  0  0
   29.9960   57.4640   39.2290 C   0  0  0  0  0  0
   29.1110   57.0170   40.4130 C   0  0  0  0  0  0
   27.6640   57.0300   40.1680 O   0  0  0  0  0  0
   27.1750   55.6770   40.0090 C   0  0  0  0  0  0
   26.5950   55.0780   41.2950 C   0  0  0  0  0  0
   26.5170   53.6570   41.0790 O   0  0  0  0  0  0
   25.2770   53.2050   41.7720 C   0  0  0  0  0  0
   25.6130   51.7300   41.4260 C   0  0  0  0  0  0
   25.2830   51.2830   40.0310 O   0  0  0  0  0  0
   25.9460   49.9750   39.5960 C   0  0  0  0  0  0
   25.5110   48.6570   39.9510 C   0  0  0  0  0  0
   25.0760   48.3000   41.1660 C   0  0  0  0  0  0
   25.4630   47.5540   39.1750 N   0  0  0  0  0  0
   25.0300   46.6100   39.8780 N   0  0  0  0  0  0
   24.7780   47.0030   41.0380 N   0  0  0  0  0  0
   24.2730   46.1940   42.1920 C   0  0  0  0  0  0
   22.8500   45.7190   41.9930 C   0  0  0  0  0  0
   22.2330   45.2740   43.3600 C   0  0  0  0  0  0
   20.7290   45.6430   43.3010 C   0  0  0  0  0  0
   19.8660   44.9500   44.3800 C   0  0  1  0  0  0
   20.1240   45.6530   45.7320 C   0  0  0  0  0  0
   20.7800   44.9820   46.5610 O   0  5  0  0  0  0
   19.5350   46.7260   45.9510 O   0  0  0  0  0  0
   18.5110   45.2280   43.9040 N   0  0  0  0  0  0
   17.8820   44.4800   43.0190 C   0  0  0  0  0  0
   18.3540   43.4410   42.5700 O   0  0  0  0  0  0
   16.6270   44.8180   42.7210 N   0  0  0  0  0  0
   16.0080   44.2380   41.5470 C   0  0  2  0  0  0
   16.9940   44.4600   40.3680 C   0  0  0  0  0  0
   16.8500   43.6860   39.3980 O   0  0  0  0  0  0
   17.8880   45.3620   40.4300 O   0  5  0  0  0  0
   14.6910   44.9800   41.1240 C   0  0  0  0  0  0
   14.8820   46.5380   41.1420 C   0  0  0  0  0  0
   13.7560   47.3390   40.4280 C   0  0  0  0  0  0
   13.7050   48.5650   40.6570 O   0  0  0  0  0  0
   12.9430   46.7190   39.7060 O   0  5  0  0  0  0
   28.8986   63.2495   41.0362 H   0  0  0  0  0  0
   28.8962   61.5167   41.5096 H   0  0  0  0  0  0
   27.4361   62.2445   40.7578 H   0  0  0  0  0  0
   28.1701   60.0576   39.9906 H   0  0  0  0  0  0
   27.7597   60.6566   38.3476 H   0  0  0  0  0  0
   30.0095   60.1622   37.5367 H   0  0  0  0  0  0
   30.5697   59.7602   39.1953 H   0  0  0  0  0  0
   30.3162   56.5550   38.6987 H   0  0  0  0  0  0
   30.8759   57.9711   39.6516 H   0  0  0  0  0  0
   29.3666   55.9842   40.6923 H   0  0  0  0  0  0
   29.2837   57.6825   41.2716 H   0  0  0  0  0  0
   26.3776   55.6620   39.2515 H   0  0  0  0  0  0
   27.9997   55.0246   39.6862 H   0  0  0  0  0  0
   27.2581   55.3131   42.1406 H   0  0  0  0  0  0
   25.5983   55.5045   41.4811 H   0  0  0  0  0  0
   25.3154   53.5098   42.8282 H   0  0  0  0  0  0
   24.4002   53.6622   41.2901 H   0  0  0  0  0  0
   26.6928   51.5610   41.5506 H   0  0  0  0  0  0
   25.0570   51.0599   42.0982 H   0  0  0  0  0  0
   25.9367   49.9066   38.4982 H   0  0  0  0  0  0
   26.9852   49.9532   39.9559 H   0  0  0  0  0  0
   24.9856   48.9237   42.0553 H   0  0  0  0  0  0
   24.9094   45.3065   42.3240 H   0  0  0  0  0  0
   24.3000   46.8039   43.1071 H   0  0  0  0  0  0
   22.2455   46.5372   41.5744 H   0  0  0  0  0  0
   22.8420   44.8653   41.2994 H   0  0  0  0  0  0
   22.3682   44.1898   43.4877 H   0  0  0  0  0  0
   22.7375   45.8055   44.1804 H   0  0  0  0  0  0
   20.6119   46.7278   43.4406 H   0  0  0  0  0  0
   20.3183   45.3528   42.3227 H   0  0  0  0  0  0
   20.0172   43.8684   44.5112 H   0  0  0  0  0  0
   17.9619   46.1009   44.2867 H   0  0  0  0  0  0
   16.0627   45.5236   43.3485 H   0  0  0  0  0  0
   15.8134   43.1947   41.8362 H   0  0  0  0  0  0
   14.4088   44.6742   40.1058 H   0  0  0  0  0  0
   13.8825   44.7189   41.8226 H   0  0  0  0  0  0
   14.9126   46.8916   42.1832 H   0  0  0  0  0  0
   15.8250   46.7977   40.6387 H   0  0  0  0  0  0
  1  2  1  0  0  0
  1 42  1  0  0  0
  1 43  1  0  0  0
  1 44  1  0  0  0
  2  3  1  0  0  0
  3  4  1  0  0  0
  3 45  1  0  0  0
  3 46  1  0  0  0
  4  5  1  0  0  0
  4 47  1  0  0  0
  4 48  1  0  0  0
  5  6  1  0  0  0
  6  7  1  0  0  0
  6 49  1  0  0  0
  6 50  1  0  0  0
  7  8  1  0  0  0
  7 51  1  0  0  0
  7 52  1  0  0  0
  8  9  1  0  0  0
  9 10  1  0  0  0
  9 53  1  0  0  0
  9 54  1  0  0  0
 10 11  1  0  0  0
 10 55  1  0  0  0
 10 56  1  0  0  0
 11 12  1  0  0  0
 12 13  1  0  0  0
 12 57  1  0  0  0
 12 58  1  0  0  0
 13 14  1  0  0  0
 13 59  1  0  0  0
 13 60  1  0  0  0
 14 15  1  0  0  0
 15 16  1  0  0  0
 15 61  1  0  0  0
 15 62  1  0  0  0
 16 17  2  0  0  0
 16 18  1  0  0  0
 17 20  1  0  0  0
 17 63  1  0  0  0
 18 19  2  0  0  0
 19 20  1  0  0  0
 20 21  1  0  0  0
 21 22  1  0  0  0
 21 64  1  0  0  0
 21 65  1  0  0  0
 22 23  1  0  0  0
 22 66  1  0  0  0
 22 67  1  0  0  0
 23 24  1  0  0  0
 23 68  1  0  0  0
 23 69  1  0  0  0
 24 25  1  0  0  0
 24 70  1  0  0  0
 24 71  1  0  0  0
 25 26  1  0  0  0
 25 29  1  0  0  0
 25 72  1  0  0  0
 26 27  1  0  0  0
 26 28  2  0  0  0
 29 30  1  0  0  0
 29 73  1  0  0  0
 30 31  2  0  0  0
 30 32  1  0  0  0
 32 33  1  0  0  0
 32 74  1  0  0  0
 33 34  1  0  0  0
 33 37  1  0  0  0
 33 75  1  0  0  0
 34 35  2  0  0  0
 34 36  1  0  0  0
 37 38  1  0  0  0
 37 76  1  0  0  0
 37 77  1  0  0  0
 38 39  1  0  0  0
 38 78  1  0  0  0
 38 79  1  0  0  0
 39 40  2  0  0  0
 39 41  1  0  0  0
M  CHG  3  27  -1  36  -1  41  -1
M  END
> <s_m_source_file>
../2xej_ligand.sdf

> <i_m_source_file_index>
1

> <s_epik_input>
W0NIM11PW0NIMl1bQ0gyXU9bQ0gyXVtDSDJdT1tDSDJdW0NIMl1PW0NIMl1bQ0gyXU9bQ0gyXWMxW2NIXW4obm4xKVtDSDJdW0NIMl1bQ0gyXVtDSDJdW0NAQEhdKEMoPU8pW09IXSlbTkhdQyg9TylbTkhdW0NASF0oQyg9TylbT0hdKVtDSDJdW0NIMl1DKD1PKVtPSF0=

> <s_epik_cmdline>
J2VwaWtfYXBwJywgJy1pbWFlJywgJ2xpZ2FuZF9wcm8ubWFlJywgJy1vbWFlJywgJ2xpZ2FuZF9wcmVwLm1hZScsICctbXMnLCAnMScsICctcGgnLCAnNycsICctcGh0JywgJzAuNScsICctbnQn

> <r_lp_tautomer_probability>
1

> <r_epik_Ionization_Penalty>
  0.0076

> <r_epik_Ionization_Penalty_Charging>
  0.0076

> <r_epik_Ionization_Penalty_Neutral>
  0.0001

> <r_epik_State_Penalty>
 -0.0000

> <r_epik_Charging_Adjusted_Penalty>
0.00757411146063836

> <i_epik_Tot_Q>
-3

> <i_epik_Tot_abs_Q>
3

$$$$
