2xel_ligand
                    3D
 Schrodinger Suite 2020-3.
 19 20  0  0  1  0            999 V2000
   30.3450   46.9300   28.1360 Cl  0  0  0  0  0  0
   28.6460   47.2330   28.2970 C   0  0  0  0  0  0
   27.8740   47.4030   29.4650 C   0  0  0  0  0  0
   28.4540   47.3500   31.1110 Cl  0  0  0  0  0  0
   26.5170   47.6280   29.0610 C   0  0  3  0  0  0
   25.2250   47.8860   30.2070 Cl  0  0  0  0  0  0
   26.4680   47.5920   27.6130 C   0  0  0  0  0  0
   25.3880   47.7410   26.5220 C   0  0  0  0  0  0
   25.8580   47.4990   25.1430 C   0  0  0  0  0  0
   24.9640   47.5920   24.0090 C   0  0  0  0  0  0
   25.5390   47.3050   22.4020 Cl  0  0  0  0  0  0
   23.9490   48.0930   26.7210 C   0  0  0  0  0  0
   23.0830   48.1720   25.5410 C   0  0  0  0  0  0
   27.7920   47.3510   27.2450 N   0  0  0  0  0  0
   21.4120   48.5640   25.6940 Cl  0  0  0  0  0  0
   23.5810   47.9270   24.2130 C   0  0  0  0  0  0
   23.4190   48.3350   27.9500 O   0  5  0  0  0  0
   26.9044   47.2440   24.9753 H   0  0  0  0  0  0
   22.9072   47.9957   23.3590 H   0  0  0  0  0  0
  1  2  1  0  0  0
  2  3  2  0  0  0
  2 14  1  0  0  0
  3  4  1  0  0  0
  3  5  1  0  0  0
  5  6  1  0  0  0
  5  7  1  0  0  0
  7  8  1  0  0  0
  7 14  2  0  0  0
  8  9  2  0  0  0
  8 12  1  0  0  0
  9 10  1  0  0  0
  9 18  1  0  0  0
 10 11  1  0  0  0
 10 16  2  0  0  0
 12 13  2  0  0  0
 12 17  1  0  0  0
 13 15  1  0  0  0
 13 16  1  0  0  0
 16 19  1  0  0  0
M  CHG  1  17  -1
M  END
> <s_m_source_file>
../2xel_ligand.sdf

> <i_m_source_file_index>
1

> <s_epik_input>
Q2xDMT1DKENsKVtDSF0oQ2wpQyg9TjEpYzJbY0hdYyhDbClbY0hdYyhDbCljMltPSF0=

> <s_epik_cmdline>
J2VwaWtfYXBwJywgJy1pbWFlJywgJ2xpZ2FuZF9wcm8ubWFlJywgJy1vbWFlJywgJ2xpZ2FuZF9wcmVwLm1hZScsICctbXMnLCAnMScsICctcGgnLCAnNycsICctcGh0JywgJzAuNScsICctbnQn

> <r_epik_Ionization_Penalty>
  0.0188

> <r_epik_Ionization_Penalty_Charging>
  0.0188

> <r_epik_Ionization_Penalty_Neutral>
  0.0000

> <r_epik_State_Penalty>
  0.0149

> <r_epik_Charging_Adjusted_Penalty>
0.0336884759179686

> <i_epik_Tot_Q>
-1

> <i_epik_Tot_abs_Q>
1

> <s_epik_Chemistry_Notes>
This compound has an imine and may undergo hydrolysis.

$$$$
