2xey_ligand
                    3D
 Schrodinger Suite 2020-3.
 35 39  0  0  1  0            999 V2000
    0.6380   -4.7300   19.0870 C   0  0  0  0  0  0
    0.1060   -3.9280   20.0810 C   0  0  0  0  0  0
   -1.2290   -4.0620   20.4210 C   0  0  0  0  0  0
   -2.0200   -5.0000   19.7780 C   0  0  0  0  0  0
   -1.4790   -5.8090   18.7910 C   0  0  0  0  0  0
   -0.1430   -5.6740   18.4500 C   0  0  0  0  0  0
    0.6230   -6.2970   17.5610 N   0  3  0  0  0  0
    1.8580   -5.7990   17.6190 C   0  0  0  0  0  0
    1.9030   -4.8640   18.5580 C   0  0  0  0  0  0
    2.9560   -4.0490   18.9480 C   0  0  0  0  0  0
    2.8930   -2.9740   19.7160 C   0  0  0  0  0  0
    4.1070   -2.4430   19.8270 N   0  0  0  0  0  0
    4.9680   -3.1560   19.1130 C   0  0  0  0  0  0
    6.3280   -3.0300   18.8900 C   0  0  0  0  0  0
    6.9630   -3.8900   18.1200 N   0  0  0  0  0  0
    4.2710   -4.1860   18.5160 N   0  0  0  0  0  0
    4.9630   -5.0930   17.7140 C   0  0  0  0  0  0
    6.3320   -4.9160   17.5360 C   0  0  0  0  0  0
    7.0660   -5.7770   16.7290 C   0  0  0  0  0  0
    8.3460   -5.6600   16.4250 C   0  0  0  0  0  0
    6.6370   -6.8520   16.0870 C   0  0  0  0  0  0
    7.6690   -7.3660   15.4250 N   0  3  0  0  0  0
    8.6630   -6.6690   15.6230 N   0  0  0  0  0  0
    0.7327   -3.1970   20.5919 H   0  0  0  0  0  0
   -1.6589   -3.4280   21.1965 H   0  0  0  0  0  0
   -3.0708   -5.1022   20.0490 H   0  0  0  0  0  0
   -2.1014   -6.5475   18.2858 H   0  0  0  0  0  0
    2.7618   -6.0418   17.0409 H   0  0  0  0  0  0
    1.9888   -2.5848   20.1840 H   0  0  0  0  0  0
    6.8785   -2.2123   19.3553 H   0  0  0  0  0  0
    4.4426   -5.9232   17.2365 H   0  0  0  0  0  0
    9.0203   -4.8763   16.7704 H   0  0  0  0  0  0
    5.6204   -7.2452   16.0989 H   0  0  0  0  0  0
    0.1970   -7.0880   16.9263 H   0  0  0  0  0  0
    7.5378   -8.2780   14.8241 H   0  0  0  0  0  0
  1  2  2  0  0  0
  1  6  1  0  0  0
  1  9  1  0  0  0
  2  3  1  0  0  0
  2 24  1  0  0  0
  3  4  2  0  0  0
  3 25  1  0  0  0
  4  5  1  0  0  0
  4 26  1  0  0  0
  5  6  2  0  0  0
  5 27  1  0  0  0
  6  7  1  0  0  0
  7  8  1  0  0  0
  7 34  1  0  0  0
  8  9  2  0  0  0
  8 28  1  0  0  0
  9 10  1  0  0  0
 10 11  2  0  0  0
 10 16  1  0  0  0
 11 12  1  0  0  0
 11 29  1  0  0  0
 12 13  2  0  0  0
 13 14  1  0  0  0
 13 16  1  0  0  0
 14 15  2  0  0  0
 14 30  1  0  0  0
 15 18  1  0  0  0
 16 17  1  0  0  0
 17 18  2  0  0  0
 17 31  1  0  0  0
 18 19  1  0  0  0
 19 20  2  0  0  0
 19 21  1  0  0  0
 20 23  1  0  0  0
 20 32  1  0  0  0
 21 22  2  0  0  0
 21 33  1  0  0  0
 22 23  1  0  0  0
 22 35  1  0  0  0
M  CHG  2   7   1  22   1
M  END
> <s_m_source_file>
../2xey_ligand.sdf

> <i_m_source_file_index>
1

> <s_epik_input>
W2NIXTFbY0hdW2NIXVtjSF1jKGMxMilbbkhdW2NIXWMyLWMoW2NIXW4zKW4oYzM0KVtjSF1jKG5bY0hdNCktYzVbY0hdW25IXW5bY0hdNQ==

> <s_epik_cmdline>
J2VwaWtfYXBwJywgJy1pbWFlJywgJ2xpZ2FuZF9wcm8ubWFlJywgJy1vbWFlJywgJ2xpZ2FuZF9wcmVwLm1hZScsICctbXMnLCAnMScsICctcGgnLCAnNycsICctcGh0JywgJzAuNScsICctbnQn

> <r_epik_Ionization_Penalty>
  0.0001

> <r_epik_Ionization_Penalty_Charging>
  0.0001

> <r_epik_Ionization_Penalty_Neutral>
  0.0000

> <r_epik_State_Penalty>
  0.4107

> <r_epik_Charging_Adjusted_Penalty>
0.410731958934463

> <i_epik_Tot_Q>
2

> <i_epik_Tot_abs_Q>
2

$$$$
