2xez_ligand
                    3D
 Schrodinger Suite 2020-3.
 27 30  0  0  1  0            999 V2000
   13.2210   -3.5500   12.5070 C   0  0  0  0  0  0
   12.1800   -4.0970   13.1210 N   0  3  0  0  0  0
   11.1670   -3.4410   12.8790 N   0  0  0  0  0  0
   11.4780   -2.4210   12.0900 C   0  0  0  0  0  0
   12.7760   -2.4920   11.8550 C   0  0  0  0  0  0
   13.5300   -1.6280   11.0780 C   0  0  0  0  0  0
   14.8890   -1.8500   10.9500 C   0  0  0  0  0  0
   15.6290   -0.9820   10.1730 N   0  0  0  0  0  0
   12.9500   -0.5880   10.4660 N   0  0  0  0  0  0
   13.6440    0.2500    9.7170 C   0  0  0  0  0  0
   15.0110    0.0790    9.5480 C   0  0  0  0  0  0
   15.9460    0.7460    8.8750 N   0  0  0  0  0  0
   17.1270    0.1510    9.0520 C   0  0  0  0  0  0
   16.9570   -0.9040    9.8380 C   0  0  0  0  0  0
   17.8760   -1.8160   10.3160 C   0  0  0  0  0  0
   17.6070   -2.8230   11.1240 C   0  0  0  0  0  0
   18.7570   -3.4310   11.3480 C   0  0  0  0  0  0
   19.6890   -2.7710   10.6760 N   0  0  0  0  0  0
   19.1760   -1.8310   10.0760 N   0  0  0  0  0  0
   14.2504   -3.9071   12.5355 H   0  0  0  0  0  0
   10.7913   -1.6659   11.7074 H   0  0  0  0  0  0
   15.3653   -2.6922   11.4519 H   0  0  0  0  0  0
   13.1389    1.0827    9.2276 H   0  0  0  0  0  0
   18.0740    0.4775    8.6222 H   0  0  0  0  0  0
   16.5746   -2.9967   11.4616 H   0  0  0  0  0  0
   18.9113   -4.3125   11.9703 H   0  0  0  0  0  0
   12.3147   -5.0023   13.7311 H   0  0  0  0  0  0
  1  2  2  0  0  0
  1  5  1  0  0  0
  1 20  1  0  0  0
  2  3  1  0  0  0
  2 27  1  0  0  0
  3  4  1  0  0  0
  4  5  2  0  0  0
  4 21  1  0  0  0
  5  6  1  0  0  0
  6  7  2  0  0  0
  6  9  1  0  0  0
  7  8  1  0  0  0
  7 22  1  0  0  0
  8 11  1  0  0  0
  8 14  1  0  0  0
  9 10  2  0  0  0
 10 11  1  0  0  0
 10 23  1  0  0  0
 11 12  2  0  0  0
 12 13  1  0  0  0
 13 14  2  0  0  0
 13 24  1  0  0  0
 14 15  1  0  0  0
 15 16  2  0  0  0
 15 19  1  0  0  0
 16 17  1  0  0  0
 16 25  1  0  0  0
 17 18  1  0  0  0
 17 26  1  0  0  0
 18 19  2  0  0  0
M  CHG  1   2   1
M  END
> <s_m_source_file>
../2xez_ligand.sdf

> <i_m_source_file_index>
1

> <s_epik_input>
W2NIXTFbbkhdbltjSF1jMS1jKFtjSF0yKW5bY0hdYyhuMjMpbltjSF1jM0M0PVtDSF1bQ0gyXU49TjQ=

> <s_epik_cmdline>
J2VwaWtfYXBwJywgJy1pbWFlJywgJ2xpZ2FuZF9wcm8ubWFlJywgJy1vbWFlJywgJ2xpZ2FuZF9wcmVwLm1hZScsICctbXMnLCAnMScsICctcGgnLCAnNycsICctcGh0JywgJzAuNScsICctbnQn

> <r_epik_Ionization_Penalty>
  0.0000

> <r_epik_Ionization_Penalty_Charging>
  0.0000

> <r_epik_Ionization_Penalty_Neutral>
  0.0000

> <r_epik_State_Penalty>
  0.4107

> <r_epik_Charging_Adjusted_Penalty>
0.41068284177962

> <i_epik_Tot_Q>
1

> <i_epik_Tot_abs_Q>
1

$$$$
