2xf0_ligand
                    3D
 Schrodinger Suite 2020-3.
 31 34  0  0  1  0            999 V2000
   15.0250   -4.6190    8.1190 C   0  0  0  0  0  0
   16.0230   -5.4970    8.5160 C   0  0  0  0  0  0
   17.3130   -5.3580    8.0240 C   0  0  0  0  0  0
   17.6070   -4.3350    7.1330 C   0  0  0  0  0  0
   16.6070   -3.4560    6.7370 C   0  0  0  0  0  0
   10.6130   -5.3280    9.7280 C   0  0  0  0  0  0
    9.5710   -5.8050   10.4010 N   0  3  0  0  0  0
    8.5890   -5.0870   10.2100 N   0  0  0  0  0  0
    8.9200   -4.0920    9.3970 C   0  0  0  0  0  0
   10.1980   -4.2480    9.0880 C   0  0  0  0  0  0
   10.9510   -3.4180    8.2720 C   0  0  0  0  0  0
   12.3040   -3.6600    8.0800 C   0  0  0  0  0  0
   12.3660   -1.7280    6.6700 C   0  0  0  0  0  0
   13.2580   -1.0610    5.9440 N   0  0  0  0  0  0
   14.4470   -1.6510    6.0440 C   0  0  0  0  0  0
   14.3310   -2.7120    6.8320 C   0  0  0  0  0  0
   15.3170   -3.6030    7.2230 C   0  0  0  0  0  0
   13.0160   -2.7930    7.2600 N   0  0  0  0  0  0
   11.0140   -1.5390    6.9070 C   0  0  0  0  0  0
   10.3530   -2.3690    7.6920 N   0  0  0  0  0  0
   14.0137   -4.7280    8.5108 H   0  0  0  0  0  0
   15.7929   -6.2992    9.2172 H   0  0  0  0  0  0
   18.0941   -6.0509    8.3366 H   0  0  0  0  0  0
   18.6194   -4.2218    6.7453 H   0  0  0  0  0  0
   16.8372   -2.6484    6.0422 H   0  0  0  0  0  0
   11.6188   -5.7475    9.7075 H   0  0  0  0  0  0
    8.2628   -3.2952    9.0487 H   0  0  0  0  0  0
   12.7948   -4.5070    8.5593 H   0  0  0  0  0  0
   15.3643   -1.3176    5.5587 H   0  0  0  0  0  0
   10.4939   -0.7010    6.4430 H   0  0  0  0  0  0
    9.6791   -6.7150   11.0094 H   0  0  0  0  0  0
  1  2  2  0  0  0
  1 17  1  0  0  0
  1 21  1  0  0  0
  2  3  1  0  0  0
  2 22  1  0  0  0
  3  4  2  0  0  0
  3 23  1  0  0  0
  4  5  1  0  0  0
  4 24  1  0  0  0
  5 17  2  0  0  0
  5 25  1  0  0  0
  6  7  2  0  0  0
  6 10  1  0  0  0
  6 26  1  0  0  0
  7  8  1  0  0  0
  7 31  1  0  0  0
  8  9  1  0  0  0
  9 10  2  0  0  0
  9 27  1  0  0  0
 10 11  1  0  0  0
 11 12  2  0  0  0
 11 20  1  0  0  0
 12 18  1  0  0  0
 12 28  1  0  0  0
 13 14  2  0  0  0
 13 18  1  0  0  0
 13 19  1  0  0  0
 14 15  1  0  0  0
 15 16  2  0  0  0
 15 29  1  0  0  0
 16 17  1  0  0  0
 16 18  1  0  0  0
 19 20  2  0  0  0
 19 30  1  0  0  0
M  CHG  1   7   1
M  END
> <s_m_source_file>
../2xf0_ligand.sdf

> <i_m_source_file_index>
1

> <s_epik_input>
W2NIXTFbY0hdW2NIXVtjSF1bY0hdYzEtYyhbY0hdbjIpbihjMjMpW2NIXWMobltjSF0zKS1jNFtjSF1uW25IXVtjSF00

> <s_epik_cmdline>
J2VwaWtfYXBwJywgJy1pbWFlJywgJ2xpZ2FuZF9wcm8ubWFlJywgJy1vbWFlJywgJ2xpZ2FuZF9wcmVwLm1hZScsICctbXMnLCAnMScsICctcGgnLCAnNycsICctcGh0JywgJzAuNScsICctbnQn

> <r_epik_Ionization_Penalty>
  0.0000

> <r_epik_Ionization_Penalty_Charging>
  0.0000

> <r_epik_Ionization_Penalty_Neutral>
  0.0000

> <r_epik_State_Penalty>
  0.4107

> <r_epik_Charging_Adjusted_Penalty>
0.410726870982219

> <i_epik_Tot_Q>
1

> <i_epik_Tot_abs_Q>
1

$$$$
