2xfi_ligand
                    3D
 Schrodinger Suite 2020-3.
 86 89  0  0  1  0            999 V2000
   29.6070    6.3810   36.4010 C   0  0  0  0  0  0
   28.9230    6.7310   35.0910 C   0  0  2  0  0  0
   28.1410    5.5790   34.5770 N   0  3  0  0  0  0
   28.9860    4.4330   34.1910 C   0  0  0  0  0  0
   28.2110    3.5670   33.1970 C   0  0  1  0  0  0
   27.8750    4.4430   32.1150 O   0  0  0  0  0  0
   29.0210    2.3670   32.7280 C   0  0  2  0  0  0
   28.3780    1.6430   31.5490 C   0  0  0  0  0  0
   29.0330    0.3130   31.2650 C   0  0  0  0  0  0
   30.4000    0.2030   31.0560 C   0  0  0  0  0  0
   30.9700   -1.0340   30.8030 C   0  0  0  0  0  0
   30.1810   -2.1700   30.7530 C   0  0  0  0  0  0
   28.8220   -2.0650   30.9570 C   0  0  0  0  0  0
   28.2520   -0.8300   31.2110 C   0  0  0  0  0  0
   29.2370    1.4270   33.8340 N   0  0  0  0  0  0
   30.4470    1.3530   34.4680 C   0  0  0  0  0  0
   31.3610    2.1640   34.3170 O   0  0  0  0  0  0
   30.5680    0.1920   35.3700 C   0  0  0  0  0  0
   30.0220   -1.0270   35.0120 C   0  0  0  0  0  0
   30.1260   -2.1130   35.8710 C   0  0  0  0  0  0
   30.7850   -1.9780   37.0860 C   0  0  0  0  0  0
   31.3300   -0.7470   37.4240 C   0  0  0  0  0  0
   31.2220    0.3400   36.5750 C   0  0  0  0  0  0
   32.0280   -0.5490   38.6630 N   0  0  0  0  0  0
   33.3660   -0.0390   38.6070 C   0  0  0  0  0  0
   34.3440   -0.8070   38.0150 C   0  0  0  0  0  0
   35.6280   -0.3000   37.9580 C   0  0  0  0  0  0
   35.9040    0.9370   38.4930 C   0  0  0  0  0  0
   34.9160    1.6930   39.0810 C   0  0  0  0  0  0
   33.6290    1.2060   39.1410 C   0  0  0  0  0  0
   31.5150   -1.2490   40.1120 S   0  0  0  0  0  0
   32.4640   -2.7430   40.1980 C   0  0  0  0  0  0
   30.1330   -1.6250   39.9610 O   0  0  0  0  0  0
   31.9710   -0.4250   41.2070 O   0  0  0  0  0  0
   29.9470    7.1730   34.0610 C   0  0  0  0  0  0
   31.1440    6.8980   34.1210 O   0  0  0  0  0  0
   29.3990    7.9330   33.0520 N   0  0  0  0  0  0
   30.2540    8.4090   31.9610 C   0  0  0  0  0  0
   29.5130    8.2470   30.6570 C   0  0  0  0  0  0
   30.3160    8.7410   29.4560 C   0  0  0  0  0  0
   30.6940   10.1970   29.6490 C   0  0  0  0  0  0
   31.4730   10.3290   30.9520 C   0  0  0  0  0  0
   30.6130    9.8700   32.1310 C   0  0  0  0  0  0
   28.8521    6.0632   37.1353 H   0  0  0  0  0  0
   30.1413    7.2634   36.7828 H   0  0  0  0  0  0
   30.3229    5.5628   36.2336 H   0  0  0  0  0  0
   28.2091    7.5482   35.2714 H   0  0  0  0  0  0
   27.4443    5.2326   35.3546 H   0  0  0  0  0  0
   27.5730    5.8890   33.6875 H   0  0  0  0  0  0
   29.9117    4.8008   33.7244 H   0  0  0  0  0  0
   29.2355    3.8436   35.0856 H   0  0  0  0  0  0
   27.2770    3.1617   33.6135 H   0  0  0  0  0  0
   27.2894    5.3542   32.3066 H   0  0  0  0  0  0
   30.0076    2.7371   32.4122 H   0  0  0  0  0  0
   27.3156    1.4591   31.7669 H   0  0  0  0  0  0
   28.4647    2.2645   30.6455 H   0  0  0  0  0  0
   31.0280    1.0932   31.0910 H   0  0  0  0  0  0
   32.0452   -1.1130   30.6425 H   0  0  0  0  0  0
   30.6318   -3.1421   30.5534 H   0  0  0  0  0  0
   28.1954   -2.9560   30.9182 H   0  0  0  0  0  0
   27.1763   -0.7556   31.3704 H   0  0  0  0  0  0
   28.4197    0.7690   34.1642 H   0  0  0  0  0  0
   29.5101   -1.1353   34.0558 H   0  0  0  0  0  0
   29.6901   -3.0722   35.5915 H   0  0  0  0  0  0
   30.8730   -2.8266   37.7645 H   0  0  0  0  0  0
   31.6491    1.3028   36.8555 H   0  0  0  0  0  0
   34.1113   -1.7887   37.6024 H   0  0  0  0  0  0
   36.4226   -0.8803   37.4890 H   0  0  0  0  0  0
   36.9219    1.3245   38.4504 H   0  0  0  0  0  0
   35.1507    2.6726   39.4973 H   0  0  0  0  0  0
   32.8338    1.7925   39.6013 H   0  0  0  0  0  0
   32.1608   -3.4173   39.3835 H   0  0  0  0  0  0
   32.2871   -3.2345   41.1660 H   0  0  0  0  0  0
   33.5331   -2.5045   40.0978 H   0  0  0  0  0  0
   28.3279    8.1834   33.0607 H   0  0  0  0  0  0
   31.1694    7.7999   31.9928 H   0  0  0  0  0  0
   29.2850    7.1832   30.4946 H   0  0  0  0  0  0
   28.5756    8.8214   30.6941 H   0  0  0  0  0  0
   31.2314    8.1396   29.3546 H   0  0  0  0  0  0
   29.7095    8.6422   28.5437 H   0  0  0  0  0  0
   31.3168   10.5290   28.8053 H   0  0  0  0  0  0
   29.7816   10.8098   29.6947 H   0  0  0  0  0  0
   32.3782    9.7059   30.9027 H   0  0  0  0  0  0
   31.7593   11.3803   31.1032 H   0  0  0  0  0  0
   29.6929   10.4718   32.1678 H   0  0  0  0  0  0
   31.1757   10.0028   33.0668 H   0  0  0  0  0  0
  1  2  1  0  0  0
  1 44  1  0  0  0
  1 45  1  0  0  0
  1 46  1  0  0  0
  2  3  1  0  0  0
  2 35  1  0  0  0
  2 47  1  0  0  0
  3  4  1  0  0  0
  3 48  1  0  0  0
  3 49  1  0  0  0
  4  5  1  0  0  0
  4 50  1  0  0  0
  4 51  1  0  0  0
  5  6  1  0  0  0
  5  7  1  0  0  0
  5 52  1  0  0  0
  6 53  1  0  0  0
  7  8  1  0  0  0
  7 15  1  0  0  0
  7 54  1  0  0  0
  8  9  1  0  0  0
  8 55  1  0  0  0
  8 56  1  0  0  0
  9 10  2  0  0  0
  9 14  1  0  0  0
 10 11  1  0  0  0
 10 57  1  0  0  0
 11 12  2  0  0  0
 11 58  1  0  0  0
 12 13  1  0  0  0
 12 59  1  0  0  0
 13 14  2  0  0  0
 13 60  1  0  0  0
 14 61  1  0  0  0
 15 16  1  0  0  0
 15 62  1  0  0  0
 16 17  2  0  0  0
 16 18  1  0  0  0
 18 19  2  0  0  0
 18 23  1  0  0  0
 19 20  1  0  0  0
 19 63  1  0  0  0
 20 21  2  0  0  0
 20 64  1  0  0  0
 21 22  1  0  0  0
 21 65  1  0  0  0
 22 23  2  0  0  0
 22 24  1  0  0  0
 23 66  1  0  0  0
 24 25  1  0  0  0
 24 31  1  0  0  0
 25 26  2  0  0  0
 25 30  1  0  0  0
 26 27  1  0  0  0
 26 67  1  0  0  0
 27 28  2  0  0  0
 27 68  1  0  0  0
 28 29  1  0  0  0
 28 69  1  0  0  0
 29 30  2  0  0  0
 29 70  1  0  0  0
 30 71  1  0  0  0
 31 32  1  0  0  0
 31 33  2  0  0  0
 31 34  2  0  0  0
 32 72  1  0  0  0
 32 73  1  0  0  0
 32 74  1  0  0  0
 35 36  2  0  0  0
 35 37  1  0  0  0
 37 38  1  0  0  0
 37 75  1  0  0  0
 38 39  1  0  0  0
 38 43  1  0  0  0
 38 76  1  0  0  0
 39 40  1  0  0  0
 39 77  1  0  0  0
 39 78  1  0  0  0
 40 41  1  0  0  0
 40 79  1  0  0  0
 40 80  1  0  0  0
 41 42  1  0  0  0
 41 81  1  0  0  0
 41 82  1  0  0  0
 42 43  1  0  0  0
 42 83  1  0  0  0
 42 84  1  0  0  0
 43 85  1  0  0  0
 43 86  1  0  0  0
M  CHG  1   3   1
M  END
> <s_m_source_file>
../2xfi_ligand.sdf

> <i_m_source_file_index>
1

> <s_epik_input>
W0NIMl0xW0NIMl1bQ0gyXVtDSDJdW0NIMl1bQ0hdMVtOSF1DKD1PKVtDQEhdKFtDSDNdKVtOSDIrXVtDSDJdW0NAQEhdKFtPSF0pW0NASF0oW0NIMl1jMltjSF1bY0hdW2NIXVtjSF1bY0hdMilbTkhdQyg9TyljM1tjSF1bY0hdW2NIXWMoW2NIXTMpTihTKD1PKSg9TylbQ0gzXSljNFtjSF1bY0hdW2NIXVtjSF1bY0hdNA==

> <s_epik_cmdline>
J2VwaWtfYXBwJywgJy1pbWFlJywgJ2xpZ2FuZF9wcm8ubWFlJywgJy1vbWFlJywgJ2xpZ2FuZF9wcmVwLm1hZScsICctbXMnLCAnMScsICctcGgnLCAnNycsICctcGh0JywgJzAuNScsICctbnQn

> <r_epik_Ionization_Penalty>
  0.0373

> <r_epik_Ionization_Penalty_Charging>
  0.0373

> <r_epik_Ionization_Penalty_Neutral>
  0.0000

> <r_epik_State_Penalty>
  0.0312

> <r_epik_Charging_Adjusted_Penalty>
0.0685705159613123

> <i_epik_Tot_Q>
1

> <i_epik_Tot_abs_Q>
1

$$$$
