2xfj_ligand
                    3D
 Schrodinger Suite 2020-3.
 87 90  0  0  1  0            999 V2000
   31.2150   -0.8160   37.2620 C   0  0  0  0  0  0
   31.1000    0.2670   36.4170 C   0  0  0  0  0  0
   30.4960    0.1200   35.1780 C   0  0  0  0  0  0
   29.9840   -1.1100   34.7910 C   0  0  0  0  0  0
   30.0820   -2.1960   35.6560 C   0  0  0  0  0  0
   30.7110   -2.0430   36.8970 C   0  0  0  0  0  0
   30.3960    1.3190   34.3130 C   0  0  0  0  0  0
   29.1550    1.4690   33.7620 N   0  0  0  0  0  0
   31.3360    2.1030   34.1630 O   0  0  0  0  0  0
   28.9190    2.3760   32.6420 C   0  0  1  0  0  0
   28.2150    1.6280   31.5050 C   0  0  0  0  0  0
   28.1150    3.5750   33.1580 C   0  0  2  0  0  0
   27.7510    4.4470   32.0750 O   0  0  0  0  0  0
   28.9390    0.3470   31.1690 C   0  0  0  0  0  0
   28.9190    4.4620   34.1270 C   0  0  0  0  0  0
   28.0690    5.5800   34.5670 N   0  3  0  0  0  0
   28.8320    6.7690   35.0310 C   0  0  2  0  0  0
   29.8700    7.2150   34.0190 C   0  0  0  0  0  0
   29.3280    7.9270   32.9840 N   0  0  0  0  0  0
   31.0720    6.9750   34.1130 O   0  0  0  0  0  0
   30.1690    8.3710   31.8710 C   0  0  0  0  0  0
   29.4850    6.5020   36.3620 C   0  0  0  0  0  0
   29.3720    8.3130   30.5880 C   0  0  0  0  0  0
   30.1630    8.8230   29.3930 C   0  0  0  0  0  0
   30.6930   10.2300   29.6380 C   0  0  0  0  0  0
   31.4840   10.2850   30.9420 C   0  0  0  0  0  0
   30.6330    9.8010   32.1120 C   0  0  0  0  0  0
   30.3110    0.3300   30.9710 C   0  0  0  0  0  0
   30.9290   -0.8780   30.6840 C   0  0  0  0  0  0
   30.1950   -2.0490   30.5820 C   0  0  0  0  0  0
   28.8290   -2.0250   30.7740 C   0  0  0  0  0  0
   28.2110   -0.8230   31.0740 C   0  0  0  0  0  0
   29.6100   -3.4890   35.3840 N   0  0  0  0  0  0
   29.0850   -3.6860   34.0370 C   0  0  0  0  0  0
   27.5850   -3.7200   34.0980 C   0  0  0  0  0  0
   31.8580   -0.6610   38.5110 N   0  0  0  0  0  0
   33.1370    0.0010   38.5710 C   0  0  0  0  0  0
   33.5930   -0.2080   40.0040 C   0  0  0  0  0  0
   32.4720   -0.9060   40.7350 C   0  0  0  0  0  0
   31.4020   -1.1390   39.7030 C   0  0  0  0  0  0
   30.3180   -1.6550   39.9250 O   0  0  0  0  0  0
   31.4844    1.2399   36.7234 H   0  0  0  0  0  0
   29.5086   -1.2250   33.8169 H   0  0  0  0  0  0
   30.8013   -2.8937   37.5724 H   0  0  0  0  0  0
   28.3224    0.8859   34.1824 H   0  0  0  0  0  0
   29.8904    2.7242   32.2609 H   0  0  0  0  0  0
   27.1869    1.3822   31.8092 H   0  0  0  0  0  0
   28.1898    2.2641   30.6079 H   0  0  0  0  0  0
   27.2044    3.1651   33.6192 H   0  0  0  0  0  0
   27.1613    4.0594   31.2312 H   0  0  0  0  0  0
   29.2294    3.8659   34.9978 H   0  0  0  0  0  0
   29.8100    4.8522   33.6133 H   0  0  0  0  0  0
   27.4319    5.9069   33.7320 H   0  0  0  0  0  0
   27.4359    5.2517   35.4045 H   0  0  0  0  0  0
   28.0919    7.5745   35.1466 H   0  0  0  0  0  0
   28.2542    8.1655   32.9912 H   0  0  0  0  0  0
   31.0310    7.6896   31.8189 H   0  0  0  0  0  0
   28.7225    6.1797   37.0864 H   0  0  0  0  0  0
   29.9692    7.4211   36.7238 H   0  0  0  0  0  0
   30.2401    5.7103   36.2477 H   0  0  0  0  0  0
   29.0805    7.2721   30.3842 H   0  0  0  0  0  0
   28.4693    8.9335   30.6887 H   0  0  0  0  0  0
   31.0172    8.1554   29.2068 H   0  0  0  0  0  0
   29.5137    8.8439   28.5053 H   0  0  0  0  0  0
   31.3526   10.5230   28.8079 H   0  0  0  0  0  0
   29.8498   10.9335   29.7022 H   0  0  0  0  0  0
   32.3723    9.6416   30.8594 H   0  0  0  0  0  0
   31.7985   11.3210   31.1367 H   0  0  0  0  0  0
   29.7570   10.4582   32.2153 H   0  0  0  0  0  0
   31.2325    9.8416   33.0334 H   0  0  0  0  0  0
   30.8932    1.2489   31.0396 H   0  0  0  0  0  0
   32.0086   -0.9068   30.5364 H   0  0  0  0  0  0
   30.6966   -2.9885   30.3502 H   0  0  0  0  0  0
   28.2438   -2.9408   30.6906 H   0  0  0  0  0  0
   27.1336   -0.7996   31.2377 H   0  0  0  0  0  0
   29.6147   -4.3240   36.1001 H   0  0  0  0  0  0
   29.4116   -2.8574   33.3914 H   0  0  0  0  0  0
   29.4617   -4.6368   33.6320 H   0  0  0  0  0  0
   27.1802   -3.8683   33.0860 H   0  0  0  0  0  0
   27.2130   -2.7686   34.5060 H   0  0  0  0  0  0
   27.2631   -4.5480   34.7467 H   0  0  0  0  0  0
   33.8235   -0.4613   37.8464 H   0  0  0  0  0  0
   33.0103    1.0663   38.3279 H   0  0  0  0  0  0
   34.5030   -0.8259   40.0128 H   0  0  0  0  0  0
   33.8072    0.7668   40.4665 H   0  0  0  0  0  0
   32.8410   -1.8546   41.1521 H   0  0  0  0  0  0
   32.1099   -0.2630   41.5508 H   0  0  0  0  0  0
  1  2  2  0  0  0
  1  6  1  0  0  0
  1 36  1  0  0  0
  2  3  1  0  0  0
  2 42  1  0  0  0
  3  4  2  0  0  0
  3  7  1  0  0  0
  4  5  1  0  0  0
  4 43  1  0  0  0
  5  6  2  0  0  0
  5 33  1  0  0  0
  6 44  1  0  0  0
  7  8  1  0  0  0
  7  9  2  0  0  0
  8 10  1  0  0  0
  8 45  1  0  0  0
 10 11  1  0  0  0
 10 12  1  0  0  0
 10 46  1  0  0  0
 11 14  1  0  0  0
 11 47  1  0  0  0
 11 48  1  0  0  0
 12 13  1  0  0  0
 12 15  1  0  0  0
 12 49  1  0  0  0
 13 50  1  0  0  0
 14 28  2  0  0  0
 14 32  1  0  0  0
 15 16  1  0  0  0
 15 51  1  0  0  0
 15 52  1  0  0  0
 16 17  1  0  0  0
 16 53  1  0  0  0
 16 54  1  0  0  0
 17 18  1  0  0  0
 17 22  1  0  0  0
 17 55  1  0  0  0
 18 19  1  0  0  0
 18 20  2  0  0  0
 19 21  1  0  0  0
 19 56  1  0  0  0
 21 23  1  0  0  0
 21 27  1  0  0  0
 21 57  1  0  0  0
 22 58  1  0  0  0
 22 59  1  0  0  0
 22 60  1  0  0  0
 23 24  1  0  0  0
 23 61  1  0  0  0
 23 62  1  0  0  0
 24 25  1  0  0  0
 24 63  1  0  0  0
 24 64  1  0  0  0
 25 26  1  0  0  0
 25 65  1  0  0  0
 25 66  1  0  0  0
 26 27  1  0  0  0
 26 67  1  0  0  0
 26 68  1  0  0  0
 27 69  1  0  0  0
 27 70  1  0  0  0
 28 29  1  0  0  0
 28 71  1  0  0  0
 29 30  2  0  0  0
 29 72  1  0  0  0
 30 31  1  0  0  0
 30 73  1  0  0  0
 31 32  2  0  0  0
 31 74  1  0  0  0
 32 75  1  0  0  0
 33 34  1  0  0  0
 33 76  1  0  0  0
 34 35  1  0  0  0
 34 77  1  0  0  0
 34 78  1  0  0  0
 35 79  1  0  0  0
 35 80  1  0  0  0
 35 81  1  0  0  0
 36 37  1  0  0  0
 36 40  1  0  0  0
 37 38  1  0  0  0
 37 82  1  0  0  0
 37 83  1  0  0  0
 38 39  1  0  0  0
 38 84  1  0  0  0
 38 85  1  0  0  0
 39 40  1  0  0  0
 39 86  1  0  0  0
 39 87  1  0  0  0
 40 41  2  0  0  0
M  CHG  1  16   1
M  END
> <s_m_source_file>
../2xfj_ligand.sdf

> <i_m_source_file_index>
1

> <s_epik_input>
Tz1DMVtDSDJdW0NIMl1bQ0gyXU4xYzJbY0hdYyhbY0hdYyhbY0hdMilbTkhdW0NIMl1bQ0gzXSlDKD1PKVtOSF1bQ0BASF0oW0NIMl1jM1tjSF1bY0hdW2NIXVtjSF1bY0hdMylbQ0BIXShbT0hdKVtDSDJdW05IMitdW0NAQEhdKFtDSDNdKUMoPU8pW05IXVtDSF00W0NIMl1bQ0gyXVtDSDJdW0NIMl1bQ0gyXTQ=

> <s_epik_cmdline>
J2VwaWtfYXBwJywgJy1pbWFlJywgJ2xpZ2FuZF9wcm8ubWFlJywgJy1vbWFlJywgJ2xpZ2FuZF9wcmVwLm1hZScsICctbXMnLCAnMScsICctcGgnLCAnNycsICctcGh0JywgJzAuNScsICctbnQn

> <r_epik_Ionization_Penalty>
  0.0376

> <r_epik_Ionization_Penalty_Charging>
  0.0373

> <r_epik_Ionization_Penalty_Neutral>
  0.0003

> <r_epik_State_Penalty>
  0.0312

> <r_epik_Charging_Adjusted_Penalty>
0.0685705159613123

> <i_epik_Tot_Q>
1

> <i_epik_Tot_abs_Q>
1

$$$$
