2xg3_ligand
                    3D
 Schrodinger Suite 2020-3.
 64 66  0  0  1  0            999 V2000
  -15.8410    7.6400   -3.4740 O   0  0  0  0  0  0
  -15.4830    8.2180   -2.3290 C   0  0  0  0  0  0
  -16.4240    8.4940   -1.4520 N   0  0  0  0  0  0
  -14.1270    8.8430   -2.1480 C   0  0  0  0  0  0
  -14.0120   10.0600   -1.4820 C   0  0  0  0  0  0
  -12.9810    8.2060   -2.5890 C   0  0  0  0  0  0
  -11.7280    8.7880   -2.4450 C   0  0  0  0  0  0
  -11.6070   10.0050   -1.7830 C   0  0  0  0  0  0
  -12.7560   10.6330   -1.2970 C   0  0  0  0  0  0
  -20.1870    8.8450   -1.3780 C   0  0  1  0  0  0
  -18.7150    9.2800   -1.2880 C   0  0  1  0  0  0
  -17.8080    8.1200   -1.6310 C   0  0  2  0  0  0
  -18.1200    6.9310   -0.7500 C   0  0  2  0  0  0
  -19.6000    6.6270   -0.8210 C   0  0  1  0  0  0
  -19.9620    5.4710    0.1270 C   0  0  0  0  0  0
  -18.5120   10.3090   -2.2490 O   0  0  0  0  0  0
  -17.7430    7.2510    0.5980 O   0  0  0  0  0  0
  -20.3790    7.7640   -0.4820 O   0  0  0  0  0  0
  -21.3790    5.2750   -0.0710 O   0  0  0  0  0  0
  -25.0370   11.0390   -1.0620 C   0  0  2  0  0  0
  -24.5470   10.2880    0.1630 C   0  0  1  0  0  0
  -23.0240   10.3180    0.2840 C   0  0  2  0  0  0
  -22.3500    9.8780   -1.0020 C   0  0  1  0  0  0
  -22.9480   10.7540   -2.0990 C   0  0  1  0  0  0
  -22.3340   10.4710   -3.4570 C   0  0  0  0  0  0
  -25.9710   10.7010    2.0780 C   0  0  0  0  0  0
  -26.2840   11.6320    3.2240 C   0  0  0  0  0  0
  -24.9510   11.0740    1.3090 N   0  0  0  0  0  0
  -26.4520   10.8330   -1.2030 O   0  0  0  0  0  0
  -22.6670    9.4820    1.3520 O   0  0  0  0  0  0
  -20.9330    9.9570   -0.8850 O   0  0  0  0  0  0
  -24.3540   10.5180   -2.2060 O   0  0  0  0  0  0
  -22.5320    9.0980   -3.7810 O   0  0  0  0  0  0
  -26.5210    9.6110    1.9300 O   0  0  0  0  0  0
  -16.1136    9.0370   -0.5471 H   0  0  0  0  0  0
  -14.9028   10.5633   -1.1062 H   0  0  0  0  0  0
  -13.0630    7.2263   -3.0596 H   0  0  0  0  0  0
  -10.8444    8.2935   -2.8487 H   0  0  0  0  0  0
  -10.6276   10.4631   -1.6451 H   0  0  0  0  0  0
  -12.6689   11.5816   -0.7673 H   0  0  0  0  0  0
  -20.5452    8.5324   -2.3700 H   0  0  0  0  0  0
  -18.4577    9.6823   -0.2971 H   0  0  0  0  0  0
  -17.9328    7.8590   -2.6923 H   0  0  0  0  0  0
  -17.5379    6.0443   -1.0414 H   0  0  0  0  0  0
  -19.8611    6.4075   -1.8668 H   0  0  0  0  0  0
  -19.3812    4.5775   -0.1458 H   0  0  0  0  0  0
  -19.7274    5.7588    1.1625 H   0  0  0  0  0  0
  -19.0812   11.2476   -2.1783 H   0  0  0  0  0  0
  -16.6974    7.4994    0.8324 H   0  0  0  0  0  0
  -21.9104    4.4944    0.4932 H   0  0  0  0  0  0
  -24.8594   12.1237   -1.0180 H   0  0  0  0  0  0
  -24.9566    9.2675    0.1356 H   0  0  0  0  0  0
  -22.6472   11.3183    0.5436 H   0  0  0  0  0  0
  -22.4611    8.8090   -1.2365 H   0  0  0  0  0  0
  -22.8014   11.8081   -1.8209 H   0  0  0  0  0  0
  -22.8164   11.1038   -4.2165 H   0  0  0  0  0  0
  -21.2569   10.6923   -3.4257 H   0  0  0  0  0  0
  -25.6668   12.5385    3.1390 H   0  0  0  0  0  0
  -26.0651   11.1274    4.1766 H   0  0  0  0  0  0
  -27.3482   11.9085    3.1916 H   0  0  0  0  0  0
  -24.4117   11.9996    1.5588 H   0  0  0  0  0  0
  -27.1386   11.1723   -0.4134 H   0  0  0  0  0  0
  -23.0740    9.6690    2.3567 H   0  0  0  0  0  0
  -22.1546    8.6977   -4.7335 H   0  0  0  0  0  0
  1  2  2  0  0  0
  2  3  1  0  0  0
  2  4  1  0  0  0
  3 12  1  0  0  0
  3 35  1  0  0  0
  4  5  2  0  0  0
  4  6  1  0  0  0
  5  9  1  0  0  0
  5 36  1  0  0  0
  6  7  2  0  0  0
  6 37  1  0  0  0
  7  8  1  0  0  0
  7 38  1  0  0  0
  8  9  2  0  0  0
  8 39  1  0  0  0
  9 40  1  0  0  0
 10 11  1  0  0  0
 10 18  1  0  0  0
 10 31  1  0  0  0
 10 41  1  0  0  0
 11 12  1  0  0  0
 11 16  1  0  0  0
 11 42  1  0  0  0
 12 13  1  0  0  0
 12 43  1  0  0  0
 13 14  1  0  0  0
 13 17  1  0  0  0
 13 44  1  0  0  0
 14 15  1  0  0  0
 14 18  1  0  0  0
 14 45  1  0  0  0
 15 19  1  0  0  0
 15 46  1  0  0  0
 15 47  1  0  0  0
 16 48  1  0  0  0
 17 49  1  0  0  0
 19 50  1  0  0  0
 20 21  1  0  0  0
 20 29  1  0  0  0
 20 32  1  0  0  0
 20 51  1  0  0  0
 21 22  1  0  0  0
 21 28  1  0  0  0
 21 52  1  0  0  0
 22 23  1  0  0  0
 22 30  1  0  0  0
 22 53  1  0  0  0
 23 24  1  0  0  0
 23 31  1  0  0  0
 23 54  1  0  0  0
 24 25  1  0  0  0
 24 32  1  0  0  0
 24 55  1  0  0  0
 25 33  1  0  0  0
 25 56  1  0  0  0
 25 57  1  0  0  0
 26 27  1  0  0  0
 26 28  1  0  0  0
 26 34  2  0  0  0
 27 58  1  0  0  0
 27 59  1  0  0  0
 27 60  1  0  0  0
 28 61  1  0  0  0
 29 62  1  0  0  0
 30 63  1  0  0  0
 33 64  1  0  0  0
M  END
> <s_m_source_file>
../2xg3_ligand.sdf

> <i_m_source_file_index>
1

> <s_epik_input>
W2NIXTFbY0hdW2NIXVtjSF1bY0hdYzFDKD1PKVtOSF1bQ0BASF0oW0NAQEhdKFtPSF0pW0NASF0oTzIpW0NIMl1bT0hdKVtDQEBIXShbT0hdKVtDQEBIXTJPW0NASF0oW0NASF0oTzMpW0NIMl1bT0hdKVtDQEhdKFtPSF0pW0NASF0oW0NAQEhdM1tPSF0pW05IXUMoPU8pW0NIM10=

> <s_epik_cmdline>
J2VwaWtfYXBwJywgJy1pbWFlJywgJ2xpZ2FuZF9wcm8ubWFlJywgJy1vbWFlJywgJ2xpZ2FuZF9wcmVwLm1hZScsICctbXMnLCAnMScsICctcGgnLCAnNycsICctcGh0JywgJzAuNScsICctbnQn

> <r_lp_tautomer_probability>
1

> <r_epik_Ionization_Penalty>
  0.0000

> <r_epik_Ionization_Penalty_Charging>
  0.0000

> <r_epik_Ionization_Penalty_Neutral>
  0.0000

> <r_epik_State_Penalty>
 -0.0000

> <r_epik_Charging_Adjusted_Penalty>
0

> <i_epik_Tot_Q>
0

> <i_epik_Tot_abs_Q>
0

> <s_epik_Chemistry_Notes>
This compound contains an acetal/aminal-like group ( X-CH(R)-Y where X, Y are N, S, or O) that may be acid/base labile, releasing an aldehyde.

$$$$
