2xg5_ligand
                    3D
 Schrodinger Suite 2020-3.
 55 60  0  0  1  0            999 V2000
  -48.2110   -8.1180   16.2520 O   0  0  0  0  0  0
  -47.8980   -7.4720   15.2200 C   0  0  0  0  0  0
  -46.9220   -6.6710   15.0750 O   0  5  0  0  0  0
  -48.7730   -7.6810   14.0370 C   0  0  2  0  0  0
  -48.1670   -8.7610   13.1140 C   0  0  1  0  0  0
  -49.2340   -9.6000   12.5250 C   0  0  0  0  0  0
  -49.2840  -10.9660   12.7860 C   0  0  0  0  0  0
  -50.3030  -11.7440   12.2340 C   0  0  0  0  0  0
  -51.2590  -11.1500   11.4170 C   0  0  0  0  0  0
  -51.2200   -9.7750   11.1370 C   0  0  0  0  0  0
  -50.2000   -8.9980   11.7030 C   0  0  0  0  0  0
  -47.4540   -7.9020   11.7750 S   0  0  0  0  0  0
  -48.8550   -6.4130   13.2960 N   0  0  0  0  0  0
  -49.5400   -5.2620   13.7610 C   0  0  0  0  0  0
  -50.1050   -5.3160   14.8790 O   0  0  0  0  0  0
  -48.1950   -6.4100   12.0720 C   0  0  0  0  0  0
  -48.2090   -5.1930   11.2190 C   0  0  0  0  0  0
  -47.5180   -5.1350    9.9020 C   0  0  0  0  0  0
  -46.0220   -5.0350   10.1940 C   0  0  0  0  0  0
  -46.7760   -3.8170    9.6830 C   0  0  0  0  0  0
  -48.9480   -4.0190   11.7410 C   0  0  0  0  0  0
  -49.5880   -4.0930   12.9830 C   0  0  0  0  0  0
  -49.0370   -2.7810   10.8680 C   0  0  0  0  0  0
  -50.0380   -3.1730    9.7670 C   0  0  0  0  0  0
  -50.8210   -4.3280    9.9010 C   0  0  0  0  0  0
  -51.7370   -4.7090    8.9160 C   0  0  0  0  0  0
  -51.8800   -3.9320    7.7730 C   0  0  0  0  0  0
  -51.1200   -2.7750    7.6350 C   0  0  0  0  0  0
  -50.2060   -2.4030    8.6160 C   0  0  0  0  0  0
  -51.2740   -1.9930    6.4880 C   0  0  0  0  0  0
  -50.5160   -0.8340    6.3160 C   0  0  0  0  0  0
  -49.6040   -0.4600    7.2980 C   0  0  0  0  0  0
  -49.4560   -1.2360    8.4500 C   0  0  0  0  0  0
  -49.7777   -7.9661   14.3824 H   0  0  0  0  0  0
  -47.5712   -9.4437   13.7377 H   0  0  0  0  0  0
  -48.5281  -11.4280   13.4210 H   0  0  0  0  0  0
  -50.3493  -12.8129   12.4424 H   0  0  0  0  0  0
  -52.0517  -11.7623   10.9870 H   0  0  0  0  0  0
  -51.9701   -9.3194   10.4905 H   0  0  0  0  0  0
  -50.1567   -7.9270   11.5051 H   0  0  0  0  0  0
  -48.2028   -5.7370    9.2867 H   0  0  0  0  0  0
  -45.8390   -5.2666   11.2537 H   0  0  0  0  0  0
  -45.4764   -5.7517    9.5625 H   0  0  0  0  0  0
  -46.8578   -3.5213    8.6266 H   0  0  0  0  0  0
  -47.2203   -3.0362   10.3178 H   0  0  0  0  0  0
  -50.1348   -3.2263   13.3545 H   0  0  0  0  0  0
  -49.3944   -1.9327   11.4701 H   0  0  0  0  0  0
  -48.0425   -2.5478   10.4600 H   0  0  0  0  0  0
  -50.7131   -4.9435   10.7941 H   0  0  0  0  0  0
  -52.3358   -5.6108    9.0440 H   0  0  0  0  0  0
  -52.5810   -4.2262    6.9919 H   0  0  0  0  0  0
  -51.9908   -2.2899    5.7224 H   0  0  0  0  0  0
  -50.6375   -0.2264    5.4193 H   0  0  0  0  0  0
  -49.0037    0.4405    7.1681 H   0  0  0  0  0  0
  -48.7517   -0.9295    9.2234 H   0  0  0  0  0  0
  1  2  2  0  0  0
  2  3  1  0  0  0
  2  4  1  0  0  0
  4  5  1  0  0  0
  4 13  1  0  0  0
  4 34  1  0  0  0
  5  6  1  0  0  0
  5 12  1  0  0  0
  5 35  1  0  0  0
  6  7  2  0  0  0
  6 11  1  0  0  0
  7  8  1  0  0  0
  7 36  1  0  0  0
  8  9  2  0  0  0
  8 37  1  0  0  0
  9 10  1  0  0  0
  9 38  1  0  0  0
 10 11  2  0  0  0
 10 39  1  0  0  0
 11 40  1  0  0  0
 12 16  1  0  0  0
 13 14  1  0  0  0
 13 16  1  0  0  0
 14 15  2  0  0  0
 14 22  1  0  0  0
 16 17  2  0  0  0
 17 18  1  0  0  0
 17 21  1  0  0  0
 18 19  1  0  0  0
 18 20  1  0  0  0
 18 41  1  0  0  0
 19 20  1  0  0  0
 19 42  1  0  0  0
 19 43  1  0  0  0
 20 44  1  0  0  0
 20 45  1  0  0  0
 21 22  2  0  0  0
 21 23  1  0  0  0
 22 46  1  0  0  0
 23 24  1  0  0  0
 23 47  1  0  0  0
 23 48  1  0  0  0
 24 25  2  0  0  0
 24 29  1  0  0  0
 25 26  1  0  0  0
 25 49  1  0  0  0
 26 27  2  0  0  0
 26 50  1  0  0  0
 27 28  1  0  0  0
 27 51  1  0  0  0
 28 29  2  0  0  0
 28 30  1  0  0  0
 29 33  1  0  0  0
 30 31  2  0  0  0
 30 52  1  0  0  0
 31 32  1  0  0  0
 31 53  1  0  0  0
 32 33  2  0  0  0
 32 54  1  0  0  0
 33 55  1  0  0  0
M  CHG  1   3  -1
M  END
> <s_m_source_file>
../2xg5_ligand.sdf

> <i_m_source_file_index>
1

> <s_epik_input>
W2NIXTFbY0hdW2NIXVtjSF1bY0hdYzFbQ0BIXShbQ0BIXTJDKD1PKVtPSF0pU2MobjIzKWMoW0NIXTRbQ0gyXVtDSDJdNCljKFtjSF1jMz1PKVtDSDJdYyhbY0hdW2NIXVtjSF01KWMoYzU2KVtjSF1bY0hdW2NIXVtjSF02

> <s_epik_cmdline>
J2VwaWtfYXBwJywgJy1pbWFlJywgJ2xpZ2FuZF9wcm8ubWFlJywgJy1vbWFlJywgJ2xpZ2FuZF9wcmVwLm1hZScsICctbXMnLCAnMScsICctcGgnLCAnNycsICctcGh0JywgJzAuNScsICctbnQn

> <r_lp_tautomer_probability>
1

> <r_epik_Ionization_Penalty>
  0.0003

> <r_epik_Ionization_Penalty_Charging>
  0.0003

> <r_epik_Ionization_Penalty_Neutral>
  0.0000

> <r_epik_State_Penalty>
 -0.0000

> <r_epik_Charging_Adjusted_Penalty>
0.000271729219493087

> <i_epik_Tot_Q>
-1

> <i_epik_Tot_abs_Q>
1

$$$$
