2xg9_ligand
                    3D
 Schrodinger Suite 2020-3.
 46 47  0  0  1  0            999 V2000
   16.7820    9.6370   23.5230 C   0  0  0  0  0  0
   17.0050    8.2380   24.1040 C   0  0  2  0  0  0
   17.3360    7.3350   23.0140 O   0  0  0  0  0  0
   15.7660    7.8210   24.9400 C   0  0  1  0  0  0
   15.9080    6.5190   25.5240 O   0  0  0  0  0  0
   15.4580    8.8600   26.0510 C   0  0  2  0  0  0
   14.2070    8.5330   26.6820 O   0  0  0  0  0  0
   15.3330   10.2580   25.4170 C   0  0  2  0  0  0
   16.5240   10.5300   24.6290 N   0  3  0  0  0  0
   15.0490   11.3960   26.4210 C   0  0  0  0  0  0
   16.1060   11.4780   27.3690 O   0  0  0  0  0  0
   14.2230    7.7230   27.8750 C   0  0  2  0  0  0
   12.7600    7.3240   28.2040 C   0  0  1  0  0  0
   11.9160    8.5410   28.5890 C   0  0  2  0  0  0
   12.6090    9.2730   29.7380 C   0  0  1  0  0  0
   14.0800    9.5920   29.4010 C   0  0  1  0  0  0
   14.8790   10.2640   30.5180 C   0  0  0  0  0  0
   12.1580    6.6560   27.0930 O   0  0  0  0  0  0
   10.5740    8.1100   28.8690 O   0  0  0  0  0  0
   11.9070   10.5180   30.0290 O   0  0  0  0  0  0
   14.7940    8.4030   29.0160 O   0  0  0  0  0  0
   14.9650    9.3900   31.6210 O   0  0  0  0  0  0
   17.6814    9.9539   22.9746 H   0  0  0  0  0  0
   15.9225    9.6164   22.8369 H   0  0  0  0  0  0
   17.8886    8.1763   24.7563 H   0  0  0  0  0  0
   18.1988    7.5482   22.3659 H   0  0  0  0  0  0
   14.9126    7.6985   24.2568 H   0  0  0  0  0  0
   16.1295    5.6510   24.8856 H   0  0  0  0  0  0
   16.2191    8.8372   26.8449 H   0  0  0  0  0  0
   14.4840   10.2481   24.7177 H   0  0  0  0  0  0
   17.3668   10.4924   25.3349 H   0  0  0  0  0  0
   16.4072   11.5567   24.2518 H   0  0  0  0  0  0
   14.9708   12.3508   25.8804 H   0  0  0  0  0  0
   14.1042   11.1938   26.9468 H   0  0  0  0  0  0
   16.0732   12.2363   28.1651 H   0  0  0  0  0  0
   14.9136    6.8932   27.6643 H   0  0  0  0  0  0
   12.7468    6.5888   29.0221 H   0  0  0  0  0  0
   11.7631    9.2594   27.7702 H   0  0  0  0  0  0
   12.5517    8.6453   30.6395 H   0  0  0  0  0  0
   14.0460   10.2693   28.5349 H   0  0  0  0  0  0
   15.8904   10.4990   30.1550 H   0  0  0  0  0  0
   14.3739   11.1924   30.8227 H   0  0  0  0  0  0
   12.6266    5.7532   26.6743 H   0  0  0  0  0  0
    9.9967    7.5746   28.1008 H   0  0  0  0  0  0
   10.8394   10.4986   30.2933 H   0  0  0  0  0  0
   15.5057    9.6999   32.5274 H   0  0  0  0  0  0
  1  2  1  0  0  0
  1  9  1  0  0  0
  1 23  1  0  0  0
  1 24  1  0  0  0
  2  3  1  0  0  0
  2  4  1  0  0  0
  2 25  1  0  0  0
  3 26  1  0  0  0
  4  5  1  0  0  0
  4  6  1  0  0  0
  4 27  1  0  0  0
  5 28  1  0  0  0
  6  7  1  0  0  0
  6  8  1  0  0  0
  6 29  1  0  0  0
  7 12  1  0  0  0
  8  9  1  0  0  0
  8 10  1  0  0  0
  8 30  1  0  0  0
  9 31  1  0  0  0
  9 32  1  0  0  0
 10 11  1  0  0  0
 10 33  1  0  0  0
 10 34  1  0  0  0
 11 35  1  0  0  0
 12 13  1  0  0  0
 12 21  1  0  0  0
 12 36  1  0  0  0
 13 14  1  0  0  0
 13 18  1  0  0  0
 13 37  1  0  0  0
 14 15  1  0  0  0
 14 19  1  0  0  0
 14 38  1  0  0  0
 15 16  1  0  0  0
 15 20  1  0  0  0
 15 39  1  0  0  0
 16 17  1  0  0  0
 16 21  1  0  0  0
 16 40  1  0  0  0
 17 22  1  0  0  0
 17 41  1  0  0  0
 17 42  1  0  0  0
 18 43  1  0  0  0
 19 44  1  0  0  0
 20 45  1  0  0  0
 22 46  1  0  0  0
M  CHG  1   9   1
M  END
> <s_m_source_file>
../2xg9_ligand.sdf

> <i_m_source_file_index>
1

> <s_epik_input>
W09IXVtDQEhdMVtDSDJdW05IMitdW0NASF0oW0NIMl1bT0hdKVtDQEhdKFtDQEBIXTFbT0hdKU9bQ0BASF0yW0NASF0oW09IXSlbQ0BASF0oW09IXSlbQ0BIXShbT0hdKVtDQEhdKE8yKVtDSDJdW09IXQ==

> <s_epik_cmdline>
J2VwaWtfYXBwJywgJy1pbWFlJywgJ2xpZ2FuZF9wcm8ubWFlJywgJy1vbWFlJywgJ2xpZ2FuZF9wcmVwLm1hZScsICctbXMnLCAnMScsICctcGgnLCAnNycsICctcGh0JywgJzAuNScsICctbnQn

> <r_lp_tautomer_probability>
1

> <r_epik_Ionization_Penalty>
  0.0034

> <r_epik_Ionization_Penalty_Charging>
  0.0034

> <r_epik_Ionization_Penalty_Neutral>
  0.0000

> <r_epik_State_Penalty>
 -0.0000

> <r_epik_Charging_Adjusted_Penalty>
0.00338677877254832

> <i_epik_Tot_Q>
1

> <i_epik_Tot_abs_Q>
1

> <s_epik_Chemistry_Notes>
This compound contains an acetal/aminal-like group ( X-CH(R)-Y where X, Y are N, S, or O) that may be acid/base labile, releasing an aldehyde.

$$$$
