2xgo_ligand
                    3D
 Schrodinger Suite 2020-3.
 62 64  0  0  1  0            999 V2000
   29.9140    7.6450    2.3300 N   0  0  0  0  0  0
   30.2570    7.9330    3.6880 C   0  0  0  0  0  0
   30.1560    9.0870    4.1180 O   0  0  0  0  0  0
   30.7370    6.8920    4.5400 N   0  0  0  0  0  0
   30.8590    5.5740    4.0460 C   0  0  0  0  0  0
   31.2470    4.6730    4.7880 O   0  0  0  0  0  0
   30.5010    5.3020    2.7190 C   0  0  0  0  0  0
   30.0270    6.3140    1.8590 C   0  0  0  0  0  0
   27.7290    8.1820   -4.2840 P   0  0  1  0  0  0
   25.1080    7.1960   -4.4690 P   0  0  1  0  0  0
   24.1740    6.0830   -1.4280 C   0  0  2  0  0  0
   28.0550    6.7210   -4.2910 O   0  5  0  0  0  0
   29.4000    8.7490    1.4570 C   0  0  1  0  0  0
   23.7790    7.8050   -4.7040 O   0  0  0  0  0  0
   21.7760    6.1130   -2.3520 N   0  0  0  0  0  0
   30.9730   10.5030    0.8580 O   0  0  0  0  0  0
   22.8860    6.7550   -1.8670 C   0  0  0  0  0  0
   28.6030    9.1720   -4.9830 O   0  0  0  0  0  0
   30.2030    9.4480    0.3480 C   0  0  2  0  0  0
   25.5290    5.9990   -5.2550 O   0  5  0  0  0  0
   22.9650    8.2690   -1.6070 C   0  0  1  0  0  0
   21.8570    8.9610   -2.1520 O   0  0  0  0  0  0
   26.2050    8.3290   -4.8100 O   0  0  0  0  0  0
   29.0300   10.1170   -0.3300 C   0  0  2  0  0  0
   28.4270   11.1030    0.5370 O   0  0  0  0  0  0
   23.0110    8.3730   -0.0760 C   0  0  2  0  0  0
   22.8490    9.7020    0.4110 O   0  0  0  0  0  0
   28.0520    8.9650   -0.4580 C   0  0  2  0  0  0
   28.2520    8.1950    0.7490 O   0  0  0  0  0  0
   24.3080    7.7140    0.4620 C   0  0  2  0  0  0
   24.4750    6.3180   -0.0150 O   0  0  0  0  0  0
   28.4720    8.2820   -1.7480 C   0  0  0  0  0  0
   27.5680    8.6740   -2.7680 O   0  0  0  0  0  0
   24.3470    7.7410    2.0160 C   0  0  0  0  0  0
   24.4780    9.1100    2.4950 O   0  0  0  0  0  0
   21.5290    4.8050   -2.6020 C   0  0  0  0  0  0
   20.4690    4.4130   -3.0780 O   0  0  0  0  0  0
   22.5980    3.7540   -2.3030 C   0  0  0  0  0  0
   25.5530    6.8970   -2.3010 S   0  0  0  0  0  0
   31.0118    7.1163    5.5812 H   0  0  0  0  0  0
   30.5911    4.2832    2.3422 H   0  0  0  0  0  0
   29.7480    6.0724    0.8334 H   0  0  0  0  0  0
   23.9301    5.0122   -1.4908 H   0  0  0  0  0  0
   29.2629    9.5268    2.2226 H   0  0  0  0  0  0
   31.9014   10.2903    1.4084 H   0  0  0  0  0  0
   30.9235    8.8357   -0.2141 H   0  0  0  0  0  0
   23.7847    8.7848   -2.1286 H   0  0  0  0  0  0
   21.6967    8.9723   -3.2402 H   0  0  0  0  0  0
   29.2948   10.6590   -1.2498 H   0  0  0  0  0  0
   28.9664   12.0325    0.7716 H   0  0  0  0  0  0
   22.1086    7.9040    0.3433 H   0  0  0  0  0  0
   21.9715   10.2942    0.1121 H   0  0  0  0  0  0
   26.9714    9.1685   -0.4884 H   0  0  0  0  0  0
   25.1598    8.2683    0.0412 H   0  0  0  0  0  0
   29.4952    8.5896   -2.0094 H   0  0  0  0  0  0
   28.4406    7.1909   -1.6123 H   0  0  0  0  0  0
   23.4168    7.3091    2.4137 H   0  0  0  0  0  0
   25.2057    7.1526    2.3715 H   0  0  0  0  0  0
   24.5212    9.3130    3.5752 H   0  0  0  0  0  0
   23.4880    4.2454   -1.8830 H   0  0  0  0  0  0
   22.8709    3.2337   -3.2330 H   0  0  0  0  0  0
   22.2043    3.0266   -1.5779 H   0  0  0  0  0  0
  1  2  1  0  0  0
  1  8  1  0  0  0
  1 13  1  0  0  0
  2  3  2  0  0  0
  2  4  1  0  0  0
  4  5  1  0  0  0
  4 40  1  0  0  0
  5  6  2  0  0  0
  5  7  1  0  0  0
  7  8  2  0  0  0
  7 41  1  0  0  0
  8 42  1  0  0  0
  9 12  1  0  0  0
  9 18  2  0  0  0
  9 23  1  0  0  0
  9 33  1  0  0  0
 10 14  2  0  0  0
 10 20  1  0  0  0
 10 23  1  0  0  0
 10 39  1  0  0  0
 11 17  1  0  0  0
 11 31  1  0  0  0
 11 39  1  0  0  0
 11 43  1  0  0  0
 13 19  1  0  0  0
 13 29  1  0  0  0
 13 44  1  0  0  0
 15 17  2  0  0  0
 15 36  1  0  0  0
 16 19  1  0  0  0
 16 45  1  0  0  0
 17 21  1  0  0  0
 19 24  1  0  0  0
 19 46  1  0  0  0
 21 22  1  0  0  0
 21 26  1  0  0  0
 21 47  1  0  0  0
 22 48  1  0  0  0
 24 25  1  0  0  0
 24 28  1  0  0  0
 24 49  1  0  0  0
 25 50  1  0  0  0
 26 27  1  0  0  0
 26 30  1  0  0  0
 26 51  1  0  0  0
 27 52  1  0  0  0
 28 29  1  0  0  0
 28 32  1  0  0  0
 28 53  1  0  0  0
 30 31  1  0  0  0
 30 34  1  0  0  0
 30 54  1  0  0  0
 32 33  1  0  0  0
 32 55  1  0  0  0
 32 56  1  0  0  0
 34 35  1  0  0  0
 34 57  1  0  0  0
 34 58  1  0  0  0
 35 59  1  0  0  0
 36 37  2  0  0  0
 36 38  1  0  0  0
 38 60  1  0  0  0
 38 61  1  0  0  0
 38 62  1  0  0  0
M  CHG  2  12  -1  20  -1
M  END
> <s_m_source_file>
../2xgo_ligand.sdf

> <i_m_source_file_index>
1

> <s_epik_input>
W2NIXTFbY0hdYyg9TylbbkhdYyg9TyluMVtDQEhdMltDQEhdKFtPSF0pW0NASF0oW09IXSlbQ0BIXShPMilbQ0gyXU9bUEBAXSg9TykoW09IXSlPW1BAQF0oPU8pKFtPSF0pU1tDQEBIXTMvQyg9TlxDKD1PKVtDSDNdKVtDQEBIXShbT0hdKVtDQEhdKFtPSF0pW0NASF0oTzMpW0NIMl1bT0hd

> <s_epik_cmdline>
J2VwaWtfYXBwJywgJy1pbWFlJywgJ2xpZ2FuZF9wcm8ubWFlJywgJy1vbWFlJywgJ2xpZ2FuZF9wcmVwLm1hZScsICctbXMnLCAnMScsICctcGgnLCAnNycsICctcGh0JywgJzAuNScsICctbnQn

> <r_lp_tautomer_probability>
0.999537046341301

> <r_epik_Ionization_Penalty>
  0.0258

> <r_epik_Ionization_Penalty_Charging>
  0.0028

> <r_epik_Ionization_Penalty_Neutral>
  0.0230

> <r_epik_State_Penalty>
  0.0183

> <r_epik_Charging_Adjusted_Penalty>
0.0210763368733951

> <i_epik_Tot_Q>
-2

> <i_epik_Tot_abs_Q>
2

> <s_epik_Chemistry_Notes>
This compound has an imine and may undergo hydrolysis. This compound contains an acetal/aminal-like group ( X-CH(R)-Y where X, Y are N, S, or O) that may be acid/base labile, releasing an aldehyde.

$$$$
