2xgs_ligand
                    3D
 Schrodinger Suite 2020-3.
 39 40  0  0  1  0            999 V2000
  -12.2290    7.0840    3.0980 N   0  0  0  0  0  0
  -11.8360    7.4620    4.4410 C   0  0  0  0  0  0
  -11.9050    8.6030    4.8900 O   0  0  0  0  0  0
  -11.3410    6.4940    5.3290 N   0  0  0  0  0  0
  -11.2020    5.1570    4.9700 C   0  0  0  0  0  0
  -10.7710    4.3470    5.8090 O   0  0  0  0  0  0
  -11.5870    4.7720    3.6930 C   0  0  0  0  0  0
  -12.0960    5.6980    2.7660 C   0  0  0  0  0  0
  -15.8780    6.2150   -2.6770 P   0  0  1  0  0  0
  -15.3400    7.7040   -5.2700 P   0  0  0  0  0  0
  -12.8070    8.0440    2.0760 C   0  0  1  0  0  0
  -17.2470    6.0300   -2.1270 O   0  5  0  0  0  0
  -16.2510    8.8950   -5.9680 O   0  5  0  0  0  0
  -12.0090    8.7960    0.9500 C   0  0  2  0  0  0
  -11.2520    9.9420    1.3850 O   0  0  0  0  0  0
  -15.2260    5.1130   -3.4310 O   0  0  0  0  0  0
  -15.7050    6.2780   -6.0320 O   0  0  0  0  0  0
  -13.1560    9.2540    0.0580 C   0  0  2  0  0  0
  -13.9070   10.3050    0.6640 O   0  0  0  0  0  0
  -15.9010    7.7490   -3.5600 C   0  0  0  0  0  0
  -13.8870    7.9750   -5.3490 O   0  0  0  0  0  0
  -14.0710    8.0200    0.0390 C   0  0  2  0  0  0
  -13.7810    7.2460    1.2550 O   0  0  0  0  0  0
  -13.8570    7.2210   -1.2420 C   0  0  0  0  0  0
  -14.9850    6.4260   -1.3750 O   0  0  0  0  0  0
  -11.0472    6.7824    6.3490 H   0  0  0  0  0  0
  -11.4923    3.7258    3.4020 H   0  0  0  0  0  0
  -12.3950    5.3542    1.7758 H   0  0  0  0  0  0
  -13.1174    8.8208    2.7903 H   0  0  0  0  0  0
  -11.1962    8.2131    0.4923 H   0  0  0  0  0  0
  -10.3792    9.8079    2.0410 H   0  0  0  0  0  0
  -16.7459    5.9241   -6.0674 H   0  0  0  0  0  0
  -12.8189    9.6704   -0.9027 H   0  0  0  0  0  0
  -13.4567   11.3006    0.7903 H   0  0  0  0  0  0
  -16.9294    8.1379   -3.5926 H   0  0  0  0  0  0
  -15.2504    8.4751   -3.0506 H   0  0  0  0  0  0
  -15.1404    8.2755    0.0737 H   0  0  0  0  0  0
  -13.7497    7.9117   -2.0913 H   0  0  0  0  0  0
  -12.9455    6.6126   -1.1468 H   0  0  0  0  0  0
  1  2  1  0  0  0
  1  8  1  0  0  0
  1 11  1  0  0  0
  2  3  2  0  0  0
  2  4  1  0  0  0
  4  5  1  0  0  0
  4 26  1  0  0  0
  5  6  2  0  0  0
  5  7  1  0  0  0
  7  8  2  0  0  0
  7 27  1  0  0  0
  8 28  1  0  0  0
  9 12  1  0  0  0
  9 16  2  0  0  0
  9 20  1  0  0  0
  9 25  1  0  0  0
 10 13  1  0  0  0
 10 17  1  0  0  0
 10 20  1  0  0  0
 10 21  2  0  0  0
 11 14  1  0  0  0
 11 23  1  0  0  0
 11 29  1  0  0  0
 14 15  1  0  0  0
 14 18  1  0  0  0
 14 30  1  0  0  0
 15 31  1  0  0  0
 17 32  1  0  0  0
 18 19  1  0  0  0
 18 22  1  0  0  0
 18 33  1  0  0  0
 19 34  1  0  0  0
 20 35  1  0  0  0
 20 36  1  0  0  0
 22 23  1  0  0  0
 22 24  1  0  0  0
 22 37  1  0  0  0
 24 25  1  0  0  0
 24 38  1  0  0  0
 24 39  1  0  0  0
M  CHG  2  12  -1  13  -1
M  END
> <s_m_source_file>
../2xgs_ligand.sdf

> <i_m_source_file_index>
1

> <s_epik_input>
W2NIXTFbY0hdYyg9TylbbkhdYyg9TyluMVtDQEhdMltDQEhdKFtPSF0pW0NASF0oW09IXSlbQ0BIXShPMilbQ0gyXU9bUEBAXSg9TykoW09IXSlbQ0gyXVAoPU8pKFtPSF0pW09IXQ==

> <s_epik_cmdline>
J2VwaWtfYXBwJywgJy1pbWFlJywgJ2xpZ2FuZF9wcm8ubWFlJywgJy1vbWFlJywgJ2xpZ2FuZF9wcmVwLm1hZScsICctbXMnLCAnMScsICctcGgnLCAnNycsICctcGh0JywgJzAuNScsICctbnQn

> <r_lp_tautomer_probability>
0.999537046341301

> <r_epik_Ionization_Penalty>
  0.1361

> <r_epik_Ionization_Penalty_Charging>
  0.0026

> <r_epik_Ionization_Penalty_Neutral>
  0.1335

> <r_epik_State_Penalty>
  0.1229

> <r_epik_Charging_Adjusted_Penalty>
0.125472707319939

> <i_epik_Tot_Q>
-2

> <i_epik_Tot_abs_Q>
2

> <s_epik_Chemistry_Notes>
This compound contains an acetal/aminal-like group ( X-CH(R)-Y where X, Y are N, S, or O) that may be acid/base labile, releasing an aldehyde.

$$$$
