2xh5_ligand
                    3D
 Schrodinger Suite 2020-3.
 56 59  0  0  1  0            999 V2000
   44.6020   33.7270  113.9390 N   0  0  0  0  0  0
   43.2550   33.1680  113.8920 C   0  0  0  0  0  0
   42.9340   32.4900  115.1990 C   0  0  0  0  0  0
   44.0160   31.4900  115.6390 C   0  0  0  0  0  0
   43.9250   31.4360  117.1440 N   0  3  0  0  0  0
   43.7360   30.0260  115.2580 C   0  0  0  0  0  0
   43.2930   29.6800  113.8560 C   0  0  0  0  0  0
   41.9420   29.6470  113.5340 C   0  0  0  0  0  0
   41.5270   29.3110  112.2620 C   0  0  0  0  0  0
   42.4540   28.9820  111.2720 C   0  0  0  0  0  0
   43.8140   29.0030  111.6030 C   0  0  0  0  0  0
   44.2250   29.3420  112.8760 C   0  0  0  0  0  0
   41.9850   28.5950  109.8460 C   0  0  0  0  0  0
   40.6980   27.7840  109.9020 C   0  0  0  0  0  0
   41.7190   29.8380  108.9930 C   0  0  0  0  0  0
   43.0440   27.7330  109.1460 C   0  0  0  0  0  0
   45.4680   31.9180  115.3410 C   0  0  0  0  0  0
   45.6180   32.6710  114.0370 C   0  0  0  0  0  0
   44.8680   35.0330  114.3920 C   0  0  0  0  0  0
   46.1550   35.3000  114.6730 N   0  0  0  0  0  0
   46.4360   36.5330  115.0980 C   0  0  0  0  0  0
   45.5950   37.5470  115.2750 N   0  0  0  0  0  0
   44.3410   37.2610  114.9880 C   0  0  0  0  0  0
   43.2650   38.0880  115.0680 N   0  0  0  0  0  0
   42.1610   37.4190  114.6800 C   0  0  0  0  0  0
   42.5290   36.1610  114.3530 C   0  0  0  0  0  0
   43.8820   36.0290  114.5370 C   0  0  0  0  0  0
   42.5291   33.9752  113.7146 H   0  0  0  0  0  0
   43.1916   32.4321  113.0768 H   0  0  0  0  0  0
   42.8373   33.2474  115.9909 H   0  0  0  0  0  0
   41.9878   31.9374  115.1027 H   0  0  0  0  0  0
   42.9091   31.1349  117.4393 H   0  0  0  0  0  0
   44.1489   32.4291  117.5607 H   0  0  0  0  0  0
   44.6507   30.7046  117.5292 H   0  0  0  0  0  0
   44.6482   29.4286  115.4026 H   0  0  0  0  0  0
   42.9325   29.6284  115.8954 H   0  0  0  0  0  0
   41.2009   29.8895  114.2956 H   0  0  0  0  0  0
   40.4626   29.3024  112.0274 H   0  0  0  0  0  0
   44.5567   28.7487  110.8468 H   0  0  0  0  0  0
   45.2879   29.3455  113.1174 H   0  0  0  0  0  0
   39.9142   28.3740  110.3996 H   0  0  0  0  0  0
   40.8733   26.8567  110.4671 H   0  0  0  0  0  0
   40.3766   27.5353  108.8798 H   0  0  0  0  0  0
   40.9606   30.4648  109.4849 H   0  0  0  0  0  0
   41.3543   29.5312  108.0016 H   0  0  0  0  0  0
   42.6510   30.4112  108.8796 H   0  0  0  0  0  0
   43.2441   26.8357  109.7500 H   0  0  0  0  0  0
   43.9719   28.3127  109.0321 H   0  0  0  0  0  0
   42.6752   27.4327  108.1541 H   0  0  0  0  0  0
   45.8287   32.5760  116.1453 H   0  0  0  0  0  0
   46.1086   31.0257  115.2823 H   0  0  0  0  0  0
   45.4975   31.9675  113.2000 H   0  0  0  0  0  0
   46.6206   33.1218  113.9957 H   0  0  0  0  0  0
   47.4825   36.7332  115.3281 H   0  0  0  0  0  0
   41.1844   37.9252  114.6751 H   0  0  0  0  0  0
   41.8589   35.3772  113.9999 H   0  0  0  0  0  0
  1  2  1  0  0  0
  1 18  1  0  0  0
  1 19  1  0  0  0
  2  3  1  0  0  0
  2 28  1  0  0  0
  2 29  1  0  0  0
  3  4  1  0  0  0
  3 30  1  0  0  0
  3 31  1  0  0  0
  4  5  1  0  0  0
  4  6  1  0  0  0
  4 17  1  0  0  0
  5 32  1  0  0  0
  5 33  1  0  0  0
  5 34  1  0  0  0
  6  7  1  0  0  0
  6 35  1  0  0  0
  6 36  1  0  0  0
  7  8  2  0  0  0
  7 12  1  0  0  0
  8  9  1  0  0  0
  8 37  1  0  0  0
  9 10  2  0  0  0
  9 38  1  0  0  0
 10 11  1  0  0  0
 10 13  1  0  0  0
 11 12  2  0  0  0
 11 39  1  0  0  0
 12 40  1  0  0  0
 13 14  1  0  0  0
 13 15  1  0  0  0
 13 16  1  0  0  0
 14 41  1  0  0  0
 14 42  1  0  0  0
 14 43  1  0  0  0
 15 44  1  0  0  0
 15 45  1  0  0  0
 15 46  1  0  0  0
 16 47  1  0  0  0
 16 48  1  0  0  0
 16 49  1  0  0  0
 17 18  1  0  0  0
 17 50  1  0  0  0
 17 51  1  0  0  0
 18 52  1  0  0  0
 18 53  1  0  0  0
 19 20  2  0  0  0
 19 27  1  0  0  0
 20 21  1  0  0  0
 21 22  2  0  0  0
 21 54  1  0  0  0
 22 23  1  0  0  0
 23 24  1  0  0  0
 23 27  2  0  0  0
 24 25  2  0  0  0
 25 26  1  0  0  0
 25 55  1  0  0  0
 26 27  1  0  0  0
 26 56  1  0  0  0
M  CHG  1   5   1
M  END
> <s_m_source_file>
../2xh5_ligand.sdf

> <i_m_source_file_index>
1

> <s_epik_input>
TjE9W0NIXVtDSDJdYyhjMTIpYyhuW2NIXW4yKU4oW0NIMl1bQ0gyXTMpW0NIMl1bQ0gyXUMzKFtOSDMrXSlbQ0gyXWM0W2NIXVtjSF1jKFtjSF1bY0hdNClDKFtDSDNdKShbQ0gzXSlbQ0gzXQ==

> <s_epik_cmdline>
J2VwaWtfYXBwJywgJy1pbWFlJywgJ2xpZ2FuZF9wcm8ubWFlJywgJy1vbWFlJywgJ2xpZ2FuZF9wcmVwLm1hZScsICctbXMnLCAnMScsICctcGgnLCAnNycsICctcGh0JywgJzAuNScsICctbnQn

> <r_lp_tautomer_probability>
1

> <r_epik_Ionization_Penalty>
  0.0464

> <r_epik_Ionization_Penalty_Charging>
  0.0150

> <r_epik_Ionization_Penalty_Neutral>
  0.0314

> <r_epik_State_Penalty>
 -0.0000

> <r_epik_Charging_Adjusted_Penalty>
0.0149735049055098

> <i_epik_Tot_Q>
1

> <i_epik_Tot_abs_Q>
1

> <s_epik_Chemistry_Notes>
This compound has an imine and may undergo hydrolysis.

$$$$
