2xhr_ligand
                    3D
 Schrodinger Suite 2020-3.
 42 44  0  0  1  0            999 V2000
   -3.6640   11.5530   23.7810 N   0  0  0  0  0  0
   -2.6920   11.1430   24.6330 C   0  0  0  0  0  0
   -3.0860   10.6510   25.8230 N   0  0  0  0  0  0
   -2.0980   10.2750   26.6350 C   0  0  0  0  0  0
   -2.5600    9.6230   28.1690 Cl  0  0  0  0  0  0
   -0.7730   10.3540   26.3100 C   0  0  0  0  0  0
   -0.4440   10.8730   25.0800 C   0  0  0  0  0  0
   -1.3960   11.2830   24.2290 N   0  0  0  0  0  0
    0.9770   11.0210   24.6610 C   0  0  0  0  0  0
    1.7510    9.8610   24.5460 C   0  0  0  0  0  0
    3.0980    9.9290   24.1900 C   0  0  0  0  0  0
    3.9040    8.8360   24.0350 O   0  0  0  0  0  0
    3.3430    7.5430   24.3540 C   0  0  0  0  0  0
    4.3800    6.5010   24.0370 C   0  0  0  0  0  0
    5.5680    6.5550   24.9600 N   0  0  0  0  0  0
    5.1550    6.6200   26.3980 C   0  0  0  0  0  0
    6.3890    6.6820   27.2870 C   0  0  0  0  0  0
    7.2430    7.7920   26.9430 O   0  0  0  0  0  0
    7.6690    7.6950   25.5750 C   0  0  0  0  0  0
    6.4840    7.6960   24.6240 C   0  0  0  0  0  0
    3.7110   11.1890   24.0060 C   0  0  0  0  0  0
    5.4010   11.3180   23.5970 Cl  0  0  0  0  0  0
    2.9700   12.3490   24.1530 C   0  0  0  0  0  0
    1.6200   12.2760   24.4890 C   0  0  0  0  0  0
    0.7360   13.7560   24.6570 Cl  0  0  0  0  0  0
   -4.7219   11.4582   24.0670 H   0  0  0  0  0  0
   -3.3945   11.9803   22.8039 H   0  0  0  0  0  0
   -0.0023   10.0167   27.0031 H   0  0  0  0  0  0
    1.2946    8.8898   24.7374 H   0  0  0  0  0  0
    3.0827    7.5097   25.4222 H   0  0  0  0  0  0
    2.4383    7.3769   23.7508 H   0  0  0  0  0  0
    3.9329    5.4999   24.1256 H   0  0  0  0  0  0
    4.7469    6.6492   23.0106 H   0  0  0  0  0  0
    4.5424    7.5185   26.5633 H   0  0  0  0  0  0
    4.5686    5.7246   26.6519 H   0  0  0  0  0  0
    6.0796    6.7972   28.3363 H   0  0  0  0  0  0
    6.9684    5.7536   27.1754 H   0  0  0  0  0  0
    8.3138    8.5519   25.3301 H   0  0  0  0  0  0
    8.2310    6.7604   25.4314 H   0  0  0  0  0  0
    6.8444    7.5848   23.5907 H   0  0  0  0  0  0
    5.9377    8.6458   24.7216 H   0  0  0  0  0  0
    3.4430   13.3199   24.0058 H   0  0  0  0  0  0
  1  2  1  0  0  0
  1 26  1  0  0  0
  1 27  1  0  0  0
  2  3  2  0  0  0
  2  8  1  0  0  0
  3  4  1  0  0  0
  4  5  1  0  0  0
  4  6  2  0  0  0
  6  7  1  0  0  0
  6 28  1  0  0  0
  7  8  2  0  0  0
  7  9  1  0  0  0
  9 10  2  0  0  0
  9 24  1  0  0  0
 10 11  1  0  0  0
 10 29  1  0  0  0
 11 12  1  0  0  0
 11 21  2  0  0  0
 12 13  1  0  0  0
 13 14  1  0  0  0
 13 30  1  0  0  0
 13 31  1  0  0  0
 14 15  1  0  0  0
 14 32  1  0  0  0
 14 33  1  0  0  0
 15 16  1  0  0  0
 15 20  1  0  0  0
 16 17  1  0  0  0
 16 34  1  0  0  0
 16 35  1  0  0  0
 17 18  1  0  0  0
 17 36  1  0  0  0
 17 37  1  0  0  0
 18 19  1  0  0  0
 19 20  1  0  0  0
 19 38  1  0  0  0
 19 39  1  0  0  0
 20 40  1  0  0  0
 20 41  1  0  0  0
 21 22  1  0  0  0
 21 23  1  0  0  0
 23 24  2  0  0  0
 23 42  1  0  0  0
 24 25  1  0  0  0
M  END
> <s_m_source_file>
../2xhr_ligand.sdf

> <i_m_source_file_index>
1

> <s_epik_input>
W05IMl1jMW5jKENsKVtjSF1jKG4xKS1jMltjSF1jKGMoQ2wpW2NIXWMyQ2wpT1tDSDJdW0NIMl1bTkgrXTNbQ0gyXVtDSDJdT1tDSDJdW0NIMl0z

> <s_epik_cmdline>
J2VwaWtfYXBwJywgJy1pbWFlJywgJ2xpZ2FuZF9wcm8ubWFlJywgJy1vbWFlJywgJ2xpZ2FuZF9wcmVwLm1hZScsICctbXMnLCAnMScsICctcGgnLCAnNycsICctcGh0JywgJzAuNScsICctbnQn

> <r_lp_tautomer_probability>
0.999999987636

> <r_epik_Ionization_Penalty>
  0.0641

> <r_epik_Ionization_Penalty_Charging>
  0.0000

> <r_epik_Ionization_Penalty_Neutral>
  0.0641

> <r_epik_State_Penalty>
  0.0558

> <r_epik_Charging_Adjusted_Penalty>
0.0558297731723035

> <i_epik_Tot_Q>
0

> <i_epik_Tot_abs_Q>
0

$$$$
