2xhs_ligand
                    3D
 Schrodinger Suite 2020-3.
145145  0  0  1  0            999 V2000
   67.1950   24.5800   56.6160 N   0  3  0  0  0  0
   68.5260   24.0290   56.5770 C   0  0  2  0  0  0
   68.3990   22.5420   56.3880 C   0  0  0  0  0  0
   69.0910   21.9820   55.5780 O   0  0  0  0  0  0
   69.3120   24.3890   57.8320 C   0  0  0  0  0  0
   70.5490   25.0120   57.5150 O   0  0  0  0  0  0
   67.5060   21.8880   57.1030 N   0  0  0  0  0  0
   67.2630   20.4890   56.7990 C   0  0  2  0  0  0
   66.6890   20.3570   55.4100 C   0  0  0  0  0  0
   67.0170   19.4650   54.6740 O   0  0  0  0  0  0
   66.2800   19.8540   57.7030 C   0  0  2  0  0  0
   66.9270   19.5000   58.9120 O   0  0  0  0  0  0
   65.8010   18.6230   57.0780 C   0  0  0  0  0  0
   65.8070   21.2620   55.0540 N   0  0  0  0  0  0
   65.2100   21.2150   53.7610 C   0  0  2  0  0  0
   66.3190   21.3710   52.7960 C   0  0  0  0  0  0
   66.4090   20.6620   51.8330 O   0  0  0  0  0  0
   64.2870   22.4000   53.6210 C   0  0  0  0  0  0
   63.2520   22.3940   52.5200 C   0  0  0  0  0  0
   63.6590   23.2670   51.4100 C   0  0  0  0  0  0
   63.1360   21.0150   52.0550 C   0  0  0  0  0  0
   67.1810   22.3220   53.0650 N   0  0  0  0  0  0
   68.2830   22.5870   52.1860 C   0  0  2  0  0  0
   69.1970   21.4090   52.1050 C   0  0  0  0  0  0
   69.6930   21.0830   51.0600 O   0  0  0  0  0  0
   69.0340   23.8140   52.6450 C   0  0  0  0  0  0
   70.4660   23.8400   52.2450 C   0  0  0  0  0  0
   70.8280   25.1440   51.6400 C   0  0  0  0  0  0
   70.2180   26.2450   52.3450 N   0  0  0  0  0  0
   69.9040   27.3860   51.7650 C   0  0  0  0  0  0
   70.1270   27.5480   50.4810 N   0  3  0  0  0  0
   69.3500   28.3510   52.4640 N   0  0  0  0  0  0
   69.4270   20.7470   53.2080 N   0  0  0  0  0  0
   70.3470   19.6550   53.1490 C   0  0  2  0  0  0
   69.8540   18.5930   52.2130 C   0  0  0  0  0  0
   70.6070   18.0390   51.4530 O   0  0  0  0  0  0
   70.5300   19.0880   54.4870 C   0  0  0  0  0  0
   68.5780   18.2890   52.2880 N   0  0  0  0  0  0
   68.0220   17.2340   51.4810 C   0  0  2  0  0  0
   68.1170   17.5240   50.0200 C   0  0  0  0  0  0
   68.4120   16.6610   49.2220 O   0  0  0  0  0  0
   66.5680   17.0390   51.8330 C   0  0  0  0  0  0
   66.2220   16.2660   53.0820 C   0  0  0  0  0  0
   64.9610   16.8130   53.6040 C   0  0  0  0  0  0
   66.0390   14.8420   52.7420 C   0  0  0  0  0  0
   67.8640   18.7450   49.6390 N   0  0  0  0  0  0
   67.8950   19.0170   48.2380 C   0  0  2  0  0  0
   69.2600   19.5000   47.8780 C   0  0  0  0  0  0
   69.6000   19.5410   46.7220 O   0  0  0  0  0  0
   66.7950   19.9780   47.8180 C   0  0  0  0  0  0
   66.5210   21.2150   48.6520 C   0  0  1  0  0  0
   65.3340   21.9150   48.1270 C   0  0  0  0  0  0
   66.3500   20.8720   50.1180 C   0  0  0  0  0  0
   70.0630   19.7820   48.8780 N   0  0  0  0  0  0
   71.4120   20.1790   48.5970 C   0  0  2  0  0  0
   72.2940   19.0040   48.2820 C   0  0  0  0  0  0
   73.4410   19.1790   47.9830 O   0  0  0  0  0  0
   72.0380   20.9280   49.7320 C   0  0  2  0  0  0
   72.0700   22.3130   49.4110 O   0  0  0  0  0  0
   73.4260   20.4300   49.9110 C   0  0  0  0  0  0
   71.7570   17.7980   48.3380 N   0  0  0  0  0  0
   72.5420   16.6200   48.0240 C   0  0  2  0  0  0
   72.0000   15.7360   46.9220 C   0  0  0  0  0  0
   72.5900   15.6540   45.8510 O   0  0  0  0  0  0
   72.7720   15.7980   49.2710 C   0  0  0  0  0  0
   73.8860   16.3370   50.0930 C   0  0  0  0  0  0
   75.0250   16.3250   49.6650 O   0  0  0  0  0  0
   73.5800   16.7800   51.2930 N   0  0  0  0  0  0
   70.8570   15.4820   47.3240 O   0  5  0  0  0  0
   66.6562   24.3023   55.6981 H   0  0  0  0  0  0
   67.2539   25.6760   56.6893 H   0  0  0  0  0  0
   66.6590   24.1823   57.4904 H   0  0  0  0  0  0
   69.0481   24.4765   55.7185 H   0  0  0  0  0  0
   68.7217   25.0836   58.4477 H   0  0  0  0  0  0
   69.5214   23.4756   58.4081 H   0  0  0  0  0  0
   71.2273   25.3295   58.3207 H   0  0  0  0  0  0
   66.9498   22.3790   57.9151 H   0  0  0  0  0  0
   68.2467   20.0158   56.9345 H   0  0  0  0  0  0
   65.4505   20.5386   57.9336 H   0  0  0  0  0  0
   67.3670   20.2810   59.5495 H   0  0  0  0  0  0
   65.2920   18.8654   56.1334 H   0  0  0  0  0  0
   65.0964   18.1181   57.7552 H   0  0  0  0  0  0
   66.6541   17.9589   56.8749 H   0  0  0  0  0  0
   65.5295   22.0592   55.7593 H   0  0  0  0  0  0
   64.6733   20.2635   53.6321 H   0  0  0  0  0  0
   63.7055   22.5232   54.5466 H   0  0  0  0  0  0
   64.8808   23.3076   53.4375 H   0  0  0  0  0  0
   62.2759   22.7621   52.8689 H   0  0  0  0  0  0
   63.7435   24.3029   51.7703 H   0  0  0  0  0  0
   62.9061   23.2174   50.6095 H   0  0  0  0  0  0
   64.6319   22.9340   51.0194 H   0  0  0  0  0  0
   62.8312   20.3701   52.8924 H   0  0  0  0  0  0
   64.1076   20.6763   51.6661 H   0  0  0  0  0  0
   62.3818   20.9597   51.2562 H   0  0  0  0  0  0
   67.8388   22.7574   51.1942 H   0  0  0  0  0  0
   68.5643   24.7124   52.2181 H   0  0  0  0  0  0
   69.0055   23.8719   53.7431 H   0  0  0  0  0  0
   71.0972   23.6761   53.1309 H   0  0  0  0  0  0
   70.6553   23.0458   51.5079 H   0  0  0  0  0  0
   71.9199   25.2731   51.6733 H   0  0  0  0  0  0
   70.4874   25.1703   50.5944 H   0  0  0  0  0  0
   69.9937   26.1543   53.4181 H   0  0  0  0  0  0
   70.5908   26.7394   49.8970 H   0  0  0  0  0  0
   69.1638   28.2140   53.5394 H   0  0  0  0  0  0
   69.0725   29.2958   51.9737 H   0  0  0  0  0  0
   68.9398   21.0049   54.1599 H   0  0  0  0  0  0
   71.3004   20.0713   52.7917 H   0  0  0  0  0  0
   70.8917   19.8704   55.1704 H   0  0  0  0  0  0
   71.2659   18.2717   54.4418 H   0  0  0  0  0  0
   69.5698   18.6961   54.8536 H   0  0  0  0  0  0
   67.9325   18.8519   52.9783 H   0  0  0  0  0  0
   68.6376   16.3523   51.7125 H   0  0  0  0  0  0
   66.0894   18.0198   51.9707 H   0  0  0  0  0  0
   66.0636   16.4957   51.0203 H   0  0  0  0  0  0
   67.0091   16.3405   53.8468 H   0  0  0  0  0  0
   65.0988   17.8746   53.8571 H   0  0  0  0  0  0
   64.6653   16.2565   54.5056 H   0  0  0  0  0  0
   64.1756   16.7171   52.8398 H   0  0  0  0  0  0
   66.9830   14.4340   52.3516 H   0  0  0  0  0  0
   65.2539   14.7455   51.9776 H   0  0  0  0  0  0
   65.7436   14.2849   53.6433 H   0  0  0  0  0  0
   67.6330   19.5512   50.3508 H   0  0  0  0  0  0
   67.7039   18.0598   47.7308 H   0  0  0  0  0  0
   67.0160   20.3726   46.8153 H   0  0  0  0  0  0
   65.8318   19.4471   47.7990 H   0  0  0  0  0  0
   67.3725   21.9063   48.5679 H   0  0  0  0  0  0
   65.4876   22.1502   47.0635 H   0  0  0  0  0  0
   65.1792   22.8472   48.6900 H   0  0  0  0  0  0
   64.4498   21.2697   48.2359 H   0  0  0  0  0  0
   66.4489   19.8935   49.6252 H   0  0  0  0  0  0
   65.3894   21.3285   49.8373 H   0  0  0  0  0  0
   69.7143   19.7173   49.9193 H   0  0  0  0  0  0
   71.2856   20.8332   47.7218 H   0  0  0  0  0  0
   71.4596   20.8275   50.6622 H   0  0  0  0  0  0
   71.1309   22.8600   49.2410 H   0  0  0  0  0  0
   73.4020   19.3587   50.1593 H   0  0  0  0  0  0
   73.9122   20.9848   50.7270 H   0  0  0  0  0  0
   73.9916   20.5778   48.9792 H   0  0  0  0  0  0
   70.7008   17.6941   48.6272 H   0  0  0  0  0  0
   73.4694   17.0664   47.6359 H   0  0  0  0  0  0
   71.8592   15.7998   49.8848 H   0  0  0  0  0  0
   73.0216   14.7647   48.9882 H   0  0  0  0  0  0
   72.5339   16.7695   51.6330 H   0  0  0  0  0  0
   74.3702   17.1610   51.9567 H   0  0  0  0  0  0
   69.8500   28.4923   49.9895 H   0  0  0  0  0  0
  1  2  1  0  0  0
  1 70  1  0  0  0
  1 71  1  0  0  0
  1 72  1  0  0  0
  2  3  1  0  0  0
  2  5  1  0  0  0
  2 73  1  0  0  0
  3  4  2  0  0  0
  3  7  1  0  0  0
  5  6  1  0  0  0
  5 74  1  0  0  0
  5 75  1  0  0  0
  6 76  1  0  0  0
  7  8  1  0  0  0
  7 77  1  0  0  0
  8  9  1  0  0  0
  8 11  1  0  0  0
  8 78  1  0  0  0
  9 10  2  0  0  0
  9 14  1  0  0  0
 11 12  1  0  0  0
 11 13  1  0  0  0
 11 79  1  0  0  0
 12 80  1  0  0  0
 13 81  1  0  0  0
 13 82  1  0  0  0
 13 83  1  0  0  0
 14 15  1  0  0  0
 14 84  1  0  0  0
 15 16  1  0  0  0
 15 18  1  0  0  0
 15 85  1  0  0  0
 16 17  1  0  0  0
 16 22  2  0  0  0
 17 53  1  0  0  0
 18 19  1  0  0  0
 18 86  1  0  0  0
 18 87  1  0  0  0
 19 20  1  0  0  0
 19 21  1  0  0  0
 19 88  1  0  0  0
 20 89  1  0  0  0
 20 90  1  0  0  0
 20 91  1  0  0  0
 21 92  1  0  0  0
 21 93  1  0  0  0
 21 94  1  0  0  0
 22 23  1  0  0  0
 23 24  1  0  0  0
 23 26  1  0  0  0
 23 95  1  0  0  0
 24 25  2  0  0  0
 24 33  1  0  0  0
 26 27  1  0  0  0
 26 96  1  0  0  0
 26 97  1  0  0  0
 27 28  1  0  0  0
 27 98  1  0  0  0
 27 99  1  0  0  0
 28 29  1  0  0  0
 28100  1  0  0  0
 28101  1  0  0  0
 29 30  1  0  0  0
 29102  1  0  0  0
 30 31  2  0  0  0
 30 32  1  0  0  0
 31103  1  0  0  0
 31145  1  0  0  0
 32104  1  0  0  0
 32105  1  0  0  0
 33 34  1  0  0  0
 33106  1  0  0  0
 34 35  1  0  0  0
 34 37  1  0  0  0
 34107  1  0  0  0
 35 36  2  0  0  0
 35 38  1  0  0  0
 37108  1  0  0  0
 37109  1  0  0  0
 37110  1  0  0  0
 38 39  1  0  0  0
 38111  1  0  0  0
 39 40  1  0  0  0
 39 42  1  0  0  0
 39112  1  0  0  0
 40 41  2  0  0  0
 40 46  1  0  0  0
 42 43  1  0  0  0
 42113  1  0  0  0
 42114  1  0  0  0
 43 44  1  0  0  0
 43 45  1  0  0  0
 43115  1  0  0  0
 44116  1  0  0  0
 44117  1  0  0  0
 44118  1  0  0  0
 45119  1  0  0  0
 45120  1  0  0  0
 45121  1  0  0  0
 46 47  1  0  0  0
 46122  1  0  0  0
 47 48  1  0  0  0
 47 50  1  0  0  0
 47123  1  0  0  0
 48 49  2  0  0  0
 48 54  1  0  0  0
 50 51  1  0  0  0
 50124  1  0  0  0
 50125  1  0  0  0
 51 52  1  0  0  0
 51 53  1  0  0  0
 51126  1  0  0  0
 52127  1  0  0  0
 52128  1  0  0  0
 52129  1  0  0  0
 53130  1  0  0  0
 53131  1  0  0  0
 54 55  1  0  0  0
 54132  1  0  0  0
 55 56  1  0  0  0
 55 58  1  0  0  0
 55133  1  0  0  0
 56 57  2  0  0  0
 56 61  1  0  0  0
 58 59  1  0  0  0
 58 60  1  0  0  0
 58134  1  0  0  0
 59135  1  0  0  0
 60136  1  0  0  0
 60137  1  0  0  0
 60138  1  0  0  0
 61 62  1  0  0  0
 61139  1  0  0  0
 62 63  1  0  0  0
 62 65  1  0  0  0
 62140  1  0  0  0
 63 64  2  0  0  0
 63 69  1  0  0  0
 65 66  1  0  0  0
 65141  1  0  0  0
 65142  1  0  0  0
 66 67  2  0  0  0
 66 68  1  0  0  0
 68143  1  0  0  0
 68144  1  0  0  0
M  CHG  3   1   1  31   1  69  -1
M  END
> <s_m_source_file>
../2xhs_ligand.sdf

> <i_m_source_file_index>
1

> <s_epik_input>
W09IXVtDSDJdW0NASF0oW05IMytdKUMoPU8pW05IXVtDQEBIXShbQ0BIXShbT0hdKVtDSDNdKUMoPU8pW05IXVtDQEBIXShbQ0gyXVtDSF0oW0NIM10pW0NIM10pL0MxPU4vW0NAQEhdKFtDSDJdW0NIMl1bQ0gyXVtOSF0vQyg9TlxbSF0pW05IMl0pQyg9TylbTkhdW0NAQEhdKFtDSDNdKUMoPU8pW05IXVtDQEBIXShbQ0gyXVtDSF0oW0NIM10pW0NIM10pQyg9TylbTkhdW0NAQEhdKFtDSDJdW0NAQEhdKFtDSDNdKVtDSDJdTzEpQyg9TylbTkhdW0NAQEhdKFtDQEhdKFtPSF0pW0NIM10pQyg9TylbTkhdW0NASF0oQyg9TylbT0hdKVtDSDJdQyg9TylbTkgyXQ==

> <s_epik_cmdline>
J2VwaWtfYXBwJywgJy1pbWFlJywgJ2xpZ2FuZF9wcm8ubWFlJywgJy1vbWFlJywgJ2xpZ2FuZF9wcmVwLm1hZScsICctbXMnLCAnMScsICctcGgnLCAnNycsICctcGh0JywgJzAuNScsICctbnQn

> <r_lp_tautomer_probability>
0.999202636296236

> <r_epik_Ionization_Penalty>
  0.1501

> <r_epik_Ionization_Penalty_Charging>
  0.1500

> <r_epik_Ionization_Penalty_Neutral>
  0.0000

> <r_epik_State_Penalty>
  0.1392

> <r_epik_Charging_Adjusted_Penalty>
0.289205642629874

> <i_epik_Tot_Q>
1

> <i_epik_Tot_abs_Q>
3

> <s_epik_Chemistry_Notes>
This compound has an imine and may undergo hydrolysis.

$$$$
