2xhx_ligand
                    3D
 Schrodinger Suite 2020-3.
 43 45  0  0  1  0            999 V2000
   14.4960    0.2930   10.6960 C   0  0  0  0  0  0
   14.2290   -0.4780    9.4040 C   0  0  0  0  0  0
   12.8260   -0.1170    8.9130 C   0  0  0  0  0  0
   14.3500   -1.9990    9.6510 C   0  0  0  0  0  0
   15.3730   -2.7250    9.0530 C   0  0  0  0  0  0
   15.5160   -4.0870    9.2550 C   0  0  0  0  0  0
   16.6230   -4.8290    8.5900 C   0  0  0  0  0  0
   17.3400   -5.5640    9.2570 O   0  0  0  0  0  0
   16.7870   -4.6610    7.2330 N   0  0  0  0  0  0
   18.0480   -4.9270    6.5190 C   0  0  0  0  0  0
   17.5620   -5.3820    5.1710 C   0  0  0  0  0  0
   18.2620   -5.9570    4.1200 C   0  0  0  0  0  0
   17.6030   -6.3020    2.9620 C   0  0  0  0  0  0
   16.2430   -6.0740    2.8420 C   0  0  0  0  0  0
   15.5420   -5.5010    3.8810 C   0  0  0  0  0  0
   16.1960   -5.1520    5.0490 C   0  0  0  0  0  0
   15.6570   -4.5210    6.3000 C   0  0  0  0  0  0
   14.6250   -4.7510   10.0720 C   0  0  0  0  0  0
   13.6060   -4.0690   10.6810 C   0  0  0  0  0  0
   15.2390   -0.0040    8.3530 C   0  0  0  0  0  0
   13.4570   -2.7080   10.4840 C   0  0  0  0  0  0
   12.4260   -2.0770   11.1130 O   0  0  0  0  0  0
   13.7828   -0.0289   11.4691 H   0  0  0  0  0  0
   14.3751    1.3707   10.5115 H   0  0  0  0  0  0
   15.5222    0.0923   11.0373 H   0  0  0  0  0  0
   12.0822   -0.4481    9.6527 H   0  0  0  0  0  0
   12.6343   -0.6159    7.9516 H   0  0  0  0  0  0
   12.7526    0.9727    8.7817 H   0  0  0  0  0  0
   16.0824   -2.2077    8.4070 H   0  0  0  0  0  0
   18.6438   -4.0036    6.4707 H   0  0  0  0  0  0
   18.6159   -5.7023    7.0542 H   0  0  0  0  0  0
   19.3334   -6.1354    4.2114 H   0  0  0  0  0  0
   18.1532   -6.7557    2.1377 H   0  0  0  0  0  0
   15.7250   -6.3485    1.9231 H   0  0  0  0  0  0
   14.4712   -5.3226    3.7824 H   0  0  0  0  0  0
   14.7807   -5.0495    6.7035 H   0  0  0  0  0  0
   15.4161   -3.4552    6.1732 H   0  0  0  0  0  0
   14.7326   -5.8236   10.2335 H   0  0  0  0  0  0
   12.9072   -4.6022   11.3256 H   0  0  0  0  0  0
   15.1279    1.0797    8.2002 H   0  0  0  0  0  0
   15.0544   -0.5289    7.4041 H   0  0  0  0  0  0
   16.2595   -0.2226    8.7005 H   0  0  0  0  0  0
   12.2788   -0.9953   10.9780 H   0  0  0  0  0  0
  1  2  1  0  0  0
  1 23  1  0  0  0
  1 24  1  0  0  0
  1 25  1  0  0  0
  2  3  1  0  0  0
  2  4  1  0  0  0
  2 20  1  0  0  0
  3 26  1  0  0  0
  3 27  1  0  0  0
  3 28  1  0  0  0
  4  5  2  0  0  0
  4 21  1  0  0  0
  5  6  1  0  0  0
  5 29  1  0  0  0
  6  7  1  0  0  0
  6 18  2  0  0  0
  7  8  2  0  0  0
  7  9  1  0  0  0
  9 10  1  0  0  0
  9 17  1  0  0  0
 10 11  1  0  0  0
 10 30  1  0  0  0
 10 31  1  0  0  0
 11 12  2  0  0  0
 11 16  1  0  0  0
 12 13  1  0  0  0
 12 32  1  0  0  0
 13 14  2  0  0  0
 13 33  1  0  0  0
 14 15  1  0  0  0
 14 34  1  0  0  0
 15 16  2  0  0  0
 15 35  1  0  0  0
 16 17  1  0  0  0
 17 36  1  0  0  0
 17 37  1  0  0  0
 18 19  1  0  0  0
 18 38  1  0  0  0
 19 21  2  0  0  0
 19 39  1  0  0  0
 20 40  1  0  0  0
 20 41  1  0  0  0
 20 42  1  0  0  0
 21 22  1  0  0  0
 22 43  1  0  0  0
M  END
> <s_m_source_file>
../2xhx_ligand.sdf

> <i_m_source_file_index>
1

> <s_epik_input>
W0NIM11DKFtDSDNdKShbQ0gzXSljMVtjSF1jKFtjSF1bY0hdYzFbT0hdKUMoPU8pTihbQ0gyXTIpW0NIMl1jKGMyMylbY0hdW2NIXVtjSF1bY0hdMw==

> <s_epik_cmdline>
J2VwaWtfYXBwJywgJy1pbWFlJywgJ2xpZ2FuZF9wcm8ubWFlJywgJy1vbWFlJywgJ2xpZ2FuZF9wcmVwLm1hZScsICctbXMnLCAnMScsICctcGgnLCAnNycsICctcGh0JywgJzAuNScsICctbnQn

> <r_lp_tautomer_probability>
1

> <r_epik_Ionization_Penalty>
  0.0009

> <r_epik_Ionization_Penalty_Charging>
  0.0000

> <r_epik_Ionization_Penalty_Neutral>
  0.0009

> <r_epik_State_Penalty>
 -0.0000

> <r_epik_Charging_Adjusted_Penalty>
0

> <i_epik_Tot_Q>
0

> <i_epik_Tot_abs_Q>
0

$$$$
