2xiy_ligand
                    3D
 Schrodinger Suite 2020-3.
 19 20  0  0  1  0            999 V2000
  -21.9660  -35.2900   -1.5910 N   0  0  0  0  0  0
  -21.7560  -34.1650   -0.8950 C   0  0  0  0  0  0
  -22.0720  -34.3720    0.3940 N   0  3  0  0  0  0
  -22.4830  -35.6380    0.5190 C   0  0  0  0  0  0
  -22.9250  -36.3780    1.6130 C   0  0  0  0  0  0
  -23.2990  -37.7180    1.4430 C   0  0  0  0  0  0
  -23.2270  -38.3010    0.1740 C   0  0  0  0  0  0
  -22.7810  -37.5490   -0.9240 C   0  0  0  0  0  0
  -22.4060  -36.2210   -0.7480 C   0  0  0  0  0  0
  -21.2430  -32.8410   -1.4610 C   0  0  0  0  0  0
  -20.9960  -31.9200   -0.3980 O   0  0  0  0  0  0
  -22.9799  -35.9162    2.5988 H   0  0  0  0  0  0
  -23.6442  -38.3027    2.2956 H   0  0  0  0  0  0
  -23.5181  -39.3425    0.0371 H   0  0  0  0  0  0
  -22.7286  -38.0047   -1.9128 H   0  0  0  0  0  0
  -20.3080  -33.0161   -2.0134 H   0  0  0  0  0  0
  -21.9964  -32.4163   -2.1407 H   0  0  0  0  0  0
  -20.6205  -30.9104   -0.6211 H   0  0  0  0  0  0
  -21.9661  -33.5561    1.1241 H   0  0  0  0  0  0
  1  2  2  0  0  0
  1  9  1  0  0  0
  2  3  1  0  0  0
  2 10  1  0  0  0
  3  4  1  0  0  0
  3 19  1  0  0  0
  4  5  1  0  0  0
  4  9  2  0  0  0
  5  6  2  0  0  0
  5 12  1  0  0  0
  6  7  1  0  0  0
  6 13  1  0  0  0
  7  8  2  0  0  0
  7 14  1  0  0  0
  8  9  1  0  0  0
  8 15  1  0  0  0
 10 11  1  0  0  0
 10 16  1  0  0  0
 10 17  1  0  0  0
 11 18  1  0  0  0
M  CHG  1   3   1
M  END
> <s_m_source_file>
../2xiy_ligand.sdf

> <i_m_source_file_index>
1

> <s_epik_input>
W09IXVtDSDJdYyhbbkhdMSluYyhjMTIpW2NIXVtjSF1bY0hdW2NIXTI=

> <s_epik_cmdline>
J2VwaWtfYXBwJywgJy1pbWFlJywgJ2xpZ2FuZF9wcm8ubWFlJywgJy1vbWFlJywgJ2xpZ2FuZF9wcmVwLm1hZScsICctbXMnLCAnMScsICctcGgnLCAnNycsICctcGh0JywgJzAuNScsICctbnQn

> <r_epik_Ionization_Penalty>
  0.0000

> <r_epik_Ionization_Penalty_Charging>
  0.0000

> <r_epik_Ionization_Penalty_Neutral>
  0.0000

> <r_epik_State_Penalty>
  0.0001

> <r_epik_Charging_Adjusted_Penalty>
0.000122339475600422

> <i_epik_Tot_Q>
1

> <i_epik_Tot_abs_Q>
1

> <s_epik_Chemistry_Notes>
This compound has an imine and may undergo hydrolysis.

$$$$
