2xj0_ligand
                    3D
 Schrodinger Suite 2020-3.
 18 18  0  0  1  0            999 V2000
  -20.6940  -30.6910    0.5490 O   0  0  0  0  0  0
  -21.1060  -31.7060    1.1520 C   0  0  0  0  0  0
  -21.3040  -31.7570    2.3860 O   0  5  0  0  0  0
  -21.3600  -32.8470    0.4000 C   0  0  0  0  0  0
  -21.8240  -34.0020    1.0190 C   0  0  0  0  0  0
  -22.0930  -35.1700    0.3120 C   0  0  0  0  0  0
  -21.9160  -35.2600   -1.0650 C   0  0  0  0  0  0
  -22.1850  -36.3930   -1.6900 N   0  0  0  0  0  0
  -22.6330  -37.4650   -1.0180 C   0  0  0  0  0  0
  -22.9020  -38.5900   -1.6740 N   0  0  0  0  0  0
  -22.8120  -37.4040    0.3100 N   0  0  0  0  0  0
  -22.5550  -36.2960    0.9830 C   0  0  0  0  0  0
  -21.1931  -32.8347   -0.6872 H   0  0  0  0  0  0
  -21.9912  -34.0142    2.1061 H   0  0  0  0  0  0
  -21.5563  -34.3981   -1.6270 H   0  0  0  0  0  0
  -22.7553  -38.6402   -2.7630 H   0  0  0  0  0  0
  -23.2713  -39.4704   -1.1276 H   0  0  0  0  0  0
  -22.7051  -36.2653    2.0622 H   0  0  0  0  0  0
  1  2  2  0  0  0
  2  3  1  0  0  0
  2  4  1  0  0  0
  4  5  2  0  0  0
  4 13  1  0  0  0
  5  6  1  0  0  0
  5 14  1  0  0  0
  6  7  2  0  0  0
  6 12  1  0  0  0
  7  8  1  0  0  0
  7 15  1  0  0  0
  8  9  2  0  0  0
  9 10  1  0  0  0
  9 11  1  0  0  0
 10 16  1  0  0  0
 10 17  1  0  0  0
 11 12  2  0  0  0
 12 18  1  0  0  0
M  CHG  1   3  -1
M  END
> <s_m_source_file>
../2xj0_ligand.sdf

> <i_m_source_file_index>
1

> <s_epik_input>
Tz1DKFtPSF0pL1tDSF09W0NIXS9jMVtjSF1uYyhbTkgyXSluW2NIXTE=

> <s_epik_cmdline>
J2VwaWtfYXBwJywgJy1pbWFlJywgJ2xpZ2FuZF9wcm8ubWFlJywgJy1vbWFlJywgJ2xpZ2FuZF9wcmVwLm1hZScsICctbXMnLCAnMScsICctcGgnLCAnNycsICctcGh0JywgJzAuNScsICctbnQn

> <r_lp_tautomer_probability>
1

> <r_epik_Ionization_Penalty>
  0.0018

> <r_epik_Ionization_Penalty_Charging>
  0.0005

> <r_epik_Ionization_Penalty_Neutral>
  0.0014

> <r_epik_State_Penalty>
 -0.0000

> <r_epik_Charging_Adjusted_Penalty>
0.000453066406384709

> <i_epik_Tot_Q>
-1

> <i_epik_Tot_abs_Q>
1

$$$$
