2xj1_ligand
                    3D
 Schrodinger Suite 2020-3.
 47 49  0  0  1  0            999 V2000
  -20.4820  -32.1700   -4.7560 C   0  0  0  0  0  0
  -20.7090  -30.6430   -4.7420 C   0  0  0  0  0  0
  -21.6460  -30.2350   -3.5910 C   0  0  1  0  0  0
  -21.8830  -28.7740   -3.5700 N   0  3  0  0  0  0
  -22.9640  -30.9900   -3.7540 C   0  0  0  0  0  0
  -22.7710  -32.5200   -3.8110 C   0  0  0  0  0  0
  -21.8260  -32.9080   -4.9490 C   0  0  2  0  0  0
  -21.5930  -34.3680   -5.0880 N   0  0  0  0  0  0
  -22.1160  -35.4220   -4.4480 C   0  0  0  0  0  0
  -22.0800  -35.5190   -3.1030 N   0  0  0  0  0  0
  -22.6330  -36.4880   -5.1900 C   0  0  0  0  0  0
  -23.1010  -37.5650   -4.5620 N   0  0  0  0  0  0
  -23.0910  -37.6520   -3.2210 C   0  0  0  0  0  0
  -22.5510  -36.6120   -2.4530 C   0  0  0  0  0  0
  -22.5370  -36.6250   -1.0330 C   0  0  0  0  0  0
  -22.3620  -35.4140   -0.3590 C   0  0  0  0  0  0
  -22.7360  -37.7770   -0.2680 C   0  0  0  0  0  0
  -22.7450  -37.7090    1.1400 C   0  0  0  0  0  0
  -22.5590  -36.4850    1.7820 C   0  0  0  0  0  0
  -22.3470  -35.3270    1.0320 C   0  0  0  0  0  0
  -22.1900  -34.0870    1.6650 C   0  0  0  0  0  0
  -21.4830  -32.9920    1.1620 C   0  0  0  0  0  0
  -21.4240  -31.7880    1.8820 C   0  0  0  0  0  0
  -20.7680  -30.8650    1.3760 O   0  0  0  0  0  0
  -22.0350  -31.6700    2.9760 O   0  5  0  0  0  0
  -19.8053  -32.4325   -5.5826 H   0  0  0  0  0  0
  -20.0335  -32.4828   -3.8015 H   0  0  0  0  0  0
  -19.7448  -30.1302   -4.6105 H   0  0  0  0  0  0
  -21.1633  -30.3311   -5.6940 H   0  0  0  0  0  0
  -21.1816  -30.4589   -2.6193 H   0  0  0  0  0  0
  -20.9238  -28.2486   -3.4521 H   0  0  0  0  0  0
  -22.5450  -28.5220   -2.7284 H   0  0  0  0  0  0
  -22.3564  -28.4657   -4.5139 H   0  0  0  0  0  0
  -23.6231  -30.7651   -2.9025 H   0  0  0  0  0  0
  -23.4527  -30.6771   -4.6885 H   0  0  0  0  0  0
  -22.3432  -32.8712   -2.8604 H   0  0  0  0  0  0
  -23.7435  -33.0063   -3.9773 H   0  0  0  0  0  0
  -22.3262  -32.6437   -5.8924 H   0  0  0  0  0  0
  -20.8730  -34.7418   -5.8309 H   0  0  0  0  0  0
  -22.6530  -36.4378   -6.2787 H   0  0  0  0  0  0
  -23.5037  -38.5332   -2.7299 H   0  0  0  0  0  0
  -22.2323  -34.5028   -0.9429 H   0  0  0  0  0  0
  -22.8855  -38.7361   -0.7639 H   0  0  0  0  0  0
  -22.8975  -38.6142    1.7277 H   0  0  0  0  0  0
  -22.5792  -36.4326    2.8706 H   0  0  0  0  0  0
  -22.6866  -34.0183    2.6441 H   0  0  0  0  0  0
  -20.9663  -33.0686    0.1939 H   0  0  0  0  0  0
  1  2  1  0  0  0
  1  7  1  0  0  0
  1 26  1  0  0  0
  1 27  1  0  0  0
  2  3  1  0  0  0
  2 28  1  0  0  0
  2 29  1  0  0  0
  3  4  1  0  0  0
  3  5  1  0  0  0
  3 30  1  0  0  0
  4 31  1  0  0  0
  4 32  1  0  0  0
  4 33  1  0  0  0
  5  6  1  0  0  0
  5 34  1  0  0  0
  5 35  1  0  0  0
  6  7  1  0  0  0
  6 36  1  0  0  0
  6 37  1  0  0  0
  7  8  1  0  0  0
  7 38  1  0  0  0
  8  9  1  0  0  0
  8 39  1  0  0  0
  9 10  2  0  0  0
  9 11  1  0  0  0
 10 14  1  0  0  0
 11 12  2  0  0  0
 11 40  1  0  0  0
 12 13  1  0  0  0
 13 14  2  0  0  0
 13 41  1  0  0  0
 14 15  1  0  0  0
 15 16  2  0  0  0
 15 17  1  0  0  0
 16 20  1  0  0  0
 16 42  1  0  0  0
 17 18  2  0  0  0
 17 43  1  0  0  0
 18 19  1  0  0  0
 18 44  1  0  0  0
 19 20  2  0  0  0
 19 45  1  0  0  0
 20 21  1  0  0  0
 21 22  2  0  0  0
 21 46  1  0  0  0
 22 23  1  0  0  0
 22 47  1  0  0  0
 23 24  2  0  0  0
 23 25  1  0  0  0
M  CHG  2   4   1  25  -1
M  END
> <s_m_source_file>
../2xj1_ligand.sdf

> <i_m_source_file_index>
1

> <s_epik_input>
W05IMytdW0NAQEhdMVtDSDJdW0NIMl1bQ0BIXShbQ0gyXVtDSDJdMSlbTkhdYzJuYyhbY0hdbltjSF0yKS1jM1tjSF1jKFtjSF1bY0hdW2NIXTMpL1tDSF09W0NIXS9DKD1PKVtPSF0=

> <s_epik_cmdline>
J2VwaWtfYXBwJywgJy1pbWFlJywgJ2xpZ2FuZF9wcm8ubWFlJywgJy1vbWFlJywgJ2xpZ2FuZF9wcmVwLm1hZScsICctbXMnLCAnMScsICctcGgnLCAnNycsICctcGh0JywgJzAuNScsICctbnQn

> <r_lp_tautomer_probability>
1

> <r_epik_Ionization_Penalty>
  0.0018

> <r_epik_Ionization_Penalty_Charging>
  0.0017

> <r_epik_Ionization_Penalty_Neutral>
  0.0002

> <r_epik_State_Penalty>
 -0.0000

> <r_epik_Charging_Adjusted_Penalty>
0.00168240060579741

> <i_epik_Tot_Q>
0

> <i_epik_Tot_abs_Q>
2

$$$$
