2xjj_ligand
                    3D
 Schrodinger Suite 2020-3.
 43 46  0  0  1  0            999 V2000
    1.6920   -1.4160   -3.0030 C   0  0  0  0  0  0
    1.8320    0.6310   -4.4200 C   0  0  0  0  0  0
    0.9010   -0.2450   -3.6030 C   0  0  0  0  0  0
    0.1700    0.5580   -2.5060 C   0  0  0  0  0  0
   -0.2540   -0.7900   -4.4180 C   0  0  0  0  0  0
   -0.2570   -1.4280   -5.6590 C   0  0  0  0  0  0
   -1.4500   -1.9410   -6.1920 C   0  0  0  0  0  0
   -1.4440   -2.5990   -7.5470 C   0  0  0  0  0  0
   -1.7630   -3.7830   -7.6510 O   0  0  0  0  0  0
   -1.1470   -1.8420   -8.6480 N   0  0  0  0  0  0
   -1.1020   -2.3880  -10.0230 C   0  0  0  0  0  0
   -1.3730   -1.1670  -10.8570 C   0  0  0  0  0  0
   -1.6260   -1.0550  -12.2170 C   0  0  0  0  0  0
   -1.8390    0.1920  -12.7830 C   0  0  0  0  0  0
   -1.8100    1.3300  -11.9910 C   0  0  0  0  0  0
   -1.5540    1.2280  -10.6340 C   0  0  0  0  0  0
   -1.3290   -0.0170  -10.0610 C   0  0  0  0  0  0
   -1.0330   -0.3760   -8.6290 C   0  0  0  0  0  0
   -2.6450   -1.8030   -5.4500 C   0  0  0  0  0  0
   -3.8150   -2.3140   -5.9390 O   0  0  0  0  0  0
   -2.6280   -1.1810   -4.1950 C   0  0  0  0  0  0
   -1.4320   -0.6870   -3.6900 C   0  0  0  0  0  0
   -1.1600   -0.0440   -2.4900 N   0  0  0  0  0  0
    2.5321   -1.0254   -2.4100 H   0  0  0  0  0  0
    2.0792   -2.0506   -3.8138 H   0  0  0  0  0  0
    1.0314   -2.0110   -2.3553 H   0  0  0  0  0  0
    2.6478    0.9966   -3.7791 H   0  0  0  0  0  0
    1.2706    1.4868   -4.8230 H   0  0  0  0  0  0
    2.2526    0.0447   -5.2503 H   0  0  0  0  0  0
    0.6999    0.4384   -1.5495 H   0  0  0  0  0  0
    0.1492    1.6223   -2.7830 H   0  0  0  0  0  0
    0.6732   -1.5287   -6.2182 H   0  0  0  0  0  0
   -0.1106   -2.8259  -10.2114 H   0  0  0  0  0  0
   -1.8730   -3.1646  -10.1346 H   0  0  0  0  0  0
   -1.6572   -1.9485  -12.8405 H   0  0  0  0  0  0
   -2.0297    0.2785  -13.8527 H   0  0  0  0  0  0
   -1.9893    2.3078  -12.4381 H   0  0  0  0  0  0
   -1.5291    2.1251  -10.0153 H   0  0  0  0  0  0
   -1.7655    0.0396   -7.9214 H   0  0  0  0  0  0
   -0.0179   -0.0912   -8.3154 H   0  0  0  0  0  0
   -3.8323   -2.8032   -6.9241 H   0  0  0  0  0  0
   -3.5479   -1.0852   -3.6181 H   0  0  0  0  0  0
   -1.7958    0.0506   -1.5974 H   0  0  0  0  0  0
  1  3  1  0  0  0
  1 24  1  0  0  0
  1 25  1  0  0  0
  1 26  1  0  0  0
  2  3  1  0  0  0
  2 27  1  0  0  0
  2 28  1  0  0  0
  2 29  1  0  0  0
  3  4  1  0  0  0
  3  5  1  0  0  0
  4 23  1  0  0  0
  4 30  1  0  0  0
  4 31  1  0  0  0
  5  6  2  0  0  0
  5 22  1  0  0  0
  6  7  1  0  0  0
  6 32  1  0  0  0
  7  8  1  0  0  0
  7 19  2  0  0  0
  8  9  2  0  0  0
  8 10  1  0  0  0
 10 11  1  0  0  0
 10 18  1  0  0  0
 11 12  1  0  0  0
 11 33  1  0  0  0
 11 34  1  0  0  0
 12 13  2  0  0  0
 12 17  1  0  0  0
 13 14  1  0  0  0
 13 35  1  0  0  0
 14 15  2  0  0  0
 14 36  1  0  0  0
 15 16  1  0  0  0
 15 37  1  0  0  0
 16 17  2  0  0  0
 16 38  1  0  0  0
 17 18  1  0  0  0
 18 39  1  0  0  0
 18 40  1  0  0  0
 19 20  1  0  0  0
 19 21  1  0  0  0
 20 41  1  0  0  0
 21 22  2  0  0  0
 21 42  1  0  0  0
 22 23  1  0  0  0
 23 43  1  0  0  0
M  END
> <s_m_source_file>
../2xjj_ligand.sdf

> <i_m_source_file_index>
1

> <s_epik_input>
W0NIM11DMShbQ0gzXSlbQ0gyXVtOSF1jKGMxMilbY0hdYyhbT0hdKWMoW2NIXTIpQyg9TylOKFtDSDJdMylbQ0gyXWMoYzM0KVtjSF1bY0hdW2NIXVtjSF00

> <s_epik_cmdline>
J2VwaWtfYXBwJywgJy1pbWFlJywgJ2xpZ2FuZF9wcm8ubWFlJywgJy1vbWFlJywgJ2xpZ2FuZF9wcmVwLm1hZScsICctbXMnLCAnMScsICctcGgnLCAnNycsICctcGh0JywgJzAuNScsICctbnQn

> <r_lp_tautomer_probability>
1

> <r_epik_Ionization_Penalty>
  0.0120

> <r_epik_Ionization_Penalty_Charging>
  0.0000

> <r_epik_Ionization_Penalty_Neutral>
  0.0120

> <r_epik_State_Penalty>
 -0.0000

> <r_epik_Charging_Adjusted_Penalty>
0

> <i_epik_Tot_Q>
0

> <i_epik_Tot_abs_Q>
0

$$$$
