2xjx_ligand
                    3D
 Schrodinger Suite 2020-3.
 62 65  0  0  1  0            999 V2000
   13.7900    0.2930   10.8000 C   0  0  0  0  0  0
   13.0970   -0.4090    9.6270 C   0  0  0  0  0  0
   13.5650    0.1830    8.3020 C   0  0  0  0  0  0
   13.2800   -1.9250    9.7160 C   0  0  0  0  0  0
   14.3780   -2.5560    9.1330 C   0  0  0  0  0  0
   14.5930   -3.9280    9.2840 C   0  0  0  0  0  0
   15.7630   -4.5690    8.6230 C   0  0  0  0  0  0
   16.6840   -4.9850    9.2970 O   0  0  0  0  0  0
   15.7930   -4.5970    7.2830 N   0  0  0  0  0  0
   16.8820   -5.2180    6.5150 C   0  0  0  0  0  0
   16.2660   -5.3750    5.1530 C   0  0  0  0  0  0
   16.7890   -5.9840    4.0190 C   0  0  0  0  0  0
   16.0530   -6.0150    2.8480 C   0  0  0  0  0  0
   14.7880   -5.4370    2.7930 C   0  0  0  0  0  0
   13.9870   -5.4480    1.5140 C   0  0  0  0  0  0
   14.2970   -4.2660    0.6280 N   0  3  1  0  0  0
   14.3080   -2.9860    1.4120 C   0  0  0  0  0  0
   14.6380   -1.7950    0.5240 C   0  0  0  0  0  0
   15.9580   -2.0120   -0.1410 N   0  0  2  0  0  0
   16.3690   -0.8250   -0.9480 C   0  0  0  0  0  0
   15.9120   -3.2530   -0.9730 C   0  0  0  0  0  0
   15.5990   -4.4530   -0.0930 C   0  0  0  0  0  0
   14.2820   -4.8340    3.9410 C   0  0  0  0  0  0
   15.0190   -4.8100    5.1120 C   0  0  0  0  0  0
   14.6670   -4.1830    6.4330 C   0  0  0  0  0  0
   13.7150   -4.6850   10.0390 C   0  0  0  0  0  0
   13.9370   -6.0300   10.1850 O   0  0  0  0  0  0
   12.6260   -4.0730   10.6590 C   0  0  0  0  0  0
   12.4170   -2.7110   10.5120 C   0  0  0  0  0  0
   11.3200   -2.1630   11.1170 O   0  0  0  0  0  0
   13.6448    1.3800   10.7143 H   0  0  0  0  0  0
   14.8657    0.0641   10.7805 H   0  0  0  0  0  0
   13.3568   -0.0613   11.7470 H   0  0  0  0  0  0
   12.0129   -0.2299    9.6778 H   0  0  0  0  0  0
   13.4039    1.2711    8.3093 H   0  0  0  0  0  0
   12.9931   -0.2668    7.4771 H   0  0  0  0  0  0
   14.6357   -0.0282    8.1638 H   0  0  0  0  0  0
   15.0833   -1.9666    8.5472 H   0  0  0  0  0  0
   17.7570   -4.5514    6.5149 H   0  0  0  0  0  0
   17.1535   -6.1794    6.9755 H   0  0  0  0  0  0
   17.7796   -6.4375    4.0520 H   0  0  0  0  0  0
   16.4669   -6.4958    1.9616 H   0  0  0  0  0  0
   14.2125   -6.3639    0.9480 H   0  0  0  0  0  0
   12.9137   -5.4197    1.7533 H   0  0  0  0  0  0
   13.4996   -4.1952   -0.1264 H   0  0  0  0  0  0
   13.3174   -2.8228    1.8615 H   0  0  0  0  0  0
   15.0655   -3.0495    2.2071 H   0  0  0  0  0  0
   13.8578   -1.6823   -0.2432 H   0  0  0  0  0  0
   14.6843   -0.8825    1.1366 H   0  0  0  0  0  0
   16.3914    0.0664   -0.3038 H   0  0  0  0  0  0
   15.6484   -0.6694   -1.7644 H   0  0  0  0  0  0
   17.3700   -0.9975   -1.3703 H   0  0  0  0  0  0
   15.1303   -3.1513   -1.7402 H   0  0  0  0  0  0
   16.8865   -3.4041   -1.4603 H   0  0  0  0  0  0
   16.4101   -4.5738    0.6402 H   0  0  0  0  0  0
   15.5414   -5.3499   -0.7272 H   0  0  0  0  0  0
   13.2935   -4.3753    3.9173 H   0  0  0  0  0  0
   13.7276   -4.5695    6.8550 H   0  0  0  0  0  0
   14.6249   -3.0847    6.3894 H   0  0  0  0  0  0
   14.7993   -6.5019    9.6913 H   0  0  0  0  0  0
   11.9379   -4.6671   11.2604 H   0  0  0  0  0  0
   11.1209   -1.0853   11.0228 H   0  0  0  0  0  0
  1  2  1  0  0  0
  1 31  1  0  0  0
  1 32  1  0  0  0
  1 33  1  0  0  0
  2  3  1  0  0  0
  2  4  1  0  0  0
  2 34  1  0  0  0
  3 35  1  0  0  0
  3 36  1  0  0  0
  3 37  1  0  0  0
  4  5  2  0  0  0
  4 29  1  0  0  0
  5  6  1  0  0  0
  5 38  1  0  0  0
  6  7  1  0  0  0
  6 26  2  0  0  0
  7  8  2  0  0  0
  7  9  1  0  0  0
  9 10  1  0  0  0
  9 25  1  0  0  0
 10 11  1  0  0  0
 10 39  1  0  0  0
 10 40  1  0  0  0
 11 12  2  0  0  0
 11 24  1  0  0  0
 12 13  1  0  0  0
 12 41  1  0  0  0
 13 14  2  0  0  0
 13 42  1  0  0  0
 14 15  1  0  0  0
 14 23  1  0  0  0
 15 16  1  0  0  0
 15 43  1  0  0  0
 15 44  1  0  0  0
 16 17  1  0  0  0
 16 22  1  0  0  0
 16 45  1  0  0  0
 17 18  1  0  0  0
 17 46  1  0  0  0
 17 47  1  0  0  0
 18 19  1  0  0  0
 18 48  1  0  0  0
 18 49  1  0  0  0
 19 20  1  0  0  0
 19 21  1  0  0  0
 20 50  1  0  0  0
 20 51  1  0  0  0
 20 52  1  0  0  0
 21 22  1  0  0  0
 21 53  1  0  0  0
 21 54  1  0  0  0
 22 55  1  0  0  0
 22 56  1  0  0  0
 23 24  2  0  0  0
 23 57  1  0  0  0
 24 25  1  0  0  0
 25 58  1  0  0  0
 25 59  1  0  0  0
 26 27  1  0  0  0
 26 28  1  0  0  0
 27 60  1  0  0  0
 28 29  2  0  0  0
 28 61  1  0  0  0
 29 30  1  0  0  0
 30 62  1  0  0  0
M  CHG  1  16   1
M  END
> <s_m_source_file>
../2xjx_ligand.sdf

> <i_m_source_file_index>
1

> <s_epik_input>
W0NIM11bQ0hdKFtDSDNdKWMxW2NIXWMoYyhbT0hdKVtjSF1jMVtPSF0pQyg9TylOKFtDSDJdMilbQ0gyXWMoYzIzKVtjSF1jKFtjSF1bY0hdMylbQ0gyXVtOQEgrXTRbQ0gyXVtDSDJdW05ASCtdKFtDSDNdKVtDSDJdW0NIMl00

> <s_epik_cmdline>
J2VwaWtfYXBwJywgJy1pbWFlJywgJ2xpZ2FuZF9wcm8ubWFlJywgJy1vbWFlJywgJ2xpZ2FuZF9wcmVwLm1hZScsICctbXMnLCAnMScsICctcGgnLCAnNycsICctcGh0JywgJzAuNScsICctbnQn

> <r_lp_tautomer_probability>
1

> <r_epik_Ionization_Penalty>
  0.1208

> <r_epik_Ionization_Penalty_Charging>
  0.0155

> <r_epik_Ionization_Penalty_Neutral>
  0.1054

> <r_epik_State_Penalty>
 -0.0000

> <r_epik_Charging_Adjusted_Penalty>
0.0154526225118262

> <i_epik_Tot_Q>
1

> <i_epik_Tot_abs_Q>
1

$$$$
