2xk1_ligand
                    3D
 Schrodinger Suite 2020-3.
 39 40  0  0  1  0            999 V2000
  -26.5250   43.1340   62.3490 O   0  0  0  0  0  0
  -26.8930   42.7560   61.2440 C   0  0  0  0  0  0
  -26.8090   41.4770   60.8500 N   0  0  0  0  0  0
  -26.2390   40.4940   61.7680 C   0  0  2  0  0  0
  -24.7490   40.4360   61.4670 C   0  0  0  0  0  0
  -26.8890   39.0340   61.6290 B   0  0  0  0  0  0
  -26.9960   38.6530   60.1420 O   0  0  0  0  0  0
  -28.2780   39.0490   62.2880 O   0  0  0  0  0  0
  -27.4350   43.7810   60.3000 C   0  0  0  0  0  0
  -28.6320   44.4570   60.5540 C   0  0  0  0  0  0
  -29.0800   45.4070   59.6380 C   0  0  0  0  0  0
  -28.3280   45.6750   58.4930 C   0  0  0  0  0  0
  -27.1320   45.0040   58.2430 C   0  0  0  0  0  0
  -26.6870   44.0530   59.1500 C   0  0  0  0  0  0
  -29.4560   44.1910   61.8080 C   0  0  0  0  0  0
  -30.2250   42.8840   61.7850 C   0  0  0  0  0  0
  -30.5450   42.2770   63.0000 C   0  0  0  0  0  0
  -31.2660   41.0850   63.0060 C   0  0  0  0  0  0
  -31.6630   40.4980   61.7970 C   0  0  0  0  0  0
  -31.3520   41.1020   60.5760 C   0  0  0  0  0  0
  -30.6280   42.2950   60.5770 C   0  0  0  0  0  0
  -27.1598   41.1626   59.8560 H   0  0  0  0  0  0
  -26.4391   40.8905   62.7744 H   0  0  0  0  0  0
  -24.3156   41.4422   61.5656 H   0  0  0  0  0  0
  -24.5962   40.0699   60.4410 H   0  0  0  0  0  0
  -24.2579   39.7540   62.1767 H   0  0  0  0  0  0
  -26.0890   38.5961   59.5222 H   0  0  0  0  0  0
  -28.3785   39.3030   63.3535 H   0  0  0  0  0  0
  -30.0147   45.9391   59.8151 H   0  0  0  0  0  0
  -28.6820   46.4217   57.7822 H   0  0  0  0  0  0
  -26.5534   45.2238   57.3458 H   0  0  0  0  0  0
  -25.7551   43.5183   58.9664 H   0  0  0  0  0  0
  -28.7908   44.1571   62.6835 H   0  0  0  0  0  0
  -30.1942   44.9959   61.9393 H   0  0  0  0  0  0
  -30.2325   42.7331   63.9394 H   0  0  0  0  0  0
  -31.5217   40.6083   63.9523 H   0  0  0  0  0  0
  -32.2199   39.5611   61.8092 H   0  0  0  0  0  0
  -31.6700   40.6484   59.6373 H   0  0  0  0  0  0
  -30.3734   42.7733   59.6312 H   0  0  0  0  0  0
  1  2  2  0  0  0
  2  3  1  0  0  0
  2  9  1  0  0  0
  3  4  1  0  0  0
  3 22  1  0  0  0
  4  5  1  0  0  0
  4  6  1  0  0  0
  4 23  1  0  0  0
  5 24  1  0  0  0
  5 25  1  0  0  0
  5 26  1  0  0  0
  6  7  1  0  0  0
  6  8  1  0  0  0
  7 27  1  0  0  0
  8 28  1  0  0  0
  9 10  2  0  0  0
  9 14  1  0  0  0
 10 11  1  0  0  0
 10 15  1  0  0  0
 11 12  2  0  0  0
 11 29  1  0  0  0
 12 13  1  0  0  0
 12 30  1  0  0  0
 13 14  2  0  0  0
 13 31  1  0  0  0
 14 32  1  0  0  0
 15 16  1  0  0  0
 15 33  1  0  0  0
 15 34  1  0  0  0
 16 17  2  0  0  0
 16 21  1  0  0  0
 17 18  1  0  0  0
 17 35  1  0  0  0
 18 19  2  0  0  0
 18 36  1  0  0  0
 19 20  1  0  0  0
 19 37  1  0  0  0
 20 21  2  0  0  0
 20 38  1  0  0  0
 21 39  1  0  0  0
M  END
> <s_m_source_file>
../2xk1_ligand.sdf

> <i_m_source_file_index>
1

> <s_epik_input>
W09IXUIoW09IXSlbQ0BASF0oW0NIM10pW05IXUMoPU8pYzFjKFtjSF1bY0hdW2NIXVtjSF0xKVtDSDJdYzJbY0hdW2NIXVtjSF1bY0hdW2NIXTI=

> <s_epik_cmdline>
J2VwaWtfYXBwJywgJy1pbWFlJywgJ2xpZ2FuZF9wcm8ubWFlJywgJy1vbWFlJywgJ2xpZ2FuZF9wcmVwLm1hZScsICctbXMnLCAnMScsICctcGgnLCAnNycsICctcGh0JywgJzAuNScsICctbnQn

> <r_lp_tautomer_probability>
1

> <r_epik_Ionization_Penalty>
  0.0000

> <r_epik_Ionization_Penalty_Charging>
  0.0000

> <r_epik_Ionization_Penalty_Neutral>
  0.0000

> <r_epik_State_Penalty>
 -0.0000

> <r_epik_Charging_Adjusted_Penalty>
0

> <i_epik_Tot_Q>
0

> <i_epik_Tot_abs_Q>
0

> <s_epik_Chemistry_Notes>
This compound contains a Lewis acid (boronic acid) which adds nucleophiles to form tetrahedral complexes, lowering the experimental pKa

$$$$
