2xk3_ligand
                    3D
 Schrodinger Suite 2020-3.
 45 47  0  0  1  0            999 V2000
   28.5480    9.0850  -24.5050 C   0  0  0  0  0  0
   28.4350    8.7300  -23.0640 C   0  0  0  0  0  0
   27.8460    9.8000  -22.2150 C   0  0  3  0  0  0
   28.0870   11.4280  -22.4020 C   0  0  0  0  0  0
   27.2800   12.1500  -21.4040 C   0  0  0  0  0  0
   26.4660   10.9920  -20.5000 S   0  0  0  0  0  0
   26.8590    9.6030  -21.0390 C   0  0  3  0  0  0
   26.3910    8.4080  -20.5080 C   0  0  0  0  0  0
   26.3700    7.2100  -21.2440 C   0  0  0  0  0  0
   25.8530    6.0730  -20.6400 N   0  0  0  0  0  0
   25.3390    6.1200  -19.3570 C   0  0  0  0  0  0
   24.7530    4.9670  -18.7640 N   0  0  0  0  0  0
   25.3340    7.3320  -18.6550 C   0  0  0  0  0  0
   24.7460    7.4870  -17.2790 C   0  0  1  0  0  0
   25.4030    8.4510  -16.2790 C   0  0  0  0  0  0
   25.0880    8.1770  -14.8190 C   0  0  0  0  0  0
   23.6030    7.9570  -14.5690 C   0  0  2  0  0  0
   23.1000    8.1160  -13.1840 C   0  0  0  0  0  0
   23.4520    9.0770  -12.5350 O   0  0  0  0  0  0
   22.4330    7.0910  -12.5650 O   0  5  0  0  0  0
   22.9760    6.9080  -15.5020 C   0  0  0  0  0  0
   23.2660    7.1700  -16.9800 C   0  0  0  0  0  0
   25.8480    8.4680  -19.2500 N   0  0  0  0  0  0
   28.9908    8.2425  -25.0565 H   0  0  0  0  0  0
   29.1886    9.9724  -24.6148 H   0  0  0  0  0  0
   27.5481    9.3024  -24.9086 H   0  0  0  0  0  0
   27.7944    7.8426  -22.9542 H   0  0  0  0  0  0
   29.4349    8.5126  -22.6604 H   0  0  0  0  0  0
   28.2593    8.8496  -22.5836 H   0  0  0  0  0  0
   28.7148   11.9878  -23.1109 H   0  0  0  0  0  0
   27.3018   13.2493  -21.3701 H   0  0  0  0  0  0
   27.7040    9.5691  -20.3355 H   0  0  0  0  0  0
   26.7508    7.1755  -22.2647 H   0  0  0  0  0  0
   24.7514    4.0101  -19.3065 H   0  0  0  0  0  0
   24.3015    5.0325  -17.7631 H   0  0  0  0  0  0
   25.2154    6.5042  -17.1252 H   0  0  0  0  0  0
   26.4969    8.3950  -16.3804 H   0  0  0  0  0  0
   25.0677    9.4781  -16.4854 H   0  0  0  0  0  0
   25.6220    7.2725  -14.4922 H   0  0  0  0  0  0
   25.4090    9.0333  -14.2077 H   0  0  0  0  0  0
   23.1053    8.8962  -14.8522 H   0  0  0  0  0  0
   23.3749    5.9130  -15.2556 H   0  0  0  0  0  0
   21.8837    6.9076  -15.3718 H   0  0  0  0  0  0
   22.6393    8.0194  -17.2895 H   0  0  0  0  0  0
   22.9642    6.2700  -17.5358 H   0  0  0  0  0  0
  1  2  1  0  0  0
  1 24  1  0  0  0
  1 25  1  0  0  0
  1 26  1  0  0  0
  2  3  1  0  0  0
  2 27  1  0  0  0
  2 28  1  0  0  0
  3  4  1  0  0  0
  3  7  1  0  0  0
  3 29  1  0  0  0
  4  5  2  0  0  0
  4 30  1  0  0  0
  5  6  1  0  0  0
  5 31  1  0  0  0
  6  7  1  0  0  0
  7  8  1  0  0  0
  7 32  1  0  0  0
  8  9  2  0  0  0
  8 23  1  0  0  0
  9 10  1  0  0  0
  9 33  1  0  0  0
 10 11  2  0  0  0
 11 12  1  0  0  0
 11 13  1  0  0  0
 12 34  1  0  0  0
 12 35  1  0  0  0
 13 14  1  0  0  0
 13 23  2  0  0  0
 14 15  1  0  0  0
 14 22  1  0  0  0
 14 36  1  0  0  0
 15 16  1  0  0  0
 15 37  1  0  0  0
 15 38  1  0  0  0
 16 17  1  0  0  0
 16 39  1  0  0  0
 16 40  1  0  0  0
 17 18  1  0  0  0
 17 21  1  0  0  0
 17 41  1  0  0  0
 18 19  2  0  0  0
 18 20  1  0  0  0
 21 22  1  0  0  0
 21 42  1  0  0  0
 21 43  1  0  0  0
 22 44  1  0  0  0
 22 45  1  0  0  0
M  CHG  1  20  -1
M  END
> <s_m_source_file>
../2xk3_ligand.sdf

> <i_m_source_file_index>
1

> <s_epik_input>
W0NIM11bQ0gyXVtDSF0xW0NIXT1bQ0hdU1tDSF0xYzJbY0hdbmMoW05IMl0pYyhuMilbQ0BIXTNbQ0gyXVtDSDJdW0NASF0oQyg9TylbT0hdKVtDSDJdW0NIMl0z

> <s_epik_cmdline>
J2VwaWtfYXBwJywgJy1pbWFlJywgJ2xpZ2FuZF9wcm8ubWFlJywgJy1vbWFlJywgJ2xpZ2FuZF9wcmVwLm1hZScsICctbXMnLCAnMScsICctcGgnLCAnNycsICctcGh0JywgJzAuNScsICctbnQn

> <r_lp_tautomer_probability>
1

> <r_epik_Ionization_Penalty>
  0.0029

> <r_epik_Ionization_Penalty_Charging>
  0.0027

> <r_epik_Ionization_Penalty_Neutral>
  0.0003

> <r_epik_State_Penalty>
 -0.0000

> <r_epik_Charging_Adjusted_Penalty>
0.00265568451739331

> <i_epik_Tot_Q>
-1

> <i_epik_Tot_abs_Q>
1

$$$$
