2xk4_ligand
                    3D
 Schrodinger Suite 2020-3.
 53 55  0  0  1  0            999 V2000
  -26.9990   19.1330  -13.1220 C   0  0  0  0  0  0
  -25.9840   19.4960  -14.2050 C   0  0  0  0  0  0
  -25.3220   20.7150  -14.0540 O   0  0  0  0  0  0
  -24.6760   21.3130  -15.1400 C   0  0  0  0  0  0
  -25.3670   21.5220  -16.3410 C   0  0  0  0  0  0
  -24.7160   22.1550  -17.4050 C   0  0  0  0  0  0
  -25.3530   22.3530  -18.6160 C   0  0  0  0  0  0
  -25.8770   21.3080  -19.2600 N   0  0  0  0  0  0
  -26.4430   21.4640  -20.4620 C   0  0  0  0  0  0
  -27.0020   20.3530  -21.0710 C   0  0  0  0  0  0
  -26.8730   19.1100  -20.4430 C   0  0  0  0  0  0
  -27.4120   17.9640  -21.0430 C   0  0  0  0  0  0
  -27.3030   16.7180  -20.4070 O   0  0  0  0  0  0
  -26.7810   16.6440  -19.1090 C   0  0  0  0  0  0
  -28.0780   18.0640  -22.2730 C   0  0  0  0  0  0
  -28.5700   16.8860  -22.8500 O   0  0  0  0  0  0
  -27.6560   15.9420  -23.3580 C   0  0  0  0  0  0
  -28.2010   19.3160  -22.9100 C   0  0  0  0  0  0
  -28.8730   19.4530  -24.1310 O   0  0  0  0  0  0
  -28.3710   18.7980  -25.2570 C   0  0  0  0  0  0
  -27.6620   20.4580  -22.3020 C   0  0  0  0  0  0
  -26.4290   22.7150  -21.0860 C   0  0  0  0  0  0
  -25.8530   23.7490  -20.4640 N   0  0  0  0  0  0
  -25.2920   23.5950  -19.2550 C   0  0  0  0  0  0
  -24.6630   24.7210  -18.5950 N   0  0  0  0  0  0
  -23.3830   22.5650  -17.2800 C   0  0  0  0  0  0
  -22.6960   22.3660  -16.0800 C   0  0  0  0  0  0
  -23.3450   21.7410  -15.0130 C   0  0  0  0  0  0
  -22.5770   21.5290  -13.7150 C   0  0  0  0  0  0
  -23.0810   21.7940  -12.6750 O   0  0  0  0  0  0
  -21.2030   21.2720  -13.7920 O   0  5  0  0  0  0
  -27.4490   18.1564  -13.3538 H   0  0  0  0  0  0
  -27.7864   19.9002  -13.0855 H   0  0  0  0  0  0
  -26.4922   19.0811  -12.1471 H   0  0  0  0  0  0
  -25.1966   18.7288  -14.2415 H   0  0  0  0  0  0
  -26.4908   19.5479  -15.1799 H   0  0  0  0  0  0
  -26.4014   21.1946  -16.4451 H   0  0  0  0  0  0
  -26.3537   19.0327  -19.4878 H   0  0  0  0  0  0
  -26.7722   15.5955  -18.7766 H   0  0  0  0  0  0
  -27.4066   17.2394  -18.4277 H   0  0  0  0  0  0
  -25.7544   17.0390  -19.1036 H   0  0  0  0  0  0
  -28.2067   15.0842  -23.7715 H   0  0  0  0  0  0
  -26.9959   15.5981  -22.5481 H   0  0  0  0  0  0
  -27.0518   16.4066  -24.1511 H   0  0  0  0  0  0
  -29.0148   19.0117  -26.1229 H   0  0  0  0  0  0
  -28.3524   17.7137  -25.0726 H   0  0  0  0  0  0
  -27.3502   19.1525  -25.4627 H   0  0  0  0  0  0
  -27.7565   21.4292  -22.7878 H   0  0  0  0  0  0
  -26.8825   22.8459  -22.0685 H   0  0  0  0  0  0
  -24.2040   24.5913  -17.6038 H   0  0  0  0  0  0
  -24.6445   25.7056  -19.0851 H   0  0  0  0  0  0
  -22.8798   23.0409  -18.1216 H   0  0  0  0  0  0
  -21.6622   22.6958  -15.9774 H   0  0  0  0  0  0
  1  2  1  0  0  0
  1 32  1  0  0  0
  1 33  1  0  0  0
  1 34  1  0  0  0
  2  3  1  0  0  0
  2 35  1  0  0  0
  2 36  1  0  0  0
  3  4  1  0  0  0
  4  5  2  0  0  0
  4 28  1  0  0  0
  5  6  1  0  0  0
  5 37  1  0  0  0
  6  7  1  0  0  0
  6 26  2  0  0  0
  7  8  2  0  0  0
  7 24  1  0  0  0
  8  9  1  0  0  0
  9 10  1  0  0  0
  9 22  2  0  0  0
 10 11  2  0  0  0
 10 21  1  0  0  0
 11 12  1  0  0  0
 11 38  1  0  0  0
 12 13  1  0  0  0
 12 15  2  0  0  0
 13 14  1  0  0  0
 14 39  1  0  0  0
 14 40  1  0  0  0
 14 41  1  0  0  0
 15 16  1  0  0  0
 15 18  1  0  0  0
 16 17  1  0  0  0
 17 42  1  0  0  0
 17 43  1  0  0  0
 17 44  1  0  0  0
 18 19  1  0  0  0
 18 21  2  0  0  0
 19 20  1  0  0  0
 20 45  1  0  0  0
 20 46  1  0  0  0
 20 47  1  0  0  0
 21 48  1  0  0  0
 22 23  1  0  0  0
 22 49  1  0  0  0
 23 24  2  0  0  0
 24 25  1  0  0  0
 25 50  1  0  0  0
 25 51  1  0  0  0
 26 27  1  0  0  0
 26 52  1  0  0  0
 27 28  2  0  0  0
 27 53  1  0  0  0
 28 29  1  0  0  0
 29 30  2  0  0  0
 29 31  1  0  0  0
M  CHG  1  31  -1
M  END
> <s_m_source_file>
../2xk4_ligand.sdf

> <i_m_source_file_index>
1

> <s_epik_input>
W0NIM11bQ0gyXU9jMVtjSF1jKFtjSF1bY0hdYzFDKD1PKVtPSF0pLWMybmMoW2NIXW5jMltOSDJdKS1jM1tjSF1jKE9bQ0gzXSljKE9bQ0gzXSljKFtjSF0zKU9bQ0gzXQ==

> <s_epik_cmdline>
J2VwaWtfYXBwJywgJy1pbWFlJywgJ2xpZ2FuZF9wcm8ubWFlJywgJy1vbWFlJywgJ2xpZ2FuZF9wcmVwLm1hZScsICctbXMnLCAnMScsICctcGgnLCAnNycsICctcGh0JywgJzAuNScsICctbnQn

> <r_lp_tautomer_probability>
1

> <r_epik_Ionization_Penalty>
  0.0007

> <r_epik_Ionization_Penalty_Charging>
  0.0007

> <r_epik_Ionization_Penalty_Neutral>
  0.0000

> <r_epik_State_Penalty>
 -0.0000

> <r_epik_Charging_Adjusted_Penalty>
0.000695701470031946

> <i_epik_Tot_Q>
-1

> <i_epik_Tot_abs_Q>
1

$$$$
