2xk6_ligand
                    3D
 Schrodinger Suite 2020-3.
 48 51  0  0  1  0            999 V2000
   24.7280    5.1080  -18.3040 N   0  0  0  0  0  0
   25.3080    6.2410  -18.9590 C   0  0  0  0  0  0
   25.7650    6.1030  -20.2730 N   0  0  0  0  0  0
   26.3020    7.1490  -20.9090 C   0  0  0  0  0  0
   26.4130    8.4550  -20.2300 C   0  0  0  0  0  0
   27.0450    9.5610  -21.0170 C   0  0  2  0  0  0
   26.4610   11.1080  -20.2860 S   0  0  0  0  0  0
   27.1550   12.2840  -21.2510 C   0  0  0  0  0  0
   28.2980   11.5590  -22.0810 C   0  0  0  0  0  0
   27.8550   10.0120  -22.2790 C   0  0  1  0  0  0
   28.7110    9.3720  -23.3490 C   0  0  0  0  0  0
   28.6160    8.7530  -24.7610 C   0  0  0  0  0  0
   29.9480    9.3340  -24.2720 C   0  0  0  0  0  0
   25.9660    8.6020  -18.9260 N   0  0  0  0  0  0
   25.4150    7.5310  -18.2810 C   0  0  0  0  0  0
   24.8660    7.6850  -16.8730 C   0  0  1  0  0  0
   25.6110    8.5470  -15.7970 C   0  0  0  0  0  0
   24.8920    8.8870  -14.4670 C   0  0  0  0  0  0
   23.5820    8.1160  -14.2040 C   0  0  1  0  0  0
   22.9590    8.1150  -12.8320 C   0  0  0  0  0  0
   22.5020    7.0790  -12.3660 O   0  0  0  0  0  0
   22.9120    9.2800  -12.0970 O   0  5  0  0  0  0
   22.6970    8.0600  -15.4620 C   0  0  0  0  0  0
   23.3980    7.2430  -16.5630 C   0  0  0  0  0  0
   24.6563    4.1451  -18.8310 H   0  0  0  0  0  0
   24.3540    5.2002  -17.2736 H   0  0  0  0  0  0
   26.6592    7.0371  -21.9327 H   0  0  0  0  0  0
   27.4859    8.5923  -21.2950 H   0  0  0  0  0  0
   26.3906   12.7089  -21.9182 H   0  0  0  0  0  0
   27.5714   13.0803  -20.6165 H   0  0  0  0  0  0
   28.4117   12.0530  -23.0573 H   0  0  0  0  0  0
   29.2468   11.6180  -21.5275 H   0  0  0  0  0  0
   27.1601    9.3640  -22.8332 H   0  0  0  0  0  0
   28.4684    9.3864  -22.2762 H   0  0  0  0  0  0
   28.3188    7.6971  -24.6792 H   0  0  0  0  0  0
   27.8664    9.3001  -25.3516 H   0  0  0  0  0  0
   30.2970   10.3601  -24.4598 H   0  0  0  0  0  0
   30.7495    8.7570  -23.7875 H   0  0  0  0  0  0
   25.4667    6.7667  -16.7970 H   0  0  0  0  0  0
   26.5306    8.0300  -15.4855 H   0  0  0  0  0  0
   25.8685    9.5266  -16.2260 H   0  0  0  0  0  0
   25.5591    8.6623  -13.6217 H   0  0  0  0  0  0
   24.6309    9.9555  -14.4540 H   0  0  0  0  0  0
   23.8702    7.0768  -13.9871 H   0  0  0  0  0  0
   21.7369    7.5840  -15.2139 H   0  0  0  0  0  0
   22.5160    9.0811  -15.8288 H   0  0  0  0  0  0
   22.7854    7.3433  -17.4711 H   0  0  0  0  0  0
   23.3931    6.1942  -16.2314 H   0  0  0  0  0  0
  1  2  1  0  0  0
  1 25  1  0  0  0
  1 26  1  0  0  0
  2  3  2  0  0  0
  2 15  1  0  0  0
  3  4  1  0  0  0
  4  5  2  0  0  0
  4 27  1  0  0  0
  5  6  1  0  0  0
  5 14  1  0  0  0
  6  7  1  0  0  0
  6 10  1  0  0  0
  6 28  1  0  0  0
  7  8  1  0  0  0
  8  9  1  0  0  0
  8 29  1  0  0  0
  8 30  1  0  0  0
  9 10  1  0  0  0
  9 31  1  0  0  0
  9 32  1  0  0  0
 10 11  1  0  0  0
 10 33  1  0  0  0
 11 12  1  0  0  0
 11 13  1  0  0  0
 11 34  1  0  0  0
 12 13  1  0  0  0
 12 35  1  0  0  0
 12 36  1  0  0  0
 13 37  1  0  0  0
 13 38  1  0  0  0
 14 15  2  0  0  0
 15 16  1  0  0  0
 16 17  1  0  0  0
 16 24  1  0  0  0
 16 39  1  0  0  0
 17 18  1  0  0  0
 17 40  1  0  0  0
 17 41  1  0  0  0
 18 19  1  0  0  0
 18 42  1  0  0  0
 18 43  1  0  0  0
 19 20  1  0  0  0
 19 23  1  0  0  0
 19 44  1  0  0  0
 20 21  2  0  0  0
 20 22  1  0  0  0
 23 24  1  0  0  0
 23 45  1  0  0  0
 23 46  1  0  0  0
 24 47  1  0  0  0
 24 48  1  0  0  0
M  CHG  1  22  -1
M  END
> <s_m_source_file>
../2xk6_ligand.sdf

> <i_m_source_file_index>
1

> <s_epik_input>
Tz1DKFtPSF0pW0NAQEhdKFtDSDJdW0NIMl0xKVtDSDJdW0NIMl1bQ0BASF0xYzJuYyhbY0hdbmMyW05IMl0pW0NAQEhdM1NbQ0gyXVtDSDJdW0NASF0zW0NIXTRbQ0gyXVtDSDJdNA==

> <s_epik_cmdline>
J2VwaWtfYXBwJywgJy1pbWFlJywgJ2xpZ2FuZF9wcm8ubWFlJywgJy1vbWFlJywgJ2xpZ2FuZF9wcmVwLm1hZScsICctbXMnLCAnMScsICctcGgnLCAnNycsICctcGh0JywgJzAuNScsICctbnQn

> <r_lp_tautomer_probability>
1

> <r_epik_Ionization_Penalty>
  0.0030

> <r_epik_Ionization_Penalty_Charging>
  0.0027

> <r_epik_Ionization_Penalty_Neutral>
  0.0003

> <r_epik_State_Penalty>
 -0.0000

> <r_epik_Charging_Adjusted_Penalty>
0.00265568451739331

> <i_epik_Tot_Q>
-1

> <i_epik_Tot_abs_Q>
1

$$$$
