2xk7_ligand
                    3D
 Schrodinger Suite 2020-3.
 57 59  0  0  1  0            999 V2000
  -26.5980   22.7870  -14.3120 C   0  0  0  0  0  0
  -25.7130   21.7020  -13.6960 C   0  0  0  0  0  0
  -24.7020   21.0100  -14.6250 C   0  0  1  0  0  0
  -25.0880   20.7770  -16.0920 C   0  0  0  0  0  0
  -24.8130   22.0050  -16.8080 N   0  0  0  0  0  0
  -25.2160   22.2750  -18.2250 C   0  0  0  0  0  0
  -25.8490   21.2130  -18.9070 N   0  0  0  0  0  0
  -26.3000   21.3680  -20.2200 C   0  0  0  0  0  0
  -26.8710   20.2430  -20.8510 C   0  0  0  0  0  0
  -26.7600   18.9610  -20.1670 C   0  0  0  0  0  0
  -27.3060   17.7420  -20.8060 C   0  0  0  0  0  0
  -27.2070   16.4790  -20.1860 O   0  0  0  0  0  0
  -26.6950   16.3540  -18.8890 C   0  0  0  0  0  0
  -27.9290   17.8360  -22.1180 C   0  0  0  0  0  0
  -28.4060   16.6550  -22.7090 O   0  0  0  0  0  0
  -27.4550   15.7110  -23.1600 C   0  0  0  0  0  0
  -28.0040   19.1100  -22.8100 C   0  0  0  0  0  0
  -28.5570   19.1690  -24.0980 O   0  0  0  0  0  0
  -28.8360   20.4020  -24.6760 C   0  0  0  0  0  0
  -27.4660   20.3430  -22.1720 C   0  0  0  0  0  0
  -26.1090   22.6100  -20.9070 C   0  0  0  0  0  0
  -25.4710   23.6910  -20.2100 N   0  0  0  0  0  0
  -25.0340   23.5510  -18.8980 C   0  0  0  0  0  0
  -24.4400   24.6920  -18.2330 N   0  0  0  0  0  0
  -23.7740   22.9420  -16.3590 C   0  0  0  0  0  0
  -22.6530   22.2170  -15.5810 C   0  0  0  0  0  0
  -23.2000   21.3250  -14.4400 C   0  0  1  0  0  0
  -22.7540   21.5980  -13.0110 C   0  0  0  0  0  0
  -23.1770   20.9200  -12.1300 O   0  0  0  0  0  0
  -21.8810   22.6490  -12.7270 O   0  5  0  0  0  0
  -27.2688   23.1944  -13.5412 H   0  0  0  0  0  0
  -27.1963   22.3533  -15.1268 H   0  0  0  0  0  0
  -25.9653   23.5935  -14.7109 H   0  0  0  0  0  0
  -25.1147   22.1357  -12.8812 H   0  0  0  0  0  0
  -26.3457   20.8955  -13.2970 H   0  0  0  0  0  0
  -24.8367   20.0167  -14.1720 H   0  0  0  0  0  0
  -24.4908   19.9488  -16.5012 H   0  0  0  0  0  0
  -26.1567   20.5241  -16.1542 H   0  0  0  0  0  0
  -26.2781   18.8999  -19.1912 H   0  0  0  0  0  0
  -26.7027   15.2948  -18.5923 H   0  0  0  0  0  0
  -27.3169   16.9347  -18.1918 H   0  0  0  0  0  0
  -25.6631   16.7343  -18.8639 H   0  0  0  0  0  0
  -27.9757   14.8456  -23.5958 H   0  0  0  0  0  0
  -26.8377   15.3788  -22.3123 H   0  0  0  0  0  0
  -26.8118   16.1742  -23.9227 H   0  0  0  0  0  0
  -29.2615   20.2490  -25.6788 H   0  0  0  0  0  0
  -27.9082   20.9874  -24.7567 H   0  0  0  0  0  0
  -29.5591   20.9452  -24.0499 H   0  0  0  0  0  0
  -27.5177   21.3025  -22.6866 H   0  0  0  0  0  0
  -26.4412   22.7321  -21.9379 H   0  0  0  0  0  0
  -24.0879   24.6016  -17.1948 H   0  0  0  0  0  0
  -24.3409   25.6491  -18.7661 H   0  0  0  0  0  0
  -23.3258   23.4384  -17.2323 H   0  0  0  0  0  0
  -24.2228   23.6979  -15.6979 H   0  0  0  0  0  0
  -22.0857   21.5737  -16.2697 H   0  0  0  0  0  0
  -21.9772   22.9607  -15.1334 H   0  0  0  0  0  0
  -22.6379   20.3863  -14.5537 H   0  0  0  0  0  0
  1  2  1  0  0  0
  1 31  1  0  0  0
  1 32  1  0  0  0
  1 33  1  0  0  0
  2  3  1  0  0  0
  2 34  1  0  0  0
  2 35  1  0  0  0
  3  4  1  0  0  0
  3 27  1  0  0  0
  3 36  1  0  0  0
  4  5  1  0  0  0
  4 37  1  0  0  0
  4 38  1  0  0  0
  5  6  1  0  0  0
  5 25  1  0  0  0
  6  7  2  0  0  0
  6 23  1  0  0  0
  7  8  1  0  0  0
  8  9  1  0  0  0
  8 21  2  0  0  0
  9 10  2  0  0  0
  9 20  1  0  0  0
 10 11  1  0  0  0
 10 39  1  0  0  0
 11 12  1  0  0  0
 11 14  2  0  0  0
 12 13  1  0  0  0
 13 40  1  0  0  0
 13 41  1  0  0  0
 13 42  1  0  0  0
 14 15  1  0  0  0
 14 17  1  0  0  0
 15 16  1  0  0  0
 16 43  1  0  0  0
 16 44  1  0  0  0
 16 45  1  0  0  0
 17 18  1  0  0  0
 17 20  2  0  0  0
 18 19  1  0  0  0
 19 46  1  0  0  0
 19 47  1  0  0  0
 19 48  1  0  0  0
 20 49  1  0  0  0
 21 22  1  0  0  0
 21 50  1  0  0  0
 22 23  2  0  0  0
 23 24  1  0  0  0
 24 51  1  0  0  0
 24 52  1  0  0  0
 25 26  1  0  0  0
 25 53  1  0  0  0
 25 54  1  0  0  0
 26 27  1  0  0  0
 26 55  1  0  0  0
 26 56  1  0  0  0
 27 28  1  0  0  0
 27 57  1  0  0  0
 28 29  2  0  0  0
 28 30  1  0  0  0
M  CHG  1  30  -1
M  END
> <s_m_source_file>
../2xk7_ligand.sdf

> <i_m_source_file_index>
1

> <s_epik_input>
Tz1DKFtPSF0pW0NAQEhdMVtDSDJdW0NIMl1OKFtDSDJdW0NAQEhdMVtDSDJdW0NIM10pYzJuYyhbY0hdbmMyW05IMl0pLWMzW2NIXWMoT1tDSDNdKWMoT1tDSDNdKWMoW2NIXTMpT1tDSDNd

> <s_epik_cmdline>
J2VwaWtfYXBwJywgJy1pbWFlJywgJ2xpZ2FuZF9wcm8ubWFlJywgJy1vbWFlJywgJ2xpZ2FuZF9wcmVwLm1hZScsICctbXMnLCAnMScsICctcGgnLCAnNycsICctcGh0JywgJzAuNScsICctbnQn

> <r_lp_tautomer_probability>
1

> <r_epik_Ionization_Penalty>
  0.0037

> <r_epik_Ionization_Penalty_Charging>
  0.0025

> <r_epik_Ionization_Penalty_Neutral>
  0.0012

> <r_epik_State_Penalty>
 -0.0000

> <r_epik_Charging_Adjusted_Penalty>
0.00251804168713844

> <i_epik_Tot_Q>
-1

> <i_epik_Tot_abs_Q>
1

$$$$
