2xk8_ligand
                    3D
 Schrodinger Suite 2020-3.
 50 52  0  0  1  0            999 V2000
   20.9640    6.7870  -14.9110 C   0  0  0  0  0  0
   21.6670    7.9680  -14.6830 O   0  0  0  0  0  0
   22.9780    8.0880  -15.1450 C   0  0  0  0  0  0
   23.2690    7.8130  -16.4910 C   0  0  0  0  0  0
   24.5810    7.9670  -16.9590 C   0  0  0  0  0  0
   24.9100    7.7140  -18.2870 C   0  0  0  0  0  0
   25.5210    8.6770  -18.9870 N   0  0  0  0  0  0
   25.8850    8.4990  -20.2630 C   0  0  0  0  0  0
   26.4670    9.5610  -20.9490 C   0  0  0  0  0  0
   26.4500   10.8360  -20.3490 C   0  0  0  0  0  0
   27.0100   11.9380  -21.0100 C   0  0  0  0  0  0
   27.0380   13.2210  -20.4360 O   0  0  0  0  0  0
   26.5090   13.4590  -19.1580 C   0  0  0  0  0  0
   27.5740   11.7570  -22.2780 C   0  0  0  0  0  0
   28.0940   12.8700  -22.9370 O   0  0  0  0  0  0
   27.1730   13.7910  -23.4670 C   0  0  0  0  0  0
   27.5790   10.4960  -22.8920 C   0  0  0  0  0  0
   28.1300   10.3690  -24.1700 O   0  0  0  0  0  0
   28.2880    9.1100  -24.7570 C   0  0  0  0  0  0
   27.0260    9.3880  -22.2280 C   0  0  0  0  0  0
   25.6280    7.2710  -20.8810 C   0  0  0  0  0  0
   25.0350    6.2930  -20.1790 N   0  0  0  0  0  0
   24.6770    6.4740  -18.8970 C   0  0  0  0  0  0
   24.0340    5.4000  -18.1700 N   0  0  0  0  0  0
   25.5850    8.4060  -16.0830 C   0  0  0  0  0  0
   25.2930    8.6830  -14.7400 C   0  0  0  0  0  0
   23.9830    8.5230  -14.2700 C   0  0  0  0  0  0
   23.6610    8.8280  -12.8040 C   0  0  0  0  0  0
   22.5670    8.6660  -12.3790 O   0  0  0  0  0  0
   24.6750    9.2820  -11.9520 O   0  5  0  0  0  0
   19.9554    6.8717  -14.4802 H   0  0  0  0  0  0
   21.4951    5.9472  -14.4390 H   0  0  0  0  0  0
   20.8865    6.6097  -15.9938 H   0  0  0  0  0  0
   22.4803    7.4822  -17.1668 H   0  0  0  0  0  0
   25.9988   10.9660  -19.3653 H   0  0  0  0  0  0
   26.6323   14.5217  -18.9022 H   0  0  0  0  0  0
   27.0405   12.8401  -18.4201 H   0  0  0  0  0  0
   25.4396   13.2017  -19.1501 H   0  0  0  0  0  0
   27.7165   14.6131  -23.9556 H   0  0  0  0  0  0
   26.5498   14.1947  -22.6554 H   0  0  0  0  0  0
   26.5323   13.2856  -24.2046 H   0  0  0  0  0  0
   28.7354    9.2245  -25.7554 H   0  0  0  0  0  0
   27.3062    8.6225  -24.8488 H   0  0  0  0  0  0
   28.9467    8.4925  -24.1286 H   0  0  0  0  0  0
   27.0302    8.4050  -22.6990 H   0  0  0  0  0  0
   25.9066    7.1099  -21.9224 H   0  0  0  0  0  0
   23.7398    5.5455  -17.1201 H   0  0  0  0  0  0
   23.8396    4.4384  -18.6674 H   0  0  0  0  0  0
   26.6033    8.5331  -16.4505 H   0  0  0  0  0  0
   26.0802    9.0207  -14.0659 H   0  0  0  0  0  0
  1  2  1  0  0  0
  1 31  1  0  0  0
  1 32  1  0  0  0
  1 33  1  0  0  0
  2  3  1  0  0  0
  3  4  2  0  0  0
  3 27  1  0  0  0
  4  5  1  0  0  0
  4 34  1  0  0  0
  5  6  1  0  0  0
  5 25  2  0  0  0
  6  7  2  0  0  0
  6 23  1  0  0  0
  7  8  1  0  0  0
  8  9  1  0  0  0
  8 21  2  0  0  0
  9 10  2  0  0  0
  9 20  1  0  0  0
 10 11  1  0  0  0
 10 35  1  0  0  0
 11 12  1  0  0  0
 11 14  2  0  0  0
 12 13  1  0  0  0
 13 36  1  0  0  0
 13 37  1  0  0  0
 13 38  1  0  0  0
 14 15  1  0  0  0
 14 17  1  0  0  0
 15 16  1  0  0  0
 16 39  1  0  0  0
 16 40  1  0  0  0
 16 41  1  0  0  0
 17 18  1  0  0  0
 17 20  2  0  0  0
 18 19  1  0  0  0
 19 42  1  0  0  0
 19 43  1  0  0  0
 19 44  1  0  0  0
 20 45  1  0  0  0
 21 22  1  0  0  0
 21 46  1  0  0  0
 22 23  2  0  0  0
 23 24  1  0  0  0
 24 47  1  0  0  0
 24 48  1  0  0  0
 25 26  1  0  0  0
 25 49  1  0  0  0
 26 27  2  0  0  0
 26 50  1  0  0  0
 27 28  1  0  0  0
 28 29  2  0  0  0
 28 30  1  0  0  0
M  CHG  1  30  -1
M  END
> <s_m_source_file>
../2xk8_ligand.sdf

> <i_m_source_file_index>
1

> <s_epik_input>
Tz1DKFtPSF0pYzFbY0hdW2NIXWMoW2NIXWMxT1tDSDNdKS1jMm5jKFtjSF1uYzJbTkgyXSktYzNbY0hdYyhPW0NIM10pYyhPW0NIM10pYyhbY0hdMylPW0NIM10=

> <s_epik_cmdline>
J2VwaWtfYXBwJywgJy1pbWFlJywgJ2xpZ2FuZF9wcm8ubWFlJywgJy1vbWFlJywgJ2xpZ2FuZF9wcmVwLm1hZScsICctbXMnLCAnMScsICctcGgnLCAnNycsICctcGh0JywgJzAuNScsICctbnQn

> <r_lp_tautomer_probability>
1

> <r_epik_Ionization_Penalty>
  0.0006

> <r_epik_Ionization_Penalty_Charging>
  0.0005

> <r_epik_Ionization_Penalty_Neutral>
  0.0000

> <r_epik_State_Penalty>
 -0.0000

> <r_epik_Charging_Adjusted_Penalty>
0.000515808937847482

> <i_epik_Tot_Q>
-1

> <i_epik_Tot_abs_Q>
1

$$$$
