2xk9_ligand
                    3D
 Schrodinger Suite 2020-3.
 46 48  0  0  1  0            999 V2000
  -49.4250   16.0170   -3.8370 O   0  5  0  0  0  0
  -48.5750   17.1210   -3.4920 N   0  3  0  0  0  0
  -48.6520   17.6130   -2.1630 O   0  0  0  0  0  0
  -47.7140   17.6810   -4.3580 C   0  0  0  0  0  0
  -47.0550   18.8570   -3.9970 C   0  0  0  0  0  0
  -47.4530   17.1090   -5.6020 C   0  0  0  0  0  0
  -47.9290   16.0360   -6.2110 N   0  0  0  0  0  0
  -47.3310   15.9560   -7.4100 C   0  0  3  0  0  0
  -46.5060   16.9910   -7.5980 C   0  0  0  0  0  0
  -46.5510   17.7210   -6.4800 C   0  0  0  0  0  0
  -45.9110   18.8990   -6.1160 C   0  0  0  0  0  0
  -46.1580   19.4680   -4.8740 C   0  0  0  0  0  0
  -47.6150   14.8550   -8.4340 C   0  0  0  0  0  0
  -48.5070   14.0330   -8.1960 O   0  0  0  0  0  0
  -46.8650   14.9010   -9.5530 N   0  0  0  0  0  0
  -47.0230   14.0950  -10.6320 C   0  0  0  0  0  0
  -46.2130   14.2930  -11.7600 C   0  0  0  0  0  0
  -46.3710   13.5150  -12.9170 C   0  0  0  0  0  0
  -47.3700   12.5220  -12.9770 C   0  0  0  0  0  0
  -48.1740   12.3480  -11.8490 C   0  0  0  0  0  0
  -48.0100   13.1280  -10.7020 C   0  0  0  0  0  0
  -47.5440   11.7410  -14.1270 C   0  0  0  0  0  0
  -48.1860   10.3650  -14.0960 C   0  0  0  0  0  0
  -47.1370   12.2310  -15.2950 N   0  0  0  0  0  0
  -47.2120   11.6260  -16.3830 N   0  0  0  0  0  0
  -46.7910   12.2450  -17.5070 C   0  0  0  0  0  0
  -46.8680   11.6900  -18.7090 N   0  0  0  0  0  0
  -46.2840   13.4570  -17.4490 N   0  3  0  0  0  0
  -45.8650   14.0680  -18.6050 O   0  0  0  0  0  0
  -47.2405   19.3115   -3.0126 H   0  0  0  0  0  0
  -45.8647   17.3053   -8.4346 H   0  0  0  0  0  0
  -45.2085   19.3809   -6.8119 H   0  0  0  0  0  0
  -45.6472   20.3979   -4.5837 H   0  0  0  0  0  0
  -46.0503   15.6350   -9.6392 H   0  0  0  0  0  0
  -45.4455   15.0667  -11.7373 H   0  0  0  0  0  0
  -45.7178   13.6793  -13.7740 H   0  0  0  0  0  0
  -48.9504   11.5831  -11.8638 H   0  0  0  0  0  0
  -48.6700   12.9724   -9.8486 H   0  0  0  0  0  0
  -48.4624   10.1126  -13.0616 H   0  0  0  0  0  0
  -47.4732    9.6191  -14.4775 H   0  0  0  0  0  0
  -49.0874   10.3667  -14.7264 H   0  0  0  0  0  0
  -47.6164   10.6036  -16.4171 H   0  0  0  0  0  0
  -47.2830   10.6776  -18.8218 H   0  0  0  0  0  0
  -45.4394   15.0816  -18.5682 H   0  0  0  0  0  0
  -46.5168   12.2421  -19.5932 H   0  0  0  0  0  0
  -46.1988   13.9718  -16.4806 H   0  0  0  0  0  0
  1  2  1  0  0  0
  2  3  2  0  0  0
  2  4  1  0  0  0
  4  5  2  0  0  0
  4  6  1  0  0  0
  5 12  1  0  0  0
  5 30  1  0  0  0
  6  7  2  0  0  0
  6 10  1  0  0  0
  7  8  1  0  0  0
  8  9  1  0  0  0
  8 13  1  0  0  0
  9 10  2  0  0  0
  9 31  1  0  0  0
 10 11  1  0  0  0
 11 12  2  0  0  0
 11 32  1  0  0  0
 12 33  1  0  0  0
 13 14  2  0  0  0
 13 15  1  0  0  0
 15 16  1  0  0  0
 15 34  1  0  0  0
 16 17  2  0  0  0
 16 21  1  0  0  0
 17 18  1  0  0  0
 17 35  1  0  0  0
 18 19  2  0  0  0
 18 36  1  0  0  0
 19 20  1  0  0  0
 19 22  1  0  0  0
 20 21  2  0  0  0
 20 37  1  0  0  0
 21 38  1  0  0  0
 22 23  1  0  0  0
 22 24  2  0  0  0
 23 39  1  0  0  0
 23 40  1  0  0  0
 23 41  1  0  0  0
 24 25  1  0  0  0
 25 26  1  0  0  0
 25 42  1  0  0  0
 26 27  1  0  0  0
 26 28  2  0  0  0
 27 43  1  0  0  0
 27 45  1  0  0  0
 28 29  1  0  0  0
 28 46  1  0  0  0
 29 44  1  0  0  0
M  CHG  3   1  -1   2   1  28   1
M  END
> <s_m_source_file>
../2xk9_ligand.sdf

> <i_m_source_file_index>
1

> <s_epik_input>
W08tXVtOK10oPU8pYzFbY0hdW2NIXVtjSF1jKGMxPTIpPVtDSF1bQ0hdKE4yKUMoPU8pW05IXWMzW2NIXVtjSF1jKFtjSF1bY0hdMykvQyhbQ0gzXSk9Ti9bTkhdL0MoPU5cW0hdKVtOSF1bT0hd

> <s_epik_cmdline>
J2VwaWtfYXBwJywgJy1pbWFlJywgJ2xpZ2FuZF9wcm8ubWFlJywgJy1vbWFlJywgJ2xpZ2FuZF9wcmVwLm1hZScsICctbXMnLCAnMScsICctcGgnLCAnNycsICctcGh0JywgJzAuNScsICctbnQn

> <r_epik_Ionization_Penalty>
  0.2022

> <r_epik_Ionization_Penalty_Charging>
  0.1979

> <r_epik_Ionization_Penalty_Neutral>
  0.0043

> <r_epik_State_Penalty>
  0.3096

> <r_epik_Charging_Adjusted_Penalty>
0.50751084768021

> <i_epik_Tot_Q>
1

> <i_epik_Tot_abs_Q>
3

> <s_epik_Chemistry_Notes>
This compound has an imine and may undergo hydrolysis.

$$$$
