2xkc_ligand
                    3D
 Schrodinger Suite 2020-3.
 49 51  0  0  1  0            999 V2000
   21.1770   -7.2750   14.5330 C   0  0  0  0  0  0
   22.6500   -7.4280   14.9040 C   0  0  0  0  0  0
   23.0610   -7.2020   16.2360 C   0  0  0  0  0  0
   23.6170   -7.7920   13.9040 C   0  0  0  0  0  0
   23.1850   -8.0450   12.4600 C   0  0  0  0  0  0
   23.5810   -9.0060   11.8910 O   0  0  0  0  0  0
   22.4820   -7.0630   11.7500 O   0  5  0  0  0  0
   24.9780   -7.9240   14.2600 C   0  0  0  0  0  0
   25.3760   -7.7070   15.5480 C   0  0  0  0  0  0
   24.3770   -7.3310   16.5780 C   0  0  0  0  0  0
   24.8230   -7.0650   18.0140 C   0  0  0  0  0  0
   25.3660   -8.0190   18.7260 N   0  0  0  0  0  0
   24.6270   -5.7210   18.6060 C   0  0  0  0  0  0
   24.0060   -4.6720   17.8220 N   0  0  0  0  0  0
   25.0010   -5.4840   19.8370 N   0  0  0  0  0  0
   25.5680   -6.4710   20.5740 C   0  0  0  0  0  0
   25.7530   -7.7720   20.0020 C   0  0  0  0  0  0
   26.4030   -8.8830   20.8220 C   0  0  0  0  0  0
   26.9680   -8.5950   22.0290 C   0  0  0  0  0  0
   26.4600  -10.2640   20.2820 C   0  0  0  0  0  0
   27.0560  -11.2570   21.0060 C   0  0  0  0  0  0
   27.0880  -12.5690   20.5150 O   0  0  0  0  0  0
   26.6840  -12.8380   19.2010 C   0  0  0  0  0  0
   27.6250  -10.9610   22.2640 C   0  0  0  0  0  0
   28.2400  -11.9790   22.9990 O   0  0  0  0  0  0
   29.5720  -12.3100   22.7280 C   0  0  0  0  0  0
   27.5810   -9.6210   22.7780 C   0  0  0  0  0  0
   28.1370   -9.3240   24.0240 O   0  0  0  0  0  0
   27.5360   -9.8340   25.1790 C   0  0  0  0  0  0
   20.6009   -6.9949   15.4272 H   0  0  0  0  0  0
   20.7979   -8.2284   14.1363 H   0  0  0  0  0  0
   21.0710   -6.4915   13.7682 H   0  0  0  0  0  0
   22.3269   -6.9242   16.9923 H   0  0  0  0  0  0
   25.7128   -8.2000   13.5037 H   0  0  0  0  0  0
   26.4267   -7.8100   15.8190 H   0  0  0  0  0  0
   23.6917   -4.8717   16.7870 H   0  0  0  0  0  0
   23.8490   -3.6761   18.2620 H   0  0  0  0  0  0
   25.8824   -6.2753   21.5992 H   0  0  0  0  0  0
   26.9460   -7.5754   22.4138 H   0  0  0  0  0  0
   26.0260  -10.4860   19.3071 H   0  0  0  0  0  0
   26.7792  -13.9156   19.0015 H   0  0  0  0  0  0
   27.3200  -12.2776   18.4999 H   0  0  0  0  0  0
   25.6356  -12.5320   19.0698 H   0  0  0  0  0  0
   29.8902  -13.1249   23.3948 H   0  0  0  0  0  0
   30.2098  -11.4295   22.8948 H   0  0  0  0  0  0
   29.6632  -12.6359   21.6813 H   0  0  0  0  0  0
   28.1011   -9.5033   26.0629 H   0  0  0  0  0  0
   27.5329  -10.9332   25.1359 H   0  0  0  0  0  0
   26.5013   -9.4667   25.2467 H   0  0  0  0  0  0
  1  2  1  0  0  0
  1 30  1  0  0  0
  1 31  1  0  0  0
  1 32  1  0  0  0
  2  3  2  0  0  0
  2  4  1  0  0  0
  3 10  1  0  0  0
  3 33  1  0  0  0
  4  5  1  0  0  0
  4  8  2  0  0  0
  5  6  2  0  0  0
  5  7  1  0  0  0
  8  9  1  0  0  0
  8 34  1  0  0  0
  9 10  2  0  0  0
  9 35  1  0  0  0
 10 11  1  0  0  0
 11 12  2  0  0  0
 11 13  1  0  0  0
 12 17  1  0  0  0
 13 14  1  0  0  0
 13 15  2  0  0  0
 14 36  1  0  0  0
 14 37  1  0  0  0
 15 16  1  0  0  0
 16 17  2  0  0  0
 16 38  1  0  0  0
 17 18  1  0  0  0
 18 19  2  0  0  0
 18 20  1  0  0  0
 19 27  1  0  0  0
 19 39  1  0  0  0
 20 21  2  0  0  0
 20 40  1  0  0  0
 21 22  1  0  0  0
 21 24  1  0  0  0
 22 23  1  0  0  0
 23 41  1  0  0  0
 23 42  1  0  0  0
 23 43  1  0  0  0
 24 25  1  0  0  0
 24 27  2  0  0  0
 25 26  1  0  0  0
 26 44  1  0  0  0
 26 45  1  0  0  0
 26 46  1  0  0  0
 27 28  1  0  0  0
 28 29  1  0  0  0
 29 47  1  0  0  0
 29 48  1  0  0  0
 29 49  1  0  0  0
M  CHG  1   7  -1
M  END
> <s_m_source_file>
../2xkc_ligand.sdf

> <i_m_source_file_index>
1

> <s_epik_input>
Tz1DKFtPSF0pYzFbY0hdW2NIXWMoW2NIXWMxW0NIM10pLWMybmMoW2NIXW5jMltOSDJdKS1jM1tjSF1jKE9bQ0gzXSljKE9bQ0gzXSljKFtjSF0zKU9bQ0gzXQ==

> <s_epik_cmdline>
J2VwaWtfYXBwJywgJy1pbWFlJywgJ2xpZ2FuZF9wcm8ubWFlJywgJy1vbWFlJywgJ2xpZ2FuZF9wcmVwLm1hZScsICctbXMnLCAnMScsICctcGgnLCAnNycsICctcGh0JywgJzAuNScsICctbnQn

> <r_lp_tautomer_probability>
1

> <r_epik_Ionization_Penalty>
  0.0004

> <r_epik_Ionization_Penalty_Charging>
  0.0003

> <r_epik_Ionization_Penalty_Neutral>
  0.0001

> <r_epik_State_Penalty>
 -0.0000

> <r_epik_Charging_Adjusted_Penalty>
0.000328516747462696

> <i_epik_Tot_Q>
-1

> <i_epik_Tot_abs_Q>
1

$$$$
