2xkd_ligand
                    3D
 Schrodinger Suite 2020-3.
 46 48  0  0  1  0            999 V2000
   23.5060   -8.1920   11.8360 O   0  5  0  0  0  0
   22.8010   -7.4720   12.8080 C   0  0  0  0  0  0
   21.8210   -6.8680   12.5110 O   0  0  0  0  0  0
   23.3050   -7.4160   14.2490 C   0  0  0  0  0  0
   24.6880   -7.6580   14.5310 C   0  0  0  0  0  0
   25.1660   -7.5360   15.8490 C   0  0  0  0  0  0
   22.4250   -7.0400   15.2880 C   0  0  0  0  0  0
   22.8830   -6.9150   16.5640 C   0  0  0  0  0  0
   24.3110   -7.1950   16.8560 C   0  0  0  0  0  0
   24.8530   -7.0130   18.2670 C   0  0  0  0  0  0
   25.4780   -8.0320   18.8880 N   0  0  0  0  0  0
   24.7490   -5.7360   18.9190 C   0  0  0  0  0  0
   24.0810   -4.6270   18.2900 N   0  0  0  0  0  0
   25.2400   -5.5590   20.1680 N   0  0  0  0  0  0
   25.8260   -6.5570   20.7740 C   0  0  0  0  0  0
   25.9920   -7.8480   20.0740 C   0  0  0  0  0  0
   26.6240   -9.0200   20.8010 C   0  0  0  0  0  0
   27.2230   -8.8390   22.0720 C   0  0  0  0  0  0
   26.5680  -10.2640   20.2240 C   0  0  0  0  0  0
   27.1370  -11.4280   20.9280 C   0  0  0  0  0  0
   27.0890  -12.7130   20.3670 O   0  0  0  0  0  0
   26.6140  -12.8850   19.0590 C   0  0  0  0  0  0
   27.7210  -11.2520   22.1440 C   0  0  0  0  0  0
   28.2690  -12.3530   22.7990 O   0  0  0  0  0  0
   27.4040  -13.2210   23.4820 C   0  0  0  0  0  0
   27.7760   -9.9800   22.7430 C   0  0  0  0  0  0
   28.3210   -9.8480   24.0230 O   0  0  0  0  0  0
   28.6130   -8.5720   24.5130 C   0  0  0  0  0  0
   25.3689   -7.9361   13.7266 H   0  0  0  0  0  0
   26.2194   -7.7140   16.0653 H   0  0  0  0  0  0
   21.3748   -6.8491   15.0672 H   0  0  0  0  0  0
   22.2072   -6.6121   17.3638 H   0  0  0  0  0  0
   23.6700   -4.7361   17.2755 H   0  0  0  0  0  0
   23.9815   -3.6704   18.8238 H   0  0  0  0  0  0
   26.1918   -6.4378   21.7939 H   0  0  0  0  0  0
   27.2629   -7.8514   22.5314 H   0  0  0  0  0  0
   26.1034  -10.3914   19.2463 H   0  0  0  0  0  0
   26.6501  -13.9518   18.7931 H   0  0  0  0  0  0
   27.2432  -12.3119   18.3621 H   0  0  0  0  0  0
   25.5761  -12.5262   18.9957 H   0  0  0  0  0  0
   27.9869  -14.0326   23.9419 H   0  0  0  0  0  0
   26.6777  -13.6468   22.7741 H   0  0  0  0  0  0
   26.8692  -12.6641   24.2655 H   0  0  0  0  0  0
   29.0318   -8.6555   25.5267 H   0  0  0  0  0  0
   27.6917   -7.9719   24.5452 H   0  0  0  0  0  0
   29.3453   -8.0844   23.8527 H   0  0  0  0  0  0
  1  2  1  0  0  0
  2  3  2  0  0  0
  2  4  1  0  0  0
  4  5  2  0  0  0
  4  7  1  0  0  0
  5  6  1  0  0  0
  5 29  1  0  0  0
  6  9  2  0  0  0
  6 30  1  0  0  0
  7  8  2  0  0  0
  7 31  1  0  0  0
  8  9  1  0  0  0
  8 32  1  0  0  0
  9 10  1  0  0  0
 10 11  2  0  0  0
 10 12  1  0  0  0
 11 16  1  0  0  0
 12 13  1  0  0  0
 12 14  2  0  0  0
 13 33  1  0  0  0
 13 34  1  0  0  0
 14 15  1  0  0  0
 15 16  2  0  0  0
 15 35  1  0  0  0
 16 17  1  0  0  0
 17 18  2  0  0  0
 17 19  1  0  0  0
 18 26  1  0  0  0
 18 36  1  0  0  0
 19 20  2  0  0  0
 19 37  1  0  0  0
 20 21  1  0  0  0
 20 23  1  0  0  0
 21 22  1  0  0  0
 22 38  1  0  0  0
 22 39  1  0  0  0
 22 40  1  0  0  0
 23 24  1  0  0  0
 23 26  2  0  0  0
 24 25  1  0  0  0
 25 41  1  0  0  0
 25 42  1  0  0  0
 25 43  1  0  0  0
 26 27  1  0  0  0
 27 28  1  0  0  0
 28 44  1  0  0  0
 28 45  1  0  0  0
 28 46  1  0  0  0
M  CHG  1   1  -1
M  END
> <s_m_source_file>
../2xkd_ligand.sdf

> <i_m_source_file_index>
1

> <s_epik_input>
W09IXUMoPU8pYzFbY0hdW2NIXWMoW2NIXVtjSF0xKS1jMm5jKFtjSF1uYzJbTkgyXSktYzNbY0hdYyhPW0NIM10pYyhPW0NIM10pYyhbY0hdMylPW0NIM10=

> <s_epik_cmdline>
J2VwaWtfYXBwJywgJy1pbWFlJywgJ2xpZ2FuZF9wcm8ubWFlJywgJy1vbWFlJywgJ2xpZ2FuZF9wcmVwLm1hZScsICctbXMnLCAnMScsICctcGgnLCAnNycsICctcGh0JywgJzAuNScsICctbnQn

> <r_lp_tautomer_probability>
1

> <r_epik_Ionization_Penalty>
  0.0007

> <r_epik_Ionization_Penalty_Charging>
  0.0007

> <r_epik_Ionization_Penalty_Neutral>
  0.0000

> <r_epik_State_Penalty>
 -0.0000

> <r_epik_Charging_Adjusted_Penalty>
0.000679874453596237

> <i_epik_Tot_Q>
-1

> <i_epik_Tot_abs_Q>
1

$$$$
