2xke_ligand
                    3D
 Schrodinger Suite 2020-3.
 43 45  0  0  1  0            999 V2000
  -22.7460    7.2100   16.4480 C   0  0  0  0  0  0
  -22.3490    6.9820   14.9860 C   0  0  0  0  0  0
  -23.0220    7.9920   14.0840 C   0  0  0  0  0  0
  -22.6180    7.7310   12.6530 C   0  0  0  0  0  0
  -21.9200    6.8140   12.2270 O   0  0  0  0  0  0
  -23.3230    8.4850   11.7790 O   0  5  0  0  0  0
  -24.5240    7.8580   14.3220 C   0  0  0  0  0  0
  -24.9800    8.0770   15.7770 C   0  0  0  0  0  0
  -24.2230    7.1490   16.6760 N   0  0  0  0  0  0
  -24.7210    6.8900   17.9790 C   0  0  0  0  0  0
  -25.2600    7.9270   18.6830 N   0  0  0  0  0  0
  -24.5390    5.6140   18.6020 C   0  0  0  0  0  0
  -24.0130    4.4920   18.0000 N   0  0  0  0  0  0
  -24.9380    5.4430   19.9050 N   0  0  0  0  0  0
  -25.4790    6.4770   20.5720 C   0  0  0  0  0  0
  -25.6470    7.7410   19.9690 C   0  0  0  0  0  0
  -26.2840    8.8240   20.7690 C   0  0  0  0  0  0
  -27.0680    8.6300   21.9040 C   0  0  0  0  0  0
  -26.0800   10.1390   20.3130 C   0  0  0  0  0  0
  -26.6280   11.2430   20.9840 C   0  0  0  0  0  0
  -27.4080   11.0510   22.1310 C   0  0  0  0  0  0
  -27.6190    9.7380   22.5720 C   0  0  0  0  0  0
  -28.3320    9.4520   23.7050 O   0  0  0  0  0  0
  -29.2910   10.3970   24.1460 C   0  0  0  0  0  0
  -22.2811    6.4380   17.0788 H   0  0  0  0  0  0
  -22.4016    8.2036   16.7708 H   0  0  0  0  0  0
  -21.2587    7.0842   14.8819 H   0  0  0  0  0  0
  -22.6537    5.9713   14.6766 H   0  0  0  0  0  0
  -22.7096    9.0248   14.2979 H   0  0  0  0  0  0
  -25.0596    8.5996   13.7112 H   0  0  0  0  0  0
  -24.8510    6.8462   14.0405 H   0  0  0  0  0  0
  -24.7817    9.1184   16.0706 H   0  0  0  0  0  0
  -26.0577    7.8720   15.8583 H   0  0  0  0  0  0
  -23.6677    4.5384   16.9566 H   0  0  0  0  0  0
  -23.9383    3.5498   18.5627 H   0  0  0  0  0  0
  -25.7960    6.3351   21.6052 H   0  0  0  0  0  0
  -27.2540    7.6216   22.2735 H   0  0  0  0  0  0
  -25.4819   10.3044   19.4169 H   0  0  0  0  0  0
  -26.4463   12.2513   20.6119 H   0  0  0  0  0  0
  -27.8384   11.8982   22.6651 H   0  0  0  0  0  0
  -29.7768   10.0267   25.0608 H   0  0  0  0  0  0
  -30.0486   10.5436   23.3621 H   0  0  0  0  0  0
  -28.7921   11.3543   24.3575 H   0  0  0  0  0  0
  1  2  1  0  0  0
  1  9  1  0  0  0
  1 25  1  0  0  0
  1 26  1  0  0  0
  2  3  1  0  0  0
  2 27  1  0  0  0
  2 28  1  0  0  0
  3  4  1  0  0  0
  3  7  1  0  0  0
  3 29  1  0  0  0
  4  5  2  0  0  0
  4  6  1  0  0  0
  7  8  1  0  0  0
  7 30  1  0  0  0
  7 31  1  0  0  0
  8  9  1  0  0  0
  8 32  1  0  0  0
  8 33  1  0  0  0
  9 10  1  0  0  0
 10 11  2  0  0  0
 10 12  1  0  0  0
 11 16  1  0  0  0
 12 13  1  0  0  0
 12 14  2  0  0  0
 13 34  1  0  0  0
 13 35  1  0  0  0
 14 15  1  0  0  0
 15 16  2  0  0  0
 15 36  1  0  0  0
 16 17  1  0  0  0
 17 18  2  0  0  0
 17 19  1  0  0  0
 18 22  1  0  0  0
 18 37  1  0  0  0
 19 20  2  0  0  0
 19 38  1  0  0  0
 20 21  1  0  0  0
 20 39  1  0  0  0
 21 22  2  0  0  0
 21 40  1  0  0  0
 22 23  1  0  0  0
 23 24  1  0  0  0
 24 41  1  0  0  0
 24 42  1  0  0  0
 24 43  1  0  0  0
M  CHG  1   6  -1
M  END
> <s_m_source_file>
../2xke_ligand.sdf

> <i_m_source_file_index>
1

> <s_epik_input>
Tz1DKFtPSF0pW0NIXTFbQ0gyXVtDSDJdTihbQ0gyXVtDSDJdMSljMm5jKFtjSF1uYzJbTkgyXSktYzNbY0hdYyhPW0NIM10pW2NIXVtjSF1bY0hdMw==

> <s_epik_cmdline>
J2VwaWtfYXBwJywgJy1pbWFlJywgJ2xpZ2FuZF9wcm8ubWFlJywgJy1vbWFlJywgJ2xpZ2FuZF9wcmVwLm1hZScsICctbXMnLCAnMScsICctcGgnLCAnNycsICctcGh0JywgJzAuNScsICctbnQn

> <r_lp_tautomer_probability>
1

> <r_epik_Ionization_Penalty>
  0.0028

> <r_epik_Ionization_Penalty_Charging>
  0.0022

> <r_epik_Ionization_Penalty_Neutral>
  0.0006

> <r_epik_State_Penalty>
 -0.0000

> <r_epik_Charging_Adjusted_Penalty>
0.00222523585091658

> <i_epik_Tot_Q>
-1

> <i_epik_Tot_abs_Q>
1

$$$$
