2xkf_ligand
                    3D
 Schrodinger Suite 2020-3.
 51 53  0  0  1  0            999 V2000
  -26.1830   16.5240  -19.0830 C   0  0  0  0  0  0
  -27.1310   16.8110  -20.0470 O   0  0  0  0  0  0
  -27.1060   18.0280  -20.7090 C   0  0  0  0  0  0
  -26.5220   19.2250  -20.0550 C   0  0  0  0  0  0
  -26.5010   20.5020  -20.7520 C   0  0  0  0  0  0
  -25.9090   21.6290  -20.0950 C   0  0  0  0  0  0
  -25.7730   22.8880  -20.7690 C   0  0  0  0  0  0
  -25.1790   23.9730  -20.1040 N   0  0  0  0  0  0
  -24.7200   23.8280  -18.7830 C   0  0  0  0  0  0
  -24.1040   24.9120  -18.1100 N   0  0  0  0  0  0
  -24.8480   22.5650  -18.1180 C   0  0  0  0  0  0
  -24.3480   22.4240  -16.7570 N   0  0  0  0  0  0
  -25.1390   21.4770  -15.9620 C   0  0  0  0  0  0
  -24.4390   20.9950  -14.6900 C   0  0  0  0  0  0
  -23.3340   21.8960  -14.1890 C   0  0  0  0  0  0
  -22.8700   21.7250  -12.7900 C   0  0  0  0  0  0
  -22.9460   20.6290  -12.2640 O   0  0  0  0  0  0
  -22.1310   22.7110  -12.1900 O   0  5  0  0  0  0
  -22.3340   22.3120  -15.2580 C   0  0  0  0  0  0
  -22.9020   22.1940  -16.6950 C   0  0  0  0  0  0
  -25.4320   21.4790  -18.7720 N   0  0  0  0  0  0
  -27.0600   20.6200  -22.0960 C   0  0  0  0  0  0
  -27.6410   19.4280  -22.7410 C   0  0  0  0  0  0
  -28.1730   19.5180  -24.0120 O   0  0  0  0  0  0
  -28.3930   20.7590  -24.5680 C   0  0  0  0  0  0
  -27.6590   18.1380  -22.0380 C   0  0  0  0  0  0
  -28.1950   17.0170  -22.6330 O   0  0  0  0  0  0
  -27.3450   16.0110  -23.0470 C   0  0  0  0  0  0
  -26.3674   15.5192  -18.6751 H   0  0  0  0  0  0
  -26.2472   17.2659  -18.2734 H   0  0  0  0  0  0
  -25.1800   16.5585  -19.5334 H   0  0  0  0  0  0
  -26.1076   19.1475  -19.0498 H   0  0  0  0  0  0
  -26.1292   23.0020  -21.7928 H   0  0  0  0  0  0
  -24.0016   25.8849  -18.6129 H   0  0  0  0  0  0
  -23.7282   24.7807  -17.0846 H   0  0  0  0  0  0
  -26.0806   21.9545  -15.6531 H   0  0  0  0  0  0
  -25.3612   20.5859  -16.5675 H   0  0  0  0  0  0
  -25.1737   20.9144  -13.8753 H   0  0  0  0  0  0
  -23.9843   20.0101  -14.8724 H   0  0  0  0  0  0
  -23.8488   22.8367  -13.9438 H   0  0  0  0  0  0
  -22.0419   23.3605  -15.0987 H   0  0  0  0  0  0
  -21.4431   21.6698  -15.1965 H   0  0  0  0  0  0
  -22.6756   21.1824  -17.0628 H   0  0  0  0  0  0
  -22.3855   22.9361  -17.3215 H   0  0  0  0  0  0
  -27.0479   21.5778  -22.6162 H   0  0  0  0  0  0
  -28.8169   20.6392  -25.5759 H   0  0  0  0  0  0
  -27.4406   21.3056  -24.6333 H   0  0  0  0  0  0
  -29.0971   21.3231  -23.9387 H   0  0  0  0  0  0
  -27.9322   15.1969  -23.4969 H   0  0  0  0  0  0
  -26.7853   15.6249  -22.1823 H   0  0  0  0  0  0
  -26.6403   16.4097  -23.7916 H   0  0  0  0  0  0
  1  2  1  0  0  0
  1 29  1  0  0  0
  1 30  1  0  0  0
  1 31  1  0  0  0
  2  3  1  0  0  0
  3  4  2  0  0  0
  3 26  1  0  0  0
  4  5  1  0  0  0
  4 32  1  0  0  0
  5  6  1  0  0  0
  5 22  2  0  0  0
  6  7  2  0  0  0
  6 21  1  0  0  0
  7  8  1  0  0  0
  7 33  1  0  0  0
  8  9  2  0  0  0
  9 10  1  0  0  0
  9 11  1  0  0  0
 10 34  1  0  0  0
 10 35  1  0  0  0
 11 12  1  0  0  0
 11 21  2  0  0  0
 12 13  1  0  0  0
 12 20  1  0  0  0
 13 14  1  0  0  0
 13 36  1  0  0  0
 13 37  1  0  0  0
 14 15  1  0  0  0
 14 38  1  0  0  0
 14 39  1  0  0  0
 15 16  1  0  0  0
 15 19  1  0  0  0
 15 40  1  0  0  0
 16 17  2  0  0  0
 16 18  1  0  0  0
 19 20  1  0  0  0
 19 41  1  0  0  0
 19 42  1  0  0  0
 20 43  1  0  0  0
 20 44  1  0  0  0
 22 23  1  0  0  0
 22 45  1  0  0  0
 23 24  1  0  0  0
 23 26  2  0  0  0
 24 25  1  0  0  0
 25 46  1  0  0  0
 25 47  1  0  0  0
 25 48  1  0  0  0
 26 27  1  0  0  0
 27 28  1  0  0  0
 28 49  1  0  0  0
 28 50  1  0  0  0
 28 51  1  0  0  0
M  CHG  1  18  -1
M  END
> <s_m_source_file>
../2xkf_ligand.sdf

> <i_m_source_file_index>
1

> <s_epik_input>
W0NIM11PYzFjKE9bQ0gzXSlbY0hdYyhbY0hdYzFPW0NIM10pLWMyW2NIXW5jKFtOSDJdKWMobjIpTjNbQ0gyXVtDSDJdW0NIXShDKD1PKVtPSF0pW0NIMl1bQ0gyXTM=

> <s_epik_cmdline>
J2VwaWtfYXBwJywgJy1pbWFlJywgJ2xpZ2FuZF9wcm8ubWFlJywgJy1vbWFlJywgJ2xpZ2FuZF9wcmVwLm1hZScsICctbXMnLCAnMScsICctcGgnLCAnNycsICctcGh0JywgJzAuNScsICctbnQn

> <r_lp_tautomer_probability>
1

> <r_epik_Ionization_Penalty>
  0.0030

> <r_epik_Ionization_Penalty_Charging>
  0.0022

> <r_epik_Ionization_Penalty_Neutral>
  0.0008

> <r_epik_State_Penalty>
 -0.0000

> <r_epik_Charging_Adjusted_Penalty>
0.00222523585091658

> <i_epik_Tot_Q>
-1

> <i_epik_Tot_abs_Q>
1

$$$$
