2xl2_ligand
                    3D
 Schrodinger Suite 2020-3.
137136  0  0  1  0            999 V2000
   13.1240   14.9420  -20.7170 N   0  3  0  0  0  0
   13.6340   15.6210  -21.9100 C   0  0  2  0  0  0
   15.1660   15.5910  -21.9950 C   0  0  0  0  0  0
   15.7410   15.1290  -22.9880 O   0  0  0  0  0  0
   13.1300   17.0710  -21.9680 C   0  0  0  0  0  0
   11.7980   17.2080  -22.7020 C   0  0  0  0  0  0
   11.0640   16.2000  -22.8320 O   0  5  0  0  0  0
   11.4890   18.3370  -23.1490 O   0  0  0  0  0  0
   15.8180   16.0980  -20.9550 N   0  0  0  0  0  0
   17.2720   16.1290  -20.8950 C   0  0  2  0  0  0
   17.7580   15.3000  -19.7090 C   0  0  0  0  0  0
   17.0170   15.0900  -18.7470 O   0  0  0  0  0  0
   17.7740   17.5710  -20.7690 C   0  0  0  0  0  0
   19.0000   14.8310  -19.7840 N   0  0  0  0  0  0
   19.6130   14.0630  -18.7040 C   0  0  2  0  0  0
   19.3990   14.7260  -17.3410 C   0  0  0  0  0  0
   19.3890   15.9540  -17.2380 O   0  0  0  0  0  0
   21.1110   13.9310  -18.9570 C   0  0  0  0  0  0
   21.8230   12.9790  -18.0210 C   0  0  0  0  0  0
   22.0730   11.6280  -18.6620 C   0  0  0  0  0  0
   21.3830   11.3060  -19.6540 O   0  0  0  0  0  0
   22.9630   10.8920  -18.1790 O   0  5  0  0  0  0
   19.2390   13.9080  -16.3020 N   0  0  0  0  0  0
   19.0670   14.3920  -14.9310 C   0  0  2  0  0  0
   19.8900   13.5290  -13.9870 C   0  0  0  0  0  0
   19.6780   12.3250  -13.9010 O   0  0  0  0  0  0
   17.6280   14.1840  -14.4350 C   0  0  0  0  0  0
   17.3960   14.7890  -13.0740 C   0  0  0  0  0  0
   16.5720   14.4900  -15.4730 C   0  0  0  0  0  0
   20.8080   14.1410  -13.2600 N   0  0  0  0  0  0
   21.6410   13.4110  -12.3260 C   0  0  2  0  0  0
   21.0810   13.5360  -10.9150 C   0  0  0  0  0  0
   20.9830   14.6320  -10.3710 O   0  0  0  0  0  0
   23.0650   13.9480  -12.3660 C   0  0  0  0  0  0
   23.9760   13.2570  -11.3760 C   0  0  0  0  0  0
   25.0630   12.7980  -11.7970 O   0  0  0  0  0  0
   23.6010   13.1680  -10.1830 O   0  5  0  0  0  0
   20.7700   12.3920  -10.3180 N   0  0  0  0  0  0
   19.9730   12.3040   -9.1070 C   0  0  2  0  0  0
   20.8240   11.8560   -7.9150 C   0  0  0  0  0  0
   20.3930   11.9260   -6.7750 O   0  0  0  0  0  0
   18.8280   11.3120   -9.4330 C   0  0  0  0  0  0
   18.7990   10.0720   -8.5640 C   0  0  0  0  0  0
   17.4970   11.9990   -9.7300 C   0  0  0  0  0  0
   22.0530   11.4280   -8.1860 N   0  0  0  0  0  0
   22.9150   10.8740   -7.1500 C   0  0  2  0  0  0
   24.1020   11.7700   -6.8530 C   0  0  0  0  0  0
   24.6940   11.6840   -5.7770 O   0  0  0  0  0  0
   23.4720    9.4840   -7.5520 C   0  0  2  0  0  0
   24.2920    9.6120   -8.7230 O   0  0  0  0  0  0
   22.3310    8.4840   -7.8170 C   0  0  0  0  0  0
   24.4650   12.6110   -7.8170 N   0  0  0  0  0  0
   25.6390   13.4670   -7.6670 C   0  0  2  0  0  0
   25.3740   14.5910   -6.6900 C   0  0  0  0  0  0
   24.3670   15.2830   -6.7940 O   0  0  0  0  0  0
   26.0680   14.0570   -9.0140 C   0  0  0  0  0  0
   26.6450   13.0680   -9.8480 O   0  0  0  0  0  0
   26.2750   14.7670   -5.7360 N   0  0  0  0  0  0
   26.1870   15.9090   -4.8390 C   0  0  2  0  0  0
   27.4290   16.7780   -5.0150 C   0  0  0  0  0  0
   28.5150   16.4480   -4.5440 O   0  0  0  0  0  0
   25.9720   15.4790   -3.3710 C   0  0  0  0  0  0
   26.2430   13.9810   -3.2070 C   0  0  0  0  0  0
   26.8170   16.3270   -2.4110 C   0  0  0  0  0  0
   27.2610   17.8790   -5.7370 N   0  0  0  0  0  0
   28.3810   18.7410   -6.0860 C   0  0  2  0  0  0
   28.4830   19.9310   -5.1370 C   0  0  0  0  0  0
   27.6090   20.1550   -4.2940 O   0  5  0  0  0  0
   28.2590   19.2220   -7.5380 C   0  0  0  0  0  0
   27.0300   20.0930   -7.7680 C   0  0  0  0  0  0
   26.0750   20.0110   -6.9620 O   0  0  0  0  0  0
   27.0210   20.8590   -8.7600 O   0  5  0  0  0  0
   29.4490   20.6940   -5.1910 O   0  0  0  0  0  0
   13.4969   13.9074  -20.6964 H   0  0  0  0  0  0
   12.0243   14.9350  -20.7411 H   0  0  0  0  0  0
   13.4677   15.4736  -19.8174 H   0  0  0  0  0  0
   13.2228   15.0327  -22.7436 H   0  0  0  0  0  0
   12.9898   17.4516  -20.9455 H   0  0  0  0  0  0
   13.8679   17.6949  -22.4935 H   0  0  0  0  0  0
   15.2244   16.5027  -20.1220 H   0  0  0  0  0  0
   17.6238   15.6897  -21.8401 H   0  0  0  0  0  0
   17.4186   18.1593  -21.6278 H   0  0  0  0  0  0
   18.8738   17.5761  -20.7510 H   0  0  0  0  0  0
   17.3900   18.0129  -19.8377 H   0  0  0  0  0  0
   19.5691   15.0404  -20.7017 H   0  0  0  0  0  0
   19.1083   13.0859  -18.7266 H   0  0  0  0  0  0
   21.2790   13.5606  -19.9791 H   0  0  0  0  0  0
   21.5907   14.9139  -18.8397 H   0  0  0  0  0  0
   22.7949   13.4063  -17.7330 H   0  0  0  0  0  0
   21.2101   12.8226  -17.1211 H   0  0  0  0  0  0
   19.2396   12.8274  -16.5078 H   0  0  0  0  0  0
   19.3687   15.4488  -14.9779 H   0  0  0  0  0  0
   17.4826   13.1065  -14.2684 H   0  0  0  0  0  0
   18.2186   14.5047  -12.4013 H   0  0  0  0  0  0
   16.4439   14.4190  -12.6658 H   0  0  0  0  0  0
   17.3562   15.8848  -13.1618 H   0  0  0  0  0  0
   16.8389   14.0026  -16.4223 H   0  0  0  0  0  0
   16.5106   15.5779  -15.6239 H   0  0  0  0  0  0
   15.5983   14.1121  -15.1279 H   0  0  0  0  0  0
   20.9330   15.2278  -13.3752 H   0  0  0  0  0  0
   21.6176   12.3617  -12.6554 H   0  0  0  0  0  0
   23.4849   13.7991  -13.3717 H   0  0  0  0  0  0
   23.0589   15.0216  -12.1265 H   0  0  0  0  0  0
   21.1528   11.4763  -10.7922 H   0  0  0  0  0  0
   19.6000   13.3067   -8.8511 H   0  0  0  0  0  0
   19.0593   10.8397  -10.3991 H   0  0  0  0  0  0
   19.8224    9.6892   -8.4371 H   0  0  0  0  0  0
   18.1765    9.3024   -9.0439 H   0  0  0  0  0  0
   18.3770   10.3238   -7.5799 H   0  0  0  0  0  0
   17.6724   12.8782  -10.3674 H   0  0  0  0  0  0
   17.0302   12.3175   -8.7863 H   0  0  0  0  0  0
   16.8297   11.2962  -10.2503 H   0  0  0  0  0  0
   22.4149   11.4999   -9.2223 H   0  0  0  0  0  0
   22.2428   10.8283   -6.2805 H   0  0  0  0  0  0
   24.1371    9.0916   -6.7687 H   0  0  0  0  0  0
   25.1596   10.2882   -8.7157 H   0  0  0  0  0  0
   21.7076    8.3916   -6.9154 H   0  0  0  0  0  0
   22.7560    7.5018   -8.0712 H   0  0  0  0  0  0
   21.7145    8.8444   -8.6537 H   0  0  0  0  0  0
   23.8657   12.6559   -8.7383 H   0  0  0  0  0  0
   26.4194   12.8040   -7.2652 H   0  0  0  0  0  0
   25.1903   14.4782   -9.5260 H   0  0  0  0  0  0
   26.8108   14.8508   -8.8467 H   0  0  0  0  0  0
   27.0042   13.3368  -10.8524 H   0  0  0  0  0  0
   27.0946   14.0418   -5.6244 H   0  0  0  0  0  0
   25.2957   16.4710   -5.1548 H   0  0  0  0  0  0
   24.9204   15.6528   -3.0992 H   0  0  0  0  0  0
   25.6170   13.4157   -3.9131 H   0  0  0  0  0  0
   26.0026   13.6754   -2.1780 H   0  0  0  0  0  0
   27.3040   13.7757   -3.4121 H   0  0  0  0  0  0
   26.5889   17.3920   -2.5649 H   0  0  0  0  0  0
   27.8846   16.1486   -2.6070 H   0  0  0  0  0  0
   26.5832   16.0482   -1.3729 H   0  0  0  0  0  0
   26.2451   18.1340   -6.0731 H   0  0  0  0  0  0
   29.2727   18.1082   -5.9655 H   0  0  0  0  0  0
   29.1466   19.8151   -7.8036 H   0  0  0  0  0  0
   28.1854   18.3523   -8.2074 H   0  0  0  0  0  0
  1  2  1  0  0  0
  1 74  1  0  0  0
  1 75  1  0  0  0
  1 76  1  0  0  0
  2  3  1  0  0  0
  2  5  1  0  0  0
  2 77  1  0  0  0
  3  4  2  0  0  0
  3  9  1  0  0  0
  5  6  1  0  0  0
  5 78  1  0  0  0
  5 79  1  0  0  0
  6  7  1  0  0  0
  6  8  2  0  0  0
  9 10  1  0  0  0
  9 80  1  0  0  0
 10 11  1  0  0  0
 10 13  1  0  0  0
 10 81  1  0  0  0
 11 12  2  0  0  0
 11 14  1  0  0  0
 13 82  1  0  0  0
 13 83  1  0  0  0
 13 84  1  0  0  0
 14 15  1  0  0  0
 14 85  1  0  0  0
 15 16  1  0  0  0
 15 18  1  0  0  0
 15 86  1  0  0  0
 16 17  2  0  0  0
 16 23  1  0  0  0
 18 19  1  0  0  0
 18 87  1  0  0  0
 18 88  1  0  0  0
 19 20  1  0  0  0
 19 89  1  0  0  0
 19 90  1  0  0  0
 20 21  2  0  0  0
 20 22  1  0  0  0
 23 24  1  0  0  0
 23 91  1  0  0  0
 24 25  1  0  0  0
 24 27  1  0  0  0
 24 92  1  0  0  0
 25 26  2  0  0  0
 25 30  1  0  0  0
 27 28  1  0  0  0
 27 29  1  0  0  0
 27 93  1  0  0  0
 28 94  1  0  0  0
 28 95  1  0  0  0
 28 96  1  0  0  0
 29 97  1  0  0  0
 29 98  1  0  0  0
 29 99  1  0  0  0
 30 31  1  0  0  0
 30100  1  0  0  0
 31 32  1  0  0  0
 31 34  1  0  0  0
 31101  1  0  0  0
 32 33  2  0  0  0
 32 38  1  0  0  0
 34 35  1  0  0  0
 34102  1  0  0  0
 34103  1  0  0  0
 35 36  2  0  0  0
 35 37  1  0  0  0
 38 39  1  0  0  0
 38104  1  0  0  0
 39 40  1  0  0  0
 39 42  1  0  0  0
 39105  1  0  0  0
 40 41  2  0  0  0
 40 45  1  0  0  0
 42 43  1  0  0  0
 42 44  1  0  0  0
 42106  1  0  0  0
 43107  1  0  0  0
 43108  1  0  0  0
 43109  1  0  0  0
 44110  1  0  0  0
 44111  1  0  0  0
 44112  1  0  0  0
 45 46  1  0  0  0
 45113  1  0  0  0
 46 47  1  0  0  0
 46 49  1  0  0  0
 46114  1  0  0  0
 47 48  2  0  0  0
 47 52  1  0  0  0
 49 50  1  0  0  0
 49 51  1  0  0  0
 49115  1  0  0  0
 50116  1  0  0  0
 51117  1  0  0  0
 51118  1  0  0  0
 51119  1  0  0  0
 52 53  1  0  0  0
 52120  1  0  0  0
 53 54  1  0  0  0
 53 56  1  0  0  0
 53121  1  0  0  0
 54 55  2  0  0  0
 54 58  1  0  0  0
 56 57  1  0  0  0
 56122  1  0  0  0
 56123  1  0  0  0
 57124  1  0  0  0
 58 59  1  0  0  0
 58125  1  0  0  0
 59 60  1  0  0  0
 59 62  1  0  0  0
 59126  1  0  0  0
 60 61  2  0  0  0
 60 65  1  0  0  0
 62 63  1  0  0  0
 62 64  1  0  0  0
 62127  1  0  0  0
 63128  1  0  0  0
 63129  1  0  0  0
 63130  1  0  0  0
 64131  1  0  0  0
 64132  1  0  0  0
 64133  1  0  0  0
 65 66  1  0  0  0
 65134  1  0  0  0
 66 67  1  0  0  0
 66 69  1  0  0  0
 66135  1  0  0  0
 67 68  1  0  0  0
 67 73  2  0  0  0
 69 70  1  0  0  0
 69136  1  0  0  0
 69137  1  0  0  0
 70 71  2  0  0  0
 70 72  1  0  0  0
M  CHG  6   1   1   7  -1  22  -1  37  -1  68  -1  72  -1
M  END
> <s_m_source_file>
../2xl2_ligand.sdf

> <i_m_source_file_index>
1

> <s_epik_input>
W09IXUMoPU8pW0NIMl1bQ0BIXShbTkgzK10pQyg9TylbTkhdW0NAQEhdKFtDSDNdKUMoPU8pW05IXVtDQEBIXShbQ0gyXVtDSDJdQyg9TylbT0hdKUMoPU8pW05IXVtDQEBIXShbQ0hdKFtDSDNdKVtDSDNdKUMoPU8pW05IXVtDQEBIXShbQ0gyXUMoPU8pW09IXSlDKD1PKVtOSF1bQ0BASF0oW0NIXShbQ0gzXSlbQ0gzXSlDKD1PKVtOSF1bQ0BASF0oW0NASF0oW09IXSlbQ0gzXSlDKD1PKVtOSF1bQ0BASF0oW0NIMl1bT0hdKUMoPU8pW05IXVtDQEBIXShbQ0hdKFtDSDNdKVtDSDNdKUMoPU8pW05IXVtDQEhdKEMoPU8pW09IXSlbQ0gyXUMoPU8pW09IXQ==

> <s_epik_cmdline>
J2VwaWtfYXBwJywgJy1pbWFlJywgJ2xpZ2FuZF9wcm8ubWFlJywgJy1vbWFlJywgJ2xpZ2FuZF9wcmVwLm1hZScsICctbXMnLCAnMScsICctcGgnLCAnNycsICctcGh0JywgJzAuNScsICctbnQn

> <r_epik_Ionization_Penalty>
  0.0247

> <r_epik_Ionization_Penalty_Charging>
  0.0247

> <r_epik_Ionization_Penalty_Neutral>
  0.0000

> <r_epik_State_Penalty>
  0.0161

> <r_epik_Charging_Adjusted_Penalty>
0.0407798398060022

> <i_epik_Tot_Q>
-4

> <i_epik_Tot_abs_Q>
6

$$$$
