2xl3_ligand
                    3D
 Schrodinger Suite 2020-3.
142141  0  0  1  0            999 V2000
   11.8940  -14.1090  -22.2690 N   0  3  0  0  0  0
   11.3150  -15.1230  -23.1490 C   0  0  2  0  0  0
    9.8980  -15.4880  -22.7010 C   0  0  0  0  0  0
    9.7210  -16.2960  -21.7860 O   0  0  0  0  0  0
   12.2020  -16.3770  -23.1770 C   0  0  0  0  0  0
   11.7660  -17.3820  -24.2340 C   0  0  0  0  0  0
   11.0440  -16.9770  -25.1700 O   0  0  0  0  0  0
   12.1490  -18.5710  -24.1310 O   0  5  0  0  0  0
    8.8960  -14.8930  -23.3460 N   0  0  0  0  0  0
    7.4960  -15.1030  -22.9670 C   0  0  2  0  0  0
    7.1230  -14.4050  -21.6500 C   0  0  0  0  0  0
    7.9410  -14.2910  -20.7350 O   0  0  0  0  0  0
    7.1640  -16.5990  -22.8980 C   0  0  0  0  0  0
    6.0360  -16.9450  -21.9280 C   0  0  0  0  0  0
    5.6960  -18.4280  -21.9160 C   0  0  0  0  0  0
    4.9180  -18.8540  -21.0310 O   0  5  0  0  0  0
    6.2050  -19.1630  -22.7910 O   0  0  0  0  0  0
    5.8770  -13.9470  -21.5670 N   0  0  0  0  0  0
    5.4040  -13.1880  -20.4140 C   0  0  2  0  0  0
    5.4940  -13.9640  -19.1000 C   0  0  0  0  0  0
    5.6350  -15.1870  -19.1000 O   0  0  0  0  0  0
    3.9720  -12.6890  -20.6460 C   0  0  0  0  0  0
    3.7940  -11.8480  -21.9190 C   0  0  0  0  0  0
    4.0370  -10.3520  -21.7090 C   0  0  0  0  0  0
    4.8580   -9.7620  -22.4500 O   0  5  0  0  0  0
    3.3980   -9.7600  -20.8110 O   0  0  0  0  0  0
    5.4120  -13.2290  -17.9900 N   0  0  0  0  0  0
    5.5190  -13.7760  -16.6380 C   0  0  2  0  0  0
    4.7530  -12.9020  -15.6460 C   0  0  0  0  0  0
    5.1090  -11.7530  -15.4100 O   0  0  0  0  0  0
    6.9900  -13.8650  -16.1820 C   0  0  0  0  0  0
    7.0930  -13.7460  -14.6760 C   0  0  0  0  0  0
    7.6250  -15.1550  -16.6640 C   0  0  0  0  0  0
    3.7000  -13.4580  -15.0700 N   0  0  0  0  0  0
    2.8710  -12.7690  -14.1000 C   0  0  2  0  0  0
    3.4110  -12.9420  -12.6690 C   0  0  0  0  0  0
    3.4710  -14.0550  -12.1320 O   0  0  0  0  0  0
    1.4410  -13.3090  -14.2000 C   0  0  0  0  0  0
    0.4800  -12.6350  -13.2340 C   0  0  0  0  0  0
    0.8940  -12.2970  -12.1010 O   0  5  0  0  0  0
   -0.7020  -12.4590  -13.6090 O   0  0  0  0  0  0
    3.8040  -11.8270  -12.0640 N   0  0  0  0  0  0
    4.3220  -11.8410  -10.7050 C   0  0  2  0  0  0
    3.3350  -11.1850   -9.7490 C   0  0  0  0  0  0
    3.6840  -10.8570   -8.6150 O   0  0  0  0  0  0
    5.6760  -11.1140  -10.6100 C   0  0  0  0  0  0
    5.6290  -10.0420   -9.5320 C   0  0  0  0  0  0
    6.7930  -12.1090  -10.3340 C   0  0  0  0  0  0
    2.1010  -10.9950  -10.2070 N   0  0  0  0  0  0
    1.0880  -10.3660   -9.3720 C   0  0  2  0  0  0
   -0.0890  -11.2600   -9.0050 C   0  0  0  0  0  0
   -0.6480  -11.1300   -7.9170 O   0  0  0  0  0  0
    0.5270   -9.1000  -10.0450 C   0  0  2  0  0  0
    0.0470   -9.4170  -11.3630 O   0  0  0  0  0  0
    1.6030   -8.0380  -10.1390 C   0  0  0  0  0  0
   -0.4690  -12.1560   -9.9080 N   0  0  0  0  0  0
   -1.7140  -12.9040   -9.7500 C   0  0  2  0  0  0
   -1.5020  -14.2340   -9.0510 C   0  0  0  0  0  0
   -0.5360  -14.9400   -9.3300 O   0  0  0  0  0  0
   -2.4020  -13.1050  -11.1070 C   0  0  0  0  0  0
   -2.8460  -11.8610  -11.6360 O   0  0  0  0  0  0
   -2.4200  -14.5660   -8.1480 N   0  0  0  0  0  0
   -2.2610  -15.7100   -7.2540 C   0  0  2  0  0  0
   -3.1640  -16.8730   -7.6510 C   0  0  0  0  0  0
   -3.9760  -17.3650   -6.8630 O   0  0  0  0  0  0
   -2.5000  -15.3210   -5.7810 C   0  0  0  0  0  0
   -1.4510  -14.3220   -5.3330 C   0  0  0  0  0  0
   -3.8900  -14.7320   -5.6010 C   0  0  0  0  0  0
   -3.0020  -17.3080   -8.8920 N   0  0  0  0  0  0
   -3.7420  -18.4410   -9.4120 C   0  0  2  0  0  0
   -2.7380  -19.4010  -10.0350 C   0  0  0  0  0  0
   -1.5340  -19.2530   -9.7980 O   0  5  0  0  0  0
   -4.7800  -17.9710  -10.4360 C   0  0  0  0  0  0
   -5.7570  -16.9560   -9.8520 C   0  0  0  0  0  0
   -6.5620  -17.3390   -8.9750 O   0  5  0  0  0  0
   -5.7180  -15.7760  -10.2640 O   0  0  0  0  0  0
   -3.0900  -20.3300  -10.7680 O   0  0  0  0  0  0
   11.2477  -13.2189  -22.2602 H   0  0  0  0  0  0
   12.8936  -13.8327  -22.6358 H   0  0  0  0  0  0
   11.9763  -14.5125  -21.2490 H   0  0  0  0  0  0
   11.2774  -14.6591  -24.1457 H   0  0  0  0  0  0
   13.2402  -16.0869  -23.3961 H   0  0  0  0  0  0
   12.1600  -16.8778  -22.1985 H   0  0  0  0  0  0
    9.1446  -14.2274  -24.1857 H   0  0  0  0  0  0
    6.9328  -14.6265  -23.7830 H   0  0  0  0  0  0
    6.8544  -16.9521  -23.8927 H   0  0  0  0  0  0
    8.0537  -17.1574  -22.5713 H   0  0  0  0  0  0
    6.3308  -16.6616  -20.9068 H   0  0  0  0  0  0
    5.1263  -16.3960  -22.2127 H   0  0  0  0  0  0
    5.1954  -14.1571  -22.4044 H   0  0  0  0  0  0
    6.1099  -12.3464  -20.3563 H   0  0  0  0  0  0
    3.2930  -13.5502  -20.7318 H   0  0  0  0  0  0
    3.6611  -12.0600  -19.7988 H   0  0  0  0  0  0
    4.5040  -12.1898  -22.6865 H   0  0  0  0  0  0
    2.7661  -11.9626  -22.2935 H   0  0  0  0  0  0
    5.2542  -12.1502  -18.1360 H   0  0  0  0  0  0
    5.0694  -14.7773  -16.7102 H   0  0  0  0  0  0
    7.5558  -13.0298  -16.6205 H   0  0  0  0  0  0
    6.6268  -12.8046  -14.3499 H   0  0  0  0  0  0
    8.1522  -13.7527  -14.3793 H   0  0  0  0  0  0
    6.5749  -14.5943  -14.2049 H   0  0  0  0  0  0
    7.5384  -15.2196  -17.7587 H   0  0  0  0  0  0
    7.1099  -16.0113  -16.2043 H   0  0  0  0  0  0
    8.6872  -15.1697  -16.3787 H   0  0  0  0  0  0
    3.4643  -14.4930  -15.3585 H   0  0  0  0  0  0
    2.9173  -11.7047  -14.3740 H   0  0  0  0  0  0
    1.0581  -13.1466  -15.2184 H   0  0  0  0  0  0
    1.4391  -14.3857  -13.9749 H   0  0  0  0  0  0
    3.7307  -10.8777  -12.6149 H   0  0  0  0  0  0
    4.4375  -12.9093  -10.4695 H   0  0  0  0  0  0
    5.8922  -10.6192  -11.5684 H   0  0  0  0  0  0
    4.8152   -9.3356   -9.7527 H   0  0  0  0  0  0
    6.5872   -9.5022   -9.5097 H   0  0  0  0  0  0
    5.4506  -10.5130   -8.5541 H   0  0  0  0  0  0
    6.8072  -12.8730  -11.1252 H   0  0  0  0  0  0
    6.6215  -12.5921   -9.3608 H   0  0  0  0  0  0
    7.7580  -11.5813  -10.3164 H   0  0  0  0  0  0
    1.8491  -11.3184  -11.2278 H   0  0  0  0  0  0
    1.6676  -10.1606   -8.4599 H   0  0  0  0  0  0
   -0.3397   -8.7097   -9.4914 H   0  0  0  0  0  0
   -0.7418  -10.1724  -11.4942 H   0  0  0  0  0  0
    1.9691   -7.7967   -9.1302 H   0  0  0  0  0  0
    1.1851   -7.1328  -10.6037 H   0  0  0  0  0  0
    2.4361   -8.4134  -10.7513 H   0  0  0  0  0  0
    0.1703  -12.3312  -10.7859 H   0  0  0  0  0  0
   -2.3325  -12.2742   -9.0937 H   0  0  0  0  0  0
   -1.6921  -13.5586  -11.8144 H   0  0  0  0  0  0
   -3.2706  -13.7685  -10.9830 H   0  0  0  0  0  0
   -3.3617  -11.8289  -12.6071 H   0  0  0  0  0  0
   -3.3247  -13.9432   -8.0886 H   0  0  0  0  0  0
   -1.2124  -16.0082   -7.4007 H   0  0  0  0  0  0
   -2.4237  -16.2180   -5.1489 H   0  0  0  0  0  0
   -0.4496  -14.7570   -5.4670 H   0  0  0  0  0  0
   -1.6061  -14.0787   -4.2715 H   0  0  0  0  0  0
   -1.5364  -13.4057   -5.9355 H   0  0  0  0  0  0
   -4.6434  -15.4635   -5.9284 H   0  0  0  0  0  0
   -3.9813  -13.8167   -6.2042 H   0  0  0  0  0  0
   -4.0510  -14.4897   -4.5402 H   0  0  0  0  0  0
   -2.2799  -16.7815   -9.5334 H   0  0  0  0  0  0
   -4.2677  -18.9198   -8.5728 H   0  0  0  0  0  0
   -4.2677  -17.4978  -11.2866 H   0  0  0  0  0  0
   -5.3609  -18.8346  -10.7921 H   0  0  0  0  0  0
  1  2  1  0  0  0
  1 78  1  0  0  0
  1 79  1  0  0  0
  1 80  1  0  0  0
  2  3  1  0  0  0
  2  5  1  0  0  0
  2 81  1  0  0  0
  3  4  2  0  0  0
  3  9  1  0  0  0
  5  6  1  0  0  0
  5 82  1  0  0  0
  5 83  1  0  0  0
  6  7  2  0  0  0
  6  8  1  0  0  0
  9 10  1  0  0  0
  9 84  1  0  0  0
 10 11  1  0  0  0
 10 13  1  0  0  0
 10 85  1  0  0  0
 11 12  2  0  0  0
 11 18  1  0  0  0
 13 14  1  0  0  0
 13 86  1  0  0  0
 13 87  1  0  0  0
 14 15  1  0  0  0
 14 88  1  0  0  0
 14 89  1  0  0  0
 15 16  1  0  0  0
 15 17  2  0  0  0
 18 19  1  0  0  0
 18 90  1  0  0  0
 19 20  1  0  0  0
 19 22  1  0  0  0
 19 91  1  0  0  0
 20 21  2  0  0  0
 20 27  1  0  0  0
 22 23  1  0  0  0
 22 92  1  0  0  0
 22 93  1  0  0  0
 23 24  1  0  0  0
 23 94  1  0  0  0
 23 95  1  0  0  0
 24 25  1  0  0  0
 24 26  2  0  0  0
 27 28  1  0  0  0
 27 96  1  0  0  0
 28 29  1  0  0  0
 28 31  1  0  0  0
 28 97  1  0  0  0
 29 30  2  0  0  0
 29 34  1  0  0  0
 31 32  1  0  0  0
 31 33  1  0  0  0
 31 98  1  0  0  0
 32 99  1  0  0  0
 32100  1  0  0  0
 32101  1  0  0  0
 33102  1  0  0  0
 33103  1  0  0  0
 33104  1  0  0  0
 34 35  1  0  0  0
 34105  1  0  0  0
 35 36  1  0  0  0
 35 38  1  0  0  0
 35106  1  0  0  0
 36 37  2  0  0  0
 36 42  1  0  0  0
 38 39  1  0  0  0
 38107  1  0  0  0
 38108  1  0  0  0
 39 40  1  0  0  0
 39 41  2  0  0  0
 42 43  1  0  0  0
 42109  1  0  0  0
 43 44  1  0  0  0
 43 46  1  0  0  0
 43110  1  0  0  0
 44 45  2  0  0  0
 44 49  1  0  0  0
 46 47  1  0  0  0
 46 48  1  0  0  0
 46111  1  0  0  0
 47112  1  0  0  0
 47113  1  0  0  0
 47114  1  0  0  0
 48115  1  0  0  0
 48116  1  0  0  0
 48117  1  0  0  0
 49 50  1  0  0  0
 49118  1  0  0  0
 50 51  1  0  0  0
 50 53  1  0  0  0
 50119  1  0  0  0
 51 52  2  0  0  0
 51 56  1  0  0  0
 53 54  1  0  0  0
 53 55  1  0  0  0
 53120  1  0  0  0
 54121  1  0  0  0
 55122  1  0  0  0
 55123  1  0  0  0
 55124  1  0  0  0
 56 57  1  0  0  0
 56125  1  0  0  0
 57 58  1  0  0  0
 57 60  1  0  0  0
 57126  1  0  0  0
 58 59  2  0  0  0
 58 62  1  0  0  0
 60 61  1  0  0  0
 60127  1  0  0  0
 60128  1  0  0  0
 61129  1  0  0  0
 62 63  1  0  0  0
 62130  1  0  0  0
 63 64  1  0  0  0
 63 66  1  0  0  0
 63131  1  0  0  0
 64 65  2  0  0  0
 64 69  1  0  0  0
 66 67  1  0  0  0
 66 68  1  0  0  0
 66132  1  0  0  0
 67133  1  0  0  0
 67134  1  0  0  0
 67135  1  0  0  0
 68136  1  0  0  0
 68137  1  0  0  0
 68138  1  0  0  0
 69 70  1  0  0  0
 69139  1  0  0  0
 70 71  1  0  0  0
 70 73  1  0  0  0
 70140  1  0  0  0
 71 72  1  0  0  0
 71 77  2  0  0  0
 73 74  1  0  0  0
 73141  1  0  0  0
 73142  1  0  0  0
 74 75  1  0  0  0
 74 76  2  0  0  0
M  CHG  7   1   1   8  -1  16  -1  25  -1  40  -1  72  -1  75  -1
M  END
> <s_m_source_file>
../2xl3_ligand.sdf

> <i_m_source_file_index>
1

> <s_epik_input>
Tz1DKFtPSF0pW0NIMl1bQ0BIXShbTkgzK10pQyg9TylbTkhdW0NAQEhdKFtDSDJdW0NIMl1DKD1PKVtPSF0pQyg9TylbTkhdW0NAQEhdKFtDSDJdW0NIMl1DKD1PKVtPSF0pQyg9TylbTkhdW0NAQEhdKFtDSF0oW0NIM10pW0NIM10pQyg9TylbTkhdW0NAQEhdKFtDSDJdQyg9TylbT0hdKUMoPU8pW05IXVtDQEBIXShbQ0hdKFtDSDNdKVtDSDNdKUMoPU8pW05IXVtDQEBIXShbQ0BIXShbT0hdKVtDSDNdKUMoPU8pW05IXVtDQEBIXShbQ0gyXVtPSF0pQyg9TylbTkhdW0NAQEhdKFtDSF0oW0NIM10pW0NIM10pQyg9TylbTkhdW0NASF0oQyg9TylbT0hdKVtDSDJdQyg9TylbT0hd

> <s_epik_cmdline>
J2VwaWtfYXBwJywgJy1pbWFlJywgJ2xpZ2FuZF9wcm8ubWFlJywgJy1vbWFlJywgJ2xpZ2FuZF9wcmVwLm1hZScsICctbXMnLCAnMScsICctcGgnLCAnNycsICctcGh0JywgJzAuNScsICctbnQn

> <r_lp_tautomer_probability>
1

> <r_epik_Ionization_Penalty>
  0.0256

> <r_epik_Ionization_Penalty_Charging>
  0.0256

> <r_epik_Ionization_Penalty_Neutral>
  0.0000

> <r_epik_State_Penalty>
 -0.0000

> <r_epik_Charging_Adjusted_Penalty>
0.0255944191429186

> <i_epik_Tot_Q>
-5

> <i_epik_Tot_abs_Q>
7

$$$$
