2xm2_ligand
                    3D
 Schrodinger Suite 2020-3.
 30 30  0  0  1  0            999 V2000
    7.9720  -11.4390    3.7290 C   0  0  1  0  0  0
    7.6310  -10.4130    2.6440 C   0  0  2  0  0  0
    6.7430  -11.0690    1.5840 C   0  0  1  0  0  0
    5.4150  -11.4700    2.2220 C   0  0  1  0  0  0
    4.3770  -11.9510    1.1940 C   0  0  0  0  0  0
    7.2440  -10.3550    5.8410 C   0  0  0  0  0  0
    7.5830   -9.7100    7.1750 C   0  0  0  0  0  0
    8.2890  -10.8740    5.0780 N   0  0  0  0  0  0
    6.1760  -14.2900    4.9660 O   0  0  0  0  0  0
    8.8850   -9.9820    2.0660 O   0  0  0  0  0  0
    6.4840  -10.1060    0.5570 O   0  0  0  0  0  0
    5.6660  -12.5560    3.1250 O   0  0  0  0  0  0
    4.9300  -13.1380    0.5510 O   0  0  0  0  0  0
    6.8870  -12.4630    3.8880 C   0  0  0  0  0  0
    6.0670  -10.4030    5.4490 O   0  0  0  0  0  0
    7.1250  -13.3280    4.7710 N   0  0  0  0  0  0
    8.8994  -11.9131    3.3753 H   0  0  0  0  0  0
    7.1259   -9.5193    3.0391 H   0  0  0  0  0  0
    7.2370  -11.9298    1.1098 H   0  0  0  0  0  0
    5.0169  -10.6120    2.7835 H   0  0  0  0  0  0
    3.4352  -12.1915    1.7089 H   0  0  0  0  0  0
    4.1980  -11.1566    0.4545 H   0  0  0  0  0  0
    8.6686   -9.7654    7.3437 H   0  0  0  0  0  0
    7.0588  -10.2414    7.9829 H   0  0  0  0  0  0
    7.2670   -8.6564    7.1637 H   0  0  0  0  0  0
    9.3260  -10.8752    5.4450 H   0  0  0  0  0  0
    6.3321  -15.0708    5.7250 H   0  0  0  0  0  0
    9.6402   -9.4890    2.6957 H   0  0  0  0  0  0
    7.3168   -9.6878   -0.0275 H   0  0  0  0  0  0
    4.3553  -13.6594   -0.2286 H   0  0  0  0  0  0
  1  2  1  0  0  0
  1  8  1  0  0  0
  1 14  1  0  0  0
  1 17  1  0  0  0
  2  3  1  0  0  0
  2 10  1  0  0  0
  2 18  1  0  0  0
  3  4  1  0  0  0
  3 11  1  0  0  0
  3 19  1  0  0  0
  4  5  1  0  0  0
  4 12  1  0  0  0
  4 20  1  0  0  0
  5 13  1  0  0  0
  5 21  1  0  0  0
  5 22  1  0  0  0
  6  7  1  0  0  0
  6  8  1  0  0  0
  6 15  2  0  0  0
  7 23  1  0  0  0
  7 24  1  0  0  0
  7 25  1  0  0  0
  8 26  1  0  0  0
  9 16  1  0  0  0
  9 27  1  0  0  0
 10 28  1  0  0  0
 11 29  1  0  0  0
 12 14  1  0  0  0
 13 30  1  0  0  0
 14 16  2  0  0  0
M  END
> <s_m_source_file>
../2xm2_ligand.sdf

> <i_m_source_file_index>
1

> <s_epik_input>
W0NIM11DKD1PKVtOSF1bQ0BASF0xW0NAQEhdKFtPSF0pW0NASF0oW09IXSlbQ0BASF0oW0NIMl1bT0hdKU9DXDE9Ti9bT0hd

> <s_epik_cmdline>
J2VwaWtfYXBwJywgJy1pbWFlJywgJ2xpZ2FuZF9wcm8ubWFlJywgJy1vbWFlJywgJ2xpZ2FuZF9wcmVwLm1hZScsICctbXMnLCAnMScsICctcGgnLCAnNycsICctcGh0JywgJzAuNScsICctbnQn

> <r_lp_tautomer_probability>
1

> <r_epik_Ionization_Penalty>
  0.0021

> <r_epik_Ionization_Penalty_Charging>
  0.0000

> <r_epik_Ionization_Penalty_Neutral>
  0.0021

> <r_epik_State_Penalty>
 -0.0000

> <r_epik_Charging_Adjusted_Penalty>
0

> <i_epik_Tot_Q>
0

> <i_epik_Tot_abs_Q>
0

> <s_epik_Chemistry_Notes>
This compound has an imine and may undergo hydrolysis.

$$$$
