2xm8_ligand
                    3D
 Schrodinger Suite 2020-3.
 41 44  0  0  1  0            999 V2000
    7.7850  -47.6760    7.8100 C   0  0  0  0  0  0
    7.0170  -48.0850    8.8640 C   0  0  0  0  0  0
    7.6180  -48.4830   10.0610 C   0  0  0  0  0  0
    9.0750  -48.4590   10.1830 C   0  0  0  0  0  0
    9.8710  -48.0410    9.1080 C   0  0  0  0  0  0
    9.2870  -47.6510    7.9350 C   0  0  0  0  0  0
   10.1140  -47.2240    6.8330 C   0  0  0  0  0  0
   12.0730  -47.5880    8.1100 C   0  0  0  0  0  0
   13.5780  -47.5570    8.2140 C   0  0  0  0  0  0
   14.2890  -48.1090    9.4020 C   0  0  0  0  0  0
   15.6660  -48.0680    9.4640 C   0  0  0  0  0  0
   16.4040  -47.5150    8.4100 C   0  0  0  0  0  0
   15.7220  -46.9910    7.2700 C   0  0  0  0  0  0
   14.2890  -47.0300    7.2020 C   0  0  0  0  0  0
    9.2920  -45.8430    4.4850 C   0  0  2  0  0  0
    9.0750  -44.3430    4.7610 C   0  0  0  0  0  0
    8.3870  -44.8640    2.5120 C   0  0  0  0  0  0
    8.3030  -46.1320    3.3590 C   0  0  0  0  0  0
   11.2270  -48.0230    9.2360 N   0  0  0  0  0  0
   11.4960  -47.2120    6.9730 N   0  0  0  0  0  0
    9.5720  -46.7760    5.5660 N   0  0  0  0  0  0
    8.8490  -43.7590    3.4100 N   0  0  1  0  0  0
   13.5760  -48.6560   10.4460 O   0  0  0  0  0  0
    7.3110  -47.3676    6.8782 H   0  0  0  0  0  0
    5.9311  -48.1008    8.7704 H   0  0  0  0  0  0
    7.0036  -48.8098   10.8999 H   0  0  0  0  0  0
    9.5452  -48.7683   11.1165 H   0  0  0  0  0  0
   16.1821  -48.4676   10.3369 H   0  0  0  0  0  0
   17.4925  -47.4847    8.4595 H   0  0  0  0  0  0
   16.2925  -46.5594    6.4476 H   0  0  0  0  0  0
   13.7755  -46.6311    6.3272 H   0  0  0  0  0  0
   10.3167  -46.1506    4.2294 H   0  0  0  0  0  0
    8.2038  -44.2137    5.4201 H   0  0  0  0  0  0
    9.9688  -43.9269    5.2488 H   0  0  0  0  0  0
    9.1020  -45.0185    1.6905 H   0  0  0  0  0  0
    7.3948  -44.6344    2.0962 H   0  0  0  0  0  0
    8.6219  -47.0321    2.8130 H   0  0  0  0  0  0
    7.3016  -46.2963    3.7836 H   0  0  0  0  0  0
    9.1996  -47.8096    5.5108 H   0  0  0  0  0  0
    8.0838  -42.9714    3.4743 H   0  0  0  0  0  0
   12.4774  -48.6917   10.4027 H   0  0  0  0  0  0
  1  2  2  0  0  0
  1  6  1  0  0  0
  1 24  1  0  0  0
  2  3  1  0  0  0
  2 25  1  0  0  0
  3  4  2  0  0  0
  3 26  1  0  0  0
  4  5  1  0  0  0
  4 27  1  0  0  0
  5  6  2  0  0  0
  5 19  1  0  0  0
  6  7  1  0  0  0
  7 20  2  0  0  0
  7 21  1  0  0  0
  8  9  1  0  0  0
  8 19  2  0  0  0
  8 20  1  0  0  0
  9 10  2  0  0  0
  9 14  1  0  0  0
 10 11  1  0  0  0
 10 23  1  0  0  0
 11 12  2  0  0  0
 11 28  1  0  0  0
 12 13  1  0  0  0
 12 29  1  0  0  0
 13 14  2  0  0  0
 13 30  1  0  0  0
 14 31  1  0  0  0
 15 16  1  0  0  0
 15 18  1  0  0  0
 15 21  1  0  0  0
 15 32  1  0  0  0
 16 22  1  0  0  0
 16 33  1  0  0  0
 16 34  1  0  0  0
 17 18  1  0  0  0
 17 22  1  0  0  0
 17 35  1  0  0  0
 17 36  1  0  0  0
 18 37  1  0  0  0
 18 38  1  0  0  0
 21 39  1  0  0  0
 22 40  1  0  0  0
 23 41  1  0  0  0
M  END
> <s_m_source_file>
../2xm8_ligand.sdf

> <i_m_source_file_index>
1

> <s_epik_input>
W0NIMl0xW0NIMl1bTkgyK11bQ0gyXVtDQEhdMVtOSF1jKGMoYzIzKVtjSF1bY0hdW2NIXVtjSF0yKW5jKG4zKS1jNGMoW09IXSlbY0hdW2NIXVtjSF1bY0hdNA==

> <s_epik_cmdline>
J2VwaWtfYXBwJywgJy1pbWFlJywgJ2xpZ2FuZF9wcm8ubWFlJywgJy1vbWFlJywgJ2xpZ2FuZF9wcmVwLm1hZScsICctbXMnLCAnMScsICctcGgnLCAnNycsICctcGh0JywgJzAuNScsICctbnQn

> <r_lp_tautomer_probability>
0.999978000239362

> <r_epik_Ionization_Penalty>
  0.0813

> <r_epik_Ionization_Penalty_Charging>
  0.0000

> <r_epik_Ionization_Penalty_Neutral>
  0.0813

> <r_epik_State_Penalty>
  0.0598

> <r_epik_Charging_Adjusted_Penalty>
0.0597851534457211

> <i_epik_Tot_Q>
0

> <i_epik_Tot_abs_Q>
0

$$$$
