2xm9_ligand
                    3D
 Schrodinger Suite 2020-3.
 47 51  0  0  1  0            999 V2000
   45.5790  -19.1560   -7.4150 C   0  0  0  0  0  0
   45.7400  -19.8170   -6.2050 C   0  0  0  0  0  0
   46.5890  -19.3150   -5.2410 C   0  0  0  0  0  0
   47.2880  -18.1440   -5.4820 C   0  0  0  0  0  0
   47.1330  -17.4730   -6.6930 C   0  0  0  0  0  0
   46.2800  -17.9740   -7.6610 C   0  0  0  0  0  0
   46.1220  -17.3060   -8.8620 C   0  0  0  0  0  0
   47.6680  -15.6860   -8.1130 C   0  0  0  0  0  0
   46.8120  -16.1650   -9.0710 N   0  0  0  0  0  0
   47.8230  -16.3410   -6.9150 N   0  0  0  0  0  0
   44.9090  -16.9580  -11.0530 C   0  0  2  0  0  0
   44.4110  -15.5600  -10.8190 C   0  0  0  0  0  0
   43.7030  -16.3610  -12.8830 C   0  0  0  0  0  0
   43.9800  -17.5610  -12.0530 C   0  0  0  0  0  0
   45.2450  -17.7670   -9.9000 N   0  0  0  0  0  0
   43.4160  -15.3370  -11.8890 N   0  0  1  0  0  0
   48.3320  -14.3870   -8.4160 C   0  0  0  0  0  0
   49.0600  -13.7380   -7.4270 C   0  0  0  0  0  0
   49.5950  -12.4880   -7.7040 C   0  0  0  0  0  0
   49.3280  -11.8640   -8.9260 C   0  0  0  0  0  0
   48.5280  -12.4740   -9.8870 C   0  0  0  0  0  0
   47.9970  -13.7250   -9.6040 C   0  0  0  0  0  0
   48.2490  -11.7920  -11.1970 C   0  0  0  0  0  0
   48.4050  -10.4200  -11.4750 C   0  0  0  0  0  0
   48.0600  -10.1980  -12.7880 C   0  0  0  0  0  0
   47.8180  -12.3810  -12.3630 N   0  0  0  0  0  0
   47.6980  -11.4360  -13.3340 N   0  0  0  0  0  0
   49.3090  -14.3780   -6.2320 O   0  0  0  0  0  0
   44.9063  -19.5592   -8.1719 H   0  0  0  0  0  0
   45.1914  -20.7396   -6.0154 H   0  0  0  0  0  0
   46.7095  -19.8383   -4.2924 H   0  0  0  0  0  0
   47.9610  -17.7464   -4.7224 H   0  0  0  0  0  0
   45.9456  -16.9447  -11.4207 H   0  0  0  0  0  0
   43.9587  -15.4946   -9.8184 H   0  0  0  0  0  0
   45.2523  -14.8547  -10.8879 H   0  0  0  0  0  0
   44.5880  -16.1240  -13.4918 H   0  0  0  0  0  0
   42.8467  -16.5618  -13.5436 H   0  0  0  0  0  0
   44.4947  -18.3718  -12.5894 H   0  0  0  0  0  0
   43.0974  -17.9658  -11.5361 H   0  0  0  0  0  0
   44.8230  -18.7774   -9.7952 H   0  0  0  0  0  0
   42.4024  -15.4433  -11.4751 H   0  0  0  0  0  0
   50.2254  -11.9912   -6.9665 H   0  0  0  0  0  0
   49.7543  -10.8817   -9.1297 H   0  0  0  0  0  0
   47.3143  -14.1956  -10.3115 H   0  0  0  0  0  0
   48.7533   -9.7354  -10.6876 H   0  0  0  0  0  0
   48.0670   -9.2390  -13.3061 H   0  0  0  0  0  0
   48.8726  -15.3688   -6.0373 H   0  0  0  0  0  0
  1  2  2  0  0  0
  1  6  1  0  0  0
  1 29  1  0  0  0
  2  3  1  0  0  0
  2 30  1  0  0  0
  3  4  2  0  0  0
  3 31  1  0  0  0
  4  5  1  0  0  0
  4 32  1  0  0  0
  5  6  2  0  0  0
  5 10  1  0  0  0
  6  7  1  0  0  0
  7  9  2  0  0  0
  7 15  1  0  0  0
  8  9  1  0  0  0
  8 10  2  0  0  0
  8 17  1  0  0  0
 11 12  1  0  0  0
 11 14  1  0  0  0
 11 15  1  0  0  0
 11 33  1  0  0  0
 12 16  1  0  0  0
 12 34  1  0  0  0
 12 35  1  0  0  0
 13 14  1  0  0  0
 13 16  1  0  0  0
 13 36  1  0  0  0
 13 37  1  0  0  0
 14 38  1  0  0  0
 14 39  1  0  0  0
 15 40  1  0  0  0
 16 41  1  0  0  0
 17 18  2  0  0  0
 17 22  1  0  0  0
 18 19  1  0  0  0
 18 28  1  0  0  0
 19 20  2  0  0  0
 19 42  1  0  0  0
 20 21  1  0  0  0
 20 43  1  0  0  0
 21 22  2  0  0  0
 21 23  1  0  0  0
 22 44  1  0  0  0
 23 24  2  0  0  0
 23 26  1  0  0  0
 24 25  1  0  0  0
 24 45  1  0  0  0
 25 27  1  0  0  0
 25 46  1  0  0  0
 26 27  2  0  0  0
 28 47  1  0  0  0
M  END
> <s_m_source_file>
../2xm9_ligand.sdf

> <i_m_source_file_index>
1

> <s_epik_input>
W0NIMl0xW0NIMl1bTkgyK11bQ0gyXVtDQEhdMVtOSF1jKGMoYzIzKVtjSF1bY0hdW2NIXVtjSF0yKW5jKG4zKS1jNGMoW09IXSlbY0hdW2NIXWMoW2NIXTQpQzU9W0NIXVtDSDJdTj1ONQ==

> <s_epik_cmdline>
J2VwaWtfYXBwJywgJy1pbWFlJywgJ2xpZ2FuZF9wcm8ubWFlJywgJy1vbWFlJywgJ2xpZ2FuZF9wcmVwLm1hZScsICctbXMnLCAnMScsICctcGgnLCAnNycsICctcGh0JywgJzAuNScsICctbnQn

> <r_epik_Ionization_Penalty>
  0.0897

> <r_epik_Ionization_Penalty_Charging>
  0.0000

> <r_epik_Ionization_Penalty_Neutral>
  0.0897

> <r_epik_State_Penalty>
  0.0598

> <r_epik_Charging_Adjusted_Penalty>
0.0597851534457196

> <i_epik_Tot_Q>
0

> <i_epik_Tot_abs_Q>
0

$$$$
