2xml_ligand
                    3D
 Schrodinger Suite 2020-3.
 13 12  0  0  1  0            999 V2000
   49.5660   24.4520   52.1000 C   0  0  0  0  0  0
   51.0280   24.3650   51.7440 C   0  0  0  0  0  0
   52.9230   25.1880   50.5010 C   0  0  0  0  0  0
   53.3010   26.4540   49.7230 C   0  0  0  0  0  0
   49.0320   23.6760   52.9270 O   0  0  0  0  0  0
   48.9020   25.3920   51.4910 O   0  5  0  0  0  0
   51.8030   23.4540   52.3600 O   0  0  0  0  0  0
   54.3050   27.0880   50.1310 O   0  0  0  0  0  0
   51.5340   25.2170   50.8840 N   0  0  0  0  0  0
   52.5650   26.7690   48.7500 O   0  5  0  0  0  0
   53.0980   24.3040   49.8702 H   0  0  0  0  0  0
   53.5394   25.1181   51.4094 H   0  0  0  0  0  0
   50.8599   25.9711   50.4517 H   0  0  0  0  0  0
  1  2  1  0  0  0
  1  5  2  0  0  0
  1  6  1  0  0  0
  2  7  2  0  0  0
  2  9  1  0  0  0
  3  4  1  0  0  0
  3  9  1  0  0  0
  3 11  1  0  0  0
  3 12  1  0  0  0
  4  8  2  0  0  0
  4 10  1  0  0  0
  9 13  1  0  0  0
M  CHG  2   6  -1  10  -1
M  END
> <s_m_source_file>
../2xml_ligand.sdf

> <i_m_source_file_index>
1

> <s_epik_input>
Tz1DKFtPSF0pQyg9TylbTkhdW0NIMl1DKD1PKVtPSF0=

> <s_epik_cmdline>
J2VwaWtfYXBwJywgJy1pbWFlJywgJ2xpZ2FuZF9wcm8ubWFlJywgJy1vbWFlJywgJ2xpZ2FuZF9wcmVwLm1hZScsICctbXMnLCAnMScsICctcGgnLCAnNycsICctcGh0JywgJzAuNScsICctbnQn

> <r_lp_tautomer_probability>
1

> <r_epik_Ionization_Penalty>
  0.0005

> <r_epik_Ionization_Penalty_Charging>
  0.0005

> <r_epik_Ionization_Penalty_Neutral>
  0.0000

> <r_epik_State_Penalty>
 -0.0000

> <r_epik_Charging_Adjusted_Penalty>
0.000542553720295976

> <i_epik_Tot_Q>
-2

> <i_epik_Tot_abs_Q>
2

$$$$
