2xmy_ligand
                    3D
 Schrodinger Suite 2020-3.
 50 52  0  0  1  0            999 V2000
   29.4980   31.1520   26.4930 C   0  0  0  0  0  0
   28.6540   30.1220   25.7410 C   0  0  0  0  0  0
   29.1410   29.3670   24.7430 N   0  0  0  0  0  0
   30.5450   29.4560   24.2860 C   0  0  0  0  0  0
   28.2630   28.5150   24.1930 C   0  0  0  0  0  0
   28.5090   27.7220   23.2860 O   0  0  0  0  0  0
   26.7570   28.6600   24.9740 S   0  0  0  0  0  0
   27.3150   29.8520   26.0450 C   0  0  0  0  0  0
   26.5150   30.4950   26.9850 C   0  0  0  0  0  0
   25.5090   29.8410   27.5940 N   0  0  0  0  0  0
   26.7310   31.8440   27.2430 C   0  0  0  0  0  0
   25.9060   32.4940   28.1460 C   0  0  0  0  0  0
   24.9240   31.8210   28.7180 N   0  0  0  0  0  0
   24.7120   30.5280   28.4380 C   0  0  0  0  0  0
   23.7130   29.9770   29.1090 N   0  0  0  0  0  0
   23.1060   28.8330   28.8340 C   0  0  0  0  0  0
   22.1780   28.4250   29.7840 C   0  0  0  0  0  0
   21.4380   27.2680   29.6190 C   0  0  0  0  0  0
   23.2980   28.0950   27.6740 C   0  0  0  0  0  0
   22.5450   26.9330   27.4920 C   0  0  0  0  0  0
   21.6290   26.5230   28.4640 C   0  0  0  0  0  0
   20.6350   25.0970   28.2840 S   0  0  0  0  0  0
   19.4840   25.4450   27.3850 O   0  0  0  0  0  0
   20.0620   24.7470   29.6370 O   0  0  0  0  0  0
   21.4760   23.8290   27.6680 N   0  0  3  0  0  0
   20.6200   22.6290   27.6210 C   0  0  0  0  0  0
   20.7430   21.8030   28.9100 C   0  0  0  0  0  0
   19.6010   21.9430   29.7940 O   0  0  0  0  0  0
   19.2510   20.6700   30.3310 C   0  0  0  0  0  0
   30.5116   31.1773   26.0664 H   0  0  0  0  0  0
   29.5544   30.8742   27.5559 H   0  0  0  0  0  0
   29.0351   32.1453   26.3977 H   0  0  0  0  0  0
   31.0754   30.2172   24.8770 H   0  0  0  0  0  0
   30.5674   29.7362   23.2225 H   0  0  0  0  0  0
   31.0363   28.4808   24.4187 H   0  0  0  0  0  0
   27.5366   32.3814   26.7427 H   0  0  0  0  0  0
   26.0650   33.5464   28.3813 H   0  0  0  0  0  0
   23.3041   30.4796   29.9979 H   0  0  0  0  0  0
   22.0298   29.0297   30.6787 H   0  0  0  0  0  0
   20.7227   26.9495   30.3773 H   0  0  0  0  0  0
   24.0198   28.4151   26.9226 H   0  0  0  0  0  0
   22.6728   26.3418   26.5852 H   0  0  0  0  0  0
   22.5553   23.7426   27.4740 H   0  0  0  0  0  0
   19.5697   22.9324   27.4994 H   0  0  0  0  0  0
   20.9199   21.9977   26.7716 H   0  0  0  0  0  0
   20.8351   20.7369   28.6549 H   0  0  0  0  0  0
   21.6346   22.1248   29.4681 H   0  0  0  0  0  0
   18.3851   20.7800   31.0005 H   0  0  0  0  0  0
   20.1026   20.2640   30.8966 H   0  0  0  0  0  0
   18.9952   19.9837   29.5103 H   0  0  0  0  0  0
  1  2  1  0  0  0
  1 30  1  0  0  0
  1 31  1  0  0  0
  1 32  1  0  0  0
  2  3  1  0  0  0
  2  8  2  0  0  0
  3  4  1  0  0  0
  3  5  1  0  0  0
  4 33  1  0  0  0
  4 34  1  0  0  0
  4 35  1  0  0  0
  5  6  2  0  0  0
  5  7  1  0  0  0
  7  8  1  0  0  0
  8  9  1  0  0  0
  9 10  2  0  0  0
  9 11  1  0  0  0
 10 14  1  0  0  0
 11 12  2  0  0  0
 11 36  1  0  0  0
 12 13  1  0  0  0
 12 37  1  0  0  0
 13 14  2  0  0  0
 14 15  1  0  0  0
 15 16  1  0  0  0
 15 38  1  0  0  0
 16 17  2  0  0  0
 16 19  1  0  0  0
 17 18  1  0  0  0
 17 39  1  0  0  0
 18 21  2  0  0  0
 18 40  1  0  0  0
 19 20  2  0  0  0
 19 41  1  0  0  0
 20 21  1  0  0  0
 20 42  1  0  0  0
 21 22  1  0  0  0
 22 23  2  0  0  0
 22 24  2  0  0  0
 22 25  1  0  0  0
 25 26  1  0  0  0
 25 43  1  0  0  0
 26 27  1  0  0  0
 26 44  1  0  0  0
 26 45  1  0  0  0
 27 28  1  0  0  0
 27 46  1  0  0  0
 27 47  1  0  0  0
 28 29  1  0  0  0
 29 48  1  0  0  0
 29 49  1  0  0  0
 29 50  1  0  0  0
M  END
> <s_m_source_file>
../2xmy_ligand.sdf

> <i_m_source_file_index>
1

> <s_epik_input>
W0NIM11jMW4oW0NIM10pYyg9TylzYzEtYzJuYyhuW2NIXVtjSF0yKVtOSF1jM1tjSF1bY0hdYyhbY0hdW2NIXTMpUyg9TykoPU8pW05IXVtDSDJdW0NIMl1PW0NIM10=

> <s_epik_cmdline>
J2VwaWtfYXBwJywgJy1pbWFlJywgJ2xpZ2FuZF9wcm8ubWFlJywgJy1vbWFlJywgJ2xpZ2FuZF9wcmVwLm1hZScsICctbXMnLCAnMScsICctcGgnLCAnNycsICctcGh0JywgJzAuNScsICctbnQn

> <r_lp_tautomer_probability>
1

> <r_epik_Ionization_Penalty>
  0.0000

> <r_epik_Ionization_Penalty_Charging>
  0.0000

> <r_epik_Ionization_Penalty_Neutral>
  0.0000

> <r_epik_State_Penalty>
 -0.0000

> <r_epik_Charging_Adjusted_Penalty>
1.33012680936058e-05

> <i_epik_Tot_Q>
0

> <i_epik_Tot_abs_Q>
0

$$$$
