2xn3_ligand
                    3D
 Schrodinger Suite 2020-3.
 32 33  0  0  1  0            999 V2000
    6.0940    9.1420   24.4630 O   0  0  0  0  0  0
    7.2800    8.8240   24.1930 C   0  0  0  0  0  0
    7.9380    9.4860   23.3460 O   0  5  0  0  0  0
    7.8990    7.6110   24.8790 C   0  0  0  0  0  0
    7.5470    7.3300   26.2040 C   0  0  0  0  0  0
    8.0800    6.2250   26.8630 C   0  0  0  0  0  0
    8.9730    5.3730   26.2180 C   0  0  0  0  0  0
    9.3570    5.6020   24.8910 C   0  0  0  0  0  0
    8.8440    6.6860   24.1460 C   0  0  0  0  0  0
    9.1490    7.0030   22.8290 N   0  0  0  0  0  0
   10.1880    6.3630   22.2280 C   0  0  0  0  0  0
   10.2050    4.8730   22.0330 C   0  0  0  0  0  0
    8.9630    4.0280   22.2160 C   0  0  0  0  0  0
   11.3940    7.0550   22.0700 C   0  0  0  0  0  0
   12.5730    6.4060   21.6740 C   0  0  0  0  0  0
   12.6250    5.0290   21.4500 C   0  0  0  0  0  0
   11.4900    4.2360   21.6170 C   0  0  0  0  0  0
   11.5790    2.7520   21.3690 C   0  0  0  0  0  0
    6.8479    7.9833   26.7260 H   0  0  0  0  0  0
    7.7949    6.0246   27.8958 H   0  0  0  0  0  0
    9.3791    4.5152   26.7540 H   0  0  0  0  0  0
   10.0708    4.9255   24.4209 H   0  0  0  0  0  0
    8.5550    7.7581   22.2933 H   0  0  0  0  0  0
    8.1241    4.6706   22.5216 H   0  0  0  0  0  0
    9.1461    3.2703   22.9921 H   0  0  0  0  0  0
    8.7160    3.5290   21.2673 H   0  0  0  0  0  0
   11.4180    8.1281   22.2599 H   0  0  0  0  0  0
   13.4788    6.9966   21.5366 H   0  0  0  0  0  0
   13.5634    4.5684   21.1411 H   0  0  0  0  0  0
   10.5965    2.2908   21.5478 H   0  0  0  0  0  0
   12.3209    2.3102   22.0505 H   0  0  0  0  0  0
   11.8846    2.5720   20.3277 H   0  0  0  0  0  0
  1  2  2  0  0  0
  2  3  1  0  0  0
  2  4  1  0  0  0
  4  5  2  0  0  0
  4  9  1  0  0  0
  5  6  1  0  0  0
  5 19  1  0  0  0
  6  7  2  0  0  0
  6 20  1  0  0  0
  7  8  1  0  0  0
  7 21  1  0  0  0
  8  9  2  0  0  0
  8 22  1  0  0  0
  9 10  1  0  0  0
 10 11  1  0  0  0
 10 23  1  0  0  0
 11 12  2  0  0  0
 11 14  1  0  0  0
 12 13  1  0  0  0
 12 17  1  0  0  0
 13 24  1  0  0  0
 13 25  1  0  0  0
 13 26  1  0  0  0
 14 15  2  0  0  0
 14 27  1  0  0  0
 15 16  1  0  0  0
 15 28  1  0  0  0
 16 17  2  0  0  0
 16 29  1  0  0  0
 17 18  1  0  0  0
 18 30  1  0  0  0
 18 31  1  0  0  0
 18 32  1  0  0  0
M  CHG  1   3  -1
M  END
> <s_m_source_file>
../2xn3_ligand.sdf

> <i_m_source_file_index>
1

> <s_epik_input>
Tz1DKFtPSF0pYzFbY0hdW2NIXVtjSF1bY0hdYzFbTkhdYzJjKFtDSDNdKWMoW0NIM10pW2NIXVtjSF1bY0hdMg==

> <s_epik_cmdline>
J2VwaWtfYXBwJywgJy1pbWFlJywgJ2xpZ2FuZF9wcm8ubWFlJywgJy1vbWFlJywgJ2xpZ2FuZF9wcmVwLm1hZScsICctbXMnLCAnMScsICctcGgnLCAnNycsICctcGh0JywgJzAuNScsICctbnQn

> <r_lp_tautomer_probability>
1

> <r_epik_Ionization_Penalty>
  0.0013

> <r_epik_Ionization_Penalty_Charging>
  0.0013

> <r_epik_Ionization_Penalty_Neutral>
  0.0000

> <r_epik_State_Penalty>
 -0.0000

> <r_epik_Charging_Adjusted_Penalty>
0.0013249278917022

> <i_epik_Tot_Q>
-1

> <i_epik_Tot_abs_Q>
1

$$$$
