2xn5_ligand
                    3D
 Schrodinger Suite 2020-3.
 31 32  0  0  1  0            999 V2000
  -13.4550  -16.2240    8.7700 N   0  0  0  0  0  0
  -12.8680  -17.1600    7.7040 S   0  0  0  0  0  0
  -12.5820  -18.4340    8.3890 O   0  0  0  0  0  0
  -13.8290  -17.3080    6.6020 O   0  0  0  0  0  0
  -11.4940  -16.4860    7.1550 C   0  0  0  0  0  0
  -11.4840  -15.4150    6.2670 C   0  0  0  0  0  0
  -12.9700  -14.6510    5.6370 Cl  0  0  0  0  0  0
  -10.2950  -14.8550    5.8130 C   0  0  0  0  0  0
   -9.0590  -15.3520    6.2260 C   0  0  0  0  0  0
   -7.8990  -14.7940    5.7840 N   0  0  0  0  0  0
   -7.8170  -13.6250    4.9220 C   0  0  0  0  0  0
   -7.9260  -13.9630    3.4530 C   0  0  0  0  0  0
   -8.3780  -15.1480    2.8900 C   0  0  0  0  0  0
   -8.3170  -15.0250    1.5160 C   0  0  0  0  0  0
   -7.8310  -13.7690    1.2320 C   0  0  0  0  0  0
   -7.5960  -13.1220    2.4260 O   0  0  0  0  0  0
   -9.0430  -16.4340    7.1210 C   0  0  0  0  0  0
  -10.2560  -16.9810    7.5650 C   0  0  0  0  0  0
   -7.7600  -17.0170    7.6540 C   0  0  0  0  0  0
   -7.7810  -17.8170    8.6330 O   0  5  0  0  0  0
   -6.6770  -16.6440    7.1500 O   0  0  0  0  0  0
  -14.3885  -16.6542    9.1618 H   0  0  0  0  0  0
  -13.6641  -15.2420    8.3206 H   0  0  0  0  0  0
  -10.3295  -14.0127    5.1221 H   0  0  0  0  0  0
   -6.9791  -15.2916    6.1249 H   0  0  0  0  0  0
   -8.6352  -12.9314    5.1660 H   0  0  0  0  0  0
   -6.8512  -13.1218    5.0774 H   0  0  0  0  0  0
   -8.7220  -16.0251    3.4381 H   0  0  0  0  0  0
   -8.6020  -15.7848    0.7883 H   0  0  0  0  0  0
   -7.6616  -13.3579    0.2368 H   0  0  0  0  0  0
  -10.2302  -17.8238    8.2558 H   0  0  0  0  0  0
  1  2  1  0  0  0
  1 22  1  0  0  0
  1 23  1  0  0  0
  2  3  2  0  0  0
  2  4  2  0  0  0
  2  5  1  0  0  0
  5  6  2  0  0  0
  5 18  1  0  0  0
  6  7  1  0  0  0
  6  8  1  0  0  0
  8  9  2  0  0  0
  8 24  1  0  0  0
  9 10  1  0  0  0
  9 17  1  0  0  0
 10 11  1  0  0  0
 10 25  1  0  0  0
 11 12  1  0  0  0
 11 26  1  0  0  0
 11 27  1  0  0  0
 12 13  2  0  0  0
 12 16  1  0  0  0
 13 14  1  0  0  0
 13 28  1  0  0  0
 14 15  2  0  0  0
 14 29  1  0  0  0
 15 16  1  0  0  0
 15 30  1  0  0  0
 17 18  2  0  0  0
 17 19  1  0  0  0
 18 31  1  0  0  0
 19 20  1  0  0  0
 19 21  2  0  0  0
M  CHG  1  20  -1
M  END
> <s_m_source_file>
../2xn5_ligand.sdf

> <i_m_source_file_index>
1

> <s_epik_input>
W05IMl1TKD1PKSg9TyljMWMoQ2wpW2NIXWMoYyhbY0hdMSlDKD1PKVtPSF0pW05IXVtDSDJdYzJbY0hdW2NIXVtjSF1vMg==

> <s_epik_cmdline>
J2VwaWtfYXBwJywgJy1pbWFlJywgJ2xpZ2FuZF9wcm8ubWFlJywgJy1vbWFlJywgJ2xpZ2FuZF9wcmVwLm1hZScsICctbXMnLCAnMScsICctcGgnLCAnNycsICctcGh0JywgJzAuNScsICctbnQn

> <r_lp_tautomer_probability>
1

> <r_epik_Ionization_Penalty>
  0.0018

> <r_epik_Ionization_Penalty_Charging>
  0.0004

> <r_epik_Ionization_Penalty_Neutral>
  0.0015

> <r_epik_State_Penalty>
 -0.0000

> <r_epik_Charging_Adjusted_Penalty>
0.000360382905360061

> <i_epik_Tot_Q>
-1

> <i_epik_Tot_abs_Q>
1

$$$$
