2xn7_ligand
                    3D
 Schrodinger Suite 2020-3.
 69 75  0  0  1  0            999 V2000
   -6.7570  -12.2210    2.9710 C   0  0  0  0  0  0
   -7.4830  -11.7160    4.0460 C   0  0  0  0  0  0
   -8.6170  -12.3690    4.4990 C   0  0  0  0  0  0
   -9.0580  -13.6040    3.8310 C   0  0  0  0  0  0
   -8.2660  -14.0890    2.6900 C   0  0  0  0  0  0
   -7.1400  -13.3780    2.2900 C   0  0  0  0  0  0
   -5.5370  -11.4720    2.4970 C   0  0  0  0  0  0
   -4.3530  -11.4890    3.4520 C   0  0  1  0  0  0
   -4.7250  -11.6620    4.8940 C   0  0  0  0  0  0
  -10.1100  -15.1580    5.2920 C   0  0  0  0  0  0
  -11.2940  -15.5150    5.9220 C   0  0  0  0  0  0
  -11.2840  -16.4080    6.9880 C   0  0  0  0  0  0
  -10.0140  -16.9880    7.4590 C   0  0  0  0  0  0
   -8.7930  -16.5770    6.7560 C   0  0  0  0  0  0
   -8.8770  -15.6740    5.6960 C   0  0  0  0  0  0
   -3.4590  -12.5510    2.9770 N   0  0  0  0  0  0
  -10.1730  -14.2770    4.2440 O   0  0  0  0  0  0
   -9.9820  -17.8670    8.5040 O   0  5  0  0  0  0
   -5.1090  -12.7790    5.2980 O   0  0  0  0  0  0
   -4.6190  -10.6580    5.6320 O   0  5  0  0  0  0
   -9.7130  -11.6390    6.1100 I   0  0  0  0  0  0
  -13.0340  -16.9680    7.9560 I   0  0  0  0  0  0
   -8.8980  -15.8350    1.7470 I   0  0  0  0  0  0
   -6.9900  -17.3830    7.4180 I   0  0  0  0  0  0
   -0.9850   -7.1080   -0.2100 O   0  0  0  0  0  0
   -0.7270   -7.3450    0.9590 C   0  0  0  0  0  0
   -1.1620   -8.5180    1.7640 C   0  0  0  0  0  0
   -1.7660   -9.7060    1.3880 C   0  0  0  0  0  0
   -2.0400  -10.6440    2.3750 C   0  0  0  0  0  0
    0.0680   -6.5010    1.8400 O   0  0  0  0  0  0
   -0.1710   -6.9020    3.2060 C   0  0  2  0  0  0
   -0.9890   -5.8290    3.8600 C   0  0  0  0  0  0
   -2.3100   -5.6570    3.4950 C   0  0  0  0  0  0
   -3.0680   -4.6560    4.0890 C   0  0  0  0  0  0
   -2.5290   -3.8040    5.0450 C   0  0  0  0  0  0
   -3.3300   -2.8420    5.5860 O   0  5  0  0  0  0
   -1.1970   -3.9280    5.4380 C   0  0  0  0  0  0
   -0.3950   -4.9150    4.8730 C   0  0  0  0  0  0
    0.9180   -5.0520    5.2490 O   0  0  0  0  0  0
    1.5510   -6.2520    5.0450 C   0  0  0  0  0  0
    2.6760   -6.6130    5.7770 C   0  0  0  0  0  0
    3.2880   -7.8440    5.5420 C   0  0  0  0  0  0
    4.3870   -8.2080    6.2520 O   0  0  0  0  0  0
    2.8030   -8.7300    4.5870 C   0  0  0  0  0  0
    1.6840   -8.4150    3.8330 C   0  0  0  0  0  0
    1.0490   -7.1960    4.0180 C   0  0  0  0  0  0
   -0.8480   -8.2440    3.0600 C   0  0  0  0  0  0
   -1.1010   -9.1720    4.0600 C   0  0  0  0  0  0
   -1.7130  -10.3760    3.7070 C   0  0  0  0  0  0
   -2.5710  -12.4490    0.9120 O   0  0  0  0  0  0
   -2.6950  -11.9440    2.0180 C   0  0  0  0  0  0
   -7.1560  -10.7986    4.5354 H   0  0  0  0  0  0
   -6.5530  -13.7259    1.4400 H   0  0  0  0  0  0
   -5.1825  -11.9093    1.5520 H   0  0  0  0  0  0
   -5.7948  -10.4146    2.3377 H   0  0  0  0  0  0
   -3.8277  -10.5226    3.4425 H   0  0  0  0  0  0
  -12.2384  -15.0925    5.5788 H   0  0  0  0  0  0
   -7.9690  -15.3675    5.1767 H   0  0  0  0  0  0
   -3.5254  -13.5602    3.4096 H   0  0  0  0  0  0
   -2.0195   -9.8997    0.3457 H   0  0  0  0  0  0
   -2.7570   -6.3059    2.7419 H   0  0  0  0  0  0
   -4.1115   -4.5359    3.7979 H   0  0  0  0  0  0
   -0.7842   -3.2524    6.1872 H   0  0  0  0  0  0
    3.0782   -5.9369    6.5315 H   0  0  0  0  0  0
    4.7975   -7.5310    7.0156 H   0  0  0  0  0  0
    3.3084   -9.6828    4.4296 H   0  0  0  0  0  0
    1.3039   -9.1231    3.0967 H   0  0  0  0  0  0
   -0.8287   -8.9661    5.0952 H   0  0  0  0  0  0
   -1.9378  -11.1137    4.4773 H   0  0  0  0  0  0
  1  2  2  0  0  0
  1  6  1  0  0  0
  1  7  1  0  0  0
  2  3  1  0  0  0
  2 52  1  0  0  0
  3  4  2  0  0  0
  3 21  1  0  0  0
  4  5  1  0  0  0
  4 17  1  0  0  0
  5  6  2  0  0  0
  5 23  1  0  0  0
  6 53  1  0  0  0
  7  8  1  0  0  0
  7 54  1  0  0  0
  7 55  1  0  0  0
  8  9  1  0  0  0
  8 16  1  0  0  0
  8 56  1  0  0  0
  9 19  2  0  0  0
  9 20  1  0  0  0
 10 11  2  0  0  0
 10 15  1  0  0  0
 10 17  1  0  0  0
 11 12  1  0  0  0
 11 57  1  0  0  0
 12 13  2  0  0  0
 12 22  1  0  0  0
 13 14  1  0  0  0
 13 18  1  0  0  0
 14 15  2  0  0  0
 14 24  1  0  0  0
 15 58  1  0  0  0
 16 51  1  0  0  0
 16 59  1  0  0  0
 25 26  2  0  0  0
 26 27  1  0  0  0
 26 30  1  0  0  0
 27 28  2  0  0  0
 27 47  1  0  0  0
 28 29  1  0  0  0
 28 60  1  0  0  0
 29 49  2  0  0  0
 29 51  1  0  0  0
 30 31  1  0  0  0
 31 32  1  0  0  0
 31 46  1  0  0  0
 31 47  1  0  0  0
 32 33  2  0  0  0
 32 38  1  0  0  0
 33 34  1  0  0  0
 33 61  1  0  0  0
 34 35  2  0  0  0
 34 62  1  0  0  0
 35 36  1  0  0  0
 35 37  1  0  0  0
 37 38  2  0  0  0
 37 63  1  0  0  0
 38 39  1  0  0  0
 39 40  1  0  0  0
 40 41  2  0  0  0
 40 46  1  0  0  0
 41 42  1  0  0  0
 41 64  1  0  0  0
 42 43  1  0  0  0
 42 44  2  0  0  0
 43 65  1  0  0  0
 44 45  1  0  0  0
 44 66  1  0  0  0
 45 46  2  0  0  0
 45 67  1  0  0  0
 47 48  2  0  0  0
 48 49  1  0  0  0
 48 68  1  0  0  0
 49 69  1  0  0  0
 50 51  2  0  0  0
M  CHG  3  18  -1  20  -1  36  -1
M  END
> <s_m_source_file>
../2xn7_ligand.sdf

> <i_m_source_file_index>
1

> <s_epik_input>
W2NIXTFjKEkpYyhbT0hdKWMoSSlbY0hdYzFPYyhjKEkpW2NIXTIpYyhJKVtjSF1jMltDSDJdW0NAQEhdKEMoPU8pW09IXSlbTkhdQyg9TyljKFtjSF1bY0hdMylbY0hdYyhDKD1PKU80KWMzQzQ1YzZjKFtjSF1jKFtPSF0pW2NIXVtjSF02KU9jN2M1W2NIXVtjSF1jKFtjSF03KVtPSF0=

> <s_epik_cmdline>
J2VwaWtfYXBwJywgJy1pbWFlJywgJ2xpZ2FuZF9wcm8ubWFlJywgJy1vbWFlJywgJ2xpZ2FuZF9wcmVwLm1hZScsICctbXMnLCAnMScsICctcGgnLCAnNycsICctcGh0JywgJzAuNScsICctbnQn

> <r_lp_tautomer_probability>
1

> <r_epik_Ionization_Penalty>
  0.3625

> <r_epik_Ionization_Penalty_Charging>
  0.3577

> <r_epik_Ionization_Penalty_Neutral>
  0.0048

> <r_epik_State_Penalty>
 -0.0000

> <r_epik_Charging_Adjusted_Penalty>
0.357694693348063

> <i_epik_Tot_Q>
-3

> <i_epik_Tot_abs_Q>
3

> <s_epik_Chemistry_Notes>
This compound has an ester and may undergo hydrolysis at high or low pH.

$$$$
