2xne_ligand
                    3D
 Schrodinger Suite 2020-3.
 48 52  0  0  1  0            999 V2000
    6.0880  -30.9570   -2.5480 C   0  0  0  0  0  0
    6.6080  -30.4400   -1.3530 C   0  0  0  0  0  0
    6.9630  -29.0960   -1.2910 C   0  0  0  0  0  0
    6.2920  -28.8370   -3.5140 C   0  0  0  0  0  0
    3.8860  -32.4750   -6.0780 C   0  0  0  0  0  0
    2.6310  -34.1340   -3.3450 C   0  0  0  0  0  0
    1.0760  -35.8370   -2.3840 C   0  0  0  0  0  0
    0.1090  -36.9190    1.2670 C   0  0  0  0  0  0
    6.2100  -29.0380   -9.1590 Cl  0  0  0  0  0  0
    5.2810  -30.3220   -8.6790 C   0  0  0  0  0  0
    4.5280  -31.1900   -9.4730 C   0  0  0  0  0  0
    3.8800  -32.1360   -8.6910 N   0  0  0  0  0  0
    4.2200  -31.8700   -7.3930 C   0  0  0  0  0  0
    5.1030  -30.7300   -7.3570 N   0  0  0  0  0  0
    5.6490  -30.1800   -6.1920 C   0  0  0  0  0  0
    5.3050  -30.7720   -4.9950 C   0  0  0  0  0  0
    5.9010  -30.1840   -3.7110 C   0  0  0  0  0  0
    6.8030  -28.3020   -2.3750 N   0  0  0  0  0  0
    4.4380  -31.9060   -4.9910 N   0  0  0  0  0  0
    2.9920  -33.6530   -5.8730 N   0  0  0  0  0  0
    2.3640  -34.3630   -4.7090 C   0  0  0  0  0  0
    2.0330  -34.8160   -2.2590 C   0  0  0  0  0  0
    0.4750  -36.5210   -1.2550 N   0  0  0  0  0  0
    0.6930  -36.0180    0.1270 C   0  0  0  0  0  0
   -0.1120  -38.2210    0.8280 O   0  0  0  0  0  0
   -1.1050  -38.2360   -0.1520 C   0  0  0  0  0  0
   -0.7970  -37.2820   -1.3580 C   0  0  0  0  0  0
    0.7850  -36.0890   -3.7530 C   0  0  0  0  0  0
    1.3830  -35.4040   -4.8340 C   0  0  0  0  0  0
    5.8142  -32.0116   -2.5789 H   0  0  0  0  0  0
    6.7328  -31.0837   -0.4823 H   0  0  0  0  0  0
    7.3703  -28.6824   -0.3684 H   0  0  0  0  0  0
    6.1707  -28.1622   -4.3613 H   0  0  0  0  0  0
    3.3632  -33.3631   -3.1048 H   0  0  0  0  0  0
    0.8174  -36.9515    2.1079 H   0  0  0  0  0  0
   -0.8488  -36.5010    1.6105 H   0  0  0  0  0  0
    4.4587  -31.1323  -10.5593 H   0  0  0  0  0  0
    6.3178  -29.3201   -6.2290 H   0  0  0  0  0  0
    2.6363  -34.2308   -6.7388 H   0  0  0  0  0  0
    2.3368  -34.5284   -1.2525 H   0  0  0  0  0  0
    0.2293  -35.0216    0.1733 H   0  0  0  0  0  0
    1.7812  -35.9223    0.2563 H   0  0  0  0  0  0
   -1.2093  -39.2551   -0.5527 H   0  0  0  0  0  0
   -2.0605  -37.9160    0.2892 H   0  0  0  0  0  0
   -1.6405  -36.5790   -1.4240 H   0  0  0  0  0  0
   -0.7746  -37.9134   -2.2584 H   0  0  0  0  0  0
    0.0519  -36.8620   -3.9835 H   0  0  0  0  0  0
    1.0760  -35.6876   -5.8407 H   0  0  0  0  0  0
  1  2  2  0  0  0
  1 17  1  0  0  0
  1 30  1  0  0  0
  2  3  1  0  0  0
  2 31  1  0  0  0
  3 18  2  0  0  0
  3 32  1  0  0  0
  4 17  2  0  0  0
  4 18  1  0  0  0
  4 33  1  0  0  0
  5 13  1  0  0  0
  5 19  2  0  0  0
  5 20  1  0  0  0
  6 21  2  0  0  0
  6 22  1  0  0  0
  6 34  1  0  0  0
  7 22  2  0  0  0
  7 23  1  0  0  0
  7 28  1  0  0  0
  8 24  1  0  0  0
  8 25  1  0  0  0
  8 35  1  0  0  0
  8 36  1  0  0  0
  9 10  1  0  0  0
 10 11  2  0  0  0
 10 14  1  0  0  0
 11 12  1  0  0  0
 11 37  1  0  0  0
 12 13  2  0  0  0
 13 14  1  0  0  0
 14 15  1  0  0  0
 15 16  2  0  0  0
 15 38  1  0  0  0
 16 17  1  0  0  0
 16 19  1  0  0  0
 20 21  1  0  0  0
 20 39  1  0  0  0
 21 29  1  0  0  0
 22 40  1  0  0  0
 23 24  1  0  0  0
 23 27  1  0  0  0
 24 41  1  0  0  0
 24 42  1  0  0  0
 25 26  1  0  0  0
 26 27  1  0  0  0
 26 43  1  0  0  0
 26 44  1  0  0  0
 27 45  1  0  0  0
 27 46  1  0  0  0
 28 29  2  0  0  0
 28 47  1  0  0  0
 29 48  1  0  0  0
M  END
> <s_m_source_file>
../2xne_ligand.sdf

> <i_m_source_file_index>
1

> <s_epik_input>
W2NIXTFuW2NIXVtjSF1bY0hdYzEtYyhbY0hdbihjMjMpYyhDbClbY0hdbjMpbmMyW05IXWMoW2NIXVtjSF00KVtjSF1bY0hdYzRONVtDSDJdW0NIMl1PW0NIMl1bQ0gyXTU=

> <s_epik_cmdline>
J2VwaWtfYXBwJywgJy1pbWFlJywgJ2xpZ2FuZF9wcm8ubWFlJywgJy1vbWFlJywgJ2xpZ2FuZF9wcmVwLm1hZScsICctbXMnLCAnMScsICctcGgnLCAnNycsICctcGh0JywgJzAuNScsICctbnQn

> <r_lp_tautomer_probability>
1

> <r_epik_Ionization_Penalty>
  0.0044

> <r_epik_Ionization_Penalty_Charging>
  0.0000

> <r_epik_Ionization_Penalty_Neutral>
  0.0043

> <r_epik_State_Penalty>
 -0.0000

> <r_epik_Charging_Adjusted_Penalty>
4.42365563593815e-05

> <i_epik_Tot_Q>
0

> <i_epik_Tot_abs_Q>
0

$$$$
