2xng_ligand
                    3D
 Schrodinger Suite 2020-3.
 70 74  0  0  1  0            999 V2000
    5.5990  -28.5660   -9.5890 Cl  0  0  0  0  0  0
    4.6630  -29.9160   -9.0910 C   0  0  3  0  0  0
    3.8100  -30.8800   -9.9570 C   0  0  0  0  0  0
    3.1920  -31.8440   -8.9670 N   0  0  1  0  0  0
    3.6780  -31.4480   -7.5890 C   0  0  3  0  0  0
    4.5210  -30.3320   -7.7500 N   0  0  3  0  0  0
    5.1880  -29.6640   -6.5820 C   0  0  0  0  0  0
    4.8910  -30.2000   -5.1690 C   0  0  2  0  0  0
    5.5280  -29.6770   -3.9250 C   0  0  0  0  0  0
    5.2500  -30.3330   -2.7290 C   0  0  0  0  0  0
    5.8760  -29.8730   -1.4650 C   0  0  0  0  0  0
    5.5430  -30.5560   -0.1730 C   0  0  0  0  0  0
    5.8870  -31.9850    0.0360 N   0  0  3  0  0  0
    4.5020  -32.8620    0.4230 S   0  0  0  0  0  0
    4.3540  -33.9820   -0.4990 O   0  0  0  0  0  0
    4.6220  -33.4450    2.0640 C   0  0  0  0  0  0
    3.3530  -31.9790    0.3460 O   0  0  0  0  0  0
    6.8110  -28.6900   -1.5070 C   0  0  0  0  0  0
    7.1080  -28.0060   -2.7610 C   0  0  0  0  0  0
    6.5160  -28.4420   -3.9590 C   0  0  0  0  0  0
    4.0560  -31.3820   -5.0400 N   0  0  1  0  0  0
    3.4310  -32.0070   -6.2160 C   0  0  1  0  0  0
    2.5640  -33.1110   -5.9180 N   0  0  0  0  0  0
    1.8710  -33.8610   -4.8920 C   0  0  0  0  0  0
    2.1460  -33.4420   -3.5280 C   0  0  0  0  0  0
    1.5100  -34.1210   -2.4210 C   0  0  0  0  0  0
    0.5220  -35.2990   -2.7240 C   0  0  1  0  0  0
   -0.1320  -35.9880   -1.5990 N   0  0  0  0  0  0
    0.0290  -35.5150   -0.1990 C   0  0  0  0  0  0
    0.0420  -36.6980    0.7660 C   0  0  0  0  0  0
    0.0460  -37.9930    0.1070 O   0  0  0  0  0  0
   -1.0430  -38.1920   -0.8280 C   0  0  0  0  0  0
   -1.0600  -37.1350   -1.9230 C   0  0  0  0  0  0
    0.2230  -35.7360   -4.1630 C   0  0  0  0  0  0
    0.8250  -35.1020   -5.2120 C   0  0  0  0  0  0
    3.7890  -29.2613   -8.9589 H   0  0  0  0  0  0
    3.0444  -30.3056  -10.4992 H   0  0  0  0  0  0
    4.4598  -31.3970  -10.6784 H   0  0  0  0  0  0
    2.0956  -31.7754   -9.0240 H   0  0  0  0  0  0
    4.5432  -32.1178   -7.7017 H   0  0  0  0  0  0
    6.2800  -29.7405   -6.6904 H   0  0  0  0  0  0
    4.8961  -28.6039   -6.5501 H   0  0  0  0  0  0
    4.2224  -29.3693   -4.8989 H   0  0  0  0  0  0
    4.5714  -31.1859   -2.7212 H   0  0  0  0  0  0
    6.0525  -30.0420    0.6554 H   0  0  0  0  0  0
    4.4555  -30.5239   -0.0109 H   0  0  0  0  0  0
    6.8890  -32.3539   -0.2284 H   0  0  0  0  0  0
    5.4871  -34.1187    2.1514 H   0  0  0  0  0  0
    3.7040  -33.9910    2.3272 H   0  0  0  0  0  0
    4.7504  -32.5927    2.7474 H   0  0  0  0  0  0
    7.2730  -28.3399   -0.5839 H   0  0  0  0  0  0
    7.7899  -27.1557   -2.7689 H   0  0  0  0  0  0
    6.7348  -27.9357   -4.8992 H   0  0  0  0  0  0
    4.6450  -32.2009   -4.6012 H   0  0  0  0  0  0
    3.3883  -32.6895   -7.0776 H   0  0  0  0  0  0
    2.8379  -32.6083   -3.3376 H   0  0  0  0  0  0
    2.2795  -34.5643   -1.7719 H   0  0  0  0  0  0
    0.9133  -33.4002   -1.8427 H   0  0  0  0  0  0
    1.3578  -36.0125   -2.6751 H   0  0  0  0  0  0
    0.9774  -34.9658   -0.1043 H   0  0  0  0  0  0
   -0.8074  -34.8499    0.0618 H   0  0  0  0  0  0
    0.9436  -36.6488    1.3942 H   0  0  0  0  0  0
   -0.8526  -36.6598    1.4050 H   0  0  0  0  0  0
   -0.9406  -39.1776   -1.3057 H   0  0  0  0  0  0
   -2.0014  -38.1429   -0.2904 H   0  0  0  0  0  0
   -2.0879  -36.7571   -2.0263 H   0  0  0  0  0  0
   -0.7458  -37.6056   -2.8663 H   0  0  0  0  0  0
   -0.4785  -36.5626   -4.3492 H   0  0  0  0  0  0
    0.6103  -35.4195   -6.2431 H   0  0  0  0  0  0
    2.1871  -33.7493   -6.7307 H   0  0  0  0  0  0
  1  2  1  0  0  0
  2  3  1  0  0  0
  2  6  1  0  0  0
  2 36  1  0  0  0
  3  4  1  0  0  0
  3 37  1  0  0  0
  3 38  1  0  0  0
  4  5  1  0  0  0
  4 39  1  0  0  0
  5  6  1  0  0  0
  5 22  1  0  0  0
  5 40  1  0  0  0
  6  7  1  0  0  0
  7  8  1  0  0  0
  7 41  1  0  0  0
  7 42  1  0  0  0
  8  9  1  0  0  0
  8 21  1  0  0  0
  8 43  1  0  0  0
  9 10  2  0  0  0
  9 20  1  0  0  0
 10 11  1  0  0  0
 10 44  1  0  0  0
 11 12  1  0  0  0
 11 18  2  0  0  0
 12 13  1  0  0  0
 12 45  1  0  0  0
 12 46  1  0  0  0
 13 14  1  0  0  0
 13 47  1  0  0  0
 14 15  2  0  0  0
 14 16  1  0  0  0
 14 17  2  0  0  0
 16 48  1  0  0  0
 16 49  1  0  0  0
 16 50  1  0  0  0
 18 19  1  0  0  0
 18 51  1  0  0  0
 19 20  2  0  0  0
 19 52  1  0  0  0
 20 53  1  0  0  0
 21 22  1  0  0  0
 21 54  1  0  0  0
 22 23  1  0  0  0
 22 55  1  0  0  0
 23 24  1  0  0  0
 23 70  1  0  0  0
 24 25  2  0  0  0
 24 35  1  0  0  0
 25 26  1  0  0  0
 25 56  1  0  0  0
 26 27  1  0  0  0
 26 57  1  0  0  0
 26 58  1  0  0  0
 27 28  1  0  0  0
 27 34  1  0  0  0
 27 59  1  0  0  0
 28 29  1  0  0  0
 28 33  1  0  0  0
 29 30  1  0  0  0
 29 60  1  0  0  0
 29 61  1  0  0  0
 30 31  1  0  0  0
 30 62  1  0  0  0
 30 63  1  0  0  0
 31 32  1  0  0  0
 32 33  1  0  0  0
 32 64  1  0  0  0
 32 65  1  0  0  0
 33 66  1  0  0  0
 33 67  1  0  0  0
 34 35  2  0  0  0
 34 68  1  0  0  0
 35 69  1  0  0  0
M  END
> <s_m_source_file>
../2xng_ligand.sdf

> <i_m_source_file_index>
1

> <s_epik_input>
Tz1TKD1PKShbQ0gzXSlbTkhdW0NIMl1jKFtjSF1bY0hdW2NIXTEpW2NIXWMxW0NAQEhdKFtDSDJdW05IK10oW0NIXTIzKVtDSF0oQ2wpW0NIMl1bTkgyK10yKVtOSDIrXVtDSF0zW05IXUM0PVtDSF1bQ0gyXVtDSF0oW0NIXT1bQ0hdNClbTkgrXTVbQ0gyXVtDSDJdT1tDSDJdW0NIMl01

> <s_epik_cmdline>
J2VwaWtfYXBwJywgJy1pbWFlJywgJ2xpZ2FuZF9wcm8ubWFlJywgJy1vbWFlJywgJ2xpZ2FuZF9wcmVwLm1hZScsICctbXMnLCAnMScsICctcGgnLCAnNycsICctcGh0JywgJzAuNScsICctbnQn

> <r_lp_tautomer_probability>
1

> <r_epik_Ionization_Penalty>
  0.0261

> <r_epik_Ionization_Penalty_Charging>
  0.0000

> <r_epik_Ionization_Penalty_Neutral>
  0.0261

> <r_epik_State_Penalty>
 -0.0000

> <r_epik_Charging_Adjusted_Penalty>
4.11892017184889e-06

> <i_epik_Tot_Q>
0

> <i_epik_Tot_abs_Q>
0

> <s_epik_Chemistry_Notes>
This compound has an imine and may undergo hydrolysis. This compound contains an acetal/aminal-like group ( X-CH(R)-Y where X, Y are N, S, or O) that may be acid/base labile, releasing an aldehyde.

$$$$
