2xni_ligand
                    3D
 Schrodinger Suite 2020-3.
 95 98  0  0  1  0            999 V2000
    7.0800   29.5860   12.8570 N   0  0  0  0  0  0
    7.8120   30.3600   12.0390 C   0  0  0  0  0  0
    7.1400   31.3390   11.0300 C   0  0  1  0  0  0
    7.6980   32.6870   11.2940 N   0  0  0  0  0  0
    6.9530   33.7920   11.4890 C   0  0  0  0  0  0
    7.6780   34.9190   11.6810 O   0  0  0  0  0  0
    7.8840   35.3010   13.0370 C   0  0  0  0  0  0
    8.4330   36.7560   13.1820 C   0  0  0  0  0  0
    7.7120   37.6740   12.1590 C   0  0  0  0  0  0
    9.9650   36.7760   12.8980 C   0  0  0  0  0  0
    8.1770   37.2890   14.6320 C   0  0  0  0  0  0
    8.6650   36.3020   15.7290 C   0  0  0  0  0  0
    7.4740   35.8420   16.6100 C   0  0  0  0  0  0
    7.9970   34.8320   17.6570 C   0  0  0  0  0  0
    6.9070   34.3330   18.6390 C   0  0  0  0  0  0
    6.0470   33.2470   18.3540 C   0  0  0  0  0  0
    5.9300   32.3700   17.1370 C   0  0  0  0  0  0
    4.8480   31.4020   17.3900 N   0  0  0  0  0  0
    4.5170   30.4670   16.4490 C   0  0  0  0  0  0
    5.2380   30.5030   15.2980 O   0  0  0  0  0  0
    5.5030   29.2650   14.5960 C   0  0  1  0  0  0
    5.6110   29.5080   13.0950 C   0  0  0  0  0  0
    6.8190   28.6420   15.0520 C   0  0  0  0  0  0
    7.8340   28.8510   13.8990 C   0  0  1  0  0  0
    8.3500   27.5060   13.3550 C   0  0  0  0  0  0
    9.3170   26.8380   13.9990 N   0  0  0  0  0  0
    9.8300   25.5440   13.4980 C   0  0  2  0  0  0
    9.9230   24.4630   14.6920 B   0  0  0  0  0  0
    9.9330   23.1890   14.2160 O   0  0  0  0  0  0
    8.8720   24.6140   15.5290 O   0  0  0  0  0  0
   11.2280   25.7390   12.8320 C   0  0  0  0  0  0
   11.1100   26.4820   11.4750 C   0  0  0  0  0  0
   10.8200   27.8470   11.7060 O   0  0  0  0  0  0
    8.0200   27.1670   12.2610 O   0  0  0  0  0  0
    3.6450   29.6680   16.6280 O   0  0  0  0  0  0
    4.2800   31.6530   18.7460 C   0  0  0  0  0  0
    5.0910   32.8430   19.2990 C   0  0  0  0  0  0
    5.0100   33.5240   20.5200 C   0  0  0  0  0  0
    5.8680   34.5940   20.8130 C   0  0  0  0  0  0
    6.8190   34.9970   19.8710 C   0  0  0  0  0  0
    5.7620   33.7990   11.4100 O   0  0  0  0  0  0
    7.2760   30.9230    9.5190 C   0  0  0  0  0  0
    6.8240   32.0770    8.5690 C   0  0  0  0  0  0
    6.3500   29.7060    9.2350 C   0  0  0  0  0  0
    8.7370   30.5350    9.1430 C   0  0  0  0  0  0
    9.0000   30.2960   12.0840 O   0  0  0  0  0  0
    6.0569   31.3763   11.2187 H   0  0  0  0  0  0
    8.7874   32.8318   11.3407 H   0  0  0  0  0  0
    6.9301   35.2471   13.5821 H   0  0  0  0  0  0
    8.6117   34.6204   13.5032 H   0  0  0  0  0  0
    7.8917   37.2998   11.1403 H   0  0  0  0  0  0
    8.1021   38.6987   12.2474 H   0  0  0  0  0  0
    6.6313   37.6740   12.3644 H   0  0  0  0  0  0
   10.1542   36.4028   11.8807 H   0  0  0  0  0  0
   10.4813   36.1333   13.6263 H   0  0  0  0  0  0
   10.3409   37.8060   12.9866 H   0  0  0  0  0  0
    8.7115   38.2400   14.7727 H   0  0  0  0  0  0
    7.0987   37.4493   14.7787 H   0  0  0  0  0  0
    9.1203   35.4209   15.2532 H   0  0  0  0  0  0
    9.4103   36.8009   16.3659 H   0  0  0  0  0  0
    7.0349   36.7138   17.1171 H   0  0  0  0  0  0
    6.7122   35.3642   15.9764 H   0  0  0  0  0  0
    8.4041   33.9488   17.1430 H   0  0  0  0  0  0
    8.7884   35.3036   18.2580 H   0  0  0  0  0  0
    5.6934   32.9900   16.2597 H   0  0  0  0  0  0
    6.8826   31.8461   16.9696 H   0  0  0  0  0  0
    4.6429   28.6283   14.8505 H   0  0  0  0  0  0
    5.1394   30.4538   12.7900 H   0  0  0  0  0  0
    5.1876   28.6808   12.5065 H   0  0  0  0  0  0
    7.1620   29.1408   15.9705 H   0  0  0  0  0  0
    6.6680   27.5707   15.2510 H   0  0  0  0  0  0
    8.7185   29.4291   14.2047 H   0  0  0  0  0  0
    9.7301   27.2737   14.9207 H   0  0  0  0  0  0
    9.1017   25.2402   12.7317 H   0  0  0  0  0  0
   10.7182   22.8700   13.5148 H   0  0  0  0  0  0
    8.6933   25.5829   16.0182 H   0  0  0  0  0  0
   11.8725   26.3305   13.4989 H   0  0  0  0  0  0
   11.6891   24.7565   12.6530 H   0  0  0  0  0  0
   12.0600   26.3975   10.9269 H   0  0  0  0  0  0
   10.3019   26.0320   10.8796 H   0  0  0  0  0  0
   10.6998   28.5352   10.8563 H   0  0  0  0  0  0
    3.2107   31.8949   18.6566 H   0  0  0  0  0  0
    4.4017   30.7531   19.3668 H   0  0  0  0  0  0
    4.2668   33.2169   21.2558 H   0  0  0  0  0  0
    5.7937   35.1090   21.7708 H   0  0  0  0  0  0
    7.4909   35.8259   20.0937 H   0  0  0  0  0  0
    5.7926   32.3708    8.8139 H   0  0  0  0  0  0
    6.8690   31.7318    7.5256 H   0  0  0  0  0  0
    7.4920   32.9413    8.6984 H   0  0  0  0  0  0
    5.3134   29.9653    9.4961 H   0  0  0  0  0  0
    6.6768   28.8475    9.8402 H   0  0  0  0  0  0
    6.4050   29.4446    8.1679 H   0  0  0  0  0  0
    9.4046   31.3871    9.3387 H   0  0  0  0  0  0
    8.7831   30.2705    8.0763 H   0  0  0  0  0  0
    9.0549   29.6734    9.7485 H   0  0  0  0  0  0
  1  2  1  0  0  0
  1 22  1  0  0  0
  1 24  1  0  0  0
  2  3  1  0  0  0
  2 46  2  0  0  0
  3  4  1  0  0  0
  3 42  1  0  0  0
  3 47  1  0  0  0
  4  5  1  0  0  0
  4 48  1  0  0  0
  5  6  1  0  0  0
  5 41  2  0  0  0
  6  7  1  0  0  0
  7  8  1  0  0  0
  7 49  1  0  0  0
  7 50  1  0  0  0
  8  9  1  0  0  0
  8 10  1  0  0  0
  8 11  1  0  0  0
  9 51  1  0  0  0
  9 52  1  0  0  0
  9 53  1  0  0  0
 10 54  1  0  0  0
 10 55  1  0  0  0
 10 56  1  0  0  0
 11 12  1  0  0  0
 11 57  1  0  0  0
 11 58  1  0  0  0
 12 13  1  0  0  0
 12 59  1  0  0  0
 12 60  1  0  0  0
 13 14  1  0  0  0
 13 61  1  0  0  0
 13 62  1  0  0  0
 14 15  1  0  0  0
 14 63  1  0  0  0
 14 64  1  0  0  0
 15 16  2  0  0  0
 15 40  1  0  0  0
 16 17  1  0  0  0
 16 37  1  0  0  0
 17 18  1  0  0  0
 17 65  1  0  0  0
 17 66  1  0  0  0
 18 19  1  0  0  0
 18 36  1  0  0  0
 19 20  1  0  0  0
 19 35  2  0  0  0
 20 21  1  0  0  0
 21 22  1  0  0  0
 21 23  1  0  0  0
 21 67  1  0  0  0
 22 68  1  0  0  0
 22 69  1  0  0  0
 23 24  1  0  0  0
 23 70  1  0  0  0
 23 71  1  0  0  0
 24 25  1  0  0  0
 24 72  1  0  0  0
 25 26  1  0  0  0
 25 34  2  0  0  0
 26 27  1  0  0  0
 26 73  1  0  0  0
 27 28  1  0  0  0
 27 31  1  0  0  0
 27 74  1  0  0  0
 28 29  1  0  0  0
 28 30  1  0  0  0
 29 75  1  0  0  0
 30 76  1  0  0  0
 31 32  1  0  0  0
 31 77  1  0  0  0
 31 78  1  0  0  0
 32 33  1  0  0  0
 32 79  1  0  0  0
 32 80  1  0  0  0
 33 81  1  0  0  0
 36 37  1  0  0  0
 36 82  1  0  0  0
 36 83  1  0  0  0
 37 38  2  0  0  0
 38 39  1  0  0  0
 38 84  1  0  0  0
 39 40  2  0  0  0
 39 85  1  0  0  0
 40 86  1  0  0  0
 42 43  1  0  0  0
 42 44  1  0  0  0
 42 45  1  0  0  0
 43 87  1  0  0  0
 43 88  1  0  0  0
 43 89  1  0  0  0
 44 90  1  0  0  0
 44 91  1  0  0  0
 44 92  1  0  0  0
 45 93  1  0  0  0
 45 94  1  0  0  0
 45 95  1  0  0  0
M  END
> <s_m_source_file>
../2xni_ligand.sdf

> <i_m_source_file_index>
1

> <s_epik_input>
TjEyQyg9TylbQ0BIXShDKFtDSDNdKShbQ0gzXSlbQ0gzXSlbTkhdQyg9TylPW0NIMl1DKFtDSDNdKShbQ0gzXSlbQ0gyXVtDSDJdW0NIMl1bQ0gyXWMzYzRjKFtjSF1bY0hdW2NIXTMpW0NIMl1OKFtDSDJdNClDKD1PKU9bQ0BASF0oW0NIMl0xKVtDSDJdW0NASF0yQyg9TylbTkhdW0NASF0oQihbT0hdKVtPSF0pW0NIMl1bQ0gyXVtPSF0=

> <s_epik_cmdline>
J2VwaWtfYXBwJywgJy1pbWFlJywgJ2xpZ2FuZF9wcm8ubWFlJywgJy1vbWFlJywgJ2xpZ2FuZF9wcmVwLm1hZScsICctbXMnLCAnMScsICctcGgnLCAnNycsICctcGh0JywgJzAuNScsICctbnQn

> <r_lp_tautomer_probability>
1

> <r_epik_Ionization_Penalty>
  0.0001

> <r_epik_Ionization_Penalty_Charging>
  0.0000

> <r_epik_Ionization_Penalty_Neutral>
  0.0001

> <r_epik_State_Penalty>
 -0.0000

> <r_epik_Charging_Adjusted_Penalty>
0

> <i_epik_Tot_Q>
0

> <i_epik_Tot_abs_Q>
0

> <s_epik_Chemistry_Notes>
This compound has an ester and may undergo hydrolysis at high or low pH. This compound contains a Lewis acid (boronic acid) which adds nucleophiles to form tetrahedral complexes, lowering the experimental pKa

$$$$
