2xnm_ligand
                    3D
 Schrodinger Suite 2020-3.
 66 70  0  0  1  0            999 V2000
   26.5450   11.5320  -13.4870 C   0  0  0  0  0  0
   26.0530   10.9310  -14.7630 C   0  0  1  0  0  0
   24.9040   10.1520  -14.5520 O   0  0  0  0  0  0
   24.5000    9.2340  -15.5350 C   0  0  0  0  0  0
   25.3800    8.8950  -16.9260 C   0  0  0  0  0  0
   24.6110    7.8810  -17.7080 C   0  0  0  0  0  0
   25.0500    7.4600  -18.9100 N   0  0  0  0  0  0
   24.8800    6.2150  -19.4770 C   0  0  0  0  0  0
   25.4780    6.2810  -20.7620 N   0  0  0  0  0  0
   25.9710    7.5700  -20.9760 C   0  0  0  0  0  0
   26.6840    8.2170  -22.1010 C   0  0  0  0  0  0
   27.0850    9.6380  -22.0060 C   0  0  0  0  0  0
   26.7790   10.3720  -20.8370 C   0  0  0  0  0  0
   27.1390   11.7190  -20.6520 O   0  0  0  0  0  0
   27.6850   12.2950  -21.8080 C   0  0  2  0  0  0
   29.2150   12.2820  -22.0070 C   0  0  0  0  0  0
   29.8960   13.6740  -22.0380 C   0  0  0  0  0  0
   29.0940   14.7140  -22.7120 N   0  3  2  0  0  0
   29.7520   16.0070  -22.8220 C   0  0  0  0  0  0
   27.7350   14.7990  -22.1510 C   0  0  0  0  0  0
   26.9680   13.5120  -22.3860 C   0  0  0  0  0  0
   26.0770    9.7250  -19.7170 C   0  0  0  0  0  0
   25.6840    8.3120  -19.8270 C   0  0  0  0  0  0
   23.1830    7.4880  -16.9390 S   0  0  0  0  0  0
   23.2190    8.3830  -15.5800 C   0  0  0  0  0  0
   22.1830    8.3820  -14.5250 C   0  0  0  0  0  0
   22.4150    9.1420  -13.3460 N   0  0  0  0  0  0
   21.2660    7.5970  -14.6150 O   0  0  0  0  0  0
   25.8590   11.9660  -15.8650 C   0  0  0  0  0  0
   24.5500   12.5590  -15.9980 C   0  0  0  0  0  0
   24.2840   13.5770  -17.0300 C   0  0  0  0  0  0
   25.3570   13.9900  -17.9080 C   0  0  0  0  0  0
   26.6750   13.4060  -17.7770 C   0  0  0  0  0  0
   26.9450   12.3850  -16.7550 C   0  0  0  0  0  0
   28.3350   11.8290  -16.6620 C   0  0  0  0  0  0
   28.8040   11.9480  -15.4150 F   0  0  0  0  0  0
   29.1330   12.5140  -17.4830 F   0  0  0  0  0  0
   28.3440   10.5540  -17.0410 F   0  0  0  0  0  0
   26.6658   10.7413  -12.7319 H   0  0  0  0  0  0
   25.8177   12.2746  -13.1271 H   0  0  0  0  0  0
   27.5138   12.0226  -13.6624 H   0  0  0  0  0  0
   26.7915   10.1873  -15.0971 H   0  0  0  0  0  0
   26.3371    9.3348  -17.2063 H   0  0  0  0  0  0
   24.3857    5.3533  -19.0284 H   0  0  0  0  0  0
   26.9137    7.6456  -23.0004 H   0  0  0  0  0  0
   27.6127   10.1157  -22.8315 H   0  0  0  0  0  0
   27.3087   11.4100  -22.3421 H   0  0  0  0  0  0
   29.6870   11.7242  -21.1848 H   0  0  0  0  0  0
   29.4561   11.7975  -22.9646 H   0  0  0  0  0  0
   30.0767   14.0168  -21.0085 H   0  0  0  0  0  0
   30.8539   13.6017  -22.5738 H   0  0  0  0  0  0
   28.9998   14.3987  -23.7616 H   0  0  0  0  0  0
   30.7579   15.8716  -23.2460 H   0  0  0  0  0  0
   29.8330   16.4632  -21.8244 H   0  0  0  0  0  0
   29.1626   16.6637  -23.4788 H   0  0  0  0  0  0
   27.7962   14.9801  -21.0677 H   0  0  0  0  0  0
   27.1913   15.6261  -22.6309 H   0  0  0  0  0  0
   26.8441   13.3833  -23.4714 H   0  0  0  0  0  0
   25.9798   13.6140  -21.9137 H   0  0  0  0  0  0
   25.8499   10.2890  -18.8123 H   0  0  0  0  0  0
   23.2594    9.8457  -13.3025 H   0  0  0  0  0  0
   21.7501    9.0263  -12.4773 H   0  0  0  0  0  0
   23.7484   12.2502  -15.3271 H   0  0  0  0  0  0
   23.2903   14.0136  -17.1305 H   0  0  0  0  0  0
   25.1720   14.7449  -18.6722 H   0  0  0  0  0  0
   27.4757   13.7269  -18.4434 H   0  0  0  0  0  0
  1  2  1  0  0  0
  1 39  1  0  0  0
  1 40  1  0  0  0
  1 41  1  0  0  0
  2  3  1  0  0  0
  2 29  1  0  0  0
  2 42  1  0  0  0
  3  4  1  0  0  0
  4  5  1  0  0  0
  4 25  2  0  0  0
  5  6  2  0  0  0
  5 43  1  0  0  0
  6  7  1  0  0  0
  6 24  1  0  0  0
  7  8  1  0  0  0
  7 23  1  0  0  0
  8  9  2  0  0  0
  8 44  1  0  0  0
  9 10  1  0  0  0
 10 11  2  0  0  0
 10 23  1  0  0  0
 11 12  1  0  0  0
 11 45  1  0  0  0
 12 13  2  0  0  0
 12 46  1  0  0  0
 13 14  1  0  0  0
 13 22  1  0  0  0
 14 15  1  0  0  0
 15 16  1  0  0  0
 15 21  1  0  0  0
 15 47  1  0  0  0
 16 17  1  0  0  0
 16 48  1  0  0  0
 16 49  1  0  0  0
 17 18  1  0  0  0
 17 50  1  0  0  0
 17 51  1  0  0  0
 18 19  1  0  0  0
 18 20  1  0  0  0
 18 52  1  0  0  0
 19 53  1  0  0  0
 19 54  1  0  0  0
 19 55  1  0  0  0
 20 21  1  0  0  0
 20 56  1  0  0  0
 20 57  1  0  0  0
 21 58  1  0  0  0
 21 59  1  0  0  0
 22 23  2  0  0  0
 22 60  1  0  0  0
 24 25  1  0  0  0
 25 26  1  0  0  0
 26 27  1  0  0  0
 26 28  2  0  0  0
 27 61  1  0  0  0
 27 62  1  0  0  0
 29 30  2  0  0  0
 29 34  1  0  0  0
 30 31  1  0  0  0
 30 63  1  0  0  0
 31 32  2  0  0  0
 31 64  1  0  0  0
 32 33  1  0  0  0
 32 65  1  0  0  0
 33 34  2  0  0  0
 33 66  1  0  0  0
 34 35  1  0  0  0
 35 36  1  0  0  0
 35 37  1  0  0  0
 35 38  1  0  0  0
M  CHG  1  18   1
M  END
> <s_m_source_file>
../2xnm_ligand.sdf

> <i_m_source_file_index>
1

> <s_epik_input>
RkMoRikoRiljMVtjSF1bY0hdW2NIXVtjSF1jMVtDQEBIXShbQ0gzXSlPYzJbY0hdYyhzYzJDKD1PKVtOSDJdKS1uKFtjSF1uMyljKGMzNClbY0hdYyhbY0hdW2NIXTQpT1tDQEBIXTVbQ0gyXVtDSDJdW05ASCtdKFtDSDNdKVtDSDJdW0NIMl01

> <s_epik_cmdline>
J2VwaWtfYXBwJywgJy1pbWFlJywgJ2xpZ2FuZF9wcm8ubWFlJywgJy1vbWFlJywgJ2xpZ2FuZF9wcmVwLm1hZScsICctbXMnLCAnMScsICctcGgnLCAnNycsICctcGh0JywgJzAuNScsICctbnQn

> <r_lp_tautomer_probability>
1

> <r_epik_Ionization_Penalty>
  0.0347

> <r_epik_Ionization_Penalty_Charging>
  0.0104

> <r_epik_Ionization_Penalty_Neutral>
  0.0243

> <r_epik_State_Penalty>
 -0.0000

> <r_epik_Charging_Adjusted_Penalty>
0.0104447983190102

> <i_epik_Tot_Q>
1

> <i_epik_Tot_abs_Q>
1

$$$$
