2xnp_ligand
                    3D
 Schrodinger Suite 2020-3.
 69 73  0  0  1  0            999 V2000
  -26.8380   -1.2510   13.6490 C   0  0  0  0  0  0
  -26.3110   -1.8480   14.9740 C   0  0  1  0  0  0
  -25.0880   -2.4870   14.6880 O   0  0  0  0  0  0
  -24.5630   -3.4050   15.6230 C   0  0  0  0  0  0
  -25.3160   -3.7060   16.8750 C   0  0  0  0  0  0
  -24.6990   -4.6340   17.8670 C   0  0  0  0  0  0
  -26.0410   -6.0280   20.8390 N   0  0  0  0  0  0
  -25.3470   -6.1620   19.5960 C   0  0  0  0  0  0
  -25.3090   -4.9020   19.0310 N   0  0  0  0  0  0
  -25.9620   -3.9740   19.8690 C   0  0  0  0  0  0
  -26.2190   -2.5100   19.7450 C   0  0  0  0  0  0
  -26.9360   -1.8180   20.8040 C   0  0  0  0  0  0
  -27.3880   -2.5920   21.9420 C   0  0  0  0  0  0
  -28.0810   -1.9690   23.0030 O   0  0  0  0  0  0
  -29.0850   -2.8440   23.5230 C   0  0  2  0  0  0
  -30.4220   -2.1050   23.7740 C   0  0  0  0  0  0
  -30.1890   -0.7550   24.4930 C   0  0  0  0  0  0
  -29.3360   -0.8500   25.6920 N   0  3  2  0  0  0
  -29.0850    0.4060   26.4420 C   0  0  0  0  0  0
  -28.0690   -1.6130   25.4850 C   0  0  0  0  0  0
  -28.3150   -3.0170   24.8530 C   0  0  0  0  0  0
  -27.1430   -4.0200   22.0610 C   0  0  0  0  0  0
  -26.4270   -4.7070   20.9760 C   0  0  0  0  0  0
  -23.4020   -5.2640   17.6240 C   0  0  0  0  0  0
  -22.6720   -4.9710   16.3600 C   0  0  0  0  0  0
  -23.2520   -4.0380   15.3660 C   0  0  0  0  0  0
  -22.4350   -3.7670   14.0760 C   0  0  0  0  0  0
  -22.9500   -2.8950   13.0170 N   0  0  0  0  0  0
  -21.3930   -4.3080   13.9570 O   0  0  0  0  0  0
  -26.0460   -0.7240   16.0120 C   0  0  0  0  0  0
  -24.7430   -0.0600   16.0460 C   0  0  0  0  0  0
  -24.5160    1.0090   17.0070 C   0  0  0  0  0  0
  -25.5930    1.4160   17.9450 C   0  0  0  0  0  0
  -26.9240    0.7480   17.9050 C   0  0  0  0  0  0
  -27.1460   -0.2940   16.9540 C   0  0  0  0  0  0
  -28.5360   -0.9970   16.9110 C   0  0  0  0  0  0
  -29.3350   -0.3830   17.8090 F   0  0  0  0  0  0
  -28.3990   -2.3040   17.2720 F   0  0  0  0  0  0
  -29.1130   -0.9090   15.6580 F   0  0  0  0  0  0
  -27.0193   -2.0618   12.9280 H   0  0  0  0  0  0
  -26.0919   -0.5549   13.2381 H   0  0  0  0  0  0
  -27.7778   -0.7115   13.8381 H   0  0  0  0  0  0
  -26.9902   -2.6127   15.3790 H   0  0  0  0  0  0
  -26.2927   -3.2591   17.0605 H   0  0  0  0  0  0
  -24.9301   -7.0778   19.1769 H   0  0  0  0  0  0
  -25.8723   -1.9635   18.8680 H   0  0  0  0  0  0
  -27.1280   -0.7468   20.7432 H   0  0  0  0  0  0
  -29.3460   -3.7045   22.8894 H   0  0  0  0  0  0
  -30.9188   -1.9091   22.8123 H   0  0  0  0  0  0
  -31.0737   -2.7294   24.4028 H   0  0  0  0  0  0
  -29.6998   -0.0518   23.8030 H   0  0  0  0  0  0
  -31.1552   -0.3398   24.8156 H   0  0  0  0  0  0
  -29.9987   -1.4360   26.3458 H   0  0  0  0  0  0
  -30.0331    0.9465   26.5798 H   0  0  0  0  0  0
  -28.3824    1.0362   25.8771 H   0  0  0  0  0  0
  -28.6535    0.1661   27.4250 H   0  0  0  0  0  0
  -27.4074   -1.0491   24.8110 H   0  0  0  0  0  0
  -27.5673   -1.7601   26.4528 H   0  0  0  0  0  0
  -28.9087   -3.6349   25.5427 H   0  0  0  0  0  0
  -27.3509   -3.5092   24.6572 H   0  0  0  0  0  0
  -27.4836   -4.5708   22.9378 H   0  0  0  0  0  0
  -22.9734   -5.9422   18.3618 H   0  0  0  0  0  0
  -21.7093   -5.4437   16.1656 H   0  0  0  0  0  0
  -23.9227   -2.3963   13.1397 H   0  0  0  0  0  0
  -22.3639   -2.7391   12.0993 H   0  0  0  0  0  0
  -23.9518   -0.3622   15.3599 H   0  0  0  0  0  0
  -23.5504    1.5136   17.0385 H   0  0  0  0  0  0
  -25.4081    2.2099   18.6686 H   0  0  0  0  0  0
  -27.7158    1.0498   18.5907 H   0  0  0  0  0  0
  1  2  1  0  0  0
  1 40  1  0  0  0
  1 41  1  0  0  0
  1 42  1  0  0  0
  2  3  1  0  0  0
  2 30  1  0  0  0
  2 43  1  0  0  0
  3  4  1  0  0  0
  4  5  2  0  0  0
  4 26  1  0  0  0
  5  6  1  0  0  0
  5 44  1  0  0  0
  6  9  1  0  0  0
  6 24  2  0  0  0
  7  8  2  0  0  0
  7 23  1  0  0  0
  8  9  1  0  0  0
  8 45  1  0  0  0
  9 10  1  0  0  0
 10 11  1  0  0  0
 10 23  2  0  0  0
 11 12  2  0  0  0
 11 46  1  0  0  0
 12 13  1  0  0  0
 12 47  1  0  0  0
 13 14  1  0  0  0
 13 22  2  0  0  0
 14 15  1  0  0  0
 15 16  1  0  0  0
 15 21  1  0  0  0
 15 48  1  0  0  0
 16 17  1  0  0  0
 16 49  1  0  0  0
 16 50  1  0  0  0
 17 18  1  0  0  0
 17 51  1  0  0  0
 17 52  1  0  0  0
 18 19  1  0  0  0
 18 20  1  0  0  0
 18 53  1  0  0  0
 19 54  1  0  0  0
 19 55  1  0  0  0
 19 56  1  0  0  0
 20 21  1  0  0  0
 20 57  1  0  0  0
 20 58  1  0  0  0
 21 59  1  0  0  0
 21 60  1  0  0  0
 22 23  1  0  0  0
 22 61  1  0  0  0
 24 25  1  0  0  0
 24 62  1  0  0  0
 25 26  2  0  0  0
 25 63  1  0  0  0
 26 27  1  0  0  0
 27 28  1  0  0  0
 27 29  2  0  0  0
 28 64  1  0  0  0
 28 65  1  0  0  0
 30 31  2  0  0  0
 30 35  1  0  0  0
 31 32  1  0  0  0
 31 66  1  0  0  0
 32 33  2  0  0  0
 32 67  1  0  0  0
 33 34  1  0  0  0
 33 68  1  0  0  0
 34 35  2  0  0  0
 34 69  1  0  0  0
 35 36  1  0  0  0
 36 37  1  0  0  0
 36 38  1  0  0  0
 36 39  1  0  0  0
M  CHG  1  18   1
M  END
> <s_m_source_file>
../2xnp_ligand.sdf

> <i_m_source_file_index>
1

> <s_epik_input>
RkMoRikoRiljMVtjSF1bY0hdW2NIXVtjSF1jMVtDQEBIXShbQ0gzXSlPYzJbY0hdYyhbY0hdW2NIXWMyQyg9TylbTkgyXSktbjNbY0hdbmMoYzM0KVtjSF1jKFtjSF1bY0hdNClPW0NAQEhdNVtDSDJdW0NIMl1bTkBIK10oW0NIM10pW0NIMl1bQ0gyXTU=

> <s_epik_cmdline>
J2VwaWtfYXBwJywgJy1pbWFlJywgJ2xpZ2FuZF9wcm8ubWFlJywgJy1vbWFlJywgJ2xpZ2FuZF9wcmVwLm1hZScsICctbXMnLCAnMScsICctcGgnLCAnNycsICctcGh0JywgJzAuNScsICctbnQn

> <r_lp_tautomer_probability>
1

> <r_epik_Ionization_Penalty>
  0.0638

> <r_epik_Ionization_Penalty_Charging>
  0.0104

> <r_epik_Ionization_Penalty_Neutral>
  0.0533

> <r_epik_State_Penalty>
 -0.0000

> <r_epik_Charging_Adjusted_Penalty>
0.0104447983190102

> <i_epik_Tot_Q>
1

> <i_epik_Tot_abs_Q>
1

$$$$
