2xoi_ligand
                    3D
 Schrodinger Suite 2020-3.
 65 69  0  0  1  0            999 V2000
   35.3620    5.9940   22.3830 N   0  0  0  0  0  0
   38.9350    5.5860   18.6820 C   0  0  1  0  0  0
   37.3860   -0.2510   12.0990 C   0  0  1  0  0  0
   36.5960   -1.4920   12.2300 N   0  0  0  0  0  0
   39.2850    1.8510   14.4210 C   0  0  0  0  0  0
   39.6900    0.6350   16.6700 O   0  0  0  0  0  0
   35.7660    6.9150   21.4920 C   0  0  0  0  0  0
   40.3690    5.8780   19.1020 C   0  0  2  0  0  0
   40.4600    7.2290   19.5570 O   0  0  0  0  0  0
   37.3980    0.5450   13.4020 C   0  0  0  0  0  0
   35.4470   -1.6890   11.4240 C   0  0  0  0  0  0
   35.0920   -0.8160   10.6040 O   0  0  0  0  0  0
   41.6100    1.1550   15.2970 O   0  0  0  0  0  0
   36.7180    6.6300   20.5870 N   0  0  0  0  0  0
   41.2090    5.6520   17.8590 C   0  0  2  0  0  0
   41.9250    6.8360   17.4930 O   0  0  0  0  0  0
   38.8410    0.4990   13.8760 C   0  0  1  0  0  0
   34.7250   -2.8160   11.5350 N   0  0  0  0  0  0
   40.4590    2.9330   16.5100 N   0  0  3  0  0  0
   37.2940    5.3990   20.5540 C   0  0  0  0  0  0
   40.2060    5.2790   16.7710 C   0  0  2  0  0  0
   39.0130    4.8640   17.4520 O   0  0  0  0  0  0
   39.6620    0.0360   12.6800 C   0  0  2  0  0  0
   38.7460   -0.5440   11.7470 O   0  0  0  0  0  0
   35.0710   -3.7780   12.4060 C   0  0  0  0  0  0
   34.3850   -4.8200   12.4950 O   0  0  0  0  0  0
   36.8950    4.4320   21.4640 C   0  0  0  0  0  0
   40.7050    4.1930   15.8200 C   0  0  1  0  0  0
   42.1070    4.3380   15.5500 O   0  0  0  0  0  0
   40.7350   -0.9830   13.0580 C   0  0  0  0  0  0
   40.1470   -2.1440   13.6590 O   0  0  0  0  0  0
   36.1960   -3.6180   13.2110 C   0  0  0  0  0  0
   35.9080    4.7530   22.3930 C   0  0  0  0  0  0
   35.4940    3.8330   23.2950 N   0  0  0  0  0  0
   36.9520   -2.4530   13.1020 C   0  0  0  0  0  0
   37.6160    3.3210   21.2120 N   0  0  0  0  0  0
   38.4430    3.5940   20.1740 C   0  0  0  0  0  0
   38.2380    4.8600   19.7760 N   0  0  0  0  0  0
   40.2800    1.6320   15.7430 S   0  0  0  0  0  0
   38.3136    6.4674   18.4655 H   0  0  0  0  0  0
   36.9393    0.3154   11.2686 H   0  0  0  0  0  0
   39.8339    2.3985   13.6407 H   0  0  0  0  0  0
   38.4016    2.4322   14.7242 H   0  0  0  0  0  0
   35.3153    7.9074   21.5033 H   0  0  0  0  0  0
   40.7257    5.2873   19.9586 H   0  0  0  0  0  0
   39.9042    7.5467   20.4515 H   0  0  0  0  0  0
   37.0675    1.5755   13.2051 H   0  0  0  0  0  0
   36.7171    0.0736   14.1260 H   0  0  0  0  0  0
   42.0109    4.9141   18.0091 H   0  0  0  0  0  0
   42.6909    7.2462   18.1676 H   0  0  0  0  0  0
   38.9739   -0.1989   14.7158 H   0  0  0  0  0  0
   33.8342   -2.9626   10.9066 H   0  0  0  0  0  0
   40.5619    2.8756   17.6037 H   0  0  0  0  0  0
   39.9678    6.1484   16.1405 H   0  0  0  0  0  0
   40.1610    0.8898   12.1983 H   0  0  0  0  0  0
   40.2297    4.2140   14.8282 H   0  0  0  0  0  0
   42.6143    3.6285   14.8797 H   0  0  0  0  0  0
   41.2828   -1.2907   12.1551 H   0  0  0  0  0  0
   41.4352   -0.5294   13.7749 H   0  0  0  0  0  0
   40.7864   -2.9757   13.9898 H   0  0  0  0  0  0
   36.4820   -4.3960   13.9188 H   0  0  0  0  0  0
   34.7142    4.0919   24.0264 H   0  0  0  0  0  0
   35.9373    2.8263   23.2968 H   0  0  0  0  0  0
   37.8358   -2.3193   13.7258 H   0  0  0  0  0  0
   39.1582    2.8992   19.7338 H   0  0  0  0  0  0
  1  7  1  0  0  0
  1 33  2  0  0  0
  2  8  1  0  0  0
  2 22  1  0  0  0
  2 38  1  0  0  0
  2 40  1  0  0  0
  3  4  1  0  0  0
  3 10  1  0  0  0
  3 24  1  0  0  0
  3 41  1  0  0  0
  4 11  1  0  0  0
  4 35  1  0  0  0
  5 17  1  0  0  0
  5 39  1  0  0  0
  5 42  1  0  0  0
  5 43  1  0  0  0
  6 39  2  0  0  0
  7 14  2  0  0  0
  7 44  1  0  0  0
  8  9  1  0  0  0
  8 15  1  0  0  0
  8 45  1  0  0  0
  9 46  1  0  0  0
 10 17  1  0  0  0
 10 47  1  0  0  0
 10 48  1  0  0  0
 11 12  2  0  0  0
 11 18  1  0  0  0
 13 39  2  0  0  0
 14 20  1  0  0  0
 15 16  1  0  0  0
 15 21  1  0  0  0
 15 49  1  0  0  0
 16 50  1  0  0  0
 17 23  1  0  0  0
 17 51  1  0  0  0
 18 25  1  0  0  0
 18 52  1  0  0  0
 19 28  1  0  0  0
 19 39  1  0  0  0
 19 53  1  0  0  0
 20 27  2  0  0  0
 20 38  1  0  0  0
 21 22  1  0  0  0
 21 28  1  0  0  0
 21 54  1  0  0  0
 23 24  1  0  0  0
 23 30  1  0  0  0
 23 55  1  0  0  0
 25 26  2  0  0  0
 25 32  1  0  0  0
 27 33  1  0  0  0
 27 36  1  0  0  0
 28 29  1  0  0  0
 28 56  1  0  0  0
 29 57  1  0  0  0
 30 31  1  0  0  0
 30 58  1  0  0  0
 30 59  1  0  0  0
 31 60  1  0  0  0
 32 35  2  0  0  0
 32 61  1  0  0  0
 33 34  1  0  0  0
 34 62  1  0  0  0
 34 63  1  0  0  0
 35 64  1  0  0  0
 36 37  2  0  0  0
 37 38  1  0  0  0
 37 65  1  0  0  0
M  END
> <s_m_source_file>
../2xoi_ligand.sdf

> <i_m_source_file_index>
1

> <s_epik_input>
bjFbY0hdbmMoW05IMl0pYyhjMTIpbltjSF1uMltDQEhdM1tDQEhdKFtPSF0pW0NASF0oW09IXSlbQ0BIXShPMylbQ0BASF0oW09IXSlbTkhdUyg9TykoPU8pW0NIMl1bQ0BIXShbQ0BIXShPNClbQ0gyXVtPSF0pW0NIMl1bQ0BASF00bjVjKD1PKVtuSF1jKD1PKVtjSF1bY0hdNQ==

> <s_epik_cmdline>
J2VwaWtfYXBwJywgJy1pbWFlJywgJ2xpZ2FuZF9wcm8ubWFlJywgJy1vbWFlJywgJ2xpZ2FuZF9wcmVwLm1hZScsICctbXMnLCAnMScsICctcGgnLCAnNycsICctcGh0JywgJzAuNScsICctbnQn

> <r_lp_tautomer_probability>
1

> <r_epik_Ionization_Penalty>
  0.0028

> <r_epik_Ionization_Penalty_Charging>
  0.0020

> <r_epik_Ionization_Penalty_Neutral>
  0.0008

> <r_epik_State_Penalty>
 -0.0000

> <r_epik_Charging_Adjusted_Penalty>
0.00197711519656381

> <i_epik_Tot_Q>
0

> <i_epik_Tot_abs_Q>
0

> <s_epik_Chemistry_Notes>
This compound contains an acetal/aminal-like group ( X-CH(R)-Y where X, Y are N, S, or O) that may be acid/base labile, releasing an aldehyde.

$$$$
