2xp2_ligand
                    3D
 Schrodinger Suite 2020-3.
 53 56  0  0  1  0            999 V2000
   32.9370   46.3310    6.6220 Cl  0  0  0  0  0  0
   33.4020   46.0180    8.2730 C   0  0  0  0  0  0
   34.2220   47.0020    8.9000 C   0  0  0  0  0  0
   34.6560   46.8470   10.2410 C   0  0  0  0  0  0
   34.2850   45.7030   10.9980 C   0  0  0  0  0  0
   34.7220   45.6010   12.2650 F   0  0  0  0  0  0
   32.9950   44.8250    9.0120 C   0  0  0  0  0  0
   33.4550   44.6800   10.4050 C   0  0  0  0  0  0
   33.0420   43.3000   11.4140 Cl  0  0  0  0  0  0
   32.0950   43.7500    8.3080 C   0  0  1  0  0  0
   32.7790   42.3700    8.2830 C   0  0  0  0  0  0
   30.7900   43.5410    8.9500 O   0  0  0  0  0  0
   29.7900   44.5100    9.1260 C   0  0  0  0  0  0
   29.6840   45.7470    8.3920 C   0  0  0  0  0  0
   28.7610   44.2670   10.0990 C   0  0  0  0  0  0
   28.7980   43.0760   10.8500 N   0  0  0  0  0  0
   27.7320   45.1150   10.3500 N   0  0  0  0  0  0
   27.6600   46.2780    9.6400 C   0  0  0  0  0  0
   28.6090   46.6610    8.6410 C   0  0  0  0  0  0
   28.4980   47.9680    7.8660 C   0  0  0  0  0  0
   29.5440   48.6380    7.0900 C   0  0  0  0  0  0
   27.3800   48.7930    7.7370 C   0  0  0  0  0  0
   27.8290   49.8540    6.9230 N   0  0  0  0  0  0
   29.0630   49.7200    6.5830 N   0  0  0  0  0  0
   27.0170   51.0170    6.4770 C   0  0  0  0  0  0
   26.8190   52.0170    7.6370 C   0  0  0  0  0  0
   25.9750   53.2180    7.1460 C   0  0  0  0  0  0
   24.6730   52.7900    6.5550 N   0  3  0  0  0  0
   24.8360   51.7910    5.4600 C   0  0  0  0  0  0
   25.6480   50.5560    5.9130 C   0  0  0  0  0  0
   34.5200   47.8878    8.3392 H   0  0  0  0  0  0
   35.2817   47.6145   10.6966 H   0  0  0  0  0  0
   31.8826   44.1414    7.3022 H   0  0  0  0  0  0
   33.7684   42.4597    7.8107 H   0  0  0  0  0  0
   32.1608   41.6647    7.7082 H   0  0  0  0  0  0
   32.8962   42.0002    9.3123 H   0  0  0  0  0  0
   30.4321   45.9899    7.6374 H   0  0  0  0  0  0
   29.6087   42.3500   10.6902 H   0  0  0  0  0  0
   28.0161   42.8719   11.5964 H   0  0  0  0  0  0
   26.8307   46.9547    9.8463 H   0  0  0  0  0  0
   30.5651   48.2788    6.9621 H   0  0  0  0  0  0
   26.3883   48.6504    8.1663 H   0  0  0  0  0  0
   27.5977   51.4970    5.6755 H   0  0  0  0  0  0
   26.2973   51.5175    8.4667 H   0  0  0  0  0  0
   27.7995   52.3756    7.9834 H   0  0  0  0  0  0
   25.7617   53.8868    7.9928 H   0  0  0  0  0  0
   26.5345   53.7689    6.3756 H   0  0  0  0  0  0
   24.0482   52.3329    7.3365 H   0  0  0  0  0  0
   24.1548   53.6654    6.1366 H   0  0  0  0  0  0
   23.8457   51.4460    5.1281 H   0  0  0  0  0  0
   25.3644   52.2563    4.6148 H   0  0  0  0  0  0
   25.8113   49.8889    5.0538 H   0  0  0  0  0  0
   25.0919   50.0177    6.6946 H   0  0  0  0  0  0
  1  2  1  0  0  0
  2  3  2  0  0  0
  2  7  1  0  0  0
  3  4  1  0  0  0
  3 31  1  0  0  0
  4  5  2  0  0  0
  4 32  1  0  0  0
  5  6  1  0  0  0
  5  8  1  0  0  0
  7  8  2  0  0  0
  7 10  1  0  0  0
  8  9  1  0  0  0
 10 11  1  0  0  0
 10 12  1  0  0  0
 10 33  1  0  0  0
 11 34  1  0  0  0
 11 35  1  0  0  0
 11 36  1  0  0  0
 12 13  1  0  0  0
 13 14  2  0  0  0
 13 15  1  0  0  0
 14 19  1  0  0  0
 14 37  1  0  0  0
 15 16  1  0  0  0
 15 17  2  0  0  0
 16 38  1  0  0  0
 16 39  1  0  0  0
 17 18  1  0  0  0
 18 19  2  0  0  0
 18 40  1  0  0  0
 19 20  1  0  0  0
 20 21  1  0  0  0
 20 22  2  0  0  0
 21 24  2  0  0  0
 21 41  1  0  0  0
 22 23  1  0  0  0
 22 42  1  0  0  0
 23 24  1  0  0  0
 23 25  1  0  0  0
 25 26  1  0  0  0
 25 30  1  0  0  0
 25 43  1  0  0  0
 26 27  1  0  0  0
 26 44  1  0  0  0
 26 45  1  0  0  0
 27 28  1  0  0  0
 27 46  1  0  0  0
 27 47  1  0  0  0
 28 29  1  0  0  0
 28 48  1  0  0  0
 28 49  1  0  0  0
 29 30  1  0  0  0
 29 50  1  0  0  0
 29 51  1  0  0  0
 30 52  1  0  0  0
 30 53  1  0  0  0
M  CHG  1  28   1
M  END
> <s_m_source_file>
../2xp2_ligand.sdf

> <i_m_source_file_index>
1

> <s_epik_input>
Q2xjMVtjSF1bY0hdYyhGKWMoQ2wpYzFbQ0BASF0oW0NIM10pT2MyW2NIXWMoW2NIXW5jMltOSDJdKS1jM1tjSF1ubihbY0hdMylbQ0hdNFtDSDJdW0NIMl1bTkgyK11bQ0gyXVtDSDJdNA==

> <s_epik_cmdline>
J2VwaWtfYXBwJywgJy1pbWFlJywgJ2xpZ2FuZF9wcm8ubWFlJywgJy1vbWFlJywgJ2xpZ2FuZF9wcmVwLm1hZScsICctbXMnLCAnMScsICctcGgnLCAnNycsICctcGh0JywgJzAuNScsICctbnQn

> <r_lp_tautomer_probability>
0.999999404453161

> <r_epik_Ionization_Penalty>
  0.3436

> <r_epik_Ionization_Penalty_Charging>
  0.0019

> <r_epik_Ionization_Penalty_Neutral>
  0.3417

> <r_epik_State_Penalty>
  0.3362

> <r_epik_Charging_Adjusted_Penalty>
0.338089038862592

> <i_epik_Tot_Q>
1

> <i_epik_Tot_abs_Q>
1

$$$$
