2xp3_ligand
                    3D
 Schrodinger Suite 2020-3.
 25 26  0  0  1  0            999 V2000
   38.5740  -19.5420   10.2350 C   0  0  0  0  0  0
   38.8540  -18.4630   11.1170 O   0  0  0  0  0  0
   39.2030  -18.6260   12.4390 C   0  0  0  0  0  0
   39.3810  -19.8720   13.0720 C   0  0  0  0  0  0
   39.7630  -19.9660   14.4280 C   0  0  0  0  0  0
   39.9560  -18.8200   15.1920 C   0  0  0  0  0  0
   39.7690  -17.5860   14.5630 C   0  0  0  0  0  0
   39.3910  -17.4730   13.1930 C   0  0  0  0  0  0
   39.2230  -16.2080   12.6030 C   0  0  0  0  0  0
   39.4290  -15.0470   13.2900 O   0  0  0  0  0  0
   38.8510  -15.8630   11.2920 C   0  0  0  0  0  0
   38.8120  -14.4700   11.1890 C   0  0  0  0  0  0
   39.1590  -13.9870   12.4570 C   0  0  0  0  0  0
   39.3500  -12.6230   13.0910 C   0  0  0  0  0  0
   39.0310  -11.6010   12.4350 O   0  0  0  0  0  0
   39.8680  -12.5130   14.2470 O   0  5  0  0  0  0
   38.3222  -19.1463    9.2400 H   0  0  0  0  0  0
   37.7249  -20.1229   10.6243 H   0  0  0  0  0  0
   39.4583  -20.1917   10.1582 H   0  0  0  0  0  0
   39.2198  -20.7862   12.5007 H   0  0  0  0  0  0
   39.9081  -20.9468   14.8807 H   0  0  0  0  0  0
   40.2423  -18.8819   16.2419 H   0  0  0  0  0  0
   39.9179  -16.6748   15.1423 H   0  0  0  0  0  0
   38.6296  -16.5658   10.4888 H   0  0  0  0  0  0
   38.5633  -13.8818   10.3057 H   0  0  0  0  0  0
  1  2  1  0  0  0
  1 17  1  0  0  0
  1 18  1  0  0  0
  1 19  1  0  0  0
  2  3  1  0  0  0
  3  4  2  0  0  0
  3  8  1  0  0  0
  4  5  1  0  0  0
  4 20  1  0  0  0
  5  6  2  0  0  0
  5 21  1  0  0  0
  6  7  1  0  0  0
  6 22  1  0  0  0
  7  8  2  0  0  0
  7 23  1  0  0  0
  8  9  1  0  0  0
  9 10  1  0  0  0
  9 11  2  0  0  0
 10 13  1  0  0  0
 11 12  1  0  0  0
 11 24  1  0  0  0
 12 13  2  0  0  0
 12 25  1  0  0  0
 13 14  1  0  0  0
 14 15  2  0  0  0
 14 16  1  0  0  0
M  CHG  1  16  -1
M  END
> <s_m_source_file>
../2xp3_ligand.sdf

> <i_m_source_file_index>
1

> <s_epik_input>
W0NIM11PYzFbY0hdW2NIXVtjSF1bY0hdYzEtYzJvYyhbY0hdW2NIXTIpQyg9TylbT0hd

> <s_epik_cmdline>
J2VwaWtfYXBwJywgJy1pbWFlJywgJ2xpZ2FuZF9wcm8ubWFlJywgJy1vbWFlJywgJ2xpZ2FuZF9wcmVwLm1hZScsICctbXMnLCAnMScsICctcGgnLCAnNycsICctcGh0JywgJzAuNScsICctbnQn

> <r_lp_tautomer_probability>
1

> <r_epik_Ionization_Penalty>
  0.0001

> <r_epik_Ionization_Penalty_Charging>
  0.0001

> <r_epik_Ionization_Penalty_Neutral>
  0.0000

> <r_epik_State_Penalty>
 -0.0000

> <r_epik_Charging_Adjusted_Penalty>
6.20376280826829e-05

> <i_epik_Tot_Q>
-1

> <i_epik_Tot_abs_Q>
1

$$$$
