2xp5_ligand
                    3D
 Schrodinger Suite 2020-3.
 24 25  0  0  1  0            999 V2000
  -37.4850   28.4410   27.3900 O   0  5  0  0  0  0
  -37.7380   28.1510   26.1990 C   0  0  0  0  0  0
  -38.7680   28.5830   25.6820 O   0  0  0  0  0  0
  -36.8500   27.1730   25.3390 C   0  0  0  0  0  0
  -37.1340   26.7090   24.0460 C   0  0  0  0  0  0
  -36.1190   25.8980   23.6800 N   0  3  0  0  0  0
  -35.2250   25.8500   24.7240 C   0  0  0  0  0  0
  -35.6900   26.6570   25.7080 N   0  0  0  0  0  0
  -34.0100   25.1430   24.7950 C   0  0  0  0  0  0
  -33.3370   24.7610   23.6170 C   0  0  0  0  0  0
  -32.1150   24.0540   23.6470 C   0  0  0  0  0  0
  -31.5520   23.7450   24.8990 C   0  0  0  0  0  0
  -32.1830   24.1480   26.0950 C   0  0  0  0  0  0
  -33.4200   24.8350   26.0280 C   0  0  0  0  0  0
  -38.3780   27.0810   23.1580 C   0  0  0  0  0  0
  -33.7736   25.0195   22.6523 H   0  0  0  0  0  0
  -31.6200   23.7550   22.7230 H   0  0  0  0  0  0
  -30.6166   23.1873   24.9455 H   0  0  0  0  0  0
  -31.7237   23.9331   27.0598 H   0  0  0  0  0  0
  -33.9209   25.1287   26.9504 H   0  0  0  0  0  0
  -39.0388   27.7588   23.7182 H   0  0  0  0  0  0
  -38.9286   26.1654   22.8963 H   0  0  0  0  0  0
  -38.0364   27.5789   22.2385 H   0  0  0  0  0  0
  -36.1269   25.4198   22.6894 H   0  0  0  0  0  0
  1  2  1  0  0  0
  2  3  2  0  0  0
  2  4  1  0  0  0
  4  5  2  0  0  0
  4  8  1  0  0  0
  5  6  1  0  0  0
  5 15  1  0  0  0
  6  7  1  0  0  0
  6 24  1  0  0  0
  7  8  2  0  0  0
  7  9  1  0  0  0
  9 10  2  0  0  0
  9 14  1  0  0  0
 10 11  1  0  0  0
 10 16  1  0  0  0
 11 12  2  0  0  0
 11 17  1  0  0  0
 12 13  1  0  0  0
 12 18  1  0  0  0
 13 14  2  0  0  0
 13 19  1  0  0  0
 14 20  1  0  0  0
 15 21  1  0  0  0
 15 22  1  0  0  0
 15 23  1  0  0  0
M  CHG  2   1  -1   6   1
M  END
> <s_m_source_file>
../2xp5_ligand.sdf

> <i_m_source_file_index>
1

> <s_epik_input>
W09IXUMoPU8pYzFjKFtDSDNdKVtuSF1jKG4xKS1jMltjSF1bY0hdW2NIXVtjSF1bY0hdMg==

> <s_epik_cmdline>
J2VwaWtfYXBwJywgJy1pbWFlJywgJ2xpZ2FuZF9wcm8ubWFlJywgJy1vbWFlJywgJ2xpZ2FuZF9wcmVwLm1hZScsICctbXMnLCAnMScsICctcGgnLCAnNycsICctcGh0JywgJzAuNScsICctbnQn

> <r_epik_Ionization_Penalty>
  0.0006

> <r_epik_Ionization_Penalty_Charging>
  0.0006

> <r_epik_Ionization_Penalty_Neutral>
  0.0000

> <r_epik_State_Penalty>
  0.0010

> <r_epik_Charging_Adjusted_Penalty>
0.00159687935789375

> <i_epik_Tot_Q>
0

> <i_epik_Tot_abs_Q>
2

> <s_epik_Chemistry_Notes>
This compound has an imine and may undergo hydrolysis.

$$$$
