2xp8_ligand
                    3D
 Schrodinger Suite 2020-3.
 36 38  0  0  1  0            999 V2000
  -33.1440   24.9960   23.1160 C   0  0  0  0  0  0
  -31.9500   24.2850   23.0090 C   0  0  0  0  0  0
  -33.6230   29.4830   27.0160 C   0  0  0  0  0  0
  -31.3410   23.8650   24.1770 C   0  0  0  0  0  0
  -31.9190   24.1530   25.4230 C   0  0  0  0  0  0
  -33.1210   24.8430   25.5330 C   0  0  0  0  0  0
  -33.7420   25.2360   24.3620 C   0  0  0  0  0  0
  -34.9020   25.9880   24.3820 C   0  0  0  0  0  0
  -35.1350   26.8230   25.3730 N   0  0  0  0  0  0
  -35.8550   26.1000   23.4250 N   0  3  0  0  0  0
  -36.7160   27.0090   23.8630 C   0  0  0  0  0  0
  -37.9460   27.4710   23.0900 C   0  0  0  0  0  0
  -37.9820   27.2570   21.8750 O   0  0  0  0  0  0
  -38.8350   28.1450   23.6230 O   0  5  0  0  0  0
  -36.2630   27.4620   25.0970 C   0  0  3  0  0  0
  -36.8310   28.5090   26.0890 C   0  0  0  0  0  0
  -37.9410   28.3750   26.6220 O   0  0  0  0  0  0
  -36.0260   29.5510   26.4140 N   0  0  0  0  0  0
  -34.6370   29.6870   25.8620 C   0  0  0  0  0  0
  -36.3960   30.5150   27.4700 C   0  0  0  0  0  0
  -35.3690   30.2900   28.6160 C   0  0  0  0  0  0
  -34.3680   29.2220   28.2780 O   0  0  0  0  0  0
  -33.6231   25.3734   22.2126 H   0  0  0  0  0  0
  -31.5104   24.0671   22.0357 H   0  0  0  0  0  0
  -32.9731   28.6259   26.7858 H   0  0  0  0  0  0
  -33.0091   30.3887   27.1291 H   0  0  0  0  0  0
  -30.4060   23.3067   24.1298 H   0  0  0  0  0  0
  -31.4111   23.8264   26.3304 H   0  0  0  0  0  0
  -33.5576   25.0659   26.5065 H   0  0  0  0  0  0
  -34.5030   30.6893   25.4291 H   0  0  0  0  0  0
  -34.4669   28.9265   25.0856 H   0  0  0  0  0  0
  -36.3345   31.5380   27.0704 H   0  0  0  0  0  0
  -37.4238   30.3139   27.8063 H   0  0  0  0  0  0
  -34.8210   31.2247   28.8059 H   0  0  0  0  0  0
  -35.9001   29.9842   29.5295 H   0  0  0  0  0  0
  -36.0155   25.6148   22.4509 H   0  0  0  0  0  0
  1  2  2  0  0  0
  1  7  1  0  0  0
  1 23  1  0  0  0
  2  4  1  0  0  0
  2 24  1  0  0  0
  3 19  1  0  0  0
  3 22  1  0  0  0
  3 25  1  0  0  0
  3 26  1  0  0  0
  4  5  2  0  0  0
  4 27  1  0  0  0
  5  6  1  0  0  0
  5 28  1  0  0  0
  6  7  2  0  0  0
  6 29  1  0  0  0
  7  8  1  0  0  0
  8  9  2  0  0  0
  8 10  1  0  0  0
  9 15  1  0  0  0
 10 11  2  0  0  0
 10 36  1  0  0  0
 11 12  1  0  0  0
 11 15  1  0  0  0
 12 13  2  0  0  0
 12 14  1  0  0  0
 15 16  1  0  0  0
 16 17  2  0  0  0
 16 18  1  0  0  0
 18 19  1  0  0  0
 18 20  1  0  0  0
 19 30  1  0  0  0
 19 31  1  0  0  0
 20 21  1  0  0  0
 20 32  1  0  0  0
 20 33  1  0  0  0
 21 22  1  0  0  0
 21 34  1  0  0  0
 21 35  1  0  0  0
M  CHG  2  10   1  14  -1
M  END
> <s_m_source_file>
../2xp8_ligand.sdf

> <i_m_source_file_index>
1

> <s_epik_input>
W2NIXTFbY0hdW2NIXVtjSF1bY0hdYzFDMj1OW0NIXShDKD1OMilDKD1PKVtPSF0pQyg9TylOM1tDSDJdW0NIMl1PW0NIMl1bQ0gyXTM=

> <s_epik_cmdline>
J2VwaWtfYXBwJywgJy1pbWFlJywgJ2xpZ2FuZF9wcm8ubWFlJywgJy1vbWFlJywgJ2xpZ2FuZF9wcmVwLm1hZScsICctbXMnLCAnMScsICctcGgnLCAnNycsICctcGh0JywgJzAuNScsICctbnQn

> <r_epik_Ionization_Penalty>
  0.0680

> <r_epik_Ionization_Penalty_Charging>
  0.0680

> <r_epik_Ionization_Penalty_Neutral>
  0.0000

> <r_epik_State_Penalty>
  0.1119

> <r_epik_Charging_Adjusted_Penalty>
0.179829397827593

> <i_epik_Tot_Q>
0

> <i_epik_Tot_abs_Q>
2

> <s_epik_Chemistry_Notes>
This compound has an imine and may undergo hydrolysis.

$$$$
