2xpa_ligand
                    3D
 Schrodinger Suite 2020-3.
 35 36  0  0  1  0            999 V2000
   39.0110  -17.8670   10.2520 C   0  0  0  0  0  0
   38.9630  -19.2590   10.3400 C   0  0  0  0  0  0
   38.9080  -19.8960   11.5870 C   0  0  0  0  0  0
   38.9010  -19.1200   12.7480 C   0  0  0  0  0  0
   38.9310  -17.7180   12.6660 C   0  0  0  0  0  0
   38.9550  -17.0920   11.4200 C   0  0  0  0  0  0
   39.0400  -15.7000   11.3420 C   0  0  0  0  0  0
   39.6080  -14.9950   12.3240 N   0  0  0  0  0  0
   38.6750  -14.8520   10.3400 N   0  3  0  0  0  0
   39.0110  -13.6040   10.7330 C   0  0  0  0  0  0
   38.8020  -12.2970    9.9310 C   0  0  0  0  0  0
   38.5330  -12.3280    8.7110 O   0  5  0  0  0  0
   38.9850  -11.2150   10.5150 O   0  0  0  0  0  0
   39.6140  -13.7110   11.9930 C   0  0  3  0  0  0
   40.2250  -12.6800   12.9800 C   0  0  0  0  0  0
   39.4830  -11.9210   13.5970 O   0  0  0  0  0  0
   41.5650  -12.7720   13.2150 N   0  0  0  0  0  0
   42.3730  -13.7430   12.4110 C   0  0  0  0  0  0
   42.2000  -11.9070   14.2400 C   0  0  0  0  0  0
   42.6600  -12.7830   15.4700 C   0  0  0  0  0  0
   42.0210  -13.7660   15.8860 O   0  0  0  0  0  0
   43.8080  -12.3780   16.0350 N   0  0  0  0  0  0
   39.0918  -17.3834    9.2785 H   0  0  0  0  0  0
   38.9683  -19.8572    9.4289 H   0  0  0  0  0  0
   38.8711  -20.9836   11.6499 H   0  0  0  0  0  0
   38.8721  -19.6051   13.7237 H   0  0  0  0  0  0
   38.9355  -17.1191   13.5767 H   0  0  0  0  0  0
   41.7132  -14.2802   11.7139 H   0  0  0  0  0  0
   42.8580  -14.4636   13.0859 H   0  0  0  0  0  0
   43.1414  -13.1984   11.8426 H   0  0  0  0  0  0
   43.0760  -11.4045   13.8040 H   0  0  0  0  0  0
   41.4767  -11.1521   14.5819 H   0  0  0  0  0  0
   44.3397  -11.5027   15.6336 H   0  0  0  0  0  0
   44.2172  -12.9213   16.8995 H   0  0  0  0  0  0
   38.1982  -15.0108    9.3615 H   0  0  0  0  0  0
  1  2  2  0  0  0
  1  6  1  0  0  0
  1 23  1  0  0  0
  2  3  1  0  0  0
  2 24  1  0  0  0
  3  4  2  0  0  0
  3 25  1  0  0  0
  4  5  1  0  0  0
  4 26  1  0  0  0
  5  6  2  0  0  0
  5 27  1  0  0  0
  6  7  1  0  0  0
  7  8  2  0  0  0
  7  9  1  0  0  0
  8 14  1  0  0  0
  9 10  2  0  0  0
  9 35  1  0  0  0
 10 11  1  0  0  0
 10 14  1  0  0  0
 11 12  1  0  0  0
 11 13  2  0  0  0
 14 15  1  0  0  0
 15 16  2  0  0  0
 15 17  1  0  0  0
 17 18  1  0  0  0
 17 19  1  0  0  0
 18 28  1  0  0  0
 18 29  1  0  0  0
 18 30  1  0  0  0
 19 20  1  0  0  0
 19 31  1  0  0  0
 19 32  1  0  0  0
 20 21  2  0  0  0
 20 22  1  0  0  0
 22 33  1  0  0  0
 22 34  1  0  0  0
M  CHG  2   9   1  12  -1
M  END
> <s_m_source_file>
../2xpa_ligand.sdf

> <i_m_source_file_index>
1

> <s_epik_input>
W2NIXTFbY0hdW2NIXVtjSF1bY0hdYzFDMj1OW0NIXShDKD1OMilDKD1PKVtPSF0pQyg9TylOKFtDSDNdKVtDSDJdQyg9TylbTkgyXQ==

> <s_epik_cmdline>
J2VwaWtfYXBwJywgJy1pbWFlJywgJ2xpZ2FuZF9wcm8ubWFlJywgJy1vbWFlJywgJ2xpZ2FuZF9wcmVwLm1hZScsICctbXMnLCAnMScsICctcGgnLCAnNycsICctcGh0JywgJzAuNScsICctbnQn

> <r_epik_Ionization_Penalty>
  0.0833

> <r_epik_Ionization_Penalty_Charging>
  0.0833

> <r_epik_Ionization_Penalty_Neutral>
  0.0000

> <r_epik_State_Penalty>
  0.1238

> <r_epik_Charging_Adjusted_Penalty>
0.207039047120443

> <i_epik_Tot_Q>
0

> <i_epik_Tot_abs_Q>
2

> <s_epik_Chemistry_Notes>
This compound has an imine and may undergo hydrolysis.

$$$$
