2xpc_ligand
                    3D
 Schrodinger Suite 2020-3.
 58 61  0  0  1  0            999 V2000
   21.6620   34.4520   46.6590 N   0  0  0  0  0  0
   20.5700   34.4340   47.0450 C   0  0  0  0  0  0
   19.3770   34.3900   47.5450 C   0  0  0  0  0  0
   18.2940   34.8570   46.8040 C   0  0  0  0  0  0
   17.0190   34.8210   47.3460 C   0  0  0  0  0  0
   15.9530   35.2620   46.6420 F   0  0  0  0  0  0
   19.1840   33.8970   48.8300 C   0  0  0  0  0  0
   17.9060   33.8680   49.3770 C   0  0  0  0  0  0
   16.8380   34.3380   48.6270 C   0  0  0  0  0  0
   15.4910   34.3480   49.2360 C   0  0  0  0  0  0
   15.2960   33.7410   50.5430 O   0  0  0  0  0  0
   14.5590   32.6010   50.2460 C   0  0  0  0  0  0
   13.9960   32.4540   48.9670 C   0  0  0  0  0  0
   13.1540   31.3640   48.6680 C   0  0  0  0  0  0
   12.6000   31.2170   47.3910 C   0  0  0  0  0  0
   11.7450   30.1400   47.1110 C   0  0  0  0  0  0
   14.3120   31.6300   51.2170 C   0  0  0  0  0  0
   13.4820   30.5350   50.9100 C   0  0  0  0  0  0
   12.8920   30.3910   49.6640 C   0  0  0  0  0  0
   12.0870   29.2850   49.3450 C   0  0  0  0  0  0
   11.4910   29.1560   48.0770 C   0  0  0  0  0  0
   10.4330   27.9730   47.6600 S   0  0  0  0  0  0
   10.5270   27.5510   46.2550 O   0  0  0  0  0  0
   10.4780   26.8760   48.6560 O   0  0  0  0  0  0
    9.0530   28.6860   47.7600 N   0  0  3  0  0  0
    8.3880   28.9830   49.0400 C   0  0  1  0  0  0
    8.6760   30.3440   49.6830 C   0  0  0  0  0  0
    7.8240   31.3700   48.9230 C   0  0  0  0  0  0
    6.3610   30.9510   49.1420 C   0  0  1  0  0  0
    5.4350   31.9900   48.5960 C   0  0  0  0  0  0
    5.2820   33.0190   49.3070 O   0  5  0  0  0  0
    4.8720   31.7690   47.4960 O   0  0  0  0  0  0
    6.0340   29.5550   48.5770 C   0  0  0  0  0  0
    6.9940   28.5430   49.2020 C   0  0  1  0  0  0
    6.7950   27.2520   48.8220 C   0  0  0  0  0  0
    7.0870   26.3140   49.6110 O   0  5  0  0  0  0
    6.3510   27.0520   47.6880 O   0  0  0  0  0  0
   18.4490   35.2502   45.7993 H   0  0  0  0  0  0
   20.0334   33.5335   49.4083 H   0  0  0  0  0  0
   17.7453   33.4806   50.3831 H   0  0  0  0  0  0
   15.1547   35.3873   49.3652 H   0  0  0  0  0  0
   14.7879   33.8141   48.5798 H   0  0  0  0  0  0
   14.2134   33.1929   48.1957 H   0  0  0  0  0  0
   12.8336   31.9418   46.6111 H   0  0  0  0  0  0
   11.2729   30.0676   46.1312 H   0  0  0  0  0  0
   14.7589   31.7186   52.2072 H   0  0  0  0  0  0
   13.2982   29.7792   51.6736 H   0  0  0  0  0  0
   11.9207   28.5114   50.0946 H   0  0  0  0  0  0
    8.5083   28.8182   46.8135 H   0  0  0  0  0  0
    8.9272   28.2201   49.6207 H   0  0  0  0  0  0
    8.3994   30.3126   50.7472 H   0  0  0  0  0  0
    9.7475   30.5744   49.5893 H   0  0  0  0  0  0
    8.0142   32.3754   49.3266 H   0  0  0  0  0  0
    8.0884   31.3474   47.8555 H   0  0  0  0  0  0
    6.1896   30.9004   50.2274 H   0  0  0  0  0  0
    4.9956   29.2922   48.8273 H   0  0  0  0  0  0
    6.1566   29.5639   47.4839 H   0  0  0  0  0  0
    6.7788   28.3956   50.2706 H   0  0  0  0  0  0
  1  2  3  0  0  0
  2  3  1  0  0  0
  3  4  2  0  0  0
  3  7  1  0  0  0
  4  5  1  0  0  0
  4 38  1  0  0  0
  5  6  1  0  0  0
  5  9  2  0  0  0
  7  8  2  0  0  0
  7 39  1  0  0  0
  8  9  1  0  0  0
  8 40  1  0  0  0
  9 10  1  0  0  0
 10 11  1  0  0  0
 10 41  1  0  0  0
 10 42  1  0  0  0
 11 12  1  0  0  0
 12 13  2  0  0  0
 12 17  1  0  0  0
 13 14  1  0  0  0
 13 43  1  0  0  0
 14 15  2  0  0  0
 14 19  1  0  0  0
 15 16  1  0  0  0
 15 44  1  0  0  0
 16 21  2  0  0  0
 16 45  1  0  0  0
 17 18  2  0  0  0
 17 46  1  0  0  0
 18 19  1  0  0  0
 18 47  1  0  0  0
 19 20  2  0  0  0
 20 21  1  0  0  0
 20 48  1  0  0  0
 21 22  1  0  0  0
 22 23  2  0  0  0
 22 24  2  0  0  0
 22 25  1  0  0  0
 25 26  1  0  0  0
 25 49  1  0  0  0
 26 27  1  0  0  0
 26 34  1  0  0  0
 26 50  1  0  0  0
 27 28  1  0  0  0
 27 51  1  0  0  0
 27 52  1  0  0  0
 28 29  1  0  0  0
 28 53  1  0  0  0
 28 54  1  0  0  0
 29 30  1  0  0  0
 29 33  1  0  0  0
 29 55  1  0  0  0
 30 31  1  0  0  0
 30 32  2  0  0  0
 33 34  1  0  0  0
 33 56  1  0  0  0
 33 57  1  0  0  0
 34 35  1  0  0  0
 34 58  1  0  0  0
 35 36  1  0  0  0
 35 37  2  0  0  0
M  CHG  2  31  -1  36  -1
M  END
> <s_m_source_file>
../2xpc_ligand.sdf

> <i_m_source_file_index>
1

> <s_epik_input>
TiNDYzFbY0hdYyhGKWMoW2NIXVtjSF0xKVtDSDJdT2MoW2NIXTIpW2NIXVtjSF1jKGMyMylbY0hdYyhbY0hdW2NIXTMpUyg9TykoPU8pW05IXVtDQEhdNFtDSDJdW0NIMl1bQ0BASF0oQyg9TylbT0hdKVtDSDJdW0NASF00Qyg9TylbT0hd

> <s_epik_cmdline>
J2VwaWtfYXBwJywgJy1pbWFlJywgJ2xpZ2FuZF9wcm8ubWFlJywgJy1vbWFlJywgJ2xpZ2FuZF9wcmVwLm1hZScsICctbXMnLCAnMScsICctcGgnLCAnNycsICctcGh0JywgJzAuNScsICctbnQn

> <r_lp_tautomer_probability>
1

> <r_epik_Ionization_Penalty>
  0.0040

> <r_epik_Ionization_Penalty_Charging>
  0.0039

> <r_epik_Ionization_Penalty_Neutral>
  0.0000

> <r_epik_State_Penalty>
 -0.0000

> <r_epik_Charging_Adjusted_Penalty>
0.00394604137565762

> <i_epik_Tot_Q>
-2

> <i_epik_Tot_abs_Q>
2

$$$$
