2xpk_ligand
                    3D
 Schrodinger Suite 2020-3.
 53 55  0  0  1  0            999 V2000
    5.2880   -2.0340   15.7010 C   0  0  0  0  0  0
    3.8310   -1.7130   16.0410 C   0  0  0  0  0  0
    3.5460   -0.1920   16.0920 C   0  0  0  0  0  0
    4.4170    0.6470   15.8430 O   0  0  0  0  0  0
    2.2680    0.1080   16.4010 N   0  0  0  0  0  0
    1.4380    1.9530   15.0470 C   0  0  1  0  0  0
    0.1170    1.5980   14.7110 O   0  0  0  0  0  0
    1.5660    3.4860   14.9230 C   0  0  2  0  0  0
    1.2500    3.8650   13.6020 O   0  0  0  0  0  0
    2.9910    3.8840   15.2540 C   0  0  1  0  0  0
    3.2840    5.3420   14.9220 C   0  0  0  0  0  0
    2.4360    6.2280   15.6960 O   0  0  0  0  0  0
    3.1860    3.5840   16.6990 N   0  0  0  0  0  0
    3.8510    4.2020   17.6690 C   0  0  0  0  0  0
    2.6160    2.4420   17.2780 C   0  0  0  0  0  0
    2.9500    2.4610   18.5570 N   0  3  0  0  0  0
    3.6990    3.5250   18.8160 C   0  0  0  0  0  0
    4.3400    3.9160   20.1960 C   0  0  0  0  0  0
    3.3830    3.7700   21.3970 C   0  0  0  0  0  0
    2.2840    4.8380   21.3610 C   0  0  0  0  0  0
    1.0960    4.5860   20.6430 C   0  0  0  0  0  0
    0.0930    5.5520   20.5850 C   0  0  0  0  0  0
    0.2850    6.7720   21.2420 C   0  0  0  0  0  0
    1.7170    1.4580   16.4760 C   0  0  2  0  0  0
    1.4680    7.0280   21.9550 C   0  0  0  0  0  0
    2.4800    6.0590   22.0220 C   0  0  0  0  0  0
    5.5900   -3.8240   15.4400 S   0  0  0  0  0  0
    5.5727   -1.5104   14.7765 H   0  0  0  0  0  0
    5.9381   -1.7036   16.5245 H   0  0  0  0  0  0
    3.1712   -2.1524   15.2784 H   0  0  0  0  0  0
    3.5832   -2.1338   17.0267 H   0  0  0  0  0  0
    1.6248   -0.7607   16.6051 H   0  0  0  0  0  0
    2.1096    1.4511   14.3349 H   0  0  0  0  0  0
   -0.2886    1.8605   13.7228 H   0  0  0  0  0  0
    0.8520    4.0363   15.5533 H   0  0  0  0  0  0
    0.2513    3.6524   13.1928 H   0  0  0  0  0  0
    3.7079    3.3025   14.6557 H   0  0  0  0  0  0
    4.3356    5.5666   15.1536 H   0  0  0  0  0  0
    3.0982    5.5190   13.8523 H   0  0  0  0  0  0
    2.5225    7.3178   15.5738 H   0  0  0  0  0  0
    4.4304    5.1176   17.5506 H   0  0  0  0  0  0
    5.2085    3.2703   20.3930 H   0  0  0  0  0  0
    4.6639    4.9668   20.1653 H   0  0  0  0  0  0
    2.9096    2.7775   21.3700 H   0  0  0  0  0  0
    3.9499    3.8805   22.3332 H   0  0  0  0  0  0
    0.9621    3.6326   20.1319 H   0  0  0  0  0  0
   -0.8283    5.3595   20.0353 H   0  0  0  0  0  0
   -0.4934    7.5339   21.2001 H   0  0  0  0  0  0
    0.7777    1.3545   17.0391 H   0  0  0  0  0  0
    1.6003    7.9853   22.4592 H   0  0  0  0  0  0
    3.3989    6.2510   22.5759 H   0  0  0  0  0  0
    6.6000   -4.1806   15.1895 H   0  0  0  0  0  0
    2.6043    1.6606   19.2277 H   0  0  0  0  0  0
  1  2  1  0  0  0
  1 27  1  0  0  0
  1 28  1  0  0  0
  1 29  1  0  0  0
  2  3  1  0  0  0
  2 30  1  0  0  0
  2 31  1  0  0  0
  3  4  2  0  0  0
  3  5  1  0  0  0
  5 24  1  0  0  0
  5 32  1  0  0  0
  6  7  1  0  0  0
  6  8  1  0  0  0
  6 24  1  0  0  0
  6 33  1  0  0  0
  7 34  1  0  0  0
  8  9  1  0  0  0
  8 10  1  0  0  0
  8 35  1  0  0  0
  9 36  1  0  0  0
 10 11  1  0  0  0
 10 13  1  0  0  0
 10 37  1  0  0  0
 11 12  1  0  0  0
 11 38  1  0  0  0
 11 39  1  0  0  0
 12 40  1  0  0  0
 13 14  1  0  0  0
 13 15  1  0  0  0
 14 17  2  0  0  0
 14 41  1  0  0  0
 15 16  2  0  0  0
 15 24  1  0  0  0
 16 17  1  0  0  0
 16 53  1  0  0  0
 17 18  1  0  0  0
 18 19  1  0  0  0
 18 42  1  0  0  0
 18 43  1  0  0  0
 19 20  1  0  0  0
 19 44  1  0  0  0
 19 45  1  0  0  0
 20 21  2  0  0  0
 20 26  1  0  0  0
 21 22  1  0  0  0
 21 46  1  0  0  0
 22 23  2  0  0  0
 22 47  1  0  0  0
 23 25  1  0  0  0
 23 48  1  0  0  0
 24 49  1  0  0  0
 25 26  2  0  0  0
 25 50  1  0  0  0
 26 51  1  0  0  0
 27 52  1  0  0  0
M  CHG  1  16   1
M  END
> <s_m_source_file>
../2xpk_ligand.sdf

> <i_m_source_file_index>
1

> <s_epik_input>
W09IXVtDSDJdW0NAQEhdMVtDQEBIXShbT0hdKVtDQEhdKFtPSF0pW0NAQEhdKFtOSF1DKD1PKVtDSDJdW0NIMl1bU0hdKWMobjEyKW5jKFtjSF0yKVtDSDJdW0NIMl1jM1tjSF1bY0hdW2NIXVtjSF1bY0hdMw==

> <s_epik_cmdline>
J2VwaWtfYXBwJywgJy1pbWFlJywgJ2xpZ2FuZF9wcm8ubWFlJywgJy1vbWFlJywgJ2xpZ2FuZF9wcmVwLm1hZScsICctbXMnLCAnMScsICctcGgnLCAnNycsICctcGh0JywgJzAuNScsICctbnQn

> <r_lp_tautomer_probability>
1

> <r_epik_Ionization_Penalty>
  0.0289

> <r_epik_Ionization_Penalty_Charging>
  0.0000

> <r_epik_Ionization_Penalty_Neutral>
  0.0289

> <r_epik_State_Penalty>
  0.0214

> <r_epik_Charging_Adjusted_Penalty>
0.0214227941803803

> <i_epik_Tot_Q>
1

> <i_epik_Tot_abs_Q>
1

$$$$
