2xqq_ligand
                    3D
 Schrodinger Suite 2020-3.
109108  0  0  1  0            999 V2000
   41.4480   31.0370   20.2110 C   0  0  0  0  0  0
   42.3370   29.8280   20.3030 C   0  0  0  0  0  0
   40.7770   31.3210   21.2490 O   0  0  0  0  0  0
   41.1490   31.5340   18.9330 N   0  0  0  0  0  0
   40.0630   32.5400   18.7770 C   0  0  2  0  0  0
   38.7520   31.9370   18.4650 C   0  0  0  0  0  0
   38.6050   31.0980   17.5600 O   0  0  0  0  0  0
   40.4040   33.6980   17.8440 C   0  0  0  0  0  0
   41.6340   34.2800   18.2130 O   0  0  0  0  0  0
   37.7420   32.3960   19.2220 N   0  0  0  0  0  0
   36.3790   31.9040   19.0010 C   0  0  2  0  0  0
   35.3860   32.8450   19.6280 C   0  0  0  0  0  0
   35.7400   33.7220   20.4150 O   0  0  0  0  0  0
   36.2080   30.5310   19.5750 C   0  0  0  0  0  0
   36.3070   30.4660   21.0500 C   0  0  0  0  0  0
   36.5150   29.0470   21.6550 C   0  0  0  0  0  0
   35.3630   28.2270   21.3800 N   0  0  0  0  0  0
   35.2590   26.8960   21.4760 C   0  0  0  0  0  0
   36.2610   26.1080   21.8290 N   0  0  0  0  0  0
   34.1150   26.3620   21.1590 N   0  3  0  0  0  0
   34.1520   32.6760   19.1880 N   0  0  0  0  0  0
   33.0910   33.5680   19.5070 C   0  0  0  0  0  0
   31.8930   32.8580   20.1140 C   0  0  0  0  0  0
   31.7350   31.6440   19.9550 O   0  0  0  0  0  0
   31.0630   33.6490   20.7550 N   0  0  0  0  0  0
   29.8060   33.1800   21.3290 C   0  0  2  0  0  0
   28.7190   34.1670   21.0300 C   0  0  0  0  0  0
   29.0060   35.3530   20.8130 O   0  0  0  0  0  0
   29.9150   32.9600   22.8870 C   0  0  2  0  0  0
   30.0430   34.2550   23.5470 O   0  0  0  0  0  0
   31.0960   32.0800   23.2600 C   0  0  0  0  0  0
   27.4720   33.7070   21.0160 N   0  0  0  0  0  0
   26.3010   34.5330   20.8490 C   0  0  2  0  0  0
   25.1720   33.9990   21.7220 C   0  0  0  0  0  0
   24.7590   32.8660   21.5500 O   0  0  0  0  0  0
   25.8990   34.5690   19.3800 C   0  0  0  0  0  0
   24.6620   35.4140   19.1180 C   0  0  0  0  0  0
   24.8310   36.8470   19.5280 C   0  0  0  0  0  0
   25.7490   37.5200   19.0470 O   0  0  0  0  0  0
   24.0010   37.3430   20.4710 N   0  0  0  0  0  0
   24.5710   34.8480   22.5840 N   0  0  0  0  0  0
   23.4340   34.4400   23.3880 C   0  0  2  0  0  0
   22.2690   34.1940   22.4870 C   0  0  0  0  0  0
   22.1500   34.8140   21.4040 O   0  0  0  0  0  0
   23.0810   35.5430   24.4170 C   0  0  2  0  0  0
   22.9530   36.7880   23.7680 O   0  0  0  0  0  0
   24.0560   35.6180   25.5170 C   0  0  0  0  0  0
   21.4170   33.2830   22.9440 N   0  0  0  0  0  0
   20.1410   32.9820   22.3240 C   0  0  2  0  0  0
   19.1070   34.1260   22.4380 C   0  0  0  0  0  0
   18.3210   34.3840   21.5110 O   0  0  0  0  0  0
   19.6140   31.6510   22.9960 C   0  0  0  0  0  0
   20.5620   30.5220   22.6320 C   0  0  0  0  0  0
   20.3640   29.1560   23.3000 C   0  0  0  0  0  0
   19.5190   28.9530   24.2460 O   0  0  0  0  0  0
   21.1410   28.2400   22.8350 O   0  5  0  0  0  0
   19.1270   34.8400   23.4780 O   0  5  0  0  0  0
   42.4802   29.5578   21.3596 H   0  0  0  0  0  0
   43.3121   30.0544   19.8470 H   0  0  0  0  0  0
   41.8691   28.9874   19.7697 H   0  0  0  0  0  0
   41.7083   31.1873   18.0515 H   0  0  0  0  0  0
   39.9553   32.9589   19.7884 H   0  0  0  0  0  0
   40.4786   33.3269   16.8112 H   0  0  0  0  0  0
   39.6142   34.4614   17.9032 H   0  0  0  0  0  0
   42.0322   35.1323   17.6429 H   0  0  0  0  0  0
   37.9373   33.1408   20.0076 H   0  0  0  0  0  0
   36.2267   31.8581   17.9126 H   0  0  0  0  0  0
   35.2159   30.1410   19.3035 H   0  0  0  0  0  0
   36.9862   29.8658   19.1726 H   0  0  0  0  0  0
   37.1614   31.0713   21.3872 H   0  0  0  0  0  0
   35.3813   30.8573   21.4972 H   0  0  0  0  0  0
   37.4067   28.5844   21.2068 H   0  0  0  0  0  0
   36.6523   29.1289   22.7433 H   0  0  0  0  0  0
   34.4236   28.6923   21.0468 H   0  0  0  0  0  0
   37.2341   26.5435   22.0998 H   0  0  0  0  0  0
   36.1211   25.0172   21.8518 H   0  0  0  0  0  0
   33.2717   27.0034   20.8632 H   0  0  0  0  0  0
   33.9616   31.8009   18.5493 H   0  0  0  0  0  0
   33.4451   34.3140   20.2337 H   0  0  0  0  0  0
   32.7535   34.0782   18.5928 H   0  0  0  0  0  0
   31.3503   34.7066   20.8500 H   0  0  0  0  0  0
   29.5929   32.2361   20.8059 H   0  0  0  0  0  0
   29.0082   32.4801   23.2837 H   0  0  0  0  0  0
   29.2757   35.0283   23.3945 H   0  0  0  0  0  0
   30.9980   31.1043   22.7617 H   0  0  0  0  0  0
   31.1151   31.9347   24.3502 H   0  0  0  0  0  0
   32.0299   32.5639   22.9382 H   0  0  0  0  0  0
   27.3645   32.6196   21.1429 H   0  0  0  0  0  0
   26.5765   35.5461   21.1773 H   0  0  0  0  0  0
   26.7220   34.9914   18.7849 H   0  0  0  0  0  0
   25.6830   33.5475   19.0338 H   0  0  0  0  0  0
   24.4295   35.4001   18.0429 H   0  0  0  0  0  0
   23.8115   35.0039   19.6824 H   0  0  0  0  0  0
   23.1938   36.7163   20.8779 H   0  0  0  0  0  0
   24.1323   38.3737   20.8321 H   0  0  0  0  0  0
   24.9648   35.8717   22.6677 H   0  0  0  0  0  0
   23.7164   33.5024   23.8891 H   0  0  0  0  0  0
   22.1029   35.3661   24.8881 H   0  0  0  0  0  0
   22.2602   36.8979   22.9207 H   0  0  0  0  0  0
   24.1354   34.6350   26.0043 H   0  0  0  0  0  0
   23.7229   36.3657   26.2518 H   0  0  0  0  0  0
   25.0384   35.9093   25.1170 H   0  0  0  0  0  0
   21.7296   32.7424   23.8495 H   0  0  0  0  0  0
   20.3588   32.8949   21.2493 H   0  0  0  0  0  0
   19.5831   31.7790   24.0881 H   0  0  0  0  0  0
   18.6030   31.4279   22.6243 H   0  0  0  0  0  0
   20.4936   30.3193   21.5530 H   0  0  0  0  0  0
   21.5922   30.8120   22.8860 H   0  0  0  0  0  0
   33.9915   25.2693   21.1869 H   0  0  0  0  0  0
  1  2  1  0  0  0
  1  3  2  0  0  0
  1  4  1  0  0  0
  2 58  1  0  0  0
  2 59  1  0  0  0
  2 60  1  0  0  0
  4  5  1  0  0  0
  4 61  1  0  0  0
  5  6  1  0  0  0
  5  8  1  0  0  0
  5 62  1  0  0  0
  6  7  2  0  0  0
  6 10  1  0  0  0
  8  9  1  0  0  0
  8 63  1  0  0  0
  8 64  1  0  0  0
  9 65  1  0  0  0
 10 11  1  0  0  0
 10 66  1  0  0  0
 11 12  1  0  0  0
 11 14  1  0  0  0
 11 67  1  0  0  0
 12 13  2  0  0  0
 12 21  1  0  0  0
 14 15  1  0  0  0
 14 68  1  0  0  0
 14 69  1  0  0  0
 15 16  1  0  0  0
 15 70  1  0  0  0
 15 71  1  0  0  0
 16 17  1  0  0  0
 16 72  1  0  0  0
 16 73  1  0  0  0
 17 18  1  0  0  0
 17 74  1  0  0  0
 18 19  1  0  0  0
 18 20  2  0  0  0
 19 75  1  0  0  0
 19 76  1  0  0  0
 20 77  1  0  0  0
 20109  1  0  0  0
 21 22  1  0  0  0
 21 78  1  0  0  0
 22 23  1  0  0  0
 22 79  1  0  0  0
 22 80  1  0  0  0
 23 24  2  0  0  0
 23 25  1  0  0  0
 25 26  1  0  0  0
 25 81  1  0  0  0
 26 27  1  0  0  0
 26 29  1  0  0  0
 26 82  1  0  0  0
 27 28  2  0  0  0
 27 32  1  0  0  0
 29 30  1  0  0  0
 29 31  1  0  0  0
 29 83  1  0  0  0
 30 84  1  0  0  0
 31 85  1  0  0  0
 31 86  1  0  0  0
 31 87  1  0  0  0
 32 33  1  0  0  0
 32 88  1  0  0  0
 33 34  1  0  0  0
 33 36  1  0  0  0
 33 89  1  0  0  0
 34 35  2  0  0  0
 34 41  1  0  0  0
 36 37  1  0  0  0
 36 90  1  0  0  0
 36 91  1  0  0  0
 37 38  1  0  0  0
 37 92  1  0  0  0
 37 93  1  0  0  0
 38 39  2  0  0  0
 38 40  1  0  0  0
 40 94  1  0  0  0
 40 95  1  0  0  0
 41 42  1  0  0  0
 41 96  1  0  0  0
 42 43  1  0  0  0
 42 45  1  0  0  0
 42 97  1  0  0  0
 43 44  2  0  0  0
 43 48  1  0  0  0
 45 46  1  0  0  0
 45 47  1  0  0  0
 45 98  1  0  0  0
 46 99  1  0  0  0
 47100  1  0  0  0
 47101  1  0  0  0
 47102  1  0  0  0
 48 49  1  0  0  0
 48103  1  0  0  0
 49 50  1  0  0  0
 49 52  1  0  0  0
 49104  1  0  0  0
 50 51  2  0  0  0
 50 57  1  0  0  0
 52 53  1  0  0  0
 52105  1  0  0  0
 52106  1  0  0  0
 53 54  1  0  0  0
 53107  1  0  0  0
 53108  1  0  0  0
 54 55  2  0  0  0
 54 56  1  0  0  0
M  CHG  3  20   1  56  -1  57  -1
M  END
> <s_m_source_file>
../2xqq_ligand.sdf

> <i_m_source_file_index>
1

> <s_epik_input>
W0hdL049QyhbTkgyXSlcW05IXVtDSDJdW0NIMl1bQ0gyXVtDQEhdKFtOSF1DKD1PKVtDQEhdKFtDSDJdW09IXSlbTkhdQyg9TylbQ0gzXSlDKD1PKVtOSF1bQ0gyXUMoPU8pW05IXVtDQEBIXShbQ0BIXShbT0hdKVtDSDNdKUMoPU8pW05IXVtDQEBIXShbQ0gyXVtDSDJdQyg9TylbTkgyXSlDKD1PKVtOSF1bQ0BASF0oW0NASF0oW09IXSlbQ0gzXSlDKD1PKVtOSF1bQ0BIXShDKD1PKVtPSF0pW0NIMl1bQ0gyXUMoPU8pW09IXQ==

> <s_epik_cmdline>
J2VwaWtfYXBwJywgJy1pbWFlJywgJ2xpZ2FuZF9wcm8ubWFlJywgJy1vbWFlJywgJ2xpZ2FuZF9wcmVwLm1hZScsICctbXMnLCAnMScsICctcGgnLCAnNycsICctcGh0JywgJzAuNScsICctbnQn

> <r_lp_tautomer_probability>
1

> <r_epik_Ionization_Penalty>
  0.0037

> <r_epik_Ionization_Penalty_Charging>
  0.0037

> <r_epik_Ionization_Penalty_Neutral>
  0.0000

> <r_epik_State_Penalty>
 -0.0000

> <r_epik_Charging_Adjusted_Penalty>
0.00372074177287437

> <i_epik_Tot_Q>
-1

> <i_epik_Tot_abs_Q>
3

> <s_epik_Chemistry_Notes>
This compound has an imine and may undergo hydrolysis.

$$$$
