2xru_ligand
                    3D
 Schrodinger Suite 2020-3.
 66 70  0  0  1  0            999 V2000
    3.7470   31.6470    7.9320 C   0  0  0  0  0  0
    3.5630   31.9500    9.2420 N   0  0  0  0  0  0
    4.3810   31.2430   10.0000 N   0  0  0  0  0  0
    4.7550   30.6780    7.8850 C   0  0  0  0  0  0
    5.1370   30.4460    9.1940 C   0  0  0  0  0  0
    6.1650   29.5030    9.3180 C   0  0  0  0  0  0
    6.5710   29.0160    8.0490 C   0  0  0  0  0  0
    5.6420   29.7200    6.7270 S   0  0  0  0  0  0
    3.0090   32.2690    7.0000 N   0  0  0  0  0  0
    3.1830   32.3860    5.6410 C   0  0  0  0  0  0
    2.5540   33.4510    4.8550 C   0  0  0  0  0  0
    3.9060   31.5140    5.0410 O   0  0  0  0  0  0
    1.6110   34.3900    5.4170 C   0  0  0  0  0  0
    1.0240   35.4080    4.6200 C   0  0  0  0  0  0
    1.3320   35.5620    3.1990 C   0  0  0  0  0  0
    2.2670   34.6220    2.6430 C   0  0  0  0  0  0
    2.8550   33.6050    3.4410 C   0  0  0  0  0  0
    0.7510   36.5810    2.4350 N   0  0  0  0  0  0
   -0.1590   36.3020    1.2540 C   0  0  0  0  0  0
   -0.0350   37.3640    0.0850 C   0  0  0  0  0  0
    0.0440   38.7800    0.6770 N   0  3  0  0  0  0
    1.2470   38.8780    1.5890 C   0  0  0  0  0  0
    0.9740   37.9950    2.8210 C   0  0  0  0  0  0
    0.0980   39.8480   -0.3940 C   0  0  0  0  0  0
    7.6380   28.0720    7.8220 C   0  0  0  0  0  0
    8.1640   27.4530    8.7840 O   0  0  0  0  0  0
    8.1380   27.8580    6.5820 N   0  0  0  0  0  0
    9.2770   27.0380    6.2430 C   0  0  1  0  0  0
    8.7500   25.7080    5.7530 C   0  0  0  0  0  0
   10.1460   27.8230    5.2220 C   0  0  0  0  0  0
    7.5120   25.6070    4.9570 C   0  0  0  0  0  0
    7.0020   24.3290    4.4990 C   0  0  0  0  0  0
    7.7210   23.1280    4.8310 C   0  0  0  0  0  0
    8.9460   23.2050    5.6150 C   0  0  0  0  0  0
    9.4550   24.4830    6.0700 C   0  0  0  0  0  0
   11.0320   28.9190    5.8880 C   0  0  0  0  0  0
    6.5971   29.1845   10.2667 H   0  0  0  0  0  0
    1.3454   34.3157    6.4715 H   0  0  0  0  0  0
    0.3194   36.0985    5.0835 H   0  0  0  0  0  0
    2.5299   34.6913    1.5875 H   0  0  0  0  0  0
    3.5582   32.9141    2.9760 H   0  0  0  0  0  0
    0.0850   35.3178    0.8276 H   0  0  0  0  0  0
   -1.2067   36.3069    1.5892 H   0  0  0  0  0  0
    0.8750   37.1619   -0.4990 H   0  0  0  0  0  0
   -0.9151   37.2918   -0.5709 H   0  0  0  0  0  0
   -0.8690   38.9738    1.2591 H   0  0  0  0  0  0
    2.1414   38.5241    1.0554 H   0  0  0  0  0  0
    1.3920   39.9250    1.8934 H   0  0  0  0  0  0
    0.0810   38.3799    3.3351 H   0  0  0  0  0  0
    1.8410   38.0588    3.4949 H   0  0  0  0  0  0
   -0.7842   39.7592   -1.0451 H   0  0  0  0  0  0
    1.0110   39.7197   -0.9940 H   0  0  0  0  0  0
    0.1064   40.8412    0.0787 H   0  0  0  0  0  0
    7.5843   28.3845    5.7907 H   0  0  0  0  0  0
    9.8842   26.8285    7.1360 H   0  0  0  0  0  0
   10.8164   27.1255    4.6984 H   0  0  0  0  0  0
    9.4924   28.3217    4.4912 H   0  0  0  0  0  0
    6.9663   26.5168    4.7066 H   0  0  0  0  0  0
    6.0857   24.2791    3.9108 H   0  0  0  0  0  0
    7.3488   22.1600    4.4956 H   0  0  0  0  0  0
    9.4859   22.2910    5.8622 H   0  0  0  0  0  0
   10.3742   24.5228    6.6545 H   0  0  0  0  0  0
   11.6196   29.4354    5.1146 H   0  0  0  0  0  0
   11.7128   28.4494    6.6132 H   0  0  0  0  0  0
   10.3888   29.6456    6.4061 H   0  0  0  0  0  0
    2.8099   32.6971    9.5332 H   0  0  0  0  0  0
  1  2  1  0  0  0
  1  4  1  0  0  0
  1  9  2  0  0  0
  2  3  1  0  0  0
  2 66  1  0  0  0
  3  5  1  0  0  0
  4  5  2  0  0  0
  4  8  1  0  0  0
  5  6  1  0  0  0
  6  7  2  0  0  0
  6 37  1  0  0  0
  7  8  1  0  0  0
  7 25  1  0  0  0
  9 10  1  0  0  0
 10 11  1  0  0  0
 10 12  2  0  0  0
 11 13  2  0  0  0
 11 17  1  0  0  0
 13 14  1  0  0  0
 13 38  1  0  0  0
 14 15  2  0  0  0
 14 39  1  0  0  0
 15 16  1  0  0  0
 15 18  1  0  0  0
 16 17  2  0  0  0
 16 40  1  0  0  0
 17 41  1  0  0  0
 18 19  1  0  0  0
 18 23  1  0  0  0
 19 20  1  0  0  0
 19 42  1  0  0  0
 19 43  1  0  0  0
 20 21  1  0  0  0
 20 44  1  0  0  0
 20 45  1  0  0  0
 21 22  1  0  0  0
 21 24  1  0  0  0
 21 46  1  0  0  0
 22 23  1  0  0  0
 22 47  1  0  0  0
 22 48  1  0  0  0
 23 49  1  0  0  0
 23 50  1  0  0  0
 24 51  1  0  0  0
 24 52  1  0  0  0
 24 53  1  0  0  0
 25 26  2  0  0  0
 25 27  1  0  0  0
 27 28  1  0  0  0
 27 54  1  0  0  0
 28 29  1  0  0  0
 28 30  1  0  0  0
 28 55  1  0  0  0
 29 31  2  0  0  0
 29 35  1  0  0  0
 30 36  1  0  0  0
 30 56  1  0  0  0
 30 57  1  0  0  0
 31 32  1  0  0  0
 31 58  1  0  0  0
 32 33  2  0  0  0
 32 59  1  0  0  0
 33 34  1  0  0  0
 33 60  1  0  0  0
 34 35  2  0  0  0
 34 61  1  0  0  0
 35 62  1  0  0  0
 36 63  1  0  0  0
 36 64  1  0  0  0
 36 65  1  0  0  0
M  CHG  1  21   1
M  END
> <s_m_source_file>
../2xru_ligand.sdf

> <i_m_source_file_index>
1

> <s_epik_input>
W0NIMl0xW0NIMl1bTkgrXShbQ0gzXSlbQ0gyXVtDSDJdTjFjKFtjSF1bY0hdMilbY0hdW2NIXWMyQyg9TylbTkhdYzNuW25IXWMoYzM0KVtjSF1jKHM0KUMoPU8pW05IXVtDQEhdKFtDSDJdW0NIM10pYzVbY0hdW2NIXVtjSF1bY0hdW2NIXTU=

> <s_epik_cmdline>
J2VwaWtfYXBwJywgJy1pbWFlJywgJ2xpZ2FuZF9wcm8ubWFlJywgJy1vbWFlJywgJ2xpZ2FuZF9wcmVwLm1hZScsICctbXMnLCAnMScsICctcGgnLCAnNycsICctcGh0JywgJzAuNScsICctbnQn

> <r_epik_Ionization_Penalty>
  0.0648

> <r_epik_Ionization_Penalty_Charging>
  0.0648

> <r_epik_Ionization_Penalty_Neutral>
  0.0000

> <r_epik_State_Penalty>
  0.0564

> <r_epik_Charging_Adjusted_Penalty>
0.121179094357005

> <i_epik_Tot_Q>
1

> <i_epik_Tot_abs_Q>
1

$$$$
