2xrw_ligand
                    3D
 Schrodinger Suite 2020-3.
199202  0  0  1  0            999 V2000
  -19.4790    1.0980   21.5580 N   0  3  0  0  0  0
  -19.4530    2.2790   20.7020 C   0  0  2  0  0  0
  -18.8920    3.4800   21.4630 C   0  0  0  0  0  0
  -19.6190    4.4270   21.7680 O   0  0  0  0  0  0
  -20.8590    2.5900   20.1870 C   0  0  0  0  0  0
  -17.5840    3.4460   21.7600 N   0  0  0  0  0  0
  -16.9200    4.4470   22.6060 C   0  0  2  0  0  0
  -16.6650    5.8050   21.9510 C   0  0  0  0  0  0
  -16.4090    5.8950   20.7500 O   0  0  0  0  0  0
  -15.5850    3.7720   22.9470 C   0  0  0  0  0  0
  -15.3170    2.8700   21.7870 C   0  0  0  0  0  0
  -16.6640    2.3660   21.3550 C   0  0  0  0  0  0
  -16.7190    6.8770   22.7410 N   0  0  0  0  0  0
  -16.1830    8.1460   22.2860 C   0  0  2  0  0  0
  -14.6510    8.0510   22.3170 C   0  0  0  0  0  0
  -14.0850    7.1530   22.9630 O   0  0  0  0  0  0
  -16.7080    9.3280   23.1180 C   0  0  0  0  0  0
  -16.6140    9.0810   24.5090 O   0  0  0  0  0  0
  -13.9740    8.9310   21.5870 N   0  0  0  0  0  0
  -12.5280    8.8200   21.4300 C   0  0  2  0  0  0
  -11.8290    8.8940   22.7670 C   0  0  0  0  0  0
  -10.7600    8.3120   22.9490 O   0  0  0  0  0  0
  -11.9890    9.9490   20.5440 C   0  0  0  0  0  0
  -12.0250    9.6340   19.0530 C   0  0  0  0  0  0
  -11.4700   10.7380   18.1790 C   0  0  0  0  0  0
  -11.6800   12.0910   18.7060 N   0  0  0  0  0  0
  -11.2090   13.1790   18.1060 C   0  0  0  0  0  0
  -10.5630   13.0680   16.9570 N   0  0  0  0  0  0
  -11.4010   14.3790   18.6330 N   0  0  0  0  0  0
  -12.4160    9.6220   23.7080 N   0  0  0  0  0  0
  -11.7860    9.7910   25.0030 C   0  0  2  0  0  0
  -11.9340    8.5370   25.8570 C   0  0  0  0  0  0
  -11.4250    8.4790   26.9770 O   0  0  0  0  0  0
  -12.3290   11.0270   25.7310 C   0  0  0  0  0  0
  -13.7440   10.8400   26.2380 C   0  0  0  0  0  0
  -14.4450    9.9050   25.7820 O   0  0  0  0  0  0
  -14.1420   11.6280   27.1210 O   0  0  0  0  0  0
  -12.5720    7.5030   25.3060 N   0  0  0  0  0  0
  -12.7300    6.2470   26.0410 C   0  0  2  0  0  0
  -11.8750    5.1250   25.4400 C   0  0  0  0  0  0
  -11.9710    3.9800   25.8580 O   0  0  0  0  0  0
  -14.1990    5.8130   26.1340 C   0  0  0  0  0  0
  -14.9150    6.3880   27.3130 C   0  0  0  0  0  0
  -15.2140    7.7280   27.4210 N   0  0  0  0  0  0
  -15.3610    5.8090   28.4510 C   0  0  0  0  0  0
  -15.8270    7.9480   28.5700 C   0  0  0  0  0  0
  -15.9280    6.8020   29.2150 N   0  0  0  0  0  0
  -11.0360    5.4550   24.4670 N   0  0  0  0  0  0
  -10.0830    4.5070   23.9080 C   0  0  2  0  0  0
   -8.8700    4.6320   24.8160 C   0  0  0  0  0  0
   -8.3820    5.7420   25.0960 O   0  0  0  0  0  0
   -9.7540    4.8620   22.4640 C   0  0  0  0  0  0
  -10.9600    4.9890   21.5380 C   0  0  0  0  0  0
  -10.5330    5.5190   20.1590 C   0  0  0  0  0  0
  -11.6860    3.6690   21.4030 C   0  0  0  0  0  0
   -8.4310    3.5100   25.3430 N   0  0  0  0  0  0
   -7.3550    3.4780   26.3220 C   0  0  2  0  0  0
   -6.4800    2.3180   25.9510 C   0  0  0  0  0  0
   -6.9790    1.2150   25.7430 O   0  0  0  0  0  0
   -7.8810    3.2310   27.7420 C   0  0  0  0  0  0
   -6.7810    3.2120   28.7980 C   0  0  0  0  0  0
   -6.0540    4.3640   29.0830 C   0  0  0  0  0  0
   -6.4620    2.0460   29.4980 C   0  0  0  0  0  0
   -5.0460    4.3630   30.0270 C   0  0  0  0  0  0
   -5.4520    2.0360   30.4550 C   0  0  0  0  0  0
   -4.7450    3.2040   30.7090 C   0  0  0  0  0  0
   -3.7370    3.2320   31.6500 O   0  0  0  0  0  0
   -5.1810    2.5620   25.9070 N   0  0  0  0  0  0
   -4.1700    1.5300   25.7130 C   0  0  2  0  0  0
   -3.4650    1.2940   27.0610 C   0  0  0  0  0  0
   -2.8340    2.2150   27.5930 O   0  0  0  0  0  0
   -3.1320    1.9660   24.6780 C   0  0  0  0  0  0
   -3.6240    2.1920   23.2470 C   0  0  0  0  0  0
   -2.5150    2.7860   22.4250 C   0  0  0  0  0  0
   -4.1200    0.8540   22.6550 C   0  0  0  0  0  0
   -3.5010    0.0720   27.5970 N   0  0  0  0  0  0
   -2.8690   -0.1960   28.9040 C   0  0  2  0  0  0
   -1.3810   -0.4830   28.7130 C   0  0  0  0  0  0
   -0.9010   -1.6130   28.8880 O   0  0  0  0  0  0
   -3.6330   -1.4130   29.4320 C   0  0  0  0  0  0
   -4.0420   -2.1130   28.1970 C   0  0  0  0  0  0
   -4.3730   -1.0500   27.1860 C   0  0  0  0  0  0
   -0.6550    0.5810   28.4070 N   0  0  0  0  0  0
    0.7690    0.4940   28.1070 C   0  0  2  0  0  0
    1.5710    0.1850   29.3660 C   0  0  0  0  0  0
    1.1980    0.5830   30.4840 O   0  0  0  0  0  0
    1.2410    1.8230   27.5160 C   0  0  0  0  0  0
    0.5420    2.2500   26.2250 C   0  0  0  0  0  0
    0.9370    3.6930   25.8720 C   0  0  0  0  0  0
    0.8750    1.3370   25.0670 C   0  0  0  0  0  0
    2.7110   -0.4830   29.1870 N   0  0  0  0  0  0
    3.6040   -0.7760   30.3030 C   0  0  2  0  0  0
    5.0620   -0.4550   29.9320 C   0  0  0  0  0  0
    5.3620   -0.1170   28.7870 O   0  0  0  0  0  0
    3.4420   -2.2370   30.7560 C   0  0  0  0  0  0
    4.0810   -3.2350   29.8160 C   0  0  0  0  0  0
    3.7420   -4.6780   30.1400 C   0  0  0  0  0  0
    2.9320   -4.9310   31.0590 O   0  0  0  0  0  0
    4.2950   -5.5750   29.4650 O   0  0  0  0  0  0
    5.9680   -0.4930   30.7690 O   0  0  0  0  0  0
  -18.4625    0.8859   21.9211 H   0  0  0  0  0  0
  -19.8503    0.2367   20.9833 H   0  0  0  0  0  0
  -20.1438    1.2810   22.4151 H   0  0  0  0  0  0
  -18.7891    2.0267   19.8620 H   0  0  0  0  0  0
  -21.2509    1.7187   19.6418 H   0  0  0  0  0  0
  -20.8186    3.4573   19.5116 H   0  0  0  0  0  0
  -21.5188    2.8177   21.0372 H   0  0  0  0  0  0
  -17.5910    4.6774   23.4466 H   0  0  0  0  0  0
  -14.8046    4.5390   23.0599 H   0  0  0  0  0  0
  -15.6872    3.2117   23.8881 H   0  0  0  0  0  0
  -14.8242    3.4400   20.9856 H   0  0  0  0  0  0
  -14.6622    2.0460   22.1068 H   0  0  0  0  0  0
  -16.9453    1.4337   21.8666 H   0  0  0  0  0  0
  -16.7264    2.2201   20.2665 H   0  0  0  0  0  0
  -17.1715    6.7977   23.7405 H   0  0  0  0  0  0
  -16.5501    8.2878   21.2588 H   0  0  0  0  0  0
  -16.1189   10.2282   22.8885 H   0  0  0  0  0  0
  -17.7648    9.5088   22.8720 H   0  0  0  0  0  0
  -16.9538    9.8420   25.2269 H   0  0  0  0  0  0
  -14.5190    9.7516   21.0976 H   0  0  0  0  0  0
  -12.3716    7.8318   20.9728 H   0  0  0  0  0  0
  -12.5908   10.8565   20.6998 H   0  0  0  0  0  0
  -10.9411   10.1541   20.8084 H   0  0  0  0  0  0
  -11.4288    8.7311   18.8545 H   0  0  0  0  0  0
  -13.0653    9.4627   18.7394 H   0  0  0  0  0  0
  -10.3844   10.6034   18.0635 H   0  0  0  0  0  0
  -11.9513   10.7002   17.1906 H   0  0  0  0  0  0
  -12.2486   12.2368   19.6363 H   0  0  0  0  0  0
  -10.3989   12.0755   16.5119 H   0  0  0  0  0  0
  -11.9371   14.4809   19.5881 H   0  0  0  0  0  0
  -11.0243   15.2736   18.1155 H   0  0  0  0  0  0
  -13.3857   10.0986   23.5017 H   0  0  0  0  0  0
  -10.7212    9.9417   24.7717 H   0  0  0  0  0  0
  -11.6902   11.2521   26.5978 H   0  0  0  0  0  0
  -12.3307   11.8860   25.0439 H   0  0  0  0  0  0
  -15.4737    9.7616   26.1443 H   0  0  0  0  0  0
  -12.9811    7.6007   24.2896 H   0  0  0  0  0  0
  -12.3605    6.4901   27.0482 H   0  0  0  0  0  0
  -14.7355    6.1391   25.2308 H   0  0  0  0  0  0
  -14.2531    4.7175   26.2171 H   0  0  0  0  0  0
  -15.3420    4.7733   28.8212 H   0  0  0  0  0  0
  -16.1882    8.9132   28.9251 H   0  0  0  0  0  0
  -11.0771    6.4849   24.0827 H   0  0  0  0  0  0
  -10.5024    3.4902   23.8916 H   0  0  0  0  0  0
   -9.2318    5.8297   22.4342 H   0  0  0  0  0  0
   -9.1077    4.0832   22.0330 H   0  0  0  0  0  0
  -11.6638    5.7006   21.9943 H   0  0  0  0  0  0
  -10.0079    6.4778   20.2812 H   0  0  0  0  0  0
  -11.4239    5.6663   19.5309 H   0  0  0  0  0  0
   -9.8617    4.7920   19.6786 H   0  0  0  0  0  0
  -11.9815    3.3095   22.3997 H   0  0  0  0  0  0
  -11.0212    2.9317   20.9294 H   0  0  0  0  0  0
  -12.5834    3.8060   20.7817 H   0  0  0  0  0  0
   -8.9076    2.5731   25.0188 H   0  0  0  0  0  0
   -6.8414    4.4495   26.2725 H   0  0  0  0  0  0
   -8.5883    4.0281   28.0148 H   0  0  0  0  0  0
   -8.3928    2.2580   27.7794 H   0  0  0  0  0  0
   -6.2850    5.2863   28.5500 H   0  0  0  0  0  0
   -7.0134    1.1288   29.2911 H   0  0  0  0  0  0
   -4.4894    5.2774   30.2323 H   0  0  0  0  0  0
   -5.2182    1.1212   30.9995 H   0  0  0  0  0  0
   -3.1868    4.1656   31.8390 H   0  0  0  0  0  0
   -4.8784    3.6128   26.0267 H   0  0  0  0  0  0
   -4.6997    0.6385   25.3461 H   0  0  0  0  0  0
   -2.6832    2.9210   24.9886 H   0  0  0  0  0  0
   -2.3466    1.1997   24.6010 H   0  0  0  0  0  0
   -4.4506    2.9176   23.2343 H   0  0  0  0  0  0
   -2.1906    3.7345   22.8778 H   0  0  0  0  0  0
   -2.8757    2.9722   21.4026 H   0  0  0  0  0  0
   -1.6671    2.0860   22.3929 H   0  0  0  0  0  0
   -4.9289    0.4526   23.2831 H   0  0  0  0  0  0
   -3.2878    0.1353   22.6253 H   0  0  0  0  0  0
   -4.4964    1.0215   21.6351 H   0  0  0  0  0  0
   -2.9333    0.6679   29.5819 H   0  0  0  0  0  0
   -2.9653   -2.0208   30.0602 H   0  0  0  0  0  0
   -4.4923   -1.0754   30.0300 H   0  0  0  0  0  0
   -3.2146   -2.7454   27.8428 H   0  0  0  0  0  0
   -4.9204   -2.7414   28.4055 H   0  0  0  0  0  0
   -5.4252   -0.7324   27.2317 H   0  0  0  0  0  0
   -4.1247   -1.3495   26.1571 H   0  0  0  0  0  0
   -1.1634    1.5562   28.3837 H   0  0  0  0  0  0
    0.8806   -0.3298   27.3866 H   0  0  0  0  0  0
    1.0703    2.6294   28.2444 H   0  0  0  0  0  0
    2.3143    1.7603   27.2833 H   0  0  0  0  0  0
   -0.5424    2.1717   26.3922 H   0  0  0  0  0  0
    0.6942    4.3563   26.7153 H   0  0  0  0  0  0
    0.3822    4.0170   24.9791 H   0  0  0  0  0  0
    2.0172    3.7382   25.6690 H   0  0  0  0  0  0
    0.5919    0.3048   25.3208 H   0  0  0  0  0  0
    1.9552    1.3816   24.8638 H   0  0  0  0  0  0
    0.3202    1.6603   24.1739 H   0  0  0  0  0  0
    2.9726   -0.8149   28.1714 H   0  0  0  0  0  0
    3.2865   -0.1086   31.1177 H   0  0  0  0  0  0
    3.9093   -2.3688   31.7431 H   0  0  0  0  0  0
    2.3721   -2.4843   30.8208 H   0  0  0  0  0  0
    3.7407   -3.0406   28.7882 H   0  0  0  0  0  0
    5.1754   -3.1359   29.8647 H   0  0  0  0  0  0
    4.0744   -6.6329   29.6704 H   0  0  0  0  0  0
    7.0009   -0.2581   30.4725 H   0  0  0  0  0  0
  1  2  1  0  0  0
  1101  1  0  0  0
  1102  1  0  0  0
  1103  1  0  0  0
  2  3  1  0  0  0
  2  5  1  0  0  0
  2104  1  0  0  0
  3  4  2  0  0  0
  3  6  1  0  0  0
  5105  1  0  0  0
  5106  1  0  0  0
  5107  1  0  0  0
  6  7  1  0  0  0
  6 12  1  0  0  0
  7  8  1  0  0  0
  7 10  1  0  0  0
  7108  1  0  0  0
  8  9  2  0  0  0
  8 13  1  0  0  0
 10 11  1  0  0  0
 10109  1  0  0  0
 10110  1  0  0  0
 11 12  1  0  0  0
 11111  1  0  0  0
 11112  1  0  0  0
 12113  1  0  0  0
 12114  1  0  0  0
 13 14  1  0  0  0
 13115  1  0  0  0
 14 15  1  0  0  0
 14 17  1  0  0  0
 14116  1  0  0  0
 15 16  2  0  0  0
 15 19  1  0  0  0
 17 18  1  0  0  0
 17117  1  0  0  0
 17118  1  0  0  0
 18119  1  0  0  0
 19 20  1  0  0  0
 19120  1  0  0  0
 20 21  1  0  0  0
 20 23  1  0  0  0
 20121  1  0  0  0
 21 22  2  0  0  0
 21 30  1  0  0  0
 23 24  1  0  0  0
 23122  1  0  0  0
 23123  1  0  0  0
 24 25  1  0  0  0
 24124  1  0  0  0
 24125  1  0  0  0
 25 26  1  0  0  0
 25126  1  0  0  0
 25127  1  0  0  0
 26 27  1  0  0  0
 26128  1  0  0  0
 27 28  2  0  0  0
 27 29  1  0  0  0
 28129  1  0  0  0
 29130  1  0  0  0
 29131  1  0  0  0
 30 31  1  0  0  0
 30132  1  0  0  0
 31 32  1  0  0  0
 31 34  1  0  0  0
 31133  1  0  0  0
 32 33  2  0  0  0
 32 38  1  0  0  0
 34 35  1  0  0  0
 34134  1  0  0  0
 34135  1  0  0  0
 35 36  1  0  0  0
 35 37  2  0  0  0
 36136  1  0  0  0
 38 39  1  0  0  0
 38137  1  0  0  0
 39 40  1  0  0  0
 39 42  1  0  0  0
 39138  1  0  0  0
 40 41  2  0  0  0
 40 48  1  0  0  0
 42 43  1  0  0  0
 42139  1  0  0  0
 42140  1  0  0  0
 43 44  2  0  0  0
 43 45  1  0  0  0
 44 46  1  0  0  0
 45 47  2  0  0  0
 45141  1  0  0  0
 46 47  1  0  0  0
 46142  1  0  0  0
 48 49  1  0  0  0
 48143  1  0  0  0
 49 50  1  0  0  0
 49 52  1  0  0  0
 49144  1  0  0  0
 50 51  2  0  0  0
 50 56  1  0  0  0
 52 53  1  0  0  0
 52145  1  0  0  0
 52146  1  0  0  0
 53 54  1  0  0  0
 53 55  1  0  0  0
 53147  1  0  0  0
 54148  1  0  0  0
 54149  1  0  0  0
 54150  1  0  0  0
 55151  1  0  0  0
 55152  1  0  0  0
 55153  1  0  0  0
 56 57  1  0  0  0
 56154  1  0  0  0
 57 58  1  0  0  0
 57 60  1  0  0  0
 57155  1  0  0  0
 58 59  2  0  0  0
 58 68  1  0  0  0
 60 61  1  0  0  0
 60156  1  0  0  0
 60157  1  0  0  0
 61 62  2  0  0  0
 61 63  1  0  0  0
 62 64  1  0  0  0
 62158  1  0  0  0
 63 65  2  0  0  0
 63159  1  0  0  0
 64 66  2  0  0  0
 64160  1  0  0  0
 65 66  1  0  0  0
 65161  1  0  0  0
 66 67  1  0  0  0
 67162  1  0  0  0
 68 69  1  0  0  0
 68163  1  0  0  0
 69 70  1  0  0  0
 69 72  1  0  0  0
 69164  1  0  0  0
 70 71  2  0  0  0
 70 76  1  0  0  0
 72 73  1  0  0  0
 72165  1  0  0  0
 72166  1  0  0  0
 73 74  1  0  0  0
 73 75  1  0  0  0
 73167  1  0  0  0
 74168  1  0  0  0
 74169  1  0  0  0
 74170  1  0  0  0
 75171  1  0  0  0
 75172  1  0  0  0
 75173  1  0  0  0
 76 77  1  0  0  0
 76 82  1  0  0  0
 77 78  1  0  0  0
 77 80  1  0  0  0
 77174  1  0  0  0
 78 79  2  0  0  0
 78 83  1  0  0  0
 80 81  1  0  0  0
 80175  1  0  0  0
 80176  1  0  0  0
 81 82  1  0  0  0
 81177  1  0  0  0
 81178  1  0  0  0
 82179  1  0  0  0
 82180  1  0  0  0
 83 84  1  0  0  0
 83181  1  0  0  0
 84 85  1  0  0  0
 84 87  1  0  0  0
 84182  1  0  0  0
 85 86  2  0  0  0
 85 91  1  0  0  0
 87 88  1  0  0  0
 87183  1  0  0  0
 87184  1  0  0  0
 88 89  1  0  0  0
 88 90  1  0  0  0
 88185  1  0  0  0
 89186  1  0  0  0
 89187  1  0  0  0
 89188  1  0  0  0
 90189  1  0  0  0
 90190  1  0  0  0
 90191  1  0  0  0
 91 92  1  0  0  0
 91192  1  0  0  0
 92 93  1  0  0  0
 92 95  1  0  0  0
 92193  1  0  0  0
 93 94  2  0  0  0
 93100  1  0  0  0
 95 96  1  0  0  0
 95194  1  0  0  0
 95195  1  0  0  0
 96 97  1  0  0  0
 96196  1  0  0  0
 96197  1  0  0  0
 97 98  2  0  0  0
 97 99  1  0  0  0
 99198  1  0  0  0
100199  1  0  0  0
M  CHG  1   1   1
M  END
> <s_m_source_file>
../2xrw_ligand.sdf

> <i_m_source_file_index>
1

> <s_epik_input>
W05IMytdW0NAQEhdKFtDSDNdKUMoPU8pTjFbQ0BASF0oW0NIMl1bQ0gyXVtDSDJdMSlDKD1PKVtOSF1bQ0BASF0oW0NIMl1bT0hdKUMoPU8pW05IXVtDQEBIXShbQ0gyXVtDSDJdW0NIMl1bTkhdL0MoPU5cW0hdKVtOSDJdKUMoPU8pW05IXVtDQEBIXShbQ0gyXUMoPU8pW09IXSlDKD1PKVtOSF1bQ0BASF0oW0NIMl1DMj1OW0NIMl1OPVtDSF0yKUMoPU8pW05IXVtDQEBIXShbQ0gyXVtDSF0oW0NIM10pW0NIM10pQyg9TylbTkhdW0NAQEhdKFtDSDJdYzNbY0hdW2NIXWMoW09IXSlbY0hdW2NIXTMpQyg9TylbTkhdW0NAQEhdKFtDSDJdW0NIXShbQ0gzXSlbQ0gzXSlDKD1PKU40W0NAQEhdKFtDSDJdW0NIMl1bQ0gyXTQpQyg9TylbTkhdW0NAQEhdKFtDSDJdW0NIXShbQ0gzXSlbQ0gzXSlDKD1PKVtOSF1bQ0BIXShDKD1PKVtPSF0pW0NIMl1bQ0gyXUMoPU8pW09IXQ==

> <s_epik_cmdline>
J2VwaWtfYXBwJywgJy1pbWFlJywgJ2xpZ2FuZF9wcm8ubWFlJywgJy1vbWFlJywgJ2xpZ2FuZF9wcmVwLm1hZScsICctbXMnLCAnMScsICctcGgnLCAnNycsICctcGh0JywgJzAuNScsICctbnQn

> <s_epik_pKa_notes>
Molecule size exceeds maximum supported for generating protonation states

> <s_epik_Chemistry_Notes>
This compound has an imine and may undergo hydrolysis.

$$$$
