2xs0_ligand
                    3D
 Schrodinger Suite 2020-3.
212215  0  0  1  0            999 V2000
  -11.9180   33.2340   24.6760 N   0  3  0  0  0  0
  -12.2110   32.0140   23.9270 C   0  0  2  0  0  0
  -11.7560   32.1170   22.4670 C   0  0  0  0  0  0
  -12.0780   33.0880   21.7810 O   0  0  0  0  0  0
  -13.7040   31.6840   24.0170 C   0  0  0  0  0  0
  -14.5920   32.8930   24.2830 C   0  0  0  0  0  0
  -16.0460   32.4870   24.5060 C   0  0  0  0  0  0
  -16.2420   31.7690   25.7660 N   0  0  0  0  0  0
  -17.3850   31.1960   26.1340 C   0  0  0  0  0  0
  -18.4430   31.2480   25.3350 N   0  0  0  0  0  0
  -17.4710   30.5650   27.2990 N   0  0  0  0  0  0
  -11.0060   31.1090   21.9860 N   0  0  0  0  0  0
  -10.4370   31.1530   20.6320 C   0  0  2  0  0  0
  -11.5250   31.2450   19.5720 C   0  0  0  0  0  0
  -12.6240   30.7240   19.7750 O   0  0  0  0  0  0
   -9.6840   29.8220   20.5200 C   0  0  0  0  0  0
  -10.3540   28.9250   21.5050 C   0  0  0  0  0  0
  -10.7660   29.8130   22.6440 C   0  0  0  0  0  0
  -11.2190   31.9050   18.4580 N   0  0  0  0  0  0
  -12.2100   32.1470   17.4100 C   0  0  2  0  0  0
  -12.3970   30.9390   16.4980 C   0  0  0  0  0  0
  -11.4360   30.2680   16.1250 O   0  0  0  0  0  0
  -11.8410   33.3850   16.5850 C   0  0  0  0  0  0
  -12.8580   33.7040   15.6510 O   0  0  0  0  0  0
  -13.6490   30.6840   16.1440 N   0  0  0  0  0  0
  -14.0290   29.5360   15.3350 C   0  0  2  0  0  0
  -14.3960   29.9670   13.9130 C   0  0  0  0  0  0
  -14.8170   29.1470   13.0990 O   0  0  0  0  0  0
  -15.1980   28.8200   16.0160 C   0  0  0  0  0  0
  -15.4030   29.3160   17.4500 C   0  0  0  0  0  0
  -15.7500   28.2200   18.4550 C   0  0  0  0  0  0
  -17.1910   28.0700   18.6400 N   0  0  0  0  0  0
  -17.7560   27.5260   19.7140 C   0  0  0  0  0  0
  -17.0090   27.0870   20.7170 N   0  0  0  0  0  0
  -19.0760   27.4270   19.7900 N   0  0  0  0  0  0
  -14.2030   31.2540   13.6240 N   0  0  0  0  0  0
  -14.5930   31.8670   12.3480 C   0  0  2  0  0  0
  -13.8300   31.3820   11.1170 C   0  0  0  0  0  0
  -14.3990   31.2540   10.0330 O   0  0  0  0  0  0
  -14.4570   33.3870   12.4330 C   0  0  0  0  0  0
  -15.5210   34.0170   13.2950 C   0  0  0  0  0  0
  -15.3530   34.0280   14.5330 O   0  0  0  0  0  0
  -16.5240   34.5060   12.7320 O   0  0  0  0  0  0
  -12.5390   31.1330   11.2850 N   0  0  0  0  0  0
  -11.6770   30.7580   10.1710 C   0  0  2  0  0  0
  -11.6480   29.2460    9.9070 C   0  0  0  0  0  0
  -11.1290   28.8080    8.8830 O   0  0  0  0  0  0
  -10.2600   31.2410   10.4520 C   0  0  0  0  0  0
   -9.6510   30.6130   11.6650 C   0  0  0  0  0  0
   -9.9890   30.9910   12.9470 N   0  0  0  0  0  0
   -8.7360   29.6230   11.7930 C   0  0  0  0  0  0
   -9.3050   30.2650   13.8120 C   0  0  0  0  0  0
   -8.5370   29.4270   13.1380 N   0  0  0  0  0  0
  -12.1810   28.4520   10.8360 N   0  0  0  0  0  0
  -12.1960   27.0000   10.6800 C   0  0  2  0  0  0
  -12.9210   26.5870    9.4040 C   0  0  0  0  0  0
  -14.0980   26.8980    9.2180 O   0  0  0  0  0  0
  -12.8360   26.3240   11.8930 C   0  0  0  0  0  0
  -12.1510   26.6790   13.2130 C   0  0  0  0  0  0
  -12.9250   26.1470   14.4110 C   0  0  0  0  0  0
  -10.7130   26.1820   13.2220 C   0  0  0  0  0  0
  -12.2090   25.8750    8.5350 N   0  0  0  0  0  0
  -12.7310   25.5100    7.2230 C   0  0  2  0  0  0
  -12.4010   24.0690    6.8040 C   0  0  0  0  0  0
  -11.2590   23.6110    6.9160 O   0  0  0  0  0  0
  -12.2130   26.4910    6.1670 C   0  0  0  0  0  0
  -12.6670   26.1700    4.7640 C   0  0  0  0  0  0
  -13.9530   26.4960    4.3360 C   0  0  0  0  0  0
  -11.8140   25.5400    3.8630 C   0  0  0  0  0  0
  -14.3760   26.2030    3.0530 C   0  0  0  0  0  0
  -12.2290   25.2450    2.5760 C   0  0  0  0  0  0
  -13.5070   25.5770    2.1780 C   0  0  0  0  0  0
  -13.9170   25.2820    0.9020 O   0  0  0  0  0  0
  -13.4170   23.3610    6.3270 N   0  0  0  0  0  0
  -13.2270   22.0570    5.7070 C   0  0  2  0  0  0
  -13.5610   22.1670    4.2210 C   0  0  0  0  0  0
  -14.6610   22.5870    3.8580 O   0  0  0  0  0  0
  -14.1070   21.0020    6.3830 C   0  0  0  0  0  0
  -13.8170   20.7370    7.8670 C   0  0  0  0  0  0
  -14.7840   19.7160    8.4350 C   0  0  0  0  0  0
  -12.3870   20.2700    8.0610 C   0  0  0  0  0  0
  -12.6070   21.7990    3.3540 N   0  0  0  0  0  0
  -12.7580   21.9530    1.9030 C   0  0  2  0  0  0
  -13.7570   20.9500    1.3300 C   0  0  0  0  0  0
  -13.3610   20.0020    0.6560 O   0  0  0  0  0  0
  -11.3540   21.6620    1.3810 C   0  0  0  0  0  0
  -10.7780   20.7260    2.3870 C   0  0  0  0  0  0
  -11.3380   21.1420    3.7140 C   0  0  0  0  0  0
  -15.0420   21.1800    1.5900 N   0  0  0  0  0  0
  -16.1010   20.2450    1.2300 C   0  0  2  0  0  0
  -16.9980   20.8040    0.1300 C   0  0  0  0  0  0
  -17.5940   20.0480   -0.6410 O   0  0  0  0  0  0
  -16.9550   19.9350    2.4630 C   0  0  0  0  0  0
  -16.2390   19.3470    3.6770 C   0  0  0  0  0  0
  -17.0990   19.4660    4.9190 C   0  0  0  0  0  0
  -15.8770   17.8980    3.4220 C   0  0  0  0  0  0
  -17.0950   22.1300    0.0730 N   0  0  0  0  0  0
  -17.9850   22.8190   -0.8610 C   0  0  2  0  0  0
  -17.8620   22.3200   -2.3030 C   0  0  0  0  0  0
  -18.8630   22.1830   -3.0080 O   0  0  0  0  0  0
  -17.7350   24.3270   -0.8060 C   0  0  0  0  0  0
  -18.0560   24.9560    0.5390 C   0  0  0  0  0  0
  -17.3290   26.2690    0.7560 C   0  0  0  0  0  0
  -17.8730   27.1470    1.4620 O   0  0  0  0  0  0
  -16.2060   26.4160    0.2270 O   0  0  0  0  0  0
  -16.7690   22.0410   -2.7990 O   0  0  0  0  0  0
  -10.8438   33.4597   24.6035 H   0  0  0  0  0  0
  -12.1922   33.0909   25.7316 H   0  0  0  0  0  0
  -12.4974   34.0697   24.2567 H   0  0  0  0  0  0
  -11.6206   31.2271   24.4191 H   0  0  0  0  0  0
  -14.0388   31.2383   23.0687 H   0  0  0  0  0  0
  -13.8731   30.9708   24.8372 H   0  0  0  0  0  0
  -14.2372   33.4177   25.1823 H   0  0  0  0  0  0
  -14.5512   33.5747   23.4207 H   0  0  0  0  0  0
  -16.6787   33.3866   24.5276 H   0  0  0  0  0  0
  -16.3726   31.8287   23.6875 H   0  0  0  0  0  0
  -15.4115   31.6765   26.4813 H   0  0  0  0  0  0
  -18.3774   31.7695   24.3687 H   0  0  0  0  0  0
  -16.5970   30.5188   27.9653 H   0  0  0  0  0  0
  -18.4163   30.0884   27.5979 H   0  0  0  0  0  0
   -9.8076   32.0462   20.5053 H   0  0  0  0  0  0
   -9.7696   29.4376   19.4929 H   0  0  0  0  0  0
   -8.6233   29.9790   20.7656 H   0  0  0  0  0  0
  -11.2255   28.4480   21.0329 H   0  0  0  0  0  0
   -9.6466   28.1504   21.8360 H   0  0  0  0  0  0
   -9.9740   29.9262   23.3989 H   0  0  0  0  0  0
  -11.6913   29.4724   23.1316 H   0  0  0  0  0  0
  -10.1892   32.2722   18.3366 H   0  0  0  0  0  0
  -13.1472   32.3164   17.9605 H   0  0  0  0  0  0
  -11.7009   34.2448   17.2567 H   0  0  0  0  0  0
  -10.9080   33.1940   16.0344 H   0  0  0  0  0  0
  -12.7395   34.5701   14.9833 H   0  0  0  0  0  0
  -14.4173   31.3901   16.4920 H   0  0  0  0  0  0
  -13.1485   28.8787   15.2832 H   0  0  0  0  0  0
  -16.1220   29.0053   15.4487 H   0  0  0  0  0  0
  -14.9976   27.7389   16.0475 H   0  0  0  0  0  0
  -14.4804   29.7971   17.8070 H   0  0  0  0  0  0
  -16.2280   30.0433   17.4720 H   0  0  0  0  0  0
  -15.3512   27.2580   18.1007 H   0  0  0  0  0  0
  -15.3058   28.4638   19.4314 H   0  0  0  0  0  0
  -17.8848   28.4185   17.8607 H   0  0  0  0  0  0
  -15.9132   27.1654   20.6620 H   0  0  0  0  0  0
  -19.7033   27.7889   18.9620 H   0  0  0  0  0  0
  -19.5438   26.9830   20.6810 H   0  0  0  0  0  0
  -13.7235   31.8643   14.4035 H   0  0  0  0  0  0
  -15.6336   31.5263   12.2430 H   0  0  0  0  0  0
  -13.4779   33.6440   12.8634 H   0  0  0  0  0  0
  -14.5393   33.8195   11.4249 H   0  0  0  0  0  0
  -17.3186   34.9732   13.3323 H   0  0  0  0  0  0
  -12.1219   31.2160   12.2995 H   0  0  0  0  0  0
  -12.1259   31.2607    9.3016 H   0  0  0  0  0  0
   -9.6140   31.0008    9.5947 H   0  0  0  0  0  0
  -10.2684   32.3294   10.6111 H   0  0  0  0  0  0
   -8.1846   29.0146   11.0610 H   0  0  0  0  0  0
   -9.3638   30.3435   14.8976 H   0  0  0  0  0  0
  -12.6158   28.9131   11.7351 H   0  0  0  0  0  0
  -11.1361   26.7150   10.6070 H   0  0  0  0  0  0
  -13.8887   26.6331   11.9720 H   0  0  0  0  0  0
  -12.7824   25.2317   11.7747 H   0  0  0  0  0  0
  -12.1344   27.7752   13.3025 H   0  0  0  0  0  0
  -13.9582   26.5229   14.3763 H   0  0  0  0  0  0
  -12.4424   26.4863   15.3394 H   0  0  0  0  0  0
  -12.9337   25.0474   14.3830 H   0  0  0  0  0  0
  -10.1812   26.5825   12.3463 H   0  0  0  0  0  0
  -10.7048   25.0827   13.1849 H   0  0  0  0  0  0
  -10.2135   26.5216   14.1413 H   0  0  0  0  0  0
  -11.1976   25.5603    8.8315 H   0  0  0  0  0  0
  -13.8207   25.5856    7.3527 H   0  0  0  0  0  0
  -12.5696   27.5047    6.4020 H   0  0  0  0  0  0
  -11.1131   26.4805    6.1650 H   0  0  0  0  0  0
  -14.6372   26.9908    5.0253 H   0  0  0  0  0  0
  -10.8040   25.2749    4.1754 H   0  0  0  0  0  0
  -15.3853   26.4630    2.7339 H   0  0  0  0  0  0
  -11.5492   24.7528    1.8805 H   0  0  0  0  0  0
  -14.9348   25.5436    0.5770 H   0  0  0  0  0  0
  -14.4272   23.7881    6.4111 H   0  0  0  0  0  0
  -12.1703   21.7868    5.8500 H   0  0  0  0  0  0
  -15.1606   21.3134    6.3279 H   0  0  0  0  0  0
  -13.9825   20.0371    5.8697 H   0  0  0  0  0  0
  -13.9500   21.6773    8.4221 H   0  0  0  0  0  0
  -15.8161   20.0669    8.2877 H   0  0  0  0  0  0
  -14.5907   19.5864    9.5101 H   0  0  0  0  0  0
  -14.6466   18.7542    7.9191 H   0  0  0  0  0  0
  -11.6971   21.0190    7.6450 H   0  0  0  0  0  0
  -12.2414   19.3101    7.5439 H   0  0  0  0  0  0
  -12.1855   20.1422    9.1348 H   0  0  0  0  0  0
  -13.1423   22.9539    1.6569 H   0  0  0  0  0  0
  -11.4214   21.2051    0.3826 H   0  0  0  0  0  0
  -10.7847   22.6010    1.3168 H   0  0  0  0  0  0
  -11.0716   19.6953    2.1392 H   0  0  0  0  0  0
   -9.6810   20.8071    2.3774 H   0  0  0  0  0  0
  -10.6895   21.8594    4.2381 H   0  0  0  0  0  0
  -11.5428   20.2844    4.3718 H   0  0  0  0  0  0
  -15.2904   22.1229    2.0991 H   0  0  0  0  0  0
  -15.5787   19.3513    0.8579 H   0  0  0  0  0  0
  -17.4306   20.8598    2.8216 H   0  0  0  0  0  0
  -17.7315   19.2029    2.1966 H   0  0  0  0  0  0
  -15.3122   19.9135    3.8503 H   0  0  0  0  0  0
  -17.3525   20.5227    5.0896 H   0  0  0  0  0  0
  -16.5459   19.0770    5.7866 H   0  0  0  0  0  0
  -18.0228   18.8847    4.7824 H   0  0  0  0  0  0
  -15.2536   17.8294    2.5183 H   0  0  0  0  0  0
  -16.7958   17.3102    3.2792 H   0  0  0  0  0  0
  -15.3188   17.5025    4.2834 H   0  0  0  0  0  0
  -16.4699   22.7109    0.7671 H   0  0  0  0  0  0
  -18.9922   22.5638   -0.4998 H   0  0  0  0  0  0
  -16.6745   24.5307   -1.0156 H   0  0  0  0  0  0
  -18.3606   24.8301   -1.5580 H   0  0  0  0  0  0
  -19.1363   25.1531    0.6031 H   0  0  0  0  0  0
  -17.7603   24.2686    1.3452 H   0  0  0  0  0  0
  -17.3650   28.1074    1.6337 H   0  0  0  0  0  0
  -16.7114   21.6846   -3.8381 H   0  0  0  0  0  0
  1  2  1  0  0  0
  1107  1  0  0  0
  1108  1  0  0  0
  1109  1  0  0  0
  2  3  1  0  0  0
  2  5  1  0  0  0
  2110  1  0  0  0
  3  4  2  0  0  0
  3 12  1  0  0  0
  5  6  1  0  0  0
  5111  1  0  0  0
  5112  1  0  0  0
  6  7  1  0  0  0
  6113  1  0  0  0
  6114  1  0  0  0
  7  8  1  0  0  0
  7115  1  0  0  0
  7116  1  0  0  0
  8  9  1  0  0  0
  8117  1  0  0  0
  9 10  2  0  0  0
  9 11  1  0  0  0
 10118  1  0  0  0
 11119  1  0  0  0
 11120  1  0  0  0
 12 13  1  0  0  0
 12 18  1  0  0  0
 13 14  1  0  0  0
 13 16  1  0  0  0
 13121  1  0  0  0
 14 15  2  0  0  0
 14 19  1  0  0  0
 16 17  1  0  0  0
 16122  1  0  0  0
 16123  1  0  0  0
 17 18  1  0  0  0
 17124  1  0  0  0
 17125  1  0  0  0
 18126  1  0  0  0
 18127  1  0  0  0
 19 20  1  0  0  0
 19128  1  0  0  0
 20 21  1  0  0  0
 20 23  1  0  0  0
 20129  1  0  0  0
 21 22  2  0  0  0
 21 25  1  0  0  0
 23 24  1  0  0  0
 23130  1  0  0  0
 23131  1  0  0  0
 24132  1  0  0  0
 25 26  1  0  0  0
 25133  1  0  0  0
 26 27  1  0  0  0
 26 29  1  0  0  0
 26134  1  0  0  0
 27 28  2  0  0  0
 27 36  1  0  0  0
 29 30  1  0  0  0
 29135  1  0  0  0
 29136  1  0  0  0
 30 31  1  0  0  0
 30137  1  0  0  0
 30138  1  0  0  0
 31 32  1  0  0  0
 31139  1  0  0  0
 31140  1  0  0  0
 32 33  1  0  0  0
 32141  1  0  0  0
 33 34  2  0  0  0
 33 35  1  0  0  0
 34142  1  0  0  0
 35143  1  0  0  0
 35144  1  0  0  0
 36 37  1  0  0  0
 36145  1  0  0  0
 37 38  1  0  0  0
 37 40  1  0  0  0
 37146  1  0  0  0
 38 39  2  0  0  0
 38 44  1  0  0  0
 40 41  1  0  0  0
 40147  1  0  0  0
 40148  1  0  0  0
 41 42  2  0  0  0
 41 43  1  0  0  0
 43149  1  0  0  0
 44 45  1  0  0  0
 44150  1  0  0  0
 45 46  1  0  0  0
 45 48  1  0  0  0
 45151  1  0  0  0
 46 47  2  0  0  0
 46 54  1  0  0  0
 48 49  1  0  0  0
 48152  1  0  0  0
 48153  1  0  0  0
 49 50  2  0  0  0
 49 51  1  0  0  0
 50 52  1  0  0  0
 51 53  2  0  0  0
 51154  1  0  0  0
 52 53  1  0  0  0
 52155  1  0  0  0
 54 55  1  0  0  0
 54156  1  0  0  0
 55 56  1  0  0  0
 55 58  1  0  0  0
 55157  1  0  0  0
 56 57  2  0  0  0
 56 62  1  0  0  0
 58 59  1  0  0  0
 58158  1  0  0  0
 58159  1  0  0  0
 59 60  1  0  0  0
 59 61  1  0  0  0
 59160  1  0  0  0
 60161  1  0  0  0
 60162  1  0  0  0
 60163  1  0  0  0
 61164  1  0  0  0
 61165  1  0  0  0
 61166  1  0  0  0
 62 63  1  0  0  0
 62167  1  0  0  0
 63 64  1  0  0  0
 63 66  1  0  0  0
 63168  1  0  0  0
 64 65  2  0  0  0
 64 74  1  0  0  0
 66 67  1  0  0  0
 66169  1  0  0  0
 66170  1  0  0  0
 67 68  2  0  0  0
 67 69  1  0  0  0
 68 70  1  0  0  0
 68171  1  0  0  0
 69 71  2  0  0  0
 69172  1  0  0  0
 70 72  2  0  0  0
 70173  1  0  0  0
 71 72  1  0  0  0
 71174  1  0  0  0
 72 73  1  0  0  0
 73175  1  0  0  0
 74 75  1  0  0  0
 74176  1  0  0  0
 75 76  1  0  0  0
 75 78  1  0  0  0
 75177  1  0  0  0
 76 77  2  0  0  0
 76 82  1  0  0  0
 78 79  1  0  0  0
 78178  1  0  0  0
 78179  1  0  0  0
 79 80  1  0  0  0
 79 81  1  0  0  0
 79180  1  0  0  0
 80181  1  0  0  0
 80182  1  0  0  0
 80183  1  0  0  0
 81184  1  0  0  0
 81185  1  0  0  0
 81186  1  0  0  0
 82 83  1  0  0  0
 82 88  1  0  0  0
 83 84  1  0  0  0
 83 86  1  0  0  0
 83187  1  0  0  0
 84 85  2  0  0  0
 84 89  1  0  0  0
 86 87  1  0  0  0
 86188  1  0  0  0
 86189  1  0  0  0
 87 88  1  0  0  0
 87190  1  0  0  0
 87191  1  0  0  0
 88192  1  0  0  0
 88193  1  0  0  0
 89 90  1  0  0  0
 89194  1  0  0  0
 90 91  1  0  0  0
 90 93  1  0  0  0
 90195  1  0  0  0
 91 92  2  0  0  0
 91 97  1  0  0  0
 93 94  1  0  0  0
 93196  1  0  0  0
 93197  1  0  0  0
 94 95  1  0  0  0
 94 96  1  0  0  0
 94198  1  0  0  0
 95199  1  0  0  0
 95200  1  0  0  0
 95201  1  0  0  0
 96202  1  0  0  0
 96203  1  0  0  0
 96204  1  0  0  0
 97 98  1  0  0  0
 97205  1  0  0  0
 98 99  1  0  0  0
 98101  1  0  0  0
 98206  1  0  0  0
 99100  2  0  0  0
 99106  1  0  0  0
101102  1  0  0  0
101207  1  0  0  0
101208  1  0  0  0
102103  1  0  0  0
102209  1  0  0  0
102210  1  0  0  0
103104  1  0  0  0
103105  2  0  0  0
104211  1  0  0  0
106212  1  0  0  0
M  CHG  1   1   1
M  END
> <s_m_source_file>
../2xs0_ligand.sdf

> <i_m_source_file_index>
1

> <s_epik_input>
W0hdL049QyhbTkgyXSlcW05IXVtDSDJdW0NIMl1bQ0gyXVtDQEhdKFtOSDMrXSlDKD1PKU4xW0NAQEhdKFtDSDJdW0NIMl1bQ0gyXTEpQyg9TylbTkhdW0NAQEhdKFtDSDJdW09IXSlDKD1PKVtOSF1bQ0BASF0oW0NIMl1bQ0gyXVtDSDJdW05IXS9DKD1OXFtIXSlbTkgyXSlDKD1PKVtOSF1bQ0BASF0oW0NIMl1DKD1PKVtPSF0pQyg9TylbTkhdW0NAQEhdKFtDSDJdQzI9TltDSDJdTj1bQ0hdMilDKD1PKVtOSF1bQ0BASF0oW0NIMl1bQ0hdKFtDSDNdKVtDSDNdKUMoPU8pW05IXVtDQEBIXShbQ0gyXWMzW2NIXVtjSF1jKFtPSF0pW2NIXVtjSF0zKUMoPU8pW05IXVtDQEBIXShbQ0gyXVtDSF0oW0NIM10pW0NIM10pQyg9TylONFtDQEBIXShbQ0gyXVtDSDJdW0NIMl00KUMoPU8pW05IXVtDQEBIXShbQ0gyXVtDSF0oW0NIM10pW0NIM10pQyg9TylbTkhdW0NASF0oQyg9TylbT0hdKVtDSDJdW0NIMl1DKD1PKVtPSF0=

> <s_epik_cmdline>
J2VwaWtfYXBwJywgJy1pbWFlJywgJ2xpZ2FuZF9wcm8ubWFlJywgJy1vbWFlJywgJ2xpZ2FuZF9wcmVwLm1hZScsICctbXMnLCAnMScsICctcGgnLCAnNycsICctcGh0JywgJzAuNScsICctbnQn

> <s_epik_pKa_notes>
Molecule size exceeds maximum supported for generating protonation states

> <s_epik_Chemistry_Notes>
This compound has an imine and may undergo hydrolysis.

$$$$
