2xs8_ligand
                    3D
 Schrodinger Suite 2020-3.
155156  0  0  1  0            999 V2000
  -70.7150  -39.2870  -59.3330 N   0  3  0  0  0  0
  -70.9560  -38.4510  -60.5090 C   0  0  2  0  0  0
  -70.1590  -37.1500  -60.4230 C   0  0  0  0  0  0
  -69.7130  -36.6060  -61.4400 O   0  0  0  0  0  0
  -72.4460  -38.1540  -60.6650 C   0  0  0  0  0  0
  -69.9970  -36.6510  -59.2000 N   0  0  0  0  0  0
  -69.1560  -35.4860  -58.9470 C   0  0  2  0  0  0
  -67.8190  -35.9010  -58.3270 C   0  0  0  0  0  0
  -67.0100  -35.0570  -57.9350 O   0  0  0  0  0  0
  -69.8820  -34.4740  -58.0560 C   0  0  0  0  0  0
  -71.0210  -33.7920  -58.7570 C   0  0  0  0  0  0
  -70.8070  -32.6690  -59.5400 C   0  0  0  0  0  0
  -72.3140  -34.2830  -58.6570 C   0  0  0  0  0  0
  -71.8510  -32.0450  -60.1950 C   0  0  0  0  0  0
  -73.3680  -33.6640  -59.3090 C   0  0  0  0  0  0
  -73.1300  -32.5490  -60.0760 C   0  0  0  0  0  0
  -74.1770  -31.9360  -60.7220 O   0  0  0  0  0  0
  -67.5960  -37.2090  -58.2420 N   0  0  0  0  0  0
  -66.3070  -37.7290  -57.8020 C   0  0  2  0  0  0
  -65.1640  -37.2520  -58.7060 C   0  0  0  0  0  0
  -64.1160  -36.8530  -58.2100 O   0  0  0  0  0  0
  -66.3330  -39.2590  -57.7180 C   0  0  0  0  0  0
  -67.3800  -39.7740  -56.7400 C   0  0  0  0  0  0
  -67.8440  -38.9770  -55.8940 O   0  0  0  0  0  0
  -67.7320  -40.9740  -56.8130 O   0  0  0  0  0  0
  -65.3670  -37.2780  -60.0360 N   0  0  0  0  0  0
  -64.3190  -36.8330  -60.9620 C   0  0  2  0  0  0
  -63.8850  -35.3830  -60.7270 C   0  0  0  0  0  0
  -62.7510  -35.0170  -61.0490 O   0  0  0  0  0  0
  -64.9900  -36.9680  -62.3370 C   0  0  0  0  0  0
  -66.4510  -36.9530  -62.0560 C   0  0  0  0  0  0
  -66.5860  -37.6810  -60.7560 C   0  0  0  0  0  0
  -64.7800  -34.5690  -60.1770 N   0  0  0  0  0  0
  -64.4760  -33.1650  -59.9320 C   0  0  2  0  0  0
  -63.8390  -32.9700  -58.5620 C   0  0  0  0  0  0
  -62.9720  -32.1180  -58.3960 O   0  0  0  0  0  0
  -65.7230  -32.3070  -60.0760 C   0  0  0  0  0  0
  -64.2660  -33.7560  -57.5790 N   0  0  0  0  0  0
  -63.6320  -33.7100  -56.2650 C   0  0  2  0  0  0
  -62.1660  -34.1170  -56.3530 C   0  0  0  0  0  0
  -61.3370  -33.6720  -55.5570 O   0  0  0  0  0  0
  -64.3440  -34.6250  -55.2760 C   0  0  0  0  0  0
  -65.6810  -34.1240  -54.8050 C   0  0  0  0  0  0
  -66.0420  -34.7950  -53.5030 C   0  0  0  0  0  0
  -67.4790  -34.7870  -53.2710 N   0  0  0  0  0  0
  -68.1420  -33.7600  -52.7560 C   0  0  0  0  0  0
  -67.4900  -32.6550  -52.4250 N   0  0  0  0  0  0
  -69.4560  -33.8360  -52.5790 N   0  0  0  0  0  0
  -61.8560  -34.9740  -57.3190 N   0  0  0  0  0  0
  -60.4920  -35.4440  -57.5060 C   0  0  2  0  0  0
  -59.5600  -34.2700  -57.7790 C   0  0  0  0  0  0
  -58.4310  -34.2330  -57.2830 O   0  0  0  0  0  0
  -60.4230  -36.4390  -58.6670 C   0  0  0  0  0  0
  -59.0450  -37.0510  -58.8910 C   0  0  0  0  0  0
  -58.7460  -37.1880  -60.3770 C   0  0  0  0  0  0
  -57.6670  -38.2200  -60.6370 C   0  0  0  0  0  0
  -58.0800  -39.5740  -60.1710 N   0  3  0  0  0  0
  -60.0450  -33.3080  -58.5600 N   0  0  0  0  0  0
  -59.2220  -32.1830  -58.9970 C   0  0  2  0  0  0
  -58.9780  -31.1500  -57.8940 C   0  0  0  0  0  0
  -58.1450  -30.2510  -58.0460 O   0  0  0  0  0  0
  -59.8240  -31.5300  -60.2420 C   0  0  0  0  0  0
  -59.9360  -32.4660  -61.4490 C   0  0  0  0  0  0
  -60.4100  -31.7170  -62.6900 C   0  0  0  0  0  0
  -58.5950  -33.1500  -61.7090 C   0  0  0  0  0  0
  -59.7060  -31.2880  -56.7880 N   0  0  0  0  0  0
  -59.4530  -30.4860  -55.5950 C   0  0  2  0  0  0
  -58.2520  -31.0460  -54.8220 C   0  0  0  0  0  0
  -58.3000  -31.2290  -53.6020 O   0  0  0  0  0  0
  -60.6940  -30.4380  -54.7020 C   0  0  0  0  0  0
  -61.9550  -29.8170  -55.3110 C   0  0  0  0  0  0
  -63.0660  -29.7350  -54.2790 C   0  0  0  0  0  0
  -61.6640  -28.4410  -55.8730 C   0  0  0  0  0  0
  -57.1960  -31.3330  -55.3930 O   0  0  0  0  0  0
  -69.6375  -39.4879  -59.2405 H   0  0  0  0  0  0
  -71.2572  -40.2379  -59.4418 H   0  0  0  0  0  0
  -71.0691  -38.7639  -58.4325 H   0  0  0  0  0  0
  -70.6051  -39.0425  -61.3675 H   0  0  0  0  0  0
  -73.0041  -39.1000  -60.7253 H   0  0  0  0  0  0
  -72.6097  -37.5725  -61.5843 H   0  0  0  0  0  0
  -72.7973  -37.5756  -59.7978 H   0  0  0  0  0  0
  -70.5197  -37.1434  -58.3667 H   0  0  0  0  0  0
  -68.9752  -35.0395  -59.9359 H   0  0  0  0  0  0
  -70.2908  -34.9889  -57.1741 H   0  0  0  0  0  0
  -69.1742  -33.6970  -57.7315 H   0  0  0  0  0  0
  -69.7973  -32.2710  -59.6409 H   0  0  0  0  0  0
  -72.5044  -35.1715  -58.0549 H   0  0  0  0  0  0
  -71.6654  -31.1593  -60.8026 H   0  0  0  0  0  0
  -74.3795  -34.0589  -59.2142 H   0  0  0  0  0  0
  -73.9960  -31.0429  -61.3382 H   0  0  0  0  0  0
  -68.4061  -37.9028  -58.5111 H   0  0  0  0  0  0
  -66.1698  -37.3038  -56.7968 H   0  0  0  0  0  0
  -66.5625  -39.6768  -58.7094 H   0  0  0  0  0  0
  -65.3506  -39.6247  -57.3845 H   0  0  0  0  0  0
  -68.4868  -41.3691  -56.1172 H   0  0  0  0  0  0
  -63.4167  -37.4439  -60.8117 H   0  0  0  0  0  0
  -64.6908  -36.1237  -62.9755 H   0  0  0  0  0  0
  -64.6767  -37.9120  -62.8068 H   0  0  0  0  0  0
  -66.7997  -35.9123  -61.9830 H   0  0  0  0  0  0
  -66.9863  -37.4627  -62.8706 H   0  0  0  0  0  0
  -66.5952  -38.7742  -60.8782 H   0  0  0  0  0  0
  -67.4710  -37.3688  -60.1821 H   0  0  0  0  0  0
  -65.7661  -34.9737  -59.9055 H   0  0  0  0  0  0
  -63.7506  -32.8864  -60.7106 H   0  0  0  0  0  0
  -66.1638  -32.4650  -61.0713 H   0  0  0  0  0  0
  -65.4543  -31.2469  -59.9581 H   0  0  0  0  0  0
  -66.4530  -32.5884  -59.3028 H   0  0  0  0  0  0
  -65.1039  -34.4449  -57.7616 H   0  0  0  0  0  0
  -63.7240  -32.6606  -55.9482 H   0  0  0  0  0  0
  -64.5191  -35.6050  -55.7438 H   0  0  0  0  0  0
  -63.7193  -34.7530  -54.3797 H   0  0  0  0  0  0
  -65.6323  -33.0355  -54.6543 H   0  0  0  0  0  0
  -66.4463  -34.3557  -55.5604 H   0  0  0  0  0  0
  -65.7012  -35.8407  -53.5226 H   0  0  0  0  0  0
  -65.5549  -34.2662  -52.6705 H   0  0  0  0  0  0
  -68.0824  -35.6704  -53.5271 H   0  0  0  0  0  0
  -66.4016  -32.5936  -52.5722 H   0  0  0  0  0  0
  -69.9959  -34.7540  -52.8543 H   0  0  0  0  0  0
  -70.0045  -32.9809  -52.1571 H   0  0  0  0  0  0
  -62.6562  -35.3287  -57.9853 H   0  0  0  0  0  0
  -60.2170  -35.9357  -56.5612 H   0  0  0  0  0  0
  -61.1168  -37.2715  -58.4782 H   0  0  0  0  0  0
  -60.7045  -35.9320  -59.6017 H   0  0  0  0  0  0
  -58.2791  -36.4069  -58.4344 H   0  0  0  0  0  0
  -59.0075  -38.0488  -58.4295 H   0  0  0  0  0  0
  -59.6582  -37.4987  -60.9074 H   0  0  0  0  0  0
  -58.4033  -36.2206  -60.7728 H   0  0  0  0  0  0
  -57.4616  -38.2718  -61.7164 H   0  0  0  0  0  0
  -56.7492  -37.9336  -60.1025 H   0  0  0  0  0  0
  -57.2740  -40.2939  -60.3759 H   0  0  0  0  0  0
  -58.9916  -39.8828  -60.7036 H   0  0  0  0  0  0
  -58.2792  -39.5446  -59.0896 H   0  0  0  0  0  0
  -61.0962  -33.3761  -58.8767 H   0  0  0  0  0  0
  -58.2528  -32.6434  -59.2391 H   0  0  0  0  0  0
  -60.8394  -31.1735  -60.0144 H   0  0  0  0  0  0
  -59.1973  -30.6799  -60.5496 H   0  0  0  0  0  0
  -60.6887  -33.2356  -61.2230 H   0  0  0  0  0  0
  -61.3754  -31.2333  -62.4799 H   0  0  0  0  0  0
  -60.5285  -32.4256  -63.5230 H   0  0  0  0  0  0
  -59.6680  -30.9519  -62.9622 H   0  0  0  0  0  0
  -58.2733  -33.6829  -60.8021 H   0  0  0  0  0  0
  -57.8429  -32.3929  -61.9757 H   0  0  0  0  0  0
  -58.7033  -33.8666  -62.5365 H   0  0  0  0  0  0
  -60.5169  -32.0313  -56.7893 H   0  0  0  0  0  0
  -59.2271  -29.4731  -55.9596 H   0  0  0  0  0  0
  -57.4246  -31.6318  -53.0714 H   0  0  0  0  0  0
  -60.9753  -31.4605  -54.4099 H   0  0  0  0  0  0
  -60.4747  -29.8465  -53.8009 H   0  0  0  0  0  0
  -62.2930  -30.4586  -56.1381 H   0  0  0  0  0  0
  -63.2687  -30.7390  -53.8780 H   0  0  0  0  0  0
  -63.9766  -29.3380  -54.7514 H   0  0  0  0  0  0
  -62.7573  -29.0685  -53.4601 H   0  0  0  0  0  0
  -60.8585  -28.5124  -56.6187 H   0  0  0  0  0  0
  -61.3514  -27.7709  -55.0586 H   0  0  0  0  0  0
  -62.5707  -28.0404  -56.3498 H   0  0  0  0  0  0
  1  2  1  0  0  0
  1 75  1  0  0  0
  1 76  1  0  0  0
  1 77  1  0  0  0
  2  3  1  0  0  0
  2  5  1  0  0  0
  2 78  1  0  0  0
  3  4  2  0  0  0
  3  6  1  0  0  0
  5 79  1  0  0  0
  5 80  1  0  0  0
  5 81  1  0  0  0
  6  7  1  0  0  0
  6 82  1  0  0  0
  7  8  1  0  0  0
  7 10  1  0  0  0
  7 83  1  0  0  0
  8  9  2  0  0  0
  8 18  1  0  0  0
 10 11  1  0  0  0
 10 84  1  0  0  0
 10 85  1  0  0  0
 11 12  2  0  0  0
 11 13  1  0  0  0
 12 14  1  0  0  0
 12 86  1  0  0  0
 13 15  2  0  0  0
 13 87  1  0  0  0
 14 16  2  0  0  0
 14 88  1  0  0  0
 15 16  1  0  0  0
 15 89  1  0  0  0
 16 17  1  0  0  0
 17 90  1  0  0  0
 18 19  1  0  0  0
 18 91  1  0  0  0
 19 20  1  0  0  0
 19 22  1  0  0  0
 19 92  1  0  0  0
 20 21  2  0  0  0
 20 26  1  0  0  0
 22 23  1  0  0  0
 22 93  1  0  0  0
 22 94  1  0  0  0
 23 24  2  0  0  0
 23 25  1  0  0  0
 25 95  1  0  0  0
 26 27  1  0  0  0
 26 32  1  0  0  0
 27 28  1  0  0  0
 27 30  1  0  0  0
 27 96  1  0  0  0
 28 29  2  0  0  0
 28 33  1  0  0  0
 30 31  1  0  0  0
 30 97  1  0  0  0
 30 98  1  0  0  0
 31 32  1  0  0  0
 31 99  1  0  0  0
 31100  1  0  0  0
 32101  1  0  0  0
 32102  1  0  0  0
 33 34  1  0  0  0
 33103  1  0  0  0
 34 35  1  0  0  0
 34 37  1  0  0  0
 34104  1  0  0  0
 35 36  2  0  0  0
 35 38  1  0  0  0
 37105  1  0  0  0
 37106  1  0  0  0
 37107  1  0  0  0
 38 39  1  0  0  0
 38108  1  0  0  0
 39 40  1  0  0  0
 39 42  1  0  0  0
 39109  1  0  0  0
 40 41  2  0  0  0
 40 49  1  0  0  0
 42 43  1  0  0  0
 42110  1  0  0  0
 42111  1  0  0  0
 43 44  1  0  0  0
 43112  1  0  0  0
 43113  1  0  0  0
 44 45  1  0  0  0
 44114  1  0  0  0
 44115  1  0  0  0
 45 46  1  0  0  0
 45116  1  0  0  0
 46 47  2  0  0  0
 46 48  1  0  0  0
 47117  1  0  0  0
 48118  1  0  0  0
 48119  1  0  0  0
 49 50  1  0  0  0
 49120  1  0  0  0
 50 51  1  0  0  0
 50 53  1  0  0  0
 50121  1  0  0  0
 51 52  2  0  0  0
 51 58  1  0  0  0
 53 54  1  0  0  0
 53122  1  0  0  0
 53123  1  0  0  0
 54 55  1  0  0  0
 54124  1  0  0  0
 54125  1  0  0  0
 55 56  1  0  0  0
 55126  1  0  0  0
 55127  1  0  0  0
 56 57  1  0  0  0
 56128  1  0  0  0
 56129  1  0  0  0
 57130  1  0  0  0
 57131  1  0  0  0
 57132  1  0  0  0
 58 59  1  0  0  0
 58133  1  0  0  0
 59 60  1  0  0  0
 59 62  1  0  0  0
 59134  1  0  0  0
 60 61  2  0  0  0
 60 66  1  0  0  0
 62 63  1  0  0  0
 62135  1  0  0  0
 62136  1  0  0  0
 63 64  1  0  0  0
 63 65  1  0  0  0
 63137  1  0  0  0
 64138  1  0  0  0
 64139  1  0  0  0
 64140  1  0  0  0
 65141  1  0  0  0
 65142  1  0  0  0
 65143  1  0  0  0
 66 67  1  0  0  0
 66144  1  0  0  0
 67 68  1  0  0  0
 67 70  1  0  0  0
 67145  1  0  0  0
 68 69  1  0  0  0
 68 74  2  0  0  0
 69146  1  0  0  0
 70 71  1  0  0  0
 70147  1  0  0  0
 70148  1  0  0  0
 71 72  1  0  0  0
 71 73  1  0  0  0
 71149  1  0  0  0
 72150  1  0  0  0
 72151  1  0  0  0
 72152  1  0  0  0
 73153  1  0  0  0
 73154  1  0  0  0
 73155  1  0  0  0
M  CHG  2   1   1  57   1
M  END
> <s_m_source_file>
../2xs8_ligand.sdf

> <i_m_source_file_index>
1

> <s_epik_input>
W2NIXTFbY0hdYyhbT0hdKVtjSF1bY0hdYzFbQ0gyXVtDQEhdKFtOSF1DKD1PKVtDQEBIXShbTkgzK10pW0NIM10pQyg9TylbTkhdW0NAQEhdKFtDSDJdQyg9TylbT0hdKUMoPU8pTjJbQ0BASF0oW0NIMl1bQ0gyXVtDSDJdMilDKD1PKVtOSF1bQ0BASF0oW0NIM10pQyg9TylbTkhdW0NAQEhdKFtDSDJdW0NIMl1bQ0gyXVtOSF0vQyg9TlxbSF0pW05IMl0pQyg9TylbTkhdW0NAQEhdKFtDSDJdW0NIMl1bQ0gyXVtDSDJdW05IMytdKUMoPU8pW05IXVtDQEBIXShbQ0gyXVtDSF0oW0NIM10pW0NIM10pQyg9TylbTkhdW0NASF0oQyg9TylbT0hdKVtDSDJdW0NIXShbQ0gzXSlbQ0gzXQ==

> <s_epik_cmdline>
J2VwaWtfYXBwJywgJy1pbWFlJywgJ2xpZ2FuZF9wcm8ubWFlJywgJy1vbWFlJywgJ2xpZ2FuZF9wcmVwLm1hZScsICctbXMnLCAnMScsICctcGgnLCAnNycsICctcGh0JywgJzAuNScsICctbnQn

> <s_epik_pKa_notes>
Molecule size exceeds maximum supported for generating protonation states

> <s_epik_Chemistry_Notes>
This compound has an imine and may undergo hydrolysis.

$$$$
