2xtk_ligand
                    3D
 Schrodinger Suite 2020-3.
 19 19  0  0  1  0            999 V2000
   14.5950   35.7520   73.2710 C   0  0  0  0  0  0
   15.0390   37.5800   74.7130 C   0  0  0  0  0  0
   15.8080   39.7310   74.5300 C   0  0  0  0  0  0
   16.2160   41.0040   75.2620 C   0  0  0  0  0  0
   15.0450   33.3010   72.3630 N   0  0  0  0  0  0
   14.4910   36.5190   75.3190 N   0  0  0  0  0  0
   14.2490   35.5580   74.5570 N   0  0  0  0  0  0
   15.3880   38.7380   75.3200 N   0  0  0  0  0  0
   14.9650   35.1210   70.6900 O   0  0  0  0  0  0
   12.8640   34.3290   71.8050 O   0  0  0  0  0  0
   15.8510   39.6270   73.3100 O   0  0  0  0  0  0
   14.3670   34.5830   71.9940 S   0  0  0  0  0  0
   15.2140   37.2220   73.1180 S   0  0  0  0  0  0
   16.0929   40.8594   76.3455 H   0  0  0  0  0  0
   15.5809   41.8381   74.9289 H   0  0  0  0  0  0
   17.2687   41.2333   75.0399 H   0  0  0  0  0  0
   14.9009   32.5652   71.5581 H   0  0  0  0  0  0
   14.6119   32.9127   73.2966 H   0  0  0  0  0  0
   15.3187   38.8281   76.4141 H   0  0  0  0  0  0
  1  7  2  0  0  0
  1 12  1  0  0  0
  1 13  1  0  0  0
  2  6  2  0  0  0
  2  8  1  0  0  0
  2 13  1  0  0  0
  3  4  1  0  0  0
  3  8  1  0  0  0
  3 11  2  0  0  0
  4 14  1  0  0  0
  4 15  1  0  0  0
  4 16  1  0  0  0
  5 12  1  0  0  0
  5 17  1  0  0  0
  5 18  1  0  0  0
  6  7  1  0  0  0
  8 19  1  0  0  0
  9 12  2  0  0  0
 10 12  2  0  0  0
M  END
> <s_m_source_file>
../2xtk_ligand.sdf

> <i_m_source_file_index>
1

> <s_epik_input>
W05IMl1TKD1PKSg9TyljMW5uYyhzMSlbTkhdQyg9TylbQ0gzXQ==

> <s_epik_cmdline>
J2VwaWtfYXBwJywgJy1pbWFlJywgJ2xpZ2FuZF9wcm8ubWFlJywgJy1vbWFlJywgJ2xpZ2FuZF9wcmVwLm1hZScsICctbXMnLCAnMScsICctcGgnLCAnNycsICctcGh0JywgJzAuNScsICctbnQn

> <r_lp_tautomer_probability>
1

> <r_epik_Ionization_Penalty>
  0.2847

> <r_epik_Ionization_Penalty_Charging>
  0.0000

> <r_epik_Ionization_Penalty_Neutral>
  0.2847

> <r_epik_State_Penalty>
 -0.0000

> <r_epik_Charging_Adjusted_Penalty>
0

> <i_epik_Tot_Q>
0

> <i_epik_Tot_abs_Q>
0

$$$$
