2xtn_ligand
                    3D
 Schrodinger Suite 2020-3.
 45 47  0  0  1  0            999 V2000
    6.9930   21.8690   19.6320 P   0  0  0  0  0  0
    7.8650   22.2700   20.7960 O   0  5  0  0  0  0
    7.8200   21.5590   18.4240 O   0  0  0  0  0  0
    6.0060   22.9600   19.3050 O   0  0  0  0  0  0
    6.1980   20.5910   20.1850 O   0  0  0  0  0  0
    5.3220   19.5220   19.3700 P   0  0  2  0  0  0
    6.0300   19.1310   18.1060 O   0  0  0  0  0  0
    3.8930   19.9600   19.1700 O   0  5  0  0  0  0
    5.3240   18.2640   20.3730 O   0  0  0  0  0  0
    6.5240   17.2000   20.5410 P   0  0  2  0  0  0
    7.8610   17.8830   20.6730 O   0  5  0  0  0  0
    6.4960   16.1950   19.4370 O   0  0  0  0  0  0
    6.0840   16.5130   21.9220 O   0  0  0  0  0  0
    6.3060   17.1330   23.1780 C   0  0  0  0  0  0
    6.2320   16.0430   24.2500 C   0  0  1  0  0  0
    4.8950   15.5680   24.3520 O   0  0  0  0  0  0
    7.0940   14.8420   23.8950 C   0  0  1  0  0  0
    7.7270   14.3690   25.0630 O   0  0  0  0  0  0
    6.1110   13.8000   23.4090 C   0  0  1  0  0  0
    6.5670   12.4910   23.6610 O   0  0  0  0  0  0
    4.8630   14.1620   24.2020 C   0  0  2  0  0  0
    3.6360   13.7230   23.5200 N   0  0  0  0  0  0
    3.1620   14.1260   22.2980 C   0  0  0  0  0  0
    2.0050   13.4710   22.0590 N   0  0  0  0  0  0
    1.7370   12.6530   23.0990 C   0  0  0  0  0  0
    0.6970   11.7680   23.3730 C   0  0  0  0  0  0
   -0.2320   11.5970   22.5740 O   0  0  0  0  0  0
    0.7160   11.0680   24.5680 N   0  3  0  0  0  0
    1.7410   11.2410   25.4720 C   0  0  0  0  0  0
    1.7460   10.5570   26.6160 N   0  0  0  0  0  0
    2.7650   12.1190   25.1950 N   0  0  0  0  0  0
    2.7540   12.8160   24.0320 C   0  0  0  0  0  0
    6.3616   23.9229   18.9095 H   0  0  0  0  0  0
    7.2978   17.6086   23.1819 H   0  0  0  0  0  0
    5.5329   17.8959   23.3521 H   0  0  0  0  0  0
    6.5254   16.4718   25.2196 H   0  0  0  0  0  0
    7.9141   15.0545   23.1933 H   0  0  0  0  0  0
    8.4810   14.9893   25.5696 H   0  0  0  0  0  0
    5.9751   13.7324   22.3195 H   0  0  0  0  0  0
    7.4626   12.1120   23.1468 H   0  0  0  0  0  0
    4.8230   13.7054   25.2020 H   0  0  0  0  0  0
    3.6364   14.8492   21.6347 H   0  0  0  0  0  0
    0.9296    9.8548   26.8405 H   0  0  0  0  0  0
    2.5665   10.6947   27.3356 H   0  0  0  0  0  0
   -0.0943   10.3630   24.8054 H   0  0  0  0  0  0
  1  2  1  0  0  0
  1  3  2  0  0  0
  1  4  1  0  0  0
  1  5  1  0  0  0
  4 33  1  0  0  0
  5  6  1  0  0  0
  6  7  2  0  0  0
  6  8  1  0  0  0
  6  9  1  0  0  0
  9 10  1  0  0  0
 10 11  1  0  0  0
 10 12  2  0  0  0
 10 13  1  0  0  0
 13 14  1  0  0  0
 14 15  1  0  0  0
 14 34  1  0  0  0
 14 35  1  0  0  0
 15 16  1  0  0  0
 15 17  1  0  0  0
 15 36  1  0  0  0
 16 21  1  0  0  0
 17 18  1  0  0  0
 17 19  1  0  0  0
 17 37  1  0  0  0
 18 38  1  0  0  0
 19 20  1  0  0  0
 19 21  1  0  0  0
 19 39  1  0  0  0
 20 40  1  0  0  0
 21 22  1  0  0  0
 21 41  1  0  0  0
 22 23  1  0  0  0
 22 32  1  0  0  0
 23 24  2  0  0  0
 23 42  1  0  0  0
 24 25  1  0  0  0
 25 26  1  0  0  0
 25 32  2  0  0  0
 26 27  2  0  0  0
 26 28  1  0  0  0
 28 29  1  0  0  0
 28 45  1  0  0  0
 29 30  1  0  0  0
 29 31  2  0  0  0
 30 43  1  0  0  0
 30 44  1  0  0  0
 31 32  1  0  0  0
M  CHG  4   2  -1   8  -1  11  -1  28   1
M  END
> <s_m_source_file>
../2xtn_ligand.sdf

> <i_m_source_file_index>
1

> <s_epik_input>
W09IXVAoPU8pKFtPSF0pT1tQQF0oPU8pKFtPSF0pT1tQQEBdKD1PKShbT0hdKU9bQ0gyXVtDQEhdMU9bQ0BIXShbQ0BIXShbT0hdKVtDQEBIXTFbT0hdKW4oW2NIXW4yKWMoYzIzKVtuSF1jKD1OXFtIXSlcW25IXWMzPU8=

> <s_epik_cmdline>
J2VwaWtfYXBwJywgJy1pbWFlJywgJ2xpZ2FuZF9wcm8ubWFlJywgJy1vbWFlJywgJ2xpZ2FuZF9wcmVwLm1hZScsICctbXMnLCAnMScsICctcGgnLCAnNycsICctcGh0JywgJzAuNScsICctbnQn

> <r_epik_Ionization_Penalty>
  3.6149

> <r_epik_Ionization_Penalty_Charging>
  2.3889

> <r_epik_Ionization_Penalty_Neutral>
  1.2259

> <r_epik_State_Penalty>
  0.0136

> <r_epik_Charging_Adjusted_Penalty>
2.40246252490279

> <i_epik_Tot_Q>
-2

> <i_epik_Tot_abs_Q>
4

> <s_epik_Chemistry_Notes>
This compound has an imine and may undergo hydrolysis. This compound contains an acetal/aminal-like group ( X-CH(R)-Y where X, Y are N, S, or O) that may be acid/base labile, releasing an aldehyde.

$$$$
