2xto_ligand
                    3D
 Schrodinger Suite 2020-3.
 40 42  0  0  1  0            999 V2000
  -16.8600  -24.8410    6.3060 P   0  0  0  0  0  0
  -16.3780  -25.1020    7.7120 O   0  0  0  0  0  0
  -15.9280  -23.8770    5.6120 O   0  5  0  0  0  0
  -18.2530  -24.2500    6.3810 O   0  5  0  0  0  0
  -16.8920  -26.2050    5.4470 O   0  0  0  0  0  0
  -16.9950  -27.6620    6.1230 P   0  0  2  0  0  0
  -18.1960  -27.7820    7.0300 O   0  5  0  0  0  0
  -15.7330  -28.0030    6.8760 O   0  0  0  0  0  0
  -17.1360  -28.5940    4.8260 O   0  0  0  0  0  0
  -18.2770  -28.5040    3.9750 C   0  0  0  0  0  0
  -18.2840  -29.6960    3.0220 C   0  0  1  0  0  0
  -17.1720  -29.5920    2.1290 O   0  0  0  0  0  0
  -18.1470  -31.0270    3.7550 C   0  0  1  0  0  0
  -19.1260  -31.9430    3.2470 O   0  0  0  0  0  0
  -16.7310  -31.4970    3.4570 C   0  0  1  0  0  0
  -16.6150  -32.9180    3.3330 O   0  0  0  0  0  0
  -16.4170  -30.8050    2.1410 C   0  0  2  0  0  0
  -14.9620  -30.5600    1.9770 N   0  0  0  0  0  0
  -14.1690  -29.7630    2.7190 C   0  0  0  0  0  0
  -12.8870  -29.7990    2.2660 N   0  0  0  0  0  0
  -12.8510  -30.6390    1.2130 C   0  0  0  0  0  0
  -11.8280  -31.1420    0.2630 C   0  0  0  0  0  0
  -10.6370  -30.7750    0.3420 O   0  0  0  0  0  0
  -12.2180  -32.0030   -0.6880 N   0  3  0  0  0  0
  -13.4950  -32.4270   -0.8040 C   0  0  0  0  0  0
  -13.8220  -33.2990   -1.7870 N   0  0  0  0  0  0
  -14.4810  -32.0070    0.0270 N   0  0  0  0  0  0
  -14.2220  -31.1340    1.0310 C   0  0  0  0  0  0
  -19.1917  -28.5131    4.5859 H   0  0  0  0  0  0
  -18.2310  -27.5688    3.3977 H   0  0  0  0  0  0
  -19.2139  -29.6701    2.4349 H   0  0  0  0  0  0
  -18.3573  -30.9884    4.8340 H   0  0  0  0  0  0
  -20.1973  -31.7363    3.3868 H   0  0  0  0  0  0
  -16.0225  -31.3109    4.2776 H   0  0  0  0  0  0
  -16.8113  -33.5637    4.2016 H   0  0  0  0  0  0
  -16.7146  -31.3956    1.2620 H   0  0  0  0  0  0
  -14.5088  -29.1695    3.5677 H   0  0  0  0  0  0
  -13.0487  -33.6617   -2.4802 H   0  0  0  0  0  0
  -14.8609  -33.6447   -1.8924 H   0  0  0  0  0  0
  -11.4864  -32.3915   -1.4118 H   0  0  0  0  0  0
  1  2  2  0  0  0
  1  3  1  0  0  0
  1  4  1  0  0  0
  1  5  1  0  0  0
  5  6  1  0  0  0
  6  7  1  0  0  0
  6  8  2  0  0  0
  6  9  1  0  0  0
  9 10  1  0  0  0
 10 11  1  0  0  0
 10 29  1  0  0  0
 10 30  1  0  0  0
 11 12  1  0  0  0
 11 13  1  0  0  0
 11 31  1  0  0  0
 12 17  1  0  0  0
 13 14  1  0  0  0
 13 15  1  0  0  0
 13 32  1  0  0  0
 14 33  1  0  0  0
 15 16  1  0  0  0
 15 17  1  0  0  0
 15 34  1  0  0  0
 16 35  1  0  0  0
 17 18  1  0  0  0
 17 36  1  0  0  0
 18 19  1  0  0  0
 18 28  1  0  0  0
 19 20  2  0  0  0
 19 37  1  0  0  0
 20 21  1  0  0  0
 21 22  1  0  0  0
 21 28  2  0  0  0
 22 23  2  0  0  0
 22 24  1  0  0  0
 24 25  1  0  0  0
 24 40  1  0  0  0
 25 26  1  0  0  0
 25 27  2  0  0  0
 26 38  1  0  0  0
 26 39  1  0  0  0
 27 28  1  0  0  0
M  CHG  4   3  -1   4  -1   7  -1  24   1
M  END
> <s_m_source_file>
../2xto_ligand.sdf

> <i_m_source_file_index>
1

> <s_epik_input>
Tz1QKFtPSF0pKFtPSF0pT1tQQEBdKD1PKShbT0hdKU9bQ0gyXVtDQEhdMU9bQ0BIXShbQ0BIXShbT0hdKVtDQEBIXTFbT0hdKW4oW2NIXW4yKWMoYzIzKVtuSF1jKD1OXFtIXSlcW25IXWMzPU8=

> <s_epik_cmdline>
J2VwaWtfYXBwJywgJy1pbWFlJywgJ2xpZ2FuZF9wcm8ubWFlJywgJy1vbWFlJywgJ2xpZ2FuZF9wcmVwLm1hZScsICctbXMnLCAnMScsICctcGgnLCAnNycsICctcGh0JywgJzAuNScsICctbnQn

> <r_epik_Ionization_Penalty>
  2.4918

> <r_epik_Ionization_Penalty_Charging>
  2.4918

> <r_epik_Ionization_Penalty_Neutral>
  0.0000

> <r_epik_State_Penalty>
  0.1302

> <r_epik_Charging_Adjusted_Penalty>
2.62193179535438

> <i_epik_Tot_Q>
-2

> <i_epik_Tot_abs_Q>
4

> <s_epik_Chemistry_Notes>
This compound has an imine and may undergo hydrolysis. This compound contains an acetal/aminal-like group ( X-CH(R)-Y where X, Y are N, S, or O) that may be acid/base labile, releasing an aldehyde.

$$$$
