2xu1_ligand
                    3D
 Schrodinger Suite 2020-3.
 60 64  0  0  1  0            999 V2000
   31.3410  -25.0310  -14.6360 S   0  0  0  0  0  0
   32.3380  -28.2580  -13.9940 N   0  0  0  0  0  0
   28.9640  -23.6620  -13.0040 Cl  0  0  0  0  0  0
   31.2490  -30.2080  -15.0170 C   0  0  0  0  0  0
   28.4300  -32.1840  -10.0030 Cl  0  0  0  0  0  0
   31.3850  -26.1550  -13.2350 C   0  0  1  0  0  0
   32.4830  -29.4010  -14.6910 C   0  0  0  0  0  0
   33.4270  -27.3640  -13.6270 C   0  0  1  0  0  0
   29.6800  -25.0260  -15.2110 C   0  0  0  0  0  0
   31.0490  -27.6250  -13.5810 C   0  0  0  0  0  0
   32.8370  -26.2710  -12.7200 C   0  0  0  0  0  0
   34.4860  -28.0590  -12.8280 C   0  0  0  0  0  0
   30.4590  -29.7860  -16.2660 C   0  0  0  0  0  0
   31.3220  -31.0510  -16.2770 C   0  0  0  0  0  0
   36.8870  -28.5840  -12.6260 C   0  0  0  0  0  0
   35.7380  -28.0130  -13.3110 N   0  0  0  0  0  0
   37.4830  -27.6920  -11.6050 C   0  0  0  0  0  0
   38.6940  -27.8820  -11.1640 N   0  0  0  0  0  0
   30.5070  -30.7020  -13.7870 C   0  0  0  0  0  0
   31.6590  -23.7300  -14.1790 O   0  0  0  0  0  0
   32.0910  -25.6170  -15.7130 O   0  0  0  0  0  0
   36.9600  -30.0880  -12.4110 C   0  0  0  0  0  0
   37.8120  -29.4270  -13.5060 C   0  0  0  0  0  0
   33.6010  -29.7760  -14.9990 O   0  0  0  0  0  0
   28.6640  -24.4290  -14.4990 C   0  0  0  0  0  0
   34.1840  -28.6020  -11.7940 O   0  0  0  0  0  0
   29.1980  -30.3380  -13.5190 C   0  0  0  0  0  0
   31.1510  -31.5250  -12.8700 C   0  0  0  0  0  0
   29.1940  -31.5930  -11.4540 C   0  0  0  0  0  0
   29.3950  -25.6230  -16.4230 C   0  0  0  0  0  0
   28.5540  -30.7700  -12.3630 C   0  0  0  0  0  0
   30.4970  -31.9760  -11.7270 C   0  0  0  0  0  0
   27.3730  -24.4220  -14.9940 C   0  0  0  0  0  0
   28.1100  -25.6140  -16.9170 C   0  0  0  0  0  0
   27.0970  -25.0090  -16.2060 C   0  0  0  0  0  0
   30.6902  -25.8556  -12.4365 H   0  0  0  0  0  0
   33.8651  -27.0135  -14.5732 H   0  0  0  0  0  0
   30.3297  -27.6827  -14.4112 H   0  0  0  0  0  0
   30.6434  -28.1556  -12.7069 H   0  0  0  0  0  0
   33.3450  -25.3020  -12.8341 H   0  0  0  0  0  0
   32.8276  -26.5573  -11.6579 H   0  0  0  0  0  0
   29.3857  -29.7539  -16.0274 H   0  0  0  0  0  0
   30.7922  -28.7894  -16.5913 H   0  0  0  0  0  0
   32.3645  -31.1017  -16.6244 H   0  0  0  0  0  0
   30.9579  -32.0662  -16.0606 H   0  0  0  0  0  0
   35.8698  -27.5092  -14.2799 H   0  0  0  0  0  0
   36.8819  -26.8557  -11.2186 H   0  0  0  0  0  0
   39.2951  -28.7183  -11.5504 H   0  0  0  0  0  0
   37.2988  -30.2957  -11.3853 H   0  0  0  0  0  0
   35.9641  -30.5291  -12.5646 H   0  0  0  0  0  0
   37.5152  -29.3183  -14.5596 H   0  0  0  0  0  0
   38.8499  -29.0849  -13.3803 H   0  0  0  0  0  0
   28.6631  -29.7027  -14.2250 H   0  0  0  0  0  0
   32.1844  -31.8218  -13.0490 H   0  0  0  0  0  0
   30.1912  -26.1037  -16.9914 H   0  0  0  0  0  0
   27.5285  -30.4545  -12.1710 H   0  0  0  0  0  0
   31.0176  -32.6400  -11.0369 H   0  0  0  0  0  0
   26.5733  -23.9506  -14.4227 H   0  0  0  0  0  0
   27.8933  -26.0875  -17.8746 H   0  0  0  0  0  0
   26.0817  -24.9958  -16.6024 H   0  0  0  0  0  0
  1  6  1  0  0  0
  1  9  1  0  0  0
  1 20  2  0  0  0
  1 21  2  0  0  0
  2  7  1  0  0  0
  2  8  1  0  0  0
  2 10  1  0  0  0
  3 25  1  0  0  0
  4  7  1  0  0  0
  4 13  1  0  0  0
  4 14  1  0  0  0
  4 19  1  0  0  0
  5 29  1  0  0  0
  6 10  1  0  0  0
  6 11  1  0  0  0
  6 36  1  0  0  0
  7 24  2  0  0  0
  8 11  1  0  0  0
  8 12  1  0  0  0
  8 37  1  0  0  0
  9 25  2  0  0  0
  9 30  1  0  0  0
 10 38  1  0  0  0
 10 39  1  0  0  0
 11 40  1  0  0  0
 11 41  1  0  0  0
 12 16  1  0  0  0
 12 26  2  0  0  0
 13 14  1  0  0  0
 13 42  1  0  0  0
 13 43  1  0  0  0
 14 44  1  0  0  0
 14 45  1  0  0  0
 15 16  1  0  0  0
 15 17  1  0  0  0
 15 22  1  0  0  0
 15 23  1  0  0  0
 16 46  1  0  0  0
 17 18  2  0  0  0
 17 47  1  0  0  0
 18 48  1  0  0  0
 19 27  2  0  0  0
 19 28  1  0  0  0
 22 23  1  0  0  0
 22 49  1  0  0  0
 22 50  1  0  0  0
 23 51  1  0  0  0
 23 52  1  0  0  0
 25 33  1  0  0  0
 27 31  1  0  0  0
 27 53  1  0  0  0
 28 32  2  0  0  0
 28 54  1  0  0  0
 29 31  2  0  0  0
 29 32  1  0  0  0
 30 34  2  0  0  0
 30 55  1  0  0  0
 31 56  1  0  0  0
 32 57  1  0  0  0
 33 35  2  0  0  0
 33 58  1  0  0  0
 34 35  1  0  0  0
 34 59  1  0  0  0
 35 60  1  0  0  0
M  END
> <s_m_source_file>
../2xu1_ligand.sdf

> <i_m_source_file_index>
1

> <s_epik_input>
W2NIXTFbY0hdW2NIXVtjSF1jKENsKWMxUyg9TykoPU8pW0NAQEhdKFtDSDJdMilbQ0gyXVtDQEBIXShDKD1PKVtOSF1DMygvW0NIXT1OXFtIXSlbQ0gyXVtDSDJdMylOMkMoPU8pQzQoW0NIMl1bQ0gyXTQpYzVbY0hdW2NIXWMoQ2wpW2NIXVtjSF01

> <s_epik_cmdline>
J2VwaWtfYXBwJywgJy1pbWFlJywgJ2xpZ2FuZF9wcm8ubWFlJywgJy1vbWFlJywgJ2xpZ2FuZF9wcmVwLm1hZScsICctbXMnLCAnMScsICctcGgnLCAnNycsICctcGh0JywgJzAuNScsICctbnQn

> <r_lp_tautomer_probability>
0.5

> <r_epik_Ionization_Penalty>
  0.1387

> <r_epik_Ionization_Penalty_Charging>
  0.0000

> <r_epik_Ionization_Penalty_Neutral>
  0.1387

> <r_epik_State_Penalty>
  0.4782

> <r_epik_Charging_Adjusted_Penalty>
0.47815496883597

> <i_epik_Tot_Q>
0

> <i_epik_Tot_abs_Q>
0

> <s_epik_Chemistry_Notes>
This compound has an imine and may undergo hydrolysis.

$$$$
