2xu3_ligand
                    3D
 Schrodinger Suite 2020-3.
 57 61  0  0  1  0            999 V2000
   20.5010    6.4700    7.6120 N   0  0  0  0  0  0
   20.7220    5.4100    8.5960 C   0  0  0  0  0  0
   19.3190    1.4370    9.7480 Cl  0  0  0  0  0  0
   19.5600    4.4490    8.3280 C   0  0  1  0  0  0
   22.0730    8.8040   13.2060 Cl  0  0  0  0  0  0
   18.4340    5.3250    7.7230 C   0  0  0  0  0  0
   19.2100    6.3720    6.9420 C   0  0  1  0  0  0
   20.0270    3.2520    7.0790 S   0  0  0  0  0  0
   18.4300    7.6690    6.8540 C   0  0  0  0  0  0
   21.1960    2.2020    7.9170 C   0  0  0  0  0  0
   18.8320    2.4880    6.8520 O   0  0  0  0  0  0
   20.6620    3.8940    5.9880 O   0  0  0  0  0  0
   20.8650    1.4350    9.0350 C   0  0  0  0  0  0
   21.7820    0.6190    9.6400 C   0  0  0  0  0  0
   23.0600    0.5430    9.1280 C   0  0  0  0  0  0
   23.4110    1.2910    8.0240 C   0  0  0  0  0  0
   22.4790    2.1130    7.4160 C   0  0  0  0  0  0
   18.1090    8.3120    7.8580 O   0  0  0  0  0  0
   18.0170    7.9960    5.6050 N   0  0  0  0  0  0
   17.1780    9.1180    5.2710 C   0  0  0  0  0  0
   15.7040    8.8830    5.3390 C   0  0  0  0  0  0
   14.8280    9.6650    5.0100 N   0  0  0  0  0  0
   17.7050   10.4990    5.6570 C   0  0  0  0  0  0
   17.7050   10.0470    4.2060 C   0  0  0  0  0  0
   21.4030    7.3790    7.2280 C   0  0  0  0  0  0
   22.7480    7.2870    7.8800 C   0  0  0  0  0  0
   21.1460    8.1970    6.3540 O   0  0  0  0  0  0
   22.8220    7.3510    9.3710 C   0  0  0  0  0  0
   23.4680    6.5670   10.2490 C   0  0  0  0  0  0
   23.3150    6.9560   11.5780 C   0  0  0  0  0  0
   22.5260    8.0260   11.7410 C   0  0  0  0  0  0
   21.9540    8.5830   10.1920 S   0  0  0  0  0  0
   23.7500    6.3870    7.1720 C   0  0  0  0  0  0
   23.8960    7.9020    7.0830 C   0  0  0  0  0  0
   21.7043    4.9467    8.4215 H   0  0  0  0  0  0
   20.6933    5.8381    9.6089 H   0  0  0  0  0  0
   19.2496    4.0541    9.3066 H   0  0  0  0  0  0
   17.7917    4.7045    7.0809 H   0  0  0  0  0  0
   17.8313    5.7593    8.5343 H   0  0  0  0  0  0
   19.4136    6.1046    5.8946 H   0  0  0  0  0  0
   21.5049    0.0351   10.5177 H   0  0  0  0  0  0
   23.7953   -0.1105    9.5975 H   0  0  0  0  0  0
   24.4255    1.2345    7.6293 H   0  0  0  0  0  0
   22.7593    2.6933    6.5369 H   0  0  0  0  0  0
   18.3756    7.3223    4.8128 H   0  0  0  0  0  0
   15.4365    7.8910    5.7319 H   0  0  0  0  0  0
   15.0955   10.6570    4.6171 H   0  0  0  0  0  0
   16.9026   11.0757    6.1404 H   0  0  0  0  0  0
   18.5481   10.3879    6.3547 H   0  0  0  0  0  0
   18.5538    9.5719    3.6923 H   0  0  0  0  0  0
   16.9083   10.2597    3.4780 H   0  0  0  0  0  0
   24.0599    5.7025    9.9485 H   0  0  0  0  0  0
   23.7934    6.4373   12.4088 H   0  0  0  0  0  0
   24.2528    5.7457    7.9109 H   0  0  0  0  0  0
   23.2239    5.7583    6.4385 H   0  0  0  0  0  0
   23.4879    8.5306    6.2778 H   0  0  0  0  0  0
   24.5169    8.5180    7.7501 H   0  0  0  0  0  0
  1  2  1  0  0  0
  1  7  1  0  0  0
  1 25  1  0  0  0
  2  4  1  0  0  0
  2 35  1  0  0  0
  2 36  1  0  0  0
  3 13  1  0  0  0
  4  6  1  0  0  0
  4  8  1  0  0  0
  4 37  1  0  0  0
  5 31  1  0  0  0
  6  7  1  0  0  0
  6 38  1  0  0  0
  6 39  1  0  0  0
  7  9  1  0  0  0
  7 40  1  0  0  0
  8 10  1  0  0  0
  8 11  2  0  0  0
  8 12  2  0  0  0
  9 18  2  0  0  0
  9 19  1  0  0  0
 10 13  2  0  0  0
 10 17  1  0  0  0
 13 14  1  0  0  0
 14 15  2  0  0  0
 14 41  1  0  0  0
 15 16  1  0  0  0
 15 42  1  0  0  0
 16 17  2  0  0  0
 16 43  1  0  0  0
 17 44  1  0  0  0
 19 20  1  0  0  0
 19 45  1  0  0  0
 20 21  1  0  0  0
 20 23  1  0  0  0
 20 24  1  0  0  0
 21 22  2  0  0  0
 21 46  1  0  0  0
 22 47  1  0  0  0
 23 24  1  0  0  0
 23 48  1  0  0  0
 23 49  1  0  0  0
 24 50  1  0  0  0
 24 51  1  0  0  0
 25 26  1  0  0  0
 25 27  2  0  0  0
 26 28  1  0  0  0
 26 33  1  0  0  0
 26 34  1  0  0  0
 28 29  2  0  0  0
 28 32  1  0  0  0
 29 30  1  0  0  0
 29 52  1  0  0  0
 30 31  2  0  0  0
 30 53  1  0  0  0
 31 32  1  0  0  0
 33 34  1  0  0  0
 33 54  1  0  0  0
 33 55  1  0  0  0
 34 56  1  0  0  0
 34 57  1  0  0  0
M  END
> <s_m_source_file>
../2xu3_ligand.sdf

> <i_m_source_file_index>
1

> <s_epik_input>
Q2xjKHMxKVtjSF1bY0hdYzFDMihbQ0gyXVtDSDJdMilDKD1PKU4zW0NIMl1bQ0BASF0oW0NIMl1bQ0BIXTNDKD1PKVtOSF1DNCgvW0NIXT1OXFtIXSlbQ0gyXVtDSDJdNClTKD1PKSg9TyljNWMoQ2wpW2NIXVtjSF1bY0hdW2NIXTU=

> <s_epik_cmdline>
J2VwaWtfYXBwJywgJy1pbWFlJywgJ2xpZ2FuZF9wcm8ubWFlJywgJy1vbWFlJywgJ2xpZ2FuZF9wcmVwLm1hZScsICctbXMnLCAnMScsICctcGgnLCAnNycsICctcGh0JywgJzAuNScsICctbnQn

> <r_lp_tautomer_probability>
0.5

> <r_epik_Ionization_Penalty>
  0.1368

> <r_epik_Ionization_Penalty_Charging>
  0.0000

> <r_epik_Ionization_Penalty_Neutral>
  0.1368

> <r_epik_State_Penalty>
  0.4771

> <r_epik_Charging_Adjusted_Penalty>
0.47709924209731

> <i_epik_Tot_Q>
0

> <i_epik_Tot_abs_Q>
0

> <s_epik_Chemistry_Notes>
This compound has an imine and may undergo hydrolysis.

$$$$
