2xu4_ligand
                    3D
 Schrodinger Suite 2020-3.
 60 64  0  0  1  0            999 V2000
   26.9200    8.7730    0.2170 C   0  0  1  0  0  0
   26.2000    7.8600   -0.7520 C   0  0  0  0  0  0
   30.2190   13.6830    0.1290 Cl  0  0  0  0  0  0
   24.9900    7.4560   -0.2670 N   0  0  0  0  0  0
   24.0510    6.6900   -1.0660 C   0  0  0  0  0  0
   23.0780    7.5470   -1.8060 C   0  0  0  0  0  0
   26.6070    7.5890   -1.8940 O   0  0  0  0  0  0
   24.5070    5.3750   -1.6550 C   0  0  0  0  0  0
   23.5580    5.3880   -0.4670 C   0  0  0  0  0  0
   22.0630    7.0960   -2.4300 N   0  0  0  0  0  0
   28.2430    8.2980    0.6260 N   0  0  0  0  0  0
   29.3160    9.2270    0.2160 C   0  0  0  0  0  0
   28.5550   10.5710    0.0270 C   0  0  1  0  0  0
   27.1780   10.1060   -0.4940 C   0  0  0  0  0  0
   28.2550   11.4910    1.5570 S   0  0  0  0  0  0
   29.8720   11.9200    2.1770 C   0  0  0  0  0  0
   30.6830   12.8440    1.5410 C   0  0  0  0  0  0
   31.9370   13.1480    2.0290 C   0  0  0  0  0  0
   32.3740   12.5330    3.1650 C   0  0  0  0  0  0
   31.5850   11.6250    3.8210 C   0  0  0  0  0  0
   30.3420   11.3080    3.3310 C   0  0  0  0  0  0
   27.5390   12.7030    1.1600 O   0  0  0  0  0  0
   27.6840   10.6380    2.5520 O   0  0  0  0  0  0
   28.3600    7.2230    1.4110 C   0  0  0  0  0  0
   27.3350    6.6260    1.7580 O   0  0  0  0  0  0
   30.2660    7.4980    3.1300 C   0  0  0  0  0  0
   29.7410    6.8450    1.8490 C   0  0  0  0  0  0
   29.8650    6.0220    3.1210 C   0  0  0  0  0  0
   31.1650    5.4280   -1.3990 C   0  0  0  0  0  0
   32.4320    5.9510   -1.3560 C   0  0  0  0  0  0
   32.8290    6.7430   -0.3010 C   0  0  0  0  0  0
   31.9560    7.0330    0.7140 C   0  0  0  0  0  0
   30.6730    6.5250    0.6950 C   0  0  0  0  0  0
   30.2850    5.7050   -0.3500 C   0  0  0  0  0  0
   33.3190    5.6740   -2.3470 F   0  0  0  0  0  0
   26.3035    8.8124    1.1271 H   0  0  0  0  0  0
   24.7361    7.7303    0.7675 H   0  0  0  0  0  0
   23.2790    8.6284   -1.7916 H   0  0  0  0  0  0
   24.1993    5.3193   -2.7096 H   0  0  0  0  0  0
   25.6027    5.3037   -1.5885 H   0  0  0  0  0  0
   23.8641    5.3306    0.5880 H   0  0  0  0  0  0
   22.4608    5.3462   -0.5332 H   0  0  0  0  0  0
   21.8620    6.0146   -2.4444 H   0  0  0  0  0  0
   30.0784    9.2786    1.0072 H   0  0  0  0  0  0
   29.7776    8.8661   -0.7150 H   0  0  0  0  0  0
   29.1306   11.1296   -0.7258 H   0  0  0  0  0  0
   27.1869    9.9454   -1.5822 H   0  0  0  0  0  0
   26.3820   10.8197   -0.2352 H   0  0  0  0  0  0
   32.5701   13.8701    1.5135 H   0  0  0  0  0  0
   33.3641   12.7669    3.5563 H   0  0  0  0  0  0
   31.9452   11.1527    4.7349 H   0  0  0  0  0  0
   29.7236   10.5749    3.8488 H   0  0  0  0  0  0
   31.2836    7.8784    2.9572 H   0  0  0  0  0  0
   29.6064    8.3313    3.4137 H   0  0  0  0  0  0
   30.7339    5.4043    3.3921 H   0  0  0  0  0  0
   29.0567    5.8572    3.8486 H   0  0  0  0  0  0
   30.8500    4.8068   -2.2374 H   0  0  0  0  0  0
   33.8433    7.1411   -0.2738 H   0  0  0  0  0  0
   32.2761    7.6678    1.5403 H   0  0  0  0  0  0
   29.2848    5.2718   -0.3547 H   0  0  0  0  0  0
  1  2  1  0  0  0
  1 11  1  0  0  0
  1 14  1  0  0  0
  1 36  1  0  0  0
  2  4  1  0  0  0
  2  7  2  0  0  0
  3 17  1  0  0  0
  4  5  1  0  0  0
  4 37  1  0  0  0
  5  6  1  0  0  0
  5  8  1  0  0  0
  5  9  1  0  0  0
  6 10  2  0  0  0
  6 38  1  0  0  0
  8  9  1  0  0  0
  8 39  1  0  0  0
  8 40  1  0  0  0
  9 41  1  0  0  0
  9 42  1  0  0  0
 10 43  1  0  0  0
 11 12  1  0  0  0
 11 24  1  0  0  0
 12 13  1  0  0  0
 12 44  1  0  0  0
 12 45  1  0  0  0
 13 14  1  0  0  0
 13 15  1  0  0  0
 13 46  1  0  0  0
 14 47  1  0  0  0
 14 48  1  0  0  0
 15 16  1  0  0  0
 15 22  2  0  0  0
 15 23  2  0  0  0
 16 17  2  0  0  0
 16 21  1  0  0  0
 17 18  1  0  0  0
 18 19  2  0  0  0
 18 49  1  0  0  0
 19 20  1  0  0  0
 19 50  1  0  0  0
 20 21  2  0  0  0
 20 51  1  0  0  0
 21 52  1  0  0  0
 24 25  2  0  0  0
 24 27  1  0  0  0
 26 27  1  0  0  0
 26 28  1  0  0  0
 26 53  1  0  0  0
 26 54  1  0  0  0
 27 28  1  0  0  0
 27 33  1  0  0  0
 28 55  1  0  0  0
 28 56  1  0  0  0
 29 30  2  0  0  0
 29 34  1  0  0  0
 29 57  1  0  0  0
 30 31  1  0  0  0
 30 35  1  0  0  0
 31 32  2  0  0  0
 31 58  1  0  0  0
 32 33  1  0  0  0
 32 59  1  0  0  0
 33 34  2  0  0  0
 34 60  1  0  0  0
M  END
> <s_m_source_file>
../2xu4_ligand.sdf

> <i_m_source_file_index>
1

> <s_epik_input>
RmMxW2NIXVtjSF1jKFtjSF1bY0hdMSlDMihbQ0gyXVtDSDJdMilDKD1PKU4oW0NAQEhdM0MoPU8pW05IXUM0KC9bQ0hdPU5cW0hdKVtDSDJdW0NIMl00KVtDSDJdW0NAQEhdKFtDSDJdMylTKD1PKSg9TyljNWMoQ2wpW2NIXVtjSF1bY0hdW2NIXTU=

> <s_epik_cmdline>
J2VwaWtfYXBwJywgJy1pbWFlJywgJ2xpZ2FuZF9wcm8ubWFlJywgJy1vbWFlJywgJ2xpZ2FuZF9wcmVwLm1hZScsICctbXMnLCAnMScsICctcGgnLCAnNycsICctcGh0JywgJzAuNScsICctbnQn

> <r_lp_tautomer_probability>
0.5

> <r_epik_Ionization_Penalty>
  0.1390

> <r_epik_Ionization_Penalty_Charging>
  0.0000

> <r_epik_Ionization_Penalty_Neutral>
  0.1390

> <r_epik_State_Penalty>
  0.4783

> <r_epik_Charging_Adjusted_Penalty>
0.47829173428678

> <i_epik_Tot_Q>
0

> <i_epik_Tot_abs_Q>
0

> <s_epik_Chemistry_Notes>
This compound has an imine and may undergo hydrolysis.

$$$$
