2xu5_ligand
                    3D
 Schrodinger Suite 2020-3.
 63 67  0  0  1  0            999 V2000
   17.5160   10.3740   22.2700 Cl  0  0  0  0  0  0
   23.1640   11.3010   22.6180 C   0  0  1  0  0  0
   24.2120   11.8790   23.5490 C   0  0  0  0  0  0
   25.2370   12.5430   22.9660 N   0  0  0  0  0  0
   26.2950   13.2800   23.6530 C   0  0  0  0  0  0
   25.9000   14.6860   23.9020 C   0  0  0  0  0  0
   24.1070   11.7470   24.7590 O   0  0  0  0  0  0
   27.2370   12.5900   24.6510 C   0  0  0  0  0  0
   27.7410   12.9720   23.2580 C   0  0  0  0  0  0
   26.7720   15.5410   24.2520 N   0  0  0  0  0  0
   23.1690    9.8430   22.6850 N   0  0  0  0  0  0
   21.8490    9.3590   23.0990 C   0  0  0  0  0  0
   20.9030   10.5780   22.8370 C   0  0  1  0  0  0
   21.8290   11.7630   23.2470 C   0  0  0  0  0  0
   20.4130   10.8210   21.1110 S   0  0  0  0  0  0
   19.4770    9.3470   20.7560 C   0  0  0  0  0  0
   18.2130    9.1530   21.2860 C   0  0  0  0  0  0
   17.4520    8.0110   21.0540 C   0  0  0  0  0  0
   17.9840    7.0370   20.2410 C   0  0  0  0  0  0
   19.2410    7.2170   19.7120 C   0  0  0  0  0  0
   19.9990    8.3520   19.9580 C   0  0  0  0  0  0
   19.5650   11.9890   21.0640 O   0  0  0  0  0  0
   21.5480   10.7460   20.2590 O   0  0  0  0  0  0
   24.2190    9.0690   22.3540 C   0  0  0  0  0  0
   25.2220    9.6230   21.9740 O   0  0  0  0  0  0
   23.5700    6.7790   21.2670 C   0  0  0  0  0  0
   24.1200    7.5660   22.4550 C   0  0  0  0  0  0
   25.0700    6.7770   21.5720 C   0  0  0  0  0  0
   22.3540    5.8560   25.3910 C   0  0  0  0  0  0
   23.2160    6.1980   26.4310 C   0  0  0  0  0  0
   24.3290    6.9720   26.1590 C   0  0  0  0  0  0
   24.6170    7.3920   24.8750 C   0  0  0  0  0  0
   23.7800    7.0590   23.8360 C   0  0  0  0  0  0
   22.6320    6.2890   24.0900 C   0  0  0  0  0  0
   22.9550    5.7450   27.8540 C   0  0  0  0  0  0
   23.3461   11.5709   21.5673 H   0  0  0  0  0  0
   25.2265   12.4920   21.8672 H   0  0  0  0  0  0
   24.8493   14.9890   23.7833 H   0  0  0  0  0  0
   27.3361   13.2128   25.5523 H   0  0  0  0  0  0
   26.8237   11.6087   24.9270 H   0  0  0  0  0  0
   27.7480   12.3049   22.3834 H   0  0  0  0  0  0
   28.2605   13.9090   23.0087 H   0  0  0  0  0  0
   27.8227   15.2380   24.3707 H   0  0  0  0  0  0
   21.5738    8.4821   22.4945 H   0  0  0  0  0  0
   21.8786    9.0770   24.1618 H   0  0  0  0  0  0
   20.0346   10.4467   23.4993 H   0  0  0  0  0  0
   21.9548   11.8735   24.3342 H   0  0  0  0  0  0
   21.5337   12.7292   22.8120 H   0  0  0  0  0  0
   16.4656    7.8921   21.5023 H   0  0  0  0  0  0
   17.4163    6.1335   20.0187 H   0  0  0  0  0  0
   19.6575    6.4371   19.0746 H   0  0  0  0  0  0
   20.9943    8.4557   19.5260 H   0  0  0  0  0  0
   22.8502    6.0286   21.6259 H   0  0  0  0  0  0
   23.0663    7.4675   20.5726 H   0  0  0  0  0  0
   25.4036    5.7467   21.7646 H   0  0  0  0  0  0
   25.6197    7.1856   20.7113 H   0  0  0  0  0  0
   21.4674    5.2540   25.5901 H   0  0  0  0  0  0
   24.9932    7.2567   26.9750 H   0  0  0  0  0  0
   25.5093    7.9885   24.6850 H   0  0  0  0  0  0
   21.9583    6.0292   23.2735 H   0  0  0  0  0  0
   22.0344    5.1437   27.8843 H   0  0  0  0  0  0
   22.8397    6.6251   28.5036 H   0  0  0  0  0  0
   23.8016    5.1375   28.2065 H   0  0  0  0  0  0
  1 17  1  0  0  0
  2  3  1  0  0  0
  2 11  1  0  0  0
  2 14  1  0  0  0
  2 36  1  0  0  0
  3  4  1  0  0  0
  3  7  2  0  0  0
  4  5  1  0  0  0
  4 37  1  0  0  0
  5  6  1  0  0  0
  5  8  1  0  0  0
  5  9  1  0  0  0
  6 10  2  0  0  0
  6 38  1  0  0  0
  8  9  1  0  0  0
  8 39  1  0  0  0
  8 40  1  0  0  0
  9 41  1  0  0  0
  9 42  1  0  0  0
 10 43  1  0  0  0
 11 12  1  0  0  0
 11 24  1  0  0  0
 12 13  1  0  0  0
 12 44  1  0  0  0
 12 45  1  0  0  0
 13 14  1  0  0  0
 13 15  1  0  0  0
 13 46  1  0  0  0
 14 47  1  0  0  0
 14 48  1  0  0  0
 15 16  1  0  0  0
 15 22  2  0  0  0
 15 23  2  0  0  0
 16 17  2  0  0  0
 16 21  1  0  0  0
 17 18  1  0  0  0
 18 19  2  0  0  0
 18 49  1  0  0  0
 19 20  1  0  0  0
 19 50  1  0  0  0
 20 21  2  0  0  0
 20 51  1  0  0  0
 21 52  1  0  0  0
 24 25  2  0  0  0
 24 27  1  0  0  0
 26 27  1  0  0  0
 26 28  1  0  0  0
 26 53  1  0  0  0
 26 54  1  0  0  0
 27 28  1  0  0  0
 27 33  1  0  0  0
 28 55  1  0  0  0
 28 56  1  0  0  0
 29 30  2  0  0  0
 29 34  1  0  0  0
 29 57  1  0  0  0
 30 31  1  0  0  0
 30 35  1  0  0  0
 31 32  2  0  0  0
 31 58  1  0  0  0
 32 33  1  0  0  0
 32 59  1  0  0  0
 33 34  2  0  0  0
 34 60  1  0  0  0
 35 61  1  0  0  0
 35 62  1  0  0  0
 35 63  1  0  0  0
M  END
> <s_m_source_file>
../2xu5_ligand.sdf

> <i_m_source_file_index>
1

> <s_epik_input>
W2NIXTFbY0hdW2NIXVtjSF1jKENsKWMxUyg9TykoPU8pW0NASF0oW0NIMl0yKVtDSDJdTihbQ0BASF0yQyg9TylbTkhdQzMoL1tDSF09TlxbSF0pW0NIMl1bQ0gyXTMpQyg9TylDNChbQ0gyXVtDSDJdNCljKFtjSF1bY0hdNSlbY0hdW2NIXWM1W0NIM10=

> <s_epik_cmdline>
J2VwaWtfYXBwJywgJy1pbWFlJywgJ2xpZ2FuZF9wcm8ubWFlJywgJy1vbWFlJywgJ2xpZ2FuZF9wcmVwLm1hZScsICctbXMnLCAnMScsICctcGgnLCAnNycsICctcGh0JywgJzAuNScsICctbnQn

> <r_lp_tautomer_probability>
0.5

> <r_epik_Ionization_Penalty>
  0.1399

> <r_epik_Ionization_Penalty_Charging>
  0.0000

> <r_epik_Ionization_Penalty_Neutral>
  0.1399

> <r_epik_State_Penalty>
  0.4788

> <r_epik_Charging_Adjusted_Penalty>
0.478795449636245

> <i_epik_Tot_Q>
0

> <i_epik_Tot_abs_Q>
0

> <s_epik_Chemistry_Notes>
This compound has an imine and may undergo hydrolysis.

$$$$
