2xup_ligand
                    3D
 Schrodinger Suite 2020-3.
 93100  0  0  1  0            999 V2000
   36.4270   20.1980    4.5330 N   0  0  0  0  0  0
   36.2540   21.5140    4.8970 C   0  0  0  0  0  0
   36.1870   22.5530    3.9230 C   0  0  0  0  0  0
   36.0060   23.8580    4.3050 C   0  0  0  0  0  0
   35.8880   24.2150    5.6890 C   0  0  0  0  0  0
   36.1340   21.8320    6.2430 C   0  0  0  0  0  0
   35.9580   23.1690    6.6570 C   0  0  0  0  0  0
   35.9270   23.5410    8.0060 N   0  0  0  0  0  0
   35.8350   24.8060    8.4620 C   0  0  3  0  0  0
   35.8130   24.9890    9.9480 C   0  0  0  0  0  0
   34.6010   25.1710   10.6110 C   0  0  0  0  0  0
   34.5840   25.3160   11.9940 C   0  0  0  0  0  0
   35.7840   25.2640   12.7020 C   0  0  0  0  0  0
   37.0000   25.0660   12.0460 C   0  0  0  0  0  0
   37.0120   24.9230   10.6640 C   0  0  0  0  0  0
   35.7610   25.8810    7.5350 C   0  0  0  0  0  0
   35.6920   27.2530    7.9650 C   0  0  0  0  0  0
   35.7880   25.5930    6.1290 C   0  0  0  0  0  0
   35.7460   26.7000    5.2270 C   0  0  0  0  0  0
   35.6800   28.0110    5.6590 C   0  0  0  0  0  0
   35.6500   28.3050    7.0530 C   0  0  0  0  0  0
   35.5880   29.6210    7.4850 N   0  0  0  0  0  0
   35.9950   22.4830    9.0560 C   0  0  0  0  0  0
   34.8290   21.4920    9.1750 C   0  0  0  0  0  0
   33.4430   22.1600    9.2530 C   0  0  0  0  0  0
   32.2710   21.1860    9.4820 C   0  0  0  0  0  0
   30.9400   21.9340    9.6840 C   0  0  0  0  0  0
   29.8160   21.0990   10.3350 C   0  0  0  0  0  0
   30.2550   20.1500   11.4140 C   0  0  0  0  0  0
   30.9030   20.3040   12.5970 N   0  0  0  0  0  0
   31.0740   19.1360   13.2020 N   0  0  0  0  0  0
   30.5700   18.1640   12.4860 N   0  0  0  0  0  0
   30.0810   18.7700   11.4050 C   0  0  0  0  0  0
   31.3280   21.6280   13.0850 C   0  0  0  0  0  0
   30.1590   22.4790   13.6160 C   0  0  0  0  0  0
   29.3480   21.7220   14.5980 N   0  0  0  0  0  0
   28.0910   21.3170   14.1750 C   0  0  0  0  0  0
   27.1710   22.0840   13.4090 C   0  0  0  0  0  0
   27.4110   23.4370   12.9580 C   0  0  0  0  0  0
   25.9290   21.4920   13.0340 C   0  0  0  0  0  0
   24.9830   22.2250   12.2310 C   0  0  0  0  0  0
   25.2610   23.5060   11.8270 C   0  0  0  0  0  0
   26.4990   24.1220   12.1980 C   0  0  0  0  0  0
   25.5980   20.2380   13.3870 N   0  3  0  0  0  0
   26.4650   19.4910   14.1010 C   0  0  0  0  0  0
   26.0170   18.2070   14.5790 C   0  0  0  0  0  0
   27.7230   19.9980   14.5400 C   0  0  0  0  0  0
   28.4570   19.1970   15.5040 C   0  0  0  0  0  0
   27.9600   17.9880   15.9210 C   0  0  0  0  0  0
   26.9300   17.3780   15.1520 C   0  0  0  0  0  0
   36.5237   19.9293    3.4707 H   0  0  0  0  0  0
   36.4685   19.4149    5.3044 H   0  0  0  0  0  0
   36.2805   22.3081    2.8650 H   0  0  0  0  0  0
   35.9509   24.6365    3.5441 H   0  0  0  0  0  0
   36.1763   21.0387    6.9893 H   0  0  0  0  0  0
   34.7377   24.7286    8.4553 H   0  0  0  0  0  0
   33.6686   25.1996   10.0471 H   0  0  0  0  0  0
   33.6414   25.4689   12.5196 H   0  0  0  0  0  0
   35.7723   25.3799   13.7858 H   0  0  0  0  0  0
   37.9306   25.0240   12.6120 H   0  0  0  0  0  0
   37.9535   24.7598   10.1396 H   0  0  0  0  0  0
   35.6721   27.4745    9.0321 H   0  0  0  0  0  0
   35.7668   26.5027    4.1552 H   0  0  0  0  0  0
   35.6508   28.8222    4.9316 H   0  0  0  0  0  0
   35.5649   29.8460    8.5615 H   0  0  0  0  0  0
   35.5619   30.4401    6.7512 H   0  0  0  0  0  0
   36.8813   21.8540    8.8859 H   0  0  0  0  0  0
   36.0647   22.9543   10.0475 H   0  0  0  0  0  0
   34.8204   20.8289    8.2974 H   0  0  0  0  0  0
   34.9508   20.8904   10.0878 H   0  0  0  0  0  0
   33.4281   22.8772   10.0869 H   0  0  0  0  0  0
   33.2374   22.6890    8.3107 H   0  0  0  0  0  0
   32.1676   20.5250    8.6088 H   0  0  0  0  0  0
   32.4674   20.5804   10.3791 H   0  0  0  0  0  0
   31.1041   22.8048   10.3357 H   0  0  0  0  0  0
   30.5579   22.2722    8.7095 H   0  0  0  0  0  0
   29.0790   21.7728   10.7964 H   0  0  0  0  0  0
   29.3220   20.4865    9.5663 H   0  0  0  0  0  0
   29.5913   18.2354   10.5911 H   0  0  0  0  0  0
   32.0488   21.5020   13.9063 H   0  0  0  0  0  0
   31.8014   22.1867   12.2642 H   0  0  0  0  0  0
   30.5550   23.3796   14.1080 H   0  0  0  0  0  0
   29.5101   22.7741   12.7782 H   0  0  0  0  0  0
   29.7524   21.5107   15.5989 H   0  0  0  0  0  0
   28.3457   23.9269   13.2308 H   0  0  0  0  0  0
   24.0409   21.7586   11.9430 H   0  0  0  0  0  0
   24.5388   24.0554   11.2230 H   0  0  0  0  0  0
   26.7171   25.1399   11.8747 H   0  0  0  0  0  0
   24.9731   17.9082   14.4836 H   0  0  0  0  0  0
   29.4070   19.5580   15.8980 H   0  0  0  0  0  0
   28.3450   17.5064   16.8198 H   0  0  0  0  0  0
   26.8753   16.2965   15.0279 H   0  0  0  0  0  0
   24.6223   19.8234   13.0936 H   0  0  0  0  0  0
  1  2  1  0  0  0
  1 51  1  0  0  0
  1 52  1  0  0  0
  2  3  2  0  0  0
  2  6  1  0  0  0
  3  4  1  0  0  0
  3 53  1  0  0  0
  4  5  2  0  0  0
  4 54  1  0  0  0
  5  7  1  0  0  0
  5 18  1  0  0  0
  6  7  2  0  0  0
  6 55  1  0  0  0
  7  8  1  0  0  0
  8  9  1  0  0  0
  8 23  1  0  0  0
  9 10  1  0  0  0
  9 16  1  0  0  0
  9 56  1  0  0  0
 10 11  2  0  0  0
 10 15  1  0  0  0
 11 12  1  0  0  0
 11 57  1  0  0  0
 12 13  2  0  0  0
 12 58  1  0  0  0
 13 14  1  0  0  0
 13 59  1  0  0  0
 14 15  2  0  0  0
 14 60  1  0  0  0
 15 61  1  0  0  0
 16 17  2  0  0  0
 16 18  1  0  0  0
 17 21  1  0  0  0
 17 62  1  0  0  0
 18 19  2  0  0  0
 19 20  1  0  0  0
 19 63  1  0  0  0
 20 21  2  0  0  0
 20 64  1  0  0  0
 21 22  1  0  0  0
 22 65  1  0  0  0
 22 66  1  0  0  0
 23 24  1  0  0  0
 23 67  1  0  0  0
 23 68  1  0  0  0
 24 25  1  0  0  0
 24 69  1  0  0  0
 24 70  1  0  0  0
 25 26  1  0  0  0
 25 71  1  0  0  0
 25 72  1  0  0  0
 26 27  1  0  0  0
 26 73  1  0  0  0
 26 74  1  0  0  0
 27 28  1  0  0  0
 27 75  1  0  0  0
 27 76  1  0  0  0
 28 29  1  0  0  0
 28 77  1  0  0  0
 28 78  1  0  0  0
 29 30  1  0  0  0
 29 33  2  0  0  0
 30 31  1  0  0  0
 30 34  1  0  0  0
 31 32  2  0  0  0
 32 33  1  0  0  0
 33 79  1  0  0  0
 34 35  1  0  0  0
 34 80  1  0  0  0
 34 81  1  0  0  0
 35 36  1  0  0  0
 35 82  1  0  0  0
 35 83  1  0  0  0
 36 37  1  0  0  0
 36 84  1  0  0  0
 37 38  2  0  0  0
 37 47  1  0  0  0
 38 39  1  0  0  0
 38 40  1  0  0  0
 39 43  2  0  0  0
 39 85  1  0  0  0
 40 41  1  0  0  0
 40 44  2  0  0  0
 41 42  2  0  0  0
 41 86  1  0  0  0
 42 43  1  0  0  0
 42 87  1  0  0  0
 43 88  1  0  0  0
 44 45  1  0  0  0
 44 93  1  0  0  0
 45 46  1  0  0  0
 45 47  2  0  0  0
 46 50  2  0  0  0
 46 89  1  0  0  0
 47 48  1  0  0  0
 48 49  2  0  0  0
 48 90  1  0  0  0
 49 50  1  0  0  0
 49 91  1  0  0  0
 50 92  1  0  0  0
M  CHG  1  44   1
M  END
> <s_m_source_file>
../2xup_ligand.sdf

> <i_m_source_file_index>
1

> <s_epik_input>
W2NIXTFbY0hdW2NIXVtjSF1bY0hdYzFbQ0hdKGMyYzNbY0hdW2NIXWMoW2NIXTIpW05IMl0pTihjKGMzNClbY0hdYyhbTkgyXSlbY0hdW2NIXTQpW0NIMl1bQ0gyXVtDSDJdW0NIMl1bQ0gyXVtDSDJdYzVuKG5uW2NIXTUpW0NIMl1bQ0gyXVtOSF1jNmMoW2NIXVtjSF1bY0hdW2NIXTcpYzduYyhjNjgpW2NIXVtjSF1bY0hdW2NIXTg=

> <s_epik_cmdline>
J2VwaWtfYXBwJywgJy1pbWFlJywgJ2xpZ2FuZF9wcm8ubWFlJywgJy1vbWFlJywgJ2xpZ2FuZF9wcmVwLm1hZScsICctbXMnLCAnMScsICctcGgnLCAnNycsICctcGh0JywgJzAuNScsICctbnQn

> <r_lp_tautomer_probability>
1

> <r_epik_Ionization_Penalty>
  0.0292

> <r_epik_Ionization_Penalty_Charging>
  0.0112

> <r_epik_Ionization_Penalty_Neutral>
  0.0180

> <r_epik_State_Penalty>
 -0.0000

> <r_epik_Charging_Adjusted_Penalty>
0.0112077144273033

> <i_epik_Tot_Q>
1

> <i_epik_Tot_abs_Q>
1

$$$$
