2xvn_ligand
                    3D
 Schrodinger Suite 2020-3.
 26 26  0  0  1  0            999 V2000
   -9.9650    8.9660   -2.4890 C   0  0  0  0  0  0
  -10.2150   10.0720   -3.4240 N   0  0  0  0  0  0
  -11.4230   10.6300   -3.4270 C   0  0  0  0  0  0
  -12.3240   10.1990   -2.7360 O   0  0  0  0  0  0
  -11.6740   11.5840   -4.3560 N   0  3  0  0  0  0
  -12.7550   12.3330   -4.6200 C   0  0  0  0  0  0
  -13.8830   12.2440   -3.9360 N   0  0  0  0  0  0
  -12.6200   13.2490   -5.5940 N   0  0  0  0  0  0
  -13.6170   14.0750   -6.0020 C   0  0  0  0  0  0
  -13.9210   14.1490   -7.3650 C   0  0  0  0  0  0
  -14.9490   14.9780   -7.8010 C   0  0  0  0  0  0
  -15.6630   15.7430   -6.8780 C   0  0  0  0  0  0
  -15.3670   15.6780   -5.5260 C   0  0  0  0  0  0
  -14.3370   14.8530   -5.0990 C   0  0  0  0  0  0
   -8.9294    8.6142   -2.6058 H   0  0  0  0  0  0
  -10.6592    8.1402   -2.7038 H   0  0  0  0  0  0
  -10.1193    9.3159   -1.4576 H   0  0  0  0  0  0
   -9.4146   10.4162   -4.0954 H   0  0  0  0  0  0
  -13.9858   11.4916   -3.1402 H   0  0  0  0  0  0
  -11.6566   13.3625   -6.1126 H   0  0  0  0  0  0
  -13.3535   13.5582   -8.0841 H   0  0  0  0  0  0
  -15.1964   15.0300   -8.8613 H   0  0  0  0  0  0
  -16.4620   16.3986   -7.2242 H   0  0  0  0  0  0
  -15.9362   16.2675   -4.8073 H   0  0  0  0  0  0
  -14.0870   14.8130   -4.0388 H   0  0  0  0  0  0
  -10.8948   11.8657   -5.0795 H   0  0  0  0  0  0
  1  2  1  0  0  0
  1 15  1  0  0  0
  1 16  1  0  0  0
  1 17  1  0  0  0
  2  3  1  0  0  0
  2 18  1  0  0  0
  3  4  2  0  0  0
  3  5  1  0  0  0
  5  6  1  0  0  0
  5 26  1  0  0  0
  6  7  2  0  0  0
  6  8  1  0  0  0
  7 19  1  0  0  0
  8  9  1  0  0  0
  8 20  1  0  0  0
  9 10  2  0  0  0
  9 14  1  0  0  0
 10 11  1  0  0  0
 10 21  1  0  0  0
 11 12  2  0  0  0
 11 22  1  0  0  0
 12 13  1  0  0  0
 12 23  1  0  0  0
 13 14  2  0  0  0
 13 24  1  0  0  0
 14 25  1  0  0  0
M  CHG  1   5   1
M  END
> <s_m_source_file>
../2xvn_ligand.sdf

> <i_m_source_file_index>
1

> <s_epik_input>
W0NIM11bTkhdQyg9TylbTkhdL0MoPU5cW0hdKVtOSF1jMVtjSF1bY0hdW2NIXVtjSF1bY0hdMQ==

> <s_epik_cmdline>
J2VwaWtfYXBwJywgJy1pbWFlJywgJ2xpZ2FuZF9wcm8ubWFlJywgJy1vbWFlJywgJ2xpZ2FuZF9wcmVwLm1hZScsICctbXMnLCAnMScsICctcGgnLCAnNycsICctcGh0JywgJzAuNScsICctbnQn

> <r_epik_Ionization_Penalty>
  0.0000

> <r_epik_Ionization_Penalty_Charging>
  0.0000

> <r_epik_Ionization_Penalty_Neutral>
  0.0000

> <r_epik_State_Penalty>
  0.0163

> <r_epik_Charging_Adjusted_Penalty>
0.0163495043048985

> <i_epik_Tot_Q>
1

> <i_epik_Tot_abs_Q>
1

> <s_epik_Chemistry_Notes>
This compound has an imine and may undergo hydrolysis.

$$$$
