2xwd_ligand
                    3D
 Schrodinger Suite 2020-3.
 33 34  0  0  1  0            999 V2000
  -35.5990  -14.5230   -3.1630 O   0  0  0  0  0  0
  -35.7690  -15.4030   -2.0630 C   0  0  2  0  0  0
  -34.4190  -15.7930   -1.4300 C   0  0  1  0  0  0
  -33.6810  -14.5470   -0.9130 C   0  0  0  0  0  0
  -33.0940  -14.9750    0.3230 O   0  0  0  0  0  0
  -36.4540  -16.6330   -2.5690 C   0  0  2  0  0  0
  -37.6410  -16.2740   -3.2520 O   0  0  0  0  0  0
  -36.7950  -17.5500   -1.4040 C   0  0  1  0  0  0
  -37.0800  -18.8270   -1.9970 O   0  0  0  0  0  0
  -35.7010  -17.6380   -0.2720 C   0  0  2  0  0  0
  -36.3080  -17.5200    1.0060 O   0  0  0  0  0  0
  -34.7010  -16.5720   -0.2170 N   0  0  0  0  0  0
  -33.9200  -15.9770    0.8290 C   0  0  0  0  0  0
  -33.8430  -16.2680    2.1460 N   0  3  0  0  0  0
  -34.5410  -17.2910    2.9730 C   0  0  0  0  0  0
  -34.4090  -16.9980    4.5290 C   0  0  0  0  0  0
  -35.1117  -13.5477   -3.0169 H   0  0  0  0  0  0
  -36.3894  -14.8531   -1.3400 H   0  0  0  0  0  0
  -33.8246  -16.3628   -2.1594 H   0  0  0  0  0  0
  -32.9212  -14.2401   -1.6468 H   0  0  0  0  0  0
  -34.4012  -13.7285   -0.7668 H   0  0  0  0  0  0
  -35.8199  -17.1385   -3.3122 H   0  0  0  0  0  0
  -37.5922  -15.6110   -4.1283 H   0  0  0  0  0  0
  -37.7091  -17.1939   -0.9064 H   0  0  0  0  0  0
  -37.8264  -18.9057   -2.8012 H   0  0  0  0  0  0
  -35.1751  -18.5923   -0.4228 H   0  0  0  0  0  0
  -37.1254  -18.1986    1.2914 H   0  0  0  0  0  0
  -35.6108  -17.3016    2.7172 H   0  0  0  0  0  0
  -34.1067  -18.2819    2.7742 H   0  0  0  0  0  0
  -34.9389  -17.7781    5.0952 H   0  0  0  0  0  0
  -34.8505  -16.0164    4.7560 H   0  0  0  0  0  0
  -33.3463  -16.9966    4.8130 H   0  0  0  0  0  0
  -33.1674  -15.6942    2.7975 H   0  0  0  0  0  0
  1  2  1  0  0  0
  1 17  1  0  0  0
  2  3  1  0  0  0
  2  6  1  0  0  0
  2 18  1  0  0  0
  3  4  1  0  0  0
  3 12  1  0  0  0
  3 19  1  0  0  0
  4  5  1  0  0  0
  4 20  1  0  0  0
  4 21  1  0  0  0
  5 13  1  0  0  0
  6  7  1  0  0  0
  6  8  1  0  0  0
  6 22  1  0  0  0
  7 23  1  0  0  0
  8  9  1  0  0  0
  8 10  1  0  0  0
  8 24  1  0  0  0
  9 25  1  0  0  0
 10 11  1  0  0  0
 10 12  1  0  0  0
 10 26  1  0  0  0
 11 27  1  0  0  0
 12 13  1  0  0  0
 13 14  2  0  0  0
 14 15  1  0  0  0
 14 33  1  0  0  0
 15 16  1  0  0  0
 15 28  1  0  0  0
 15 29  1  0  0  0
 16 30  1  0  0  0
 16 31  1  0  0  0
 16 32  1  0  0  0
M  CHG  1  14   1
M  END
> <s_m_source_file>
../2xwd_ligand.sdf

> <i_m_source_file_index>
1

> <s_epik_input>
W09IXVtDQEhdMVtDQEhdKFtPSF0pW0NAQEhdKFtPSF0pW0NASF0oW09IXSlOKFtDQEBIXTEyKUMoXE9bQ0gyXTIpPU4vW0NIMl1bQ0gzXQ==

> <s_epik_cmdline>
J2VwaWtfYXBwJywgJy1pbWFlJywgJ2xpZ2FuZF9wcm8ubWFlJywgJy1vbWFlJywgJ2xpZ2FuZF9wcmVwLm1hZScsICctbXMnLCAnMScsICctcGgnLCAnNycsICctcGh0JywgJzAuNScsICctbnQn

> <r_lp_tautomer_probability>
1

> <r_epik_Ionization_Penalty>
  0.0052

> <r_epik_Ionization_Penalty_Charging>
  0.0009

> <r_epik_Ionization_Penalty_Neutral>
  0.0043

> <r_epik_State_Penalty>
 -0.0000

> <r_epik_Charging_Adjusted_Penalty>
0.000889550659540893

> <i_epik_Tot_Q>
1

> <i_epik_Tot_abs_Q>
1

> <s_epik_Chemistry_Notes>
This compound has an imine and may undergo hydrolysis. This compound contains an acetal/aminal-like group ( X-CH(R)-Y where X, Y are N, S, or O) that may be acid/base labile, releasing an aldehyde.

$$$$
