2xwe_ligand
                    3D
 Schrodinger Suite 2020-3.
 51 52  0  0  1  0            999 V2000
  -35.7090  -14.5450   -2.9030 O   0  0  0  0  0  0
  -35.9380  -15.5770   -1.9090 C   0  0  2  0  0  0
  -34.6250  -16.0380   -1.3540 C   0  0  1  0  0  0
  -33.8070  -14.7370   -1.1140 C   0  0  0  0  0  0
  -33.0480  -15.0630    0.4950 S   0  0  0  0  0  0
  -36.6470  -16.7810   -2.4550 C   0  0  2  0  0  0
  -37.8770  -16.3460   -2.9790 O   0  0  0  0  0  0
  -37.0060  -17.7410   -1.2990 C   0  0  1  0  0  0
  -37.2050  -19.0260   -1.8390 O   0  0  0  0  0  0
  -35.9760  -17.8110   -0.1170 C   0  0  2  0  0  0
  -36.7490  -17.4980    1.0430 O   0  0  0  0  0  0
  -34.9210  -16.7770   -0.0770 N   0  0  0  0  0  0
  -34.1510  -16.2930    1.0180 C   0  0  0  0  0  0
  -34.2080  -16.7110    2.2500 N   0  3  0  0  0  0
  -35.2200  -17.7910    2.4530 C   0  0  0  0  0  0
  -35.1160  -18.5980    3.7350 C   0  0  0  0  0  0
  -35.5690  -17.7350    4.9240 C   0  0  0  0  0  0
  -34.3570  -17.1070    5.6440 C   0  0  0  0  0  0
  -34.4900  -17.2600    7.1850 C   0  0  0  0  0  0
  -35.8200  -16.6500    7.6880 C   0  0  0  0  0  0
  -36.6410  -17.5950    8.5840 C   0  0  0  0  0  0
  -37.8910  -16.8470    9.0920 C   0  0  0  0  0  0
  -35.1967  -13.6134   -2.6207 H   0  0  0  0  0  0
  -36.5757  -15.0924   -1.1550 H   0  0  0  0  0  0
  -34.0851  -16.7362   -2.0106 H   0  0  0  0  0  0
  -33.0702  -14.6130   -1.9213 H   0  0  0  0  0  0
  -34.4875  -13.8728   -1.1028 H   0  0  0  0  0  0
  -36.0493  -17.2422   -3.2551 H   0  0  0  0  0  0
  -37.8967  -15.6434   -3.8251 H   0  0  0  0  0  0
  -37.9720  -17.4204   -0.8818 H   0  0  0  0  0  0
  -37.8990  -19.1675   -2.6807 H   0  0  0  0  0  0
  -35.4625  -18.7837   -0.1294 H   0  0  0  0  0  0
  -37.6311  -18.1045    1.2962 H   0  0  0  0  0  0
  -36.2285  -17.3518    2.4601 H   0  0  0  0  0  0
  -35.1445  -18.5227    1.6351 H   0  0  0  0  0  0
  -35.7595  -19.4871    3.6618 H   0  0  0  0  0  0
  -34.0728  -18.9120    3.8870 H   0  0  0  0  0  0
  -36.2225  -16.9272    4.5628 H   0  0  0  0  0  0
  -36.1209  -18.3600    5.6415 H   0  0  0  0  0  0
  -33.4350  -17.6095    5.3162 H   0  0  0  0  0  0
  -34.2985  -16.0365    5.3978 H   0  0  0  0  0  0
  -34.4678  -18.3272    7.4508 H   0  0  0  0  0  0
  -33.6545  -16.7418    7.6784 H   0  0  0  0  0  0
  -35.6088  -15.7452    8.2769 H   0  0  0  0  0  0
  -36.4520  -16.3877    6.8267 H   0  0  0  0  0  0
  -36.9477  -18.4771    8.0027 H   0  0  0  0  0  0
  -36.0274  -17.9147    9.4391 H   0  0  0  0  0  0
  -38.4833  -17.5162    9.7334 H   0  0  0  0  0  0
  -38.5006  -16.5270    8.2341 H   0  0  0  0  0  0
  -37.5803  -15.9646    9.6706 H   0  0  0  0  0  0
  -33.5488  -16.2692    3.0118 H   0  0  0  0  0  0
  1  2  1  0  0  0
  1 23  1  0  0  0
  2  3  1  0  0  0
  2  6  1  0  0  0
  2 24  1  0  0  0
  3  4  1  0  0  0
  3 12  1  0  0  0
  3 25  1  0  0  0
  4  5  1  0  0  0
  4 26  1  0  0  0
  4 27  1  0  0  0
  5 13  1  0  0  0
  6  7  1  0  0  0
  6  8  1  0  0  0
  6 28  1  0  0  0
  7 29  1  0  0  0
  8  9  1  0  0  0
  8 10  1  0  0  0
  8 30  1  0  0  0
  9 31  1  0  0  0
 10 11  1  0  0  0
 10 12  1  0  0  0
 10 32  1  0  0  0
 11 33  1  0  0  0
 12 13  1  0  0  0
 13 14  2  0  0  0
 14 15  1  0  0  0
 14 51  1  0  0  0
 15 16  1  0  0  0
 15 34  1  0  0  0
 15 35  1  0  0  0
 16 17  1  0  0  0
 16 36  1  0  0  0
 16 37  1  0  0  0
 17 18  1  0  0  0
 17 38  1  0  0  0
 17 39  1  0  0  0
 18 19  1  0  0  0
 18 40  1  0  0  0
 18 41  1  0  0  0
 19 20  1  0  0  0
 19 42  1  0  0  0
 19 43  1  0  0  0
 20 21  1  0  0  0
 20 44  1  0  0  0
 20 45  1  0  0  0
 21 22  1  0  0  0
 21 46  1  0  0  0
 21 47  1  0  0  0
 22 48  1  0  0  0
 22 49  1  0  0  0
 22 50  1  0  0  0
M  CHG  1  14   1
M  END
> <s_m_source_file>
../2xwe_ligand.sdf

> <i_m_source_file_index>
1

> <s_epik_input>
W09IXVtDQEhdMVtDQEhdKFtPSF0pW0NAQEhdKFtPSF0pW0NASF0oW09IXSlOKFtDQEBIXTEyKUMoXFNbQ0gyXTIpPU4vW0NIMl1bQ0gyXVtDSDJdW0NIMl1bQ0gyXVtDSDJdW0NIMl1bQ0gzXQ==

> <s_epik_cmdline>
J2VwaWtfYXBwJywgJy1pbWFlJywgJ2xpZ2FuZF9wcm8ubWFlJywgJy1vbWFlJywgJ2xpZ2FuZF9wcmVwLm1hZScsICctbXMnLCAnMScsICctcGgnLCAnNycsICctcGh0JywgJzAuNScsICctbnQn

> <r_epik_Ionization_Penalty>
  0.0219

> <r_epik_Ionization_Penalty_Charging>
  0.0154

> <r_epik_Ionization_Penalty_Neutral>
  0.0065

> <r_epik_State_Penalty>
  0.0121

> <r_epik_Charging_Adjusted_Penalty>
0.0275014901317276

> <i_epik_Tot_Q>
1

> <i_epik_Tot_abs_Q>
1

> <s_epik_Chemistry_Notes>
This compound has an imine and may undergo hydrolysis. This compound contains an acetal/aminal-like group ( X-CH(R)-Y where X, Y are N, S, or O) that may be acid/base labile, releasing an aldehyde.

$$$$
