2xwy_ligand
                    3D
 Schrodinger Suite 2020-3.
 72 76  0  0  1  0            999 V2000
   24.6520   11.7910    4.9500 C   0  0  0  0  0  0
   26.5410    9.3280    2.7130 C   0  0  0  0  0  0
   25.3650    9.9750    3.3750 N   0  0  1  0  0  0
   24.3790    8.9850    3.8790 C   0  0  0  0  0  0
   28.0670    7.2680    0.9840 C   0  0  0  0  0  0
   27.2640    8.4020    0.4740 N   0  3  0  0  0  0
   26.7190    7.9990   -0.8460 C   0  0  0  0  0  0
   26.6190   10.3770    5.6100 C   0  0  0  0  0  0
   27.7700   11.2370    6.0080 N   0  0  0  0  0  0
   29.0320   11.1310    5.5800 C   0  0  0  0  0  0
   29.5840   10.2500    4.6710 C   0  0  0  0  0  0
   30.9370   10.3350    4.3650 C   0  0  0  0  0  0
   31.4890    9.3250    3.3770 C   0  0  0  0  0  0
   30.6700    8.8780    2.5180 O   0  5  0  0  0  0
   32.6890    8.9600    3.5520 O   0  0  0  0  0  0
   31.7660   11.2870    4.9650 C   0  0  0  0  0  0
   31.2070   12.1890    5.8740 C   0  0  0  0  0  0
   29.8410   12.1040    6.1730 C   0  0  0  0  0  0
   28.9950   12.8170    7.0050 C   0  0  0  0  0  0
   29.4100   14.0030    7.9220 C   0  0  0  0  0  0
   30.6340   13.5840    8.7730 C   0  0  0  0  0  0
   31.2030   14.7380    9.6350 C   0  0  0  0  0  0
   31.6230   15.8920    8.7230 C   0  0  0  0  0  0
   30.3790   16.3970    7.9670 C   0  0  0  0  0  0
   25.8250   10.9570    4.4170 C   0  0  2  0  0  0
   29.7350   15.2860    7.1160 C   0  0  0  0  0  0
   27.7110   12.2740    6.8930 C   0  0  0  0  0  0
   26.5510   12.6660    7.5480 C   0  0  0  0  0  0
   26.5690   12.7330    8.9360 C   0  0  0  0  0  0
   25.4380   13.1380    9.6380 C   0  0  0  0  0  0
   24.2760   13.4820    8.9530 C   0  0  0  0  0  0
   24.2490   13.4310    7.5590 C   0  0  0  0  0  0
   25.3940   13.0290    6.8590 C   0  0  0  0  0  0
   25.3490   12.9870    5.4880 O   0  0  0  0  0  0
   26.1190    8.7440    1.3550 C   0  0  0  0  0  0
   23.9643   12.0261    4.1243 H   0  0  0  0  0  0
   24.1162   11.2190    5.7218 H   0  0  0  0  0  0
   27.3316   10.0767    2.5567 H   0  0  0  0  0  0
   26.9232    8.5194    3.3533 H   0  0  0  0  0  0
   24.0923    8.3051    3.0632 H   0  0  0  0  0  0
   23.4866    9.5116    4.2482 H   0  0  0  0  0  0
   24.8280    8.4051    4.6988 H   0  0  0  0  0  0
   28.8961    7.0646    0.2903 H   0  0  0  0  0  0
   27.4298    6.3751    1.0658 H   0  0  0  0  0  0
   28.4718    7.5217    1.9749 H   0  0  0  0  0  0
   27.9189    9.2843    0.4216 H   0  0  0  0  0  0
   27.5478    7.7393   -1.5211 H   0  0  0  0  0  0
   26.1439    8.8327   -1.2752 H   0  0  0  0  0  0
   26.0613    7.1263   -0.7202 H   0  0  0  0  0  0
   26.9880    9.3829    5.3175 H   0  0  0  0  0  0
   25.9262   10.2759    6.4584 H   0  0  0  0  0  0
   28.9616    9.4917    4.1959 H   0  0  0  0  0  0
   32.8293   11.3251    4.7281 H   0  0  0  0  0  0
   31.8274   12.9510    6.3457 H   0  0  0  0  0  0
   28.5593   14.2446    8.5762 H   0  0  0  0  0  0
   30.3450   12.7713    9.4557 H   0  0  0  0  0  0
   31.4400   13.2367    8.1099 H   0  0  0  0  0  0
   30.4311   15.0862   10.3371 H   0  0  0  0  0  0
   32.0762   14.3783   10.1990 H   0  0  0  0  0  0
   32.0475   16.7043    9.3313 H   0  0  0  0  0  0
   32.3786   15.5370    8.0067 H   0  0  0  0  0  0
   29.6311   16.7551    8.6897 H   0  0  0  0  0  0
   30.6662   17.2213    7.2977 H   0  0  0  0  0  0
   26.5325   11.5709    3.8402 H   0  0  0  0  0  0
   30.4376   15.0418    6.3056 H   0  0  0  0  0  0
   28.8080   15.6942    6.6870 H   0  0  0  0  0  0
   27.4759   12.4663    9.4787 H   0  0  0  0  0  0
   25.4619   13.1860   10.7267 H   0  0  0  0  0  0
   23.3883   13.7908    9.5050 H   0  0  0  0  0  0
   23.3425   13.7023    7.0179 H   0  0  0  0  0  0
   25.5414    7.8218    1.5160 H   0  0  0  0  0  0
   25.4984    9.4763    0.8178 H   0  0  0  0  0  0
  1 25  1  0  0  0
  1 34  1  0  0  0
  1 36  1  0  0  0
  1 37  1  0  0  0
  2  3  1  0  0  0
  2 35  1  0  0  0
  2 38  1  0  0  0
  2 39  1  0  0  0
  3  4  1  0  0  0
  3 25  1  0  0  0
  4 40  1  0  0  0
  4 41  1  0  0  0
  4 42  1  0  0  0
  5  6  1  0  0  0
  5 43  1  0  0  0
  5 44  1  0  0  0
  5 45  1  0  0  0
  6  7  1  0  0  0
  6 35  1  0  0  0
  6 46  1  0  0  0
  7 47  1  0  0  0
  7 48  1  0  0  0
  7 49  1  0  0  0
  8  9  1  0  0  0
  8 25  1  0  0  0
  8 50  1  0  0  0
  8 51  1  0  0  0
  9 10  1  0  0  0
  9 27  1  0  0  0
 10 11  1  0  0  0
 10 18  2  0  0  0
 11 12  2  0  0  0
 11 52  1  0  0  0
 12 13  1  0  0  0
 12 16  1  0  0  0
 13 14  1  0  0  0
 13 15  2  0  0  0
 16 17  2  0  0  0
 16 53  1  0  0  0
 17 18  1  0  0  0
 17 54  1  0  0  0
 18 19  1  0  0  0
 19 20  1  0  0  0
 19 27  2  0  0  0
 20 21  1  0  0  0
 20 26  1  0  0  0
 20 55  1  0  0  0
 21 22  1  0  0  0
 21 56  1  0  0  0
 21 57  1  0  0  0
 22 23  1  0  0  0
 22 58  1  0  0  0
 22 59  1  0  0  0
 23 24  1  0  0  0
 23 60  1  0  0  0
 23 61  1  0  0  0
 24 26  1  0  0  0
 24 62  1  0  0  0
 24 63  1  0  0  0
 25 64  1  0  0  0
 26 65  1  0  0  0
 26 66  1  0  0  0
 27 28  1  0  0  0
 28 29  2  0  0  0
 28 33  1  0  0  0
 29 30  1  0  0  0
 29 67  1  0  0  0
 30 31  2  0  0  0
 30 68  1  0  0  0
 31 32  1  0  0  0
 31 69  1  0  0  0
 32 33  2  0  0  0
 32 70  1  0  0  0
 33 34  1  0  0  0
 35 71  1  0  0  0
 35 72  1  0  0  0
M  CHG  2   6   1  14  -1
M  END
> <s_m_source_file>
../2xwy_ligand.sdf

> <i_m_source_file_index>
1

> <s_epik_input>
W0NIM11bTkgrXShbQ0gzXSlbQ0gyXVtDSDJdW05AQEgrXShbQ0gzXSlbQ0BIXShbQ0gyXTEpW0NIMl1PYyhbY0hdW2NIXVtjSF1bY0hdMiljMmMzYyhjKGM0bjEzKVtjSF1bY0hdYyhbY0hdNClDKD1PKVtPSF0pW0NIXTVbQ0gyXVtDSDJdW0NIMl1bQ0gyXVtDSDJdNQ==

> <s_epik_cmdline>
J2VwaWtfYXBwJywgJy1pbWFlJywgJ2xpZ2FuZF9wcm8ubWFlJywgJy1vbWFlJywgJ2xpZ2FuZF9wcmVwLm1hZScsICctbXMnLCAnMScsICctcGgnLCAnNycsICctcGh0JywgJzAuNScsICctbnQn

> <r_lp_tautomer_probability>
1

> <r_epik_Ionization_Penalty>
  0.0131

> <r_epik_Ionization_Penalty_Charging>
  0.0126

> <r_epik_Ionization_Penalty_Neutral>
  0.0005

> <r_epik_State_Penalty>
 -0.0000

> <r_epik_Charging_Adjusted_Penalty>
0.0125720941615117

> <i_epik_Tot_Q>
0

> <i_epik_Tot_abs_Q>
2

$$$$
