2xx2_ligand
                    3D
 Schrodinger Suite 2020-3.
 45 46  0  0  1  0            999 V2000
   12.0590   15.1390    6.2820 C   0  0  0  0  0  0
   11.3010   15.8100    5.1330 C   0  0  0  0  0  0
   11.1010   17.1880    5.1920 C   0  0  0  0  0  0
   10.4330   17.8550    4.1680 C   0  0  0  0  0  0
    9.9590   17.1010    3.0910 C   0  0  0  0  0  0
   10.1630   15.7260    3.0370 C   0  0  0  0  0  0
   10.8330   15.0680    4.0560 C   0  0  0  0  0  0
   11.0300   13.5430    3.9620 C   0  0  0  0  0  0
    9.7690   12.6610    4.0870 C   0  0  0  0  0  0
    9.8710   11.1480    3.8670 C   0  0  0  0  0  0
    9.9940   10.4700    5.2490 C   0  0  0  0  0  0
    8.6040   10.4170    5.9120 C   0  0  0  0  0  0
    8.7750   10.3980    7.4420 C   0  0  0  0  0  0
    9.3350   11.7410    7.9450 C   0  0  0  0  0  0
   10.6830   11.8000    8.5260 C   0  0  0  0  0  0
   11.1370   13.0330    9.3340 C   0  0  0  0  0  0
   12.0720   13.9120    8.4790 C   0  0  0  0  0  0
   13.2480   15.2980    6.3700 O   0  0  0  0  0  0
   11.6070   17.8900    6.3150 O   0  0  0  0  0  0
    9.2670   17.7310    2.0230 O   0  0  0  0  0  0
    9.5770   14.8320    1.6510 Cl  0  0  0  0  0  0
   11.3500   14.3310    7.2690 N   0  0  0  0  0  0
    8.7090   13.1460    4.3860 O   0  0  0  0  0  0
   10.2842   18.9341    4.2055 H   0  0  0  0  0  0
   11.4707   13.2897    2.9865 H   0  0  0  0  0  0
   11.7029   13.2099    4.7659 H   0  0  0  0  0  0
    8.9688   10.7912    3.3486 H   0  0  0  0  0  0
   10.7576   10.9254    3.2552 H   0  0  0  0  0  0
   10.3824    9.4486    5.1230 H   0  0  0  0  0  0
   10.6831   11.0489    5.8814 H   0  0  0  0  0  0
    8.0226   11.3026    5.6159 H   0  0  0  0  0  0
    8.0774    9.5074    5.5875 H   0  0  0  0  0  0
    7.7994   10.2196    7.9178 H   0  0  0  0  0  0
    9.4723    9.5950    7.7231 H   0  0  0  0  0  0
    9.3717   12.4581    7.1117 H   0  0  0  0  0  0
    8.6843   12.1351    8.7395 H   0  0  0  0  0  0
   10.8157   10.9652    9.2299 H   0  0  0  0  0  0
   11.4317   11.7255    7.7236 H   0  0  0  0  0  0
   10.2565   13.6229    9.6285 H   0  0  0  0  0  0
   11.6754   12.7032   10.2347 H   0  0  0  0  0  0
   12.3747   14.7967    9.0583 H   0  0  0  0  0  0
   12.9649   13.3336    8.1995 H   0  0  0  0  0  0
   12.1318   17.3451    7.1135 H   0  0  0  0  0  0
    9.0942   18.8171    2.0444 H   0  0  0  0  0  0
   10.3005   14.0350    7.1246 H   0  0  0  0  0  0
  1  2  1  0  0  0
  1 18  2  0  0  0
  1 22  1  0  0  0
  2  3  2  0  0  0
  2  7  1  0  0  0
  3  4  1  0  0  0
  3 19  1  0  0  0
  4  5  2  0  0  0
  4 24  1  0  0  0
  5  6  1  0  0  0
  5 20  1  0  0  0
  6  7  2  0  0  0
  6 21  1  0  0  0
  7  8  1  0  0  0
  8  9  1  0  0  0
  8 25  1  0  0  0
  8 26  1  0  0  0
  9 10  1  0  0  0
  9 23  2  0  0  0
 10 11  1  0  0  0
 10 27  1  0  0  0
 10 28  1  0  0  0
 11 12  1  0  0  0
 11 29  1  0  0  0
 11 30  1  0  0  0
 12 13  1  0  0  0
 12 31  1  0  0  0
 12 32  1  0  0  0
 13 14  1  0  0  0
 13 33  1  0  0  0
 13 34  1  0  0  0
 14 15  1  0  0  0
 14 35  1  0  0  0
 14 36  1  0  0  0
 15 16  1  0  0  0
 15 37  1  0  0  0
 15 38  1  0  0  0
 16 17  1  0  0  0
 16 39  1  0  0  0
 16 40  1  0  0  0
 17 22  1  0  0  0
 17 41  1  0  0  0
 17 42  1  0  0  0
 19 43  1  0  0  0
 20 44  1  0  0  0
 22 45  1  0  0  0
M  END
> <s_m_source_file>
../2xx2_ligand.sdf

> <i_m_source_file_index>
1

> <s_epik_input>
Tz1DMVtOSF1bQ0gyXVtDSDJdW0NIMl1bQ0gyXVtDSDJdW0NIMl1bQ0gyXVtDSDJdQyg9TylbQ0gyXWMoYzEyKWMoQ2wpYyhbT0hdKVtjSF1jMltPSF0=

> <s_epik_cmdline>
J2VwaWtfYXBwJywgJy1pbWFlJywgJ2xpZ2FuZF9wcm8ubWFlJywgJy1vbWFlJywgJ2xpZ2FuZF9wcmVwLm1hZScsICctbXMnLCAnMScsICctcGgnLCAnNycsICctcGh0JywgJzAuNScsICctbnQn

> <r_lp_tautomer_probability>
0.999999979898

> <r_epik_Ionization_Penalty>
  0.3112

> <r_epik_Ionization_Penalty_Charging>
  0.0000

> <r_epik_Ionization_Penalty_Neutral>
  0.3112

> <r_epik_State_Penalty>
  0.2614

> <r_epik_Charging_Adjusted_Penalty>
0.261380285952635

> <i_epik_Tot_Q>
0

> <i_epik_Tot_abs_Q>
0

$$$$
