2xx4_ligand
                    3D
 Schrodinger Suite 2020-3.
 52 53  0  0  1  0            999 V2000
  -19.8690    4.6060   -4.6370 C   0  0  0  0  0  0
  -19.9290    5.5670   -3.5110 C   0  0  0  0  0  0
  -19.0490    5.3540   -2.3820 C   0  0  0  0  0  0
  -18.1010    4.1900   -2.3580 C   0  0  0  0  0  0
  -18.0410    3.2140   -3.4850 C   0  0  0  0  0  0
  -18.8970    3.4220   -4.6050 C   0  0  0  0  0  0
  -18.9320    2.4760   -5.7590 C   0  0  0  0  0  0
  -19.9260    1.7710   -5.9160 O   0  0  0  0  0  0
  -17.8310    2.4350   -6.6650 N   0  0  0  0  0  0
  -17.8690    1.6280   -7.8870 C   0  0  0  0  0  0
  -16.5480    1.5590   -8.6220 C   0  0  0  0  0  0
  -15.3470    1.1440   -7.8180 C   0  0  0  0  0  0
  -14.3570    2.0690   -7.4380 C   0  0  0  0  0  0
  -13.2240    1.6740   -6.4840 C   0  0  0  0  0  0
  -13.4270    0.4550   -5.6310 C   0  0  0  0  0  0
  -14.3810    0.5620   -4.4450 C   0  0  0  0  0  0
  -14.3050    1.8470   -3.6850 C   0  0  1  0  0  0
  -15.6050    2.6820   -3.6890 C   0  0  0  0  0  0
  -16.9860    2.1230   -3.4560 C   0  0  0  0  0  0
  -15.4790    3.8610   -3.9760 O   0  0  0  0  0  0
  -13.6250    1.8190   -2.3470 C   0  0  0  0  0  0
  -13.4100    2.9070   -1.7970 O   0  0  0  0  0  0
  -12.8610    0.8350   -2.0140 O   0  0  0  0  0  0
  -12.3450    0.8460   -0.6790 C   0  0  0  0  0  0
  -10.9580    1.3700   -0.4830 C   0  0  0  0  0  0
  -17.1330    3.9160   -0.9510 Cl  0  0  0  0  0  0
  -19.0420    6.2340   -1.3250 O   0  0  0  0  0  0
  -20.6540    4.7410   -5.7530 O   0  0  0  0  0  0
  -20.6175    6.4118   -3.5323 H   0  0  0  0  0  0
  -16.9371    3.0301   -6.4264 H   0  0  0  0  0  0
  -18.1545    0.5958   -7.6360 H   0  0  0  0  0  0
  -18.6060    2.0530   -8.5843 H   0  0  0  0  0  0
  -16.6229    0.8310   -9.4432 H   0  0  0  0  0  0
  -16.3042    2.5502   -9.0319 H   0  0  0  0  0  0
  -15.2533    0.0874   -7.5267 H   0  0  0  0  0  0
  -14.3870    3.0975   -7.8268 H   0  0  0  0  0  0
  -12.3103    1.4740   -7.0629 H   0  0  0  0  0  0
  -13.0374    2.4953   -5.7764 H   0  0  0  0  0  0
  -13.8289   -0.3618   -6.2485 H   0  0  0  0  0  0
  -12.4644    0.1468   -5.1968 H   0  0  0  0  0  0
  -15.4181    0.4670   -4.7990 H   0  0  0  0  0  0
  -14.1639   -0.2417   -3.7261 H   0  0  0  0  0  0
  -13.5551    2.3620   -4.3034 H   0  0  0  0  0  0
  -16.9991    1.6263   -2.4746 H   0  0  0  0  0  0
  -17.1998    1.3851   -4.2433 H   0  0  0  0  0  0
  -12.9869    1.4732   -0.0430 H   0  0  0  0  0  0
  -12.3281   -0.1805   -0.2839 H   0  0  0  0  0  0
  -10.6943    1.3196    0.5837 H   0  0  0  0  0  0
  -10.9092    2.4147   -0.8238 H   0  0  0  0  0  0
  -10.2504    0.7611   -1.0648 H   0  0  0  0  0  0
  -19.7277    7.0941   -1.3208 H   0  0  0  0  0  0
  -21.3684    5.5743   -5.8254 H   0  0  0  0  0  0
  1  2  2  0  0  0
  1  6  1  0  0  0
  1 28  1  0  0  0
  2  3  1  0  0  0
  2 29  1  0  0  0
  3  4  2  0  0  0
  3 27  1  0  0  0
  4  5  1  0  0  0
  4 26  1  0  0  0
  5  6  2  0  0  0
  5 19  1  0  0  0
  6  7  1  0  0  0
  7  8  2  0  0  0
  7  9  1  0  0  0
  9 10  1  0  0  0
  9 30  1  0  0  0
 10 11  1  0  0  0
 10 31  1  0  0  0
 10 32  1  0  0  0
 11 12  1  0  0  0
 11 33  1  0  0  0
 11 34  1  0  0  0
 12 13  2  0  0  0
 12 35  1  0  0  0
 13 14  1  0  0  0
 13 36  1  0  0  0
 14 15  1  0  0  0
 14 37  1  0  0  0
 14 38  1  0  0  0
 15 16  1  0  0  0
 15 39  1  0  0  0
 15 40  1  0  0  0
 16 17  1  0  0  0
 16 41  1  0  0  0
 16 42  1  0  0  0
 17 18  1  0  0  0
 17 21  1  0  0  0
 17 43  1  0  0  0
 18 19  1  0  0  0
 18 20  2  0  0  0
 19 44  1  0  0  0
 19 45  1  0  0  0
 21 22  2  0  0  0
 21 23  1  0  0  0
 23 24  1  0  0  0
 24 25  1  0  0  0
 24 46  1  0  0  0
 24 47  1  0  0  0
 25 48  1  0  0  0
 25 49  1  0  0  0
 25 50  1  0  0  0
 27 51  1  0  0  0
 28 52  1  0  0  0
M  END
> <s_m_source_file>
../2xx4_ligand.sdf

> <i_m_source_file_index>
1

> <s_epik_input>
Q2xjMWMoW09IXSlbY0hdYyhbT0hdKWMoYzEyKUMoPU8pW05IXVtDSDJdW0NIMl0vW0NIXT1bQ0hdL1tDSDJdW0NIMl1bQ0gyXVtDQEBIXShDKD1PKVtDSDJdMilDKD1PKU9bQ0gyXVtDSDNd

> <s_epik_cmdline>
J2VwaWtfYXBwJywgJy1pbWFlJywgJ2xpZ2FuZF9wcm8ubWFlJywgJy1vbWFlJywgJ2xpZ2FuZF9wcmVwLm1hZScsICctbXMnLCAnMScsICctcGgnLCAnNycsICctcGh0JywgJzAuNScsICctbnQn

> <r_lp_tautomer_probability>
0.999999979898

> <r_epik_Ionization_Penalty>
  0.3971

> <r_epik_Ionization_Penalty_Charging>
  0.0000

> <r_epik_Ionization_Penalty_Neutral>
  0.3971

> <r_epik_State_Penalty>
  0.3313

> <r_epik_Charging_Adjusted_Penalty>
0.331288032167342

> <i_epik_Tot_Q>
0

> <i_epik_Tot_abs_Q>
0

> <s_epik_Chemistry_Notes>
This compound has an ester and may undergo hydrolysis at high or low pH.

$$$$
