2xx5_ligand
                    3D
 Schrodinger Suite 2020-3.
 59 61  0  0  1  0            999 V2000
   16.6050   -2.2540    0.8200 C   0  0  0  0  0  0
   17.6050   -2.2590   -0.1120 C   0  0  0  0  0  0
   17.8120   -1.1660   -0.8690 C   0  0  0  0  0  0
   16.9960   -0.0780   -0.6970 C   0  0  0  0  0  0
   16.0070   -0.0570    0.2250 C   0  0  0  0  0  0
   15.8070   -1.1580    0.9970 C   0  0  0  0  0  0
   14.7040   -1.1930    2.0300 C   0  0  0  0  0  0
   15.0020   -0.2860    3.1120 N   0  0  0  0  0  0
   14.3790    0.8510    3.2770 C   0  0  0  0  0  0
   13.5700    1.3280    2.5090 O   0  0  0  0  0  0
   14.8350    1.5750    4.4840 C   0  0  2  0  0  0
   13.6580    2.2200    5.1590 C   0  0  0  0  0  0
   13.0300    1.2240    6.0900 C   0  0  0  0  0  0
   13.7560    1.1390    7.3880 C   0  0  0  0  0  0
   15.0880    0.8370    7.2490 C   0  0  0  0  0  0
   15.8760    1.0920    8.3410 C   0  0  0  0  0  0
   17.2200    0.8510    8.3490 C   0  0  0  0  0  0
   18.0240    2.0770    8.0500 C   0  0  0  0  0  0
   17.9180    2.4960    6.6810 N   0  0  0  0  0  0
   19.0970    2.6000    5.8580 C   0  0  0  0  0  0
   20.1000    1.9960    6.1090 O   0  0  0  0  0  0
   19.0540    3.5090    4.6700 C   0  0  0  0  0  0
   19.9340    4.5660    4.6850 C   0  0  0  0  0  0
   20.7070    4.7190    5.7280 O   0  5  0  0  0  0
   19.9680    5.4340    3.6420 C   0  0  0  0  0  0
   19.1350    5.2350    2.5920 C   0  0  0  0  0  0
   19.1700    6.0630    1.5840 O   0  0  0  0  0  0
   18.2700    4.1600    2.5740 C   0  0  3  0  0  0
   17.2650    3.9730    1.2310 Cl  0  0  0  0  0  0
   18.2160    3.2790    3.6210 C   0  0  0  0  0  0
   17.2540    2.1120    3.6260 C   0  0  0  0  0  0
   15.8430    2.5820    4.0040 C   0  0  0  0  0  0
   15.5030    3.7240    3.8830 O   0  0  0  0  0  0
   16.4408   -3.1400    1.4333 H   0  0  0  0  0  0
   18.2304   -3.1423   -0.2410 H   0  0  0  0  0  0
   18.6146   -1.1460   -1.6062 H   0  0  0  0  0  0
   17.1495    0.7998   -1.3246 H   0  0  0  0  0  0
   15.3812    0.8271    0.3471 H   0  0  0  0  0  0
   13.7542   -0.8943    1.5624 H   0  0  0  0  0  0
   14.6102   -2.2127    2.4318 H   0  0  0  0  0  0
   15.7836   -0.5400    3.8431 H   0  0  0  0  0  0
   15.2907    0.8984    5.2219 H   0  0  0  0  0  0
   13.9973    3.0990    5.7267 H   0  0  0  0  0  0
   12.9265    2.5338    4.3998 H   0  0  0  0  0  0
   11.9907    1.5196    6.2963 H   0  0  0  0  0  0
   13.0422    0.2278    5.6237 H   0  0  0  0  0  0
   13.3282    1.2915    8.3899 H   0  0  0  0  0  0
   15.4610    0.4174    6.3031 H   0  0  0  0  0  0
   15.8225    2.1621    8.5898 H   0  0  0  0  0  0
   15.5206    0.4985    9.1963 H   0  0  0  0  0  0
   17.5205    0.4827    9.3410 H   0  0  0  0  0  0
   17.4613    0.0940    7.5882 H   0  0  0  0  0  0
   17.6754    2.9072    8.6818 H   0  0  0  0  0  0
   19.0859    1.8789    8.2579 H   0  0  0  0  0  0
   16.9335    2.7396    6.2550 H   0  0  0  0  0  0
   20.6652    6.2847    3.6569 H   0  0  0  0  0  0
   17.4993    4.7719    3.0655 H   0  0  0  0  0  0
   17.2235    1.6577    2.6247 H   0  0  0  0  0  0
   17.5898    1.3631    4.3583 H   0  0  0  0  0  0
  1  2  2  0  0  0
  1  6  1  0  0  0
  1 34  1  0  0  0
  2  3  1  0  0  0
  2 35  1  0  0  0
  3  4  2  0  0  0
  3 36  1  0  0  0
  4  5  1  0  0  0
  4 37  1  0  0  0
  5  6  2  0  0  0
  5 38  1  0  0  0
  6  7  1  0  0  0
  7  8  1  0  0  0
  7 39  1  0  0  0
  7 40  1  0  0  0
  8  9  1  0  0  0
  8 41  1  0  0  0
  9 10  2  0  0  0
  9 11  1  0  0  0
 11 12  1  0  0  0
 11 32  1  0  0  0
 11 42  1  0  0  0
 12 13  1  0  0  0
 12 43  1  0  0  0
 12 44  1  0  0  0
 13 14  1  0  0  0
 13 45  1  0  0  0
 13 46  1  0  0  0
 14 15  2  0  0  0
 14 47  1  0  0  0
 15 16  1  0  0  0
 15 48  1  0  0  0
 16 17  1  0  0  0
 16 49  1  0  0  0
 16 50  1  0  0  0
 17 18  1  0  0  0
 17 51  1  0  0  0
 17 52  1  0  0  0
 18 19  1  0  0  0
 18 53  1  0  0  0
 18 54  1  0  0  0
 19 20  1  0  0  0
 19 55  1  0  0  0
 20 21  2  0  0  0
 20 22  1  0  0  0
 22 23  1  0  0  0
 22 30  2  0  0  0
 23 24  1  0  0  0
 23 25  2  0  0  0
 25 26  1  0  0  0
 25 56  1  0  0  0
 26 27  2  0  0  0
 26 28  1  0  0  0
 28 29  1  0  0  0
 28 30  1  0  0  0
 28 57  1  0  0  0
 30 31  1  0  0  0
 31 32  1  0  0  0
 31 58  1  0  0  0
 31 59  1  0  0  0
 32 33  2  0  0  0
M  CHG  1  24  -1
M  END
> <s_m_source_file>
../2xx5_ligand.sdf

> <i_m_source_file_index>
1

> <s_epik_input>
W2NIXTFbY0hdW2NIXVtjSF1bY0hdYzFbQ0gyXVtOSF1DKD1PKVtDQEBIXShDKD1PKVtDSDJdQyg9QzIzKVtDSF0oQ2wpQyg9TylbQ0gyXUMzPU8pW0NIMl1bQ0gyXS9bQ0hdPVtDSF0vW0NIMl1bQ0gyXVtDSDJdW05IXUMyPU8=

> <s_epik_cmdline>
J2VwaWtfYXBwJywgJy1pbWFlJywgJ2xpZ2FuZF9wcm8ubWFlJywgJy1vbWFlJywgJ2xpZ2FuZF9wcmVwLm1hZScsICctbXMnLCAnMScsICctcGgnLCAnNycsICctcGh0JywgJzAuNScsICctbnQn

> <r_lp_tautomer_probability>
1

> <r_epik_Ionization_Penalty>
  0.0070

> <r_epik_Ionization_Penalty_Charging>
  0.0000

> <r_epik_Ionization_Penalty_Neutral>
  0.0070

> <r_epik_State_Penalty>
 -0.0000

> <r_epik_Charging_Adjusted_Penalty>
0

> <i_epik_Tot_Q>
-1

> <i_epik_Tot_abs_Q>
1

$$$$
