2xxn_ligand
                    3D
 Schrodinger Suite 2020-3.
210212  0  0  1  0            999 V2000
  -12.2180   -4.2550    8.7910 N   0  3  0  0  0  0
  -12.9590   -5.1510    9.6960 C   0  0  2  0  0  0
  -14.4650   -5.1020    9.4540 C   0  0  0  0  0  0
  -15.0570   -4.0270    9.4600 O   0  0  0  0  0  0
  -12.6670   -4.8000   11.1620 C   0  0  0  0  0  0
  -11.2940   -4.9240   11.4870 O   0  0  0  0  0  0
  -15.0540   -6.2830    9.2890 N   0  0  0  0  0  0
  -16.4900   -6.4390    9.0280 C   0  0  2  0  0  0
  -17.2830   -6.6590   10.3250 C   0  0  0  0  0  0
  -17.1930   -7.7290   10.9260 O   0  0  0  0  0  0
  -16.7230   -7.6260    8.0690 C   0  0  0  0  0  0
  -18.1790   -7.8540    7.8040 C   0  0  0  0  0  0
  -15.9690   -7.3900    6.7610 C   0  0  0  0  0  0
  -18.0490   -5.6520   10.7480 N   0  0  0  0  0  0
  -18.8370   -5.7750   11.9720 C   0  0  2  0  0  0
  -20.3360   -5.5400   11.8280 C   0  0  0  0  0  0
  -21.1020   -6.1150   12.5460 O   0  0  0  0  0  0
  -18.3040   -4.8510   13.0880 C   0  0  0  0  0  0
  -16.8270   -4.9500   13.4120 C   0  0  0  0  0  0
  -15.9240   -3.9380   13.3920 C   0  0  0  0  0  0
  -16.1150   -6.1030   13.8430 C   0  0  0  0  0  0
  -14.6930   -4.3890   13.7590 N   0  0  0  0  0  0
  -14.7790   -5.7220   14.0310 C   0  0  0  0  0  0
  -16.4660   -7.4330   14.0550 C   0  0  0  0  0  0
  -13.8020   -6.6110   14.4370 C   0  0  0  0  0  0
  -15.4870   -8.3110   14.4520 C   0  0  0  0  0  0
  -14.1800   -7.9010   14.6430 C   0  0  0  0  0  0
  -20.7430   -4.6520   10.9340 N   0  0  0  0  0  0
  -22.1730   -4.3240   10.8960 C   0  0  2  0  0  0
  -22.9960   -5.5430   10.4660 C   0  0  0  0  0  0
  -22.6880   -6.1730    9.4520 O   0  0  0  0  0  0
  -22.5190   -3.0540   10.0710 C   0  0  2  0  0  0
  -23.9890   -2.6860   10.3020 C   0  0  0  0  0  0
  -22.2300   -3.2480    8.5920 C   0  0  0  0  0  0
  -24.3440   -1.2900    9.9400 C   0  0  0  0  0  0
  -23.9980   -5.9190   11.2810 N   0  0  0  0  0  0
  -24.7860   -7.1060   10.9600 C   0  0  2  0  0  0
  -25.4240   -7.0910    9.5740 C   0  0  0  0  0  0
  -25.7440   -6.0230    9.0190 O   0  0  0  0  0  0
  -25.8630   -7.1100   12.0470 C   0  0  0  0  0  0
  -25.1880   -6.4430   13.2120 C   0  0  0  0  0  0
  -24.4020   -5.3330   12.5770 C   0  0  0  0  0  0
  -25.5970   -8.2900    9.0280 N   0  0  0  0  0  0
  -26.2670   -8.4790    7.7510 C   0  0  2  0  0  0
  -27.6150   -7.7370    7.7190 C   0  0  0  0  0  0
  -28.3540   -7.7220    8.7160 O   0  0  0  0  0  0
  -26.4380   -9.9940    7.4420 C   0  0  0  0  0  0
  -27.3760  -10.6800    8.4500 C   0  0  0  0  0  0
  -26.9230  -10.2090    6.0280 C   0  0  0  0  0  0
  -27.8790   -7.0820    6.5850 N   0  0  0  0  0  0
  -29.1610   -6.4230    6.2750 C   0  0  2  0  0  0
  -29.4980   -5.1270    7.0120 C   0  0  0  0  0  0
  -30.6170   -4.6250    6.8800 O   0  0  0  0  0  0
  -30.3420   -7.3970    6.3940 C   0  0  0  0  0  0
  -30.4050   -8.3930    5.2520 C   0  0  0  0  0  0
  -29.9240   -8.1310    4.1440 O   0  0  0  0  0  0
  -31.0220   -9.5390    5.5130 N   0  0  0  0  0  0
  -28.5580   -4.5750    7.7770 N   0  0  0  0  0  0
  -28.8430   -3.3230    8.4880 C   0  0  2  0  0  0
  -29.0890   -2.2050    7.4880 C   0  0  0  0  0  0
  -28.2000   -1.8500    6.7230 O   0  0  0  0  0  0
  -27.7100   -2.9520    9.4440 C   0  0  0  0  0  0
  -27.6630   -3.8260   10.6870 C   0  0  0  0  0  0
  -28.8240   -3.5550   11.6290 C   0  0  0  0  0  0
  -28.7710   -2.5390   12.3560 O   0  0  0  0  0  0
  -29.7790   -4.3650   11.6470 O   0  0  0  0  0  0
  -30.3120   -1.6840    7.4790 N   0  0  0  0  0  0
  -30.7070   -0.6560    6.5140 C   0  0  0  0  0  0
  -31.0440   -1.1660    5.1180 C   0  0  0  0  0  0
  -31.2220   -0.3610    4.1980 O   0  0  0  0  0  0
  -31.1290   -2.4890    4.9550 N   0  0  0  0  0  0
  -31.4010   -3.0980    3.6440 C   0  0  2  0  0  0
  -32.8890   -3.1280    3.3140 C   0  0  0  0  0  0
  -33.7390   -3.2300    4.2100 O   0  0  0  0  0  0
  -30.8110   -4.4990    3.5590 C   0  0  0  0  0  0
  -33.1880   -3.0600    2.0190 N   0  0  0  0  0  0
  -34.5570   -3.1270    1.5170 C   0  0  2  0  0  0
  -34.5200   -3.3790    0.0160 C   0  0  0  0  0  0
  -33.4410   -3.4070   -0.5880 O   0  0  0  0  0  0
  -35.2820   -1.8060    1.7780 C   0  0  0  0  0  0
  -34.7820   -0.7760    0.9350 O   0  0  0  0  0  0
  -35.6960   -3.5500   -0.5860 N   0  0  0  0  0  0
  -35.8200   -3.4810   -2.0420 C   0  0  2  0  0  0
  -35.6650   -2.0200   -2.4780 C   0  0  0  0  0  0
  -35.7400   -1.1020   -1.6540 O   0  0  0  0  0  0
  -37.1880   -3.9930   -2.5360 C   0  0  2  0  0  0
  -38.2270   -3.1610   -2.0030 O   0  0  0  0  0  0
  -37.4180   -5.4380   -2.1210 C   0  0  0  0  0  0
  -35.4590   -1.8000   -3.7700 N   0  0  0  0  0  0
  -35.3390   -0.4360   -4.2860 C   0  0  2  0  0  0
  -36.6910    0.2610   -4.4170 C   0  0  0  0  0  0
  -36.7570    1.4900   -4.4570 O   0  0  0  0  0  0
  -34.6320   -0.4320   -5.6390 C   0  0  0  0  0  0
  -35.4450   -1.0350   -6.6260 O   0  0  0  0  0  0
  -37.7580   -0.5270   -4.5010 N   0  0  0  0  0  0
  -39.0870    0.0090   -4.7950 C   0  0  0  0  0  0
  -39.3420    0.1770   -6.2860 C   0  0  0  0  0  0
  -40.4400    0.5680   -6.6910 O   0  0  0  0  0  0
  -38.3320   -0.1220   -7.1040 N   0  0  0  0  0  0
  -38.4420   -0.0270   -8.5640 C   0  0  2  0  0  0
  -39.2670   -1.1820   -9.1250 C   0  0  0  0  0  0
  -39.0440   -2.3450   -8.7780 O   0  0  0  0  0  0
  -37.0540   -0.0220   -9.2140 C   0  0  0  0  0  0
  -36.1470    1.1370   -8.8030 C   0  0  0  0  0  0
  -36.2150    2.5560   -9.9140 S   0  0  0  0  0  0
  -35.4530    1.8740  -11.3880 C   0  0  0  0  0  0
  -40.1871   -0.9451   -9.9526 O   0  0  0  0  0  0
  -12.4403   -4.5223    7.7474 H   0  0  0  0  0  0
  -11.1385   -4.3597    8.9743 H   0  0  0  0  0  0
  -12.5221   -3.2141    8.9757 H   0  0  0  0  0  0
  -12.5916   -6.1578    9.4482 H   0  0  0  0  0  0
  -12.9683   -3.7602   11.3571 H   0  0  0  0  0  0
  -13.2329   -5.4754   11.8205 H   0  0  0  0  0  0
  -10.9481   -4.7017   12.5073 H   0  0  0  0  0  0
  -14.4077   -7.1705    9.3568 H   0  0  0  0  0  0
  -16.8018   -5.4876    8.5724 H   0  0  0  0  0  0
  -16.3605   -8.5497    8.5436 H   0  0  0  0  0  0
  -18.7032   -8.0216    8.7564 H   0  0  0  0  0  0
  -18.3004   -8.7363    7.1584 H   0  0  0  0  0  0
  -18.6030   -6.9716    7.3024 H   0  0  0  0  0  0
  -14.9031   -7.2249    6.9769 H   0  0  0  0  0  0
  -16.3819   -6.5052    6.2543 H   0  0  0  0  0  0
  -16.0793   -8.2700    6.1103 H   0  0  0  0  0  0
  -18.0829   -4.7209   10.1633 H   0  0  0  0  0  0
  -18.6885   -6.8445   12.1822 H   0  0  0  0  0  0
  -18.4769   -3.8012   12.8086 H   0  0  0  0  0  0
  -18.8297   -5.0714   14.0288 H   0  0  0  0  0  0
  -16.1521   -2.9074   13.1200 H   0  0  0  0  0  0
  -17.4925   -7.7696   13.9096 H   0  0  0  0  0  0
  -12.7706   -6.2913   14.5860 H   0  0  0  0  0  0
  -15.7465   -9.3561   14.6206 H   0  0  0  0  0  0
  -13.4356   -8.6287   14.9661 H   0  0  0  0  0  0
  -20.0482   -4.1649   10.2340 H   0  0  0  0  0  0
  -22.3982   -4.0850   11.9459 H   0  0  0  0  0  0
  -21.8817   -2.2175   10.3938 H   0  0  0  0  0  0
  -24.6310   -3.3439    9.6979 H   0  0  0  0  0  0
  -24.2352   -2.8105   11.3668 H   0  0  0  0  0  0
  -21.1704   -3.5106    8.4568 H   0  0  0  0  0  0
  -22.4488   -2.3159    8.0503 H   0  0  0  0  0  0
  -22.8616   -4.0579    8.1982 H   0  0  0  0  0  0
  -25.4124   -1.1200   10.1390 H   0  0  0  0  0  0
  -24.1392   -1.1248    8.8719 H   0  0  0  0  0  0
  -23.7433   -0.5914   10.5409 H   0  0  0  0  0  0
  -24.1129   -7.9759   10.9440 H   0  0  0  0  0  0
  -26.7414   -6.5492   11.6949 H   0  0  0  0  0  0
  -26.1551   -8.1468   12.2699 H   0  0  0  0  0  0
  -25.9496   -6.0682   13.9116 H   0  0  0  0  0  0
  -24.5428   -7.1698   13.7273 H   0  0  0  0  0  0
  -23.5046   -5.0642   13.1535 H   0  0  0  0  0  0
  -25.0071   -4.4318   12.3992 H   0  0  0  0  0  0
  -25.2107   -9.1593    9.5804 H   0  0  0  0  0  0
  -25.5961   -8.0175    7.0114 H   0  0  0  0  0  0
  -25.4528  -10.4772    7.5183 H   0  0  0  0  0  0
  -27.0039  -10.5105    9.4712 H   0  0  0  0  0  0
  -27.4068  -11.7604    8.2456 H   0  0  0  0  0  0
  -28.3880  -10.2596    8.3539 H   0  0  0  0  0  0
  -26.2384   -9.7107    5.3258 H   0  0  0  0  0  0
  -27.9325   -9.7860    5.9183 H   0  0  0  0  0  0
  -26.9513  -11.2868    5.8100 H   0  0  0  0  0  0
  -27.0560   -7.0546    5.8557 H   0  0  0  0  0  0
  -28.9510   -6.1232    5.2377 H   0  0  0  0  0  0
  -30.2540   -7.9672    7.3305 H   0  0  0  0  0  0
  -31.2852   -6.8311    6.3965 H   0  0  0  0  0  0
  -31.4340   -9.7259    6.5157 H   0  0  0  0  0  0
  -31.1213  -10.3017    4.7266 H   0  0  0  0  0  0
  -27.5721   -5.0524    7.8775 H   0  0  0  0  0  0
  -29.7547   -3.5074    9.0753 H   0  0  0  0  0  0
  -26.7447   -3.0581    8.9273 H   0  0  0  0  0  0
  -27.8360   -1.9107    9.7753 H   0  0  0  0  0  0
  -27.7044   -4.8850   10.3924 H   0  0  0  0  0  0
  -26.7287   -3.6342   11.2350 H   0  0  0  0  0  0
  -30.6328   -4.1938   12.3191 H   0  0  0  0  0  0
  -31.0358   -2.0462    8.2240 H   0  0  0  0  0  0
  -31.6038   -0.1347    6.8801 H   0  0  0  0  0  0
  -29.8869    0.0669    6.3920 H   0  0  0  0  0  0
  -30.9885   -3.1276    5.8396 H   0  0  0  0  0  0
  -30.8975   -2.4369    2.9233 H   0  0  0  0  0  0
  -29.7383   -4.4603    3.7995 H   0  0  0  0  0  0
  -30.9444   -4.8918    2.5402 H   0  0  0  0  0  0
  -31.3240   -5.1570    4.2759 H   0  0  0  0  0  0
  -32.3493   -2.9485    1.3161 H   0  0  0  0  0  0
  -35.0511   -3.9512    2.0524 H   0  0  0  0  0  0
  -36.3568   -1.9326    1.5812 H   0  0  0  0  0  0
  -35.1338   -1.5073    2.8262 H   0  0  0  0  0  0
  -35.2006    0.2392    0.9995 H   0  0  0  0  0  0
  -36.5839   -3.7462    0.0329 H   0  0  0  0  0  0
  -35.0191   -4.1282   -2.4289 H   0  0  0  0  0  0
  -37.2632   -3.9163   -3.6307 H   0  0  0  0  0  0
  -38.2225   -2.0794   -2.2031 H   0  0  0  0  0  0
  -36.6175   -6.0698   -2.5334 H   0  0  0  0  0  0
  -38.3900   -5.7798   -2.5062 H   0  0  0  0  0  0
  -37.4129   -5.5095   -1.0233 H   0  0  0  0  0  0
  -35.3785   -2.6565   -4.4556 H   0  0  0  0  0  0
  -34.7382    0.0847   -3.5258 H   0  0  0  0  0  0
  -34.4180    0.6048   -5.9378 H   0  0  0  0  0  0
  -33.6892   -0.9934   -5.5617 H   0  0  0  0  0  0
  -35.0845   -1.1145   -7.6622 H   0  0  0  0  0  0
  -37.6232   -1.6072   -4.3432 H   0  0  0  0  0  0
  -39.8534   -0.6735   -4.3991 H   0  0  0  0  0  0
  -39.1967    0.9966   -4.3233 H   0  0  0  0  0  0
  -37.3885   -0.4507   -6.6438 H   0  0  0  0  0  0
  -38.9572    0.9260   -8.7546 H   0  0  0  0  0  0
  -36.5209   -0.9464   -8.9472 H   0  0  0  0  0  0
  -37.1612    0.0369  -10.3072 H   0  0  0  0  0  0
  -36.4382    1.4941   -7.8041 H   0  0  0  0  0  0
  -35.1020    0.7944   -8.7796 H   0  0  0  0  0  0
  -35.4228    2.6427  -12.1743 H   0  0  0  0  0  0
  -36.0403    1.0128  -11.7394 H   0  0  0  0  0  0
  -34.4287    1.5484  -11.1540 H   0  0  0  0  0  0
  -40.7858   -1.7725  -10.3612 H   0  0  0  0  0  0
  1  2  1  0  0  0
  1108  1  0  0  0
  1109  1  0  0  0
  1110  1  0  0  0
  2  3  1  0  0  0
  2  5  1  0  0  0
  2111  1  0  0  0
  3  4  2  0  0  0
  3  7  1  0  0  0
  5  6  1  0  0  0
  5112  1  0  0  0
  5113  1  0  0  0
  6114  1  0  0  0
  7  8  1  0  0  0
  7115  1  0  0  0
  8  9  1  0  0  0
  8 11  1  0  0  0
  8116  1  0  0  0
  9 10  2  0  0  0
  9 14  1  0  0  0
 11 12  1  0  0  0
 11 13  1  0  0  0
 11117  1  0  0  0
 12118  1  0  0  0
 12119  1  0  0  0
 12120  1  0  0  0
 13121  1  0  0  0
 13122  1  0  0  0
 13123  1  0  0  0
 14 15  1  0  0  0
 14124  1  0  0  0
 15 16  1  0  0  0
 15 18  1  0  0  0
 15125  1  0  0  0
 16 17  2  0  0  0
 16 28  1  0  0  0
 18 19  1  0  0  0
 18126  1  0  0  0
 18127  1  0  0  0
 19 20  2  0  0  0
 19 21  1  0  0  0
 20 22  1  0  0  0
 20128  1  0  0  0
 21 23  2  0  0  0
 21 24  1  0  0  0
 22 23  1  0  0  0
 23 25  1  0  0  0
 24 26  2  0  0  0
 24129  1  0  0  0
 25 27  2  0  0  0
 25130  1  0  0  0
 26 27  1  0  0  0
 26131  1  0  0  0
 27132  1  0  0  0
 28 29  1  0  0  0
 28133  1  0  0  0
 29 30  1  0  0  0
 29 32  1  0  0  0
 29134  1  0  0  0
 30 31  2  0  0  0
 30 36  1  0  0  0
 32 33  1  0  0  0
 32 34  1  0  0  0
 32135  1  0  0  0
 33 35  1  0  0  0
 33136  1  0  0  0
 33137  1  0  0  0
 34138  1  0  0  0
 34139  1  0  0  0
 34140  1  0  0  0
 35141  1  0  0  0
 35142  1  0  0  0
 35143  1  0  0  0
 36 37  1  0  0  0
 36 42  1  0  0  0
 37 38  1  0  0  0
 37 40  1  0  0  0
 37144  1  0  0  0
 38 39  2  0  0  0
 38 43  1  0  0  0
 40 41  1  0  0  0
 40145  1  0  0  0
 40146  1  0  0  0
 41 42  1  0  0  0
 41147  1  0  0  0
 41148  1  0  0  0
 42149  1  0  0  0
 42150  1  0  0  0
 43 44  1  0  0  0
 43151  1  0  0  0
 44 45  1  0  0  0
 44 47  1  0  0  0
 44152  1  0  0  0
 45 46  2  0  0  0
 45 50  1  0  0  0
 47 48  1  0  0  0
 47 49  1  0  0  0
 47153  1  0  0  0
 48154  1  0  0  0
 48155  1  0  0  0
 48156  1  0  0  0
 49157  1  0  0  0
 49158  1  0  0  0
 49159  1  0  0  0
 50 51  1  0  0  0
 50160  1  0  0  0
 51 52  1  0  0  0
 51 54  1  0  0  0
 51161  1  0  0  0
 52 53  2  0  0  0
 52 58  1  0  0  0
 54 55  1  0  0  0
 54162  1  0  0  0
 54163  1  0  0  0
 55 56  2  0  0  0
 55 57  1  0  0  0
 57164  1  0  0  0
 57165  1  0  0  0
 58 59  1  0  0  0
 58166  1  0  0  0
 59 60  1  0  0  0
 59 62  1  0  0  0
 59167  1  0  0  0
 60 61  2  0  0  0
 60 67  1  0  0  0
 62 63  1  0  0  0
 62168  1  0  0  0
 62169  1  0  0  0
 63 64  1  0  0  0
 63170  1  0  0  0
 63171  1  0  0  0
 64 65  2  0  0  0
 64 66  1  0  0  0
 66172  1  0  0  0
 67 68  1  0  0  0
 67173  1  0  0  0
 68 69  1  0  0  0
 68174  1  0  0  0
 68175  1  0  0  0
 69 70  2  0  0  0
 69 71  1  0  0  0
 71 72  1  0  0  0
 71176  1  0  0  0
 72 73  1  0  0  0
 72 75  1  0  0  0
 72177  1  0  0  0
 73 74  2  0  0  0
 73 76  1  0  0  0
 75178  1  0  0  0
 75179  1  0  0  0
 75180  1  0  0  0
 76 77  1  0  0  0
 76181  1  0  0  0
 77 78  1  0  0  0
 77 80  1  0  0  0
 77182  1  0  0  0
 78 79  2  0  0  0
 78 82  1  0  0  0
 80 81  1  0  0  0
 80183  1  0  0  0
 80184  1  0  0  0
 81185  1  0  0  0
 82 83  1  0  0  0
 82186  1  0  0  0
 83 84  1  0  0  0
 83 86  1  0  0  0
 83187  1  0  0  0
 84 85  2  0  0  0
 84 89  1  0  0  0
 86 87  1  0  0  0
 86 88  1  0  0  0
 86188  1  0  0  0
 87189  1  0  0  0
 88190  1  0  0  0
 88191  1  0  0  0
 88192  1  0  0  0
 89 90  1  0  0  0
 89193  1  0  0  0
 90 91  1  0  0  0
 90 93  1  0  0  0
 90194  1  0  0  0
 91 92  2  0  0  0
 91 95  1  0  0  0
 93 94  1  0  0  0
 93195  1  0  0  0
 93196  1  0  0  0
 94197  1  0  0  0
 95 96  1  0  0  0
 95198  1  0  0  0
 96 97  1  0  0  0
 96199  1  0  0  0
 96200  1  0  0  0
 97 98  2  0  0  0
 97 99  1  0  0  0
 99100  1  0  0  0
 99201  1  0  0  0
100101  1  0  0  0
100103  1  0  0  0
100202  1  0  0  0
101102  2  0  0  0
101107  1  0  0  0
103104  1  0  0  0
103203  1  0  0  0
103204  1  0  0  0
104105  1  0  0  0
104205  1  0  0  0
104206  1  0  0  0
105106  1  0  0  0
106207  1  0  0  0
106208  1  0  0  0
106209  1  0  0  0
107210  1  0  0  0
M  CHG  1   1   1
M  END
> <s_m_source_file>
../2xxn_ligand.sdf

> <i_m_source_file_index>
1

> <s_epik_input>
W2NIXTFbY0hdW2NIXVtjSF1jKGMxMilbbkhdW2NIXWMyW0NIMl1bQ0BIXShbTkhdQyg9TylbQ0BIXShbQ0hdKFtDSDNdKVtDSDNdKVtOSF1DKD1PKVtDQEBIXShbTkgzK10pW0NIMl1bT0hdKUMoPU8pW05IXVtDQEBIXShbQ0BASF0oW0NIM10pW0NIMl1bQ0gzXSlDKD1PKU4zW0NAQEhdKFtDSDJdW0NIMl1bQ0gyXTMpQyg9TylbTkhdW0NAQEhdKFtDSF0oW0NIM10pW0NIM10pQyg9TylbTkhdW0NAQEhdKFtDSDJdQyg9TylbTkgyXSlDKD1PKVtOSF1bQ0BASF0oW0NIMl1bQ0gyXUMoPU8pW09IXSlDKD1PKVtOSF1bQ0gyXUMoPU8pW05IXVtDQEBIXShbQ0gzXSlDKD1PKVtOSF1bQ0BASF0oW0NIMl1bT0hdKUMoPU8pW05IXVtDQEBIXShbQ0BIXShbT0hdKVtDSDNdKUMoPU8pW05IXVtDQEBIXShbQ0gyXVtPSF0pQyg9TylbTkhdW0NIMl1DKD1PKVtOSF1bQ0BIXShDKD1PKVtPSF0pW0NIMl1bQ0gyXVNbQ0gzXQ==

> <s_epik_cmdline>
J2VwaWtfYXBwJywgJy1pbWFlJywgJ2xpZ2FuZF9wcm8ubWFlJywgJy1vbWFlJywgJ2xpZ2FuZF9wcmVwLm1hZScsICctbXMnLCAnMScsICctcGgnLCAnNycsICctcGh0JywgJzAuNScsICctbnQn

> <s_epik_pKa_notes>
Molecule size exceeds maximum supported for generating protonation states

$$$$
