2xxw_ligand
                    3D
 Schrodinger Suite 2020-3.
 18 17  0  0  1  0            999 V2000
  -21.9170   -5.4720  -22.9830 N   0  3  0  0  0  0
  -22.5870   -6.1030  -21.8560 C   0  0  2  0  0  0
  -24.0640   -5.7230  -21.7950 C   0  0  0  0  0  0
  -24.6500   -5.3150  -22.7930 O   0  0  0  0  0  0
  -21.8870   -5.7400  -20.5460 C   0  0  0  0  0  0
  -20.6030   -6.5140  -20.2960 C   0  0  0  0  0  0
  -20.8590   -7.9100  -19.7620 C   0  0  0  0  0  0
  -21.9670   -8.1540  -19.2380 O   0  0  0  0  0  0
  -19.9480   -8.7600  -19.8610 O   0  5  0  0  0  0
  -24.7140   -5.8220  -20.7530 O   0  5  0  0  0  0
  -22.4333   -5.7438  -23.9155 H   0  0  0  0  0  0
  -20.8731   -5.8158  -23.0283 H   0  0  0  0  0  0
  -21.9381   -4.3794  -22.8572 H   0  0  0  0  0  0
  -22.5029   -7.1829  -22.0478 H   0  0  0  0  0  0
  -21.6256   -4.6715  -20.5538 H   0  0  0  0  0  0
  -22.5603   -5.9466  -19.7010 H   0  0  0  0  0  0
  -20.0434   -6.6099  -21.2381 H   0  0  0  0  0  0
  -19.9890   -5.9771  -19.5579 H   0  0  0  0  0  0
  1  2  1  0  0  0
  1 11  1  0  0  0
  1 12  1  0  0  0
  1 13  1  0  0  0
  2  3  1  0  0  0
  2  5  1  0  0  0
  2 14  1  0  0  0
  3  4  2  0  0  0
  3 10  1  0  0  0
  5  6  1  0  0  0
  5 15  1  0  0  0
  5 16  1  0  0  0
  6  7  1  0  0  0
  6 17  1  0  0  0
  6 18  1  0  0  0
  7  8  2  0  0  0
  7  9  1  0  0  0
M  CHG  3   1   1   9  -1  10  -1
M  END
> <s_m_source_file>
../2xxw_ligand.sdf

> <i_m_source_file_index>
1

> <s_epik_input>
Tz1DKFtPSF0pW0NAQEhdKFtOSDMrXSlbQ0gyXVtDSDJdQyg9TylbT0hd

> <s_epik_cmdline>
J2VwaWtfYXBwJywgJy1pbWFlJywgJ2xpZ2FuZF9wcm8ubWFlJywgJy1vbWFlJywgJ2xpZ2FuZF9wcmVwLm1hZScsICctbXMnLCAnMScsICctcGgnLCAnNycsICctcGh0JywgJzAuNScsICctbnQn

> <r_lp_tautomer_probability>
1

> <r_epik_Ionization_Penalty>
  0.0027

> <r_epik_Ionization_Penalty_Charging>
  0.0027

> <r_epik_Ionization_Penalty_Neutral>
  0.0000

> <r_epik_State_Penalty>
 -0.0000

> <r_epik_Charging_Adjusted_Penalty>
0.00270099915882496

> <i_epik_Tot_Q>
-1

> <i_epik_Tot_abs_Q>
3

$$$$
