2xxy_ligand
                    3D
 Schrodinger Suite 2020-3.
 31 31  0  0  1  0            999 V2000
  -11.3230    1.2050  -23.4320 N   0  3  0  0  0  0
  -12.1350    1.5120  -24.6270 C   0  0  0  0  0  0
  -13.0610    1.3640  -27.2440 C   0  0  0  0  0  0
  -11.1090    2.6620  -28.1300 C   0  0  0  0  0  0
   -9.9250    1.4380  -23.7630 C   0  0  1  0  0  0
   -9.8270    1.4410  -25.2760 C   0  0  1  0  0  0
   -9.7360    0.0490  -25.8810 C   0  0  0  0  0  0
  -11.1600    2.0150  -25.6880 C   0  0  1  0  0  0
   -8.3770   -0.6010  -25.7820 C   0  0  0  0  0  0
  -11.5610    1.6200  -27.1120 C   0  0  0  0  0  0
   -9.5530    2.7700  -23.1780 C   0  0  0  0  0  0
  -10.1160    3.2090  -22.1730 O   0  5  0  0  0  0
   -8.3770   -1.8530  -25.7920 O   0  0  0  0  0  0
   -7.3250    0.0930  -25.7260 O   0  5  0  0  0  0
   -8.6720    3.4560  -23.6920 O   0  0  0  0  0  0
  -11.6300    1.8587  -22.6023 H   0  0  0  0  0  0
  -11.4745    0.1537  -23.1459 H   0  0  0  0  0  0
  -12.6504    0.6006  -24.9641 H   0  0  0  0  0  0
  -12.8790    2.2826  -24.3767 H   0  0  0  0  0  0
  -13.2954    1.0848  -28.2818 H   0  0  0  0  0  0
  -13.6137    2.2766  -26.9760 H   0  0  0  0  0  0
  -13.3542    0.5463  -26.5692 H   0  0  0  0  0  0
  -11.4135    2.3455  -29.1385 H   0  0  0  0  0  0
  -10.0141    2.7611  -28.0917 H   0  0  0  0  0  0
  -11.5734    3.6308  -27.8939 H   0  0  0  0  0  0
   -9.2704    0.6607  -23.3419 H   0  0  0  0  0  0
   -8.9325    1.9890  -25.6071 H   0  0  0  0  0  0
  -10.4437   -0.6200  -25.3695 H   0  0  0  0  0  0
   -9.9853    0.0973  -26.9513 H   0  0  0  0  0  0
  -11.1279    3.1139  -25.7246 H   0  0  0  0  0  0
  -11.0431    0.6747  -27.3313 H   0  0  0  0  0  0
  1  2  1  0  0  0
  1  5  1  0  0  0
  1 16  1  0  0  0
  1 17  1  0  0  0
  2  8  1  0  0  0
  2 18  1  0  0  0
  2 19  1  0  0  0
  3 10  1  0  0  0
  3 20  1  0  0  0
  3 21  1  0  0  0
  3 22  1  0  0  0
  4 10  1  0  0  0
  4 23  1  0  0  0
  4 24  1  0  0  0
  4 25  1  0  0  0
  5  6  1  0  0  0
  5 11  1  0  0  0
  5 26  1  0  0  0
  6  7  1  0  0  0
  6  8  1  0  0  0
  6 27  1  0  0  0
  7  9  1  0  0  0
  7 28  1  0  0  0
  7 29  1  0  0  0
  8 10  1  0  0  0
  8 30  1  0  0  0
  9 13  2  0  0  0
  9 14  1  0  0  0
 10 31  1  0  0  0
 11 12  1  0  0  0
 11 15  2  0  0  0
M  CHG  3   1   1  12  -1  14  -1
M  END
> <s_m_source_file>
../2xxy_ligand.sdf

> <i_m_source_file_index>
1

> <s_epik_input>
W09IXUMoPU8pW0NASF0xW05IMitdW0NIMl1bQ0BIXShbQ0hdKFtDSDNdKVtDSDNdKVtDQEBIXTFbQ0gyXUMoPU8pW09IXQ==

> <s_epik_cmdline>
J2VwaWtfYXBwJywgJy1pbWFlJywgJ2xpZ2FuZF9wcm8ubWFlJywgJy1vbWFlJywgJ2xpZ2FuZF9wcmVwLm1hZScsICctbXMnLCAnMScsICctcGgnLCAnNycsICctcGh0JywgJzAuNScsICctbnQn

> <r_lp_tautomer_probability>
1

> <r_epik_Ionization_Penalty>
  0.0033

> <r_epik_Ionization_Penalty_Charging>
  0.0033

> <r_epik_Ionization_Penalty_Neutral>
  0.0000

> <r_epik_State_Penalty>
 -0.0000

> <r_epik_Charging_Adjusted_Penalty>
0.00333179081107451

> <i_epik_Tot_Q>
-1

> <i_epik_Tot_abs_Q>
3

$$$$
