2xye_ligand
                    3D
 Schrodinger Suite 2020-3.
106108  0  0  1  0            999 V2000
   13.1970   23.5400    5.0280 C   0  0  0  0  0  0
   10.6860   24.2160    5.6020 C   0  0  0  0  0  0
   10.3950   23.2330    6.2920 O   0  0  0  0  0  0
    9.9920   25.3750    5.6420 N   0  0  0  0  0  0
    8.7460   25.7570    6.4860 C   0  0  1  0  0  0
    8.9740   26.3380    8.0220 C   0  0  0  0  0  0
    9.7680   27.6550    8.0530 C   0  0  0  0  0  0
    7.6150   26.6570    8.7410 C   0  0  0  0  0  0
    9.7570   25.3520    8.8960 C   0  0  0  0  0  0
    7.9630   26.7340    5.6300 C   0  0  0  0  0  0
    8.3490   27.8220    5.1970 O   0  0  0  0  0  0
    6.7300   26.1980    5.4040 N   0  0  0  0  0  0
   11.3300   23.4990    3.2570 C   0  0  0  0  0  0
    9.9750   24.0630    2.7090 C   0  0  0  0  0  0
    8.7500   23.2810    2.9220 C   0  0  0  0  0  0
    7.4770   23.7770    2.4380 C   0  0  0  0  0  0
    7.4090   25.0520    1.7400 C   0  0  0  0  0  0
    8.6170   25.8280    1.5250 C   0  0  0  0  0  0
    9.8920   25.3340    2.0090 C   0  0  0  0  0  0
   12.2780   25.5200    4.2370 O   0  0  0  0  0  0
   15.2250   23.7030    6.5960 C   0  0  0  0  0  0
   15.3430   22.3930    7.1420 N   0  0  1  0  0  0
   15.9450   21.4810    6.0940 N   0  0  0  0  0  0
   15.2770   20.4460    5.5630 C   0  0  0  0  0  0
   14.1020   20.1620    5.8940 O   0  0  0  0  0  0
   16.0370   19.6210    4.5190 C   0  0  2  0  0  0
   15.3450   18.7360    3.4170 C   0  0  0  0  0  0
   16.4320   18.0770    2.5610 C   0  0  0  0  0  0
   14.5100   19.5470    2.4460 C   0  0  0  0  0  0
   14.5230   17.5970    4.0130 C   0  0  0  0  0  0
   16.8460   18.8330    5.4870 N   0  0  0  0  0  0
   18.1720   18.9470    5.6570 C   0  0  0  0  0  0
   18.9430   19.7040    5.0620 O   0  0  0  0  0  0
   18.5870   18.0410    6.6580 O   0  0  0  0  0  0
   19.3220   16.8740    6.2620 C   0  0  0  0  0  0
   16.2060   22.3900    8.3090 C   0  0  0  0  0  0
   16.4120   21.0240    8.9890 C   0  0  0  0  0  0
   15.2500   20.2360    9.3820 C   0  0  0  0  0  0
   15.4270   18.9500   10.0210 C   0  0  0  0  0  0
   17.7580   20.5230    9.2320 C   0  0  0  0  0  0
   17.9410   19.2230    9.8800 C   0  0  0  0  0  0
   16.7700   18.4440   10.2720 C   0  0  0  0  0  0
   16.8600   17.0770   10.9610 C   0  0  0  0  0  0
   16.7560   15.8200   10.2360 C   0  0  0  0  0  0
   11.8670   24.1950    4.5810 C   0  0  2  0  0  0
   16.8430   14.5410   10.9370 C   0  0  0  0  0  0
    5.6440   26.8010    4.6200 C   0  0  0  0  0  0
   17.0330   14.5120   12.3770 C   0  0  0  0  0  0
   13.7550   24.0280    6.3920 C   0  0  0  0  0  0
   17.1400   15.7500   13.1160 C   0  0  0  0  0  0
   17.0550   17.0290   12.4130 C   0  0  0  0  0  0
   13.0574   22.4528    5.1202 H   0  0  0  0  0  0
   13.9772   23.7474    4.2808 H   0  0  0  0  0  0
   10.4326   26.1072    4.9493 H   0  0  0  0  0  0
    8.1927   24.8154    6.6173 H   0  0  0  0  0  0
    9.2526   28.4084    7.4392 H   0  0  0  0  0  0
   10.7779   27.4838    7.6520 H   0  0  0  0  0  0
    9.8413   28.0146    9.0900 H   0  0  0  0  0  0
    7.0346   27.3645    8.1307 H   0  0  0  0  0  0
    7.8172   27.1026    9.7262 H   0  0  0  0  0  0
    7.0413   25.7273    8.8698 H   0  0  0  0  0  0
   10.7151   25.1133    8.4113 H   0  0  0  0  0  0
    9.1709   24.4299    9.0238 H   0  0  0  0  0  0
    9.9468   25.8052    9.8802 H   0  0  0  0  0  0
    6.5863   25.2158    5.8781 H   0  0  0  0  0  0
   11.2148   22.4301    3.4899 H   0  0  0  0  0  0
   12.1144   23.6260    2.4964 H   0  0  0  0  0  0
    8.7984   22.3259    3.4450 H   0  0  0  0  0  0
    6.5696   23.1943    2.5970 H   0  0  0  0  0  0
    6.4506   25.4246    1.3784 H   0  0  0  0  0  0
    8.5658   26.7818    0.9999 H   0  0  0  0  0  0
   10.7958   25.9211    1.8463 H   0  0  0  0  0  0
   12.6869   26.1872    5.0101 H   0  0  0  0  0  0
   15.6714   24.4308    7.2895 H   0  0  0  0  0  0
   15.7504   23.7466    5.6305 H   0  0  0  0  0  0
   16.9711   21.6546    5.7377 H   0  0  0  0  0  0
   16.5421   20.2872    3.8041 H   0  0  0  0  0  0
   17.0600   18.8553    2.1028 H   0  0  0  0  0  0
   15.9610   17.4737    1.7710 H   0  0  0  0  0  0
   17.0552   17.4290    3.1948 H   0  0  0  0  0  0
   15.1206   20.3613    2.0287 H   0  0  0  0  0  0
   13.6434   19.9719    2.9737 H   0  0  0  0  0  0
   14.1602   18.8963    1.6310 H   0  0  0  0  0  0
   15.1467   17.0222    4.7135 H   0  0  0  0  0  0
   14.1733   16.9361    3.2062 H   0  0  0  0  0  0
   13.6565   18.0116    4.5489 H   0  0  0  0  0  0
   16.3585   18.0880    6.1331 H   0  0  0  0  0  0
   19.5684   16.2764    7.1520 H   0  0  0  0  0  0
   20.2502   17.1792    5.7568 H   0  0  0  0  0  0
   18.7108   16.2718    5.5737 H   0  0  0  0  0  0
   17.2076   22.7453    8.0252 H   0  0  0  0  0  0
   15.7854   23.0548    9.0778 H   0  0  0  0  0  0
   14.2460   20.6164    9.1941 H   0  0  0  0  0  0
   14.5577   18.3612   10.3139 H   0  0  0  0  0  0
   18.6244   21.1129    8.9330 H   0  0  0  0  0  0
   18.9438   18.8396   10.0684 H   0  0  0  0  0  0
   16.6113   15.8325    9.1557 H   0  0  0  0  0  0
   16.7653   13.6078   10.3791 H   0  0  0  0  0  0
    4.7738   26.1281    4.6208 H   0  0  0  0  0  0
    5.9832   26.9605    3.5858 H   0  0  0  0  0  0
    5.3617   27.7660    5.0663 H   0  0  0  0  0  0
   17.0948   13.5576   12.8999 H   0  0  0  0  0  0
   13.6461   25.1203    6.4630 H   0  0  0  0  0  0
   13.1953   23.5498    7.2094 H   0  0  0  0  0  0
   17.2839   15.7298   14.1963 H   0  0  0  0  0  0
   17.1377   17.9588   12.9758 H   0  0  0  0  0  0
  1 45  1  0  0  0
  1 49  1  0  0  0
  1 52  1  0  0  0
  1 53  1  0  0  0
  2  3  2  0  0  0
  2  4  1  0  0  0
  2 45  1  0  0  0
  4  5  1  0  0  0
  4 54  1  0  0  0
  5  6  1  0  0  0
  5 10  1  0  0  0
  5 55  1  0  0  0
  6  7  1  0  0  0
  6  8  1  0  0  0
  6  9  1  0  0  0
  7 56  1  0  0  0
  7 57  1  0  0  0
  7 58  1  0  0  0
  8 59  1  0  0  0
  8 60  1  0  0  0
  8 61  1  0  0  0
  9 62  1  0  0  0
  9 63  1  0  0  0
  9 64  1  0  0  0
 10 11  2  0  0  0
 10 12  1  0  0  0
 12 47  1  0  0  0
 12 65  1  0  0  0
 13 14  1  0  0  0
 13 45  1  0  0  0
 13 66  1  0  0  0
 13 67  1  0  0  0
 14 15  2  0  0  0
 14 19  1  0  0  0
 15 16  1  0  0  0
 15 68  1  0  0  0
 16 17  2  0  0  0
 16 69  1  0  0  0
 17 18  1  0  0  0
 17 70  1  0  0  0
 18 19  2  0  0  0
 18 71  1  0  0  0
 19 72  1  0  0  0
 20 45  1  0  0  0
 20 73  1  0  0  0
 21 22  1  0  0  0
 21 49  1  0  0  0
 21 74  1  0  0  0
 21 75  1  0  0  0
 22 23  1  0  0  0
 22 36  1  0  0  0
 23 24  1  0  0  0
 23 76  1  0  0  0
 24 25  2  0  0  0
 24 26  1  0  0  0
 26 27  1  0  0  0
 26 31  1  0  0  0
 26 77  1  0  0  0
 27 28  1  0  0  0
 27 29  1  0  0  0
 27 30  1  0  0  0
 28 78  1  0  0  0
 28 79  1  0  0  0
 28 80  1  0  0  0
 29 81  1  0  0  0
 29 82  1  0  0  0
 29 83  1  0  0  0
 30 84  1  0  0  0
 30 85  1  0  0  0
 30 86  1  0  0  0
 31 32  1  0  0  0
 31 87  1  0  0  0
 32 33  2  0  0  0
 32 34  1  0  0  0
 34 35  1  0  0  0
 35 88  1  0  0  0
 35 89  1  0  0  0
 35 90  1  0  0  0
 36 37  1  0  0  0
 36 91  1  0  0  0
 36 92  1  0  0  0
 37 38  2  0  0  0
 37 40  1  0  0  0
 38 39  1  0  0  0
 38 93  1  0  0  0
 39 42  2  0  0  0
 39 94  1  0  0  0
 40 41  2  0  0  0
 40 95  1  0  0  0
 41 42  1  0  0  0
 41 96  1  0  0  0
 42 43  1  0  0  0
 43 44  2  0  0  0
 43 51  1  0  0  0
 44 46  1  0  0  0
 44 97  1  0  0  0
 46 48  2  0  0  0
 46 98  1  0  0  0
 47 99  1  0  0  0
 47100  1  0  0  0
 47101  1  0  0  0
 48 50  1  0  0  0
 48102  1  0  0  0
 49103  1  0  0  0
 49104  1  0  0  0
 50 51  2  0  0  0
 50105  1  0  0  0
 51106  1  0  0  0
M  END
> <s_m_source_file>
../2xye_ligand.sdf

> <i_m_source_file_index>
1

> <s_epik_input>
W2NIXTFbY0hdW2NIXVtjSF1bY0hdYzFbQ0gyXVtDQEBdKFtPSF0pKEMoPU8pW05IXVtDQEBIXShDKFtDSDNdKShbQ0gzXSlbQ0gzXSlDKD1PKVtOSF1bQ0gzXSlbQ0gyXVtDSDJdW0NIMl1bTkBASCtdKFtOSF1DKD1PKVtDQEhdKEMoW0NIM10pKFtDSDNdKVtDSDNdKVtOSF1DKD1PKU9bQ0gzXSlbQ0gyXWMyW2NIXVtjSF1jKFtjSF1bY0hdMiktYzNbY0hdW2NIXVtjSF1bY0hdW2NIXTM=

> <s_epik_cmdline>
J2VwaWtfYXBwJywgJy1pbWFlJywgJ2xpZ2FuZF9wcm8ubWFlJywgJy1vbWFlJywgJ2xpZ2FuZF9wcmVwLm1hZScsICctbXMnLCAnMScsICctcGgnLCAnNycsICctcGh0JywgJzAuNScsICctbnQn

> <r_lp_tautomer_probability>
1

> <r_epik_Ionization_Penalty>
  0.0000

> <r_epik_Ionization_Penalty_Charging>
  0.0000

> <r_epik_Ionization_Penalty_Neutral>
  0.0000

> <r_epik_State_Penalty>
 -0.0000

> <r_epik_Charging_Adjusted_Penalty>
0

> <i_epik_Tot_Q>
0

> <i_epik_Tot_abs_Q>
0

> <s_epik_Chemistry_Notes>
This compound has an ester and may undergo hydrolysis at high or low pH.

$$$$
