2xyf_ligand
                    3D
 Schrodinger Suite 2020-3.
103105  0  0  1  0            999 V2000
   11.9580   24.2700    4.5810 C   0  0  1  0  0  0
   10.7740   24.2380    5.6010 C   0  0  0  0  0  0
   10.4900   23.2320    6.2550 O   0  0  0  0  0  0
   10.0730   25.3900    5.6720 N   0  0  0  0  0  0
    8.8200   25.7530    6.5120 C   0  0  1  0  0  0
    9.0310   26.3130    8.0550 C   0  0  0  0  0  0
    7.6680   26.6270    8.7670 C   0  0  0  0  0  0
    9.8380   27.6180    8.1010 C   0  0  0  0  0  0
    5.7060   26.8640    4.7110 C   0  0  0  0  0  0
    6.7880   26.2390    5.4790 N   0  0  0  0  0  0
    8.0450   26.7370    5.6610 C   0  0  0  0  0  0
    8.4530   27.8020    5.1940 O   0  0  0  0  0  0
    9.8020   25.3110    8.9220 C   0  0  0  0  0  0
   11.4280   23.6030    3.2360 C   0  0  0  0  0  0
   10.0480   24.1430    2.7250 C   0  0  0  0  0  0
    8.8700   23.2740    2.8490 C   0  0  0  0  0  0
    7.5720   23.7370    2.4020 C   0  0  0  0  0  0
    7.4300   25.0670    1.8270 C   0  0  0  0  0  0
    8.5880   25.9330    1.6990 C   0  0  0  0  0  0
    9.8900   25.4700    2.1470 C   0  0  0  0  0  0
   12.3340   25.6130    4.2700 O   0  0  0  0  0  0
   13.3130   23.6360    4.9970 C   0  0  0  0  0  0
   13.8590   24.0420    6.3940 C   0  0  0  0  0  0
   15.3250   23.6920    6.5870 C   0  0  0  0  0  0
   15.4570   22.3730    7.1160 N   0  0  2  0  0  0
   16.3850   22.3780    8.2360 C   0  0  0  0  0  0
   16.5950   21.0420    8.9500 C   0  0  0  0  0  0
   15.4270   20.2830    9.3630 C   0  0  0  0  0  0
   15.5930   19.0250   10.0330 C   0  0  0  0  0  0
   16.9300   18.5070   10.3020 C   0  0  0  0  0  0
   18.1110   19.2650    9.8870 C   0  0  0  0  0  0
   17.9370   20.5460    9.2020 C   0  0  0  0  0  0
   15.3210   18.9100    3.4060 C   0  0  0  0  0  0
   19.9120   17.6810    6.7600 C   0  0  0  0  0  0
   18.5230   18.0050    6.6080 O   0  0  0  0  0  0
   18.1380   18.9590    5.6360 C   0  0  0  0  0  0
   18.9230   19.7070    5.0590 O   0  0  0  0  0  0
   16.8170   18.8940    5.4740 N   0  0  0  0  0  0
   16.0370   19.7400    4.5370 C   0  0  2  0  0  0
   15.2970   20.5440    5.6090 C   0  0  0  0  0  0
   15.9710   21.5770    6.1550 N   0  0  0  0  0  0
   14.1340   20.2400    5.9480 O   0  0  0  0  0  0
   16.3920   18.2540    2.5250 C   0  0  0  0  0  0
   14.5100   19.7770    2.4660 C   0  0  0  0  0  0
   14.4770   17.7720    3.9700 C   0  0  0  0  0  0
   16.3440   14.8340   12.0850 S   0  0  0  0  0  0
   15.9230   16.3060   11.1870 C   0  0  0  0  0  0
   17.0290   17.2120   11.0100 C   0  0  0  0  0  0
   18.2330   16.6900   11.6210 C   0  0  0  0  0  0
   18.0200   15.4290   12.2320 C   0  0  0  0  0  0
   10.5217   26.1382    5.0020 H   0  0  0  0  0  0
    8.2689   24.8084    6.6304 H   0  0  0  0  0  0
    7.0955   27.3457    8.1623 H   0  0  0  0  0  0
    7.8638   27.0574    9.7602 H   0  0  0  0  0  0
    7.0895   25.6979    8.8775 H   0  0  0  0  0  0
    9.3328   28.3831    7.4932 H   0  0  0  0  0  0
   10.8471   27.4394    7.7011 H   0  0  0  0  0  0
    9.9124   27.9666    9.1416 H   0  0  0  0  0  0
    4.8126   26.2233    4.7480 H   0  0  0  0  0  0
    6.0238   26.9899    3.6655 H   0  0  0  0  0  0
    5.4701   27.8475    5.1435 H   0  0  0  0  0  0
    6.6216   25.2726    5.9774 H   0  0  0  0  0  0
    9.2706   24.3479    8.9297 H   0  0  0  0  0  0
    9.8769   25.6967    9.9494 H   0  0  0  0  0  0
   10.8116   25.1695    8.5089 H   0  0  0  0  0  0
   12.1533   23.7804    2.4282 H   0  0  0  0  0  0
   11.3051   22.5204    3.3872 H   0  0  0  0  0  0
    8.9729   22.2776    3.2787 H   0  0  0  0  0  0
    6.7007   23.0888    2.4963 H   0  0  0  0  0  0
    6.4522   25.4132    1.4920 H   0  0  0  0  0  0
    8.4808   26.9283    1.2678 H   0  0  0  0  0  0
   10.7575   26.1227    2.0495 H   0  0  0  0  0  0
   11.5735   26.3333    3.9342 H   0  0  0  0  0  0
   13.2148   22.5405    5.0158 H   0  0  0  0  0  0
   14.0896   23.9222    4.2724 H   0  0  0  0  0  0
   13.7563   25.1292    6.5260 H   0  0  0  0  0  0
   13.2870   23.5220    7.1766 H   0  0  0  0  0  0
   15.8447   23.7430    5.6188 H   0  0  0  0  0  0
   15.7833   24.4059    7.2872 H   0  0  0  0  0  0
   17.3794   22.6931    7.8868 H   0  0  0  0  0  0
   16.0276   23.0784    9.0052 H   0  0  0  0  0  0
   14.4269   20.6683    9.1644 H   0  0  0  0  0  0
   14.7171   18.4545   10.3420 H   0  0  0  0  0  0
   19.1107   18.8789   10.0863 H   0  0  0  0  0  0
   18.8056   21.1225    8.8839 H   0  0  0  0  0  0
   20.0282   16.9282    7.5536 H   0  0  0  0  0  0
   20.4726   18.5880    7.0301 H   0  0  0  0  0  0
   20.3003   17.2783    5.8129 H   0  0  0  0  0  0
   16.3040   18.1471    6.0977 H   0  0  0  0  0  0
   16.5644   20.4203    3.8521 H   0  0  0  0  0  0
   16.9890   21.7562    5.7786 H   0  0  0  0  0  0
   17.0349   19.0325    2.0884 H   0  0  0  0  0  0
   15.9056   17.6854    1.7187 H   0  0  0  0  0  0
   17.0033   17.5738    3.1362 H   0  0  0  0  0  0
   15.1436   20.5872    2.0760 H   0  0  0  0  0  0
   13.6565   20.2083    3.0096 H   0  0  0  0  0  0
   14.1408   19.1653    1.6297 H   0  0  0  0  0  0
   15.0913   17.1609    4.6476 H   0  0  0  0  0  0
   14.1076   17.1456    3.1447 H   0  0  0  0  0  0
   13.6233   18.1887    4.5246 H   0  0  0  0  0  0
   14.9217   16.5057   10.8053 H   0  0  0  0  0  0
   19.1926   17.2070   11.6122 H   0  0  0  0  0  0
   18.8065   14.8744   12.7439 H   0  0  0  0  0  0
  1  2  1  0  0  0
  1 14  1  0  0  0
  1 21  1  0  0  0
  1 22  1  0  0  0
  2  3  2  0  0  0
  2  4  1  0  0  0
  4  5  1  0  0  0
  4 51  1  0  0  0
  5  6  1  0  0  0
  5 11  1  0  0  0
  5 52  1  0  0  0
  6  7  1  0  0  0
  6  8  1  0  0  0
  6 13  1  0  0  0
  7 53  1  0  0  0
  7 54  1  0  0  0
  7 55  1  0  0  0
  8 56  1  0  0  0
  8 57  1  0  0  0
  8 58  1  0  0  0
  9 10  1  0  0  0
  9 59  1  0  0  0
  9 60  1  0  0  0
  9 61  1  0  0  0
 10 11  1  0  0  0
 10 62  1  0  0  0
 11 12  2  0  0  0
 13 63  1  0  0  0
 13 64  1  0  0  0
 13 65  1  0  0  0
 14 15  1  0  0  0
 14 66  1  0  0  0
 14 67  1  0  0  0
 15 16  2  0  0  0
 15 20  1  0  0  0
 16 17  1  0  0  0
 16 68  1  0  0  0
 17 18  2  0  0  0
 17 69  1  0  0  0
 18 19  1  0  0  0
 18 70  1  0  0  0
 19 20  2  0  0  0
 19 71  1  0  0  0
 20 72  1  0  0  0
 21 73  1  0  0  0
 22 23  1  0  0  0
 22 74  1  0  0  0
 22 75  1  0  0  0
 23 24  1  0  0  0
 23 76  1  0  0  0
 23 77  1  0  0  0
 24 25  1  0  0  0
 24 78  1  0  0  0
 24 79  1  0  0  0
 25 26  1  0  0  0
 25 41  1  0  0  0
 26 27  1  0  0  0
 26 80  1  0  0  0
 26 81  1  0  0  0
 27 28  2  0  0  0
 27 32  1  0  0  0
 28 29  1  0  0  0
 28 82  1  0  0  0
 29 30  2  0  0  0
 29 83  1  0  0  0
 30 31  1  0  0  0
 30 48  1  0  0  0
 31 32  2  0  0  0
 31 84  1  0  0  0
 32 85  1  0  0  0
 33 39  1  0  0  0
 33 43  1  0  0  0
 33 44  1  0  0  0
 33 45  1  0  0  0
 34 35  1  0  0  0
 34 86  1  0  0  0
 34 87  1  0  0  0
 34 88  1  0  0  0
 35 36  1  0  0  0
 36 37  2  0  0  0
 36 38  1  0  0  0
 38 39  1  0  0  0
 38 89  1  0  0  0
 39 40  1  0  0  0
 39 90  1  0  0  0
 40 41  1  0  0  0
 40 42  2  0  0  0
 41 91  1  0  0  0
 43 92  1  0  0  0
 43 93  1  0  0  0
 43 94  1  0  0  0
 44 95  1  0  0  0
 44 96  1  0  0  0
 44 97  1  0  0  0
 45 98  1  0  0  0
 45 99  1  0  0  0
 45100  1  0  0  0
 46 47  1  0  0  0
 46 50  1  0  0  0
 47 48  2  0  0  0
 47101  1  0  0  0
 48 49  1  0  0  0
 49 50  2  0  0  0
 49102  1  0  0  0
 50103  1  0  0  0
M  END
> <s_m_source_file>
../2xyf_ligand.sdf

> <i_m_source_file_index>
1

> <s_epik_input>
W2NIXTFbY0hdW2NIXVtjSF1bY0hdYzFbQ0gyXVtDQEBdKFtPSF0pKEMoPU8pW05IXVtDQEBIXShDKFtDSDNdKShbQ0gzXSlbQ0gzXSlDKD1PKVtOSF1bQ0gzXSlbQ0gyXVtDSDJdW0NIMl1bTkBASCtdKFtOSF1DKD1PKVtDQEhdKEMoW0NIM10pKFtDSDNdKVtDSDNdKVtOSF1DKD1PKU9bQ0gzXSlbQ0gyXWMyW2NIXVtjSF1jKFtjSF1bY0hdMiktYzNbY0hdc1tjSF1bY0hdMw==

> <s_epik_cmdline>
J2VwaWtfYXBwJywgJy1pbWFlJywgJ2xpZ2FuZF9wcm8ubWFlJywgJy1vbWFlJywgJ2xpZ2FuZF9wcmVwLm1hZScsICctbXMnLCAnMScsICctcGgnLCAnNycsICctcGh0JywgJzAuNScsICctbnQn

> <r_lp_tautomer_probability>
1

> <r_epik_Ionization_Penalty>
  0.0000

> <r_epik_Ionization_Penalty_Charging>
  0.0000

> <r_epik_Ionization_Penalty_Neutral>
  0.0000

> <r_epik_State_Penalty>
 -0.0000

> <r_epik_Charging_Adjusted_Penalty>
0

> <i_epik_Tot_Q>
0

> <i_epik_Tot_abs_Q>
0

> <s_epik_Chemistry_Notes>
This compound has an ester and may undergo hydrolysis at high or low pH.

$$$$
