2xyn_ligand
                    3D
 Schrodinger Suite 2020-3.
 61 65  0  0  1  0            999 V2000
  -51.2240   42.1360   -4.8280 N   0  3  0  0  0  0
  -51.7580   42.2110   -6.1940 C   0  0  0  0  0  0
  -51.6330   43.5970   -6.8230 C   0  0  0  0  0  0
  -51.9760   44.6770   -5.8840 N   0  0  0  0  0  0
  -51.6150   44.5170   -4.4570 C   0  0  0  0  0  0
  -51.9470   43.1060   -3.9830 C   0  0  0  0  0  0
  -51.4290   40.7620   -4.2950 C   0  0  0  0  0  0
  -52.4560   45.9270   -6.3590 C   0  0  0  0  0  0
  -52.2030   47.0700   -5.5970 C   0  0  0  0  0  0
  -52.6510   48.3060   -6.0360 C   0  0  0  0  0  0
  -53.3170   48.3800   -7.1790 N   0  0  0  0  0  0
  -53.5520   47.2930   -7.9260 C   0  0  0  0  0  0
  -53.1220   46.0640   -7.5300 N   0  0  0  0  0  0
  -52.4080   49.3950   -5.3280 N   0  0  0  0  0  0
  -52.7520   50.6360   -5.6910 C   0  0  0  0  0  0
  -53.4740   51.0730   -6.7330 C   0  0  0  0  0  0
  -53.4960   52.3960   -6.5730 C   0  0  3  0  0  0
  -52.8220   52.7000   -5.4710 N   0  0  0  0  0  0
  -52.3810   51.6710   -4.9480 N   0  0  0  0  0  0
  -54.1680   53.4520   -7.4550 C   0  0  0  0  0  0
  -54.4410   47.4720   -9.4250 S   0  0  0  0  0  0
  -54.8990   49.1220   -9.7610 C   0  0  0  0  0  0
  -54.0210   49.9980  -10.3630 C   0  0  0  0  0  0
  -54.3830   51.3100  -10.6610 C   0  0  0  0  0  0
  -55.6530   51.7860  -10.3680 C   0  0  0  0  0  0
  -56.5320   50.8670   -9.7920 C   0  0  0  0  0  0
  -56.1700   49.5560   -9.5000 C   0  0  0  0  0  0
  -56.0640   53.0670  -10.6490 N   0  0  0  0  0  0
  -55.2220   54.0660  -10.9320 C   0  0  0  0  0  0
  -54.0190   53.9320  -11.0030 O   0  0  0  0  0  0
  -55.8010   55.4020  -11.3480 C   0  0  0  0  0  0
  -56.8270   56.0930  -10.4400 C   0  0  0  0  0  0
  -55.3700   56.5740  -10.4880 C   0  0  0  0  0  0
  -50.1509   42.3775   -4.8368 H   0  0  0  0  0  0
  -51.2133   41.5065   -6.8398 H   0  0  0  0  0  0
  -52.8263   41.9492   -6.1850 H   0  0  0  0  0  0
  -50.5971   43.7560   -7.1570 H   0  0  0  0  0  0
  -52.3118   43.6708   -7.6855 H   0  0  0  0  0  0
  -50.5370   44.6947   -4.3294 H   0  0  0  0  0  0
  -52.1801   45.2416   -3.8523 H   0  0  0  0  0  0
  -53.0296   42.9303   -4.0673 H   0  0  0  0  0  0
  -51.6361   42.9827   -2.9351 H   0  0  0  0  0  0
  -50.8897   40.0399   -4.9256 H   0  0  0  0  0  0
  -52.5027   40.5231   -4.3002 H   0  0  0  0  0  0
  -51.0461   40.7073   -3.2652 H   0  0  0  0  0  0
  -51.6542   46.9901   -4.6587 H   0  0  0  0  0  0
  -51.8863   49.3184   -4.3626 H   0  0  0  0  0  0
  -53.8803   50.3548   -7.4605 H   0  0  0  0  0  0
  -54.6618   52.9591   -8.3054 H   0  0  0  0  0  0
  -53.4087   54.1546   -7.8288 H   0  0  0  0  0  0
  -54.9163   54.0008   -6.8643 H   0  0  0  0  0  0
  -53.0169   49.6550  -10.6125 H   0  0  0  0  0  0
  -53.6571   51.9730  -11.1317 H   0  0  0  0  0  0
  -57.5467   51.1910   -9.5609 H   0  0  0  0  0  0
  -56.8994   48.8740   -9.0630 H   0  0  0  0  0  0
  -57.1361   53.3132  -10.6485 H   0  0  0  0  0  0
  -55.7932   55.1440  -12.4173 H   0  0  0  0  0  0
  -57.6470   56.4951  -11.0530 H   0  0  0  0  0  0
  -57.2299   55.3644   -9.7211 H   0  0  0  0  0  0
  -54.5748   56.2510   -9.8000 H   0  0  0  0  0  0
  -54.9920   57.3818  -11.1318 H   0  0  0  0  0  0
  1  2  1  0  0  0
  1  6  1  0  0  0
  1  7  1  0  0  0
  1 34  1  0  0  0
  2  3  1  0  0  0
  2 35  1  0  0  0
  2 36  1  0  0  0
  3  4  1  0  0  0
  3 37  1  0  0  0
  3 38  1  0  0  0
  4  5  1  0  0  0
  4  8  1  0  0  0
  5  6  1  0  0  0
  5 39  1  0  0  0
  5 40  1  0  0  0
  6 41  1  0  0  0
  6 42  1  0  0  0
  7 43  1  0  0  0
  7 44  1  0  0  0
  7 45  1  0  0  0
  8  9  2  0  0  0
  8 13  1  0  0  0
  9 10  1  0  0  0
  9 46  1  0  0  0
 10 11  2  0  0  0
 10 14  1  0  0  0
 11 12  1  0  0  0
 12 13  2  0  0  0
 12 21  1  0  0  0
 14 15  1  0  0  0
 14 47  1  0  0  0
 15 16  2  0  0  0
 15 19  1  0  0  0
 16 17  1  0  0  0
 16 48  1  0  0  0
 17 18  1  0  0  0
 17 20  1  0  0  0
 18 19  2  0  0  0
 20 49  1  0  0  0
 20 50  1  0  0  0
 20 51  1  0  0  0
 21 22  1  0  0  0
 22 23  2  0  0  0
 22 27  1  0  0  0
 23 24  1  0  0  0
 23 52  1  0  0  0
 24 25  2  0  0  0
 24 53  1  0  0  0
 25 26  1  0  0  0
 25 28  1  0  0  0
 26 27  2  0  0  0
 26 54  1  0  0  0
 27 55  1  0  0  0
 28 29  1  0  0  0
 28 56  1  0  0  0
 29 30  2  0  0  0
 29 31  1  0  0  0
 31 32  1  0  0  0
 31 33  1  0  0  0
 31 57  1  0  0  0
 32 33  1  0  0  0
 32 58  1  0  0  0
 32 59  1  0  0  0
 33 60  1  0  0  0
 33 61  1  0  0  0
M  CHG  1   1   1
M  END
> <s_m_source_file>
../2xyn_ligand.sdf

> <i_m_source_file_index>
1

> <s_epik_input>
W0NIM11bTkgrXTFbQ0gyXVtDSDJdTihbQ0gyXVtDSDJdMSljMltjSF1jKFtOSF1DMz1bQ0hdW0NIXShOPU4zKVtDSDNdKW5jKG4yKVNjNFtjSF1bY0hdYyhbY0hdW2NIXTQpW05IXUMoPU8pW0NIXTVbQ0gyXVtDSDJdNQ==

> <s_epik_cmdline>
J2VwaWtfYXBwJywgJy1pbWFlJywgJ2xpZ2FuZF9wcm8ubWFlJywgJy1vbWFlJywgJ2xpZ2FuZF9wcmVwLm1hZScsICctbXMnLCAnMScsICctcGgnLCAnNycsICctcGh0JywgJzAuNScsICctbnQn

> <r_lp_tautomer_probability>
1

> <r_epik_Ionization_Penalty>
  0.1916

> <r_epik_Ionization_Penalty_Charging>
  0.1866

> <r_epik_Ionization_Penalty_Neutral>
  0.0050

> <r_epik_State_Penalty>
 -0.0000

> <r_epik_Charging_Adjusted_Penalty>
0.186630809027351

> <i_epik_Tot_Q>
1

> <i_epik_Tot_abs_Q>
1

$$$$
