2xyr_ligand
                    3D
 Schrodinger Suite 2020-3.
 51 53  0  0  1  0            999 V2000
   40.7110   61.3490   -4.3110 N   0  3  0  0  0  0
   41.1200   60.0970   -3.6060 C   0  0  2  0  0  0
   39.9600   59.1410   -3.6520 C   0  0  0  0  0  0
   39.1880   59.1470   -4.6060 O   0  0  0  0  0  0
   39.7500   58.3140   -2.7670 O   0  5  0  0  0  0
   41.5570   60.3950   -2.1710 C   0  0  0  0  0  0
   42.6310   61.4820   -2.1190 C   0  0  0  0  0  0
   43.4550   61.4620   -0.8310 C   0  0  2  0  0  0
   42.5750   61.5870    0.3250 N   0  3  0  0  0  0
   44.4560   62.6150   -0.8400 C   0  0  0  0  0  0
   45.6380   62.3420   -1.7650 C   0  0  1  0  0  0
   46.3810   63.5440   -2.0120 O   0  0  0  0  0  0
   46.6370   61.3350   -1.2050 C   0  0  1  0  0  0
   46.6020   60.1750   -2.0270 O   0  0  0  0  0  0
   47.9820   62.0130   -1.3270 C   0  0  1  0  0  0
   48.9750   61.1290   -1.8450 O   0  0  0  0  0  0
   47.7180   63.1440   -2.3090 C   0  0  2  0  0  0
   48.7340   64.2290   -2.2040 N   0  0  0  0  0  0
   49.0130   64.9800   -1.1320 C   0  0  0  0  0  0
   50.0160   65.8400   -1.4350 N   0  0  0  0  0  0
   50.3620   65.6240   -2.7160 C   0  0  0  0  0  0
   51.3120   66.1980   -3.5640 C   0  0  0  0  0  0
   52.1180   67.2000   -3.1270 N   0  0  0  0  0  0
   51.4260   65.7430   -4.8370 N   0  0  0  0  0  0
   50.6250   64.7460   -5.2640 C   0  0  0  0  0  0
   49.6970   64.1800   -4.4650 N   0  0  0  0  0  0
   49.5510   64.6040   -3.1900 C   0  0  0  0  0  0
   40.4021   61.1069   -5.3386 H   0  0  0  0  0  0
   41.5596   62.0483   -4.3384 H   0  0  0  0  0  0
   39.8702   61.8136   -3.7751 H   0  0  0  0  0  0
   41.9788   59.6463   -4.1249 H   0  0  0  0  0  0
   40.6899   60.7379   -1.5874 H   0  0  0  0  0  0
   41.9675   59.4817   -1.7156 H   0  0  0  0  0  0
   43.3286   61.3487   -2.9590 H   0  0  0  0  0  0
   42.1553   62.4712   -2.1909 H   0  0  0  0  0  0
   43.9765   60.4991   -0.7264 H   0  0  0  0  0  0
   41.8549   60.7554    0.3293 H   0  0  0  0  0  0
   42.0319   62.5420    0.2708 H   0  0  0  0  0  0
   43.1744   61.5578    1.2469 H   0  0  0  0  0  0
   43.9559   63.5320   -1.1849 H   0  0  0  0  0  0
   44.8457   62.7702    0.1769 H   0  0  0  0  0  0
   45.2094   61.9838   -2.7126 H   0  0  0  0  0  0
   46.4262   60.9792   -0.1857 H   0  0  0  0  0  0
   45.6950   59.5537   -2.0632 H   0  0  0  0  0  0
   48.4137   62.3150   -0.3614 H   0  0  0  0  0  0
   49.2887   60.2513   -1.2608 H   0  0  0  0  0  0
   47.7619   62.8716   -3.3738 H   0  0  0  0  0  0
   48.5121   64.9109   -0.1664 H   0  0  0  0  0  0
   52.0261   67.5694   -2.0950 H   0  0  0  0  0  0
   52.8627   67.6422   -3.8051 H   0  0  0  0  0  0
   50.7306   64.3859   -6.2873 H   0  0  0  0  0  0
  1  2  1  0  0  0
  1 28  1  0  0  0
  1 29  1  0  0  0
  1 30  1  0  0  0
  2  3  1  0  0  0
  2  6  1  0  0  0
  2 31  1  0  0  0
  3  4  2  0  0  0
  3  5  1  0  0  0
  6  7  1  0  0  0
  6 32  1  0  0  0
  6 33  1  0  0  0
  7  8  1  0  0  0
  7 34  1  0  0  0
  7 35  1  0  0  0
  8  9  1  0  0  0
  8 10  1  0  0  0
  8 36  1  0  0  0
  9 37  1  0  0  0
  9 38  1  0  0  0
  9 39  1  0  0  0
 10 11  1  0  0  0
 10 40  1  0  0  0
 10 41  1  0  0  0
 11 12  1  0  0  0
 11 13  1  0  0  0
 11 42  1  0  0  0
 12 17  1  0  0  0
 13 14  1  0  0  0
 13 15  1  0  0  0
 13 43  1  0  0  0
 14 44  1  0  0  0
 15 16  1  0  0  0
 15 17  1  0  0  0
 15 45  1  0  0  0
 16 46  1  0  0  0
 17 18  1  0  0  0
 17 47  1  0  0  0
 18 19  1  0  0  0
 18 27  1  0  0  0
 19 20  2  0  0  0
 19 48  1  0  0  0
 20 21  1  0  0  0
 21 22  2  0  0  0
 21 27  1  0  0  0
 22 23  1  0  0  0
 22 24  1  0  0  0
 23 49  1  0  0  0
 23 50  1  0  0  0
 24 25  2  0  0  0
 25 26  1  0  0  0
 25 51  1  0  0  0
 26 27  2  0  0  0
M  CHG  3   1   1   5  -1   9   1
M  END
> <s_m_source_file>
../2xyr_ligand.sdf

> <i_m_source_file_index>
1

> <s_epik_input>
Tz1DKFtPSF0pW0NAQEhdKFtOSDMrXSlbQ0gyXVtDSDJdW0NASF0oW05IMytdKVtDSDJdW0NASF0xT1tDQEhdKFtDQEhdKFtPSF0pW0NAQEhdMVtPSF0pbihbY0hdbjIpYyhjMjMpbltjSF1uYzNbTkgyXQ==

> <s_epik_cmdline>
J2VwaWtfYXBwJywgJy1pbWFlJywgJ2xpZ2FuZF9wcm8ubWFlJywgJy1vbWFlJywgJ2xpZ2FuZF9wcmVwLm1hZScsICctbXMnLCAnMScsICctcGgnLCAnNycsICctcGh0JywgJzAuNScsICctbnQn

> <r_lp_tautomer_probability>
1

> <r_epik_Ionization_Penalty>
  0.0044

> <r_epik_Ionization_Penalty_Charging>
  0.0040

> <r_epik_Ionization_Penalty_Neutral>
  0.0004

> <r_epik_State_Penalty>
 -0.0000

> <r_epik_Charging_Adjusted_Penalty>
0.00403663670421057

> <i_epik_Tot_Q>
1

> <i_epik_Tot_abs_Q>
3

> <s_epik_Chemistry_Notes>
This compound contains an acetal/aminal-like group ( X-CH(R)-Y where X, Y are N, S, or O) that may be acid/base labile, releasing an aldehyde.

$$$$
