2xyt_ligand
                    3D
 Schrodinger Suite 2020-3.
 87 93  0  0  1  0            999 V2000
   37.1400  117.7530   52.1260 N   0  3  2  0  0  0
   36.8440  118.3230   50.8540 C   0  0  0  0  0  0
   37.9710  118.1530   49.8780 C   0  0  0  0  0  0
   38.8200  116.9350   50.1080 C   0  0  0  0  0  0
   38.5420  116.0150   51.1590 C   0  0  0  0  0  0
   37.3610  116.2610   52.0100 C   0  0  2  0  0  0
   39.9180  116.6730   49.2490 C   0  0  0  0  0  0
   40.7210  115.5200   49.4640 C   0  0  0  0  0  0
   40.4180  114.6170   50.5280 C   0  0  0  0  0  0
   39.3190  114.8520   51.3870 C   0  0  0  0  0  0
   41.2160  113.4540   50.6380 O   0  0  0  0  0  0
   41.1230  112.7220   51.8480 C   0  0  0  0  0  0
   42.2150  112.8570   52.7160 C   0  0  0  0  0  0
   42.2790  112.1030   53.8660 C   0  0  0  0  0  0
   41.2460  111.1790   54.1500 C   0  0  0  0  0  0
   40.1700  111.0120   53.2770 C   0  0  0  0  0  0
   40.0990  111.7890   52.1170 C   0  0  0  0  0  0
   39.0430  110.0090   53.6880 C   0  0  0  0  0  0
   38.8970  108.6740   52.8710 C   0  0  1  0  0  0
   39.6970  107.5350   53.3030 N   0  3  0  0  0  0
   39.1200  106.4860   54.1120 C   0  0  0  0  0  0
   37.8260  106.7800   54.7930 C   0  0  0  0  0  0
   36.8790  107.4720   53.8900 C   0  0  0  0  0  0
   37.3660  108.3910   52.9160 C   0  0  0  0  0  0
   35.5020  107.2100   54.0320 C   0  0  0  0  0  0
   34.6140  107.8630   53.2070 C   0  0  0  0  0  0
   35.0870  108.7990   52.2200 C   0  0  0  0  0  0
   36.4760  109.0740   52.0890 C   0  0  0  0  0  0
   36.9550  109.9360   51.0690 O   0  0  0  0  0  0
   36.7370  111.3110   51.2260 C   0  0  0  0  0  0
   36.8750  112.1320   50.0800 C   0  0  0  0  0  0
   36.6670  113.5090   50.1600 C   0  0  0  0  0  0
   36.3320  114.0900   51.3630 C   0  0  0  0  0  0
   36.2000  113.2720   52.5300 C   0  0  0  0  0  0
   36.3970  111.8960   52.4590 C   0  0  0  0  0  0
   36.1050  115.5870   51.4220 C   0  0  0  0  0  0
   41.8020  115.2530   48.5980 O   0  0  0  0  0  0
   42.5670  116.3090   48.0430 C   0  0  0  0  0  0
   43.1970  113.7730   52.3910 O   0  0  0  0  0  0
   33.2670  107.6020   53.3540 O   0  0  0  0  0  0
   32.8740  106.3610   53.7670 C   0  0  0  0  0  0
   34.1830  109.4830   51.4410 O   0  0  0  0  0  0
   36.4320  118.5700   53.1010 C   0  0  0  0  0  0
   40.9110  108.0110   53.9990 C   0  0  0  0  0  0
   40.1210  106.8000   52.0970 C   0  0  0  0  0  0
   38.1062  117.8826   52.6356 H   0  0  0  0  0  0
   35.9520  117.8362   50.4327 H   0  0  0  0  0  0
   36.6535  119.4001   50.9702 H   0  0  0  0  0  0
   37.5644  118.0702   48.8593 H   0  0  0  0  0  0
   38.6407  119.0237   49.9359 H   0  0  0  0  0  0
   37.5823  115.8334   52.9990 H   0  0  0  0  0  0
   40.1449  117.3528   48.4277 H   0  0  0  0  0  0
   39.0782  114.1625   52.1962 H   0  0  0  0  0  0
   43.1184  112.2169   54.5519 H   0  0  0  0  0  0
   41.2912  110.5883   55.0649 H   0  0  0  0  0  0
   39.2620  111.6754   51.4280 H   0  0  0  0  0  0
   39.1998  109.6874   54.7282 H   0  0  0  0  0  0
   38.0636  110.5019   53.6003 H   0  0  0  0  0  0
   39.3493  108.7413   51.8705 H   0  0  0  0  0  0
   38.9263  105.6036   53.4845 H   0  0  0  0  0  0
   39.8196  106.2170   54.9171 H   0  0  0  0  0  0
   37.3640  105.8384   55.1246 H   0  0  0  0  0  0
   38.0088  107.4256   55.6647 H   0  0  0  0  0  0
   35.1461  106.5031   54.7815 H   0  0  0  0  0  0
   37.1468  111.6827   49.1248 H   0  0  0  0  0  0
   36.7699  114.1269   49.2680 H   0  0  0  0  0  0
   35.9425  113.7314   53.4843 H   0  0  0  0  0  0
   36.2888  111.2778   53.3502 H   0  0  0  0  0  0
   35.2376  115.8062   52.0620 H   0  0  0  0  0  0
   35.9208  115.9749   50.4093 H   0  0  0  0  0  0
   43.3562  115.8916   47.4004 H   0  0  0  0  0  0
   43.0255  116.8948   48.8533 H   0  0  0  0  0  0
   41.9130  116.9602   47.4445 H   0  0  0  0  0  0
   43.1164  114.3602   51.4643 H   0  0  0  0  0  0
   31.7764  106.3262   53.8303 H   0  0  0  0  0  0
   33.3052  106.1504   54.7568 H   0  0  0  0  0  0
   33.2239  105.6070   53.0466 H   0  0  0  0  0  0
   33.1069  109.2758   51.5367 H   0  0  0  0  0  0
   36.5107  119.6299   52.8174 H   0  0  0  0  0  0
   36.8778  118.4225   54.0958 H   0  0  0  0  0  0
   35.3726  118.2749   53.1265 H   0  0  0  0  0  0
   40.6213  108.5640   54.9047 H   0  0  0  0  0  0
   41.4805  108.6739   53.3310 H   0  0  0  0  0  0
   41.5346  107.1493   54.2792 H   0  0  0  0  0  0
   39.2336  106.4343   51.5596 H   0  0  0  0  0  0
   40.7499  105.9464   52.3900 H   0  0  0  0  0  0
   40.6957  107.4711   51.4418 H   0  0  0  0  0  0
  1  2  1  0  0  0
  1  6  1  0  0  0
  1 43  1  0  0  0
  1 46  1  0  0  0
  2  3  1  0  0  0
  2 47  1  0  0  0
  2 48  1  0  0  0
  3  4  1  0  0  0
  3 49  1  0  0  0
  3 50  1  0  0  0
  4  5  2  0  0  0
  4  7  1  0  0  0
  5  6  1  0  0  0
  5 10  1  0  0  0
  6 36  1  0  0  0
  6 51  1  0  0  0
  7  8  2  0  0  0
  7 52  1  0  0  0
  8  9  1  0  0  0
  8 37  1  0  0  0
  9 10  2  0  0  0
  9 11  1  0  0  0
 10 53  1  0  0  0
 11 12  1  0  0  0
 12 13  2  0  0  0
 12 17  1  0  0  0
 13 14  1  0  0  0
 13 39  1  0  0  0
 14 15  2  0  0  0
 14 54  1  0  0  0
 15 16  1  0  0  0
 15 55  1  0  0  0
 16 17  2  0  0  0
 16 18  1  0  0  0
 17 56  1  0  0  0
 18 19  1  0  0  0
 18 57  1  0  0  0
 18 58  1  0  0  0
 19 20  1  0  0  0
 19 24  1  0  0  0
 19 59  1  0  0  0
 20 21  1  0  0  0
 20 44  1  0  0  0
 20 45  1  0  0  0
 21 22  1  0  0  0
 21 60  1  0  0  0
 21 61  1  0  0  0
 22 23  1  0  0  0
 22 62  1  0  0  0
 22 63  1  0  0  0
 23 24  2  0  0  0
 23 25  1  0  0  0
 24 28  1  0  0  0
 25 26  2  0  0  0
 25 64  1  0  0  0
 26 27  1  0  0  0
 26 40  1  0  0  0
 27 28  2  0  0  0
 27 42  1  0  0  0
 28 29  1  0  0  0
 29 30  1  0  0  0
 30 31  2  0  0  0
 30 35  1  0  0  0
 31 32  1  0  0  0
 31 65  1  0  0  0
 32 33  2  0  0  0
 32 66  1  0  0  0
 33 34  1  0  0  0
 33 36  1  0  0  0
 34 35  2  0  0  0
 34 67  1  0  0  0
 35 68  1  0  0  0
 36 69  1  0  0  0
 36 70  1  0  0  0
 37 38  1  0  0  0
 38 71  1  0  0  0
 38 72  1  0  0  0
 38 73  1  0  0  0
 39 74  1  0  0  0
 40 41  1  0  0  0
 41 75  1  0  0  0
 41 76  1  0  0  0
 41 77  1  0  0  0
 42 78  1  0  0  0
 43 79  1  0  0  0
 43 80  1  0  0  0
 43 81  1  0  0  0
 44 82  1  0  0  0
 44 83  1  0  0  0
 44 84  1  0  0  0
 45 85  1  0  0  0
 45 86  1  0  0  0
 45 87  1  0  0  0
M  CHG  2   1   1  20   1
M  END
> <s_m_source_file>
../2xyt_ligand.sdf

> <i_m_source_file_index>
1

> <s_epik_input>
W0NIMl0xW0NIMl1bTkBASCtdKFtDSDNdKVtDQEhdKGMyYzEzKVtDSDJdYzRbY0hdW2NIXWMoW2NIXVtjSF00KU9jNWM2YyhbY0hdYyhjNVtPSF0pT1tDSDNdKVtDSDJdW0NIMl1bTitdKFtDSDNdKShbQ0gzXSlbQ0BASF02W0NIMl1jN1tjSF1bY0hdYyhbT0hdKWMoW2NIXTcpT2MoW2NIXTIpYyhbY0hdMylPW0NIM10=

> <s_epik_cmdline>
J2VwaWtfYXBwJywgJy1pbWFlJywgJ2xpZ2FuZF9wcm8ubWFlJywgJy1vbWFlJywgJ2xpZ2FuZF9wcmVwLm1hZScsICctbXMnLCAnMScsICctcGgnLCAnNycsICctcGh0JywgJzAuNScsICctbnQn

> <r_lp_tautomer_probability>
1

> <r_epik_Ionization_Penalty>
  0.2150

> <r_epik_Ionization_Penalty_Charging>
  0.0446

> <r_epik_Ionization_Penalty_Neutral>
  0.1704

> <r_epik_State_Penalty>
 -0.0000

> <r_epik_Charging_Adjusted_Penalty>
0.0446366349319112

> <i_epik_Tot_Q>
2

> <i_epik_Tot_abs_Q>
2

$$$$
