2xyu_ligand
                    3D
 Schrodinger Suite 2020-3.
 36 39  0  0  1  0            999 V2000
    3.0790   12.6700   19.5130 N   0  3  0  0  0  0
    4.0690   13.5860   19.8440 C   0  0  0  0  0  0
    5.4280   13.3500   20.0960 C   0  0  0  0  0  0
    5.8600   11.9580   19.9890 C   0  0  0  0  0  0
    4.9570   11.0010   19.6720 C   0  0  0  0  0  0
    3.5370   11.3820   19.4220 C   0  0  0  0  0  0
    2.5610   10.3110   19.0770 C   0  0  0  0  0  0
    7.2960   11.5930   20.2440 C   0  0  0  0  0  0
    7.4430   10.1790   20.6780 C   0  0  0  0  0  0
    6.8230    9.2920   19.6680 C   0  0  0  0  0  0
    5.3610    9.5570   19.5550 C   0  0  0  0  0  0
    3.8730   14.9490   20.0050 N   0  0  0  0  0  0
    4.9730   15.6220   20.3220 N   0  3  0  0  0  0
    5.9390   14.6600   20.3890 C   0  0  3  0  0  0
    7.2900   14.9930   20.7220 N   0  0  0  0  0  0
    1.9070    9.6300   20.1040 C   0  0  0  0  0  0
    0.9960    8.6390   19.8280 C   0  0  0  0  0  0
    0.4120    8.0040   20.8550 F   0  0  0  0  0  0
    0.6930    8.3030   18.5220 C   0  0  0  0  0  0
    1.3180    8.9750   17.4820 C   0  0  0  0  0  0
    2.2600    9.9850   17.7440 C   0  0  0  0  0  0
    2.9400   10.7130   16.6300 C   0  0  0  0  0  0
    8.1307   12.2837   20.1247 H   0  0  0  0  0  0
    7.9303    9.8476   21.5950 H   0  0  0  0  0  0
    7.3631    8.5456   19.0855 H   0  0  0  0  0  0
    4.6346    8.7595   19.3984 H   0  0  0  0  0  0
    8.0548   14.2039   20.7711 H   0  0  0  0  0  0
    7.5639   16.0381   20.9289 H   0  0  0  0  0  0
    2.1219    9.8879   21.1410 H   0  0  0  0  0  0
   -0.0313    7.5162   18.3110 H   0  0  0  0  0  0
    1.0762    8.7173   16.4509 H   0  0  0  0  0  0
    3.6339   11.4572   17.0480 H   0  0  0  0  0  0
    2.1865   11.2215   16.0105 H   0  0  0  0  0  0
    3.5000    9.9962   16.0115 H   0  0  0  0  0  0
    4.9297   16.7123   20.4615 H   0  0  0  0  0  0
    2.0456   13.0110   19.3525 H   0  0  0  0  0  0
  1  2  2  0  0  0
  1  6  1  0  0  0
  1 36  1  0  0  0
  2  3  1  0  0  0
  2 12  1  0  0  0
  3  4  2  0  0  0
  3 14  1  0  0  0
  4  5  1  0  0  0
  4  8  1  0  0  0
  5  6  2  0  0  0
  5 11  1  0  0  0
  6  7  1  0  0  0
  7 16  2  0  0  0
  7 21  1  0  0  0
  8  9  2  0  0  0
  8 23  1  0  0  0
  9 10  1  0  0  0
  9 24  1  0  0  0
 10 11  2  0  0  0
 10 25  1  0  0  0
 11 26  1  0  0  0
 12 13  2  0  0  0
 13 14  1  0  0  0
 13 35  1  0  0  0
 14 15  1  0  0  0
 15 27  1  0  0  0
 15 28  1  0  0  0
 16 17  1  0  0  0
 16 29  1  0  0  0
 17 18  1  0  0  0
 17 19  2  0  0  0
 19 20  1  0  0  0
 19 30  1  0  0  0
 20 21  2  0  0  0
 20 31  1  0  0  0
 21 22  1  0  0  0
 22 32  1  0  0  0
 22 33  1  0  0  0
 22 34  1  0  0  0
M  CHG  2   1   1  13   1
M  END
> <s_m_source_file>
../2xyu_ligand.sdf

> <i_m_source_file_index>
1

> <s_epik_input>
TjE9TltDSF0oW05IMl0pYyhjMTIpYzNjKFtjSF1bY0hdW2NIXVtjSF0zKWMobjIpLWM0W2NIXWMoRilbY0hdW2NIXWM0W0NIM10=

> <s_epik_cmdline>
J2VwaWtfYXBwJywgJy1pbWFlJywgJ2xpZ2FuZF9wcm8ubWFlJywgJy1vbWFlJywgJ2xpZ2FuZF9wcmVwLm1hZScsICctbXMnLCAnMScsICctcGgnLCAnNycsICctcGh0JywgJzAuNScsICctbnQn

> <r_lp_tautomer_probability>
1

> <r_epik_Ionization_Penalty>
  0.0094

> <r_epik_Ionization_Penalty_Charging>
  0.0094

> <r_epik_Ionization_Penalty_Neutral>
  0.0000

> <r_epik_State_Penalty>
 -0.0000

> <r_epik_Charging_Adjusted_Penalty>
0.00943625326166911

> <i_epik_Tot_Q>
2

> <i_epik_Tot_abs_Q>
2

$$$$
