2xzc_ligand
                    3D
 Schrodinger Suite 2020-3.
 38 40  0  0  1  0            999 V2000
  -12.9060    1.5270    1.2920 C   0  0  0  0  0  0
  -11.8570    2.3170    1.6600 C   0  0  0  0  0  0
  -11.6670    3.6280    1.2630 C   0  0  0  0  0  0
  -12.5740    4.2430    0.4530 C   0  0  0  0  0  0
  -13.6250    3.4950    0.0220 C   0  0  0  0  0  0
  -13.8110    2.1620    0.4440 C   0  0  0  0  0  0
  -14.4720   -2.1070    1.1660 C   0  0  2  0  0  0
  -16.0110   -2.0160    1.0930 C   0  0  0  0  0  0
  -16.5670   -2.1130   -0.3180 C   0  0  2  0  0  0
  -16.0610   -3.4150   -0.8790 N   0  3  2  0  0  0
  -11.7550   -0.7040    2.2020 O   0  0  0  0  0  0
  -13.7850   -0.8530    0.7600 O   0  0  0  0  0  0
  -13.0300   -0.0960    1.8690 P   0  0  0  0  0  0
  -15.9500   -1.1250   -1.3270 C   0  0  0  0  0  0
  -14.6230   -1.7810   -1.8660 C   0  0  0  0  0  0
  -14.6310   -3.1870   -1.2370 C   0  0  1  0  0  0
  -13.8640   -3.0990    0.1120 C   0  0  0  0  0  0
  -16.7630   -3.9470   -2.1260 C   0  0  0  0  0  0
  -11.1080    1.8798    2.3203 H   0  0  0  0  0  0
  -10.7855    4.1732    1.6004 H   0  0  0  0  0  0
  -12.4622    5.2879    0.1634 H   0  0  0  0  0  0
  -14.3431    3.9377   -0.6683 H   0  0  0  0  0  0
  -14.6868    1.6136    0.0972 H   0  0  0  0  0  0
  -14.3034   -2.3509    2.2253 H   0  0  0  0  0  0
  -16.4549   -2.8371    1.6751 H   0  0  0  0  0  0
  -16.3414   -1.0522    1.5077 H   0  0  0  0  0  0
  -17.6531   -1.9726   -0.2151 H   0  0  0  0  0  0
  -16.2281   -4.1663   -0.0931 H   0  0  0  0  0  0
  -16.6587   -0.9512   -2.1502 H   0  0  0  0  0  0
  -15.7340   -0.1720   -0.8218 H   0  0  0  0  0  0
  -14.6511   -1.8153   -2.9651 H   0  0  0  0  0  0
  -13.7595   -1.1828   -1.5398 H   0  0  0  0  0  0
  -14.2278   -3.9662   -1.9005 H   0  0  0  0  0  0
  -12.8370   -2.7900   -0.1325 H   0  0  0  0  0  0
  -13.8511   -4.1162    0.5306 H   0  0  0  0  0  0
  -17.8243   -4.1280   -1.9002 H   0  0  0  0  0  0
  -16.2891   -4.8887   -2.4399 H   0  0  0  0  0  0
  -16.6814   -3.2075   -2.9363 H   0  0  0  0  0  0
  1  2  2  0  0  0
  1  6  1  0  0  0
  1 13  1  0  0  0
  2  3  1  0  0  0
  2 19  1  0  0  0
  3  4  2  0  0  0
  3 20  1  0  0  0
  4  5  1  0  0  0
  4 21  1  0  0  0
  5  6  2  0  0  0
  5 22  1  0  0  0
  6 23  1  0  0  0
  7  8  1  0  0  0
  7 12  1  0  0  0
  7 17  1  0  0  0
  7 24  1  0  0  0
  8  9  1  0  0  0
  8 25  1  0  0  0
  8 26  1  0  0  0
  9 10  1  0  0  0
  9 14  1  0  0  0
  9 27  1  0  0  0
 10 16  1  0  0  0
 10 18  1  0  0  0
 10 28  1  0  0  0
 11 13  1  0  0  0
 12 13  1  0  0  0
 14 15  1  0  0  0
 14 29  1  0  0  0
 14 30  1  0  0  0
 15 16  1  0  0  0
 15 31  1  0  0  0
 15 32  1  0  0  0
 16 17  1  0  0  0
 16 33  1  0  0  0
 17 34  1  0  0  0
 17 35  1  0  0  0
 18 36  1  0  0  0
 18 37  1  0  0  0
 18 38  1  0  0  0
M  CHG  1  10   1
M  END
> <s_m_source_file>
../2xzc_ligand.sdf

> <i_m_source_file_index>
1

> <s_epik_input>
W2NIXTFbY0hdW2NIXVtjSF1bY0hdYzFQKFtPSF0pT1tDQEBIXShbQ0gyXVtDQEhdMjMpW0NIMl1bQ0BASF0oW05AQEgrXTJbQ0gzXSlbQ0gyXVtDSDJdMw==

> <s_epik_cmdline>
J2VwaWtfYXBwJywgJy1pbWFlJywgJ2xpZ2FuZF9wcm8ubWFlJywgJy1vbWFlJywgJ2xpZ2FuZF9wcmVwLm1hZScsICctbXMnLCAnMScsICctcGgnLCAnNycsICctcGh0JywgJzAuNScsICctbnQn

> <r_lp_tautomer_probability>
1

> <r_epik_Ionization_Penalty>
  0.0051

> <r_epik_Ionization_Penalty_Charging>
  0.0051

> <r_epik_Ionization_Penalty_Neutral>
  0.0000

> <r_epik_State_Penalty>
 -0.0000

> <r_epik_Charging_Adjusted_Penalty>
0.00513861479585889

> <i_epik_Tot_Q>
1

> <i_epik_Tot_abs_Q>
1

$$$$
