2xzg_ligand
                    3D
 Schrodinger Suite 2020-3.
 40 43  0  0  1  0            999 V2000
   46.0830   -7.5620   26.2510 C   0  0  0  0  0  0
   46.1750   -6.2670   26.7830 C   0  0  0  0  0  0
   46.5190   -5.1940   25.9590 C   0  0  0  0  0  0
   46.5910   -3.9400   26.4740 N   0  0  0  0  0  0
   46.7920   -5.4120   24.6050 C   0  0  0  0  0  0
   46.7260   -6.7070   24.0820 C   0  0  0  0  0  0
   46.3680   -7.7760   24.9120 C   0  0  0  0  0  0
   46.2630   -9.1560   24.2810 C   0  0  0  0  0  0
   47.4900   -9.9620   24.3130 N   0  0  0  0  0  0
   48.4100   -9.8270   23.2980 C   0  0  0  0  0  0
   48.1570   -9.0130   22.4290 O   0  0  0  0  0  0
   49.5740  -10.5970   23.2920 C   0  0  0  0  0  0
   49.7590  -11.5290   24.3490 C   0  0  0  0  0  0
   50.5050  -10.4670   22.2750 C   0  0  0  0  0  0
   51.6400  -11.2560   22.3080 C   0  0  0  0  0  0
   52.8450  -11.1720   21.0200 S   0  0  0  0  0  0
   52.6130  -12.2710   20.1830 O   0  0  0  0  0  0
   54.1560  -11.4150   21.6630 O   0  0  0  0  0  0
   52.8090   -9.8950   20.2520 O   0  5  0  0  0  0
   51.8430  -12.1770   23.3420 C   0  0  0  0  0  0
   50.9090  -12.3400   24.3740 C   0  0  0  0  0  0
   51.1200  -13.2500   25.4260 C   0  0  0  0  0  0
   50.1860  -13.3960   26.4600 C   0  0  0  0  0  0
   49.0230  -12.5950   26.4200 C   0  0  0  0  0  0
   48.8090  -11.6690   25.3680 C   0  0  0  0  0  0
   47.6530  -10.8870   25.3300 C   0  0  0  0  0  0
   46.7960  -10.9340   26.1950 O   0  0  0  0  0  0
   45.7887   -8.3960   26.8882 H   0  0  0  0  0  0
   45.9775   -6.0985   27.8416 H   0  0  0  0  0  0
   46.3760   -3.7697   27.5393 H   0  0  0  0  0  0
   46.8643   -3.0942   25.8260 H   0  0  0  0  0  0
   47.0556   -4.5746   23.9590 H   0  0  0  0  0  0
   46.9527   -6.8838   23.0306 H   0  0  0  0  0  0
   45.4940   -9.7416   24.8060 H   0  0  0  0  0  0
   45.9867   -9.0545   23.2211 H   0  0  0  0  0  0
   50.3460   -9.7563   21.4640 H   0  0  0  0  0  0
   52.7495  -12.7822   23.3447 H   0  0  0  0  0  0
   52.0278  -13.8532   25.4368 H   0  0  0  0  0  0
   50.3516  -14.1058   27.2705 H   0  0  0  0  0  0
   48.2785  -12.6904   27.2104 H   0  0  0  0  0  0
  1  2  2  0  0  0
  1  7  1  0  0  0
  1 28  1  0  0  0
  2  3  1  0  0  0
  2 29  1  0  0  0
  3  4  1  0  0  0
  3  5  2  0  0  0
  4 30  1  0  0  0
  4 31  1  0  0  0
  5  6  1  0  0  0
  5 32  1  0  0  0
  6  7  2  0  0  0
  6 33  1  0  0  0
  7  8  1  0  0  0
  8  9  1  0  0  0
  8 34  1  0  0  0
  8 35  1  0  0  0
  9 10  1  0  0  0
  9 26  1  0  0  0
 10 11  2  0  0  0
 10 12  1  0  0  0
 12 13  2  0  0  0
 12 14  1  0  0  0
 13 21  1  0  0  0
 13 25  1  0  0  0
 14 15  2  0  0  0
 14 36  1  0  0  0
 15 16  1  0  0  0
 15 20  1  0  0  0
 16 17  2  0  0  0
 16 18  2  0  0  0
 16 19  1  0  0  0
 20 21  2  0  0  0
 20 37  1  0  0  0
 21 22  1  0  0  0
 22 23  2  0  0  0
 22 38  1  0  0  0
 23 24  1  0  0  0
 23 39  1  0  0  0
 24 25  2  0  0  0
 24 40  1  0  0  0
 25 26  1  0  0  0
 26 27  2  0  0  0
M  CHG  1  19  -1
M  END
> <s_m_source_file>
../2xzg_ligand.sdf

> <i_m_source_file_index>
1

> <s_epik_input>
W05IMl1jMVtjSF1bY0hdYyhbY0hdW2NIXTEpW0NIMl1OKEMyPU8pQyg9TyljM1tjSF1bY0hdW2NIXWMoYzNjMjQpW2NIXWMoW2NIXTQpUyg9TykoPU8pW09IXQ==

> <s_epik_cmdline>
J2VwaWtfYXBwJywgJy1pbWFlJywgJ2xpZ2FuZF9wcm8ubWFlJywgJy1vbWFlJywgJ2xpZ2FuZF9wcmVwLm1hZScsICctbXMnLCAnMScsICctcGgnLCAnNycsICctcGh0JywgJzAuNScsICctbnQn

> <r_lp_tautomer_probability>
1

> <r_epik_Ionization_Penalty>
  0.0027

> <r_epik_Ionization_Penalty_Charging>
  0.0000

> <r_epik_Ionization_Penalty_Neutral>
  0.0027

> <r_epik_State_Penalty>
 -0.0000

> <r_epik_Charging_Adjusted_Penalty>
7.98403331329426e-07

> <i_epik_Tot_Q>
-1

> <i_epik_Tot_abs_Q>
1

$$$$
