2xzq_ligand
                    3D
 Schrodinger Suite 2020-3.
142143  0  0  1  0            999 V2000
  -18.7460   14.2550   -6.4130 N   0  3  0  0  0  0
  -19.6160   14.7100   -5.2930 C   0  0  2  0  0  0
  -20.7260   13.6680   -5.1660 C   0  0  0  0  0  0
  -21.3420   13.5060   -4.1070 O   0  0  0  0  0  0
  -20.2200   16.0770   -5.6340 C   0  0  0  0  0  0
  -19.3530   16.9090   -6.5570 C   0  0  0  0  0  0
  -18.2550   17.6140   -6.0750 C   0  0  0  0  0  0
  -19.6140   16.9570   -7.9190 C   0  0  0  0  0  0
  -17.4430   18.3420   -6.9330 C   0  0  0  0  0  0
  -18.8150   17.6730   -8.7740 C   0  0  0  0  0  0
  -17.7310   18.3650   -8.2820 C   0  0  0  0  0  0
  -16.9180   19.0790   -9.1370 O   0  0  0  0  0  0
  -20.9490   12.9610   -6.2730 N   0  0  0  0  0  0
  -21.9670   11.9210   -6.4070 C   0  0  2  0  0  0
  -21.8700   10.7930   -5.3290 C   0  0  0  0  0  0
  -22.4340   10.9770   -4.2480 O   0  0  0  0  0  0
  -21.8950   11.4020   -7.8470 C   0  0  0  0  0  0
  -20.8310   12.1140   -8.7700 C   0  0  0  0  0  0
  -21.2060   13.5250   -9.2590 C   0  0  0  0  0  0
  -22.3690   13.8170   -9.5390 O   0  0  0  0  0  0
  -20.2000   14.3890   -9.3950 N   0  0  0  0  0  0
  -21.2300    9.6400   -5.6070 N   0  0  0  0  0  0
  -21.0030    8.5440   -4.5960 C   0  0  2  0  0  0
  -21.7510    7.1850   -4.3810 C   0  0  0  0  0  0
  -21.8660    6.3540   -5.2770 O   0  0  0  0  0  0
  -20.7950    9.1910   -3.2050 C   0  0  0  0  0  0
  -22.1350    6.9620   -3.1160 N   0  0  0  0  0  0
  -22.9120    5.8210   -2.5600 C   0  0  2  0  0  0
  -23.3890    4.5980   -3.3840 C   0  0  0  0  0  0
  -22.7740    4.2300   -4.3780 O   0  0  0  0  0  0
  -24.1400    6.4770   -1.9520 C   0  0  0  0  0  0
  -24.8210    7.3370   -2.9760 C   0  0  0  0  0  0
  -26.0740    7.9850   -2.4840 C   0  0  0  0  0  0
  -26.3000    9.2010   -3.2530 N   0  0  0  0  0  0
  -27.4870    9.7610   -3.4500 C   0  0  0  0  0  0
  -28.5780    9.2100   -2.9350 N   0  3  0  0  0  0
  -27.5790   10.8770   -4.1620 N   0  0  0  0  0  0
  -24.4590    3.9040   -2.9090 N   0  0  0  0  0  0
  -25.0140    2.7400   -3.6220 C   0  0  2  0  0  0
  -26.2970    3.2210   -4.3180 C   0  0  0  0  0  0
  -26.2500    4.1230   -5.1630 O   0  0  0  0  0  0
  -25.3440    1.7410   -2.4990 C   0  0  0  0  0  0
  -24.7490    2.3440   -1.2390 C   0  0  0  0  0  0
  -24.8340    3.8150   -1.4840 C   0  0  0  0  0  0
  -27.4220    2.6140   -3.9190 N   0  0  0  0  0  0
  -28.7930    2.9040   -4.3880 C   0  0  2  0  0  0
  -29.5280    1.6510   -4.8740 C   0  0  0  0  0  0
  -29.2240    0.5320   -4.4450 O   0  0  0  0  0  0
  -28.8220    3.9600   -5.5040 C   0  0  0  0  0  0
  -29.9380    4.9790   -5.3080 C   0  0  0  0  0  0
  -29.8630    5.8320   -4.4200 O   0  0  0  0  0  0
  -30.9830    4.8880   -6.1270 N   0  0  0  0  0  0
  -30.5090    1.8480   -5.7540 N   0  0  0  0  0  0
  -31.2800    0.7400   -6.3120 C   0  0  2  0  0  0
  -30.8850    0.5810   -7.7800 C   0  0  0  0  0  0
  -31.5380   -0.1350   -8.5460 O   0  0  0  0  0  0
  -32.7780    1.0170   -6.1810 C   0  0  0  0  0  0
  -29.8030    1.2630   -8.1510 N   0  0  0  0  0  0
  -29.2670    1.2240   -9.5080 C   0  0  2  0  0  0
  -27.8310    0.6830   -9.4180 C   0  0  0  0  0  0
  -27.4610   -0.2460  -10.1380 O   0  0  0  0  0  0
  -29.2750    2.6350  -10.1120 C   0  0  0  0  0  0
  -29.3490    2.6750  -11.6350 C   0  0  0  0  0  0
  -28.2720    3.5480  -12.2480 C   0  0  0  0  0  0
  -27.3530    3.9580  -11.5090 O   0  5  0  0  0  0
  -28.3350    3.8230  -13.4640 O   0  0  0  0  0  0
  -27.0450    1.2730   -8.5140 N   0  0  0  0  0  0
  -25.6450    0.9050   -8.2390 C   0  0  2  0  0  0
  -24.8050    0.3340   -9.3830 C   0  0  0  0  0  0
  -23.9710   -0.5620   -9.1020 O   0  0  0  0  0  0
  -25.5630   -0.1000   -7.0760 C   0  0  2  0  0  0
  -26.3350   -1.2650   -7.3940 O   0  0  0  0  0  0
  -26.0960    0.5180   -5.8030 C   0  0  0  0  0  0
  -24.9449    0.7478  -10.5649 O   0  5  0  0  0  0
  -18.3137   13.2741   -6.1663 H   0  0  0  0  0  0
  -17.9368   14.9838   -6.5681 H   0  0  0  0  0  0
  -19.3450   14.1711   -7.3318 H   0  0  0  0  0  0
  -19.0299   14.8003   -4.3666 H   0  0  0  0  0  0
  -21.1899   15.9351   -6.1332 H   0  0  0  0  0  0
  -20.3647   16.6549   -4.7093 H   0  0  0  0  0  0
  -18.0294   17.5943   -5.0088 H   0  0  0  0  0  0
  -20.4714   16.4147   -8.3177 H   0  0  0  0  0  0
  -16.5851   18.8909   -6.5445 H   0  0  0  0  0  0
  -19.0379   17.6940   -9.8408 H   0  0  0  0  0  0
  -16.0528   19.6307   -8.7407 H   0  0  0  0  0  0
  -20.2992   13.2077   -7.1256 H   0  0  0  0  0  0
  -22.9324   12.4147   -6.2216 H   0  0  0  0  0  0
  -21.6348   10.3332   -7.8390 H   0  0  0  0  0  0
  -22.8714   11.5380   -8.3350 H   0  0  0  0  0  0
  -19.8831   12.2203   -8.2222 H   0  0  0  0  0  0
  -20.6663   11.5090   -9.6738 H   0  0  0  0  0  0
  -19.1756   14.0860   -9.1329 H   0  0  0  0  0  0
  -20.3943   15.4049   -9.7694 H   0  0  0  0  0  0
  -20.8646    9.5217   -6.6378 H   0  0  0  0  0  0
  -20.1948    8.1394   -5.2230 H   0  0  0  0  0  0
  -20.2703   10.1507   -3.3218 H   0  0  0  0  0  0
  -20.1945    8.5191   -2.5742 H   0  0  0  0  0  0
  -21.7725    9.3629   -2.7307 H   0  0  0  0  0  0
  -21.7960    7.7716   -2.4530 H   0  0  0  0  0  0
  -22.1483    5.3486   -1.9247 H   0  0  0  0  0  0
  -24.8388    5.6999   -1.6089 H   0  0  0  0  0  0
  -23.8375    7.1010   -1.0981 H   0  0  0  0  0  0
  -24.1399    8.1414   -3.2907 H   0  0  0  0  0  0
  -25.0919    6.7238   -3.8482 H   0  0  0  0  0  0
  -26.9202    7.2948   -2.6168 H   0  0  0  0  0  0
  -25.9652    8.2308   -1.4174 H   0  0  0  0  0  0
  -25.4513    9.7222   -3.7199 H   0  0  0  0  0  0
  -28.5009    8.2849   -2.3449 H   0  0  0  0  0  0
  -26.6737   11.3333   -4.5888 H   0  0  0  0  0  0
  -28.5606   11.3458   -4.3254 H   0  0  0  0  0  0
  -24.3230    2.3181   -4.3666 H   0  0  0  0  0  0
  -26.4352    1.6294   -2.4165 H   0  0  0  0  0  0
  -24.8922    0.7654   -2.7316 H   0  0  0  0  0  0
  -25.3413    2.0296   -0.3670 H   0  0  0  0  0  0
  -23.7114    1.9981   -1.1215 H   0  0  0  0  0  0
  -24.1217    4.3966   -0.8804 H   0  0  0  0  0  0
  -25.8476    4.2194   -1.3456 H   0  0  0  0  0  0
  -27.2525    1.8296   -3.1666 H   0  0  0  0  0  0
  -29.2788    3.2937   -3.4813 H   0  0  0  0  0  0
  -27.8651    4.5022   -5.5207 H   0  0  0  0  0  0
  -28.9797    3.4647   -6.4735 H   0  0  0  0  0  0
  -31.0061    4.1105   -6.9048 H   0  0  0  0  0  0
  -31.8236    5.5903   -6.0262 H   0  0  0  0  0  0
  -30.7317    2.8813   -6.0584 H   0  0  0  0  0  0
  -31.0349   -0.1651   -5.7369 H   0  0  0  0  0  0
  -33.0388    1.1276   -5.1181 H   0  0  0  0  0  0
  -33.3449    0.1789   -6.6124 H   0  0  0  0  0  0
  -33.0278    1.9438   -6.7182 H   0  0  0  0  0  0
  -29.3094    1.8755   -7.3821 H   0  0  0  0  0  0
  -29.9094    0.5693  -10.1152 H   0  0  0  0  0  0
  -30.1474    3.1897   -9.7363 H   0  0  0  0  0  0
  -28.3535    3.1623   -9.8242 H   0  0  0  0  0  0
  -29.2272    1.6575  -12.0348 H   0  0  0  0  0  0
  -30.3255    3.0760  -11.9443 H   0  0  0  0  0  0
  -27.5186    2.0923   -7.9533 H   0  0  0  0  0  0
  -25.2479    1.9085   -8.0263 H   0  0  0  0  0  0
  -24.5289   -0.4415   -6.9209 H   0  0  0  0  0  0
  -26.0968   -1.8545   -8.2917 H   0  0  0  0  0  0
  -25.5063    1.4128   -5.5550 H   0  0  0  0  0  0
  -26.0201   -0.2103   -4.9821 H   0  0  0  0  0  0
  -27.1493    0.8010   -5.9459 H   0  0  0  0  0  0
  -29.5600    9.6781   -3.0980 H   0  0  0  0  0  0
  1  2  1  0  0  0
  1 75  1  0  0  0
  1 76  1  0  0  0
  1 77  1  0  0  0
  2  3  1  0  0  0
  2  5  1  0  0  0
  2 78  1  0  0  0
  3  4  2  0  0  0
  3 13  1  0  0  0
  5  6  1  0  0  0
  5 79  1  0  0  0
  5 80  1  0  0  0
  6  7  2  0  0  0
  6  8  1  0  0  0
  7  9  1  0  0  0
  7 81  1  0  0  0
  8 10  2  0  0  0
  8 82  1  0  0  0
  9 11  2  0  0  0
  9 83  1  0  0  0
 10 11  1  0  0  0
 10 84  1  0  0  0
 11 12  1  0  0  0
 12 85  1  0  0  0
 13 14  1  0  0  0
 13 86  1  0  0  0
 14 15  1  0  0  0
 14 17  1  0  0  0
 14 87  1  0  0  0
 15 16  2  0  0  0
 15 22  1  0  0  0
 17 18  1  0  0  0
 17 88  1  0  0  0
 17 89  1  0  0  0
 18 19  1  0  0  0
 18 90  1  0  0  0
 18 91  1  0  0  0
 19 20  2  0  0  0
 19 21  1  0  0  0
 21 92  1  0  0  0
 21 93  1  0  0  0
 22 23  1  0  0  0
 22 94  1  0  0  0
 23 24  1  0  0  0
 23 26  1  0  0  0
 23 95  1  0  0  0
 24 25  2  0  0  0
 24 27  1  0  0  0
 26 96  1  0  0  0
 26 97  1  0  0  0
 26 98  1  0  0  0
 27 28  1  0  0  0
 27 99  1  0  0  0
 28 29  1  0  0  0
 28 31  1  0  0  0
 28100  1  0  0  0
 29 30  2  0  0  0
 29 38  1  0  0  0
 31 32  1  0  0  0
 31101  1  0  0  0
 31102  1  0  0  0
 32 33  1  0  0  0
 32103  1  0  0  0
 32104  1  0  0  0
 33 34  1  0  0  0
 33105  1  0  0  0
 33106  1  0  0  0
 34 35  1  0  0  0
 34107  1  0  0  0
 35 36  2  0  0  0
 35 37  1  0  0  0
 36108  1  0  0  0
 36142  1  0  0  0
 37109  1  0  0  0
 37110  1  0  0  0
 38 39  1  0  0  0
 38 44  1  0  0  0
 39 40  1  0  0  0
 39 42  1  0  0  0
 39111  1  0  0  0
 40 41  2  0  0  0
 40 45  1  0  0  0
 42 43  1  0  0  0
 42112  1  0  0  0
 42113  1  0  0  0
 43 44  1  0  0  0
 43114  1  0  0  0
 43115  1  0  0  0
 44116  1  0  0  0
 44117  1  0  0  0
 45 46  1  0  0  0
 45118  1  0  0  0
 46 47  1  0  0  0
 46 49  1  0  0  0
 46119  1  0  0  0
 47 48  2  0  0  0
 47 53  1  0  0  0
 49 50  1  0  0  0
 49120  1  0  0  0
 49121  1  0  0  0
 50 51  2  0  0  0
 50 52  1  0  0  0
 52122  1  0  0  0
 52123  1  0  0  0
 53 54  1  0  0  0
 53124  1  0  0  0
 54 55  1  0  0  0
 54 57  1  0  0  0
 54125  1  0  0  0
 55 56  2  0  0  0
 55 58  1  0  0  0
 57126  1  0  0  0
 57127  1  0  0  0
 57128  1  0  0  0
 58 59  1  0  0  0
 58129  1  0  0  0
 59 60  1  0  0  0
 59 62  1  0  0  0
 59130  1  0  0  0
 60 61  2  0  0  0
 60 67  1  0  0  0
 62 63  1  0  0  0
 62131  1  0  0  0
 62132  1  0  0  0
 63 64  1  0  0  0
 63133  1  0  0  0
 63134  1  0  0  0
 64 65  1  0  0  0
 64 66  2  0  0  0
 67 68  1  0  0  0
 67135  1  0  0  0
 68 69  1  0  0  0
 68 71  1  0  0  0
 68136  1  0  0  0
 69 70  2  0  0  0
 69 74  1  0  0  0
 71 72  1  0  0  0
 71 73  1  0  0  0
 71137  1  0  0  0
 72138  1  0  0  0
 73139  1  0  0  0
 73140  1  0  0  0
 73141  1  0  0  0
M  CHG  4   1   1  36   1  65  -1  74  -1
M  END
> <s_m_source_file>
../2xzq_ligand.sdf

> <i_m_source_file_index>
1

> <s_epik_input>
W2NIXTFbY0hdYyhbT0hdKVtjSF1bY0hdYzFbQ0gyXVtDQEhdKFtOSDMrXSlDKD1PKVtOSF1bQ0BASF0oW0NIMl1bQ0gyXUMoPU8pW05IMl0pQyg9TylbTkhdW0NAQEhdKFtDSDNdKUMoPU8pW05IXVtDQEBIXShbQ0gyXVtDSDJdW0NIMl1bTkhdL0MoPU5cW0hdKVtOSDJdKUMoPU8pTjJbQ0BASF0oW0NIMl1bQ0gyXVtDSDJdMilDKD1PKVtOSF1bQ0BASF0oW0NIMl1DKD1PKVtOSDJdKUMoPU8pW05IXVtDQEBIXShbQ0gzXSlDKD1PKVtOSF1bQ0BASF0oW0NIMl1bQ0gyXUMoPU8pW09IXSlDKD1PKVtOSF1bQ0BIXShDKD1PKVtPSF0pW0NASF0oW09IXSlbQ0gzXQ==

> <s_epik_cmdline>
J2VwaWtfYXBwJywgJy1pbWFlJywgJ2xpZ2FuZF9wcm8ubWFlJywgJy1vbWFlJywgJ2xpZ2FuZF9wcmVwLm1hZScsICctbXMnLCAnMScsICctcGgnLCAnNycsICctcGh0JywgJzAuNScsICctbnQn

> <r_lp_tautomer_probability>
0.999999999997365

> <r_epik_Ionization_Penalty>
  0.2173

> <r_epik_Ionization_Penalty_Charging>
  0.2146

> <r_epik_Ionization_Penalty_Neutral>
  0.0027

> <r_epik_State_Penalty>
  0.2027

> <r_epik_Charging_Adjusted_Penalty>
0.417306773650114

> <i_epik_Tot_Q>
0

> <i_epik_Tot_abs_Q>
4

> <s_epik_Chemistry_Notes>
This compound has an imine and may undergo hydrolysis.

$$$$
